# generated using pymatgen
data_Na4CaMgSi(SO6)2
_symmetry_space_group_name_H-M   'P 1'
_cell_length_a   9.32576829
_cell_length_b   9.32345434
_cell_length_c   22.50352517
_cell_angle_alpha   89.70581060
_cell_angle_beta   89.77967073
_cell_angle_gamma   119.96645064
_symmetry_Int_Tables_number   1
_chemical_formula_structural   Na4CaMgSi(SO6)2
_chemical_formula_sum   'Na24 Ca6 Mg6 Si6 S12 O72'
_cell_volume   1695.00804181
_cell_formula_units_Z   6
loop_
 _symmetry_equiv_pos_site_id
 _symmetry_equiv_pos_as_xyz
  1  'x, y, z'
loop_
 _atom_site_type_symbol
 _atom_site_label
 _atom_site_symmetry_multiplicity
 _atom_site_fract_x
 _atom_site_fract_y
 _atom_site_fract_z
 _atom_site_occupancy
  Na  Na0  1  0.61576008  0.99645099  0.25905334  1
  Na  Na1  1  0.36018078  0.34231088  0.25387280  1
  Na  Na2  1  0.00991030  0.65120368  0.23548291  1
  Na  Na3  1  0.64207036  0.65386141  0.73111688  1
  Na  Na4  1  0.97512222  0.33757466  0.75025836  1
  Na  Na5  1  0.38134899  0.00243905  0.75668355  1
  Na  Na6  1  0.32366648  0.34918334  0.59054622  1
  Na  Na7  1  0.00867053  0.69257485  0.58172210  1
  Na  Na8  1  0.67490259  0.95189058  0.58644354  1
  Na  Na9  1  0.27693404  0.95065338  0.08690744  1
  Na  Na10  1  0.68519316  0.69403927  0.08340079  1
  Na  Na11  1  0.02458207  0.34802023  0.09270460  1
  Na  Na12  1  0.99240599  0.68612592  0.93239162  1
  Na  Na13  1  0.67311031  0.02801488  0.90147533  1
  Na  Na14  1  0.33202125  0.28899935  0.91632380  1
  Na  Na15  1  0.95804578  0.28394950  0.41166767  1
  Na  Na16  1  0.34806323  0.02682707  0.39900622  1
  Na  Na17  1  0.69672504  0.68604230  0.42778154  1
  Na  Na18  1  0.95725628  0.97595754  0.49838390  1
  Na  Na19  1  0.01557689  0.97853447  0.00203451  1
  Na  Na20  1  0.65327654  0.29892811  0.83091772  1
  Na  Na21  1  0.65259219  0.30672309  0.33032178  1
  Na  Na22  1  0.31906236  0.68321145  0.17067354  1
  Na  Na23  1  0.35914007  0.68136321  0.66644165  1
  Ca  Ca0  1  0.99071276  0.99741746  0.84458177  1
  Ca  Ca1  1  0.66802095  0.33226459  0.98892295  1
  Ca  Ca2  1  0.66535570  0.33187409  0.48404103  1
  Ca  Ca3  1  0.32717298  0.67640942  0.01839173  1
  Ca  Ca4  1  0.35412534  0.67983891  0.51442566  1
  Ca  Ca5  1  0.33905160  0.67975094  0.81639735  1
  Mg  Mg0  1  0.00627558  0.99989961  0.34596756  1
  Mg  Mg1  1  0.98584375  0.99021295  0.65079643  1
  Mg  Mg2  1  0.00584684  0.98787438  0.15411995  1
  Mg  Mg3  1  0.66448589  0.33218892  0.68064121  1
  Mg  Mg4  1  0.66221337  0.32791792  0.18363969  1
  Mg  Mg5  1  0.34343639  0.69028166  0.31778382  1
  Si  Si0  1  0.30183349  0.00162358  0.25002849  1
  Si  Si1  1  0.69710005  0.00997665  0.74645358  1
  Si  Si2  1  0.67391989  0.63740842  0.58481981  1
  Si  Si3  1  0.96230929  0.63643993  0.08802018  1
  Si  Si4  1  0.33205067  0.98123597  0.91648850  1
  Si  Si5  1  0.64963261  0.97293594  0.41263750  1
  S  S0  1  0.70173008  0.70229152  0.25080732  1
  S  S1  1  0.00097880  0.29443792  0.24957996  1
  S  S2  1  0.30292824  0.29795943  0.74545734  1
  S  S3  1  0.99300328  0.69138915  0.74624328  1
  S  S4  1  0.96973571  0.33094988  0.58595515  1
  S  S5  1  0.35721111  0.03476171  0.58699318  1
  S  S6  1  0.67820164  0.03441145  0.08922389  1
  S  S7  1  0.35992250  0.32888086  0.08848208  1
  S  S8  1  0.63563004  0.66288530  0.91764913  1
  S  S9  1  0.03006601  0.36026011  0.91651400  1
  S  S10  1  0.32489334  0.36558854  0.41207947  1
  S  S11  1  0.03778691  0.67010969  0.41334426  1
  O  O0  1  0.21730230  0.03460769  0.30903610  1
  O  O1  1  0.80499804  0.78583262  0.30313983  1
  O  O2  1  0.98234310  0.19288647  0.30301159  1
  O  O3  1  0.22876954  0.20644978  0.80171148  1
  O  O4  1  0.97586511  0.76614115  0.80174417  1
  O  O5  1  0.79430539  0.04229903  0.81009495  1
  O  O6  1  0.80712823  0.99281785  0.69323365  1
  O  O7  1  0.19987714  0.20504010  0.69404813  1
  O  O8  1  0.01763920  0.80241415  0.69487399  1
  O  O9  1  0.77842857  0.80523449  0.19666570  1
  O  O10  1  0.01748571  0.21283386  0.19554644  1
  O  O11  1  0.18667991  0.97624995  0.19217636  1
  O  O12  1  0.87786934  0.34251506  0.63772065  1
  O  O13  1  0.46908008  0.11991800  0.63718187  1
  O  O14  1  0.65531013  0.51505340  0.64054202  1
  O  O15  1  0.85442210  0.51088393  0.14294400  1
  O  O16  1  0.64953365  0.12001782  0.13926894  1
  O  O17  1  0.46451480  0.34026671  0.13966063  1
  O  O18  1  0.42863336  0.30258113  0.03257800  1
  O  O19  1  0.86934196  0.56495608  0.02447211  1
  O  O20  1  0.69748504  0.12387776  0.03265592  1
  O  O21  1  0.42885816  0.12568315  0.53057049  1
  O  O22  1  0.69614619  0.56204816  0.52197926  1
  O  O23  1  0.87245541  0.30327424  0.53072057  1
  O  O24  1  0.55018212  0.67071879  0.97242774  1
  O  O25  1  0.13000212  0.44480453  0.96974660  1
  O  O26  1  0.31305039  0.87437203  0.97695437  1
  O  O27  1  0.58062013  0.87307277  0.47598264  1
  O  O28  1  0.30577474  0.43887534  0.46794190  1
  O  O29  1  0.12725201  0.68612713  0.46976462  1
  O  O30  1  0.12876578  0.65203288  0.36242460  1
  O  O31  1  0.52281482  0.87472657  0.35809968  1
  O  O32  1  0.33681656  0.47028716  0.36012754  1
  O  O33  1  0.11551616  0.45327238  0.86166881  1
  O  O34  1  0.35216802  0.89312310  0.85669373  1
  O  O35  1  0.53650434  0.64784039  0.86440788  1
  O  O36  1  0.02184371  0.82137427  0.40787230  1
  O  O37  1  0.83577868  0.99102612  0.40518272  1
  O  O38  1  0.17689828  0.19651854  0.40844054  1
  O  O39  1  0.00878857  0.19166070  0.91632607  1
  O  O40  1  0.16366166  0.99730173  0.91523847  1
  O  O41  1  0.80007020  0.81702837  0.91560429  1
  O  O42  1  0.00334291  0.19060624  0.59121571  1
  O  O43  1  0.19297820  0.02508592  0.59473431  1
  O  O44  1  0.84223120  0.82468372  0.58884196  1
  O  O45  1  0.98071334  0.82338387  0.09167473  1
  O  O46  1  0.83379404  0.02701124  0.09716152  1
  O  O47  1  0.18683567  0.18759305  0.09415973  1
  O  O48  1  0.67149964  0.17377030  0.73971254  1
  O  O49  1  0.47245743  0.32019821  0.74165431  1
  O  O50  1  0.84054845  0.52589811  0.74110551  1
  O  O51  1  0.68645264  0.53460096  0.24659120  1
  O  O52  1  0.85110568  0.31406032  0.24677707  1
  O  O53  1  0.49250675  0.16849976  0.24469028  1
  O  O54  1  0.65795571  0.51636052  0.91844091  1
  O  O55  1  0.86567149  0.34969837  0.91838016  1
  O  O56  1  0.50047166  0.16585078  0.91690979  1
  O  O57  1  0.66560928  0.15843088  0.41329443  1
  O  O58  1  0.47819396  0.35237257  0.41312894  1
  O  O59  1  0.86997198  0.52033658  0.41430243  1
  O  O60  1  0.35521885  0.48637889  0.08577422  1
  O  O61  1  0.14715989  0.65065933  0.09079659  1
  O  O62  1  0.53506391  0.86184620  0.08724348  1
  O  O63  1  0.32923520  0.86257705  0.58448632  1
  O  O64  1  0.50339065  0.65176789  0.58731048  1
  O  O65  1  0.13157822  0.48906597  0.58237112  1
  O  O66  1  0.31735945  0.83077646  0.25440865  1
  O  O67  1  0.52979405  0.67675307  0.25589634  1
  O  O68  1  0.15311046  0.46259280  0.25341710  1
  O  O69  1  0.31413779  0.46342481  0.74614066  1
  O  O70  1  0.13843501  0.66553377  0.74778148  1
  O  O71  1  0.51510348  0.83778090  0.74501861  1
loop_
_geom_bond_atom_site_label_1
_geom_bond_atom_site_label_2
_geom_bond_distance
_geom_bond_site_symmetry_2
Na0 O53 2.416241 1_565
Na0 O66 2.418824 1_555
Na0 O31 2.446163 1_555
Na0 O67 2.673518 1_555
Na0 O52 2.675161 1_565
Na0 O16 2.879524 1_565
Na1 O53 2.488148 1_555
Na1 O51 2.653845 1_555
Na1 O68 2.674003 1_555
Na1 O67 2.702180 1_555
Na1 O32 2.733780 1_555
Na1 O17 2.748215 1_555
Na1 O0 2.771053 1_555
Na2 O15 2.511350 1_455
Na2 O66 2.535055 1_555
Na2 O51 2.656872 1_455
Na2 O68 2.716896 1_555
Na2 O52 2.734390 1_455
Na2 O11 2.796082 1_555
Na3 O14 2.455480 1_555
Na3 O71 2.543872 1_555
Na3 O50 2.665799 1_555
Na3 O69 2.679732 1_555
Na3 O49 2.703645 1_555
Na3 O6 2.861114 1_555
Na4 O48 2.468830 1_555
Na4 O50 2.626783 1_555
Na4 O70 2.649087 1_655
Na4 O12 2.701190 1_555
Na4 O5 2.746360 1_555
Na4 O69 2.769779 1_655
Na4 O33 2.793856 1_655
Na5 O48 2.384768 1_555
Na5 O34 2.423345 1_545
Na5 O71 2.428213 1_545
Na5 O49 2.661997 1_555
Na5 O70 2.817806 1_545
Na5 O13 2.856315 1_555
Na6 O64 2.458991 1_555
Na6 O42 2.587889 1_555
Na6 O43 2.634798 1_555
Na6 O7 2.638387 1_555
Na6 O65 2.697731 1_555
Na6 O28 2.908370 1_555
Na6 O14 2.913674 1_555
Na7 O44 2.421164 1_455
Na7 O63 2.592711 1_555
Na7 O65 2.662070 1_555
Na7 O43 2.709432 1_565
Na7 O8 2.735382 1_555
Na7 O29 2.760553 1_555
Na7 O22 2.878649 1_455
Na8 O44 2.386090 1_555
Na8 O64 2.432414 1_555
Na8 O27 2.623395 1_555
Na8 O6 2.646404 1_555
Na8 O42 2.746197 1_665
Na8 O63 2.899463 1_555
Na9 O45 2.402630 1_455
Na9 O61 2.431158 1_555
Na9 O11 2.562873 1_555
Na9 O26 2.644340 1_554
Na9 O47 2.733069 1_565
Na9 O62 2.910629 1_555
Na10 O45 2.402154 1_555
Na10 O62 2.569857 1_555
Na10 O60 2.695687 1_555
Na10 O46 2.714650 1_565
Na10 O9 2.733344 1_555
Na10 O24 2.761389 1_554
Na10 O19 2.867014 1_555
Na11 O61 2.458942 1_555
Na11 O47 2.605519 1_555
Na11 O46 2.609429 1_455
Na11 O10 2.614295 1_555
Na11 O60 2.686387 1_555
Na11 O25 2.916200 1_554
Na11 O15 2.917707 1_455
Na12 O19 2.355758 1_556
Na12 O40 2.543969 1_655
Na12 O41 2.652716 1_555
Na12 O54 2.722662 1_555
Na12 O55 2.764877 1_555
Na12 O26 2.797484 1_655
Na13 O5 2.313616 1_555
Na13 O56 2.536018 1_555
Na13 O55 2.645993 1_555
Na13 O39 2.735177 1_655
Na13 O41 2.774112 1_545
Na13 O34 2.798449 1_545
Na14 O56 2.363928 1_555
Na14 O40 2.365884 1_545
Na14 O39 2.679047 1_555
Na14 O54 2.701903 1_555
Na14 O3 2.733286 1_555
Na14 O18 2.753088 1_556
Na15 O57 2.370431 1_555
Na15 O37 2.382140 1_545
Na15 O38 2.548882 1_655
Na15 O2 2.638211 1_555
Na15 O59 2.710141 1_555
Na15 O23 2.824781 1_555
Na16 O0 2.386912 1_555
Na16 O57 2.600008 1_555
Na16 O58 2.668224 1_555
Na16 O36 2.670980 1_545
Na16 O38 2.760410 1_555
Na16 O31 2.797303 1_545
Na17 O22 2.408002 1_555
Na17 O37 2.514397 1_555
Na17 O36 2.673513 1_655
Na17 O27 2.699306 1_555
Na17 O59 2.753881 1_555
Na17 O58 2.760831 1_555
Na17 O1 2.960650 1_555
Na18 O44 2.392905 1_555
Na18 O37 2.424104 1_555
Na18 O36 2.734339 1_655
Na18 O42 2.782889 1_665
Na18 O38 2.870301 1_665
Na18 O43 2.963854 1_665
Na19 O40 2.342476 1_554
Na19 O45 2.400525 1_455
Na19 O41 2.669542 1_454
Na19 O47 2.757714 1_565
Na19 O39 2.785635 1_564
Na19 O46 2.899694 1_465
Na20 O56 2.345779 1_555
Na20 O48 2.413103 1_555
Na20 O55 2.669118 1_555
Na20 O49 2.697022 1_555
Na20 O50 2.801770 1_555
Na20 O54 2.818522 1_555
Na21 O57 2.357024 1_555
Na21 O53 2.393450 1_555
Na21 O52 2.609970 1_555
Na21 O58 2.641045 1_555
Na21 O51 2.729122 1_555
Na21 O59 2.771737 1_555
Na22 O61 2.331283 1_555
Na22 O66 2.343514 1_555
Na22 O68 2.617557 1_555
Na22 O62 2.635102 1_555
Na22 O67 2.773049 1_555
Na22 O60 2.789419 1_555
Na23 O71 2.301371 1_555
Na23 O64 2.326858 1_555
Na23 O69 2.574192 1_555
Na23 O63 2.603146 1_555
Na23 O70 2.696929 1_555
Na23 O65 2.749920 1_555
Ca0 O5 2.214861 1_565
Ca0 O40 2.269584 1_655
Ca0 O3 2.302071 1_665
Ca0 O4 2.306983 1_555
Ca0 O41 2.346778 1_555
Ca0 O39 2.375280 1_665
Ca1 O19 2.198159 1_556
Ca1 O56 2.257963 1_555
Ca1 O20 2.309677 1_556
Ca1 O18 2.321368 1_556
Ca1 O54 2.367426 1_555
Ca1 O55 2.370558 1_555
Ca2 O22 2.195866 1_555
Ca2 O57 2.275924 1_555
Ca2 O21 2.319981 1_555
Ca2 O23 2.330649 1_555
Ca2 O59 2.406393 1_555
Ca2 O58 2.445621 1_555
Ca3 O26 2.125930 1_554
Ca3 O61 2.258987 1_555
Ca3 O25 2.305528 1_554
Ca3 O24 2.343551 1_554
Ca3 O62 2.418805 1_555
Ca3 O60 2.438270 1_555
Ca4 O27 2.150377 1_555
Ca4 O64 2.252430 1_555
Ca4 O28 2.315292 1_555
Ca4 O29 2.372692 1_555
Ca4 O63 2.421197 1_555
Ca4 O65 2.463500 1_555
Ca5 O34 2.138020 1_555
Ca5 O71 2.232797 1_555
Ca5 O35 2.281629 1_555
Ca5 O33 2.325188 1_555
Ca5 O70 2.382996 1_555
Ca5 O69 2.487763 1_555
Mg0 O0 2.004211 1_565
Mg0 O37 2.040059 1_455
Mg0 O2 2.146326 1_465
Mg0 O1 2.174114 1_455
Mg0 O36 2.225165 1_555
Mg0 O38 2.235743 1_565
Mg1 O6 1.928413 1_555
Mg1 O44 2.022595 1_555
Mg1 O8 2.154214 1_655
Mg1 O43 2.185949 1_665
Mg1 O42 2.232280 1_665
Mg1 O7 2.232557 1_665
Mg2 O11 1.944707 1_555
Mg2 O45 2.011762 1_455
Mg2 O9 2.161983 1_455
Mg2 O46 2.224065 1_465
Mg2 O47 2.225710 1_565
Mg2 O10 2.252415 1_565
Mg3 O14 1.964414 1_555
Mg3 O48 2.007467 1_555
Mg3 O13 2.150538 1_555
Mg3 O12 2.166793 1_555
Mg3 O49 2.210018 1_555
Mg3 O50 2.211137 1_555
Mg4 O15 1.969363 1_555
Mg4 O53 2.052748 1_555
Mg4 O16 2.135411 1_555
Mg4 O17 2.148684 1_555
Mg4 O51 2.316594 1_555
Mg4 O52 2.320183 1_555
Mg5 O31 1.932002 1_555
Mg5 O66 2.027468 1_555
Mg5 O30 2.100446 1_555
Mg5 O32 2.229759 1_555
Mg5 O67 2.275534 1_555
Mg5 O68 2.458092 1_555
O0 Si0 1.648516 1_555
O1 S0 1.479807 1_555
O2 S1 1.481465 1_655
O3 S2 1.483740 1_555
O4 S3 1.479823 1_555
O5 Si1 1.644738 1_555
O6 Si1 1.633801 1_565
O7 S2 1.483110 1_555
O8 S3 1.486168 1_455
O9 S0 1.487522 1_555
O10 S1 1.485311 1_555
O11 Si0 1.632244 1_565
O12 S4 1.479361 1_555
O13 S5 1.478230 1_555
O14 Si2 1.640035 1_555
O15 Si3 1.645985 1_555
O16 S6 1.482195 1_555
O17 S7 1.481737 1_555
O18 S7 1.485705 1_555
O19 Si3 1.637988 1_555
O20 S6 1.478539 1_555
O21 S5 1.481147 1_555
O22 Si2 1.640076 1_555
O23 S4 1.487519 1_555
O24 S8 1.487085 1_555
O25 S9 1.486383 1_555
O26 Si4 1.638122 1_555
O27 Si5 1.641284 1_555
O28 S10 1.485858 1_555
O29 S11 1.488644 1_555
O30 S11 1.482784 1_555
O31 Si5 1.638373 1_555
O32 S10 1.486905 1_555
O33 S9 1.483719 1_555
O34 Si4 1.638318 1_555
O35 S8 1.480007 1_555
O36 S11 1.494681 1_555
O37 Si5 1.665865 1_555
O38 S10 1.491698 1_555
O39 S9 1.482845 1_555
O40 Si4 1.650614 1_555
O41 S8 1.488734 1_555
O42 S4 1.494241 1_455
O43 S5 1.498011 1_555
O44 Si2 1.668974 1_555
O45 Si3 1.666397 1_555
O46 S6 1.497999 1_555
O47 S7 1.493195 1_555
O48 Si1 1.665603 1_555
O49 S2 1.490352 1_555
O50 S3 1.492339 1_555
O51 S0 1.500931 1_555
O52 S1 1.498989 1_655
O53 Si0 1.682169 1_555
O54 S8 1.481170 1_555
O55 S9 1.486782 1_655
O56 Si4 1.652053 1_545
O57 Si5 1.660208 1_545
O58 S10 1.495272 1_555
O59 S11 1.488595 1_655
O60 S7 1.491764 1_555
O61 Si3 1.663077 1_455
O62 S6 1.492692 1_565
O63 S5 1.493671 1_565
O64 Si2 1.662004 1_555
O65 S4 1.494269 1_455
O66 Si0 1.672383 1_565
O67 S0 1.502572 1_555
O68 S1 1.502845 1_555
O69 S2 1.493407 1_555
O70 S3 1.491859 1_455
O71 Si1 1.654710 1_565
