# generated using pymatgen
data_MgRe2(SbO6)2
_symmetry_space_group_name_H-M   'P 1'
_cell_length_a   5.15209997
_cell_length_b   5.45378790
_cell_length_c   7.47145600
_cell_angle_alpha   90.00000000
_cell_angle_beta   90.00000000
_cell_angle_gamma   90.36163708
_symmetry_Int_Tables_number   1
_chemical_formula_structural   MgRe2(SbO6)2
_chemical_formula_sum   'Mg1 Re2 Sb2 O12'
_cell_volume   209.93222931
_cell_formula_units_Z   1
loop_
 _symmetry_equiv_pos_site_id
 _symmetry_equiv_pos_as_xyz
  1  'x, y, z'
loop_
 _atom_site_type_symbol
 _atom_site_label
 _atom_site_symmetry_multiplicity
 _atom_site_fract_x
 _atom_site_fract_y
 _atom_site_fract_z
 _atom_site_occupancy
  Mg  Mg0  1  0.98162100  0.06788000  0.75000000  1
  Re  Re0  1  0.49287000  0.00129800  0.49442100  1
  Re  Re1  1  0.49287000  0.00129800  0.00557900  1
  Sb  Sb0  1  0.99683600  0.51321500  0.49610400  1
  Sb  Sb1  1  0.99683600  0.51321500  0.00389600  1
  O  O0  1  0.32495200  0.70219100  0.44746300  1
  O  O1  1  0.19995800  0.19584200  0.04330600  1
  O  O2  1  0.70678000  0.27605800  0.93894000  1
  O  O3  1  0.81642900  0.82165200  0.56415700  1
  O  O4  1  0.19995800  0.19584200  0.45669400  1
  O  O5  1  0.81642900  0.82165200  0.93584300  1
  O  O6  1  0.87119400  0.52829600  0.25000000  1
  O  O7  1  0.32495200  0.70219100  0.05253700  1
  O  O8  1  0.37628800  0.97802500  0.75000000  1
  O  O9  1  0.70678000  0.27605800  0.56106000  1
  O  O10  1  0.10493900  0.44547700  0.75000000  1
  O  O11  1  0.57780900  0.02231200  0.25000000  1
loop_
_geom_bond_atom_site_label_1
_geom_bond_atom_site_label_2
_geom_bond_distance
_geom_bond_site_symmetry_2
Mg0 O8 2.094587 1_645
Mg0 O5 2.107419 1_545
Mg0 O3 2.107419 1_545
Mg0 O10 2.151280 1_655
Mg0 O2 2.303734 1_555
Mg0 O9 2.303734 1_555
Mg0 O4 2.558289 1_655
Mg0 O1 2.558289 1_656
O0 Re0 1.874768 1_565
O0 Sb0 2.007494 1_455
O1 Re1 1.871579 1_555
O1 Sb1 2.049561 1_455
O2 Re1 1.920180 1_556
O2 Sb1 2.029101 1_556
O3 Sb0 1.992941 1_555
O3 Re0 2.007715 1_565
O4 Re0 1.871579 1_555
O4 Sb0 2.049561 1_455
O5 Sb1 1.992941 1_556
O5 Re1 2.007715 1_566
O6 Sb1 1.951277 1_555
O6 Sb0 1.951277 1_555
O7 Re1 1.874768 1_565
O7 Sb1 2.007494 1_455
O8 Re0 2.005565 1_565
O8 Re1 2.005565 1_566
O9 Re0 1.920180 1_555
O9 Sb0 2.029101 1_555
O10 Sb1 2.011910 1_456
O10 Sb0 2.011910 1_455
O11 Re1 1.881208 1_555
O11 Re0 1.881208 1_555
