# generated using pymatgen
data_Li2CrP2O7
_symmetry_space_group_name_H-M   'P 1'
_cell_length_a   7.54740919
_cell_length_b   9.42618659
_cell_length_c   9.38066859
_cell_angle_alpha   73.23398092
_cell_angle_beta   111.25580838
_cell_angle_gamma   110.78229191
_symmetry_Int_Tables_number   1
_chemical_formula_structural   Li2CrP2O7
_chemical_formula_sum   'Li8 Cr4 P8 O28'
_cell_volume   571.63597141
_cell_formula_units_Z   4
loop_
 _symmetry_equiv_pos_site_id
 _symmetry_equiv_pos_as_xyz
  1  'x, y, z'
loop_
 _atom_site_type_symbol
 _atom_site_label
 _atom_site_symmetry_multiplicity
 _atom_site_fract_x
 _atom_site_fract_y
 _atom_site_fract_z
 _atom_site_occupancy
  Li  Li0  1  0.71311900  0.89338600  0.39341900  1
  Li  Li1  1  0.71313600  0.39339900  0.89344100  1
  Li  Li2  1  0.28686200  0.10666300  0.60648900  1
  Li  Li3  1  0.28681700  0.60659600  0.10649000  1
  Li  Li4  1  0.71387500  0.14306500  0.14318700  1
  Li  Li5  1  0.71389000  0.64306200  0.64312100  1
  Li  Li6  1  0.28614900  0.35692800  0.35672900  1
  Li  Li7  1  0.28610600  0.85697100  0.85688100  1
  Cr  Cr0  1  0.29964000  0.27110800  0.02853500  1
  Cr  Cr1  1  0.70042900  0.72875400  0.97155100  1
  Cr  Cr2  1  0.30004600  0.77121000  0.52880700  1
  Cr  Cr3  1  0.70064500  0.22874000  0.47165800  1
  P  P0  1  0.91375000  0.97295100  0.71820100  1
  P  P1  1  0.91376600  0.47302000  0.21812600  1
  P  P2  1  0.30871300  0.91560600  0.17051000  1
  P  P3  1  0.30874400  0.41564600  0.67042600  1
  P  P4  1  0.69116800  0.08432800  0.82953600  1
  P  P5  1  0.69121300  0.58434400  0.32952800  1
  P  P6  1  0.08629600  0.02702600  0.28188000  1
  P  P7  1  0.08626900  0.52702700  0.78187400  1
  O  O0  1  0.90425600  0.07802500  0.82624200  1
  O  O1  1  0.90425200  0.57803500  0.32619300  1
  O  O2  1  0.09571700  0.92199500  0.17376900  1
  O  O3  1  0.09570100  0.42205800  0.67366200  1
  O  O4  1  0.42073700  0.08420500  0.11523200  1
  O  O5  1  0.42084000  0.58425900  0.61525400  1
  O  O6  1  0.57908700  0.91575300  0.88473800  1
  O  O7  1  0.57930100  0.41572900  0.38480400  1
  O  O8  1  0.80040000  0.80505200  0.77416500  1
  O  O9  1  0.80053300  0.30508800  0.27415000  1
  O  O10  1  0.19945900  0.19493800  0.22575600  1
  O  O11  1  0.19954700  0.69493100  0.72594400  1
  O  O12  1  0.41773900  0.85589400  0.34041600  1
  O  O13  1  0.41775400  0.35589200  0.84030000  1
  O  O14  1  0.80340700  0.03318700  0.54889400  1
  O  O15  1  0.80324100  0.53323500  0.04882700  1
  O  O16  1  0.58227800  0.14415100  0.65959700  1
  O  O17  1  0.58210500  0.64405700  0.15963300  1
  O  O18  1  0.19671000  0.96682600  0.45114000  1
  O  O19  1  0.19657800  0.46674100  0.95110200  1
  O  O20  1  0.25841400  0.30927700  0.56005500  1
  O  O21  1  0.25842800  0.80916500  0.06020400  1
  O  O22  1  0.13049500  0.99631300  0.74504200  1
  O  O23  1  0.13044000  0.49627600  0.24497700  1
  O  O24  1  0.74150900  0.69080900  0.43980600  1
  O  O25  1  0.74150500  0.19081400  0.93982300  1
  O  O26  1  0.86949800  0.00374900  0.25496300  1
  O  O27  1  0.86943500  0.50371600  0.75492200  1
loop_
_geom_bond_atom_site_label_1
_geom_bond_atom_site_label_2
_geom_bond_distance
_geom_bond_site_symmetry_2
Li0 O26 1.903362 1_565
Li0 O24 1.903925 1_555
Li0 O14 2.019654 1_565
Li0 O12 2.020076 1_555
Li1 O27 1.903342 1_555
Li1 O25 1.903942 1_555
Li1 O15 2.019456 1_556
Li1 O13 2.019936 1_555
Li2 O22 1.903967 1_545
Li2 O20 1.904390 1_555
Li2 O18 2.019134 1_545
Li2 O16 2.020239 1_555
Li3 O23 1.903517 1_555
Li3 O21 1.903945 1_555
Li3 O17 2.019322 1_555
Li3 O19 2.019446 1_554
Li4 O26 1.900196 1_555
Li4 O25 1.900479 1_554
Li4 O9 2.015089 1_555
Li4 O4 2.015847 1_555
Li5 O24 1.900000 1_555
Li5 O27 1.900048 1_555
Li5 O5 2.015411 1_555
Li5 O8 2.015559 1_555
Li6 O20 1.900525 1_555
Li6 O23 1.900825 1_555
Li6 O10 2.014861 1_555
Li6 O7 2.015779 1_555
Li7 O21 1.900196 1_556
Li7 O22 1.900396 1_555
Li7 O6 2.014948 1_555
Li7 O11 2.015170 1_555
Cr0 O19 2.090151 1_554
Cr0 O10 2.091078 1_555
Cr0 O13 2.091158 1_554
Cr0 O4 2.092301 1_555
Cr1 O15 2.088176 1_556
Cr1 O17 2.090840 1_556
Cr1 O8 2.091561 1_555
Cr1 O6 2.094188 1_555
Cr2 O12 2.090576 1_555
Cr2 O18 2.091071 1_555
Cr2 O5 2.091372 1_555
Cr2 O11 2.091661 1_555
Cr3 O14 2.088274 1_555
Cr3 O16 2.089855 1_555
Cr3 O9 2.092242 1_555
Cr3 O7 2.094108 1_555
O0 P0 1.641781 1_545
O0 P4 1.641917 1_555
O1 P1 1.641607 1_555
O1 P5 1.641717 1_555
O2 P2 1.641413 1_555
O2 P6 1.641723 1_565
O3 P3 1.641769 1_555
O3 P7 1.642062 1_555
O4 P2 1.548662 1_545
O5 P3 1.548689 1_555
O6 P4 1.548458 1_565
O7 P5 1.548513 1_555
O8 P0 1.548463 1_555
O9 P1 1.548551 1_555
O10 P6 1.548478 1_555
O11 P7 1.548249 1_555
O12 P2 1.547383 1_555
O13 P3 1.547230 1_555
O14 P0 1.547466 1_545
O15 P1 1.547767 1_555
O16 P4 1.547582 1_555
O17 P5 1.547488 1_555
O18 P6 1.547216 1_565
O19 P7 1.546976 1_555
O20 P3 1.505004 1_555
O21 P2 1.505129 1_555
O22 P0 1.505205 1_455
O23 P1 1.504857 1_455
O24 P5 1.505078 1_555
O25 P4 1.505226 1_555
O26 P6 1.505617 1_655
O27 P7 1.505760 1_655
