# generated using pymatgen
data_Sr3Co2Cu2S2O5
_symmetry_space_group_name_H-M   'P 1'
_cell_length_a   3.91328080
_cell_length_b   3.91392552
_cell_length_c   13.86994610
_cell_angle_alpha   97.98614465
_cell_angle_beta   98.19198952
_cell_angle_gamma   90.06672837
_symmetry_Int_Tables_number   1
_chemical_formula_structural   Sr3Co2Cu2S2O5
_chemical_formula_sum   'Sr3 Co2 Cu2 S2 O5'
_cell_volume   208.18158125
_cell_formula_units_Z   1
loop_
 _symmetry_equiv_pos_site_id
 _symmetry_equiv_pos_as_xyz
  1  'x, y, z'
loop_
 _atom_site_type_symbol
 _atom_site_label
 _atom_site_symmetry_multiplicity
 _atom_site_fract_x
 _atom_site_fract_y
 _atom_site_fract_z
 _atom_site_occupancy
  Sr  Sr0  1  0.49177600  0.50358200  0.99111100  1
  Sr  Sr1  1  0.63561000  0.64106200  0.27666400  1
  Sr  Sr2  1  0.36284800  0.36069900  0.72389700  1
  Co  Co0  1  0.05538900  0.08264600  0.13638400  1
  Co  Co1  1  0.92785700  0.92669000  0.85370700  1
  Cu  Cu0  1  0.25020700  0.74988600  0.50124400  1
  Cu  Cu1  1  0.75153500  0.25129700  0.50106000  1
  S  S0  1  0.20011200  0.20044800  0.40022500  1
  S  S1  1  0.80184700  0.80103400  0.60316800  1
  O  O0  1  0.08149000  0.58162300  0.16631200  1
  O  O1  1  0.58430500  0.08450100  0.16613200  1
  O  O2  1  0.92036200  0.41546400  0.83891700  1
  O  O3  1  0.42107500  0.91739700  0.83739900  1
  O  O4  1  0.01558800  0.98367000  0.00378000  1
loop_
_geom_bond_atom_site_label_1
_geom_bond_atom_site_label_2
_geom_bond_distance
_geom_bond_site_symmetry_2
Co0 O4 1.810323 1_545
Co0 O0 1.938809 1_555
Co0 O1 1.945428 1_455
Co0 O1 2.051855 1_555
Co0 O0 2.059781 1_545
Co1 O2 1.951939 1_565
Co1 O3 1.963466 1_555
Co1 O3 1.974858 1_655
Co1 O2 1.982584 1_555
Co1 O4 2.041432 1_656
Cu0 S0 2.389472 1_555
Cu0 S0 2.391756 1_565
Cu0 S1 2.397100 1_455
Cu0 S1 2.397773 1_555
Cu1 S0 2.387509 1_655
Cu1 S0 2.390322 1_555
Cu1 S1 2.397253 1_555
Cu1 S1 2.401045 1_545
S0 Sr1 3.230065 1_545
S0 Sr1 3.234528 1_555
S0 Sr1 3.236923 1_445
S0 Sr1 3.246875 1_455
S1 Sr2 3.215630 1_555
S1 Sr2 3.216169 1_665
S1 Sr2 3.218209 1_655
S1 Sr2 3.219134 1_565
O0 Sr1 2.460266 1_555
O0 Sr1 2.470705 1_455
O0 Sr0 3.079439 1_554
O0 Sr0 3.085107 1_454
O1 Sr1 2.460757 1_545
O1 Sr1 2.473680 1_555
O1 Sr0 3.067171 1_544
O1 Sr0 3.093822 1_554
O2 Sr2 2.502570 1_555
O2 Sr2 2.506475 1_655
O2 Sr0 2.832989 1_655
O2 Sr0 2.862842 1_555
O3 Sr2 2.489640 1_565
O3 Sr2 2.494239 1_555
O3 Sr0 2.835056 1_555
O3 Sr0 2.890828 1_565
O4 Sr0 2.654020 1_554
O4 Sr0 2.749552 1_454
O4 Sr0 2.797855 1_564
O4 Sr0 2.894803 1_464
