# generated using pymatgen
data_Na3AlH6
_symmetry_space_group_name_H-M   'P 1'
_cell_length_a   5.29339841
_cell_length_b   5.49020829
_cell_length_c   7.61978533
_cell_angle_alpha   90.00000000
_cell_angle_beta   89.98258117
_cell_angle_gamma   90.00000000
_symmetry_Int_Tables_number   1
_chemical_formula_structural   Na3AlH6
_chemical_formula_sum   'Na6 Al2 H12'
_cell_volume   221.44512303
_cell_formula_units_Z   2
loop_
 _symmetry_equiv_pos_site_id
 _symmetry_equiv_pos_as_xyz
  1  'x, y, z'
loop_
 _atom_site_type_symbol
 _atom_site_label
 _atom_site_symmetry_multiplicity
 _atom_site_fract_x
 _atom_site_fract_y
 _atom_site_fract_z
 _atom_site_occupancy
  Na  Na0  1  -0.00000000  0.00000000  0.50000000  1
  Na  Na1  1  0.50000000  0.50000000  -0.00000000  1
  Na  Na2  1  0.48883269  0.04727702  0.75352601  1
  Na  Na3  1  0.01116731  0.54727702  0.74647399  1
  Na  Na4  1  0.51116731  0.95272298  0.24647399  1
  Na  Na5  1  0.98883269  0.45272298  0.25352601  1
  Al  Al0  1  -0.00000000  0.00000000  -0.00000000  1
  Al  Al1  1  0.50000000  0.50000000  0.50000000  1
  H  H0  1  0.66129713  0.23276261  0.43701571  1
  H  H1  1  0.83870287  0.73276261  0.06298429  1
  H  H2  1  0.33870287  0.76723739  0.56298429  1
  H  H3  1  0.16129713  0.26723739  0.93701571  1
  H  H4  1  0.72803981  0.16971966  0.04344545  1
  H  H5  1  0.77196019  0.66971966  0.45655455  1
  H  H6  1  0.27196019  0.83028034  0.95655455  1
  H  H7  1  0.22803981  0.33028034  0.54344545  1
  H  H8  1  0.09950909  0.04770469  0.21674197  1
  H  H9  1  0.40049091  0.54770469  0.28325803  1
  H  H10  1  0.90049091  0.95229531  0.78325803  1
  H  H11  1  0.59950909  0.45229531  0.71674197  1
loop_
_geom_bond_atom_site_label_1
_geom_bond_atom_site_label_2
_geom_bond_distance
_geom_bond_site_symmetry_2
Al0 H6 1.746418 1_544
Al0 H4 1.746418 1_455
Al0 H10 1.753318 1_444
Al0 H8 1.753318 1_555
Al0 H3 1.764005 1_554
Al0 H1 1.764005 1_445
Al1 H7 1.746418 1_555
Al1 H5 1.746418 1_555
Al1 H11 1.753318 1_555
Al1 H9 1.753318 1_555
Al1 H2 1.764005 1_555
Al1 H0 1.764005 1_555
H0 Na0 2.253524 1_655
H0 Na4 2.259215 1_545
H0 Na5 2.533318 1_555
H1 Na1 2.253524 1_555
H1 Na5 2.259215 1_555
H1 Na4 2.533318 1_555
H2 Na0 2.253524 1_565
H2 Na2 2.259215 1_565
H2 Na3 2.533318 1_555
H3 Na1 2.253524 1_556
H3 Na3 2.259215 1_555
H3 Na2 2.533318 1_555
H4 Na1 2.203412 1_555
H4 Na4 2.264829 1_545
H4 Na5 2.623673 1_555
H4 Na2 2.633845 1_554
H5 Na0 2.203412 1_665
H5 Na5 2.264829 1_555
H5 Na4 2.623673 1_555
H5 Na3 2.633845 1_655
H6 Na1 2.203412 1_556
H6 Na2 2.264829 1_565
H6 Na3 2.623673 1_555
H6 Na4 2.633845 1_556
H7 Na0 2.203412 1_555
H7 Na3 2.264829 1_555
H7 Na2 2.623673 1_555
H7 Na5 2.633845 1_455
H8 Na0 2.236940 1_555
H8 Na4 2.252089 1_545
H8 Na5 2.316514 1_455
H9 Na1 2.236940 1_555
H9 Na5 2.252089 1_455
H9 Na4 2.316514 1_555
H10 Na0 2.236940 1_665
H10 Na2 2.252089 1_565
H10 Na3 2.316514 1_655
H11 Na1 2.236940 1_556
H11 Na3 2.252089 1_655
H11 Na2 2.316514 1_555
