# generated using pymatgen
data_Na6Ta3Ga5Si6(SO8)6
_symmetry_space_group_name_H-M   'P 1'
_cell_length_a   17.52698302
_cell_length_b   8.75210662
_cell_length_c   22.37528672
_cell_angle_alpha   89.65777780
_cell_angle_beta   90.19513621
_cell_angle_gamma   119.60284618
_symmetry_Int_Tables_number   1
_chemical_formula_structural   Na6Ta3Ga5Si6(SO8)6
_chemical_formula_sum   'Na18 Ta9 Ga15 Si18 S18 O144'
_cell_volume   2984.25112167
_cell_formula_units_Z   3
loop_
 _symmetry_equiv_pos_site_id
 _symmetry_equiv_pos_as_xyz
  1  'x, y, z'
loop_
 _atom_site_type_symbol
 _atom_site_label
 _atom_site_symmetry_multiplicity
 _atom_site_fract_x
 _atom_site_fract_y
 _atom_site_fract_z
 _atom_site_occupancy
  Na  Na0  1  0.47997134  0.67621561  0.91152857  1
  Na  Na1  1  0.16636981  0.31482023  0.91145002  1
  Na  Na2  1  0.48517862  0.29782359  0.41591978  1
  Na  Na3  1  0.97826470  0.29082691  0.40906908  1
  Na  Na4  1  0.16457633  0.02811209  0.41250602  1
  Na  Na5  1  0.66675600  0.03179687  0.41937814  1
  Na  Na6  1  0.98422177  0.96834737  0.49223984  1
  Na  Na7  1  0.49345759  0.98391653  0.49393155  1
  Na  Na8  1  0.99355945  0.99279642  0.99425222  1
  Na  Na9  1  0.50185415  0.00482682  0.98847856  1
  Na  Na10  1  0.33380574  0.32637017  0.82324056  1
  Na  Na11  1  0.83138127  0.33496037  0.82764320  1
  Na  Na12  1  0.33680763  0.33581871  0.32979710  1
  Na  Na13  1  0.83763743  0.34099968  0.33214699  1
  Na  Na14  1  0.15416200  0.65803119  0.16043659  1
  Na  Na15  1  0.66609495  0.65259145  0.16284105  1
  Na  Na16  1  0.16971441  0.67201514  0.66770878  1
  Na  Na17  1  0.66140057  0.65637468  0.65986765  1
  Ta  Ta0  1  0.00363156  0.99870259  0.64641054  1
  Ta  Ta1  1  0.50117583  0.00521470  0.65019587  1
  Ta  Ta2  1  0.00430497  0.99939773  0.14597656  1
  Ta  Ta3  1  0.50532940  0.01716747  0.14378422  1
  Ta  Ta4  1  0.83350353  0.33692480  0.97693089  1
  Ta  Ta5  1  0.16003633  0.67130918  0.31002402  1
  Ta  Ta6  1  0.66317060  0.65842057  0.31636464  1
  Ta  Ta7  1  0.16591604  0.65298284  0.80828160  1
  Ta  Ta8  1  0.66450276  0.67003168  0.80859320  1
  Ga  Ga0  1  0.99510290  0.99417024  0.35053616  1
  Ga  Ga1  1  0.49436718  0.00807031  0.35892459  1
  Ga  Ga2  1  0.00680544  0.00697126  0.84818949  1
  Ga  Ga3  1  0.49890710  0.98693389  0.85072973  1
  Ga  Ga4  1  0.33576825  0.33412930  0.69427661  1
  Ga  Ga5  1  0.83175725  0.35155380  0.69026904  1
  Ga  Ga6  1  0.33415660  0.32122845  0.19250457  1
  Ga  Ga7  1  0.84756335  0.35911888  0.18006647  1
  Ga  Ga8  1  0.33173627  0.33692023  0.98068312  1
  Ga  Ga9  1  0.33912353  0.33776068  0.47788094  1
  Ga  Ga10  1  0.83434195  0.33483248  0.47297214  1
  Ga  Ga11  1  0.15457792  0.63996921  0.01088988  1
  Ga  Ga12  1  0.66752557  0.66269927  0.01867014  1
  Ga  Ga13  1  0.16998363  0.68148570  0.51345599  1
  Ga  Ga14  1  0.66636771  0.67204006  0.50480133  1
  Si  Si0  1  0.14754776  0.01551275  0.25393831  1
  Si  Si1  1  0.99172683  0.28400276  0.25136599  1
  Si  Si2  1  0.50075580  0.29532280  0.25278567  1
  Si  Si3  1  0.14735535  0.28581016  0.75071412  1
  Si  Si4  1  0.64597901  0.27972008  0.75451203  1
  Si  Si5  1  0.99541043  0.70587942  0.75541799  1
  Si  Si6  1  0.49645972  0.70818066  0.75153000  1
  Si  Si7  1  0.35879620  0.00479787  0.75464009  1
  Si  Si8  1  0.98709644  0.62814276  0.08084376  1
  Si  Si9  1  0.69592344  0.35121618  0.08496167  1
  Si  Si10  1  0.31118859  0.67451834  0.92348796  1
  Si  Si11  1  0.01849510  0.36045847  0.91454375  1
  Si  Si12  1  0.66512722  0.95154694  0.92078959  1
  Si  Si13  1  0.31040307  0.95375368  0.42078347  1
  Si  Si14  1  0.81551297  0.95324258  0.41840748  1
  Si  Si15  1  0.66764717  0.37505729  0.42110310  1
  Si  Si16  1  0.01992464  0.67230105  0.42045727  1
  Si  Si17  1  0.51701826  0.67013236  0.41845087  1
  S  S0  1  0.64627586  0.00396921  0.25012949  1
  S  S1  1  0.35769327  0.71101888  0.24929182  1
  S  S2  1  0.85418083  0.70822077  0.24976176  1
  S  S3  1  0.85650707  0.00435047  0.74886438  1
  S  S4  1  0.47938430  0.33788411  0.58277584  1
  S  S5  1  0.97840242  0.33779133  0.58297937  1
  S  S6  1  0.19036951  0.04369589  0.58261154  1
  S  S7  1  0.69174300  0.04546839  0.58354562  1
  S  S8  1  0.33006428  0.61671184  0.58170503  1
  S  S9  1  0.83027953  0.62171820  0.58234136  1
  S  S10  1  0.47537316  0.61675093  0.08543491  1
  S  S11  1  0.33222637  0.04879810  0.08309968  1
  S  S12  1  0.83082613  0.04098110  0.08419156  1
  S  S13  1  0.19315510  0.33624762  0.08556189  1
  S  S14  1  0.81291758  0.67301576  0.91695746  1
  S  S15  1  0.52218698  0.37533656  0.91965284  1
  S  S16  1  0.16850175  0.95803248  0.91924608  1
  S  S17  1  0.16991733  0.38508618  0.42004727  1
  O  O0  1  0.10188533  0.03137070  0.31376148  1
  O  O1  1  0.60403682  0.01863296  0.30416728  1
  O  O2  1  0.41028980  0.78816489  0.30304063  1
  O  O3  1  0.90561194  0.78607076  0.30403076  1
  O  O4  1  0.48707356  0.17867793  0.31152312  1
  O  O5  1  0.98208093  0.17629130  0.31263772  1
  O  O6  1  0.10868939  0.18080516  0.81239645  1
  O  O7  1  0.60126861  0.16552136  0.81237384  1
  O  O8  1  0.48341688  0.77716558  0.81447505  1
  O  O9  1  0.97514578  0.79650008  0.81105878  1
  O  O10  1  0.41882663  0.03759585  0.81194675  1
  O  O11  1  0.90675812  0.02968121  0.80344333  1
  O  O12  1  0.40306891  0.96767457  0.69305064  1
  O  O13  1  0.89753334  0.97281951  0.69472587  1
  O  O14  1  0.07993668  0.18696776  0.69287636  1
  O  O15  1  0.58337308  0.20191448  0.69278069  1
  O  O16  1  0.00688202  0.82910982  0.69372923  1
  O  O17  1  0.51795253  0.83835842  0.69260270  1
  O  O18  1  0.39972700  0.82254166  0.19482724  1
  O  O19  1  0.89863972  0.81562675  0.19469752  1
  O  O20  1  0.00483636  0.18184694  0.19266485  1
  O  O21  1  0.51121882  0.19059516  0.19349498  1
  O  O22  1  0.08332973  0.97291224  0.19419296  1
  O  O23  1  0.58703396  0.97599145  0.19555874  1
  O  O24  1  0.43216252  0.35037093  0.63460156  1
  O  O25  1  0.93508352  0.35671283  0.63617319  1
  O  O26  1  0.24179250  0.13405945  0.63484180  1
  O  O27  1  0.74544160  0.13639625  0.63639701  1
  O  O28  1  0.32232120  0.51392575  0.63552177  1
  O  O29  1  0.82278305  0.52164112  0.63772614  1
  O  O30  1  0.42930855  0.50613667  0.13698113  1
  O  O31  1  0.94885325  0.51786895  0.14175661  1
  O  O32  1  0.32482609  0.13613117  0.13701107  1
  O  O33  1  0.81858796  0.12012141  0.13810122  1
  O  O34  1  0.24691467  0.34806041  0.13724989  1
  O  O35  1  0.75141954  0.36684641  0.14415415  1
  O  O36  1  0.22718691  0.30158055  0.02888156  1
  O  O37  1  0.73696749  0.31165980  0.02524921  1
  O  O38  1  0.42605511  0.54465546  0.02816459  1
  O  O39  1  0.92029605  0.52616687  0.02442274  1
  O  O40  1  0.35050809  0.16107010  0.02828556  1
  O  O41  1  0.84536913  0.15159082  0.02972344  1
  O  O42  1  0.22521250  0.14262295  0.52603382  1
  O  O43  1  0.73016932  0.14685372  0.52728513  1
  O  O44  1  0.34166252  0.53453578  0.52648176  1
  O  O45  1  0.84783499  0.54650642  0.52903950  1
  O  O46  1  0.42911910  0.31127339  0.52559243  1
  O  O47  1  0.92805271  0.31265011  0.52692320  1
  O  O48  1  0.26335051  0.69592494  0.98197776  1
  O  O49  1  0.77154226  0.68945469  0.97166896  1
  O  O50  1  0.08111106  0.43025360  0.97329405  1
  O  O51  1  0.57408751  0.45639047  0.97406699  1
  O  O52  1  0.15688513  0.85569362  0.97388591  1
  O  O53  1  0.64791559  0.82005634  0.97729340  1
  O  O54  1  0.27335008  0.83750382  0.48063494  1
  O  O55  1  0.77461419  0.83440795  0.47773511  1
  O  O56  1  0.15413982  0.46489471  0.47339002  1
  O  O57  1  0.63914036  0.45440047  0.47651551  1
  O  O58  1  0.08451378  0.71376232  0.47772508  1
  O  O59  1  0.58141608  0.72155363  0.47645279  1
  O  O60  1  0.06657071  0.63263813  0.36044722  1
  O  O61  1  0.56517709  0.62413510  0.36123560  1
  O  O62  1  0.24542185  0.85488946  0.36234084  1
  O  O63  1  0.74870446  0.86154061  0.35976757  1
  O  O64  1  0.18219057  0.49004555  0.36489059  1
  O  O65  1  0.68357562  0.50177982  0.36064949  1
  O  O66  1  0.06600565  0.49286627  0.85784335  1
  O  O67  1  0.56567631  0.49160215  0.86525061  1
  O  O68  1  0.18073450  0.87862872  0.86498400  1
  O  O69  1  0.67967048  0.85180447  0.86168927  1
  O  O70  1  0.24486550  0.62940304  0.86454010  1
  O  O71  1  0.75890787  0.64788064  0.86263490  1
  O  O72  1  0.01540896  0.84969392  0.40991942  1
  O  O73  1  0.51371906  0.84552607  0.40356137  1
  O  O74  1  0.40937424  0.99111093  0.41420259  1
  O  O75  1  0.91424169  0.98683363  0.41047967  1
  O  O76  1  0.09118667  0.20833847  0.41591758  1
  O  O77  1  0.58309664  0.18263371  0.41116753  1
  O  O78  1  0.00691077  0.16442477  0.90618294  1
  O  O79  1  0.51211641  0.20281893  0.91370550  1
  O  O80  1  0.09042173  0.98355868  0.91510008  1
  O  O81  1  0.57940411  0.97194607  0.91400942  1
  O  O82  1  0.40858594  0.83903697  0.91595694  1
  O  O83  1  0.90018440  0.82565821  0.91243917  1
  O  O84  1  0.48817497  0.17357001  0.58655305  1
  O  O85  1  0.98494059  0.16988854  0.58869111  1
  O  O86  1  0.09727781  0.02468180  0.58740111  1
  O  O87  1  0.60136887  0.03019042  0.58774389  1
  O  O88  1  0.41067274  0.79808346  0.58484875  1
  O  O89  1  0.91102266  0.80570808  0.58863146  1
  O  O90  1  0.48247797  0.79588685  0.09173058  1
  O  O91  1  0.98930359  0.82179231  0.08658284  1
  O  O92  1  0.41502497  0.02994485  0.08911596  1
  O  O93  1  0.91213078  0.02343427  0.08783663  1
  O  O94  1  0.10202490  0.17394672  0.09080828  1
  O  O95  1  0.59529104  0.16691297  0.09158191  1
  O  O96  1  0.34507993  0.16907937  0.74107033  1
  O  O97  1  0.84308247  0.15274908  0.73875156  1
  O  O98  1  0.24155181  0.30974044  0.73930854  1
  O  O99  1  0.74046688  0.29626619  0.74248220  1
  O  O100  1  0.41700322  0.51697039  0.74019352  1
  O  O101  1  0.91562588  0.50984521  0.74344358  1
  O  O102  1  0.34672778  0.53526232  0.24074219  1
  O  O103  1  0.84083016  0.53049201  0.24465010  1
  O  O104  1  0.41798708  0.32495686  0.24360089  1
  O  O105  1  0.90596308  0.30781677  0.24293329  1
  O  O106  1  0.24151472  0.18702666  0.24422536  1
  O  O107  1  0.73153737  0.15784808  0.24153984  1
  O  O108  1  0.31964941  0.48914009  0.92723705  1
  O  O109  1  0.81863547  0.50594602  0.91944937  1
  O  O110  1  0.43511112  0.37116405  0.92301701  1
  O  O111  1  0.92387445  0.35203672  0.92289463  1
  O  O112  1  0.24870723  0.14010007  0.92414584  1
  O  O113  1  0.75474388  0.14279020  0.92545833  1
  O  O114  1  0.31240157  0.14508223  0.42475437  1
  O  O115  1  0.82066054  0.14494070  0.42281214  1
  O  O116  1  0.24850033  0.36412711  0.42540585  1
  O  O117  1  0.75373203  0.35445007  0.42398716  1
  O  O118  1  0.42396066  0.48796961  0.42266919  1
  O  O119  1  0.92868403  0.48976378  0.42404266  1
  O  O120  1  0.18289316  0.49129161  0.08285076  1
  O  O121  1  0.67729744  0.51467062  0.07544048  1
  O  O122  1  0.08548856  0.65855905  0.07112314  1
  O  O123  1  0.56420584  0.63984478  0.08271362  1
  O  O124  1  0.25684115  0.87584487  0.07891637  1
  O  O125  1  0.75443023  0.86423596  0.07755416  1
  O  O126  1  0.17683930  0.86263491  0.58117446  1
  O  O127  1  0.68052935  0.86665076  0.58142470  1
  O  O128  1  0.24918175  0.63321914  0.57804364  1
  O  O129  1  0.75173184  0.64072862  0.57913153  1
  O  O130  1  0.06919690  0.48885952  0.57883001  1
  O  O131  1  0.56719101  0.49410475  0.58019796  1
  O  O132  1  0.15600708  0.83379148  0.25527964  1
  O  O133  1  0.65201990  0.83772887  0.25083082  1
  O  O134  1  0.26871938  0.69605726  0.25417737  1
  O  O135  1  0.76820683  0.70594018  0.25175600  1
  O  O136  1  0.08628287  0.47548576  0.25644256  1
  O  O137  1  0.59239203  0.48656956  0.25330700  1
  O  O138  1  0.14959217  0.47609624  0.75128637  1
  O  O139  1  0.65978750  0.48190906  0.76128582  1
  O  O140  1  0.08918031  0.70997523  0.75917497  1
  O  O141  1  0.58941637  0.69508758  0.75471973  1
  O  O142  1  0.26224824  0.82522416  0.75964174  1
  O  O143  1  0.76862701  0.83586988  0.75336839  1
loop_
_geom_bond_atom_site_label_1
_geom_bond_atom_site_label_2
_geom_bond_distance
_geom_bond_site_symmetry_2
Na0 O81 2.298695 1_555
Na0 O82 2.317325 1_555
Na0 O8 2.329242 1_555
Na0 O110 2.394073 1_555
Na0 O108 2.480850 1_555
Na0 O38 2.817014 1_556
Na0 O67 2.892722 1_555
Na0 O53 2.957405 1_555
Na1 O108 2.370740 1_555
Na1 O78 2.433653 1_555
Na1 O6 2.480781 1_555
Na1 O80 2.523732 1_545
Na1 O112 2.583394 1_555
Na1 O50 2.586669 1_555
Na1 O70 2.609201 1_555
Na1 O36 2.855357 1_556
Na2 O74 2.334498 1_545
Na2 O77 2.384316 1_555
Na2 O118 2.389934 1_555
Na2 O4 2.570755 1_555
Na2 O114 2.645356 1_555
Na2 O46 2.671202 1_555
Na2 O57 2.709593 1_555
Na2 O61 2.762806 1_555
Na3 O75 2.321315 1_545
Na3 O119 2.324366 1_555
Na3 O5 2.399579 1_555
Na3 O76 2.422837 1_655
Na3 O115 2.423181 1_555
Na3 O60 2.815437 1_655
Na3 O47 2.820064 1_555
Na4 O114 2.283432 1_555
Na4 O72 2.289915 1_545
Na4 O0 2.470511 1_555
Na4 O76 2.480951 1_555
Na4 O116 2.574684 1_555
Na4 O42 2.747058 1_555
Na4 O62 2.778442 1_545
Na4 O58 2.796365 1_545
Na5 O115 2.371363 1_555
Na5 O73 2.378618 1_545
Na5 O77 2.415418 1_555
Na5 O117 2.461355 1_555
Na5 O43 2.642711 1_555
Na5 O59 2.683277 1_545
Na5 O1 2.779613 1_555
Na5 O63 2.865957 1_545
Na6 O75 2.248232 1_555
Na6 O72 2.315272 1_655
Na6 O89 2.549869 1_555
Na6 O76 2.632760 1_665
Na6 O86 2.778827 1_665
Na6 O85 2.791482 1_565
Na7 O74 2.330402 1_555
Na7 O73 2.478096 1_555
Na7 O77 2.490851 1_565
Na7 O88 2.556957 1_555
Na7 O84 2.693129 1_565
Na7 O87 2.715461 1_565
Na8 O78 2.411382 1_665
Na8 O83 2.411566 1_555
Na8 O80 2.486595 1_655
Na8 O91 2.523366 1_556
Na8 O93 2.626538 1_566
Na8 O94 2.798302 1_666
Na9 O82 2.253320 1_545
Na9 O81 2.261490 1_545
Na9 O79 2.343877 1_555
Na9 O95 2.781112 1_556
Na9 O92 2.791902 1_556
Na9 O90 2.852740 1_546
Na10 O96 2.369809 1_555
Na10 O98 2.431589 1_555
Na10 O100 2.437250 1_555
Na10 O112 2.748930 1_555
Na10 O110 2.754320 1_555
Na10 O108 2.810416 1_555
Na11 O99 2.395539 1_555
Na11 O101 2.413309 1_555
Na11 O109 2.622823 1_555
Na11 O97 2.627746 1_555
Na11 O111 2.633180 1_555
Na11 O113 2.677170 1_555
Na12 O104 2.430586 1_555
Na12 O106 2.451654 1_555
Na12 O118 2.535083 1_555
Na12 O102 2.590119 1_555
Na12 O114 2.596605 1_555
Na12 O116 2.727852 1_555
Na13 O105 2.422810 1_555
Na13 O119 2.535064 1_555
Na13 O103 2.541011 1_555
Na13 O117 2.567855 1_555
Na13 O115 2.570311 1_555
Na13 O107 2.684391 1_555
Na14 O122 2.330542 1_555
Na14 O120 2.481767 1_555
Na14 O136 2.584772 1_555
Na14 O124 2.606017 1_555
Na14 O132 2.619197 1_555
Na14 O134 2.803761 1_555
Na15 O121 2.363267 1_555
Na15 O137 2.450648 1_555
Na15 O123 2.489921 1_555
Na15 O135 2.557428 1_555
Na15 O125 2.571853 1_555
Na15 O133 2.645536 1_555
Na16 O138 2.435258 1_555
Na16 O126 2.510999 1_555
Na16 O142 2.553702 1_555
Na16 O128 2.564143 1_555
Na16 O140 2.604299 1_555
Na16 O130 2.617707 1_555
Na17 O131 2.369514 1_555
Na17 O127 2.436354 1_555
Na17 O129 2.454676 1_555
Na17 O141 2.580717 1_555
Na17 O139 2.719979 1_555
Na17 O143 2.733570 1_555
Ga0 O5 1.911487 1_565
Ga0 O0 1.921232 1_665
Ga0 O75 1.932279 1_555
Ga0 O72 1.977972 1_655
Ga0 O3 2.012293 1_555
Ga0 O76 2.320988 1_665
Ga1 O4 1.881376 1_555
Ga1 O74 1.887559 1_545
Ga1 O73 1.895733 1_545
Ga1 O77 1.944402 1_555
Ga1 O2 2.157189 1_545
Ga1 O1 2.245793 1_555
Ga2 O9 1.842999 1_445
Ga2 O6 1.859018 1_555
Ga2 O78 1.897808 1_555
Ga2 O11 2.108740 1_455
Ga2 O80 2.170096 1_545
Ga2 O83 2.266791 1_445
Ga3 O10 1.876596 1_565
Ga3 O7 1.903242 1_565
Ga3 O8 1.904257 1_555
Ga3 O81 2.044396 1_555
Ga3 O82 2.068898 1_555
Ga3 O79 2.281794 1_565
Ga4 O100 1.844508 1_555
Ga4 O96 1.850206 1_555
Ga4 O98 1.856943 1_555
Ga4 O24 2.105547 1_555
Ga4 O28 2.144684 1_555
Ga4 O26 2.170506 1_555
Ga5 O99 1.843972 1_555
Ga5 O101 1.868557 1_555
Ga5 O29 1.957571 1_555
Ga5 O27 2.118456 1_555
Ga5 O97 2.135622 1_555
Ga5 O25 2.163408 1_555
Ga6 O104 1.846253 1_555
Ga6 O106 1.862174 1_555
Ga6 O32 1.988416 1_555
Ga6 O34 2.064028 1_555
Ga6 O30 2.065765 1_555
Ga6 O102 2.082622 1_555
Ga7 O31 1.837423 1_555
Ga7 O35 1.895412 1_555
Ga7 O105 1.914342 1_555
Ga7 O33 2.117935 1_555
Ga7 O103 2.133947 1_555
Ga7 O107 2.362502 1_555
Ga8 O108 1.872950 1_555
Ga8 O36 2.016451 1_556
Ga8 O40 2.022310 1_556
Ga8 O38 2.051534 1_556
Ga8 O112 2.054809 1_555
Ga8 O110 2.124218 1_555
Ga9 O118 1.878103 1_555
Ga9 O114 1.927697 1_555
Ga9 O46 2.007061 1_555
Ga9 O44 2.024063 1_555
Ga9 O116 2.073863 1_555
Ga9 O42 2.165100 1_555
Ga10 O117 1.858445 1_555
Ga10 O119 1.884375 1_555
Ga10 O115 1.925088 1_555
Ga10 O47 2.119288 1_555
Ga10 O43 2.130903 1_555
Ga10 O45 2.157486 1_555
Ga11 O48 1.837147 1_554
Ga11 O50 1.846796 1_554
Ga11 O122 1.875525 1_555
Ga11 O52 2.039119 1_554
Ga11 O120 2.267076 1_555
Ga11 O124 2.480822 1_555
Ga12 O53 1.822696 1_554
Ga12 O121 1.876017 1_555
Ga12 O51 2.006804 1_554
Ga12 O49 2.018135 1_554
Ga12 O125 2.127666 1_555
Ga12 O123 2.242579 1_555
Ga13 O54 1.799756 1_555
Ga13 O58 1.835838 1_555
Ga13 O56 1.993173 1_555
Ga13 O126 2.159441 1_555
Ga13 O128 2.179946 1_555
Ga13 O130 2.268972 1_555
Ga14 O55 1.821970 1_555
Ga14 O57 1.835991 1_555
Ga14 O59 1.853334 1_555
Ga14 O129 2.337183 1_555
Ga14 O127 2.348700 1_555
Ga14 O131 2.367903 1_555
O0 Si0 1.603367 1_555
O1 S0 1.458876 1_555
O2 S1 1.462623 1_555
O3 S2 1.465241 1_555
O4 Si2 1.603517 1_555
O5 Si1 1.620344 1_555
O6 Si3 1.607669 1_555
O7 Si4 1.583311 1_555
O8 Si6 1.596599 1_555
O9 Si5 1.611919 1_555
O10 Si7 1.590728 1_555
O11 S3 1.455762 1_555
O12 Si7 1.693669 1_565
O12 Ta1 1.852961 1_565
O13 S3 1.505520 1_565
O13 Ta0 2.067040 1_655
O14 Si3 1.677044 1_555
O14 Ta0 1.848892 1_545
O15 Si4 1.684731 1_555
O15 Ta1 1.872713 1_555
O16 Si5 1.696687 1_455
O16 Ta0 1.841664 1_555
O17 Si6 1.655256 1_555
O17 Ta1 1.877551 1_565
O18 S1 1.504014 1_555
O18 Ta3 2.123211 1_565
O19 S2 1.509267 1_555
O19 Ta2 2.062794 1_655
O20 Si1 1.672238 1_455
O20 Ta2 1.909554 1_545
O21 Si2 1.678095 1_555
O21 Ta3 1.848333 1_555
O22 Si0 1.665550 1_565
O22 Ta2 1.854752 1_555
O23 S0 1.540378 1_565
O23 Ta3 2.004052 1_565
O24 S4 1.462559 1_555
O25 S5 1.467398 1_555
O26 S6 1.450248 1_555
O27 S7 1.476908 1_555
O28 S8 1.464670 1_555
O29 S9 1.481426 1_555
O30 S10 1.462912 1_555
O31 Si8 1.609269 1_555
O32 S11 1.471800 1_555
O33 S12 1.462641 1_555
O34 S13 1.460768 1_555
O35 Si9 1.606522 1_555
O36 S13 1.498272 1_555
O37 Si9 1.637256 1_555
O37 Ta4 1.928869 1_554
O38 S10 1.500222 1_555
O39 Si8 1.652911 1_555
O39 Ta4 1.925437 1_554
O40 S11 1.499893 1_555
O41 S12 1.493884 1_555
O41 Ta4 2.092463 1_554
O42 S6 1.481548 1_555
O43 S7 1.492533 1_555
O44 S8 1.497385 1_555
O45 S9 1.470500 1_555
O46 S4 1.503553 1_555
O47 S5 1.484688 1_555
O48 Si10 1.617553 1_555
O49 S14 1.468487 1_555
O50 Si11 1.625753 1_555
O51 S15 1.475918 1_555
O52 S16 1.465213 1_555
O53 Si12 1.629738 1_555
O54 Si13 1.608481 1_555
O55 Si14 1.615908 1_555
O56 S17 1.480536 1_555
O57 Si15 1.620624 1_555
O58 Si16 1.626342 1_555
O59 Si17 1.629711 1_555
O60 Si16 1.698619 1_555
O60 Ta5 1.879180 1_555
O61 Si17 1.691951 1_555
O61 Ta6 1.883332 1_555
O62 Si13 1.669010 1_555
O62 Ta5 1.956129 1_555
O63 Si14 1.676445 1_555
O63 Ta6 1.930957 1_555
O64 S17 1.485356 1_555
O64 Ta5 2.181006 1_555
O65 Si15 1.678234 1_555
O65 Ta6 1.858760 1_555
O66 Si11 1.637731 1_555
O66 Ta7 1.957107 1_555
O67 S15 1.524274 1_555
O67 Ta8 2.089258 1_555
O68 S16 1.470406 1_555
O68 Ta7 2.257922 1_555
O69 Si12 1.676800 1_555
O69 Ta8 1.901484 1_555
O70 Si10 1.670085 1_555
O70 Ta7 1.951688 1_555
O71 S14 1.487116 1_555
O71 Ta8 2.130273 1_555
O72 Si16 1.609101 1_555
O73 Si17 1.597566 1_555
O74 Si13 1.605764 1_555
O75 Si14 1.615889 1_555
O76 S17 1.482414 1_555
O77 Si15 1.618106 1_555
O78 Si11 1.636853 1_555
O79 S15 1.437908 1_555
O80 S16 1.494080 1_555
O81 Si12 1.604818 1_555
O82 Si10 1.608235 1_555
O83 S14 1.454329 1_555
O84 S4 1.521961 1_555
O84 Ta1 2.134316 1_555
O85 S5 1.533927 1_555
O85 Ta0 2.116340 1_645
O86 S6 1.560152 1_555
O86 Ta0 2.032605 1_545
O87 S7 1.525557 1_555
O87 Ta1 2.172119 1_555
O88 S8 1.518469 1_555
O88 Ta1 2.261707 1_565
O89 S9 1.538022 1_555
O89 Ta0 2.112392 1_655
O90 S10 1.517575 1_555
O90 Ta3 2.127229 1_565
O91 Si8 1.681745 1_555
O91 Ta2 1.967227 1_655
O92 S11 1.544778 1_555
O92 Ta3 2.043027 1_555
O93 S12 1.508709 1_555
O93 Ta2 2.159799 1_645
O94 S13 1.529850 1_555
O94 Ta2 2.048867 1_545
O95 Si9 1.709640 1_555
O95 Ta3 1.876370 1_555
O96 Si7 1.597831 1_555
O97 S3 1.446200 1_555
O98 Si3 1.579664 1_555
O99 Si4 1.612973 1_555
O100 Si6 1.582557 1_555
O101 Si5 1.613539 1_555
O102 S1 1.466595 1_555
O103 S2 1.459369 1_555
O104 Si2 1.607187 1_555
O105 Si1 1.626566 1_555
O106 Si0 1.602825 1_555
O107 S0 1.447197 1_555
O108 Si10 1.702165 1_555
O109 S14 1.514919 1_555
O109 Ta4 2.065497 1_555
O110 S15 1.510597 1_555
O111 Si11 1.634584 1_655
O111 Ta4 1.947397 1_555
O112 S16 1.521606 1_545
O113 Si12 1.638035 1_545
O113 Ta4 1.952999 1_555
O114 Si13 1.660413 1_545
O115 Si14 1.638629 1_545
O116 S17 1.480968 1_555
O117 Si15 1.606624 1_555
O118 Si17 1.625157 1_555
O119 Si16 1.609761 1_655
O120 S13 1.455144 1_555
O121 Si9 1.629657 1_555
O122 Si8 1.624943 1_455
O123 S10 1.469116 1_555
O124 S11 1.439000 1_565
O125 S12 1.470666 1_565
O126 S6 1.482470 1_565
O127 S7 1.478896 1_565
O128 S8 1.496216 1_555
O129 S9 1.467529 1_555
O130 S5 1.486595 1_455
O131 S4 1.470370 1_555
O132 Si0 1.668762 1_565
O132 Ta5 1.898816 1_555
O133 S0 1.507217 1_565
O133 Ta6 2.219167 1_555
O134 S1 1.503398 1_555
O134 Ta5 2.200527 1_555
O135 S2 1.497920 1_555
O135 Ta6 2.215063 1_555
O136 Si1 1.680791 1_455
O136 Ta5 1.967455 1_555
O137 Si2 1.650905 1_555
O137 Ta6 1.990449 1_555
O138 Si3 1.646517 1_555
O138 Ta7 1.920524 1_555
O139 Si4 1.671164 1_555
O139 Ta8 1.929750 1_555
O140 Si5 1.627987 1_455
O140 Ta7 1.977668 1_555
O141 Si6 1.690042 1_555
O141 Ta8 1.871972 1_555
O142 Si7 1.648567 1_565
O142 Ta7 1.945759 1_555
O143 S3 1.520626 1_565
O143 Ta8 2.083523 1_555
