# generated using pymatgen
data_Na3ZrInSi(PO6)2
_symmetry_space_group_name_H-M   'P 1'
_cell_length_a   9.17074196
_cell_length_b   9.17074163
_cell_length_c   22.63703211
_cell_angle_alpha   89.95313582
_cell_angle_beta   90.04686418
_cell_angle_gamma   119.91233797
_symmetry_Int_Tables_number   1
_chemical_formula_structural   Na3ZrInSi(PO6)2
_chemical_formula_sum   'Na18 Zr6 In6 Si6 P12 O72'
_cell_volume   1650.21985966
_cell_formula_units_Z   6
loop_
 _symmetry_equiv_pos_site_id
 _symmetry_equiv_pos_as_xyz
  1  'x, y, z'
loop_
 _atom_site_type_symbol
 _atom_site_label
 _atom_site_symmetry_multiplicity
 _atom_site_fract_x
 _atom_site_fract_y
 _atom_site_fract_z
 _atom_site_occupancy
  Na  Na0  1  0.00362616  0.99192757  0.49469048  1
  Na  Na1  1  0.00807243  0.99637384  0.99469048  1
  Na  Na2  1  0.66581142  0.32097167  0.82879320  1
  Na  Na3  1  0.67902833  0.33418858  0.32879320  1
  Na  Na4  1  0.35230344  0.67650447  0.16123432  1
  Na  Na5  1  0.32349553  0.64769656  0.66123432  1
  Na  Na6  1  0.36120072  0.35959343  0.24576803  1
  Na  Na7  1  0.99077649  0.62778800  0.24490326  1
  Na  Na8  1  0.64040657  0.63879928  0.74576803  1
  Na  Na9  1  0.37221200  0.00922351  0.74490326  1
  Na  Na10  1  0.04275884  0.69999237  0.57716607  1
  Na  Na11  1  0.64929335  0.96362403  0.58479628  1
  Na  Na12  1  0.30000763  0.95724116  0.07716607  1
  Na  Na13  1  0.03637597  0.35070665  0.08479628  1
  Na  Na14  1  0.97716683  0.67786814  0.91927884  1
  Na  Na15  1  0.69743157  0.02624665  0.90875992  1
  Na  Na16  1  0.97375335  0.30256843  0.40875992  1
  Na  Na17  1  0.32213186  0.02283317  0.41927884  1
  Zr  Zr0  1  0.00557216  0.00928409  0.64762032  1
  Zr  Zr1  1  0.99071591  0.99442784  0.14762032  1
  Zr  Zr2  1  0.66223006  0.33812263  0.98122269  1
  Zr  Zr3  1  0.66187737  0.33776994  0.48122269  1
  Zr  Zr4  1  0.33320305  0.66884327  0.31452150  1
  Zr  Zr5  1  0.33115673  0.66679695  0.81452150  1
  In  In0  1  0.98856262  0.99186627  0.34891676  1
  In  In1  1  0.00813373  0.01143738  0.84891676  1
  In  In2  1  0.66904639  0.32673920  0.68274500  1
  In  In3  1  0.67326080  0.33095361  0.18274500  1
  In  In4  1  0.33295131  0.66557072  0.01525548  1
  In  In5  1  0.33442928  0.66704869  0.51525548  1
  Si  Si0  1  0.99961036  0.29840592  0.25241554  1
  Si  Si1  1  0.70159408  0.00038964  0.75241554  1
  Si  Si2  1  0.36550065  0.02975133  0.58363779  1
  Si  Si3  1  0.97024867  0.63449935  0.08363779  1
  Si  Si4  1  0.33148011  0.96773089  0.91740636  1
  Si  Si5  1  0.03226911  0.66851989  0.41740636  1
  P  P0  1  0.29636810  0.00250484  0.25062988  1
  P  P1  1  0.69996378  0.69841837  0.25001520  1
  P  P2  1  0.30158163  0.30003622  0.75001520  1
  P  P3  1  0.99749516  0.70363190  0.75062988  1
  P  P4  1  0.96260391  0.33498934  0.58153449  1
  P  P5  1  0.66721909  0.63085060  0.58739096  1
  P  P6  1  0.66501066  0.03739609  0.08153449  1
  P  P7  1  0.36914940  0.33278091  0.08739096  1
  P  P8  1  0.62878359  0.66662724  0.91533614  1
  P  P9  1  0.03430637  0.36815018  0.92056454  1
  P  P10  1  0.63184982  0.96569363  0.42056454  1
  P  P11  1  0.33337276  0.37121641  0.41533614  1
  O  O0  1  0.21921669  0.02816610  0.30751895  1
  O  O1  1  0.81134727  0.76937655  0.30499373  1
  O  O2  1  0.98578243  0.19900690  0.31339563  1
  O  O3  1  0.23062345  0.18865273  0.80499373  1
  O  O4  1  0.97183390  0.78078331  0.80751895  1
  O  O5  1  0.80099310  0.01421757  0.81339563  1
  O  O6  1  0.80209967  0.98111924  0.69485676  1
  O  O7  1  0.19124755  0.20635798  0.69506275  1
  O  O8  1  0.02597317  0.82308556  0.69711672  1
  O  O9  1  0.79364202  0.80875245  0.19506275  1
  O  O10  1  0.01888076  0.19790033  0.19485676  1
  O  O11  1  0.17691444  0.97402683  0.19711672  1
  O  O12  1  0.88649128  0.37421107  0.63567420  1
  O  O13  1  0.47627019  0.11139011  0.64334787  1
  O  O14  1  0.64987573  0.53865001  0.64588948  1
  O  O15  1  0.88860989  0.52372981  0.14334787  1
  O  O16  1  0.62578893  0.11350872  0.13567420  1
  O  O17  1  0.46134999  0.35012427  0.14588948  1
  O  O18  1  0.46803283  0.31011509  0.03512148  1
  O  O19  1  0.85427413  0.53532752  0.02532961  1
  O  O20  1  0.68763399  0.14806447  0.02595319  1
  O  O21  1  0.46467248  0.14572587  0.52532961  1
  O  O22  1  0.68988491  0.53196717  0.53512148  1
  O  O23  1  0.85193553  0.31236601  0.52595319  1
  O  O24  1  0.54207917  0.68998756  0.96950944  1
  O  O25  1  0.12630394  0.43755349  0.97979475  1
  O  O26  1  0.29961224  0.85704010  0.97758936  1
  O  O27  1  0.56244651  0.87369606  0.47979475  1
  O  O28  1  0.31001244  0.45792083  0.46950944  1
  O  O29  1  0.14295990  0.70038776  0.47758936  1
  O  O30  1  0.13399065  0.64476840  0.36050017  1
  O  O31  1  0.51425105  0.86237315  0.36871825  1
  O  O32  1  0.35267656  0.47504298  0.35849796  1
  O  O33  1  0.13762685  0.48574895  0.86871825  1
  O  O34  1  0.35523160  0.86600935  0.86050017  1
  O  O35  1  0.52495702  0.64732344  0.85849796  1
  O  O36  1  0.02079179  0.83930061  0.41118307  1
  O  O37  1  0.81471196  0.00407236  0.41461010  1
  O  O38  1  0.17766057  0.19284492  0.41306157  1
  O  O39  1  0.99592764  0.18528804  0.91461010  1
  O  O40  1  0.16069939  0.97920821  0.91118307  1
  O  O41  1  0.80715508  0.82233943  0.91306157  1
  O  O42  1  0.96125310  0.16476788  0.58790120  1
  O  O43  1  0.17449146  0.00491380  0.58614465  1
  O  O44  1  0.83246440  0.80675906  0.58783063  1
  O  O45  1  0.99508620  0.82550854  0.08614465  1
  O  O46  1  0.83523212  0.03874690  0.08790120  1
  O  O47  1  0.19324094  0.16753560  0.08783063  1
  O  O48  1  0.66547401  0.15724318  0.74915162  1
  O  O49  1  0.48332055  0.33251124  0.74396870  1
  O  O50  1  0.83818564  0.53059764  0.74343695  1
  O  O51  1  0.66748876  0.51667945  0.24396870  1
  O  O52  1  0.84275682  0.33452599  0.24915162  1
  O  O53  1  0.46940236  0.16181436  0.24343695  1
  O  O54  1  0.64909014  0.50790695  0.92008284  1
  O  O55  1  0.86217018  0.36679402  0.92002243  1
  O  O56  1  0.50947487  0.14869160  0.92040193  1
  O  O57  1  0.63320598  0.13782982  0.42002243  1
  O  O58  1  0.49209305  0.35090986  0.42008284  1
  O  O59  1  0.85130840  0.49052513  0.42040193  1
  O  O60  1  0.33997164  0.48248341  0.07958558  1
  O  O61  1  0.15898912  0.65422184  0.08159511  1
  O  O62  1  0.51676178  0.85809888  0.07588012  1
  O  O63  1  0.34577816  0.84101088  0.58159511  1
  O  O64  1  0.51751659  0.66002836  0.57958558  1
  O  O65  1  0.14190112  0.48323822  0.57588012  1
  O  O66  1  0.31092312  0.84052020  0.25435782  1
  O  O67  1  0.52717292  0.68909050  0.25417604  1
  O  O68  1  0.17780918  0.48551978  0.25313628  1
  O  O69  1  0.31090950  0.47282708  0.75417604  1
  O  O70  1  0.15947980  0.68907688  0.75435782  1
  O  O71  1  0.51448022  0.82219082  0.75313628  1
loop_
_geom_bond_atom_site_label_1
_geom_bond_atom_site_label_2
_geom_bond_distance
_geom_bond_site_symmetry_2
Na0 O36 2.404576 1_555
Na0 O38 2.534384 1_565
Na0 O37 2.546971 1_465
Na0 O43 2.562122 1_565
Na0 O44 2.670968 1_455
Na0 O42 2.781501 1_465
Na1 O40 2.404576 1_555
Na1 O41 2.534384 1_455
Na1 O39 2.546971 1_465
Na1 O45 2.562122 1_456
Na1 O47 2.670968 1_566
Na1 O46 2.781501 1_466
Na2 O48 2.346188 1_555
Na2 O56 2.567589 1_555
Na2 O49 2.582669 1_555
Na2 O50 2.626042 1_555
Na2 O55 2.631504 1_555
Na2 O54 2.738886 1_555
Na3 O52 2.346188 1_555
Na3 O59 2.567589 1_555
Na3 O51 2.582669 1_555
Na3 O53 2.626042 1_555
Na3 O57 2.631504 1_555
Na3 O58 2.738886 1_555
Na4 O61 2.463501 1_555
Na4 O62 2.505159 1_555
Na4 O60 2.529676 1_555
Na4 O67 2.611874 1_555
Na4 O68 2.675925 1_555
Na4 O66 2.725084 1_555
Na5 O63 2.463500 1_555
Na5 O65 2.505159 1_555
Na5 O64 2.529676 1_555
Na5 O69 2.611874 1_555
Na5 O71 2.675925 1_555
Na5 O70 2.725085 1_555
Na6 O51 2.435401 1_555
Na6 O17 2.458913 1_555
Na6 O53 2.464242 1_555
Na6 O68 2.475463 1_555
Na6 O67 2.626245 1_555
Na6 O32 2.779644 1_555
Na6 O10 2.955757 1_555
Na6 O0 2.989399 1_555
Na7 O52 2.333164 1_555
Na7 O15 2.486333 1_555
Na7 O66 2.599779 1_655
Na7 O51 2.610680 1_555
Na7 O68 2.628690 1_655
Na7 O1 2.895091 1_555
Na7 O30 2.896165 1_655
Na7 O11 2.959381 1_655
Na8 O49 2.435401 1_555
Na8 O14 2.458913 1_555
Na8 O50 2.464242 1_555
Na8 O71 2.475463 1_555
Na8 O69 2.626245 1_555
Na8 O35 2.779644 1_555
Na8 O6 2.955757 1_555
Na8 O4 2.989399 1_555
Na9 O48 2.333164 1_555
Na9 O13 2.486333 1_555
Na9 O70 2.599779 1_545
Na9 O49 2.610680 1_555
Na9 O71 2.628690 1_545
Na9 O3 2.895091 1_555
Na9 O34 2.896165 1_545
Na9 O8 2.959382 1_545
Na10 O63 2.412542 1_555
Na10 O29 2.434243 1_555
Na10 O43 2.439597 1_565
Na10 O65 2.565445 1_555
Na10 O44 2.573082 1_455
Na10 O12 2.908678 1_455
Na10 O22 2.962553 1_455
Na10 O8 2.974899 1_555
Na11 O64 2.422946 1_555
Na11 O63 2.428070 1_555
Na11 O27 2.511822 1_555
Na11 O42 2.515738 1_565
Na11 O44 2.702914 1_555
Na11 O6 2.822677 1_555
Na11 O13 2.874342 1_565
Na12 O61 2.412542 1_555
Na12 O26 2.434243 1_554
Na12 O45 2.439597 1_455
Na12 O62 2.565445 1_555
Na12 O47 2.573082 1_565
Na12 O16 2.908678 1_565
Na12 O18 2.962553 1_565
Na12 O11 2.974899 1_555
Na13 O60 2.422946 1_555
Na13 O61 2.428070 1_555
Na13 O25 2.511822 1_554
Na13 O46 2.515738 1_455
Na13 O47 2.702914 1_555
Na13 O10 2.822677 1_555
Na13 O15 2.874342 1_455
Na14 O40 2.421604 1_655
Na14 O55 2.500040 1_555
Na14 O41 2.503130 1_555
Na14 O54 2.608638 1_555
Na14 O19 2.696691 1_556
Na14 O4 2.708422 1_555
Na14 O26 2.887499 1_655
Na15 O39 2.378246 1_555
Na15 O5 2.383835 1_555
Na15 O56 2.496636 1_555
Na15 O41 2.528844 1_545
Na15 O55 2.719548 1_555
Na15 O20 2.898170 1_556
Na15 O34 2.932403 1_545
Na15 O24 3.007475 1_545
Na16 O37 2.378246 1_555
Na16 O2 2.383835 1_555
Na16 O59 2.496636 1_555
Na16 O38 2.528844 1_655
Na16 O57 2.719548 1_555
Na16 O23 2.898170 1_555
Na16 O30 2.932403 1_655
Na16 O28 3.007475 1_655
Na17 O36 2.421605 1_545
Na17 O57 2.500040 1_555
Na17 O38 2.503130 1_555
Na17 O58 2.608638 1_555
Na17 O21 2.696691 1_555
Na17 O0 2.708422 1_555
Na17 O29 2.887499 1_545
In0 O2 2.074029 1_565
In0 O36 2.107189 1_655
In0 O1 2.118138 1_555
In0 O0 2.182617 1_665
In0 O37 2.224425 1_565
In0 O38 2.307669 1_665
In1 O5 2.074029 1_455
In1 O40 2.107189 1_545
In1 O3 2.118138 1_555
In1 O4 2.182617 1_445
In1 O39 2.224425 1_455
In1 O41 2.307669 1_445
In2 O13 2.083081 1_555
In2 O12 2.106737 1_555
In2 O48 2.149993 1_555
In2 O14 2.200353 1_555
In2 O50 2.212970 1_555
In2 O49 2.217775 1_555
In3 O15 2.083081 1_555
In3 O16 2.106737 1_555
In3 O52 2.149993 1_555
In3 O17 2.200353 1_555
In3 O53 2.212970 1_555
In3 O51 2.217775 1_555
In4 O24 2.091710 1_554
In4 O26 2.106251 1_554
In4 O61 2.156218 1_555
In4 O25 2.157864 1_554
In4 O62 2.207740 1_555
In4 O60 2.246696 1_555
In5 O28 2.091710 1_555
In5 O29 2.106251 1_555
In5 O63 2.156218 1_555
In5 O27 2.157864 1_555
In5 O65 2.207740 1_555
In5 O64 2.246696 1_555
O0 P0 1.543524 1_555
O1 P1 1.533644 1_555
O2 Si0 1.623420 1_555
O3 P2 1.533644 1_555
O4 P3 1.543524 1_555
O5 Si1 1.623420 1_555
O6 Si1 1.656286 1_565
O6 Zr0 2.052840 1_665
O7 P2 1.562702 1_555
O7 Zr0 2.061580 1_555
O8 P3 1.564840 1_455
O8 Zr0 2.126357 1_565
O9 P1 1.562702 1_555
O9 Zr1 2.061580 1_555
O10 Si0 1.656286 1_455
O10 Zr1 2.052840 1_445
O11 P0 1.564840 1_565
O11 Zr1 2.126357 1_455
O12 P4 1.539845 1_555
O13 Si2 1.631050 1_555
O14 P5 1.535651 1_555
O15 Si3 1.631050 1_555
O16 P6 1.539845 1_555
O17 P7 1.535651 1_555
O18 P7 1.567078 1_555
O18 Zr2 2.067167 1_554
O19 Si3 1.653927 1_555
O19 Zr2 2.047632 1_554
O20 P6 1.563482 1_555
O20 Zr2 2.125851 1_554
O21 Si2 1.653927 1_555
O21 Zr3 2.047632 1_555
O22 P5 1.567078 1_555
O22 Zr3 2.067167 1_555
O23 P4 1.563482 1_555
O23 Zr3 2.125851 1_555
O24 P8 1.534254 1_555
O25 P9 1.542280 1_555
O26 Si4 1.635364 1_555
O27 P10 1.542280 1_555
O28 P11 1.534254 1_555
O29 Si5 1.635364 1_555
O30 Si5 1.667988 1_555
O30 Zr4 2.017463 1_555
O31 P10 1.555289 1_555
O31 Zr4 2.114974 1_555
O32 P11 1.556816 1_555
O32 Zr4 2.120153 1_555
O33 P9 1.555289 1_555
O33 Zr5 2.114974 1_555
O34 Si4 1.667988 1_555
O34 Zr5 2.017463 1_555
O35 P8 1.556816 1_555
O35 Zr5 2.120153 1_555
O36 Si5 1.627234 1_555
O37 P10 1.538160 1_545
O38 P11 1.545302 1_555
O39 P9 1.538160 1_655
O40 Si4 1.627234 1_555
O41 P8 1.545302 1_555
O42 P4 1.561465 1_555
O42 Zr0 2.144732 1_655
O43 Si2 1.650982 1_555
O43 Zr0 2.098459 1_555
O44 P5 1.568707 1_555
O44 Zr0 2.204897 1_665
O45 Si3 1.650982 1_555
O45 Zr1 2.098459 1_555
O46 P6 1.561465 1_555
O46 Zr1 2.144732 1_545
O47 P7 1.568707 1_555
O47 Zr1 2.204897 1_445
O48 Si1 1.630758 1_555
O49 P2 1.546127 1_555
O50 P3 1.538475 1_555
O51 P1 1.546127 1_555
O52 Si0 1.630758 1_555
O53 P0 1.538475 1_555
O54 P8 1.560451 1_555
O54 Zr2 2.130206 1_555
O55 P9 1.572489 1_655
O55 Zr2 2.207544 1_555
O56 Si4 1.649688 1_545
O56 Zr2 2.109398 1_555
O57 P10 1.572489 1_545
O57 Zr3 2.207544 1_555
O58 P11 1.560451 1_555
O58 Zr3 2.130206 1_555
O59 Si5 1.649688 1_655
O59 Zr3 2.109398 1_555
O60 P7 1.534124 1_555
O61 Si3 1.648852 1_455
O62 P6 1.529360 1_565
O63 Si2 1.648852 1_565
O64 P5 1.534124 1_555
O65 P4 1.529360 1_455
O66 P0 1.558603 1_565
O66 Zr4 2.166152 1_555
O67 P1 1.546689 1_555
O67 Zr4 2.176921 1_555
O68 Si0 1.678886 1_455
O68 Zr4 2.097457 1_555
O69 P2 1.546689 1_555
O69 Zr5 2.176921 1_555
O70 P3 1.558603 1_455
O70 Zr5 2.166152 1_555
O71 Si1 1.678886 1_565
O71 Zr5 2.097457 1_555
