# generated using pymatgen
data_Mn3O4
_symmetry_space_group_name_H-M   'P 1'
_cell_length_a   3.06985000
_cell_length_b   9.72508000
_cell_length_c   9.95322200
_cell_angle_alpha   90.00001165
_cell_angle_beta   89.99996982
_cell_angle_gamma   89.99999411
_symmetry_Int_Tables_number   1
_chemical_formula_structural   Mn3O4
_chemical_formula_sum   'Mn12 O16'
_cell_volume   297.14883286
_cell_formula_units_Z   4
loop_
 _symmetry_equiv_pos_site_id
 _symmetry_equiv_pos_as_xyz
  1  'x, y, z'
loop_
 _atom_site_type_symbol
 _atom_site_label
 _atom_site_symmetry_multiplicity
 _atom_site_fract_x
 _atom_site_fract_y
 _atom_site_fract_z
 _atom_site_occupancy
  Mn  Mn0  1  0.29546000  0.75000100  0.14334100  1
  Mn  Mn1  1  0.29543900  0.24999900  0.35665800  1
  Mn  Mn2  1  0.78487000  0.42999500  0.11421000  1
  Mn  Mn3  1  0.78486800  0.57000600  0.38579100  1
  Mn  Mn4  1  0.78486700  0.07000600  0.11420900  1
  Mn  Mn5  1  0.78486600  0.92999400  0.38579100  1
  Mn  Mn6  1  0.70456500  0.25000100  0.85664500  1
  Mn  Mn7  1  0.70455500  0.75000000  0.64336300  1
  Mn  Mn8  1  0.21514400  0.42999800  0.61422900  1
  Mn  Mn9  1  0.21513300  0.93000000  0.88576900  1
  Mn  Mn10  1  0.21513900  0.57000000  0.88577000  1
  Mn  Mn11  1  0.21513900  0.07000200  0.61423000  1
  O  O0  1  0.36528800  0.50000000  0.25000000  1
  O  O1  1  0.36528600  0.00000000  0.25000000  1
  O  O2  1  0.63472400  0.99999900  0.74999900  1
  O  O3  1  0.63472600  0.50000000  0.75000000  1
  O  O4  1  0.20502900  0.75000000  0.79863900  1
  O  O5  1  0.79498400  0.75000000  0.29863700  1
  O  O6  1  0.20503300  0.25000000  0.70136200  1
  O  O7  1  0.79497800  0.25000000  0.20136200  1
  O  O8  1  0.79265600  0.11180600  0.47074800  1
  O  O9  1  0.79265800  0.61180600  0.02925100  1
  O  O10  1  0.79265700  0.38819400  0.47074800  1
  O  O11  1  0.20731800  0.88819800  0.52925800  1
  O  O12  1  0.20732000  0.61180200  0.52925700  1
  O  O13  1  0.20731800  0.11180300  0.97074200  1
  O  O14  1  0.20731900  0.38819700  0.97074200  1
  O  O15  1  0.79265700  0.88819400  0.02925100  1
loop_
_geom_bond_atom_site_label_1
_geom_bond_atom_site_label_2
_geom_bond_distance
_geom_bond_site_symmetry_2
Mn0 O5 2.177312 1_555
Mn0 O5 2.179370 1_455
Mn0 O15 2.329233 1_555
Mn0 O9 2.329246 1_555
Mn0 O15 2.340547 1_455
Mn0 O9 2.340556 1_455
Mn0 O1 2.661573 1_565
Mn0 O0 2.661591 1_555
Mn1 O7 2.177343 1_555
Mn1 O7 2.179339 1_455
Mn1 O8 2.329274 1_555
Mn1 O10 2.329287 1_555
Mn1 O8 2.340506 1_455
Mn1 O10 2.340514 1_455
Mn1 O1 2.661574 1_555
Mn1 O0 2.661593 1_555
Mn2 O7 1.953856 1_555
Mn2 O9 1.960079 1_555
Mn2 O14 1.971334 1_654
Mn2 O0 1.987274 1_555
Mn2 O14 2.312540 1_554
Mn2 O0 2.337729 1_655
Mn3 O5 1.953856 1_555
Mn3 O10 1.960079 1_555
Mn3 O12 1.971323 1_655
Mn3 O0 1.987281 1_555
Mn3 O12 2.312516 1_555
Mn3 O0 2.337741 1_655
Mn4 O7 1.953851 1_555
Mn4 O15 1.960083 1_545
Mn4 O13 1.971329 1_654
Mn4 O1 1.987282 1_555
Mn4 O13 2.312528 1_554
Mn4 O1 2.337740 1_655
Mn5 O5 1.953856 1_555
Mn5 O8 1.960079 1_565
Mn5 O11 1.971330 1_655
Mn5 O1 1.987281 1_565
Mn5 O11 2.312522 1_555
Mn5 O1 2.337741 1_665
Mn6 O6 2.177238 1_555
Mn6 O6 2.179261 1_655
Mn6 O14 2.329382 1_555
Mn6 O13 2.329395 1_555
Mn6 O14 2.340498 1_655
Mn6 O13 2.340507 1_655
Mn6 O3 2.661521 1_555
Mn6 O2 2.661552 1_545
Mn7 O4 2.177174 1_555
Mn7 O4 2.179226 1_655
Mn7 O11 2.329415 1_555
Mn7 O12 2.329415 1_555
Mn7 O11 2.340566 1_655
Mn7 O12 2.340574 1_655
Mn7 O2 2.661483 1_555
Mn7 O3 2.661495 1_555
Mn8 O6 1.953798 1_555
Mn8 O12 1.960075 1_555
Mn8 O10 1.971518 1_455
Mn8 O3 1.987136 1_555
Mn8 O10 2.312540 1_555
Mn8 O3 2.337610 1_455
Mn9 O4 1.953801 1_555
Mn9 O13 1.960070 1_565
Mn9 O15 1.971506 1_456
Mn9 O2 1.987136 1_555
Mn9 O15 2.312576 1_556
Mn9 O2 2.337576 1_455
Mn10 O4 1.953806 1_555
Mn10 O14 1.960066 1_555
Mn10 O9 1.971509 1_456
Mn10 O3 1.987132 1_555
Mn10 O9 2.312558 1_556
Mn10 O3 2.337588 1_455
Mn11 O6 1.953793 1_555
Mn11 O11 1.960074 1_545
Mn11 O8 1.971517 1_455
Mn11 O2 1.987132 1_545
Mn11 O8 2.312555 1_555
Mn11 O2 2.337594 1_445
