# generated using pymatgen
data_Tb3(CoGe2)2
_symmetry_space_group_name_H-M   'P 1'
_cell_length_a   5.76522898
_cell_length_b   5.76522898
_cell_length_c   8.06449586
_cell_angle_alpha   73.62302585
_cell_angle_beta   73.62302585
_cell_angle_gamma   42.34000449
_symmetry_Int_Tables_number   1
_chemical_formula_structural   Tb3(CoGe2)2
_chemical_formula_sum   'Tb3 Co2 Ge4'
_cell_volume   172.08677996
_cell_formula_units_Z   1
loop_
 _symmetry_equiv_pos_site_id
 _symmetry_equiv_pos_as_xyz
  1  'x, y, z'
loop_
 _atom_site_type_symbol
 _atom_site_label
 _atom_site_symmetry_multiplicity
 _atom_site_fract_x
 _atom_site_fract_y
 _atom_site_fract_z
 _atom_site_occupancy
  Tb  Tb0  1  0.00000000  0.00000000  0.00000000  1
  Tb  Tb1  1  0.37712100  0.37712100  0.69244200  1
  Tb  Tb2  1  0.62287900  0.62287900  0.30755800  1
  Co  Co0  1  0.69261200  0.69261200  0.62753800  1
  Co  Co1  1  0.30738800  0.30738800  0.37246200  1
  Ge  Ge0  1  0.09925100  0.09925100  0.60071200  1
  Ge  Ge1  1  0.29085100  0.29085100  0.08118000  1
  Ge  Ge2  1  0.70914900  0.70914900  0.91882000  1
  Ge  Ge3  1  0.90074900  0.90074900  0.39928800  1
loop_
_geom_bond_atom_site_label_1
_geom_bond_atom_site_label_2
_geom_bond_distance
_geom_bond_site_symmetry_2
Co0 Ge0 2.349617 1_565
Co0 Ge0 2.349617 1_655
Co0 Ge2 2.408776 1_555
Co0 Ge3 2.430136 1_555
Co0 Tb2 2.896736 1_555
Co0 Tb1 3.028634 1_565
Co0 Tb1 3.028634 1_655
Co0 Tb1 3.272252 1_555
Co1 Ge3 2.349617 1_545
Co1 Ge3 2.349617 1_455
Co1 Ge1 2.408776 1_555
Co1 Ge0 2.430136 1_555
Co1 Tb1 2.896736 1_555
Co1 Tb2 3.028634 1_545
Co1 Tb2 3.028634 1_455
Co1 Tb2 3.272252 1_555
Ge0 Ge3 3.048059 1_445
Ge0 Tb0 3.070762 1_556
Ge0 Tb1 3.085150 1_455
Ge0 Tb1 3.085150 1_545
Ge0 Tb2 3.102475 1_545
Ge0 Tb2 3.102475 1_455
Ge0 Tb1 3.287917 1_555
Ge1 Ge2 2.741638 1_544
Ge1 Ge2 2.741638 1_454
Ge1 Tb1 2.988307 1_554
Ge1 Tb0 2.988379 1_655
Ge1 Tb0 2.988379 1_565
Ge1 Tb2 2.989281 1_455
Ge1 Tb2 2.989281 1_545
Ge1 Tb0 3.383314 1_555
Ge2 Tb2 2.988307 1_556
Ge2 Tb0 2.988379 1_566
Ge2 Tb0 2.988379 1_656
Ge2 Tb1 2.989281 1_565
Ge2 Tb1 2.989281 1_655
Ge2 Tb0 3.383314 1_666
Ge3 Tb0 3.070762 1_665
Ge3 Tb2 3.085150 1_565
Ge3 Tb2 3.085150 1_655
Ge3 Tb1 3.102475 1_565
Ge3 Tb1 3.102475 1_655
Ge3 Tb2 3.287917 1_555
