# generated using pymatgen
data_ThTl3F7
_symmetry_space_group_name_H-M   'P 1'
_cell_length_a   10.66013421
_cell_length_b   10.66013421
_cell_length_c   8.46901910
_cell_angle_alpha   90.00000000
_cell_angle_beta   90.00000000
_cell_angle_gamma   125.92592749
_symmetry_Int_Tables_number   1
_chemical_formula_structural   ThTl3F7
_chemical_formula_sum   'Th4 Tl12 F28'
_cell_volume   779.33372886
_cell_formula_units_Z   4
loop_
 _symmetry_equiv_pos_site_id
 _symmetry_equiv_pos_as_xyz
  1  'x, y, z'
loop_
 _atom_site_type_symbol
 _atom_site_label
 _atom_site_symmetry_multiplicity
 _atom_site_fract_x
 _atom_site_fract_y
 _atom_site_fract_z
 _atom_site_occupancy
  Th  Th0  1  0.10838793  0.89161207  0.00093915  1
  Th  Th1  1  0.89161207  0.10838793  0.50093915  1
  Th  Th2  1  0.89161207  0.10838793  0.99906085  1
  Th  Th3  1  0.10838793  0.89161207  0.49906085  1
  Tl  Tl0  1  0.36306650  0.63693350  0.53646311  1
  Tl  Tl1  1  0.63693350  0.36306650  0.03646311  1
  Tl  Tl2  1  0.63693350  0.36306650  0.46353689  1
  Tl  Tl3  1  0.36306650  0.63693350  0.96353689  1
  Tl  Tl4  1  0.48894209  0.97558248  0.25000000  1
  Tl  Tl5  1  0.51105791  0.02441752  0.75000000  1
  Tl  Tl6  1  0.02441752  0.51105791  0.25000000  1
  Tl  Tl7  1  0.97558248  0.48894209  0.75000000  1
  Tl  Tl8  1  0.67084726  0.70368063  0.25000000  1
  Tl  Tl9  1  0.32915274  0.29631937  0.75000000  1
  Tl  Tl10  1  0.29631937  0.32915274  0.25000000  1
  Tl  Tl11  1  0.70368063  0.67084726  0.75000000  1
  F  F0  1  0.90886894  0.63758934  0.94307404  1
  F  F1  1  0.09113106  0.36241066  0.44307404  1
  F  F2  1  0.09113106  0.36241066  0.05692596  1
  F  F3  1  0.90886894  0.63758934  0.55692596  1
  F  F4  1  0.63758934  0.90886894  0.44307404  1
  F  F5  1  0.36241066  0.09113106  0.94307404  1
  F  F6  1  0.36241066  0.09113106  0.55692596  1
  F  F7  1  0.63758934  0.90886894  0.05692596  1
  F  F8  1  0.95081703  0.04918297  0.25000000  1
  F  F9  1  0.04918297  0.95081703  0.75000000  1
  F  F10  1  0.82187712  0.17812288  0.25000000  1
  F  F11  1  0.17812288  0.82187712  0.75000000  1
  F  F12  1  0.22456398  0.77543602  0.06715858  1
  F  F13  1  0.77543602  0.22456398  0.56715858  1
  F  F14  1  0.77543602  0.22456398  0.93284142  1
  F  F15  1  0.22456398  0.77543602  0.43284142  1
  F  F16  1  0.13241866  0.13241866  0.00000000  1
  F  F17  1  0.86758134  0.86758134  0.50000000  1
  F  F18  1  0.86758134  0.86758134  0.00000000  1
  F  F19  1  0.13241866  0.13241866  0.50000000  1
  F  F20  1  0.50000000  0.50000000  0.50000000  1
  F  F21  1  0.50000000  0.50000000  0.00000000  1
  F  F22  1  0.63611723  0.36388277  0.75000000  1
  F  F23  1  0.36388277  0.63611723  0.25000000  1
  F  F24  1  0.76617626  0.97756441  0.75000000  1
  F  F25  1  0.23382374  0.02243559  0.25000000  1
  F  F26  1  0.02243559  0.23382374  0.75000000  1
  F  F27  1  0.97756441  0.76617626  0.25000000  1
loop_
_geom_bond_atom_site_label_1
_geom_bond_atom_site_label_2
_geom_bond_distance
_geom_bond_site_symmetry_2
F0 Th0 2.310426 1_656
F0 Tl7 2.648180 1_555
F0 Tl1 2.763697 1_556
F1 Th1 2.310426 1_455
F1 Tl6 2.648180 1_555
F1 Tl0 2.763697 1_555
F2 Th2 2.310426 1_454
F2 Tl6 2.648180 1_555
F2 Tl3 2.763697 1_554
F3 Th3 2.310426 1_655
F3 Tl7 2.648180 1_555
F3 Tl2 2.763697 1_555
F4 Th1 2.310426 1_565
F4 Tl4 2.648180 1_555
F4 Tl0 2.763697 1_555
F5 Th0 2.310426 1_546
F5 Tl5 2.648180 1_555
F5 Tl1 2.763697 1_556
F6 Th3 2.310426 1_545
F6 Tl5 2.648180 1_555
F6 Tl2 2.763697 1_555
F7 Th2 2.310426 1_564
F7 Tl4 2.648180 1_555
F7 Tl3 2.763697 1_554
F8 Th2 2.404287 1_554
F8 Th1 2.404287 1_555
F9 Th3 2.404287 1_555
F9 Th0 2.404287 1_556
F10 Th2 2.504044 1_554
F10 Th1 2.504044 1_555
F11 Th3 2.504044 1_555
F11 Th0 2.504044 1_556
F12 Th0 2.276374 1_555
F13 Th1 2.276374 1_555
F14 Th2 2.276374 1_555
F15 Th3 2.276374 1_555
F16 Th2 2.425625 1_454
F16 Th0 2.425625 1_545
F17 Th1 2.425625 1_565
F17 Th3 2.425625 1_655
F18 Th2 2.425625 1_564
F18 Th0 2.425625 1_655
F19 Th1 2.425625 1_455
F19 Th3 2.425625 1_545
F20 Tl2 2.618671 1_555
F20 Tl0 2.618671 1_555
F21 Tl1 2.618671 1_555
F21 Tl3 2.618671 1_554
F22 Tl1 2.426111 1_556
F22 Tl2 2.426111 1_555
F23 Tl0 2.426111 1_555
F23 Tl3 2.426111 1_554
F24 Th1 2.448214 1_565
F24 Th2 2.448214 1_565
F25 Th3 2.448214 1_545
F25 Th0 2.448214 1_545
F26 Th2 2.448214 1_455
F26 Th1 2.448214 1_455
F27 Th0 2.448214 1_655
F27 Th3 2.448214 1_655
