# generated using pymatgen
data_Mn6PO12
_symmetry_space_group_name_H-M   'P 1'
_cell_length_a   11.64491744
_cell_length_b   11.64491744
_cell_length_c   11.64491744
_cell_angle_alpha   131.70554317
_cell_angle_beta   131.70554317
_cell_angle_gamma   70.69448890
_symmetry_Int_Tables_number   1
_chemical_formula_structural   Mn6PO12
_chemical_formula_sum   'Mn24 P4 O48'
_cell_volume   862.18646246
_cell_formula_units_Z   4
loop_
 _symmetry_equiv_pos_site_id
 _symmetry_equiv_pos_as_xyz
  1  'x, y, z'
loop_
 _atom_site_type_symbol
 _atom_site_label
 _atom_site_symmetry_multiplicity
 _atom_site_fract_x
 _atom_site_fract_y
 _atom_site_fract_z
 _atom_site_occupancy
  Mn  Mn0  1  0.97984000  0.97984000  0.45967900  1
  Mn  Mn1  1  0.87500000  0.62500000  0.75000000  1
  Mn  Mn2  1  0.59968800  0.87500000  0.22468800  1
  Mn  Mn3  1  0.02016000  0.47984000  0.00000000  1
  Mn  Mn4  1  0.37500000  0.62500000  0.25000000  1
  Mn  Mn5  1  0.22984000  0.72984000  0.95967900  1
  Mn  Mn6  1  0.27016000  0.22984000  0.50000000  1
  Mn  Mn7  1  0.72984000  0.77016000  0.50000000  1
  Mn  Mn8  1  0.47984000  0.02016000  0.00000000  1
  Mn  Mn9  1  0.52016000  0.52016000  0.54032100  1
  Mn  Mn10  1  0.12500000  0.34968800  0.72468800  1
  Mn  Mn11  1  0.65031200  0.37500000  0.77531200  1
  Mn  Mn12  1  0.87500000  0.12500000  0.25000000  1
  Mn  Mn13  1  0.15031200  0.37500000  0.27531200  1
  Mn  Mn14  1  0.37500000  0.12500000  0.25000000  1
  Mn  Mn15  1  0.37500000  0.62500000  0.75000000  1
  Mn  Mn16  1  0.12500000  0.84968800  0.22468800  1
  Mn  Mn17  1  0.37500000  0.12500000  0.75000000  1
  Mn  Mn18  1  0.62500000  0.90031200  0.77531200  1
  Mn  Mn19  1  0.62500000  0.40031200  0.27531200  1
  Mn  Mn20  1  0.77016000  0.27016000  0.04032100  1
  Mn  Mn21  1  0.09968800  0.87500000  0.72468800  1
  Mn  Mn22  1  0.87500000  0.62500000  0.25000000  1
  Mn  Mn23  1  0.87500000  0.12500000  0.75000000  1
  P  P0  1  0.75000000  0.25000000  0.50000000  1
  P  P1  1  0.25000000  0.75000000  0.50000000  1
  P  P2  1  0.50000000  0.50000000  0.00000000  1
  P  P3  1  0.00000000  0.00000000  0.00000000  1
  O  O0  1  0.16895900  0.14452300  0.67337700  1
  O  O1  1  0.08104100  0.25441800  0.47556400  1
  O  O2  1  0.55508900  0.53190300  0.73874200  1
  O  O3  1  0.46809700  0.20683900  0.02318600  1
  O  O4  1  0.69491100  0.93365300  0.47681400  1
  O  O5  1  0.71273100  0.39867700  0.51857000  1
  O  O6  1  0.50441800  0.83104100  0.97556400  1
  O  O7  1  0.30583800  0.61989200  0.51857000  1
  O  O8  1  0.94416200  0.96273100  0.81405400  1
  O  O9  1  0.56634700  0.80508900  0.52318600  1
  O  O10  1  0.18365300  0.44491100  0.97681400  1
  O  O11  1  0.88010800  0.19416200  0.48143000  1
  O  O12  1  0.24558200  0.41895900  0.52443600  1
  O  O13  1  0.89452300  0.72114600  0.47556400  1
  O  O14  1  0.97114600  0.64452300  0.97556400  1
  O  O15  1  0.74558200  0.22114600  0.82662300  1
  O  O16  1  0.05508900  0.31634700  0.02318600  1
  O  O17  1  0.21273100  0.69416200  0.31405400  1
  O  O18  1  0.39452300  0.91895900  0.17337700  1
  O  O19  1  0.35547700  0.33104100  0.32662300  1
  O  O20  1  0.95683900  0.43365300  0.23874200  1
  O  O21  1  0.58104100  0.10547700  0.82662300  1
  O  O22  1  0.29316100  0.03190300  0.97681400  1
  O  O23  1  0.00441800  0.02885400  0.67337700  1
  O  O24  1  0.64867700  0.46273100  0.01857000  1
  O  O25  1  0.79316100  0.81634700  0.26125800  1
  O  O26  1  0.47114600  0.49558200  0.32662300  1
  O  O27  1  0.36989200  0.35132300  0.81405400  1
  O  O28  1  0.86989200  0.05583800  0.01857000  1
  O  O29  1  0.38010800  0.89867700  0.68594600  1
  O  O30  1  0.28190300  0.04316100  0.47681400  1
  O  O31  1  0.68365300  0.70683900  0.73874200  1
  O  O32  1  0.66895900  0.99558200  0.02443600  1
  O  O33  1  0.06634700  0.54316100  0.76125800  1
  O  O34  1  0.77885400  0.60547700  0.52443600  1
  O  O35  1  0.44416200  0.63010800  0.98143000  1
  O  O36  1  0.85547700  0.52885400  0.02443600  1
  O  O37  1  0.14867700  0.13010800  0.18594600  1
  O  O38  1  0.53726900  0.55583800  0.18594600  1
  O  O39  1  0.45683900  0.21809700  0.52318600  1
  O  O40  1  0.60132300  0.11989200  0.31405400  1
  O  O41  1  0.10132300  0.78726900  0.48143000  1
  O  O42  1  0.80583800  0.28726900  0.68594600  1
  O  O43  1  0.27885400  0.75441800  0.17337700  1
  O  O44  1  0.19491100  0.71809700  0.76125800  1
  O  O45  1  0.96809700  0.94491100  0.26125800  1
  O  O46  1  0.78190300  0.30508900  0.23874200  1
  O  O47  1  0.03726900  0.85132300  0.98143000  1
loop_
_geom_bond_atom_site_label_1
_geom_bond_atom_site_label_2
_geom_bond_distance
_geom_bond_site_symmetry_2
Mn0 O0 1.967396 1_665
Mn0 O23 1.967409 1_665
Mn0 O45 1.972007 1_555
Mn0 O25 1.972021 1_555
Mn0 O11 2.296850 1_565
Mn0 O41 2.296850 1_655
Mn1 O34 1.914481 1_555
Mn1 O14 1.914481 1_555
Mn1 O33 2.064907 1_655
Mn1 O31 2.064907 1_555
Mn1 O47 2.201243 1_655
Mn1 O5 2.201243 1_555
Mn2 O4 1.953631 1_555
Mn2 O25 1.953631 1_555
Mn2 O6 2.006452 1_554
Mn2 O18 2.006452 1_555
Mn2 O35 2.297062 1_554
Mn2 O40 2.297063 1_565
Mn3 O14 1.967398 1_454
Mn3 O36 1.967398 1_455
Mn3 O10 1.972019 1_554
Mn3 O16 1.972019 1_555
Mn3 O17 2.296850 1_555
Mn3 O42 2.296850 1_454
Mn4 O43 1.914481 1_555
Mn4 O26 1.914481 1_555
Mn4 O9 2.064907 1_555
Mn4 O10 2.064907 1_554
Mn4 O38 2.201241 1_555
Mn4 O17 2.201241 1_555
Mn5 O18 1.967396 1_556
Mn5 O43 1.967409 1_556
Mn5 O44 1.972007 1_555
Mn5 O33 1.972021 1_555
Mn5 O47 2.296850 1_555
Mn5 O35 2.296850 1_555
Mn6 O12 1.967398 1_555
Mn6 O1 1.967398 1_555
Mn6 O30 1.972019 1_555
Mn6 O39 1.972019 1_555
Mn6 O27 2.296850 1_555
Mn6 O37 2.296850 1_555
Mn7 O13 1.967398 1_555
Mn7 O34 1.967398 1_555
Mn7 O4 1.972019 1_555
Mn7 O9 1.972019 1_555
Mn7 O8 2.296850 1_555
Mn7 O38 2.296850 1_555
Mn8 O32 1.967398 1_545
Mn8 O6 1.967398 1_544
Mn8 O3 1.972019 1_555
Mn8 O22 1.972019 1_554
Mn8 O29 2.296850 1_544
Mn8 O40 2.296850 1_555
Mn9 O19 1.967396 1_555
Mn9 O26 1.967409 1_555
Mn9 O2 1.972007 1_555
Mn9 O31 1.972021 1_555
Mn9 O5 2.296850 1_555
Mn9 O7 2.296850 1_555
Mn10 O33 1.953631 1_555
Mn10 O10 1.953631 1_555
Mn10 O1 2.006452 1_555
Mn10 O0 2.006452 1_555
Mn10 O11 2.297062 1_455
Mn10 O27 2.297063 1_555
Mn11 O2 1.953631 1_555
Mn11 O39 1.953631 1_555
Mn11 O36 2.006452 1_556
Mn11 O15 2.006452 1_555
Mn11 O42 2.297063 1_555
Mn11 O24 2.297074 1_556
Mn12 O1 1.914481 1_655
Mn12 O32 1.914481 1_545
Mn12 O45 2.064907 1_545
Mn12 O46 2.064907 1_555
Mn12 O28 2.201230 1_555
Mn12 O11 2.201230 1_555
Mn13 O20 1.953631 1_455
Mn13 O16 1.953631 1_555
Mn13 O19 2.006452 1_555
Mn13 O12 2.006452 1_555
Mn13 O7 2.297062 1_555
Mn13 O37 2.297063 1_555
Mn14 O19 1.914481 1_555
Mn14 O18 1.914481 1_545
Mn14 O39 2.064907 1_555
Mn14 O22 2.064907 1_554
Mn14 O40 2.201241 1_555
Mn14 O37 2.201241 1_555
Mn15 O6 1.914481 1_555
Mn15 O12 1.914481 1_555
Mn15 O2 2.064907 1_555
Mn15 O44 2.064907 1_555
Mn15 O7 2.201230 1_555
Mn15 O35 2.201230 1_555
Mn16 O30 1.953631 1_565
Mn16 O45 1.953631 1_455
Mn16 O43 2.006452 1_555
Mn16 O14 2.006452 1_454
Mn16 O17 2.297063 1_555
Mn16 O47 2.297074 1_554
Mn17 O21 1.914481 1_555
Mn17 O0 1.914481 1_555
Mn17 O3 2.064907 1_556
Mn17 O30 2.064907 1_555
Mn17 O29 2.201241 1_545
Mn17 O27 2.201241 1_555
Mn18 O31 1.953631 1_555
Mn18 O9 1.953631 1_555
Mn18 O32 2.006452 1_556
Mn18 O21 2.006452 1_565
Mn18 O28 2.297062 1_566
Mn18 O29 2.297063 1_555
Mn19 O3 1.953631 1_555
Mn19 O46 1.953631 1_555
Mn19 O34 2.006452 1_555
Mn19 O26 2.006452 1_555
Mn19 O38 2.297063 1_555
Mn19 O5 2.297074 1_555
Mn20 O21 1.967396 1_554
Mn20 O15 1.967409 1_554
Mn20 O46 1.972007 1_555
Mn20 O20 1.972021 1_555
Mn20 O24 2.296850 1_555
Mn20 O28 2.296850 1_555
Mn21 O44 1.953631 1_555
Mn21 O22 1.953631 1_565
Mn21 O23 2.006452 1_565
Mn21 O13 2.006452 1_455
Mn21 O8 2.297063 1_455
Mn21 O41 2.297074 1_555
Mn22 O36 1.914481 1_555
Mn22 O13 1.914481 1_555
Mn22 O25 2.064907 1_555
Mn22 O20 2.064907 1_555
Mn22 O24 2.201243 1_555
Mn22 O41 2.201243 1_655
Mn23 O15 1.914481 1_555
Mn23 O23 1.914481 1_655
Mn23 O16 2.064907 1_656
Mn23 O4 2.064907 1_545
Mn23 O8 2.201241 1_545
Mn23 O42 2.201241 1_555
O5 P0 1.537044 1_555
O7 P1 1.537054 1_555
O8 P3 1.537048 1_666
O11 P0 1.537054 1_555
O17 P1 1.537048 1_555
O24 P2 1.537044 1_555
O27 P2 1.537048 1_556
O28 P3 1.537054 1_655
O29 P1 1.537048 1_555
O35 P2 1.537054 1_556
O37 P3 1.537048 1_555
O38 P2 1.537048 1_555
O40 P0 1.537048 1_555
O41 P1 1.537044 1_555
O42 P0 1.537048 1_555
O47 P3 1.537044 1_566
