# generated using pymatgen
data_MgMn6(O5F)2
_symmetry_space_group_name_H-M   'P 1'
_cell_length_a   8.13479310
_cell_length_b   5.89912267
_cell_length_c   5.72990629
_cell_angle_alpha   66.87380475
_cell_angle_beta   64.87372080
_cell_angle_gamma   62.86582916
_symmetry_Int_Tables_number   1
_chemical_formula_structural   MgMn6(O5F)2
_chemical_formula_sum   'Mg1 Mn6 O10 F2'
_cell_volume   214.67885368
_cell_formula_units_Z   1
loop_
 _symmetry_equiv_pos_site_id
 _symmetry_equiv_pos_as_xyz
  1  'x, y, z'
loop_
 _atom_site_type_symbol
 _atom_site_label
 _atom_site_symmetry_multiplicity
 _atom_site_fract_x
 _atom_site_fract_y
 _atom_site_fract_z
 _atom_site_occupancy
  Mg  Mg0  1  0.33214081  0.16833199  0.66454425  1
  Mn  Mn0  1  0.85511842  0.68347990  0.67637699  1
  Mn  Mn1  1  0.67011565  0.34461263  0.32691596  1
  Mn  Mn2  1  0.31945238  0.66542810  0.66384305  1
  Mn  Mn3  1  0.11233308  0.31274704  0.31203797  1
  Mn  Mn4  1  0.53681116  0.02334505  0.03469216  1
  Mn  Mn5  1  0.97737519  0.99523386  0.00923626  1
  O  O0  1  0.63670815  0.03383569  0.64794009  1
  O  O1  1  0.30825434  0.33379072  0.94845195  1
  O  O2  1  0.94316982  0.18607342  0.24324713  1
  O  O3  1  0.70402322  0.15352412  0.09422926  1
  O  O4  1  0.04831454  0.79877525  0.75260672  1
  O  O5  1  0.38870107  0.48787310  0.41365771  1
  O  O6  1  0.34624586  0.99940977  0.39596323  1
  O  O7  1  0.69493688  0.65684148  0.04643448  1
  O  O8  1  0.02929579  0.30451635  0.69769012  1
  O  O9  1  0.96971978  0.68671428  0.30027920  1
  F  F0  1  0.27967319  0.85180661  0.92598118  1
  F  F1  1  0.60687168  0.53985364  0.59587429  1
loop_
_geom_bond_atom_site_label_1
_geom_bond_atom_site_label_2
_geom_bond_distance
_geom_bond_site_symmetry_2
Mg0 O5 1.983015 1_555
Mg0 O6 2.079636 1_545
Mg0 O1 2.107756 1_555
Mg0 O8 2.160536 1_555
Mg0 O0 2.200698 1_555
Mn0 O9 1.947132 1_555
Mn0 O7 1.948675 1_556
Mn0 O8 2.015791 1_655
Mn0 O0 2.021562 1_565
Mn0 O4 2.216907 1_655
Mn1 O2 1.895094 1_555
Mn1 O3 1.925891 1_555
Mn1 O7 1.937672 1_555
Mn1 O5 1.949585 1_555
Mn1 O0 2.049241 1_555
Mn2 O5 1.850654 1_555
Mn2 O4 1.876526 1_555
Mn2 O6 2.004318 1_555
Mn2 O1 2.006343 1_555
Mn3 O9 1.957637 1_455
Mn3 O8 2.004910 1_555
Mn3 O1 2.013287 1_554
Mn3 O6 2.034520 1_545
Mn3 O2 2.058501 1_455
Mn4 O7 1.938056 1_545
Mn4 O6 1.988232 1_545
Mn4 O0 1.995974 1_554
Mn4 O1 2.004601 1_554
Mn4 O3 2.027074 1_555
Mn5 O3 1.896667 1_565
Mn5 O2 1.930258 1_565
Mn5 O9 1.930900 1_555
Mn5 O4 1.961220 1_654
Mn5 O8 2.048921 1_664
F0 Mg0 1.974719 1_565
F0 Mn2 2.032133 1_555
F0 Mn5 2.100883 1_456
F1 Mn2 2.010123 1_555
F1 Mn1 2.036338 1_555
