# generated using pymatgen
data_MgMn5O9F
_symmetry_space_group_name_H-M   'P 1'
_cell_length_a   5.28888887
_cell_length_b   5.11162475
_cell_length_c   8.16005535
_cell_angle_alpha   109.11060391
_cell_angle_beta   78.57976349
_cell_angle_gamma   78.50694568
_symmetry_Int_Tables_number   1
_chemical_formula_structural   MgMn5O9F
_chemical_formula_sum   'Mg1 Mn5 O9 F1'
_cell_volume   195.83958651
_cell_formula_units_Z   1
loop_
 _symmetry_equiv_pos_site_id
 _symmetry_equiv_pos_as_xyz
  1  'x, y, z'
loop_
 _atom_site_type_symbol
 _atom_site_label
 _atom_site_symmetry_multiplicity
 _atom_site_fract_x
 _atom_site_fract_y
 _atom_site_fract_z
 _atom_site_occupancy
  Mg  Mg0  1  0.49526500  0.38217000  0.29178000  1
  Mn  Mn0  1  0.99620700  0.19690300  0.40036600  1
  Mn  Mn1  1  0.02074700  0.99346400  0.00130900  1
  Mn  Mn2  1  0.97507100  0.60079000  0.20443400  1
  Mn  Mn3  1  0.98849200  0.80508200  0.59364300  1
  Mn  Mn4  1  0.01012100  0.41488200  0.80055800  1
  O  O0  1  0.20146600  0.21776600  0.17406400  1
  O  O1  1  0.18801300  0.78918200  0.35398700  1
  O  O2  1  0.21123700  0.41048400  0.51987200  1
  O  O3  1  0.17971100  0.60560000  0.98022100  1
  O  O4  1  0.78457200  0.38086200  0.06480700  1
  O  O5  1  0.77937500  0.99970800  0.26306400  1
  O  O6  1  0.76985300  0.55772600  0.41729800  1
  O  O7  1  0.82709700  0.20735100  0.63549100  1
  O  O8  1  0.83813200  0.80340000  0.82995400  1
  F  F0  1  0.24428100  0.03486700  0.75754600  1
loop_
_geom_bond_atom_site_label_1
_geom_bond_atom_site_label_2
_geom_bond_distance
_geom_bond_site_symmetry_2
Mg0 O2 2.090817 1_555
Mg0 O6 2.114229 1_555
Mg0 O5 2.127155 1_545
Mg0 O0 2.150887 1_555
Mg0 O4 2.153407 1_555
Mg0 O1 2.204855 1_555
Mn0 O2 1.916536 1_655
Mn0 O7 1.928282 1_555
Mn0 O6 1.934375 1_555
Mn0 O5 1.953575 1_545
Mn0 O0 1.995285 1_655
Mn0 O1 2.001214 1_645
Mn1 O3 1.929325 1_554
Mn1 O4 1.958627 1_465
Mn1 O8 1.962418 1_454
Mn1 O0 2.031581 1_565
Mn1 O5 2.247720 1_455
Mn2 O4 1.909012 1_555
Mn2 O3 1.943014 1_654
Mn2 O5 1.944797 1_555
Mn2 O6 1.960252 1_555
Mn2 O1 1.972809 1_655
Mn2 O0 1.989720 1_655
Mn3 O8 1.938344 1_555
Mn3 O2 1.948299 1_655
Mn3 O7 1.949037 1_565
Mn3 O1 1.997267 1_655
Mn3 O6 2.248726 1_555
Mn4 O8 1.926339 1_455
Mn4 O3 1.958973 1_555
Mn4 O7 1.966360 1_455
Mn4 O2 2.317302 1_555
Mn4 O4 2.326456 1_456
F0 Mn4 1.962909 1_555
F0 Mn1 2.200723 1_546
F0 Mn3 2.306448 1_445
