# generated using pymatgen
data_Ce(BH4)3
_symmetry_space_group_name_H-M   'P 1'
_cell_length_a   11.35596300
_cell_length_b   11.35596300
_cell_length_c   11.35596300
_cell_angle_alpha   90.00000000
_cell_angle_beta   90.00000000
_cell_angle_gamma   90.00000000
_symmetry_Int_Tables_number   1
_chemical_formula_structural   Ce(BH4)3
_chemical_formula_sum   'Ce8 B24 H96'
_cell_volume   1464.44109164
_cell_formula_units_Z   8
loop_
 _symmetry_equiv_pos_site_id
 _symmetry_equiv_pos_as_xyz
  1  'x, y, z'
loop_
 _atom_site_type_symbol
 _atom_site_label
 _atom_site_symmetry_multiplicity
 _atom_site_fract_x
 _atom_site_fract_y
 _atom_site_fract_z
 _atom_site_occupancy
  Ce  Ce0  1  0.78262900  0.71737100  0.28262900  1
  Ce  Ce1  1  0.71737100  0.21737100  0.28262900  1
  Ce  Ce2  1  0.28262900  0.71737100  0.21737100  1
  Ce  Ce3  1  0.21737100  0.21737100  0.21737100  1
  Ce  Ce4  1  0.21737100  0.28262900  0.71737100  1
  Ce  Ce5  1  0.28262900  0.78262900  0.71737100  1
  Ce  Ce6  1  0.78262900  0.78262900  0.78262900  1
  Ce  Ce7  1  0.71737100  0.28262900  0.78262900  1
  B  B0  1  0.25315700  0.03298500  0.69173600  1
  B  B1  1  0.24684300  0.96701500  0.19173600  1
  B  B2  1  0.25315700  0.46701500  0.19173600  1
  B  B3  1  0.46701500  0.30826400  0.75315700  1
  B  B4  1  0.80826400  0.74684300  0.53298500  1
  B  B5  1  0.03298500  0.80826400  0.75315700  1
  B  B6  1  0.74684300  0.96701500  0.30826400  1
  B  B7  1  0.03298500  0.69173600  0.25315700  1
  B  B8  1  0.75315700  0.46701500  0.30826400  1
  B  B9  1  0.96701500  0.30826400  0.74684300  1
  B  B10  1  0.24684300  0.53298500  0.69173600  1
  B  B11  1  0.53298500  0.80826400  0.74684300  1
  B  B12  1  0.69173600  0.24684300  0.53298500  1
  B  B13  1  0.96701500  0.19173600  0.24684300  1
  B  B14  1  0.19173600  0.25315700  0.46701500  1
  B  B15  1  0.74684300  0.53298500  0.80826400  1
  B  B16  1  0.19173600  0.24684300  0.96701500  1
  B  B17  1  0.53298500  0.69173600  0.24684300  1
  B  B18  1  0.30826400  0.74684300  0.96701500  1
  B  B19  1  0.30826400  0.75315700  0.46701500  1
  B  B20  1  0.69173600  0.25315700  0.03298500  1
  B  B21  1  0.46701500  0.19173600  0.25315700  1
  B  B22  1  0.80826400  0.75315700  0.03298500  1
  B  B23  1  0.75315700  0.03298500  0.80826400  1
  H  H0  1  0.27374900  0.53224900  0.10751200  1
  H  H1  1  0.33473200  0.10392800  0.69938500  1
  H  H2  1  0.91938000  0.32614300  0.84265200  1
  H  H3  1  0.32614300  0.84265200  0.91938000  1
  H  H4  1  0.82614300  0.65734800  0.08062000  1
  H  H5  1  0.74662400  0.52044100  0.21400200  1
  H  H6  1  0.08062000  0.67385700  0.15734800  1
  H  H7  1  0.72625100  0.46775100  0.89248800  1
  H  H8  1  0.72625100  0.03224900  0.39248800  1
  H  H9  1  0.16526800  0.89607200  0.19938500  1
  H  H10  1  0.91938000  0.17385700  0.34265200  1
  H  H11  1  0.69938500  0.16526800  0.60392800  1
  H  H12  1  0.67385700  0.15734800  0.08062000  1
  H  H13  1  0.08062000  0.82614300  0.65734800  1
  H  H14  1  0.41938000  0.32614300  0.65734800  1
  H  H15  1  0.24662400  0.52044100  0.28599800  1
  H  H16  1  0.28599800  0.25337500  0.02044100  1
  H  H17  1  0.10392800  0.69938500  0.33473200  1
  H  H18  1  0.34265200  0.58062000  0.67385700  1
  H  H19  1  0.78599800  0.24662400  0.97955900  1
  H  H20  1  0.28599800  0.24662400  0.52044100  1
  H  H21  1  0.89248800  0.72625100  0.46775100  1
  H  H22  1  0.39248800  0.72625100  0.03224900  1
  H  H23  1  0.80061500  0.83473200  0.10392800  1
  H  H24  1  0.60392800  0.80061500  0.66526800  1
  H  H25  1  0.75337600  0.02044100  0.21400200  1
  H  H26  1  0.47955900  0.78599800  0.25337500  1
  H  H27  1  0.52044100  0.28599800  0.24662400  1
  H  H28  1  0.15734800  0.08062000  0.67385700  1
  H  H29  1  0.16526800  0.60392800  0.69938500  1
  H  H30  1  0.24662400  0.97955900  0.78599800  1
  H  H31  1  0.15734800  0.41938000  0.17385700  1
  H  H32  1  0.53224900  0.39248800  0.77374900  1
  H  H33  1  0.19938500  0.33473200  0.39607200  1
  H  H34  1  0.25337500  0.47955900  0.78599800  1
  H  H35  1  0.69938500  0.33473200  0.10392800  1
  H  H36  1  0.65734800  0.08062000  0.82614300  1
  H  H37  1  0.83473200  0.10392800  0.80061500  1
  H  H38  1  0.96775100  0.89248800  0.77374900  1
  H  H39  1  0.32614300  0.65734800  0.41938000  1
  H  H40  1  0.77374900  0.53224900  0.39248800  1
  H  H41  1  0.75337600  0.47955900  0.71400200  1
  H  H42  1  0.52044100  0.21400200  0.74662400  1
  H  H43  1  0.58062000  0.67385700  0.34265200  1
  H  H44  1  0.66526800  0.89607200  0.30061500  1
  H  H45  1  0.25337500  0.02044100  0.28599800  1
  H  H46  1  0.53224900  0.10751200  0.27374900  1
  H  H47  1  0.46775100  0.89248800  0.72625100  1
  H  H48  1  0.60751200  0.27374900  0.96775100  1
  H  H49  1  0.71400200  0.74662400  0.97955900  1
  H  H50  1  0.89607200  0.19938500  0.16526800  1
  H  H51  1  0.22625100  0.46775100  0.60751200  1
  H  H52  1  0.66526800  0.60392800  0.80061500  1
  H  H53  1  0.03224900  0.10751200  0.22625100  1
  H  H54  1  0.10392800  0.80061500  0.83473200  1
  H  H55  1  0.84265200  0.91938000  0.32614300  1
  H  H56  1  0.60751200  0.22625100  0.46775100  1
  H  H57  1  0.10751200  0.22625100  0.03224900  1
  H  H58  1  0.77374900  0.96775100  0.89248800  1
  H  H59  1  0.71400200  0.75337600  0.47955900  1
  H  H60  1  0.84265200  0.58062000  0.82614300  1
  H  H61  1  0.39607200  0.19938500  0.33473200  1
  H  H62  1  0.80061500  0.66526800  0.60392800  1
  H  H63  1  0.41938000  0.17385700  0.15734800  1
  H  H64  1  0.96775100  0.60751200  0.27374900  1
  H  H65  1  0.02044100  0.28599800  0.25337500  1
  H  H66  1  0.02044100  0.21400200  0.75337600  1
  H  H67  1  0.19938500  0.16526800  0.89607200  1
  H  H68  1  0.39248800  0.77374900  0.53224900  1
  H  H69  1  0.97955900  0.78599800  0.24662400  1
  H  H70  1  0.74662400  0.97955900  0.71400200  1
  H  H71  1  0.65734800  0.41938000  0.32614300  1
  H  H72  1  0.58062000  0.82614300  0.84265200  1
  H  H73  1  0.30061500  0.66526800  0.89607200  1
  H  H74  1  0.10751200  0.27374900  0.53224900  1
  H  H75  1  0.30061500  0.83473200  0.39607200  1
  H  H76  1  0.82614300  0.84265200  0.58062000  1
  H  H77  1  0.78599800  0.25337500  0.47955900  1
  H  H78  1  0.46775100  0.60751200  0.22625100  1
  H  H79  1  0.21400200  0.75337600  0.02044100  1
  H  H80  1  0.97955900  0.71400200  0.74662400  1
  H  H81  1  0.60392800  0.69938500  0.16526800  1
  H  H82  1  0.22625100  0.03224900  0.10751200  1
  H  H83  1  0.21400200  0.74662400  0.52044100  1
  H  H84  1  0.34265200  0.91938000  0.17385700  1
  H  H85  1  0.39607200  0.30061500  0.83473200  1
  H  H86  1  0.89607200  0.30061500  0.66526800  1
  H  H87  1  0.47955900  0.71400200  0.75337600  1
  H  H88  1  0.27374900  0.96775100  0.60751200  1
  H  H89  1  0.83473200  0.39607200  0.30061500  1
  H  H90  1  0.17385700  0.34265200  0.91938000  1
  H  H91  1  0.67385700  0.34265200  0.58062000  1
  H  H92  1  0.89248800  0.77374900  0.96775100  1
  H  H93  1  0.17385700  0.15734800  0.41938000  1
  H  H94  1  0.33473200  0.39607200  0.19938500  1
  H  H95  1  0.03224900  0.39248800  0.72625100  1
loop_
_geom_bond_atom_site_label_1
_geom_bond_atom_site_label_2
_geom_bond_distance
_geom_bond_site_symmetry_2
Ce0 H5 2.403268 1_555
Ce0 H69 2.403268 1_555
Ce0 H59 2.403268 1_555
Ce0 H81 2.436407 1_555
Ce0 H44 2.436407 1_555
Ce0 H23 2.436407 1_555
Ce0 H43 2.443614 1_555
Ce0 H55 2.443614 1_555
Ce0 H4 2.443614 1_555
Ce0 H21 2.446624 1_555
Ce0 H40 2.446624 1_555
Ce0 H64 2.446624 1_555
Ce1 H77 2.403266 1_555
Ce1 H27 2.403268 1_555
Ce1 H25 2.403268 1_555
Ce1 H35 2.436407 1_555
Ce1 H50 2.436407 1_555
Ce1 H89 2.436407 1_555
Ce1 H71 2.443614 1_555
Ce1 H10 2.443614 1_555
Ce1 H12 2.443614 1_555
Ce1 H56 2.446624 1_555
Ce1 H8 2.446624 1_555
Ce1 H46 2.446624 1_555
Ce2 H26 2.403266 1_555
Ce2 H15 2.403268 1_555
Ce2 H79 2.403268 1_555
Ce2 H17 2.436407 1_555
Ce2 H9 2.436407 1_555
Ce2 H75 2.436407 1_555
Ce2 H39 2.443614 1_555
Ce2 H6 2.443614 1_555
Ce2 H84 2.443614 1_555
Ce2 H78 2.446624 1_555
Ce2 H22 2.446624 1_555
Ce2 H0 2.446624 1_555
Ce3 H16 2.403266 1_555
Ce3 H45 2.403266 1_555
Ce3 H65 2.403266 1_555
Ce3 H33 2.436407 1_555
Ce3 H61 2.436407 1_555
Ce3 H94 2.436407 1_555
Ce3 H93 2.443614 1_555
Ce3 H31 2.443614 1_555
Ce3 H63 2.443614 1_555
Ce3 H53 2.446624 1_555
Ce3 H57 2.446624 1_555
Ce3 H82 2.446624 1_555
Ce4 H34 2.403266 1_555
Ce4 H20 2.403268 1_555
Ce4 H66 2.403268 1_555
Ce4 H1 2.436407 1_555
Ce4 H67 2.436407 1_555
Ce4 H85 2.436407 1_555
Ce4 H14 2.443614 1_555
Ce4 H90 2.443614 1_555
Ce4 H28 2.443614 1_555
Ce4 H51 2.446624 1_555
Ce4 H95 2.446624 1_555
Ce4 H74 2.446624 1_555
Ce5 H30 2.403268 1_555
Ce5 H83 2.403268 1_555
Ce5 H87 2.403268 1_555
Ce5 H29 2.436407 1_555
Ce5 H54 2.436407 1_555
Ce5 H73 2.436407 1_555
Ce5 H18 2.443614 1_555
Ce5 H3 2.443614 1_555
Ce5 H13 2.443614 1_555
Ce5 H47 2.446624 1_555
Ce5 H68 2.446624 1_555
Ce5 H88 2.446624 1_555
Ce6 H80 2.403268 1_555
Ce6 H49 2.403268 1_555
Ce6 H70 2.403268 1_555
Ce6 H62 2.436407 1_555
Ce6 H24 2.436407 1_555
Ce6 H52 2.436407 1_555
Ce6 H76 2.443614 1_555
Ce6 H72 2.443614 1_555
Ce6 H60 2.443614 1_555
Ce6 H58 2.446624 1_555
Ce6 H38 2.446624 1_555
Ce6 H92 2.446624 1_555
Ce7 H42 2.403268 1_555
Ce7 H19 2.403268 1_555
Ce7 H41 2.403268 1_555
Ce7 H11 2.436407 1_555
Ce7 H86 2.436407 1_555
Ce7 H37 2.436407 1_555
Ce7 H91 2.443614 1_555
Ce7 H2 2.443614 1_555
Ce7 H36 2.443614 1_555
Ce7 H7 2.446624 1_555
Ce7 H32 2.446624 1_555
Ce7 H48 2.446624 1_555
B0 H1 1.230742 1_555
B0 H28 1.231906 1_555
B0 H88 1.232171 1_545
B0 H30 1.232650 1_545
B1 H9 1.230742 1_555
B1 H84 1.231906 1_555
B1 H82 1.232171 1_565
B1 H45 1.232649 1_565
B2 H94 1.230742 1_555
B2 H31 1.231906 1_555
B2 H0 1.232171 1_555
B2 H15 1.232650 1_555
B3 H85 1.230742 1_555
B3 H14 1.231906 1_555
B3 H32 1.232171 1_555
B3 H42 1.232650 1_555
B4 H62 1.230742 1_555
B4 H76 1.231906 1_555
B4 H21 1.232171 1_555
B4 H59 1.232650 1_555
B5 H54 1.230742 1_555
B5 H13 1.231906 1_555
B5 H38 1.232171 1_455
B5 H80 1.232650 1_455
B6 H44 1.230742 1_555
B6 H55 1.231906 1_555
B6 H8 1.232171 1_565
B6 H25 1.232650 1_565
B7 H17 1.230742 1_555
B7 H6 1.231906 1_555
B7 H64 1.232171 1_455
B7 H69 1.232650 1_455
B8 H89 1.230742 1_555
B8 H71 1.231906 1_555
B8 H40 1.232171 1_555
B8 H5 1.232650 1_555
B9 H86 1.230742 1_555
B9 H2 1.231906 1_555
B9 H95 1.232171 1_655
B9 H66 1.232650 1_655
B10 H29 1.230742 1_555
B10 H18 1.231906 1_555
B10 H51 1.232171 1_555
B10 H34 1.232649 1_555
B11 H24 1.230742 1_555
B11 H72 1.231906 1_555
B11 H47 1.232171 1_555
B11 H87 1.232650 1_555
B12 H11 1.230742 1_555
B12 H91 1.231906 1_555
B12 H56 1.232171 1_555
B12 H77 1.232649 1_555
B13 H50 1.230742 1_555
B13 H10 1.231906 1_555
B13 H53 1.232171 1_655
B13 H65 1.232649 1_655
B14 H33 1.230742 1_555
B14 H93 1.231906 1_555
B14 H74 1.232171 1_555
B14 H20 1.232650 1_555
B15 H52 1.230742 1_555
B15 H60 1.231906 1_555
B15 H7 1.232171 1_555
B15 H41 1.232650 1_555
B16 H67 1.230742 1_555
B16 H90 1.231906 1_555
B16 H57 1.232171 1_556
B16 H16 1.232649 1_556
B17 H81 1.230742 1_555
B17 H43 1.231906 1_555
B17 H78 1.232171 1_555
B17 H26 1.232649 1_555
B18 H73 1.230742 1_555
B18 H3 1.231906 1_555
B18 H22 1.232171 1_556
B18 H79 1.232650 1_556
B19 H75 1.230742 1_555
B19 H39 1.231906 1_555
B19 H68 1.232171 1_555
B19 H83 1.232650 1_555
B20 H35 1.230742 1_555
B20 H12 1.231906 1_555
B20 H48 1.232171 1_554
B20 H19 1.232650 1_554
B21 H61 1.230742 1_555
B21 H63 1.231906 1_555
B21 H46 1.232171 1_555
B21 H27 1.232650 1_555
B22 H23 1.230742 1_555
B22 H4 1.231906 1_555
B22 H92 1.232171 1_554
B22 H49 1.232650 1_554
B23 H37 1.230742 1_555
B23 H36 1.231906 1_555
B23 H58 1.232171 1_545
B23 H70 1.232650 1_545
