# generated using pymatgen
data_Na14Hf4Al4Si9(SO16)3
_symmetry_space_group_name_H-M   'P 1'
_cell_length_a   17.93444353
_cell_length_b   8.96489845
_cell_length_c   22.25647097
_cell_angle_alpha   90.19586146
_cell_angle_beta   90.28986049
_cell_angle_gamma   119.99717179
_symmetry_Int_Tables_number   1
_chemical_formula_structural   Na14Hf4Al4Si9(SO16)3
_chemical_formula_sum   'Na42 Hf12 Al12 Si27 S9 O144'
_cell_volume   3098.96585929
_cell_formula_units_Z   3
loop_
 _symmetry_equiv_pos_site_id
 _symmetry_equiv_pos_as_xyz
  1  'x, y, z'
loop_
 _atom_site_type_symbol
 _atom_site_label
 _atom_site_symmetry_multiplicity
 _atom_site_fract_x
 _atom_site_fract_y
 _atom_site_fract_z
 _atom_site_occupancy
  Na  Na0  1  0.81764164  0.00355964  0.25326611  1
  Na  Na1  1  0.17612872  0.35881053  0.25246410  1
  Na  Na2  1  0.68979087  0.36936689  0.25244552  1
  Na  Na3  1  0.99637557  0.63007342  0.24652014  1
  Na  Na4  1  0.50465952  0.64743382  0.25128940  1
  Na  Na5  1  0.31746433  0.63078801  0.75086882  1
  Na  Na6  1  0.00250620  0.35913115  0.74686522  1
  Na  Na7  1  0.49733933  0.36353974  0.74422117  1
  Na  Na8  1  0.18857914  0.01045403  0.74956827  1
  Na  Na9  1  0.67995867  0.99719262  0.74941527  1
  Na  Na10  1  0.14851100  0.32668198  0.58297399  1
  Na  Na11  1  0.65048372  0.33360307  0.58256400  1
  Na  Na12  1  0.33484656  0.98170526  0.58543074  1
  Na  Na13  1  0.83272163  0.96850023  0.58241399  1
  Na  Na14  1  0.14385686  0.96313487  0.08174236  1
  Na  Na15  1  0.65119767  0.97292095  0.08141210  1
  Na  Na16  1  0.33284430  0.68843476  0.08245920  1
  Na  Na17  1  0.83482603  0.68832354  0.08541994  1
  Na  Na18  1  0.48308311  0.67862162  0.91491542  1
  Na  Na19  1  0.98376732  0.67417212  0.92012929  1
  Na  Na20  1  0.34683969  0.02423177  0.91081969  1
  Na  Na21  1  0.84610980  0.02515748  0.91261964  1
  Na  Na22  1  0.16924483  0.29751036  0.91191728  1
  Na  Na23  1  0.66857669  0.29738464  0.91261879  1
  Na  Na24  1  0.48579164  0.29733499  0.42279552  1
  Na  Na25  1  0.98033329  0.28655198  0.41851171  1
  Na  Na26  1  0.16800119  0.03953430  0.41517405  1
  Na  Na27  1  0.67307659  0.04540256  0.41648225  1
  Na  Na28  1  0.34639317  0.66650764  0.41531265  1
  Na  Na29  1  0.84595621  0.66637913  0.41795472  1
  Na  Na30  1  0.99846855  0.99734392  0.49942709  1
  Na  Na31  1  0.50427926  0.01057287  0.50001946  1
  Na  Na32  1  0.00220831  0.99616417  0.99886547  1
  Na  Na33  1  0.50323822  0.99967606  0.99590872  1
  Na  Na34  1  0.33043406  0.33401118  0.82863116  1
  Na  Na35  1  0.82653274  0.33029527  0.83287947  1
  Na  Na36  1  0.32688244  0.32138890  0.33701714  1
  Na  Na37  1  0.82997628  0.32637479  0.33296877  1
  Na  Na38  1  0.15974715  0.65570896  0.16903294  1
  Na  Na39  1  0.66532442  0.66101396  0.16958449  1
  Na  Na40  1  0.16350183  0.66750188  0.66849285  1
  Na  Na41  1  0.66487850  0.66446157  0.66526050  1
  Hf  Hf0  1  0.99920913  0.00573242  0.64335113  1
  Hf  Hf1  1  0.50250446  0.00500027  0.64868775  1
  Hf  Hf2  1  0.00149512  0.99953390  0.14946534  1
  Hf  Hf3  1  0.50461405  0.99202980  0.14739041  1
  Hf  Hf4  1  0.82925448  0.32831645  0.68457269  1
  Hf  Hf5  1  0.33107421  0.34194414  0.18824088  1
  Hf  Hf6  1  0.16255889  0.66436132  0.01794911  1
  Hf  Hf7  1  0.66756874  0.66680895  0.01895484  1
  Hf  Hf8  1  0.16658267  0.66795698  0.51940524  1
  Hf  Hf9  1  0.66779208  0.65968309  0.52097404  1
  Hf  Hf10  1  0.17463458  0.67324643  0.31241040  1
  Hf  Hf11  1  0.67574404  0.67778692  0.81084142  1
  Al  Al0  1  0.99694903  0.01401235  0.34742766  1
  Al  Al1  1  0.50386024  0.00291425  0.35212347  1
  Al  Al2  1  0.00329200  0.99920966  0.84913623  1
  Al  Al3  1  0.49785593  0.98206553  0.84572138  1
  Al  Al4  1  0.33605413  0.31763534  0.69079870  1
  Al  Al5  1  0.83605495  0.35392328  0.19109357  1
  Al  Al6  1  0.32331721  0.34774215  0.97892196  1
  Al  Al7  1  0.82306973  0.34659983  0.98236487  1
  Al  Al8  1  0.32379587  0.30085626  0.48268090  1
  Al  Al9  1  0.82549406  0.32001890  0.48472659  1
  Al  Al10  1  0.68658588  0.68877537  0.31651965  1
  Al  Al11  1  0.18531697  0.68287930  0.81456348  1
  Si  Si0  1  0.14384326  0.99870977  0.25431420  1
  Si  Si1  1  0.64850460  0.99583461  0.25486259  1
  Si  Si2  1  0.35963585  0.72142352  0.25264260  1
  Si  Si3  1  0.85435323  0.71036713  0.25305781  1
  Si  Si4  1  0.99508109  0.29090094  0.25014936  1
  Si  Si5  1  0.14672609  0.29785248  0.75360044  1
  Si  Si6  1  0.64427436  0.28738052  0.75504399  1
  Si  Si7  1  0.49514033  0.69980371  0.75016802  1
  Si  Si8  1  0.35455658  0.99857869  0.75295810  1
  Si  Si9  1  0.86041429  0.00470696  0.75327500  1
  Si  Si10  1  0.47182625  0.33678806  0.58327782  1
  Si  Si11  1  0.97718510  0.34142027  0.58097720  1
  Si  Si12  1  0.19293377  0.05101890  0.58543080  1
  Si  Si13  1  0.68482379  0.03873473  0.58005496  1
  Si  Si14  1  0.83683427  0.61834736  0.57853374  1
  Si  Si15  1  0.47705864  0.61334157  0.08031564  1
  Si  Si16  1  0.97231398  0.60742593  0.08335750  1
  Si  Si17  1  0.18508248  0.33192078  0.08036932  1
  Si  Si18  1  0.69152459  0.33442312  0.08555677  1
  Si  Si19  1  0.31670545  0.67251732  0.91577782  1
  Si  Si20  1  0.81985587  0.67102206  0.91679204  1
  Si  Si21  1  0.16760866  0.96312590  0.91304711  1
  Si  Si22  1  0.66812092  0.97343233  0.91797037  1
  Si  Si23  1  0.32001337  0.96873981  0.41693891  1
  Si  Si24  1  0.81728747  0.96745975  0.41584665  1
  Si  Si25  1  0.16793863  0.36269051  0.41742755  1
  Si  Si26  1  0.66600814  0.37091176  0.41173987  1
  S  S0  1  0.50020504  0.28846618  0.25260304  1
  S  S1  1  0.00132779  0.71152456  0.75340909  1
  S  S2  1  0.33484233  0.61645750  0.58180179  1
  S  S3  1  0.33508446  0.04901076  0.08116555  1
  S  S4  1  0.83499150  0.05330110  0.08209431  1
  S  S5  1  0.01916390  0.37193097  0.91404301  1
  S  S6  1  0.51747733  0.36952196  0.91695108  1
  S  S7  1  0.01850563  0.66621405  0.41560181  1
  S  S8  1  0.52055082  0.66760156  0.41421009  1
  O  O0  1  0.09719477  0.03337314  0.31076176  1
  O  O1  1  0.59882917  0.03274359  0.30881479  1
  O  O2  1  0.42206604  0.81237671  0.30993014  1
  O  O3  1  0.91934002  0.80469106  0.30960201  1
  O  O4  1  0.48666122  0.18233802  0.30584738  1
  O  O5  1  0.97956197  0.17174144  0.30904068  1
  O  O6  1  0.10022068  0.16675733  0.81031234  1
  O  O7  1  0.59592562  0.16164638  0.81194457  1
  O  O8  1  0.47863349  0.78519391  0.81016393  1
  O  O9  1  0.98807719  0.79277246  0.80741891  1
  O  O10  1  0.41776885  0.03227799  0.81079134  1
  O  O11  1  0.92099889  0.03087744  0.81180826  1
  O  O12  1  0.39203939  0.95580837  0.69206042  1
  O  O13  1  0.89912098  0.97196933  0.69208958  1
  O  O14  1  0.08578590  0.21295344  0.69351443  1
  O  O15  1  0.58785023  0.20953781  0.69259412  1
  O  O16  1  0.01610168  0.81861001  0.69935896  1
  O  O17  1  0.51833734  0.83179554  0.69412496  1
  O  O18  1  0.39744286  0.82683121  0.19002044  1
  O  O19  1  0.89196703  0.82725141  0.19143570  1
  O  O20  1  0.01909793  0.20672134  0.19321468  1
  O  O21  1  0.51384440  0.20934736  0.19774881  1
  O  O22  1  0.08880845  0.96702189  0.19108514  1
  O  O23  1  0.58677850  0.95769655  0.19323597  1
  O  O24  1  0.42808464  0.35730156  0.64429315  1
  O  O25  1  0.93842205  0.36690197  0.64422859  1
  O  O26  1  0.25275611  0.14100314  0.64459068  1
  O  O27  1  0.74424482  0.11992838  0.64169740  1
  O  O28  1  0.31969925  0.51323990  0.63700977  1
  O  O29  1  0.81629465  0.50033652  0.63894389  1
  O  O30  1  0.43676673  0.50663769  0.14251684  1
  O  O31  1  0.92889644  0.49918873  0.14393581  1
  O  O32  1  0.32074411  0.12628229  0.13546088  1
  O  O33  1  0.81984632  0.12644781  0.13694399  1
  O  O34  1  0.24586734  0.36553353  0.14082653  1
  O  O35  1  0.75122938  0.36122601  0.14433917  1
  O  O36  1  0.23205848  0.29785399  0.02358054  1
  O  O37  1  0.72956153  0.29516815  0.02479619  1
  O  O38  1  0.41382564  0.51732374  0.02262451  1
  O  O39  1  0.91478400  0.51705684  0.02263599  1
  O  O40  1  0.34616510  0.15145269  0.02646211  1
  O  O41  1  0.84521578  0.15202960  0.02727599  1
  O  O42  1  0.23059632  0.16405658  0.52434676  1
  O  O43  1  0.72998221  0.16323179  0.52275365  1
  O  O44  1  0.34494823  0.53729211  0.52717351  1
  O  O45  1  0.84729764  0.52535658  0.51931879  1
  O  O46  1  0.41362984  0.30900086  0.52262134  1
  O  O47  1  0.91574306  0.30721951  0.52266965  1
  O  O48  1  0.27174341  0.70352734  0.97559705  1
  O  O49  1  0.77589611  0.70801436  0.97613140  1
  O  O50  1  0.07584764  0.45354933  0.96854102  1
  O  O51  1  0.57541817  0.45556538  0.97001182  1
  O  O52  1  0.14750447  0.84211930  0.97372585  1
  O  O53  1  0.64855010  0.84260812  0.97563239  1
  O  O54  1  0.27570520  0.84293392  0.47543470  1
  O  O55  1  0.77131648  0.84007540  0.47333335  1
  O  O56  1  0.14900305  0.45630694  0.47457875  1
  O  O57  1  0.64321044  0.44911725  0.47138121  1
  O  O58  1  0.07629511  0.69716434  0.46895988  1
  O  O59  1  0.57561217  0.69916241  0.46773253  1
  O  O60  1  0.05901013  0.63661529  0.36226973  1
  O  O61  1  0.55914148  0.63490821  0.36014561  1
  O  O62  1  0.25055967  0.87816593  0.36192361  1
  O  O63  1  0.75214825  0.87937787  0.35813117  1
  O  O64  1  0.18626312  0.49054433  0.35952860  1
  O  O65  1  0.67899152  0.50127429  0.35530282  1
  O  O66  1  0.05932826  0.48452840  0.86147974  1
  O  O67  1  0.55546877  0.47996157  0.86363351  1
  O  O68  1  0.18145363  0.85865124  0.85752588  1
  O  O69  1  0.68589390  0.88003961  0.86080066  1
  O  O70  1  0.25003347  0.62735849  0.85971113  1
  O  O71  1  0.74938919  0.62177892  0.86288002  1
  O  O72  1  0.01198183  0.82301732  0.41142506  1
  O  O73  1  0.51239685  0.82575502  0.40929151  1
  O  O74  1  0.41333264  0.98125922  0.40619887  1
  O  O75  1  0.91085779  0.97634772  0.40760981  1
  O  O76  1  0.08120270  0.17314288  0.40940517  1
  O  O77  1  0.57959956  0.17681010  0.40489339  1
  O  O78  1  0.01304254  0.20076100  0.91061997  1
  O  O79  1  0.51055132  0.20049103  0.91281805  1
  O  O80  1  0.08156778  0.98418799  0.90637021  1
  O  O81  1  0.58138989  0.98969770  0.91046185  1
  O  O82  1  0.41090346  0.84673279  0.90902604  1
  O  O83  1  0.91395123  0.84470459  0.90703624  1
  O  O84  1  0.48069959  0.15881356  0.58608665  1
  O  O85  1  0.98696221  0.16631508  0.58521760  1
  O  O86  1  0.09734808  0.02943539  0.59014023  1
  O  O87  1  0.59140676  0.02877346  0.58517567  1
  O  O88  1  0.40909471  0.79465978  0.58623588  1
  O  O89  1  0.91802255  0.81426994  0.58533689  1
  O  O90  1  0.48327539  0.80633878  0.08481535  1
  O  O91  1  0.98232089  0.80387329  0.08549062  1
  O  O92  1  0.41030704  0.02423971  0.08719758  1
  O  O93  1  0.90939681  0.02299753  0.08617886  1
  O  O94  1  0.09173988  0.15685544  0.08467096  1
  O  O95  1  0.59397119  0.16416801  0.08968305  1
  O  O96  1  0.34446393  0.17024303  0.74721045  1
  O  O97  1  0.85139954  0.17936055  0.75037310  1
  O  O98  1  0.24208273  0.31812415  0.74332938  1
  O  O99  1  0.73890606  0.30203476  0.74977890  1
  O  O100  1  0.40885302  0.51073248  0.74156624  1
  O  O101  1  0.92417696  0.53753278  0.74845015  1
  O  O102  1  0.35153543  0.52724400  0.24819884  1
  O  O103  1  0.84420185  0.51867449  0.24624854  1
  O  O104  1  0.42252679  0.30773637  0.24604921  1
  O  O105  1  0.90888981  0.30679197  0.24091638  1
  O  O106  1  0.23983633  0.17196910  0.24636919  1
  O  O107  1  0.74208765  0.16638932  0.24231990  1
  O  O108  1  0.32509584  0.49732226  0.92222245  1
  O  O109  1  0.82798487  0.49720382  0.92369502  1
  O  O110  1  0.43102091  0.35189908  0.92537067  1
  O  O111  1  0.93334203  0.35227972  0.92258031  1
  O  O112  1  0.25722493  0.15224193  0.92426020  1
  O  O113  1  0.75878764  0.15902506  0.92754625  1
  O  O114  1  0.32798538  0.15895448  0.42308740  1
  O  O115  1  0.82664484  0.15966494  0.42328517  1
  O  O116  1  0.25862370  0.35811689  0.42659007  1
  O  O117  1  0.75404117  0.35827134  0.41991003  1
  O  O118  1  0.43309312  0.51496961  0.42126351  1
  O  O119  1  0.93384322  0.51065717  0.42164214  1
  O  O120  1  0.18305694  0.51155004  0.07665135  1
  O  O121  1  0.68458597  0.51050626  0.07851846  1
  O  O122  1  0.07380392  0.65000611  0.07851829  1
  O  O123  1  0.57688449  0.65511709  0.07797888  1
  O  O124  1  0.25583296  0.87356108  0.07729224  1
  O  O125  1  0.75524633  0.87368474  0.07780055  1
  O  O126  1  0.18604834  0.86073289  0.57834810  1
  O  O127  1  0.67936038  0.85334857  0.57568916  1
  O  O128  1  0.25506120  0.63619240  0.57766428  1
  O  O129  1  0.74962547  0.63872363  0.57667448  1
  O  O130  1  0.07750572  0.50254957  0.57805010  1
  O  O131  1  0.57102976  0.49636386  0.57811986  1
  O  O132  1  0.14893413  0.82305918  0.25695645  1
  O  O133  1  0.65236617  0.81496165  0.26153766  1
  O  O134  1  0.26010105  0.68036705  0.25392092  1
  O  O135  1  0.75685342  0.68639780  0.25764587  1
  O  O136  1  0.08090039  0.48210242  0.25763106  1
  O  O137  1  0.57668976  0.46403724  0.25724662  1
  O  O138  1  0.15225905  0.48873284  0.76261979  1
  O  O139  1  0.64809666  0.47255000  0.75852411  1
  O  O140  1  0.07845615  0.69097153  0.75951140  1
  O  O141  1  0.58072620  0.67997302  0.75869472  1
  O  O142  1  0.25703310  0.82793017  0.75799049  1
  O  O143  1  0.76118859  0.84121367  0.75470960  1
loop_
_geom_bond_atom_site_label_1
_geom_bond_atom_site_label_2
_geom_bond_distance
_geom_bond_site_symmetry_2
Na0 O105 2.388499 1_555
Na0 O107 2.450146 1_555
Na0 O135 2.487161 1_545
Na0 O133 2.583611 1_545
Na0 O63 2.608491 1_545
Na0 O5 2.796399 1_555
Na0 O33 2.809759 1_555
Na0 O19 2.877365 1_545
Na1 O136 2.457719 1_555
Na1 O106 2.458287 1_555
Na1 O134 2.497405 1_555
Na1 O64 2.620611 1_555
Na1 O102 2.727549 1_555
Na1 O20 2.764031 1_555
Na1 O34 2.774628 1_555
Na1 O0 2.848525 1_555
Na2 O103 2.403800 1_555
Na2 O107 2.438763 1_555
Na2 O135 2.473068 1_555
Na2 O137 2.563027 1_555
Na2 O65 2.625170 1_555
Na2 O35 2.667325 1_555
Na2 O1 2.909689 1_555
Na2 O21 2.986626 1_555
Na3 O103 2.391681 1_555
Na3 O132 2.406401 1_655
Na3 O136 2.475488 1_655
Na3 O105 2.515051 1_555
Na3 O31 2.566721 1_555
Na3 O60 2.793883 1_655
Na3 O22 2.904146 1_655
Na3 O3 2.915084 1_555
Na4 O133 2.310500 1_555
Na4 O102 2.397111 1_555
Na4 O137 2.552069 1_555
Na4 O61 2.631483 1_555
Na4 O104 2.639681 1_555
Na4 O30 2.710911 1_555
Na4 O23 2.742769 1_555
Na4 O2 2.877604 1_555
Na5 O100 2.377686 1_555
Na5 O98 2.432701 1_555
Na5 O142 2.497685 1_555
Na5 O138 2.589594 1_555
Na5 O70 2.706409 1_555
Na5 O28 2.749325 1_555
Na5 O8 2.821478 1_555
Na5 O12 2.852907 1_555
Na6 O138 2.356595 1_555
Na6 O97 2.362933 1_455
Na6 O25 2.568758 1_455
Na6 O140 2.592925 1_555
Na6 O101 2.603707 1_455
Na6 O14 2.706000 1_555
Na6 O66 2.760075 1_555
Na6 O11 2.938535 1_455
Na7 O139 2.390345 1_555
Na7 O96 2.403405 1_555
Na7 O141 2.476791 1_555
Na7 O100 2.521243 1_555
Na7 O24 2.528621 1_555
Na7 O67 2.846847 1_555
Na7 O15 2.847856 1_555
Na7 O10 2.977387 1_555
Na8 O96 2.422453 1_555
Na8 O98 2.430099 1_555
Na8 O142 2.495659 1_545
Na8 O140 2.550570 1_545
Na8 O26 2.617702 1_555
Na8 O68 2.737365 1_545
Na8 O16 2.899557 1_545
Na8 O6 2.920860 1_555
Na9 O99 2.386877 1_565
Na9 O143 2.475452 1_555
Na9 O141 2.498877 1_555
Na9 O27 2.658024 1_565
Na9 O97 2.664484 1_565
Na9 O69 2.717898 1_555
Na9 O17 2.787217 1_555
Na9 O7 2.934382 1_565
Na10 O86 2.351152 1_555
Na10 O128 2.463209 1_555
Na10 O130 2.475234 1_555
Na10 O85 2.510106 1_455
Na10 O56 2.679507 1_555
Na10 O14 2.693712 1_555
Na10 O42 2.854452 1_555
Na10 O28 2.912731 1_555
Na11 O87 2.387575 1_555
Na11 O129 2.408841 1_555
Na11 O131 2.499594 1_555
Na11 O84 2.639268 1_555
Na11 O15 2.700569 1_555
Na11 O57 2.713316 1_555
Na11 O29 2.855997 1_555
Na11 O43 2.884511 1_555
Na12 O84 2.282570 1_565
Na12 O126 2.328775 1_555
Na12 O88 2.611118 1_555
Na12 O12 2.637297 1_555
Na12 O128 2.689573 1_555
Na12 O54 2.701760 1_555
Na12 O26 2.837200 1_565
Na12 O46 2.909039 1_565
Na13 O127 2.410131 1_555
Na13 O85 2.427572 1_565
Na13 O89 2.524083 1_555
Na13 O129 2.562737 1_555
Na13 O55 2.668020 1_555
Na13 O13 2.703800 1_555
Na13 O27 2.874818 1_565
Na13 O47 2.955100 1_565
Na14 O94 2.348815 1_565
Na14 O122 2.436181 1_555
Na14 O124 2.510301 1_555
Na14 O91 2.511118 1_455
Na14 O22 2.637492 1_555
Na14 O52 2.648685 1_554
Na15 O95 2.405416 1_565
Na15 O125 2.437436 1_555
Na15 O123 2.469819 1_555
Na15 O90 2.609909 1_555
Na15 O53 2.614247 1_554
Na15 O23 2.724205 1_555
Na15 O37 2.809238 1_565
Na15 O33 2.891053 1_565
Na16 O120 2.341660 1_555
Na16 O90 2.354869 1_555
Na16 O92 2.611210 1_565
Na16 O124 2.639496 1_555
Na16 O48 2.645724 1_554
Na16 O18 2.669613 1_555
Na16 O34 2.834005 1_555
Na16 O38 2.910195 1_555
Na17 O91 2.308757 1_555
Na17 O121 2.350358 1_555
Na17 O93 2.603456 1_565
Na17 O19 2.616872 1_555
Na17 O125 2.682918 1_555
Na17 O49 2.688509 1_554
Na17 O35 2.866437 1_555
Na17 O39 2.928059 1_555
Na18 O82 2.432011 1_555
Na18 O81 2.445966 1_555
Na18 O108 2.469415 1_555
Na18 O8 2.538539 1_555
Na18 O110 2.603350 1_555
Na18 O38 2.763755 1_556
Na18 O53 2.894363 1_555
Na18 O67 2.910806 1_555
Na19 O109 2.428993 1_555
Na19 O83 2.429687 1_555
Na19 O80 2.455896 1_655
Na19 O111 2.557414 1_555
Na19 O39 2.650959 1_556
Na19 O9 2.714263 1_555
Na19 O52 2.800789 1_655
Na19 O66 2.955880 1_655
Na20 O82 2.383681 1_545
Na20 O112 2.415843 1_555
Na20 O79 2.545300 1_555
Na20 O10 2.552977 1_555
Na20 O110 2.562652 1_555
Na20 O40 2.814141 1_556
Na20 O68 2.820992 1_545
Na20 O48 2.886982 1_545
Na21 O113 2.425913 1_555
Na21 O83 2.466004 1_545
Na21 O111 2.549785 1_555
Na21 O78 2.594711 1_655
Na21 O11 2.608286 1_555
Na21 O69 2.738123 1_545
Na21 O41 2.793680 1_556
Na21 O49 2.851826 1_545
Na22 O80 2.440688 1_545
Na22 O108 2.461344 1_555
Na22 O78 2.484030 1_555
Na22 O112 2.512759 1_555
Na22 O6 2.553985 1_555
Na22 O36 2.722792 1_556
Na22 O70 2.819569 1_555
Na22 O50 2.950090 1_555
Na23 O81 2.396150 1_545
Na23 O113 2.504089 1_555
Na23 O109 2.512371 1_555
Na23 O79 2.514998 1_555
Na23 O7 2.562310 1_555
Na23 O37 2.724785 1_556
Na23 O71 2.758106 1_555
Na23 O51 2.968542 1_555
Na24 O77 2.445028 1_555
Na24 O114 2.457321 1_555
Na24 O74 2.482018 1_545
Na24 O118 2.558332 1_555
Na24 O46 2.604794 1_555
Na24 O57 2.666309 1_555
Na24 O4 2.799296 1_555
Na24 O61 2.983285 1_555
Na25 O115 2.402334 1_555
Na25 O75 2.423351 1_545
Na25 O76 2.487723 1_655
Na25 O119 2.532003 1_555
Na25 O5 2.638956 1_555
Na25 O47 2.643679 1_555
Na25 O56 2.892993 1_655
Na25 O60 3.003929 1_655
Na26 O76 2.395388 1_555
Na26 O72 2.483912 1_545
Na26 O116 2.492494 1_555
Na26 O114 2.516295 1_555
Na26 O0 2.629645 1_555
Na26 O42 2.666670 1_555
Na26 O62 2.799560 1_545
Na26 O58 2.925080 1_545
Na27 O115 2.414820 1_555
Na27 O117 2.430305 1_555
Na27 O77 2.497468 1_555
Na27 O73 2.554701 1_545
Na27 O43 2.575309 1_555
Na27 O1 2.709796 1_555
Na27 O63 2.833527 1_545
Na27 O59 2.934362 1_545
Na28 O116 2.416924 1_555
Na28 O74 2.462440 1_555
Na28 O118 2.528288 1_555
Na28 O73 2.583621 1_555
Na28 O2 2.707697 1_555
Na28 O44 2.744298 1_555
Na28 O64 2.774534 1_555
Na28 O54 2.811932 1_555
Na29 O117 2.407788 1_555
Na29 O75 2.429537 1_555
Na29 O119 2.576777 1_555
Na29 O72 2.585319 1_655
Na29 O45 2.595735 1_555
Na29 O3 2.739701 1_555
Na29 O55 2.797084 1_555
Na29 O65 2.934893 1_555
Na30 O89 2.472408 1_555
Na30 O85 2.505953 1_565
Na30 O75 2.519805 1_555
Na30 O76 2.532420 1_665
Na30 O72 2.588419 1_655
Na30 O86 2.598725 1_665
Na31 O87 2.402779 1_555
Na31 O84 2.483357 1_555
Na31 O77 2.562359 1_555
Na31 O74 2.573497 1_545
Na31 O73 2.658049 1_545
Na31 O88 2.664100 1_545
Na32 O94 2.436765 1_566
Na32 O91 2.496174 1_456
Na32 O83 2.515040 1_455
Na32 O80 2.540877 1_555
Na32 O78 2.632786 1_565
Na32 O93 2.652317 1_466
Na33 O81 2.395896 1_555
Na33 O82 2.457753 1_555
Na33 O90 2.541240 1_556
Na33 O79 2.543084 1_565
Na33 O95 2.592997 1_566
Na33 O92 2.711558 1_566
Na34 O96 2.420428 1_555
Na34 O98 2.424345 1_555
Na34 O100 2.462407 1_555
Na34 O108 2.571560 1_555
Na34 O112 2.611869 1_555
Na34 O110 2.754061 1_555
Na35 O99 2.350303 1_555
Na35 O97 2.448777 1_555
Na35 O109 2.502970 1_555
Na35 O113 2.540785 1_555
Na35 O101 2.617883 1_555
Na35 O111 2.697231 1_555
Na36 O114 2.416200 1_555
Na36 O116 2.450436 1_555
Na36 O106 2.482022 1_555
Na36 O102 2.593610 1_555
Na36 O118 2.606151 1_555
Na36 O104 2.701816 1_555
Na37 O117 2.468386 1_555
Na37 O115 2.492043 1_555
Na37 O107 2.509883 1_555
Na37 O103 2.519972 1_555
Na37 O105 2.550795 1_555
Na37 O119 2.637722 1_555
Na38 O136 2.481685 1_555
Na38 O122 2.515114 1_555
Na38 O132 2.528330 1_555
Na38 O134 2.534268 1_555
Na38 O120 2.569677 1_555
Na38 O124 2.765960 1_555
Na39 O135 2.485680 1_555
Na39 O133 2.540344 1_555
Na39 O121 2.549963 1_555
Na39 O123 2.560869 1_555
Na39 O137 2.588416 1_555
Na39 O125 2.719244 1_555
Na40 O130 2.507008 1_555
Na40 O142 2.526703 1_555
Na40 O126 2.553659 1_555
Na40 O138 2.588820 1_555
Na40 O140 2.612194 1_555
Na40 O128 2.711512 1_555
Na41 O131 2.505216 1_555
Na41 O127 2.549051 1_555
Na41 O129 2.574575 1_555
Na41 O143 2.581584 1_555
Na41 O141 2.619373 1_555
Na41 O139 2.621482 1_555
Hf0 O13 1.992254 1_545
Hf0 O85 2.029971 1_555
Hf0 O14 2.047565 1_655
Hf0 O86 2.048015 1_655
Hf0 O89 2.049446 1_545
Hf0 O16 2.231235 1_645
Hf1 O15 1.956081 1_555
Hf1 O17 1.990748 1_545
Hf1 O12 2.049356 1_545
Hf1 O87 2.066591 1_555
Hf1 O84 2.131288 1_555
Hf1 O88 2.256999 1_545
Hf2 O22 1.959244 1_555
Hf2 O20 1.973816 1_565
Hf2 O19 2.027659 1_455
Hf2 O94 2.107922 1_565
Hf2 O91 2.144114 1_455
Hf2 O93 2.254402 1_465
Hf3 O23 1.935909 1_555
Hf3 O18 1.992384 1_555
Hf3 O95 2.039801 1_565
Hf3 O90 2.049155 1_555
Hf3 O21 2.177133 1_565
Hf3 O92 2.281849 1_565
Hf4 O29 1.957106 1_555
Hf4 O27 1.962194 1_555
Hf4 O25 2.025301 1_555
Hf4 O99 2.105134 1_555
Hf4 O97 2.150226 1_555
Hf4 O101 2.280734 1_555
Hf5 O34 1.949842 1_555
Hf5 O30 2.009966 1_555
Hf5 O102 2.011303 1_555
Hf5 O106 2.053026 1_555
Hf5 O32 2.185482 1_555
Hf5 O104 2.218962 1_555
Hf6 O52 2.004846 1_554
Hf6 O48 2.044418 1_554
Hf6 O122 2.045878 1_555
Hf6 O50 2.056474 1_554
Hf6 O120 2.056643 1_555
Hf6 O124 2.209924 1_555
Hf7 O53 2.018528 1_554
Hf7 O49 2.030474 1_554
Hf7 O123 2.057643 1_555
Hf7 O121 2.061613 1_555
Hf7 O51 2.083853 1_554
Hf7 O125 2.161951 1_555
Hf8 O56 2.020069 1_555
Hf8 O130 2.029838 1_555
Hf8 O126 2.050895 1_555
Hf8 O54 2.051496 1_555
Hf8 O58 2.087740 1_555
Hf8 O128 2.171148 1_555
Hf9 O129 1.996255 1_555
Hf9 O57 2.030949 1_555
Hf9 O127 2.040384 1_555
Hf9 O55 2.053309 1_555
Hf9 O131 2.065751 1_555
Hf9 O59 2.197858 1_555
Hf10 O62 1.978154 1_555
Hf10 O134 1.992750 1_555
Hf10 O132 2.040611 1_555
Hf10 O64 2.043785 1_555
Hf10 O136 2.081677 1_555
Hf10 O60 2.232528 1_555
Hf11 O143 1.960222 1_555
Hf11 O71 1.997402 1_555
Hf11 O139 2.013528 1_555
Hf11 O69 2.052130 1_555
Hf11 O141 2.065151 1_555
Hf11 O67 2.322376 1_555
Al0 O5 1.809168 1_555
Al0 O3 1.879660 1_545
Al0 O0 1.905815 1_655
Al0 O75 1.948016 1_545
Al0 O76 2.007774 1_655
Al0 O72 2.346841 1_645
Al1 O2 1.849621 1_545
Al1 O1 1.861316 1_555
Al1 O77 1.873167 1_555
Al1 O74 1.956611 1_545
Al1 O4 2.060940 1_555
Al1 O73 2.102318 1_545
Al2 O11 1.832268 1_465
Al2 O6 1.854152 1_565
Al2 O80 1.945155 1_555
Al2 O9 1.960183 1_455
Al2 O83 1.990078 1_455
Al2 O78 2.198340 1_565
Al3 O8 1.799839 1_555
Al3 O7 1.854932 1_565
Al3 O10 1.872864 1_565
Al3 O82 2.007742 1_555
Al3 O81 2.049452 1_555
Al3 O79 2.376353 1_565
Al4 O24 1.831640 1_555
Al4 O26 1.845208 1_555
Al4 O96 1.885148 1_555
Al4 O100 1.920874 1_555
Al4 O98 2.057798 1_555
Al4 O28 2.262596 1_555
Al5 O31 1.851700 1_555
Al5 O103 1.865398 1_555
Al5 O35 1.866949 1_555
Al5 O105 1.911771 1_555
Al5 O107 2.041067 1_555
Al5 O33 2.254457 1_555
Al6 O36 1.776013 1_556
Al6 O108 1.833274 1_555
Al6 O38 1.843515 1_556
Al6 O112 1.962235 1_555
Al6 O110 2.259346 1_555
Al6 O40 2.261278 1_556
Al7 O37 1.778384 1_556
Al7 O39 1.818360 1_556
Al7 O109 1.852014 1_555
Al7 O113 1.917985 1_555
Al7 O41 2.213619 1_556
Al7 O111 2.368682 1_555
Al8 O42 1.769628 1_555
Al8 O46 1.805183 1_555
Al8 O114 1.862311 1_555
Al8 O116 1.943630 1_555
Al8 O44 2.189779 1_555
Al8 O118 2.382881 1_555
Al9 O43 1.800412 1_555
Al9 O45 1.844400 1_555
Al9 O47 1.875794 1_555
Al9 O115 1.988336 1_555
Al9 O117 2.065167 1_555
Al9 O119 2.321946 1_555
Al10 O63 1.768955 1_555
Al10 O135 1.830001 1_555
Al10 O65 1.836118 1_555
Al10 O133 1.962112 1_555
Al10 O61 2.306973 1_555
Al10 O137 2.380971 1_555
Al11 O70 1.781520 1_555
Al11 O142 1.812681 1_555
Al11 O68 1.871288 1_555
Al11 O138 1.914387 1_555
Al11 O140 2.301160 1_555
Al11 O66 2.318800 1_555
O0 Si0 1.625658 1_545
O1 Si1 1.627251 1_545
O2 Si2 1.615464 1_555
O3 Si3 1.627763 1_555
O4 S0 1.465624 1_555
O5 Si4 1.628669 1_555
O6 Si5 1.646416 1_555
O7 Si6 1.633947 1_555
O8 Si7 1.637158 1_555
O9 S1 1.483900 1_655
O10 Si8 1.635052 1_545
O11 Si9 1.631400 1_555
O12 Si8 1.642966 1_555
O13 Si9 1.622652 1_565
O14 Si5 1.645796 1_555
O15 Si6 1.647995 1_555
O16 S1 1.481798 1_555
O17 Si7 1.628549 1_555
O18 Si2 1.634973 1_555
O19 Si3 1.657236 1_555
O20 Si4 1.638524 1_455
O21 S0 1.491316 1_555
O22 Si0 1.654727 1_555
O23 Si1 1.681258 1_555
O24 Si10 1.626863 1_555
O25 Si11 1.638215 1_555
O26 Si12 1.627432 1_555
O27 Si13 1.658457 1_555
O28 S2 1.483124 1_555
O29 Si14 1.639434 1_555
O30 Si15 1.637599 1_555
O31 Si16 1.621648 1_555
O32 S3 1.477117 1_555
O33 S4 1.473101 1_555
O34 Si17 1.656404 1_555
O35 Si18 1.625521 1_555
O36 Si17 1.632777 1_555
O37 Si18 1.632204 1_555
O38 Si15 1.636246 1_555
O39 Si16 1.640087 1_555
O40 S3 1.480824 1_555
O41 S4 1.467285 1_555
O42 Si12 1.632705 1_555
O43 Si13 1.626162 1_555
O44 S2 1.462784 1_555
O45 Si14 1.618181 1_555
O46 Si10 1.642368 1_555
O47 Si11 1.623981 1_555
O48 Si19 1.653038 1_555
O49 Si20 1.656722 1_555
O50 S5 1.509215 1_555
O51 S6 1.499771 1_555
O52 Si21 1.659667 1_555
O53 Si22 1.657993 1_555
O54 Si23 1.650090 1_555
O55 Si24 1.643194 1_555
O56 Si25 1.649149 1_555
O57 Si26 1.645139 1_555
O58 S7 1.503067 1_555
O59 S8 1.476693 1_555
O60 S7 1.485378 1_555
O61 S8 1.490520 1_555
O62 Si23 1.636026 1_555
O63 Si24 1.641290 1_555
O64 Si25 1.649260 1_555
O65 Si26 1.654902 1_555
O66 S5 1.481876 1_555
O67 S6 1.481331 1_555
O68 Si21 1.641215 1_555
O69 Si22 1.638677 1_555
O70 Si19 1.627325 1_555
O71 Si20 1.629399 1_555
O72 S7 1.470930 1_555
O73 S8 1.500610 1_555
O74 Si23 1.639261 1_555
O75 Si24 1.650937 1_555
O76 Si25 1.640488 1_555
O77 Si26 1.658952 1_555
O78 S5 1.484344 1_555
O79 S6 1.459754 1_555
O80 Si21 1.651694 1_555
O81 Si22 1.641041 1_555
O82 Si19 1.637614 1_555
O83 Si20 1.642562 1_555
O84 Si10 1.682081 1_555
O85 Si11 1.667336 1_555
O86 Si12 1.630169 1_555
O87 Si13 1.637153 1_555
O88 S2 1.485143 1_555
O89 Si14 1.633029 1_555
O90 Si15 1.679841 1_555
O91 Si16 1.679091 1_555
O92 S3 1.478268 1_555
O93 S4 1.491365 1_555
O94 Si17 1.627975 1_555
O95 Si18 1.652720 1_555
O96 Si8 1.642301 1_545
O97 Si9 1.653963 1_555
O98 Si5 1.644211 1_555
O99 Si6 1.640286 1_555
O100 Si7 1.635988 1_555
O101 S1 1.482879 1_655
O102 Si2 1.675432 1_555
O103 Si3 1.641484 1_555
O104 S0 1.493539 1_555
O105 Si4 1.633763 1_555
O106 Si0 1.654945 1_545
O107 Si1 1.635339 1_545
O108 Si19 1.657607 1_555
O109 Si20 1.643658 1_555
O110 S6 1.490795 1_555
O111 S5 1.472491 1_655
O112 Si21 1.669799 1_545
O113 Si22 1.657292 1_545
O114 Si23 1.643619 1_545
O115 Si24 1.653260 1_545
O116 Si25 1.658849 1_555
O117 Si26 1.647642 1_555
O118 S8 1.488318 1_555
O119 S7 1.467782 1_655
O120 Si17 1.631194 1_555
O121 Si18 1.652215 1_555
O122 Si16 1.666684 1_455
O123 Si15 1.636719 1_555
O124 S3 1.504667 1_565
O125 S4 1.530444 1_565
O126 Si12 1.654540 1_565
O127 Si13 1.617760 1_565
O128 S2 1.529365 1_555
O129 Si14 1.663245 1_555
O130 Si11 1.652589 1_455
O131 Si10 1.638086 1_555
O132 Si0 1.623509 1_555
O133 Si1 1.664327 1_555
O134 Si2 1.632934 1_555
O135 Si3 1.655435 1_555
O136 Si4 1.640804 1_455
O137 S0 1.486025 1_555
O138 Si5 1.675138 1_555
O139 Si6 1.628393 1_555
O140 S1 1.489600 1_555
O141 Si7 1.641276 1_555
O142 Si8 1.655208 1_555
O143 Si9 1.645887 1_565
