# generated using pymatgen
data_K2MgNb2(CuS2)4
_symmetry_space_group_name_H-M   'P 1'
_cell_length_a   5.53394380
_cell_length_b   7.87385738
_cell_length_c   9.94794158
_cell_angle_alpha   83.04109344
_cell_angle_beta   103.76352514
_cell_angle_gamma   85.77237841
_symmetry_Int_Tables_number   1
_chemical_formula_structural   K2MgNb2(CuS2)4
_chemical_formula_sum   'K2 Mg1 Nb2 Cu4 S8'
_cell_volume   415.54783767
_cell_formula_units_Z   1
loop_
 _symmetry_equiv_pos_site_id
 _symmetry_equiv_pos_as_xyz
  1  'x, y, z'
loop_
 _atom_site_type_symbol
 _atom_site_label
 _atom_site_symmetry_multiplicity
 _atom_site_fract_x
 _atom_site_fract_y
 _atom_site_fract_z
 _atom_site_occupancy
  K  K0  1  0.68376243  0.81546525  0.70549912  1
  K  K1  1  0.86431261  0.19109408  0.31853748  1
  Mg  Mg0  1  0.37171875  0.54865925  0.44030167  1
  Nb  Nb0  1  0.61145024  0.75325507  0.25305425  1
  Nb  Nb1  1  0.38952038  0.25704519  0.77735982  1
  Cu  Cu0  1  0.45447662  0.47533746  0.98295607  1
  Cu  Cu1  1  0.48544130  0.99178952  0.00734999  1
  Cu  Cu2  1  0.08139867  0.75549061  0.19486329  1
  Cu  Cu3  1  0.89696325  0.26589634  0.79079016  1
  S  S0  1  0.71345643  0.72272780  0.03367101  1
  S  S1  1  0.71462813  0.23644484  0.97929494  1
  S  S2  1  0.97949558  0.73989120  0.43002955  1
  S  S3  1  0.56752831  0.27006153  0.58359321  1
  S  S4  1  0.13606042  0.50046730  0.78514110  1
  S  S5  1  0.36549773  0.51238939  0.19562192  1
  S  S6  1  0.17094619  0.02019995  0.80082029  1
  S  S7  1  0.32838896  0.99735623  0.20722713  1
loop_
_geom_bond_atom_site_label_1
_geom_bond_atom_site_label_2
_geom_bond_distance
_geom_bond_site_symmetry_2
K0 S0 3.219851 1_556
K0 S6 3.249813 1_665
K0 S4 3.272498 1_655
K0 S6 3.539481 1_565
K0 S2 3.595491 1_555
K0 S3 3.596419 1_565
K0 Mg0 3.750375 1_555
K1 S1 3.246062 1_554
K1 S7 3.366531 1_645
K1 S7 3.444224 1_545
K1 S5 3.482788 1_555
K1 S3 3.513385 1_555
K1 S2 3.554304 1_545
Mg0 S5 2.477379 1_555
Mg0 S3 2.484958 1_555
Mg0 S2 2.522743 1_455
Nb0 S7 2.315106 1_555
Nb0 S2 2.340126 1_555
Nb0 S0 2.415092 1_555
Nb0 S5 2.459468 1_555
Nb1 S4 2.310464 1_555
Nb1 S6 2.314473 1_555
Nb1 S1 2.336000 1_555
Nb1 S3 2.359448 1_555
Cu0 S4 2.284920 1_555
Cu0 S1 2.292254 1_555
Cu0 S5 2.329667 1_556
Cu0 S0 2.531521 1_556
Cu1 S6 2.330231 1_564
Cu1 S0 2.337362 1_555
Cu1 S7 2.355565 1_555
Cu1 S1 2.407451 1_564
Cu2 S0 2.325494 1_455
Cu2 S5 2.383891 1_555
Cu2 S7 2.422953 1_555
Cu2 S2 2.524740 1_455
Cu3 S1 2.327640 1_555
Cu3 S6 2.345251 1_655
Cu3 S4 2.352819 1_655
Cu3 S3 2.399986 1_555
