# generated using pymatgen
data_Na7Mg2Ti2SiP5O24
_symmetry_space_group_name_H-M   'P 1'
_cell_length_a   8.92992100
_cell_length_b   8.92723873
_cell_length_c   21.95174468
_cell_angle_alpha   90.08998218
_cell_angle_beta   89.91011644
_cell_angle_gamma   119.95378206
_symmetry_Int_Tables_number   1
_chemical_formula_structural   Na7Mg2Ti2SiP5O24
_chemical_formula_sum   'Na21 Mg6 Ti6 Si3 P15 O72'
_cell_volume   1516.23249120
_cell_formula_units_Z   3
loop_
 _symmetry_equiv_pos_site_id
 _symmetry_equiv_pos_as_xyz
  1  'x, y, z'
loop_
 _atom_site_type_symbol
 _atom_site_label
 _atom_site_symmetry_multiplicity
 _atom_site_fract_x
 _atom_site_fract_y
 _atom_site_fract_z
 _atom_site_occupancy
  Na  Na0  1  0.36167565  0.36892915  0.25321225  1
  Na  Na1  1  0.00715214  0.63812269  0.25264276  1
  Na  Na2  1  0.62992537  0.64120116  0.75078428  1
  Na  Na3  1  0.00550498  0.36971181  0.75250350  1
  Na  Na4  1  0.36084132  0.98904967  0.75321112  1
  Na  Na5  1  0.29663706  0.32044127  0.58286701  1
  Na  Na6  1  0.02730407  0.70394862  0.58524020  1
  Na  Na7  1  0.67579117  0.97039819  0.58814299  1
  Na  Na8  1  0.29534501  0.97319331  0.08600813  1
  Na  Na9  1  0.67985221  0.70403519  0.08389383  1
  Na  Na10  1  0.02917943  0.32696550  0.08607259  1
  Na  Na11  1  0.96012735  0.65756227  0.92145030  1
  Na  Na12  1  0.69421638  0.03388452  0.91917489  1
  Na  Na13  1  0.96581665  0.30500027  0.41862294  1
  Na  Na14  1  0.34438602  0.03922293  0.42096155  1
  Na  Na15  1  0.99509811  0.98941964  0.50242563  1
  Na  Na16  1  0.01166234  0.00433379  0.00224832  1
  Na  Na17  1  0.65383694  0.33411045  0.83817337  1
  Na  Na18  1  0.66425411  0.33399213  0.33672943  1
  Na  Na19  1  0.34676170  0.68073091  0.17191146  1
  Na  Na20  1  0.33800834  0.67023820  0.67019797  1
  Mg  Mg0  1  0.99985774  0.99827635  0.64871767  1
  Mg  Mg1  1  0.99888956  0.99764693  0.14952759  1
  Mg  Mg2  1  0.66085880  0.33485286  0.98152278  1
  Mg  Mg3  1  0.66458892  0.33835483  0.48093688  1
  Mg  Mg4  1  0.33895308  0.67180643  0.31536462  1
  Mg  Mg5  1  0.33571673  0.66815733  0.81610584  1
  Ti  Ti0  1  0.99459954  0.99505784  0.35089340  1
  Ti  Ti1  1  0.99889685  0.00575650  0.85074845  1
  Ti  Ti2  1  0.66255735  0.32164346  0.68409743  1
  Ti  Ti3  1  0.67376006  0.33284290  0.18425022  1
  Ti  Ti4  1  0.32681597  0.66345388  0.01765598  1
  Ti  Ti5  1  0.33985823  0.67437126  0.51721718  1
  Si  Si0  1  0.70438611  0.99966108  0.74717645  1
  Si  Si1  1  0.37008559  0.03718961  0.57936797  1
  Si  Si2  1  0.96168438  0.62883417  0.08012545  1
  P  P0  1  0.29528786  0.00182949  0.24906514  1
  P  P1  1  0.70586125  0.70688331  0.24741897  1
  P  P2  1  0.99529736  0.28909944  0.24882257  1
  P  P3  1  0.29183087  0.29088668  0.74818721  1
  P  P4  1  0.99706990  0.70646240  0.74952229  1
  P  P5  1  0.96046689  0.33557203  0.58095483  1
  P  P6  1  0.66469872  0.62177248  0.58293378  1
  P  P7  1  0.66570514  0.04147742  0.08087661  1
  P  P8  1  0.37748037  0.33567439  0.08360273  1
  P  P9  1  0.62559950  0.66591811  0.91463197  1
  P  P10  1  0.04270958  0.37124671  0.91461211  1
  P  P11  1  0.33134729  0.96068513  0.91532049  1
  P  P12  1  0.62871338  0.95783534  0.41501258  1
  P  P13  1  0.33320107  0.37418074  0.41396968  1
  P  P14  1  0.04053248  0.66764575  0.41450707  1
  O  O0  1  0.19907289  0.02836344  0.30627281  1
  O  O1  1  0.83213459  0.80660038  0.30299736  1
  O  O2  1  0.97453269  0.17458898  0.30669654  1
  O  O3  1  0.19812197  0.16642866  0.80403307  1
  O  O4  1  0.97218993  0.80069377  0.80681509  1
  O  O5  1  0.83640992  0.03273742  0.80801599  1
  O  O6  1  0.79152838  0.97154562  0.68864144  1
  O  O7  1  0.18730411  0.21273671  0.69078125  1
  O  O8  1  0.02985220  0.81621355  0.69295139  1
  O  O9  1  0.78657353  0.80667210  0.18961191  1
  O  O10  1  0.02236128  0.20802767  0.19230690  1
  O  O11  1  0.18697951  0.97695668  0.19243968  1
  O  O12  1  0.87098141  0.36577232  0.63904539  1
  O  O13  1  0.50219260  0.13485287  0.64063772  1
  O  O14  1  0.63461238  0.50772753  0.64188031  1
  O  O15  1  0.86339433  0.49600492  0.14098444  1
  O  O16  1  0.63378485  0.13512875  0.13694358  1
  O  O17  1  0.49390100  0.36605259  0.14212938  1
  O  O18  1  0.45810167  0.29869955  0.02937795  1
  O  O19  1  0.84647164  0.54148890  0.02164273  1
  O  O20  1  0.69279643  0.14714707  0.02368529  1
  O  O21  1  0.45752690  0.15332141  0.52121542  1
  O  O22  1  0.69700237  0.53807293  0.52871387  1
  O  O23  1  0.85156277  0.30965727  0.52487709  1
  O  O24  1  0.53426374  0.69372391  0.97217203  1
  O  O25  1  0.15744866  0.46604476  0.97286612  1
  O  O26  1  0.30522790  0.83733230  0.97264470  1
  O  O27  1  0.53989992  0.84466760  0.47462624  1
  O  O28  1  0.30606243  0.46614900  0.47167964  1
  O  O29  1  0.16456397  0.69874076  0.47171348  1
  O  O30  1  0.12309395  0.64193426  0.35785598  1
  O  O31  1  0.51013821  0.87114822  0.36203303  1
  O  O32  1  0.34671180  0.47482649  0.35683970  1
  O  O33  1  0.12539535  0.48099214  0.85876435  1
  O  O34  1  0.35573146  0.87668798  0.85879405  1
  O  O35  1  0.52541397  0.65101866  0.85731524  1
  O  O36  1  0.03321702  0.83983275  0.41107716  1
  O  O37  1  0.81171319  0.97359960  0.41065098  1
  O  O38  1  0.16031986  0.19008321  0.41234935  1
  O  O39  1  0.02836702  0.18895266  0.91261473  1
  O  O40  1  0.15986178  0.96612921  0.91336536  1
  O  O41  1  0.80957693  0.83850415  0.91292507  1
  O  O42  1  0.98433814  0.17841538  0.58827806  1
  O  O43  1  0.17910573  0.00838677  0.58820659  1
  O  O44  1  0.81863116  0.80541599  0.58891441  1
  O  O45  1  0.99182882  0.82088864  0.08821748  1
  O  O46  1  0.82363251  0.01995054  0.08990329  1
  O  O47  1  0.19285631  0.18430257  0.09121097  1
  O  O48  1  0.69711813  0.18412598  0.74512302  1
  O  O49  1  0.47414821  0.30511167  0.74598747  1
  O  O50  1  0.82659136  0.52792802  0.74656582  1
  O  O51  1  0.69859651  0.52584009  0.24688738  1
  O  O52  1  0.82820753  0.30590227  0.24593630  1
  O  O53  1  0.47294313  0.17338783  0.24638629  1
  O  O54  1  0.65540912  0.51250800  0.92017204  1
  O  O55  1  0.85970810  0.34493069  0.92112082  1
  O  O56  1  0.49289614  0.13677498  0.92343267  1
  O  O57  1  0.65702367  0.14135777  0.42191681  1
  O  O58  1  0.48633288  0.34415924  0.41936967  1
  O  O59  1  0.86401986  0.50806718  0.42330644  1
  O  O60  1  0.36906343  0.50741986  0.07800655  1
  O  O61  1  0.15498600  0.63863749  0.07722588  1
  O  O62  1  0.49796165  0.85908241  0.07841837  1
  O  O63  1  0.36104930  0.84478252  0.57698167  1
  O  O64  1  0.49332442  0.63198475  0.57778151  1
  O  O65  1  0.14241045  0.50398678  0.57817433  1
  O  O66  1  0.31087471  0.84027248  0.25665885  1
  O  O67  1  0.52275349  0.67474505  0.25570006  1
  O  O68  1  0.15271895  0.47226615  0.25534554  1
  O  O69  1  0.31371724  0.47096007  0.75683263  1
  O  O70  1  0.15154796  0.67739183  0.75718697  1
  O  O71  1  0.51245563  0.83755774  0.75481384  1
loop_
_geom_bond_atom_site_label_1
_geom_bond_atom_site_label_2
_geom_bond_distance
_geom_bond_site_symmetry_2
Na0 O67 2.367210 1_555
Na0 O53 2.405777 1_555
Na0 O68 2.460411 1_555
Na0 O32 2.490934 1_555
Na0 O51 2.612335 1_555
Na0 O17 2.713302 1_555
Na0 O0 2.882003 1_555
Na0 O10 2.948281 1_555
Na1 O66 2.394397 1_555
Na1 O68 2.409994 1_555
Na1 O51 2.419805 1_455
Na1 O30 2.525767 1_555
Na1 O52 2.576417 1_455
Na1 O15 2.763908 1_455
Na1 O1 2.874603 1_455
Na1 O11 2.937727 1_555
Na2 O50 2.426528 1_555
Na2 O69 2.452499 1_555
Na2 O71 2.452837 1_555
Na2 O35 2.534098 1_555
Na2 O49 2.603818 1_555
Na2 O14 2.679031 1_555
Na2 O6 2.897761 1_555
Na2 O4 2.922716 1_555
Na3 O70 2.382920 1_555
Na3 O48 2.408182 1_455
Na3 O69 2.432597 1_555
Na3 O33 2.551989 1_555
Na3 O50 2.611371 1_455
Na3 O12 2.759411 1_455
Na3 O5 2.878242 1_455
Na3 O7 2.948586 1_555
Na4 O71 2.343514 1_555
Na4 O70 2.459500 1_555
Na4 O49 2.481957 1_565
Na4 O34 2.518211 1_555
Na4 O48 2.618953 1_565
Na4 O13 2.784579 1_565
Na4 O3 2.854930 1_565
Na4 O8 2.884170 1_555
Na5 O42 2.422305 1_455
Na5 O64 2.440257 1_555
Na5 O43 2.440656 1_555
Na5 O7 2.559667 1_555
Na5 O65 2.616626 1_555
Na5 O28 2.748886 1_555
Na5 O21 2.872222 1_555
Na5 O14 2.923849 1_555
Na6 O43 2.355614 1_565
Na6 O44 2.446280 1_455
Na6 O65 2.469451 1_555
Na6 O8 2.562328 1_555
Na6 O63 2.598671 1_555
Na6 O29 2.786058 1_555
Na6 O22 2.841923 1_455
Na6 O12 2.873244 1_455
Na7 O44 2.381754 1_555
Na7 O42 2.435307 1_565
Na7 O6 2.435516 1_555
Na7 O63 2.463945 1_555
Na7 O64 2.630023 1_555
Na7 O27 2.753631 1_555
Na7 O13 2.854525 1_565
Na7 O23 2.970582 1_565
Na8 O45 2.348812 1_455
Na8 O47 2.474649 1_565
Na8 O62 2.485633 1_555
Na8 O11 2.534020 1_555
Na8 O61 2.605574 1_555
Na8 O26 2.787168 1_554
Na8 O18 2.808919 1_565
Na8 O16 2.848960 1_565
Na9 O60 2.436356 1_555
Na9 O45 2.440692 1_555
Na9 O46 2.450125 1_565
Na9 O9 2.502334 1_555
Na9 O62 2.610510 1_555
Na9 O24 2.757391 1_554
Na9 O19 2.886231 1_555
Na9 O17 2.915068 1_555
Na10 O47 2.372962 1_555
Na10 O46 2.421704 1_455
Na10 O61 2.433304 1_555
Na10 O10 2.551907 1_555
Na10 O60 2.637264 1_555
Na10 O25 2.758583 1_554
Na10 O15 2.853355 1_455
Na10 O20 2.943879 1_455
Na11 O54 2.358701 1_555
Na11 O19 2.427164 1_556
Na11 O40 2.427973 1_655
Na11 O55 2.468651 1_555
Na11 O41 2.573326 1_555
Na11 O4 2.801533 1_555
Na11 O26 2.898603 1_655
Na11 O33 2.977615 1_655
Na12 O56 2.394289 1_555
Na12 O55 2.407961 1_555
Na12 O41 2.432164 1_545
Na12 O20 2.508235 1_556
Na12 O39 2.591388 1_655
Na12 O5 2.751339 1_555
Na12 O24 2.879172 1_545
Na12 O34 2.938274 1_545
Na13 O57 2.391684 1_555
Na13 O59 2.401667 1_555
Na13 O38 2.422070 1_655
Na13 O23 2.552973 1_555
Na13 O37 2.571106 1_545
Na13 O2 2.734795 1_555
Na13 O28 2.880746 1_655
Na13 O30 2.930439 1_655
Na14 O58 2.360698 1_555
Na14 O21 2.423602 1_555
Na14 O36 2.449126 1_545
Na14 O57 2.466625 1_555
Na14 O38 2.600694 1_555
Na14 O0 2.813452 1_555
Na14 O29 2.861759 1_545
Na14 O31 2.884653 1_545
Na15 O43 2.450592 1_665
Na15 O44 2.490308 1_555
Na15 O36 2.522618 1_655
Na15 O37 2.557126 1_555
Na15 O42 2.561055 1_565
Na15 O38 2.580379 1_665
Na16 O45 2.448210 1_445
Na16 O40 2.472895 1_544
Na16 O39 2.524651 1_554
Na16 O47 2.533215 1_555
Na16 O41 2.574317 1_444
Na16 O46 2.600776 1_455
Na17 O54 2.396948 1_555
Na17 O56 2.478997 1_555
Na17 O49 2.516074 1_555
Na17 O55 2.556790 1_555
Na17 O48 2.572966 1_555
Na17 O50 2.598701 1_555
Na18 O58 2.440900 1_555
Na18 O57 2.521368 1_555
Na18 O51 2.530028 1_555
Na18 O59 2.538155 1_555
Na18 O53 2.542243 1_555
Na18 O52 2.556300 1_555
Na19 O67 2.439067 1_555
Na19 O66 2.457183 1_555
Na19 O62 2.534756 1_555
Na19 O68 2.569225 1_555
Na19 O61 2.600059 1_555
Na19 O60 2.641802 1_555
Na20 O71 2.405160 1_555
Na20 O63 2.519134 1_555
Na20 O69 2.540208 1_555
Na20 O70 2.553195 1_555
Na20 O64 2.572526 1_555
Na20 O65 2.597549 1_555
Mg0 O6 1.959131 1_555
Mg0 O8 2.024045 1_655
Mg0 O7 2.029535 1_665
Mg0 O43 2.045524 1_665
Mg0 O44 2.126938 1_555
Mg0 O42 2.143700 1_565
Mg1 O9 2.011755 1_555
Mg1 O10 2.013730 1_665
Mg1 O11 2.014433 1_655
Mg1 O45 2.049277 1_555
Mg1 O46 2.126147 1_565
Mg1 O47 2.129117 1_665
Mg2 O19 1.967743 1_556
Mg2 O18 1.974224 1_556
Mg2 O20 2.056419 1_556
Mg2 O56 2.086381 1_555
Mg2 O54 2.101287 1_555
Mg2 O55 2.180086 1_555
Mg3 O22 1.960182 1_555
Mg3 O21 1.969448 1_555
Mg3 O23 2.053477 1_555
Mg3 O59 2.090938 1_555
Mg3 O58 2.110086 1_555
Mg3 O57 2.156482 1_555
Mg4 O31 1.958526 1_555
Mg4 O32 2.013179 1_555
Mg4 O30 2.034362 1_555
Mg4 O67 2.088161 1_555
Mg4 O66 2.090238 1_555
Mg4 O68 2.171630 1_555
Mg5 O35 1.993835 1_555
Mg5 O34 2.009581 1_555
Mg5 O33 2.015389 1_555
Mg5 O71 2.050481 1_555
Mg5 O69 2.116350 1_555
Mg5 O70 2.127618 1_555
O0 P0 1.603213 1_555
O0 Ti0 1.958318 1_445
O1 P1 1.597177 1_555
O1 Ti0 1.898041 1_555
O2 P2 1.583495 1_555
O2 Ti0 1.958144 1_545
O3 P3 1.584359 1_555
O3 Ti1 1.929953 1_455
O4 P4 1.587833 1_555
O4 Ti1 1.974189 1_565
O5 Si0 1.707881 1_545
O5 Ti1 1.843185 1_555
O6 Si0 1.584465 1_555
O7 P3 1.515465 1_555
O8 P4 1.517912 1_455
O9 P1 1.510913 1_555
O10 P2 1.514021 1_455
O11 P0 1.522601 1_565
O12 P5 1.596313 1_555
O12 Ti2 1.964845 1_555
O13 Si1 1.713186 1_555
O13 Ti2 1.831992 1_555
O14 P6 1.585245 1_555
O14 Ti2 2.024918 1_555
O15 Si2 1.709753 1_555
O15 Ti3 1.851348 1_555
O16 P7 1.590177 1_555
O16 Ti3 1.920265 1_555
O17 P8 1.589508 1_555
O17 Ti3 2.000874 1_555
O18 P8 1.509152 1_555
O19 Si2 1.585731 1_555
O20 P7 1.516390 1_555
O21 Si1 1.583272 1_555
O22 P6 1.506497 1_555
O23 P5 1.514216 1_555
O24 P9 1.587529 1_555
O24 Ti4 1.999201 1_556
O25 P10 1.592516 1_555
O25 Ti4 1.922888 1_556
O26 P11 1.611668 1_555
O26 Ti4 1.930594 1_556
O27 P12 1.600914 1_555
O27 Ti5 1.914078 1_555
O28 P13 1.591271 1_555
O28 Ti5 1.995135 1_555
O29 P14 1.605316 1_555
O29 Ti5 1.959879 1_555
O30 P14 1.519205 1_555
O31 P12 1.501795 1_555
O32 P13 1.513085 1_555
O33 P10 1.512139 1_555
O34 P11 1.519444 1_555
O35 P9 1.511733 1_555
O36 P14 1.572716 1_555
O36 Ti0 2.066147 1_455
O37 P12 1.571429 1_555
O37 Ti0 2.026410 1_555
O38 P13 1.597488 1_555
O38 Ti0 2.113571 1_445
O39 P10 1.567914 1_555
O39 Ti1 2.037799 1_455
O40 P11 1.556848 1_555
O40 Ti1 2.143871 1_465
O41 P9 1.595814 1_555
O41 Ti1 2.104487 1_565
O42 P5 1.529408 1_555
O43 Si1 1.604208 1_555
O44 P6 1.531004 1_555
O45 Si2 1.606827 1_555
O46 P7 1.528634 1_555
O47 P8 1.532051 1_555
O48 Si0 1.680786 1_545
O48 Ti2 1.944678 1_555
O49 P3 1.569208 1_555
O49 Ti2 2.108031 1_555
O50 P4 1.561749 1_555
O50 Ti2 2.173024 1_555
O51 P1 1.584847 1_555
O51 Ti3 2.126081 1_555
O52 P2 1.573756 1_555
O52 Ti3 2.032684 1_555
O53 P0 1.561912 1_555
O53 Ti3 2.133527 1_555
O54 P9 1.525103 1_555
O55 P10 1.536935 1_655
O56 P11 1.522937 1_545
O57 P12 1.535187 1_545
O58 P13 1.523942 1_555
O59 P14 1.519495 1_655
O60 P8 1.577080 1_555
O60 Ti4 2.090428 1_555
O61 Si2 1.685284 1_455
O61 Ti4 1.941310 1_555
O62 P7 1.569189 1_565
O62 Ti4 2.120990 1_555
O63 Si1 1.679567 1_565
O63 Ti5 1.943803 1_555
O64 P6 1.582088 1_555
O64 Ti5 2.077013 1_555
O65 P5 1.569900 1_455
O65 Ti5 2.129283 1_555
O66 P0 1.525963 1_565
O67 P1 1.523086 1_555
O68 P2 1.541073 1_455
O69 P3 1.530970 1_555
O70 P4 1.535247 1_455
O71 Si0 1.607137 1_555
