# generated using pymatgen
data_MgHg2(BiO3)2
_symmetry_space_group_name_H-M   'P 1'
_cell_length_a   5.82503381
_cell_length_b   6.77960806
_cell_length_c   5.82503402
_cell_angle_alpha   115.44215269
_cell_angle_beta   60.00000113
_cell_angle_gamma   115.44215239
_symmetry_Int_Tables_number   1
_chemical_formula_structural   MgHg2(BiO3)2
_chemical_formula_sum   'Mg1 Hg2 Bi2 O6'
_cell_volume   172.98019332
_cell_formula_units_Z   1
loop_
 _symmetry_equiv_pos_site_id
 _symmetry_equiv_pos_as_xyz
  1  'x, y, z'
loop_
 _atom_site_type_symbol
 _atom_site_label
 _atom_site_symmetry_multiplicity
 _atom_site_fract_x
 _atom_site_fract_y
 _atom_site_fract_z
 _atom_site_occupancy
  Mg  Mg0  1  0.34987556  0.04962668  0.34987556  1
  Hg  Hg0  1  0.17812204  0.53436613  0.17812204  1
  Hg  Hg1  1  0.74345946  0.23037839  0.74345946  1
  Bi  Bi0  1  0.99620171  0.98860514  0.99620171  1
  Bi  Bi1  1  0.54295681  0.62887042  0.54295681  1
  O  O0  1  0.13114176  0.24176407  0.35878153  1
  O  O1  1  0.32367019  0.82262033  0.95369982  1
  O  O2  1  0.54525033  0.82262033  0.32367019  1
  O  O3  1  0.35878153  0.24176407  0.75184079  1
  O  O4  1  0.75184079  0.24176407  0.13114176  1
  O  O5  1  0.95369982  0.82262033  0.54525033  1
loop_
_geom_bond_atom_site_label_1
_geom_bond_atom_site_label_2
_geom_bond_distance
_geom_bond_site_symmetry_2
Mg0 O0 2.150527 1_555
Mg0 O4 2.150528 1_555
Mg0 O3 2.150528 1_555
Mg0 O2 2.194623 1_545
Mg0 O5 2.194623 1_445
Mg0 O1 2.194623 1_544
Hg0 O1 2.431042 1_554
Hg0 O5 2.431042 1_455
Hg0 O2 2.431042 1_555
Hg0 O4 2.481273 1_455
Hg0 O3 2.481274 1_554
Hg0 O0 2.481274 1_555
Hg1 O3 2.250629 1_555
Hg1 O0 2.250629 1_655
Hg1 O4 2.250630 1_556
Bi0 O4 2.326105 1_566
Bi0 O3 2.326105 1_665
Bi0 O0 2.326105 1_666
Bi0 O5 2.469600 1_555
Bi0 O1 2.469600 1_655
Bi0 O2 2.469600 1_556
Bi1 O5 2.183276 1_555
Bi1 O2 2.183276 1_555
Bi1 O1 2.183276 1_555
