# generated using pymatgen
data_Na4CaNbSi2PO12
_symmetry_space_group_name_H-M   'P 1'
_cell_length_a   9.36223338
_cell_length_b   9.36223304
_cell_length_c   22.48319903
_cell_angle_alpha   90.27454632
_cell_angle_beta   89.72545369
_cell_angle_gamma   119.79784061
_symmetry_Int_Tables_number   1
_chemical_formula_structural   Na4CaNbSi2PO12
_chemical_formula_sum   'Na24 Ca6 Nb6 Si12 P6 O72'
_cell_volume   1710.10226991
_cell_formula_units_Z   6
loop_
 _symmetry_equiv_pos_site_id
 _symmetry_equiv_pos_as_xyz
  1  'x, y, z'
loop_
 _atom_site_type_symbol
 _atom_site_label
 _atom_site_symmetry_multiplicity
 _atom_site_fract_x
 _atom_site_fract_y
 _atom_site_fract_z
 _atom_site_occupancy
  Na  Na0  1  0.65195337  0.01940843  0.24825686  1
  Na  Na1  1  0.37395852  0.36071327  0.24207225  1
  Na  Na2  1  0.97383425  0.62053186  0.24394570  1
  Na  Na3  1  0.63928673  0.62604148  0.74207225  1
  Na  Na4  1  0.98059157  0.34804663  0.74825686  1
  Na  Na5  1  0.37946814  0.02616575  0.74394570  1
  Na  Na6  1  0.31862037  0.35274143  0.58158986  1
  Na  Na7  1  0.04062552  0.69404627  0.57540525  1
  Na  Na8  1  0.64050125  0.95386486  0.57727870  1
  Na  Na9  1  0.30595373  0.95937448  0.07540525  1
  Na  Na10  1  0.64725857  0.68137963  0.08158986  1
  Na  Na11  1  0.04613514  0.35949875  0.07727870  1
  Na  Na12  1  0.98528637  0.68607543  0.91492386  1
  Na  Na13  1  0.70729152  0.02738027  0.90873925  1
  Na  Na14  1  0.30716725  0.28719886  0.91061270  1
  Na  Na15  1  0.97261973  0.29270848  0.40873925  1
  Na  Na16  1  0.31392457  0.01471363  0.41492386  1
  Na  Na17  1  0.71280114  0.69283275  0.41061270  1
  Na  Na18  1  0.98978940  0.99012736  0.49359992  1
  Na  Na19  1  0.00987264  0.01021060  0.99359992  1
  Na  Na20  1  0.65645640  0.32346036  0.82693292  1
  Na  Na21  1  0.67653964  0.34354360  0.32693292  1
  Na  Na22  1  0.32312240  0.65679436  0.16026692  1
  Na  Na23  1  0.34320564  0.67687760  0.66026692  1
  Ca  Ca0  1  0.99883151  0.99912679  0.34872870  1
  Ca  Ca1  1  0.00087321  0.00116849  0.84872870  1
  Ca  Ca2  1  0.66549851  0.33245979  0.68206170  1
  Ca  Ca3  1  0.66754021  0.33450149  0.18206170  1
  Ca  Ca4  1  0.33216451  0.66579379  0.01539570  1
  Ca  Ca5  1  0.33420621  0.66783549  0.51539570  1
  Nb  Nb0  1  0.99894850  0.00095718  0.64841001  1
  Nb  Nb1  1  0.99904282  0.00105150  0.14841001  1
  Nb  Nb2  1  0.66561550  0.33429018  0.98174301  1
  Nb  Nb3  1  0.66570982  0.33438450  0.48174301  1
  Nb  Nb4  1  0.33228150  0.66762418  0.31507701  1
  Nb  Nb5  1  0.33237582  0.66771850  0.81507701  1
  Si  Si0  1  0.69517784  0.70314100  0.25298077  1
  Si  Si1  1  0.00802143  0.30450825  0.25335972  1
  Si  Si2  1  0.29685900  0.30482216  0.75298077  1
  Si  Si3  1  0.69549175  0.99197857  0.75335972  1
  Si  Si4  1  0.36184484  0.03647400  0.58631377  1
  Si  Si5  1  0.67468843  0.63784125  0.58669272  1
  Si  Si6  1  0.96352600  0.63815516  0.08631377  1
  Si  Si7  1  0.36215875  0.32531157  0.08669272  1
  Si  Si8  1  0.02851084  0.36980800  0.91964777  1
  Si  Si9  1  0.34135443  0.97117525  0.92002672  1
  Si  Si10  1  0.63019200  0.97148916  0.41964777  1
  Si  Si11  1  0.02882475  0.65864557  0.42002672  1
  P  P0  1  0.29094316  0.98764447  0.25082589  1
  P  P1  1  0.01235553  0.70905684  0.75082589  1
  P  P2  1  0.95761016  0.32097747  0.58415889  1
  P  P3  1  0.67902253  0.04238984  0.08415889  1
  P  P4  1  0.62427616  0.65431147  0.91749289  1
  P  P5  1  0.34568853  0.37572384  0.41749289  1
  O  O0  1  0.22403159  0.01683773  0.30816667  1
  O  O1  1  0.79994518  0.77752346  0.31160768  1
  O  O2  1  0.98877687  0.20675382  0.31269310  1
  O  O3  1  0.22247654  0.20005482  0.81160768  1
  O  O4  1  0.98316227  0.77596841  0.80816667  1
  O  O5  1  0.79324618  0.01122313  0.81269310  1
  O  O6  1  0.80651421  0.97096488  0.69481712  1
  O  O7  1  0.16371441  0.19344655  0.69482489  1
  O  O8  1  0.03061511  0.82903647  0.69647164  1
  O  O9  1  0.80655345  0.83628559  0.19482489  1
  O  O10  1  0.02903512  0.19348579  0.19481712  1
  O  O11  1  0.17096353  0.96938489  0.19647164  1
  O  O12  1  0.89069859  0.35017073  0.64149967  1
  O  O13  1  0.46661218  0.11085646  0.64494068  1
  O  O14  1  0.65544387  0.54008682  0.64602610  1
  O  O15  1  0.88914354  0.53338782  0.14494068  1
  O  O16  1  0.64982927  0.10930141  0.14149967  1
  O  O17  1  0.45991318  0.34455613  0.14602610  1
  O  O18  1  0.47318121  0.30429788  0.02815012  1
  O  O19  1  0.83038141  0.52677955  0.02815789  1
  O  O20  1  0.69728211  0.16236947  0.02980464  1
  O  O21  1  0.47322045  0.16961859  0.52815789  1
  O  O22  1  0.69570212  0.52681879  0.52815012  1
  O  O23  1  0.83763053  0.30271789  0.52980464  1
  O  O24  1  0.55736459  0.68350473  0.97483367  1
  O  O25  1  0.13327818  0.44419046  0.97827468  1
  O  O26  1  0.32210987  0.87342082  0.97936010  1
  O  O27  1  0.55580954  0.86672182  0.47827468  1
  O  O28  1  0.31649527  0.44263541  0.47483367  1
  O  O29  1  0.12657918  0.67789013  0.47936010  1
  O  O30  1  0.13984721  0.63763188  0.36148412  1
  O  O31  1  0.49704741  0.86011355  0.36149189  1
  O  O32  1  0.36394811  0.49570347  0.36313864  1
  O  O33  1  0.13988645  0.50295259  0.86149189  1
  O  O34  1  0.36236812  0.86015279  0.86148412  1
  O  O35  1  0.50429653  0.63605189  0.86313864  1
  O  O36  1  0.00351051  0.81572485  0.41401420  1
  O  O37  1  0.81675289  0.00863705  0.41348031  1
  O  O38  1  0.20676740  0.19984854  0.40875858  1
  O  O39  1  0.99136295  0.18324711  0.91348031  1
  O  O40  1  0.18427515  0.99648949  0.91401420  1
  O  O41  1  0.80015146  0.79323260  0.90875858  1
  O  O42  1  0.95473744  0.14978254  0.58610626  1
  O  O43  1  0.18284138  0.04028270  0.58871176  1
  O  O44  1  0.85440257  0.81907031  0.58816795  1
  O  O45  1  0.95971730  0.81715862  0.08871176  1
  O  O46  1  0.85021746  0.04526256  0.08610626  1
  O  O47  1  0.18092969  0.14559743  0.08816795  1
  O  O48  1  0.67017751  0.14905785  0.74734720  1
  O  O49  1  0.48341989  0.34197005  0.74681331  1
  O  O50  1  0.87343440  0.53318154  0.74209158  1
  O  O51  1  0.65802995  0.51658011  0.24681331  1
  O  O52  1  0.85094215  0.32982249  0.24734720  1
  O  O53  1  0.46681846  0.12656560  0.24209158  1
  O  O54  1  0.62140444  0.48311554  0.91943926  1
  O  O55  1  0.84950838  0.37361570  0.92204476  1
  O  O56  1  0.52106957  0.15240331  0.92150095  1
  O  O57  1  0.62638430  0.15049162  0.42204476  1
  O  O58  1  0.51688446  0.37859556  0.41943926  1
  O  O59  1  0.84759669  0.47893043  0.42150095  1
  O  O60  1  0.33684351  0.48239185  0.08068120  1
  O  O61  1  0.15008589  0.67530405  0.08014731  1
  O  O62  1  0.54010040  0.86651554  0.07542558  1
  O  O63  1  0.32469595  0.84991411  0.58014731  1
  O  O64  1  0.51760815  0.66315649  0.58068120  1
  O  O65  1  0.13348446  0.45989960  0.57542558  1
  O  O66  1  0.28807044  0.81644954  0.25277326  1
  O  O67  1  0.51617438  0.70694970  0.25537876  1
  O  O68  1  0.18773557  0.48573731  0.25483495  1
  O  O69  1  0.29305030  0.48382562  0.75537876  1
  O  O70  1  0.18355046  0.71192956  0.75277326  1
  O  O71  1  0.51426269  0.81226443  0.75483495  1
loop_
_geom_bond_atom_site_label_1
_geom_bond_atom_site_label_2
_geom_bond_distance
_geom_bond_site_symmetry_2
Na0 O53 2.400376 1_555
Na0 O67 2.550621 1_545
Na0 O16 2.550745 1_555
Na0 O52 2.556584 1_555
Na1 O51 2.314730 1_555
Na1 O17 2.331262 1_555
Na1 O68 2.551924 1_555
Na1 O53 2.730470 1_555
Na1 O67 2.841628 1_555
Na1 O10 3.000020 1_555
Na1 O32 3.016185 1_555
Na2 O15 2.367644 1_555
Na2 O52 2.371935 1_555
Na2 O66 2.588006 1_655
Na2 O51 2.613794 1_555
Na2 O68 2.860479 1_655
Na3 O49 2.314730 1_555
Na3 O14 2.331262 1_555
Na3 O71 2.551923 1_555
Na3 O50 2.730470 1_555
Na3 O69 2.841628 1_555
Na3 O6 3.000020 1_555
Na3 O35 3.016185 1_555
Na4 O50 2.400376 1_555
Na4 O69 2.550621 1_655
Na4 O12 2.550745 1_555
Na4 O48 2.556584 1_555
Na5 O13 2.367644 1_555
Na5 O48 2.371935 1_555
Na5 O70 2.588006 1_545
Na5 O49 2.613794 1_555
Na5 O71 2.860479 1_545
Na6 O65 2.400391 1_555
Na6 O43 2.550621 1_555
Na6 O28 2.550729 1_555
Na6 O64 2.556589 1_555
Na7 O63 2.314724 1_555
Na7 O29 2.331236 1_555
Na7 O44 2.551924 1_455
Na7 O65 2.730455 1_555
Na7 O43 2.841628 1_565
Na7 O22 3.000020 1_455
Na7 O8 3.016185 1_555
Na8 O27 2.367623 1_555
Na8 O64 2.371926 1_555
Na8 O42 2.588006 1_565
Na8 O63 2.613805 1_555
Na8 O44 2.860479 1_555
Na9 O61 2.314724 1_555
Na9 O26 2.331236 1_554
Na9 O47 2.551923 1_565
Na9 O62 2.730455 1_555
Na9 O45 2.841628 1_455
Na9 O18 3.000020 1_565
Na9 O11 3.016185 1_555
Na10 O62 2.400391 1_555
Na10 O45 2.550621 1_555
Na10 O24 2.550729 1_554
Na10 O60 2.556589 1_555
Na11 O25 2.367623 1_554
Na11 O60 2.371927 1_555
Na11 O46 2.588006 1_455
Na11 O61 2.613805 1_555
Na11 O47 2.860479 1_555
Na12 O41 2.400376 1_555
Na12 O55 2.550629 1_555
Na12 O4 2.550745 1_555
Na12 O40 2.556584 1_655
Na13 O39 2.314730 1_555
Na13 O5 2.331262 1_555
Na13 O56 2.551905 1_555
Na13 O41 2.730470 1_545
Na13 O55 2.841616 1_555
Na13 O34 3.000020 1_545
Na13 O20 3.016158 1_556
Na14 O3 2.367644 1_555
Na14 O40 2.371935 1_545
Na14 O54 2.588010 1_555
Na14 O39 2.613794 1_455
Na14 O56 2.860493 1_555
Na15 O37 2.314730 1_555
Na15 O2 2.331262 1_555
Na15 O59 2.551905 1_555
Na15 O38 2.730470 1_655
Na15 O57 2.841616 1_555
Na15 O30 3.000020 1_655
Na15 O23 3.016158 1_555
Na16 O38 2.400376 1_555
Na16 O57 2.550629 1_555
Na16 O0 2.550745 1_555
Na16 O36 2.556584 1_545
Na17 O1 2.367644 1_555
Na17 O36 2.371935 1_655
Na17 O58 2.588010 1_555
Na17 O37 2.613794 1_565
Na17 O59 2.860493 1_555
Na18 O36 2.462222 1_655
Na18 O37 2.491842 1_565
Na18 O44 2.584830 1_555
Na18 O42 2.668111 1_565
Na18 O43 2.691455 1_665
Na18 O38 2.766752 1_665
Na19 O40 2.462222 1_545
Na19 O39 2.491842 1_455
Na19 O47 2.584830 1_556
Na19 O46 2.668111 1_456
Na19 O45 2.691455 1_446
Na19 O41 2.766752 1_445
Na20 O48 2.462222 1_555
Na20 O49 2.491842 1_555
Na20 O56 2.584830 1_555
Na20 O54 2.668111 1_555
Na20 O55 2.691455 1_555
Na20 O50 2.766752 1_555
Na21 O52 2.462222 1_555
Na21 O51 2.491842 1_555
Na21 O59 2.584830 1_555
Na21 O58 2.668111 1_555
Na21 O57 2.691455 1_555
Na21 O53 2.766752 1_555
Na22 O60 2.462222 1_555
Na22 O61 2.491842 1_555
Na22 O68 2.584830 1_555
Na22 O66 2.668111 1_555
Na22 O67 2.691455 1_555
Na22 O62 2.766752 1_555
Na23 O64 2.462222 1_555
Na23 O63 2.491842 1_555
Na23 O71 2.584830 1_555
Na23 O70 2.668111 1_555
Na23 O69 2.691455 1_555
Na23 O65 2.766752 1_555
Ca0 O1 2.151013 1_555
Ca0 O2 2.154421 1_565
Ca0 O0 2.222608 1_665
Ca0 O37 2.271354 1_565
Ca0 O36 2.281278 1_655
Ca0 O38 2.346857 1_665
Ca1 O3 2.151013 1_555
Ca1 O5 2.154421 1_455
Ca1 O4 2.222607 1_445
Ca1 O39 2.271354 1_455
Ca1 O40 2.281278 1_545
Ca1 O41 2.346857 1_445
Ca2 O13 2.151013 1_555
Ca2 O14 2.154421 1_555
Ca2 O12 2.222608 1_555
Ca2 O49 2.271354 1_555
Ca2 O48 2.281278 1_555
Ca2 O50 2.346857 1_555
Ca3 O15 2.151013 1_555
Ca3 O17 2.154421 1_555
Ca3 O16 2.222607 1_555
Ca3 O51 2.271354 1_555
Ca3 O52 2.281278 1_555
Ca3 O53 2.346857 1_555
Ca4 O25 2.151013 1_554
Ca4 O26 2.154421 1_554
Ca4 O24 2.222608 1_554
Ca4 O61 2.271354 1_555
Ca4 O60 2.281278 1_555
Ca4 O62 2.346857 1_555
Ca5 O27 2.151013 1_555
Ca5 O29 2.154421 1_555
Ca5 O28 2.222607 1_555
Ca5 O63 2.271354 1_555
Ca5 O64 2.281278 1_555
Ca5 O65 2.346857 1_555
Nb0 O6 1.973653 1_545
Nb0 O7 1.987639 1_655
Nb0 O43 2.062461 1_655
Nb0 O44 2.066570 1_545
Nb0 O8 2.083325 1_645
Nb0 O42 2.161568 1_555
Nb1 O10 1.973653 1_655
Nb1 O9 1.987639 1_545
Nb1 O45 2.062461 1_545
Nb1 O47 2.066570 1_655
Nb1 O11 2.083325 1_645
Nb1 O46 2.161568 1_555
Nb2 O18 1.973653 1_556
Nb2 O19 1.987639 1_556
Nb2 O55 2.062461 1_555
Nb2 O56 2.066570 1_555
Nb2 O20 2.083325 1_556
Nb2 O54 2.161568 1_555
Nb3 O22 1.973653 1_555
Nb3 O21 1.987639 1_555
Nb3 O57 2.062461 1_555
Nb3 O59 2.066570 1_555
Nb3 O23 2.083325 1_555
Nb3 O58 2.161568 1_555
Nb4 O30 1.973653 1_555
Nb4 O31 1.987639 1_555
Nb4 O67 2.062461 1_555
Nb4 O68 2.066570 1_555
Nb4 O32 2.083325 1_555
Nb4 O66 2.161568 1_555
Nb5 O34 1.973653 1_555
Nb5 O33 1.987639 1_555
Nb5 O69 2.062461 1_555
Nb5 O71 2.066570 1_555
Nb5 O35 2.083325 1_555
Nb5 O70 2.161568 1_555
O0 P0 1.512689 1_545
O1 Si0 1.584043 1_555
O2 Si1 1.579599 1_655
O3 Si2 1.584043 1_555
O4 P1 1.512689 1_655
O5 Si3 1.579599 1_545
O6 Si3 1.743327 1_555
O7 Si2 1.749704 1_555
O8 P1 1.613909 1_555
O9 Si0 1.749704 1_555
O10 Si1 1.743327 1_555
O11 P0 1.613909 1_555
O12 P2 1.512689 1_555
O13 Si4 1.584043 1_555
O14 Si5 1.579599 1_555
O15 Si6 1.584043 1_555
O16 P3 1.512689 1_555
O17 Si7 1.579599 1_555
O18 Si7 1.743327 1_555
O19 Si6 1.749704 1_555
O20 P3 1.613909 1_555
O21 Si4 1.749704 1_555
O22 Si5 1.743327 1_555
O23 P2 1.613909 1_555
O24 P4 1.512689 1_555
O25 Si8 1.584043 1_555
O26 Si9 1.579599 1_555
O27 Si10 1.584043 1_555
O28 P5 1.512689 1_555
O29 Si11 1.579599 1_555
O30 Si11 1.743327 1_555
O31 Si10 1.749704 1_555
O32 P5 1.613909 1_555
O33 Si8 1.749704 1_555
O34 Si9 1.743327 1_555
O35 P4 1.613909 1_555
O36 Si11 1.608029 1_555
O37 Si10 1.607884 1_545
O38 P5 1.520618 1_555
O39 Si8 1.607884 1_655
O40 Si9 1.608029 1_555
O41 P4 1.520618 1_555
O42 P2 1.590384 1_555
O43 Si4 1.694472 1_555
O44 Si5 1.695145 1_555
O45 Si6 1.694472 1_555
O46 P3 1.590384 1_555
O47 Si7 1.695145 1_555
O48 Si3 1.608029 1_545
O49 Si2 1.607884 1_555
O50 P1 1.520618 1_655
O51 Si0 1.607884 1_555
O52 Si1 1.608029 1_655
O53 P0 1.520618 1_545
O54 P4 1.590397 1_555
O55 Si8 1.694457 1_655
O56 Si9 1.695144 1_545
O57 Si10 1.694457 1_545
O58 P5 1.590397 1_555
O59 Si11 1.695144 1_655
O60 Si7 1.608041 1_555
O61 Si6 1.607870 1_455
O62 P3 1.520612 1_565
O63 Si4 1.607870 1_565
O64 Si5 1.608042 1_555
O65 P2 1.520612 1_455
O66 P0 1.590384 1_555
O67 Si0 1.694472 1_555
O68 Si1 1.695145 1_555
O69 Si2 1.694472 1_555
O70 P1 1.590384 1_555
O71 Si3 1.695145 1_555
