# generated using pymatgen
data_NaMgTa3Si3(SO8)3
_symmetry_space_group_name_H-M   'P 1'
_cell_length_a   8.83520591
_cell_length_b   8.82468411
_cell_length_c   22.86193101
_cell_angle_alpha   90.16288598
_cell_angle_beta   89.78972977
_cell_angle_gamma   119.99705994
_symmetry_Int_Tables_number   1
_chemical_formula_structural   NaMgTa3Si3(SO8)3
_chemical_formula_sum   'Na3 Mg3 Ta9 Si9 S9 O72'
_cell_volume   1543.72178254
_cell_formula_units_Z   3
loop_
 _symmetry_equiv_pos_site_id
 _symmetry_equiv_pos_as_xyz
  1  'x, y, z'
loop_
 _atom_site_type_symbol
 _atom_site_label
 _atom_site_symmetry_multiplicity
 _atom_site_fract_x
 _atom_site_fract_y
 _atom_site_fract_z
 _atom_site_occupancy
  Na  Na0  1  0.99644052  0.00043769  0.99124473  1
  Na  Na1  1  0.68643142  0.33930236  0.84143061  1
  Na  Na2  1  0.65534760  0.33318063  0.33851938  1
  Mg  Mg0  1  0.98570880  0.99820316  0.85483544  1
  Mg  Mg1  1  0.68451521  0.34666843  0.97715557  1
  Mg  Mg2  1  0.65031140  0.32959249  0.47817017  1
  Ta  Ta0  1  0.00931028  0.00992727  0.35511766  1
  Ta  Ta1  1  0.99703517  0.98585611  0.64759329  1
  Ta  Ta2  1  0.00057001  0.99203494  0.14812617  1
  Ta  Ta3  1  0.66291028  0.31726980  0.68937827  1
  Ta  Ta4  1  0.67920092  0.34152194  0.19013877  1
  Ta  Ta5  1  0.31860569  0.65329596  0.02046980  1
  Ta  Ta6  1  0.32972997  0.66324533  0.52298054  1
  Ta  Ta7  1  0.33498890  0.65649852  0.30643753  1
  Ta  Ta8  1  0.32194158  0.66643992  0.80931420  1
  Si  Si0  1  0.28992176  0.00163534  0.25074979  1
  Si  Si1  1  0.71969645  0.71644576  0.25212377  1
  Si  Si2  1  0.99743875  0.28065044  0.24927783  1
  Si  Si3  1  0.99085916  0.71056979  0.75433261  1
  Si  Si4  1  0.71653089  0.99406248  0.75345066  1
  Si  Si5  1  0.37779484  0.05010263  0.57970363  1
  Si  Si6  1  0.95126419  0.62291126  0.07988231  1
  Si  Si7  1  0.03283119  0.35977356  0.91410304  1
  Si  Si8  1  0.34183932  0.37985508  0.41670183  1
  S  S0  1  0.28785040  0.28707426  0.75023774  1
  S  S1  1  0.95207460  0.33086994  0.58185986  1
  S  S2  1  0.66696942  0.62103834  0.58202267  1
  S  S3  1  0.66780553  0.04611471  0.08193849  1
  S  S4  1  0.38089447  0.33216400  0.08149794  1
  S  S5  1  0.61734696  0.66424813  0.91692762  1
  S  S6  1  0.33386936  0.95410583  0.91731171  1
  S  S7  1  0.61954042  0.95241419  0.41643694  1
  S  S8  1  0.04612540  0.66480724  0.41700315  1
  O  O0  1  0.19748345  0.03610680  0.30794350  1
  O  O1  1  0.83868779  0.80174335  0.30943514  1
  O  O2  1  0.96373590  0.15989325  0.30744718  1
  O  O3  1  0.22166366  0.18074102  0.80223028  1
  O  O4  1  0.96310448  0.79535705  0.81029487  1
  O  O5  1  0.83768837  0.05250522  0.80820943  1
  O  O6  1  0.80790948  0.97735261  0.69203847  1
  O  O7  1  0.18001607  0.20772089  0.69685997  1
  O  O8  1  0.02571550  0.83049362  0.69360590  1
  O  O9  1  0.80569434  0.83386267  0.19338605  1
  O  O10  1  0.03052551  0.19729447  0.19136708  1
  O  O11  1  0.16604414  0.96918006  0.19365281  1
  O  O12  1  0.87421234  0.36626970  0.63508214  1
  O  O13  1  0.49987394  0.14115101  0.63886974  1
  O  O14  1  0.63523275  0.51502839  0.63489294  1
  O  O15  1  0.86103689  0.50171444  0.14001365  1
  O  O16  1  0.63933077  0.12575812  0.13626486  1
  O  O17  1  0.48539421  0.35677104  0.13537477  1
  O  O18  1  0.45345879  0.29914593  0.02967095  1
  O  O19  1  0.83060454  0.54184616  0.02572675  1
  O  O20  1  0.69519303  0.15269417  0.03081758  1
  O  O21  1  0.46432632  0.16446153  0.52446093  1
  O  O22  1  0.70276681  0.55059354  0.52987612  1
  O  O23  1  0.84989572  0.30695168  0.52974917  1
  O  O24  1  0.52909374  0.68790627  0.97090953  1
  O  O25  1  0.16508930  0.48010438  0.97260528  1
  O  O26  1  0.31754237  0.84238218  0.97028365  1
  O  O27  1  0.53130618  0.84142934  0.46962211  1
  O  O28  1  0.31048907  0.47912378  0.47396130  1
  O  O29  1  0.15893944  0.69462296  0.47045310  1
  O  O30  1  0.13295234  0.64425633  0.36479957  1
  O  O31  1  0.50847031  0.86941946  0.36440544  1
  O  O32  1  0.35088656  0.50424703  0.36122927  1
  O  O33  1  0.15265701  0.49889470  0.86020163  1
  O  O34  1  0.36106637  0.86934858  0.86358429  1
  O  O35  1  0.51105103  0.65011121  0.86438550  1
  O  O36  1  0.03196932  0.82465438  0.41103572  1
  O  O37  1  0.78939228  0.95708795  0.41043313  1
  O  O38  1  0.15808542  0.19065489  0.40795806  1
  O  O39  1  0.04188328  0.18460572  0.91579256  1
  O  O40  1  0.17315370  0.95890836  0.91297260  1
  O  O41  1  0.78984011  0.81992392  0.91481055  1
  O  O42  1  0.98074023  0.18356046  0.59319997  1
  O  O43  1  0.18459461  0.02386371  0.59679658  1
  O  O44  1  0.81937009  0.80173205  0.59180823  1
  O  O45  1  0.98613659  0.82395254  0.09178858  1
  O  O46  1  0.82671729  0.02793721  0.09109432  1
  O  O47  1  0.19887586  0.18230852  0.09062006  1
  O  O48  1  0.68237275  0.16296669  0.73830181  1
  O  O49  1  0.46960957  0.31591929  0.73869022  1
  O  O50  1  0.82676398  0.51817950  0.73495587  1
  O  O51  1  0.68915785  0.51992401  0.24075888  1
  O  O52  1  0.82437776  0.30097205  0.24183363  1
  O  O53  1  0.47877563  0.17183151  0.23794436  1
  O  O54  1  0.61946017  0.49986616  0.92158671  1
  O  O55  1  0.85271300  0.35897232  0.91747419  1
  O  O56  1  0.49072461  0.12511266  0.92384460  1
  O  O57  1  0.64670964  0.12814465  0.42280015  1
  O  O58  1  0.51335597  0.36554974  0.41699737  1
  O  O59  1  0.87637152  0.50868042  0.42508780  1
  O  O60  1  0.36641816  0.49501827  0.07545451  1
  O  O61  1  0.15190125  0.65046896  0.07295057  1
  O  O62  1  0.51403314  0.86738209  0.07559604  1
  O  O63  1  0.35126346  0.84970007  0.57061054  1
  O  O64  1  0.51008220  0.64505115  0.57377900  1
  O  O65  1  0.13127885  0.49395478  0.57518698  1
  O  O66  1  0.30753839  0.83316015  0.26566844  1
  O  O67  1  0.52806524  0.69696425  0.26036397  1
  O  O68  1  0.16253198  0.47477214  0.26074109  1
  O  O69  1  0.31093586  0.46479843  0.75644768  1
  O  O70  1  0.16508085  0.68654592  0.75950353  1
  O  O71  1  0.52021400  0.82474061  0.76159304  1
loop_
_geom_bond_atom_site_label_1
_geom_bond_atom_site_label_2
_geom_bond_distance
_geom_bond_site_symmetry_2
Na0 O39 2.266387 1_655
Na0 O41 2.454204 1_545
Na0 O40 2.514359 1_645
Na0 O45 2.755829 1_546
Na0 O46 2.802512 1_556
Na0 O47 2.841688 1_656
Na1 O55 2.230003 1_555
Na1 O54 2.555687 1_555
Na1 O56 2.615501 1_555
Na1 O48 2.811686 1_555
Na1 O50 2.827924 1_555
Na1 O49 2.977320 1_555
Na2 O58 2.283269 1_555
Na2 O57 2.621637 1_555
Na2 O59 2.667535 1_555
Na2 O51 2.706286 1_555
Na2 O53 2.744942 1_555
Na2 O52 2.755664 1_555
Mg0 O5 1.927691 1_565
Mg0 O4 1.978570 1_555
Mg0 O39 2.017421 1_665
Mg0 O41 2.149990 1_555
Mg0 O3 2.240977 1_665
Mg0 O40 2.285289 1_655
Mg1 O19 1.908495 1_556
Mg1 O55 1.976478 1_555
Mg1 O54 2.136378 1_555
Mg1 O20 2.149040 1_556
Mg1 O56 2.212271 1_555
Mg1 O18 2.216663 1_556
Mg2 O21 1.882908 1_555
Mg2 O58 1.979799 1_555
Mg2 O22 2.121983 1_555
Mg2 O57 2.166709 1_555
Mg2 O59 2.190077 1_555
Mg2 O23 2.215576 1_555
O0 Si0 1.645475 1_555
O0 Ta0 1.893353 1_555
O1 Si1 1.613018 1_555
O1 Ta0 1.992439 1_665
O2 Si2 1.637273 1_555
O2 Ta0 1.909328 1_655
O3 S0 1.444965 1_555
O4 Si3 1.559667 1_555
O5 Si4 1.559880 1_545
O6 Si4 1.659614 1_555
O6 Ta1 1.921669 1_555
O7 S0 1.491250 1_555
O7 Ta1 2.133406 1_445
O8 Si3 1.679765 1_455
O8 Ta1 1.846085 1_455
O9 Si1 1.633224 1_555
O9 Ta2 1.890907 1_655
O10 Si2 1.608115 1_455
O10 Ta2 1.959769 1_545
O11 Si0 1.636697 1_565
O11 Ta2 1.889084 1_555
O12 S1 1.502641 1_555
O12 Ta3 2.095709 1_555
O13 Si5 1.666309 1_555
O13 Ta3 1.894010 1_555
O14 S2 1.468481 1_555
O14 Ta3 2.257942 1_555
O15 Si6 1.678397 1_555
O15 Ta4 1.901957 1_555
O16 S3 1.506447 1_555
O16 Ta4 2.141416 1_555
O17 S4 1.491008 1_555
O17 Ta4 2.182839 1_555
O18 S4 1.441905 1_555
O19 Si6 1.556668 1_555
O20 S3 1.444185 1_555
O21 Si5 1.557782 1_555
O22 S2 1.448230 1_555
O23 S1 1.447341 1_555
O24 S5 1.526073 1_555
O24 Ta5 2.062554 1_556
O25 Si7 1.744865 1_555
O25 Ta5 1.817027 1_556
O26 S6 1.524066 1_555
O26 Ta5 2.031615 1_556
O27 S7 1.510557 1_555
O27 Ta6 2.080198 1_555
O28 Si8 1.670691 1_555
O28 Ta6 1.907797 1_555
O29 S8 1.516838 1_555
O29 Ta6 2.056394 1_555
O30 S8 1.475441 1_555
O30 Ta7 2.183759 1_555
O31 S7 1.483029 1_555
O31 Ta7 2.181088 1_555
O32 Si8 1.655043 1_555
O32 Ta7 1.895677 1_555
O33 Si7 1.687008 1_555
O33 Ta8 1.887420 1_555
O34 S6 1.515998 1_555
O34 Ta8 2.058335 1_555
O35 S5 1.493570 1_555
O35 Ta8 2.157496 1_555
O36 S8 1.483806 1_555
O36 Ta0 2.165310 1_565
O37 S7 1.486338 1_555
O37 Ta0 2.161343 1_665
O38 Si8 1.659357 1_555
O38 Ta0 1.906631 1_555
O39 Si7 1.587882 1_555
O40 S6 1.445387 1_555
O41 S5 1.455543 1_555
O42 S1 1.467262 1_555
O42 Ta1 2.208126 1_545
O43 Si5 1.649380 1_555
O43 Ta1 1.907757 1_445
O44 S2 1.503007 1_555
O44 Ta1 2.045293 1_555
O45 Si6 1.663684 1_555
O45 Ta2 1.917415 1_655
O46 S3 1.506108 1_555
O46 Ta2 2.159503 1_645
O47 S4 1.500376 1_555
O47 Ta2 2.161384 1_545
O48 Si4 1.698879 1_545
O48 Ta3 1.838189 1_555
O49 S0 1.517192 1_555
O49 Ta3 2.038001 1_555
O50 Si3 1.649199 1_555
O50 Ta3 1.938824 1_555
O51 Si1 1.636452 1_555
O51 Ta4 1.917675 1_555
O52 Si2 1.635640 1_555
O52 Ta4 1.908539 1_555
O53 Si0 1.618231 1_555
O53 Ta4 1.978951 1_555
O54 S5 1.464228 1_555
O55 Si7 1.589445 1_655
O56 S6 1.459203 1_545
O57 S7 1.452726 1_545
O58 Si8 1.582321 1_555
O59 S8 1.454320 1_655
O60 S4 1.511908 1_555
O60 Ta5 2.076876 1_555
O61 Si6 1.671441 1_455
O61 Ta5 1.886788 1_555
O62 S3 1.487296 1_565
O62 Ta5 2.208969 1_555
O63 Si5 1.676148 1_565
O63 Ta6 1.899369 1_555
O64 S2 1.515793 1_555
O64 Ta6 2.045496 1_555
O65 S1 1.523934 1_455
O65 Ta6 2.026388 1_555
O66 Si0 1.607983 1_565
O66 Ta7 1.935452 1_555
O67 Si1 1.624325 1_555
O67 Ta7 1.877993 1_555
O68 Si2 1.622535 1_455
O68 Ta7 1.882472 1_555
O69 S0 1.483440 1_555
O69 Ta8 2.110026 1_555
O70 Si3 1.660150 1_455
O70 Ta8 1.872857 1_555
O71 Si4 1.638152 1_555
O71 Ta8 1.938604 1_555
