# generated using pymatgen
data_SmGa4Co
_symmetry_space_group_name_H-M   'P 1'
_cell_length_a   4.10060438
_cell_length_b   6.40445828
_cell_length_c   8.08754853
_cell_angle_alpha   90.00000000
_cell_angle_beta   104.68552440
_cell_angle_gamma   90.00000000
_symmetry_Int_Tables_number   1
_chemical_formula_structural   SmGa4Co
_chemical_formula_sum   'Sm2 Ga8 Co2'
_cell_volume   205.45780834
_cell_formula_units_Z   2
loop_
 _symmetry_equiv_pos_site_id
 _symmetry_equiv_pos_as_xyz
  1  'x, y, z'
loop_
 _atom_site_type_symbol
 _atom_site_label
 _atom_site_symmetry_multiplicity
 _atom_site_fract_x
 _atom_site_fract_y
 _atom_site_fract_z
 _atom_site_occupancy
  Sm  Sm0  1  0.88418933  0.75000000  0.76837966  1
  Sm  Sm1  1  0.11581067  0.25000000  0.23162034  1
  Ga  Ga0  1  0.69043118  0.94833051  0.38086336  1
  Ga  Ga1  1  0.30956882  0.05166949  0.61913664  1
  Ga  Ga2  1  0.30956882  0.44833051  0.61913664  1
  Ga  Ga3  1  0.69043118  0.55166949  0.38086336  1
  Ga  Ga4  1  0.92400736  0.25000000  0.84801471  1
  Ga  Ga5  1  0.07599264  0.75000000  0.15198529  1
  Ga  Ga6  1  0.50000000  0.50000000  0.00000000  1
  Ga  Ga7  1  0.50000000  0.00000000  0.00000000  1
  Co  Co0  1  0.77721529  0.25000000  0.55443159  1
  Co  Co1  1  0.22278471  0.75000000  0.44556841  1
loop_
_geom_bond_atom_site_label_1
_geom_bond_atom_site_label_2
_geom_bond_distance
_geom_bond_site_symmetry_2
Ga0 Ga3 2.540399 1_555
Ga0 Ga1 2.848963 1_565
Ga0 Ga1 2.848968 1_665
Ga0 Ga7 2.997944 1_565
Ga0 Ga5 3.003890 1_555
Ga0 Ga5 3.003893 1_655
Ga0 Sm1 3.049541 1_565
Ga0 Sm1 3.049547 1_665
Ga0 Sm0 3.287012 1_555
Ga1 Ga2 2.540399 1_555
Ga1 Ga7 2.997944 1_556
Ga1 Ga4 3.003890 1_555
Ga1 Ga4 3.003893 1_455
Ga1 Sm0 3.049541 1_545
Ga1 Sm0 3.049547 1_445
Ga1 Sm1 3.287012 1_555
Ga2 Ga3 2.848963 1_555
Ga2 Ga3 2.848968 1_455
Ga2 Ga6 2.997944 1_556
Ga2 Ga4 3.003890 1_555
Ga2 Ga4 3.003893 1_455
Ga2 Sm0 3.049541 1_555
Ga2 Sm0 3.049547 1_455
Ga2 Sm1 3.287012 1_555
Ga3 Ga6 2.997944 1_555
Ga3 Ga5 3.003890 1_555
Ga3 Ga5 3.003893 1_655
Ga3 Sm1 3.049541 1_555
Ga3 Sm1 3.049547 1_655
Ga3 Sm0 3.287012 1_555
Ga4 Ga7 2.860263 1_656
Ga4 Ga6 2.860263 1_656
Ga4 Ga7 2.860264 1_556
Ga4 Ga6 2.860264 1_556
Ga4 Sm1 3.001078 1_656
Ga4 Sm0 3.262272 1_555
Ga4 Sm0 3.262272 1_545
Ga5 Ga6 2.860263 1_455
Ga5 Ga7 2.860263 1_465
Ga5 Ga6 2.860264 1_555
Ga5 Ga7 2.860264 1_565
Ga5 Sm0 3.001078 1_454
Ga5 Sm1 3.262272 1_565
Ga5 Sm1 3.262272 1_555
Ga6 Sm0 3.170301 1_554
Ga6 Sm1 3.170301 1_555
Ga6 Sm0 3.170303 1_454
Ga6 Sm1 3.170303 1_655
Ga7 Sm1 3.170301 1_555
Ga7 Sm0 3.170301 1_544
Ga7 Sm0 3.170303 1_444
Ga7 Sm1 3.170303 1_655
Co0 Ga4 2.296801 1_555
Co0 Ga0 2.361480 1_545
Co0 Ga3 2.361480 1_555
Co0 Ga1 2.464422 1_555
Co0 Ga2 2.464422 1_555
Co0 Ga2 2.464429 1_655
Co0 Ga1 2.464429 1_655
Co0 Sm1 3.252950 1_555
Co0 Sm1 3.252956 1_655
Co1 Ga5 2.296801 1_555
Co1 Ga2 2.361480 1_555
Co1 Ga1 2.361480 1_565
Co1 Ga0 2.464422 1_555
Co1 Ga3 2.464422 1_555
Co1 Ga3 2.464429 1_455
Co1 Ga0 2.464429 1_455
Co1 Sm0 3.252950 1_555
Co1 Sm0 3.252956 1_455
