# generated using pymatgen
data_Ca3Cu2(ClO2)2
_symmetry_space_group_name_H-M   'P 1'
_cell_length_a   11.17940641
_cell_length_b   11.17940641
_cell_length_c   11.17940641
_cell_angle_alpha   160.02647366
_cell_angle_beta   160.02647366
_cell_angle_gamma   28.39367129
_symmetry_Int_Tables_number   1
_chemical_formula_structural   Ca3Cu2(ClO2)2
_chemical_formula_sum   'Ca3 Cu2 Cl2 O4'
_cell_volume   162.94734090
_cell_formula_units_Z   1
loop_
 _symmetry_equiv_pos_site_id
 _symmetry_equiv_pos_as_xyz
  1  'x, y, z'
loop_
 _atom_site_type_symbol
 _atom_site_label
 _atom_site_symmetry_multiplicity
 _atom_site_fract_x
 _atom_site_fract_y
 _atom_site_fract_z
 _atom_site_occupancy
  Ca  Ca0  1  0.00000000  0.00000000  0.00000000  1
  Ca  Ca1  1  0.14707700  0.14707700  0.00000000  1
  Ca  Ca2  1  0.85292300  0.85292300  0.00000000  1
  Cu  Cu0  1  0.42913000  0.42913000  0.00000000  1
  Cu  Cu1  1  0.57087000  0.57087000  0.00000000  1
  Cl  Cl0  1  0.29851900  0.29851900  0.00000000  1
  Cl  Cl1  1  0.70148100  0.70148100  0.00000000  1
  O  O0  1  0.42506600  0.92506600  0.50000000  1
  O  O1  1  0.92506600  0.42506600  0.50000000  1
  O  O2  1  0.07493400  0.57493400  0.50000000  1
  O  O3  1  0.57493400  0.07493400  0.50000000  1
loop_
_geom_bond_atom_site_label_1
_geom_bond_atom_site_label_2
_geom_bond_distance
_geom_bond_site_symmetry_2
Ca0 O1 2.529220 1_455
Ca0 O0 2.529220 1_545
Ca0 O2 2.529220 1_555
Ca0 O3 2.529220 1_454
Ca0 O3 2.529220 1_555
Ca0 O2 2.529220 1_544
Ca0 O0 2.529220 1_444
Ca0 O1 2.529220 1_444
Ca1 O2 2.490800 1_555
Ca1 O3 2.490800 1_454
Ca1 O3 2.490800 1_555
Ca1 O2 2.490800 1_544
Ca1 Cl1 2.984640 1_455
Ca1 Cl1 2.984640 1_545
Ca1 Cl1 2.984640 1_444
Ca1 Cl1 2.984640 1_556
Ca1 Cl0 3.282649 1_555
Ca2 O0 2.490800 1_655
Ca2 O1 2.490800 1_565
Ca2 O0 2.490800 1_554
Ca2 O1 2.490800 1_554
Ca2 Cl0 2.984640 1_565
Ca2 Cl0 2.984640 1_655
Ca2 Cl0 2.984640 1_554
Ca2 Cl0 2.984640 1_666
Ca2 Cl1 3.282649 1_555
Cu0 O1 1.940740 1_454
Cu0 O0 1.940740 1_544
Cu0 O1 1.940740 1_555
Cu0 O0 1.940740 1_555
Cu1 O2 1.940740 1_554
Cu1 O3 1.940740 1_554
Cu1 O3 1.940740 1_565
Cu1 O2 1.940740 1_655
Cl0 Cu0 2.831118 1_555
Cl1 Cu1 2.831118 1_555
