# generated using pymatgen
data_NbBi4ClO8
_symmetry_space_group_name_H-M   'P 1'
_cell_length_a   5.50261782
_cell_length_b   5.55825167
_cell_length_c   28.88222052
_cell_angle_alpha   90.00000000
_cell_angle_beta   90.00000000
_cell_angle_gamma   90.00000000
_symmetry_Int_Tables_number   1
_chemical_formula_structural   NbBi4ClO8
_chemical_formula_sum   'Nb4 Bi16 Cl4 O32'
_cell_volume   883.36082823
_cell_formula_units_Z   4
loop_
 _symmetry_equiv_pos_site_id
 _symmetry_equiv_pos_as_xyz
  1  'x, y, z'
loop_
 _atom_site_type_symbol
 _atom_site_label
 _atom_site_symmetry_multiplicity
 _atom_site_fract_x
 _atom_site_fract_y
 _atom_site_fract_z
 _atom_site_occupancy
  Nb  Nb0  1  0.00000000  0.98551008  0.75000000  1
  Nb  Nb1  1  0.50000000  0.48551008  0.75000000  1
  Nb  Nb2  1  0.00000000  0.01448992  0.25000000  1
  Nb  Nb3  1  0.50000000  0.51448992  0.25000000  1
  Bi  Bi0  1  0.49145888  0.49422308  0.06794094  1
  Bi  Bi1  1  0.47998578  0.04928683  0.84334281  1
  Bi  Bi2  1  0.97998578  0.54928683  0.65665719  1
  Bi  Bi3  1  0.47998578  0.95071317  0.34334281  1
  Bi  Bi4  1  0.97998578  0.45071317  0.15665719  1
  Bi  Bi5  1  0.50854112  0.50577692  0.93205906  1
  Bi  Bi6  1  0.00854112  0.00577692  0.56794094  1
  Bi  Bi7  1  0.50854112  0.49422308  0.43205906  1
  Bi  Bi8  1  0.02001422  0.45071317  0.34334281  1
  Bi  Bi9  1  0.52001422  0.04928683  0.65665719  1
  Bi  Bi10  1  0.02001422  0.54928683  0.84334281  1
  Bi  Bi11  1  0.52001422  0.95071317  0.15665719  1
  Bi  Bi12  1  0.99145888  0.00577692  0.93205906  1
  Bi  Bi13  1  0.49145888  0.50577692  0.56794094  1
  Bi  Bi14  1  0.99145888  0.99422308  0.43205906  1
  Bi  Bi15  1  0.00854112  0.99422308  0.06794094  1
  Cl  Cl0  1  0.50000000  0.00000000  0.50000000  1
  Cl  Cl1  1  0.00000000  0.50000000  0.50000000  1
  Cl  Cl2  1  0.50000000  0.00000000  -0.00000000  1
  Cl  Cl3  1  0.00000000  0.50000000  -0.00000000  1
  O  O0  1  0.24649206  0.30367619  0.23301194  1
  O  O1  1  0.74649206  0.19632381  0.76698806  1
  O  O2  1  0.24649206  0.69632381  0.73301194  1
  O  O3  1  0.74649206  0.80367619  0.26698806  1
  O  O4  1  0.75350794  0.30367619  0.26698806  1
  O  O5  1  0.25350794  0.19632381  0.73301194  1
  O  O6  1  0.75350794  0.69632381  0.76698806  1
  O  O7  1  0.25350794  0.80367619  0.23301194  1
  O  O8  1  0.39571822  0.57903623  0.31529663  1
  O  O9  1  0.89571822  0.92096377  0.68470337  1
  O  O10  1  0.39571822  0.42096377  0.81529663  1
  O  O11  1  0.89571822  0.07903623  0.18470337  1
  O  O12  1  0.60428178  0.57903623  0.18470337  1
  O  O13  1  0.10428178  0.92096377  0.81529663  1
  O  O14  1  0.60428178  0.42096377  0.68470337  1
  O  O15  1  0.10428178  0.07903623  0.31529663  1
  O  O16  1  0.75027581  0.25698794  0.10464771  1
  O  O17  1  0.25027581  0.24301206  0.89535229  1
  O  O18  1  0.75027581  0.74301206  0.60464771  1
  O  O19  1  0.25027581  0.75698794  0.39535229  1
  O  O20  1  0.24544597  0.24598357  0.10602171  1
  O  O21  1  0.74544597  0.25401643  0.89397829  1
  O  O22  1  0.24544597  0.75401643  0.60602171  1
  O  O23  1  0.74544597  0.74598357  0.39397829  1
  O  O24  1  0.75455403  0.24598357  0.39397829  1
  O  O25  1  0.25455403  0.25401643  0.60602171  1
  O  O26  1  0.75455403  0.75401643  0.89397829  1
  O  O27  1  0.25455403  0.74598357  0.10602171  1
  O  O28  1  0.24972419  0.25698794  0.39535229  1
  O  O29  1  0.74972419  0.24301206  0.60464771  1
  O  O30  1  0.24972419  0.74301206  0.89535229  1
  O  O31  1  0.74972419  0.75698794  0.10464771  1
loop_
_geom_bond_atom_site_label_1
_geom_bond_atom_site_label_2
_geom_bond_distance
_geom_bond_site_symmetry_2
Nb0 O5 1.886706 1_565
Nb0 O1 1.886706 1_465
Nb0 O9 2.003659 1_455
Nb0 O13 2.003659 1_555
Nb0 O2 2.159645 1_555
Nb0 O6 2.159645 1_455
Nb1 O2 1.886706 1_555
Nb1 O6 1.886706 1_555
Nb1 O14 2.003659 1_555
Nb1 O10 2.003659 1_555
Nb1 O1 2.159645 1_555
Nb1 O5 2.159645 1_555
Nb2 O7 1.886706 1_545
Nb2 O3 1.886706 1_445
Nb2 O11 2.003659 1_455
Nb2 O15 2.003659 1_555
Nb2 O0 2.159645 1_555
Nb2 O4 2.159645 1_455
Nb3 O0 1.886706 1_555
Nb3 O4 1.886706 1_555
Nb3 O12 2.003659 1_555
Nb3 O8 2.003659 1_555
Nb3 O7 2.159645 1_555
Nb3 O3 2.159645 1_555
Bi0 O27 2.206179 1_555
Bi0 O16 2.211553 1_555
Bi0 O20 2.223964 1_555
Bi0 O31 2.297105 1_555
Bi1 O17 2.239108 1_555
Bi1 O10 2.266937 1_555
Bi1 O13 2.332133 1_545
Bi1 O21 2.359540 1_555
Bi1 O30 2.599971 1_545
Bi1 O26 2.667386 1_545
Bi1 O1 2.771610 1_555
Bi2 O18 2.239108 1_555
Bi2 O9 2.266937 1_555
Bi2 O14 2.332133 1_555
Bi2 O22 2.359540 1_655
Bi2 O29 2.599971 1_555
Bi2 O25 2.667386 1_655
Bi2 O2 2.771610 1_655
Bi3 O19 2.239108 1_555
Bi3 O8 2.266937 1_555
Bi3 O15 2.332133 1_565
Bi3 O23 2.359540 1_555
Bi3 O28 2.599971 1_565
Bi3 O24 2.667386 1_565
Bi3 O3 2.771610 1_555
Bi4 O16 2.239108 1_555
Bi4 O11 2.266937 1_555
Bi4 O12 2.332133 1_555
Bi4 O20 2.359540 1_655
Bi4 O31 2.599971 1_555
Bi4 O27 2.667386 1_655
Bi4 O0 2.771610 1_655
Bi5 O21 2.206179 1_555
Bi5 O30 2.211553 1_555
Bi5 O26 2.223964 1_555
Bi5 O17 2.297105 1_555
Bi6 O22 2.206179 1_545
Bi6 O29 2.211553 1_455
Bi6 O25 2.223964 1_555
Bi6 O18 2.297105 1_445
Bi7 O23 2.206179 1_555
Bi7 O28 2.211553 1_555
Bi7 O24 2.223964 1_555
Bi7 O19 2.297105 1_555
Bi8 O28 2.239108 1_555
Bi8 O15 2.266937 1_555
Bi8 O8 2.332133 1_555
Bi8 O24 2.359540 1_455
Bi8 O19 2.599971 1_555
Bi8 O23 2.667386 1_455
Bi8 O4 2.771610 1_455
Bi9 O29 2.239108 1_555
Bi9 O14 2.266937 1_555
Bi9 O9 2.332133 1_545
Bi9 O25 2.359540 1_555
Bi9 O18 2.599971 1_545
Bi9 O22 2.667386 1_545
Bi9 O5 2.771610 1_555
Bi10 O30 2.239108 1_555
Bi10 O13 2.266937 1_555
Bi10 O10 2.332133 1_555
Bi10 O26 2.359540 1_455
Bi10 O17 2.599971 1_555
Bi10 O21 2.667386 1_455
Bi10 O6 2.771610 1_455
Bi11 O31 2.239108 1_555
Bi11 O12 2.266937 1_555
Bi11 O11 2.332133 1_565
Bi11 O27 2.359540 1_555
Bi11 O16 2.599971 1_565
Bi11 O20 2.667386 1_565
Bi11 O7 2.771610 1_555
Bi12 O26 2.206179 1_545
Bi12 O17 2.211553 1_655
Bi12 O21 2.223964 1_555
Bi12 O30 2.297105 1_645
Bi13 O25 2.206179 1_555
Bi13 O18 2.211553 1_555
Bi13 O22 2.223964 1_555
Bi13 O29 2.297105 1_555
Bi14 O24 2.206179 1_565
Bi14 O19 2.211553 1_655
Bi14 O23 2.223964 1_555
Bi14 O28 2.297105 1_665
Bi15 O20 2.206179 1_565
Bi15 O31 2.211553 1_455
Bi15 O27 2.223964 1_555
Bi15 O16 2.297105 1_465
