# generated using pymatgen
data_Sr4MgMn2(ClO3)2
_symmetry_space_group_name_H-M   'P 1'
_cell_length_a   3.97326387
_cell_length_b   3.97326692
_cell_length_c   18.05385020
_cell_angle_alpha   90.00000000
_cell_angle_beta   90.00000000
_cell_angle_gamma   90.00000000
_symmetry_Int_Tables_number   1
_chemical_formula_structural   Sr4MgMn2(ClO3)2
_chemical_formula_sum   'Sr4 Mg1 Mn2 Cl2 O6'
_cell_volume   285.01320656
_cell_formula_units_Z   1
loop_
 _symmetry_equiv_pos_site_id
 _symmetry_equiv_pos_as_xyz
  1  'x, y, z'
loop_
 _atom_site_type_symbol
 _atom_site_label
 _atom_site_symmetry_multiplicity
 _atom_site_fract_x
 _atom_site_fract_y
 _atom_site_fract_z
 _atom_site_occupancy
  Sr  Sr0  1  0.25000000  0.25000000  0.10295002  1
  Sr  Sr1  1  0.75000000  0.75000000  0.95862760  1
  Sr  Sr2  1  0.25000000  0.25000000  0.30388501  1
  Sr  Sr3  1  0.75000000  0.75000000  0.55407082  1
  Mg  Mg0  1  0.75000000  0.75000000  0.78040587  1
  Mn  Mn0  1  0.75000000  0.75000000  0.20256856  1
  Mn  Mn1  1  0.25000000  0.25000000  0.84345499  1
  Cl  Cl0  1  0.75000000  0.75000000  0.39181287  1
  Cl  Cl1  1  0.25000000  0.25000000  0.52043849  1
  O  O0  1  0.75000000  0.25000000  0.22252710  1
  O  O1  1  0.25000000  0.75000000  0.22252510  1
  O  O2  1  0.25000000  0.75000000  0.81390918  1
  O  O3  1  0.75000000  0.25000000  0.81391118  1
  O  O4  1  0.75000000  0.75000000  0.08738147  1
  O  O5  1  0.25000000  0.25000000  0.96278174  1
loop_
_geom_bond_atom_site_label_1
_geom_bond_atom_site_label_2
_geom_bond_distance
_geom_bond_site_symmetry_2
Mg0 O2 2.076672 1_655
Mg0 O2 2.076672 1_555
Mg0 O3 2.076684 1_565
Mg0 O3 2.076684 1_555
Mn0 O1 2.019039 1_655
Mn0 O1 2.019039 1_555
Mn0 O0 2.019047 1_555
Mn0 O0 2.019047 1_565
Mn0 O4 2.079570 1_555
Mn1 O3 2.056988 1_555
Mn1 O3 2.056988 1_455
Mn1 O2 2.056999 1_555
Mn1 O2 2.056999 1_545
Mn1 O5 2.154307 1_555
Cl0 Sr3 2.929381 1_555
Cl0 Sr2 3.226976 1_555
Cl0 Sr2 3.226976 1_655
Cl0 Sr2 3.226976 1_565
Cl0 Sr2 3.226976 1_665
Cl1 Sr3 2.874387 1_555
Cl1 Sr3 2.874387 1_455
Cl1 Sr3 2.874387 1_445
Cl1 Sr3 2.874387 1_545
O0 Sr2 2.470658 1_555
O0 Sr2 2.470658 1_655
O0 Sr0 2.933810 1_555
O0 Sr0 2.933810 1_655
O1 Sr2 2.470680 1_555
O1 Sr2 2.470680 1_565
O1 Sr0 2.933784 1_555
O1 Sr0 2.933784 1_565
O4 Sr1 2.324503 1_554
O4 Sr0 2.823548 1_665
O4 Sr0 2.823548 1_565
O4 Sr0 2.823548 1_655
O4 Sr0 2.823548 1_555
O5 Sr0 2.530577 1_556
O5 Sr1 2.810524 1_555
O5 Sr1 2.810524 1_445
O5 Sr1 2.810524 1_545
O5 Sr1 2.810524 1_455
