# generated using pymatgen
data_Na2Ta5Ga3(PO4)12
_symmetry_space_group_name_H-M   'P 1'
_cell_length_a   17.31401903
_cell_length_b   8.65851392
_cell_length_c   22.44463958
_cell_angle_alpha   89.97887982
_cell_angle_beta   89.99342419
_cell_angle_gamma   119.99588128
_symmetry_Int_Tables_number   1
_chemical_formula_structural   Na2Ta5Ga3(PO4)12
_chemical_formula_sum   'Na6 Ta15 Ga9 P36 O144'
_cell_volume   2914.08681043
_cell_formula_units_Z   3
loop_
 _symmetry_equiv_pos_site_id
 _symmetry_equiv_pos_as_xyz
  1  'x, y, z'
loop_
 _atom_site_type_symbol
 _atom_site_label
 _atom_site_symmetry_multiplicity
 _atom_site_fract_x
 _atom_site_fract_y
 _atom_site_fract_z
 _atom_site_occupancy
  Na  Na0  1  0.33186253  0.33092726  0.82769909  1
  Na  Na1  1  0.83483020  0.33587874  0.82852146  1
  Na  Na2  1  0.33139301  0.33014193  0.32821688  1
  Na  Na3  1  0.83498964  0.33657479  0.32725034  1
  Na  Na4  1  0.66816961  0.66710374  0.16812900  1
  Na  Na5  1  0.16640152  0.66639192  0.66558472  1
  Ta  Ta0  1  0.50052140  0.00195531  0.35578422  1
  Ta  Ta1  1  0.00106650  0.99922369  0.85541811  1
  Ta  Ta2  1  0.49900496  0.00068362  0.85592539  1
  Ta  Ta3  1  0.00261011  0.00261531  0.64207150  1
  Ta  Ta4  1  0.49738269  0.99759455  0.64179242  1
  Ta  Ta5  1  0.99715490  0.99736257  0.14614194  1
  Ta  Ta6  1  0.50264496  0.00188682  0.14385703  1
  Ta  Ta7  1  0.33435464  0.33620225  0.97980554  1
  Ta  Ta8  1  0.83229431  0.33020464  0.98021166  1
  Ta  Ta9  1  0.33023473  0.33362486  0.47785622  1
  Ta  Ta10  1  0.83650962  0.33324279  0.47707516  1
  Ta  Ta11  1  0.16619089  0.66564114  0.02445276  1
  Ta  Ta12  1  0.66844958  0.67050551  0.52277334  1
  Ta  Ta13  1  0.16383870  0.66337488  0.30857478  1
  Ta  Ta14  1  0.66715668  0.66684827  0.80814112  1
  Ga  Ga0  1  0.99947491  0.99800924  0.35450840  1
  Ga  Ga1  1  0.33119715  0.33054902  0.68572484  1
  Ga  Ga2  1  0.83564781  0.33631837  0.68596715  1
  Ga  Ga3  1  0.33363469  0.33242559  0.18796456  1
  Ga  Ga4  1  0.83289200  0.33454942  0.18792301  1
  Ga  Ga5  1  0.66720968  0.66776809  0.02147228  1
  Ga  Ga6  1  0.16527836  0.66327726  0.51825379  1
  Ga  Ga7  1  0.66997667  0.67016987  0.31128026  1
  Ga  Ga8  1  0.16609430  0.66625449  0.81104900  1
  P  P0  1  0.14528699  0.00924207  0.25133384  1
  P  P1  1  0.64765171  0.99961172  0.25033882  1
  P  P2  1  0.35674664  0.70712344  0.24932850  1
  P  P3  1  0.85389186  0.70644312  0.25276195  1
  P  P4  1  0.99461969  0.28029737  0.25173183  1
  P  P5  1  0.50046511  0.29548190  0.24969603  1
  P  P6  1  0.14741817  0.29502554  0.74965950  1
  P  P7  1  0.64633110  0.28397967  0.74864729  1
  P  P8  1  0.00007244  0.70575190  0.74925605  1
  P  P9  1  0.49575211  0.70693738  0.74903564  1
  P  P10  1  0.35239108  0.00006924  0.74953274  1
  P  P11  1  0.85826391  0.00901367  0.74882108  1
  P  P12  1  0.47463272  0.33681834  0.58476561  1
  P  P13  1  0.97991487  0.34314239  0.58523971  1
  P  P14  1  0.19243255  0.03954474  0.58466840  1
  P  P15  1  0.69311002  0.05243117  0.58549683  1
  P  P16  1  0.32741818  0.61402384  0.58504339  1
  P  P17  1  0.83305779  0.61448864  0.58517944  1
  P  P18  1  0.47973500  0.61743799  0.08594465  1
  P  P19  1  0.97439649  0.61779444  0.08574031  1
  P  P20  1  0.33400225  0.05040064  0.08578587  1
  P  P21  1  0.82921705  0.04065062  0.08600801  1
  P  P22  1  0.19072436  0.33066014  0.08631621  1
  P  P23  1  0.69161798  0.34270274  0.08532396  1
  P  P24  1  0.30692464  0.66502838  0.91468471  1
  P  P25  1  0.80803104  0.66607794  0.91821627  1
  P  P26  1  0.02490450  0.38442929  0.91462624  1
  P  P27  1  0.52575565  0.38561836  0.91818510  1
  P  P28  1  0.16809351  0.95003938  0.91486651  1
  P  P29  1  0.66636211  0.94863021  0.91796568  1
  P  P30  1  0.30734964  0.94820072  0.41782614  1
  P  P31  1  0.81203060  0.94899091  0.41325205  1
  P  P32  1  0.16091849  0.37558838  0.41694899  1
  P  P33  1  0.66777534  0.38538485  0.41483539  1
  P  P34  1  0.02626508  0.67763009  0.41749129  1
  P  P35  1  0.52542267  0.66542198  0.41428161  1
  O  O0  1  0.10309812  0.03625016  0.30614892  1
  O  O1  1  0.59937048  0.02683494  0.30515143  1
  O  O2  1  0.41532019  0.80001415  0.30500472  1
  O  O3  1  0.91315091  0.79354739  0.30637741  1
  O  O4  1  0.48669671  0.17233217  0.30496656  1
  O  O5  1  0.98211452  0.16995921  0.30666193  1
  O  O6  1  0.09956755  0.17237379  0.80524322  1
  O  O7  1  0.59991595  0.16990337  0.80499334  1
  O  O8  1  0.48528683  0.80042633  0.80524574  1
  O  O9  1  0.98677750  0.80093773  0.80512137  1
  O  O10  1  0.41379483  0.02594109  0.80500447  1
  O  O11  1  0.91485615  0.03037850  0.80531261  1
  O  O12  1  0.40077270  0.97321017  0.69481595  1
  O  O13  1  0.89964662  0.97125819  0.69455135  1
  O  O14  1  0.08616190  0.19926171  0.69498405  1
  O  O15  1  0.58583338  0.19980939  0.69433031  1
  O  O16  1  0.01303742  0.82767066  0.69458949  1
  O  O17  1  0.51462385  0.82885022  0.69473460  1
  O  O18  1  0.40027119  0.82805712  0.19448353  1
  O  O19  1  0.90033582  0.82756254  0.19515804  1
  O  O20  1  0.01403449  0.20008953  0.19486054  1
  O  O21  1  0.51288284  0.19820189  0.19447660  1
  O  O22  1  0.08626883  0.97291269  0.19442295  1
  O  O23  1  0.58630239  0.97351935  0.19491698  1
  O  O24  1  0.43638211  0.37002905  0.64028633  1
  O  O25  1  0.93680363  0.36978267  0.64031238  1
  O  O26  1  0.24818357  0.12580309  0.63995625  1
  O  O27  1  0.74868776  0.12781431  0.64082708  1
  O  O28  1  0.31585399  0.50432043  0.64054419  1
  O  O29  1  0.81410377  0.50153165  0.64024252  1
  O  O30  1  0.43534974  0.50113956  0.13970763  1
  O  O31  1  0.93604860  0.50161930  0.13934458  1
  O  O32  1  0.31441273  0.12794468  0.13934690  1
  O  O33  1  0.81541966  0.12908933  0.13975323  1
  O  O34  1  0.24971173  0.37144489  0.13975843  1
  O  O35  1  0.74883657  0.36890298  0.13923849  1
  O  O36  1  0.23372060  0.30347942  0.02856657  1
  O  O37  1  0.73362442  0.30599346  0.02816340  1
  O  O38  1  0.41932842  0.53206651  0.02869851  1
  O  O39  1  0.91813081  0.53353455  0.02797323  1
  O  O40  1  0.34845276  0.16375636  0.02816858  1
  O  O41  1  0.84662609  0.16107592  0.02858544  1
  O  O42  1  0.23374847  0.16200956  0.52865587  1
  O  O43  1  0.73345368  0.16532795  0.52884418  1
  O  O44  1  0.34758335  0.53300334  0.52892638  1
  O  O45  1  0.84862546  0.53193970  0.52862556  1
  O  O46  1  0.41733079  0.30230451  0.52831514  1
  O  O47  1  0.91913156  0.30493438  0.52918348  1
  O  O48  1  0.26653595  0.69526163  0.97155291  1
  O  O49  1  0.76906726  0.69949143  0.97306452  1
  O  O50  1  0.08119046  0.46722019  0.97137776  1
  O  O51  1  0.58075598  0.46229100  0.97332370  1
  O  O52  1  0.15279702  0.83760008  0.97157300  1
  O  O53  1  0.64967398  0.83826301  0.97306200  1
  O  O54  1  0.27020134  0.84079514  0.47368835  1
  O  O55  1  0.76502739  0.83670802  0.47092749  1
  O  O56  1  0.15155843  0.46130060  0.47311684  1
  O  O57  1  0.65223576  0.46690560  0.47184604  1
  O  O58  1  0.07994084  0.69837679  0.47311581  1
  O  O59  1  0.58076913  0.69485271  0.47167050  1
  O  O60  1  0.06661298  0.63395480  0.36175309  1
  O  O61  1  0.56396413  0.62851140  0.35960515  1
  O  O62  1  0.25089957  0.86875730  0.36118459  1
  O  O63  1  0.74980799  0.87433671  0.36029472  1
  O  O64  1  0.18344717  0.50063188  0.36143224  1
  O  O65  1  0.68534676  0.49738353  0.35985730  1
  O  O66  1  0.06355053  0.49827166  0.85980058  1
  O  O67  1  0.56642974  0.49885258  0.86122841  1
  O  O68  1  0.18611722  0.87349537  0.85979653  1
  O  O69  1  0.68258076  0.86629897  0.86125269  1
  O  O70  1  0.25088834  0.62892142  0.85955180  1
  O  O71  1  0.75048966  0.63438440  0.86141454  1
  O  O72  1  0.01170587  0.83180662  0.40706762  1
  O  O73  1  0.51319108  0.82972380  0.40734143  1
  O  O74  1  0.40168951  0.97488005  0.40606956  1
  O  O75  1  0.90381627  0.97408290  0.40887166  1
  O  O76  1  0.08410413  0.19176295  0.40670894  1
  O  O77  1  0.58502298  0.19685086  0.40777723  1
  O  O78  1  0.01314907  0.19628564  0.90728578  1
  O  O79  1  0.51264477  0.19760052  0.90634783  1
  O  O80  1  0.08545664  0.97317669  0.90768843  1
  O  O81  1  0.58575901  0.97538672  0.90582830  1
  O  O82  1  0.40153386  0.82925862  0.90752912  1
  O  O83  1  0.90146197  0.82830217  0.90591751  1
  O  O84  1  0.48673861  0.17139554  0.59252296  1
  O  O85  1  0.98579628  0.16948931  0.59340883  1
  O  O86  1  0.09960434  0.02808338  0.59259339  1
  O  O87  1  0.59834038  0.02732967  0.59329674  1
  O  O88  1  0.41466814  0.80111340  0.59292164  1
  O  O89  1  0.91513291  0.80285930  0.59301964  1
  O  O90  1  0.48573945  0.80219137  0.09266722  1
  O  O91  1  0.98730992  0.80549213  0.09146377  1
  O  O92  1  0.41563028  0.02659785  0.09201642  1
  O  O93  1  0.91543899  0.02814351  0.09226002  1
  O  O94  1  0.09743823  0.16825502  0.09211219  1
  O  O95  1  0.59887818  0.17003119  0.09203442  1
  O  O96  1  0.34814905  0.17057099  0.74417176  1
  O  O97  1  0.84597610  0.16959610  0.74419682  1
  O  O98  1  0.23760364  0.30546565  0.74444181  1
  O  O99  1  0.73854768  0.30714053  0.74390952  1
  O  O100  1  0.41498030  0.52307791  0.74401348  1
  O  O101  1  0.91497849  0.52515502  0.74437124  1
  O  O102  1  0.34710506  0.52410277  0.24395865  1
  O  O103  1  0.84600316  0.52395354  0.24263754  1
  O  O104  1  0.41509892  0.30442397  0.24405935  1
  O  O105  1  0.91562181  0.30873061  0.24271089  1
  O  O106  1  0.23876573  0.16857241  0.24254955  1
  O  O107  1  0.73721084  0.16914538  0.24429770  1
  O  O108  1  0.32092047  0.50231016  0.92469186  1
  O  O109  1  0.82029835  0.50013045  0.92356689  1
  O  O110  1  0.43006302  0.35942204  0.92359104  1
  O  O111  1  0.92999091  0.35823218  0.92493308  1
  O  O112  1  0.24927412  0.14067488  0.92511212  1
  O  O113  1  0.74955205  0.13929215  0.92332016  1
  O  O114  1  0.32103573  0.14054745  0.42415738  1
  O  O115  1  0.81959944  0.13681838  0.42589612  1
  O  O116  1  0.24940736  0.36135118  0.42438704  1
  O  O117  1  0.74891168  0.35770568  0.42537629  1
  O  O118  1  0.43034252  0.50209646  0.42515588  1
  O  O119  1  0.93125321  0.50110412  0.42451226  1
  O  O120  1  0.17993641  0.49532776  0.07260181  1
  O  O121  1  0.67859587  0.50129963  0.07577650  1
  O  O122  1  0.06797106  0.64067679  0.07250427  1
  O  O123  1  0.57173110  0.64208927  0.07606000  1
  O  O124  1  0.25237939  0.86350892  0.07256814  1
  O  O125  1  0.74917696  0.85655963  0.07601883  1
  O  O126  1  0.17861410  0.85440026  0.57586597  1
  O  O127  1  0.67924398  0.86395065  0.57366351  1
  O  O128  1  0.24907516  0.64320841  0.57636416  1
  O  O129  1  0.75233081  0.64115613  0.57325170  1
  O  O130  1  0.07242442  0.50143728  0.57655652  1
  O  O131  1  0.56876779  0.49652589  0.57274396  1
  O  O132  1  0.15310403  0.83726480  0.25918218  1
  O  O133  1  0.65129428  0.82888496  0.25567065  1
  O  O134  1  0.26578964  0.69512208  0.25923856  1
  O  O135  1  0.76233101  0.69469644  0.25485390  1
  O  O136  1  0.08127079  0.46791396  0.25862146  1
  O  O137  1  0.58489392  0.47457475  0.25592262  1
  O  O138  1  0.15226178  0.47439087  0.75612121  1
  O  O139  1  0.65237028  0.46741318  0.75962414  1
  O  O140  1  0.08472573  0.69534837  0.75598652  1
  O  O141  1  0.58146583  0.69475519  0.75970091  1
  O  O142  1  0.26291789  0.83038150  0.75601156  1
  O  O143  1  0.76604334  0.83762481  0.75965520  1
loop_
_geom_bond_atom_site_label_1
_geom_bond_atom_site_label_2
_geom_bond_distance
_geom_bond_site_symmetry_2
Na0 O98 2.417695 1_555
Na0 O96 2.432123 1_555
Na0 O100 2.443381 1_555
Na0 O110 2.676887 1_555
Na0 O112 2.679562 1_555
Na0 O108 2.694529 1_555
Na1 O101 2.429396 1_555
Na1 O97 2.443759 1_555
Na1 O99 2.456373 1_555
Na1 O109 2.645106 1_555
Na1 O113 2.662381 1_555
Na1 O111 2.667759 1_555
Na2 O106 2.446536 1_555
Na2 O102 2.451856 1_555
Na2 O104 2.457696 1_555
Na2 O114 2.658365 1_555
Na2 O116 2.670283 1_555
Na2 O118 2.708981 1_555
Na3 O105 2.437978 1_555
Na3 O103 2.442031 1_555
Na3 O107 2.445995 1_555
Na3 O119 2.683643 1_555
Na3 O117 2.716136 1_555
Na3 O115 2.738763 1_555
Na4 O135 2.472956 1_555
Na4 O133 2.513821 1_555
Na4 O137 2.516813 1_555
Na4 O125 2.574592 1_555
Na4 O121 2.579030 1_555
Na4 O123 2.597055 1_555
Na5 O130 2.521798 1_555
Na5 O128 2.527108 1_555
Na5 O126 2.530416 1_555
Na5 O140 2.556140 1_555
Na5 O138 2.558001 1_555
Na5 O142 2.560926 1_555
Ga0 O72 1.952154 1_655
Ga0 O76 1.969291 1_665
Ga0 O3 1.972591 1_555
Ga0 O5 1.976504 1_565
Ga0 O0 1.977871 1_665
Ga0 O75 1.982703 1_555
Ga1 O26 1.928174 1_555
Ga1 O28 1.939410 1_555
Ga1 O24 1.962262 1_555
Ga1 O98 2.014283 1_555
Ga1 O96 2.032479 1_555
Ga1 O100 2.044246 1_555
Ga2 O25 1.921818 1_555
Ga2 O29 1.941970 1_555
Ga2 O27 1.958699 1_555
Ga2 O101 2.008681 1_555
Ga2 O97 2.020085 1_555
Ga2 O99 2.038652 1_555
Ga3 O30 1.958225 1_555
Ga3 O32 1.961761 1_555
Ga3 O106 1.969763 1_555
Ga3 O34 1.971567 1_555
Ga3 O104 1.993861 1_555
Ga3 O102 2.000711 1_555
Ga4 O35 1.957921 1_555
Ga4 O103 1.969368 1_555
Ga4 O31 1.971404 1_555
Ga4 O33 1.971944 1_555
Ga4 O105 1.983489 1_555
Ga4 O107 2.005596 1_555
Ga5 O125 1.966550 1_555
Ga5 O49 1.970042 1_554
Ga5 O121 1.971004 1_555
Ga5 O53 1.974609 1_554
Ga5 O51 1.978070 1_554
Ga5 O123 1.978681 1_555
Ga6 O56 1.930574 1_555
Ga6 O58 1.936738 1_555
Ga6 O54 1.967163 1_555
Ga6 O130 2.001563 1_555
Ga6 O126 2.020762 1_555
Ga6 O128 2.022040 1_555
Ga7 O63 1.950496 1_555
Ga7 O135 1.966145 1_555
Ga7 O65 1.973510 1_555
Ga7 O133 1.998574 1_555
Ga7 O61 2.003217 1_555
Ga7 O137 2.022243 1_555
Ga8 O66 1.970119 1_555
Ga8 O68 1.979062 1_555
Ga8 O70 1.979801 1_555
Ga8 O140 1.982571 1_555
Ga8 O138 1.985136 1_555
Ga8 O142 1.992987 1_555
O0 P0 1.507550 1_555
O1 P1 1.569990 1_545
O1 Ta0 1.974277 1_555
O2 P2 1.556413 1_555
O2 Ta0 1.988775 1_565
O3 P3 1.515542 1_555
O4 P5 1.574013 1_555
O4 Ta0 1.971385 1_555
O5 P4 1.507267 1_555
O6 P6 1.577863 1_555
O6 Ta1 1.966276 1_545
O7 P7 1.557560 1_555
O7 Ta2 1.986172 1_555
O8 P9 1.557919 1_555
O8 Ta2 1.986589 1_565
O9 P8 1.579504 1_655
O9 Ta1 1.964692 1_655
O10 P10 1.578915 1_555
O10 Ta2 1.963022 1_555
O11 P11 1.556014 1_555
O11 Ta1 1.992046 1_645
O12 P10 1.568050 1_565
O12 Ta4 1.976130 1_555
O13 P11 1.529122 1_565
O13 Ta3 2.038267 1_665
O14 P6 1.562074 1_555
O14 Ta3 1.985260 1_555
O15 P7 1.533700 1_555
O15 Ta4 2.030341 1_545
O16 P8 1.559571 1_555
O16 Ta3 1.997176 1_565
O17 P9 1.536395 1_555
O17 Ta4 2.017605 1_555
O18 P2 1.545792 1_555
O18 Ta6 2.007256 1_565
O19 P3 1.604238 1_555
O19 Ta5 1.927709 1_555
O20 P4 1.567996 1_455
O20 Ta5 1.962339 1_445
O21 P5 1.572749 1_555
O21 Ta6 1.977813 1_555
O22 P0 1.566500 1_565
O22 Ta5 1.981546 1_455
O23 P1 1.577095 1_555
O23 Ta6 1.956423 1_565
O24 P12 1.504877 1_555
O25 P13 1.520008 1_555
O26 P14 1.519722 1_555
O27 P15 1.505689 1_555
O28 P16 1.517566 1_555
O29 P17 1.506561 1_555
O30 P18 1.511889 1_555
O31 P19 1.493764 1_555
O32 P20 1.496403 1_555
O33 P21 1.510661 1_555
O34 P22 1.498844 1_555
O35 P23 1.507649 1_555
O36 P22 1.569972 1_555
O36 Ta7 1.954393 1_554
O37 P23 1.583407 1_555
O37 Ta8 1.939624 1_554
O38 P18 1.587185 1_555
O38 Ta7 1.936967 1_554
O39 P19 1.566115 1_555
O39 Ta8 1.960353 1_554
O40 P20 1.565805 1_555
O40 Ta7 1.957187 1_554
O41 P21 1.588658 1_555
O41 Ta8 1.935740 1_554
O42 P14 1.567473 1_555
O42 Ta9 1.953220 1_555
O43 P15 1.541575 1_555
O43 Ta10 2.012977 1_555
O44 P16 1.563931 1_555
O44 Ta9 1.966561 1_555
O45 P17 1.545297 1_555
O45 Ta10 1.995805 1_555
O46 P12 1.543714 1_555
O46 Ta9 2.009787 1_555
O47 P13 1.566034 1_555
O47 Ta10 1.955780 1_555
O48 P24 1.539406 1_555
O48 Ta11 2.011902 1_556
O49 P25 1.499839 1_555
O50 P26 1.545485 1_555
O50 Ta11 2.002599 1_556
O51 P27 1.499297 1_555
O52 P28 1.542422 1_555
O52 Ta11 2.005811 1_556
O53 P29 1.499625 1_555
O54 P30 1.500485 1_555
O55 P31 1.578275 1_555
O55 Ta12 1.952790 1_555
O56 P32 1.512355 1_555
O57 P33 1.548683 1_555
O57 Ta12 1.999954 1_555
O58 P34 1.512660 1_555
O59 P35 1.548778 1_555
O59 Ta12 1.996211 1_555
O60 P34 1.568560 1_555
O60 Ta13 1.973266 1_555
O61 P35 1.505583 1_555
O62 P30 1.540563 1_555
O62 Ta13 2.037296 1_555
O63 P31 1.515194 1_555
O64 P32 1.566412 1_555
O64 Ta13 1.996377 1_555
O65 P33 1.503218 1_555
O66 P26 1.507652 1_555
O67 P27 1.549174 1_555
O67 Ta14 2.009685 1_555
O68 P28 1.507217 1_555
O69 P29 1.551791 1_555
O69 Ta14 2.003785 1_555
O70 P24 1.505850 1_555
O71 P25 1.555766 1_555
O71 Ta14 1.999033 1_555
O72 P34 1.495524 1_555
O73 P35 1.547261 1_555
O73 Ta0 1.984175 1_565
O74 P30 1.553569 1_555
O74 Ta0 1.963457 1_565
O75 P31 1.495689 1_555
O76 P32 1.496247 1_555
O77 P33 1.550609 1_555
O77 Ta0 1.970598 1_555
O78 P26 1.546298 1_555
O78 Ta1 1.988709 1_545
O79 P27 1.550221 1_555
O79 Ta2 1.960224 1_555
O80 P28 1.549141 1_555
O80 Ta1 1.972771 1_555
O81 P29 1.548804 1_555
O81 Ta2 1.971763 1_565
O82 P24 1.549793 1_555
O82 Ta2 1.971379 1_565
O83 P25 1.547154 1_555
O83 Ta1 1.973671 1_655
O84 P12 1.557491 1_555
O84 Ta4 1.948731 1_545
O85 P13 1.567682 1_555
O85 Ta3 1.945469 1_655
O86 P14 1.570069 1_555
O86 Ta3 1.931642 1_555
O87 P15 1.553570 1_555
O87 Ta4 1.963637 1_545
O88 P16 1.578261 1_555
O88 Ta4 1.927173 1_555
O89 P17 1.547047 1_555
O89 Ta3 1.969782 1_665
O90 P18 1.557716 1_555
O90 Ta6 1.972537 1_565
O91 P19 1.531194 1_555
O91 Ta5 2.003377 1_555
O92 P20 1.533213 1_555
O92 Ta6 1.997975 1_555
O93 P21 1.556180 1_555
O93 Ta5 1.978008 1_545
O94 P22 1.527058 1_555
O94 Ta5 2.025866 1_445
O95 P23 1.560655 1_555
O95 Ta6 1.954864 1_555
O96 P10 1.519077 1_555
O97 P11 1.511600 1_555
O98 P6 1.522794 1_555
O99 P7 1.510159 1_555
O100 P9 1.508939 1_555
O101 P8 1.524621 1_655
O102 P2 1.513032 1_555
O103 P3 1.533445 1_555
O104 P5 1.523495 1_555
O105 P4 1.519578 1_555
O106 P0 1.526033 1_555
O107 P1 1.517069 1_545
O108 P24 1.560548 1_555
O108 Ta7 1.996520 1_555
O109 P25 1.558564 1_555
O109 Ta8 2.031869 1_555
O110 P27 1.560581 1_555
O110 Ta7 2.011102 1_555
O111 P26 1.559706 1_655
O111 Ta8 2.012050 1_555
O112 P28 1.560009 1_545
O112 Ta7 2.012821 1_555
O113 P29 1.561102 1_545
O113 Ta8 2.012329 1_555
O114 P30 1.567039 1_545
O114 Ta9 2.002021 1_555
O115 P31 1.590546 1_545
O115 Ta10 1.949713 1_555
O116 P32 1.606013 1_555
O116 Ta9 1.947411 1_555
O117 P33 1.556769 1_555
O117 Ta10 2.003256 1_555
O118 P35 1.562491 1_555
O118 Ta9 2.000351 1_555
O119 P34 1.597768 1_655
O119 Ta10 1.951810 1_555
O120 P22 1.558347 1_555
O120 Ta11 1.936219 1_555
O121 P23 1.513881 1_555
O122 P19 1.559260 1_455
O122 Ta11 1.932284 1_555
O123 P18 1.513873 1_555
O124 P20 1.554877 1_565
O124 Ta11 1.942615 1_555
O125 P21 1.517605 1_565
O126 P14 1.510920 1_565
O127 P15 1.549213 1_565
O127 Ta12 1.957929 1_555
O128 P16 1.511442 1_555
O129 P17 1.549615 1_555
O129 Ta12 1.956175 1_555
O130 P13 1.512186 1_455
O131 P12 1.545168 1_555
O131 Ta12 1.976013 1_555
O132 P0 1.570985 1_565
O132 Ta13 1.951684 1_555
O133 P1 1.515447 1_555
O134 P2 1.541636 1_555
O134 Ta13 1.982871 1_555
O135 P3 1.537675 1_555
O136 P4 1.573866 1_455
O136 Ta13 1.935878 1_555
O137 P5 1.514828 1_555
O138 P6 1.519847 1_555
O139 P7 1.558348 1_555
O139 Ta14 1.947471 1_555
O140 P8 1.520273 1_555
O141 P9 1.558015 1_555
O141 Ta14 1.949435 1_555
O142 P10 1.517784 1_565
O143 P11 1.562451 1_565
O143 Ta14 1.941432 1_555
