# generated using pymatgen
data_MgFe2(SbO3)4
_symmetry_space_group_name_H-M   'P 1'
_cell_length_a   4.91551766
_cell_length_b   4.95606117
_cell_length_c   9.76210100
_cell_angle_alpha   90.00000000
_cell_angle_beta   90.00000000
_cell_angle_gamma   88.14851337
_symmetry_Int_Tables_number   1
_chemical_formula_structural   MgFe2(SbO3)4
_chemical_formula_sum   'Mg1 Fe2 Sb4 O12'
_cell_volume   237.69630154
_cell_formula_units_Z   1
loop_
 _symmetry_equiv_pos_site_id
 _symmetry_equiv_pos_as_xyz
  1  'x, y, z'
loop_
 _atom_site_type_symbol
 _atom_site_label
 _atom_site_symmetry_multiplicity
 _atom_site_fract_x
 _atom_site_fract_y
 _atom_site_fract_z
 _atom_site_occupancy
  Mg  Mg0  1  0.00000000  0.50000000  0.54763600  1
  Fe  Fe0  1  0.00000000  0.00000000  0.01117300  1
  Fe  Fe1  1  0.50000000  0.50000000  0.48614000  1
  Sb  Sb0  1  0.00000000  0.00000000  0.32194500  1
  Sb  Sb1  1  0.50000000  0.50000000  0.84282000  1
  Sb  Sb2  1  0.50000000  0.50000000  0.16766300  1
  Sb  Sb3  1  0.00000000  0.00000000  0.70149800  1
  O  O0  1  0.30786800  0.32546800  0.00604300  1
  O  O1  1  0.19551300  0.79967100  0.47212200  1
  O  O2  1  0.80448700  0.20032900  0.47212200  1
  O  O3  1  0.69213200  0.67453200  0.00604300  1
  O  O4  1  0.28959700  0.30747100  0.31969900  1
  O  O5  1  0.22598600  0.81337700  0.85027300  1
  O  O6  1  0.77401400  0.18662300  0.85027300  1
  O  O7  1  0.79253000  0.19212600  0.17113300  1
  O  O8  1  0.20747000  0.80787400  0.17113300  1
  O  O9  1  0.71040300  0.69252900  0.31969900  1
  O  O10  1  0.28703500  0.35062100  0.67948700  1
  O  O11  1  0.71296500  0.64937900  0.67948700  1
loop_
_geom_bond_atom_site_label_1
_geom_bond_atom_site_label_2
_geom_bond_distance
_geom_bond_site_symmetry_2
Mg0 O1 1.940375 1_555
Mg0 O2 1.940375 1_455
Mg0 O11 2.031758 1_455
Mg0 O10 2.031758 1_555
Fe0 O8 2.079033 1_545
Fe0 O7 2.079033 1_455
Fe0 O6 2.119011 1_454
Fe0 O5 2.119011 1_544
Fe0 O0 2.247734 1_555
Fe0 O3 2.247734 1_445
Fe1 O1 2.078705 1_555
Fe1 O2 2.078705 1_555
Fe1 O9 2.164234 1_555
Fe1 O4 2.164234 1_555
Fe1 O11 2.292724 1_555
Fe1 O10 2.292724 1_555
O0 Sb2 2.045053 1_555
O0 Sb1 2.057149 1_554
O1 Sb0 1.999244 1_565
O1 Sb3 2.619479 1_565
O2 Sb0 1.999244 1_655
O2 Sb3 2.619479 1_655
O3 Sb2 2.045053 1_555
O3 Sb1 2.057149 1_554
O4 Sb2 2.060755 1_555
O4 Sb0 2.118764 1_555
O5 Sb1 2.023977 1_555
O5 Sb3 2.032825 1_565
O6 Sb1 2.023977 1_555
O6 Sb3 2.032825 1_655
O7 Sb0 2.012821 1_655
O7 Sb2 2.062820 1_555
O8 Sb0 2.012821 1_565
O8 Sb2 2.062820 1_555
O9 Sb2 2.060755 1_555
O9 Sb0 2.118764 1_665
O10 Sb1 2.058245 1_555
O10 Sb3 2.283617 1_555
O11 Sb1 2.058245 1_555
O11 Sb3 2.283617 1_665
