# generated using pymatgen
data_Na18Ca8Nb4Si9(SO8)9
_symmetry_space_group_name_H-M   'P 1'
_cell_length_a   9.37317177
_cell_length_b   9.34446832
_cell_length_c   22.98995159
_cell_angle_alpha   90.78099334
_cell_angle_beta   90.12005905
_cell_angle_gamma   119.98345316
_symmetry_Int_Tables_number   1
_chemical_formula_structural   Na18Ca8Nb4Si9(SO8)9
_chemical_formula_sum   'Na18 Ca8 Nb4 Si9 S9 O72'
_cell_volume   1743.88937914
_cell_formula_units_Z   1
loop_
 _symmetry_equiv_pos_site_id
 _symmetry_equiv_pos_as_xyz
  1  'x, y, z'
loop_
 _atom_site_type_symbol
 _atom_site_label
 _atom_site_symmetry_multiplicity
 _atom_site_fract_x
 _atom_site_fract_y
 _atom_site_fract_z
 _atom_site_occupancy
  Na  Na0  1  0.67232188  0.03660425  0.26244417  1
  Na  Na1  1  0.33236985  0.32370072  0.25981842  1
  Na  Na2  1  0.99457433  0.64354351  0.23986013  1
  Na  Na3  1  0.64791216  0.64507848  0.73114525  1
  Na  Na4  1  0.99018149  0.33190529  0.73691053  1
  Na  Na5  1  0.36534508  0.04040660  0.75392711  1
  Na  Na6  1  0.29626432  0.34446628  0.59030637  1
  Na  Na7  1  0.02310624  0.68426583  0.58444155  1
  Na  Na8  1  0.67357291  0.94952570  0.57890326  1
  Na  Na9  1  0.27603169  0.94149566  0.08120659  1
  Na  Na10  1  0.68173097  0.70634194  0.08194460  1
  Na  Na11  1  0.03079114  0.34672560  0.09575613  1
  Na  Na12  1  0.95900308  0.99369133  0.49796014  1
  Na  Na13  1  0.01910200  0.97608081  0.99275860  1
  Na  Na14  1  0.64528877  0.31500684  0.82501996  1
  Na  Na15  1  0.66284919  0.31165780  0.33404483  1
  Na  Na16  1  0.29095594  0.65793281  0.16885411  1
  Na  Na17  1  0.33893660  0.64278698  0.65221398  1
  Ca  Ca0  1  0.99867119  0.00922078  0.35195088  1
  Ca  Ca1  1  0.01198547  0.01192151  0.85092821  1
  Ca  Ca2  1  0.99006011  0.01045735  0.64980747  1
  Ca  Ca3  1  0.01640676  0.00566192  0.15793432  1
  Ca  Ca4  1  0.66661971  0.33400375  0.68236356  1
  Ca  Ca5  1  0.67126493  0.33227908  0.18541670  1
  Ca  Ca6  1  0.32597890  0.67068453  0.01202321  1
  Ca  Ca7  1  0.34211025  0.66813776  0.51264636  1
  Nb  Nb0  1  0.67056630  0.33777746  0.97582245  1
  Nb  Nb1  1  0.67792598  0.33160396  0.48304074  1
  Nb  Nb2  1  0.33224888  0.67710271  0.32104208  1
  Nb  Nb3  1  0.34327651  0.68216880  0.81778596  1
  Si  Si0  1  0.30392427  0.99482314  0.24851354  1
  Si  Si1  1  0.00775443  0.31089860  0.24822223  1
  Si  Si2  1  0.30643737  0.31132133  0.75130946  1
  Si  Si3  1  0.69664200  -0.00035529  0.75074122  1
  Si  Si4  1  0.97027159  0.33439882  0.58554942  1
  Si  Si5  1  0.67061659  0.63125463  0.58297559  1
  Si  Si6  1  0.96305863  0.63233941  0.08368225  1
  Si  Si7  1  0.33334056  0.97035878  0.92529140  1
  Si  Si8  1  0.63557499  0.97684959  0.42480565  1
  S  S0  1  0.68227006  0.69859185  0.25051504  1
  S  S1  1  0.01310589  0.69999855  0.75335041  1
  S  S2  1  0.37240566  0.04377424  0.58029997  1
  S  S3  1  0.67336368  0.04434141  0.07876017  1
  S  S4  1  0.37905038  0.33298062  0.07894551  1
  S  S5  1  0.62816392  0.65647918  0.91965294  1
  S  S6  1  0.02267692  0.36994559  0.91918335  1
  S  S7  1  0.35227000  0.37545356  0.41556000  1
  S  S8  1  0.02632086  0.65505712  0.41781788  1
  O  O0  1  0.19823609  0.02356883  0.29635576  1
  O  O1  1  0.79579209  0.77817429  0.29889498  1
  O  O2  1  0.95377565  0.15923932  0.29114196  1
  O  O3  1  0.21759873  0.16460470  0.79672023  1
  O  O4  1  0.98972152  0.78290984  0.80311664  1
  O  O5  1  0.81650309  0.02225907  0.80335480  1
  O  O6  1  0.73988905  0.93844144  0.69000118  1
  O  O7  1  0.20343576  0.27070438  0.68967982  1
  O  O8  1  0.04765773  0.79422694  0.69885602  1
  O  O9  1  0.74627243  0.79180751  0.19524302  1
  O  O10  1  0.06426741  0.26793581  0.18525242  1
  O  O11  1  0.20699710  0.93738601  0.18535878  1
  O  O12  1  0.88778821  0.34859033  0.64464493  1
  O  O13  1  0.46134012  0.11168900  0.63556128  1
  O  O14  1  0.65348005  0.53416105  0.64190523  1
  O  O15  1  0.87537700  0.53855730  0.14221771  1
  O  O16  1  0.64749654  0.11270531  0.13293669  1
  O  O17  1  0.46462341  0.34404324  0.13354820  1
  O  O18  1  0.47933101  0.32390801  0.02805034  1
  O  O19  1  0.83175796  0.50393054  0.02746788  1
  O  O20  1  0.67647222  0.14956837  0.02826620  1
  O  O21  1  0.47633979  0.14971833  0.53014779  1
  O  O22  1  0.66691255  0.50077613  0.52656801  1
  O  O23  1  0.83670359  0.32540065  0.52849867  1
  O  O24  1  0.55678514  0.66787960  0.97508115  1
  O  O25  1  0.10755269  0.44335761  0.97457468  1
  O  O26  1  0.33247065  0.89075485  0.98637303  1
  O  O27  1  0.55614192  0.89342118  0.48469645  1
  O  O28  1  0.33630356  0.44863968  0.47007894  1
  O  O29  1  0.11610787  0.67290911  0.47206076  1
  O  O30  1  0.12356252  0.63622143  0.36673163  1
  O  O31  1  0.49631434  0.85082851  0.36911576  1
  O  O32  1  0.36001124  0.48412326  0.36447015  1
  O  O33  1  0.10736489  0.47687565  0.86914865  1
  O  O34  1  0.35070892  0.85219934  0.87067607  1
  O  O35  1  0.51573964  0.63595289  0.86975137  1
  O  O36  1  0.00173986  0.79340850  0.40739779  1
  O  O37  1  0.81299605  0.00024748  0.41356450  1
  O  O38  1  0.21067021  0.20995455  0.40797515  1
  O  O39  1  0.99050570  0.20163631  0.91354847  1
  O  O40  1  0.18279049  0.00087367  0.91668628  1
  O  O41  1  0.79424670  0.79345165  0.91203018  1
  O  O42  1  0.97292815  0.16383299  0.57587881  1
  O  O43  1  0.21561316  0.04620758  0.57862006  1
  O  O44  1  0.84819279  0.79962413  0.57625070  1
  O  O45  1  0.96834245  0.80906480  0.07562850  1
  O  O46  1  0.83350151  0.04686623  0.07908332  1
  O  O47  1  0.21459916  0.18129999  0.07574167  1
  O  O48  1  0.64987350  0.14486885  0.74996208  1
  O  O49  1  0.49995280  0.36288016  0.75029751  1
  O  O50  1  0.87413668  0.52923370  0.74870469  1
  O  O51  1  0.64314853  0.52453279  0.24449412  1
  O  O52  1  0.86268056  0.35917945  0.24908954  1
  O  O53  1  0.49404313  0.14500337  0.24906334  1
  O  O54  1  0.63522572  0.49390219  0.92082933  1
  O  O55  1  0.85075464  0.35913225  0.92151304  1
  O  O56  1  0.51525331  0.15781001  0.92627212  1
  O  O57  1  0.63646522  0.15982107  0.42213664  1
  O  O58  1  0.50989300  0.37081803  0.41439094  1
  O  O59  1  0.86266142  0.49461488  0.41807248  1
  O  O60  1  0.36587940  0.48400276  0.07341836  1
  O  O61  1  0.14223499  0.64088737  0.08088641  1
  O  O62  1  0.53780215  0.87030355  0.07323252  1
  O  O63  1  0.33923102  0.87198407  0.57460599  1
  O  O64  1  0.50946665  0.65342519  0.57841112  1
  O  O65  1  0.14477617  0.50337327  0.57748125  1
  O  O66  1  0.31472518  0.81996591  0.26713058  1
  O  O67  1  0.51856501  0.69360865  0.26056472  1
  O  O68  1  0.18332275  0.48933078  0.26925997  1
  O  O69  1  0.30674984  0.48851082  0.77568408  1
  O  O70  1  0.16886353  0.68486608  0.76335006  1
  O  O71  1  0.50663767  0.82325825  0.76874086  1
loop_
_geom_bond_atom_site_label_1
_geom_bond_atom_site_label_2
_geom_bond_distance
_geom_bond_site_symmetry_2
Na0 O53 2.368791 1_555
Na0 O2 2.378779 1_555
Na0 O52 2.648726 1_555
Na1 O68 2.558822 1_555
Na1 O51 2.586470 1_555
Na1 O0 2.587712 1_555
Na1 O32 2.759299 1_555
Na1 O53 2.768643 1_555
Na1 O10 2.859026 1_555
Na2 O52 2.316748 1_555
Na2 O15 2.466523 1_555
Na2 O66 2.671172 1_655
Na2 O11 2.777347 1_655
Na2 O68 2.869338 1_655
Na2 O51 2.905460 1_555
Na2 O1 3.033679 1_555
Na3 O14 2.298410 1_555
Na3 O49 2.334499 1_555
Na3 O6 2.620069 1_555
Na3 O71 2.727998 1_555
Na3 O50 2.851952 1_555
Na3 O69 2.965322 1_555
Na4 O12 2.365351 1_555
Na4 O7 2.576101 1_655
Na4 O50 2.578558 1_555
Na4 O69 2.711819 1_655
Na4 O48 2.786656 1_555
Na4 O70 2.910794 1_655
Na4 O5 2.962882 1_555
Na5 O48 2.339901 1_555
Na5 O3 2.411141 1_555
Na5 O49 2.624186 1_555
Na5 O13 2.849383 1_555
Na5 O70 2.895220 1_545
Na5 O71 2.947917 1_545
Na5 O8 2.969848 1_545
Na6 O7 2.429679 1_555
Na6 O43 2.506849 1_555
Na6 O65 2.534882 1_555
Na6 O64 2.580828 1_555
Na6 O42 2.647957 1_455
Na6 O28 2.905308 1_555
Na7 O44 2.378249 1_455
Na7 O65 2.470549 1_555
Na7 O63 2.593566 1_555
Na7 O29 2.746038 1_555
Na7 O8 2.777612 1_555
Na8 O27 2.357841 1_555
Na8 O64 2.401476 1_555
Na8 O42 2.505326 1_565
Na8 O44 2.633316 1_555
Na8 O6 2.643033 1_555
Na8 O63 2.843046 1_555
Na9 O26 2.342089 1_554
Na9 O61 2.437581 1_555
Na9 O11 2.477448 1_555
Na9 O45 2.508461 1_455
Na9 O47 2.581816 1_565
Na9 O62 2.850691 1_555
Na10 O45 2.363801 1_555
Na10 O62 2.506131 1_555
Na10 O60 2.637874 1_555
Na10 O24 2.660770 1_554
Na10 O9 2.691128 1_555
Na10 O46 2.763149 1_565
Na11 O10 2.267903 1_555
Na11 O61 2.433322 1_555
Na11 O46 2.491321 1_455
Na12 O42 2.338302 1_565
Na12 O37 2.391060 1_565
Na12 O44 2.412727 1_555
Na12 O36 2.940158 1_655
Na13 O40 2.265690 1_565
Na13 O45 2.373701 1_456
Na13 O47 2.654851 1_566
Na13 O41 2.664807 1_455
Na13 O39 2.915073 1_465
Na13 O46 2.920858 1_466
Na14 O48 2.345398 1_555
Na14 O49 2.372168 1_555
Na14 O56 2.716154 1_555
Na14 O50 2.739778 1_555
Na14 O54 2.777263 1_555
Na14 O55 2.821988 1_555
Na15 O57 2.430127 1_555
Na15 O53 2.487370 1_555
Na15 O58 2.558998 1_555
Na15 O52 2.593806 1_555
Na15 O59 2.618550 1_555
Na15 O51 2.950718 1_555
Na16 O61 2.411647 1_555
Na16 O66 2.648471 1_555
Na16 O68 2.710830 1_555
Na16 O67 2.891225 1_555
Na16 O60 2.999785 1_555
Na17 O64 2.302349 1_555
Na17 O65 2.348883 1_555
Na17 O63 2.805114 1_555
Ca0 O2 2.176515 1_555
Ca0 O37 2.215867 1_555
Ca0 O0 2.216888 1_655
Ca0 O38 2.307362 1_655
Ca0 O1 2.362244 1_545
Ca0 O36 2.412577 1_645
Ca1 O3 2.147840 1_555
Ca1 O5 2.175824 1_455
Ca1 O40 2.240219 1_555
Ca1 O4 2.306487 1_445
Ca1 O39 2.354620 1_455
Ca1 O41 2.496401 1_445
Ca2 O6 2.292181 1_545
Ca2 O42 2.294314 1_555
Ca2 O44 2.406371 1_545
Ca2 O7 2.413403 1_655
Ca2 O43 2.565766 1_655
Ca2 O8 2.606820 1_645
Ca3 O11 2.267452 1_545
Ca3 O10 2.336689 1_555
Ca3 O9 2.477642 1_445
Ca3 O45 2.496551 1_445
Ca3 O47 2.601377 1_555
Ca3 O46 2.653182 1_455
Ca4 O14 2.157722 1_555
Ca4 O12 2.190068 1_555
Ca4 O13 2.260712 1_555
Ca4 O48 2.315605 1_555
Ca4 O49 2.317875 1_555
Ca4 O50 2.408884 1_555
Ca5 O15 2.176304 1_555
Ca5 O52 2.225588 1_555
Ca5 O53 2.266574 1_555
Ca5 O16 2.278091 1_555
Ca5 O17 2.322126 1_555
Ca5 O51 2.355794 1_555
Ca6 O26 2.118615 1_554
Ca6 O25 2.245248 1_554
Ca6 O61 2.257046 1_555
Ca6 O24 2.337948 1_554
Ca6 O62 2.369971 1_555
Ca6 O60 2.427385 1_555
Ca7 O27 2.165722 1_555
Ca7 O64 2.230875 1_555
Ca7 O28 2.236320 1_555
Ca7 O65 2.289360 1_555
Ca7 O29 2.333943 1_555
Ca7 O63 2.373974 1_555
Nb0 O19 1.923718 1_556
Nb0 O56 1.933638 1_555
Nb0 O55 2.032247 1_555
Nb0 O54 2.090001 1_555
Nb0 O18 2.110112 1_556
Nb0 O20 2.169017 1_556
Nb1 O23 1.841681 1_555
Nb1 O22 1.905638 1_555
Nb1 O57 2.000302 1_555
Nb1 O21 2.116772 1_555
Nb1 O59 2.232949 1_555
Nb1 O58 2.384951 1_555
Nb2 O66 1.899668 1_555
Nb2 O31 1.915849 1_555
Nb2 O68 1.983057 1_555
Nb2 O30 2.085211 1_555
Nb2 O67 2.180261 1_555
Nb2 O32 2.198501 1_555
Nb3 O71 1.839612 1_555
Nb3 O69 1.913232 1_555
Nb3 O34 1.960648 1_555
Nb3 O70 2.067096 1_555
Nb3 O35 2.220511 1_555
Nb3 O33 2.407674 1_555
O0 Si0 1.589259 1_545
O1 S0 1.450499 1_555
O2 Si1 1.600482 1_655
O3 Si2 1.601414 1_555
O4 S1 1.450495 1_655
O5 Si3 1.587449 1_555
O6 Si3 1.629012 1_565
O7 Si2 1.642257 1_555
O8 S1 1.482062 1_555
O9 S0 1.498125 1_555
O10 Si1 1.654521 1_555
O11 Si0 1.645420 1_555
O12 Si4 1.600964 1_555
O13 S2 1.468508 1_555
O14 Si5 1.604116 1_555
O15 Si6 1.603535 1_555
O16 S3 1.467166 1_555
O17 S4 1.462606 1_555
O18 S4 1.530138 1_555
O19 Si6 1.760594 1_555
O20 S3 1.522469 1_555
O21 S2 1.526564 1_555
O22 Si5 1.756101 1_555
O23 Si4 1.783154 1_555
O24 S5 1.467618 1_555
O25 S6 1.466841 1_555
O26 Si7 1.596185 1_555
O27 Si8 1.584719 1_555
O28 S7 1.463145 1_555
O29 S8 1.463155 1_555
O30 S8 1.549297 1_555
O31 Si8 1.773500 1_555
O32 S7 1.541177 1_555
O33 S6 1.481247 1_555
O34 Si7 1.721884 1_555
O35 S5 1.500096 1_555
O36 S8 1.444918 1_555
O37 Si8 1.587475 1_545
O38 S7 1.457314 1_555
O39 S6 1.449672 1_655
O40 Si7 1.585649 1_545
O41 S5 1.451923 1_555
O42 Si4 1.618774 1_555
O43 S2 1.481569 1_555
O44 Si5 1.630935 1_555
O45 Si6 1.640274 1_555
O46 S3 1.489350 1_555
O47 S4 1.484375 1_555
O48 Si3 1.621502 1_555
O49 Si2 1.627805 1_555
O50 S1 1.473662 1_655
O51 S0 1.482099 1_555
O52 Si1 1.632805 1_655
O53 Si0 1.626351 1_545
O54 S5 1.553927 1_555
O55 S6 1.564492 1_655
O56 Si7 1.729057 1_545
O57 Si8 1.707558 1_545
O58 S7 1.499830 1_555
O59 S8 1.517408 1_655
O60 S4 1.483877 1_555
O61 Si6 1.642431 1_455
O62 S3 1.484518 1_565
O63 S2 1.478499 1_565
O64 Si5 1.627330 1_555
O65 Si4 1.621985 1_455
O66 Si0 1.745692 1_555
O67 S0 1.529838 1_555
O68 Si1 1.718808 1_555
O69 Si2 1.739355 1_555
O70 S1 1.552449 1_555
O71 Si3 1.774097 1_565
