# generated using pymatgen
data_Cd(HO)2
_symmetry_space_group_name_H-M   'P 1'
_cell_length_a   3.43375499
_cell_length_b   5.70242850
_cell_length_c   6.05293175
_cell_angle_alpha   117.45447725
_cell_angle_beta   105.76515867
_cell_angle_gamma   91.21271567
_symmetry_Int_Tables_number   1
_chemical_formula_structural   Cd(HO)2
_chemical_formula_sum   'Cd2 H4 O4'
_cell_volume   99.71759204
_cell_formula_units_Z   2
loop_
 _symmetry_equiv_pos_site_id
 _symmetry_equiv_pos_as_xyz
  1  'x, y, z'
loop_
 _atom_site_type_symbol
 _atom_site_label
 _atom_site_symmetry_multiplicity
 _atom_site_fract_x
 _atom_site_fract_y
 _atom_site_fract_z
 _atom_site_occupancy
  Cd  Cd0  1  0.17153180  0.15317279  0.31448616  1
  Cd  Cd1  1  0.86394922  0.84254108  0.69889994  1
  H  H0  1  0.52710469  0.72146226  0.01288351  1
  H  H1  1  0.35882396  0.32026176  0.00175026  1
  H  H2  1  0.88324759  0.37538458  0.72971879  1
  H  H3  1  0.16204356  0.65266803  0.28255553  1
  O  O0  1  0.52858630  0.88884114  0.00802117  1
  O  O1  1  0.07731351  0.31117879  0.00394816  1
  O  O2  1  0.80081432  0.39603256  0.57127453  1
  O  O3  1  0.23739505  0.83033701  0.44070695  1
loop_
_geom_bond_atom_site_label_1
_geom_bond_atom_site_label_2
_geom_bond_distance
_geom_bond_site_symmetry_2
Cd0 O2 2.250858 1_555
Cd0 O2 2.262555 1_455
Cd0 O3 2.290106 1_545
Cd0 O0 2.375424 1_445
Cd0 O1 2.386042 1_555
Cd0 O0 2.439690 1_545
Cd1 O3 2.254790 1_655
Cd1 O3 2.267654 1_555
Cd1 O2 2.280077 1_555
Cd1 O0 2.371694 1_556
Cd1 O1 2.391608 1_666
Cd1 O0 2.444936 1_656
H0 O0 0.968337 1_555
H1 O1 0.970954 1_555
H2 O2 0.985793 1_555
H3 O3 0.984788 1_555
