# generated using pymatgen
data_Li7Si2
_symmetry_space_group_name_H-M   'P 1'
_cell_length_a   4.46092654
_cell_length_b   8.00545356
_cell_length_c   14.84650201
_cell_angle_alpha   90.00000000
_cell_angle_beta   90.00000000
_cell_angle_gamma   90.00000000
_symmetry_Int_Tables_number   1
_chemical_formula_structural   Li7Si2
_chemical_formula_sum   'Li28 Si8'
_cell_volume   530.19442341
_cell_formula_units_Z   4
loop_
 _symmetry_equiv_pos_site_id
 _symmetry_equiv_pos_as_xyz
  1  'x, y, z'
loop_
 _atom_site_type_symbol
 _atom_site_label
 _atom_site_symmetry_multiplicity
 _atom_site_fract_x
 _atom_site_fract_y
 _atom_site_fract_z
 _atom_site_occupancy
  Li  Li0  1  -0.00000000  0.00000000  0.00000000  1
  Li  Li1  1  0.00000000  0.50000000  0.50000000  1
  Li  Li2  1  0.50000000  0.50000000  0.00000000  1
  Li  Li3  1  0.50000000  0.00000000  0.50000000  1
  Li  Li4  1  0.50000000  0.12004873  0.35608927  1
  Li  Li5  1  0.50000000  0.87995127  0.64391073  1
  Li  Li6  1  0.50000000  0.62004873  0.14391073  1
  Li  Li7  1  0.50000000  0.37995127  0.85608927  1
  Li  Li8  1  0.50000000  0.23393691  0.10167270  1
  Li  Li9  1  0.50000000  0.76606309  0.89832730  1
  Li  Li10  1  0.50000000  0.73393691  0.39832730  1
  Li  Li11  1  0.50000000  0.26606309  0.60167270  1
  Li  Li12  1  0.50000000  0.41423810  0.25752642  1
  Li  Li13  1  0.50000000  0.58576190  0.74247358  1
  Li  Li14  1  0.50000000  0.91423810  0.24247358  1
  Li  Li15  1  0.50000000  0.08576190  0.75752642  1
  Li  Li16  1  -0.00000000  0.32527850  0.98656705  1
  Li  Li17  1  -0.00000000  0.67472150  0.01343295  1
  Li  Li18  1  0.00000000  0.82527850  0.51343295  1
  Li  Li19  1  0.00000000  0.17472150  0.48656705  1
  Li  Li20  1  -0.00000000  0.11501309  0.18899500  1
  Li  Li21  1  0.00000000  0.88498691  0.81100500  1
  Li  Li22  1  -0.00000000  0.61501309  0.31100500  1
  Li  Li23  1  -0.00000000  0.38498691  0.68899500  1
  Li  Li24  1  0.00000000  0.29688588  0.33468831  1
  Li  Li25  1  0.00000000  0.70311412  0.66531169  1
  Li  Li26  1  -0.00000000  0.79688588  0.16531169  1
  Li  Li27  1  -0.00000000  0.20311412  0.83468831  1
  Si  Si0  1  0.50000000  0.39954269  0.43570450  1
  Si  Si1  1  0.50000000  0.60045731  0.56429550  1
  Si  Si2  1  0.50000000  0.89954269  0.06429550  1
  Si  Si3  1  0.50000000  0.10045731  0.93570450  1
  Si  Si4  1  -0.00000000  0.44105487  0.15347584  1
  Si  Si5  1  -0.00000000  0.55894513  0.84652416  1
  Si  Si6  1  0.00000000  0.94105487  0.34652416  1
  Si  Si7  1  0.00000000  0.05894513  0.65347584  1
loop_
_geom_bond_atom_site_label_1
_geom_bond_atom_site_label_2
_geom_bond_distance
_geom_bond_site_symmetry_2
Li0 Si2 2.555955 1_445
Li0 Si2 2.555955 1_545
Li0 Si3 2.555955 1_554
Li0 Si3 2.555955 1_454
Li0 Li27 2.944067 1_554
Li0 Li26 2.944067 1_545
Li1 Si1 2.555955 1_455
Li1 Si1 2.555955 1_555
Li1 Si0 2.555955 1_455
Li1 Si0 2.555955 1_555
Li1 Li24 2.944067 1_555
Li1 Li25 2.944067 1_555
Li2 Li7 2.342764 1_554
Li2 Li6 2.342764 1_555
Li2 Li8 2.610604 1_555
Li2 Li9 2.610604 1_554
Li3 Li5 2.342764 1_545
Li3 Li4 2.342764 1_555
Li4 Si0 2.530502 1_555
Li4 Si6 2.654885 1_645
Li4 Si6 2.654885 1_545
Li5 Si1 2.530502 1_555
Li5 Si7 2.654885 1_665
Li5 Si7 2.654885 1_565
Li6 Si2 2.530502 1_555
Li6 Si4 2.654885 1_555
Li6 Si4 2.654885 1_655
Li7 Si3 2.530502 1_555
Li7 Si5 2.654885 1_655
Li7 Si5 2.654885 1_555
Li8 Si3 2.685770 1_554
Li8 Si2 2.733888 1_545
Li8 Si4 2.883692 1_555
Li8 Si4 2.883692 1_655
Li9 Si2 2.685770 1_556
Li9 Si3 2.733888 1_565
Li9 Si5 2.883692 1_655
Li9 Si5 2.883692 1_555
Li10 Li3 2.610604 1_565
Li10 Si1 2.685770 1_555
Li10 Li14 2.727166 1_555
Li10 Si0 2.733888 1_555
Li10 Si6 2.883692 1_655
Li10 Si6 2.883692 1_555
Li11 Li3 2.610604 1_555
Li11 Si0 2.685770 1_555
Li11 Li15 2.727166 1_555
Li11 Si1 2.733888 1_555
Li11 Si7 2.883692 1_555
Li11 Si7 2.883692 1_655
Li12 Li6 2.357942 1_555
Li12 Si0 2.647936 1_555
Li12 Li24 2.677669 1_655
Li12 Li24 2.677669 1_555
Li12 Si4 2.721658 1_555
Li12 Si4 2.721658 1_655
Li12 Li8 2.727166 1_555
Li12 Li4 2.772702 1_555
Li12 Li22 2.861599 1_655
Li12 Li22 2.861599 1_555
Li13 Li7 2.357942 1_555
Li13 Si1 2.647936 1_555
Li13 Li25 2.677669 1_555
Li13 Li25 2.677669 1_655
Li13 Si5 2.721658 1_555
Li13 Si5 2.721658 1_655
Li13 Li9 2.727166 1_555
Li13 Li5 2.772702 1_555
Li13 Li23 2.861599 1_555
Li13 Li23 2.861599 1_655
Li14 Li4 2.357942 1_565
Li14 Si2 2.647936 1_555
Li14 Li26 2.677669 1_555
Li14 Li26 2.677669 1_655
Li14 Si6 2.721658 1_655
Li14 Si6 2.721658 1_555
Li14 Li6 2.772702 1_555
Li14 Li20 2.861599 1_565
Li14 Li20 2.861599 1_665
Li15 Li5 2.357942 1_545
Li15 Si3 2.647936 1_555
Li15 Li27 2.677669 1_555
Li15 Li27 2.677669 1_655
Li15 Si7 2.721658 1_555
Li15 Si7 2.721658 1_655
Li15 Li7 2.772702 1_555
Li15 Li21 2.861599 1_645
Li15 Li21 2.861599 1_545
Li16 Li27 2.457820 1_555
Li16 Li2 2.640297 1_556
Li16 Li2 2.640297 1_456
Li16 Si4 2.645672 1_556
Li16 Si5 2.796788 1_555
Li16 Si3 2.963858 1_455
Li16 Si3 2.963858 1_555
Li17 Li26 2.457820 1_555
Li17 Li2 2.640297 1_455
Li17 Li2 2.640297 1_555
Li17 Si5 2.645672 1_554
Li17 Si4 2.796788 1_555
Li17 Si2 2.963858 1_455
Li17 Si2 2.963858 1_555
Li18 Li25 2.457820 1_555
Li18 Li3 2.640297 1_465
Li18 Li3 2.640297 1_565
Li18 Si6 2.645672 1_555
Li18 Si7 2.796788 1_565
Li18 Si1 2.963858 1_555
Li18 Si1 2.963858 1_455
Li19 Li24 2.457820 1_555
Li19 Li3 2.640297 1_455
Li19 Li3 2.640297 1_555
Li19 Si7 2.645672 1_555
Li19 Si6 2.796788 1_545
Li19 Si0 2.963858 1_455
Li19 Si0 2.963858 1_555
Li20 Li26 2.570911 1_545
Li20 Li24 2.607410 1_555
Li20 Si4 2.662850 1_555
Li20 Si6 2.721977 1_545
Li21 Li27 2.570911 1_565
Li21 Li25 2.607410 1_555
Li21 Si5 2.662850 1_555
Li21 Si7 2.721977 1_565
Li22 Li24 2.570911 1_555
Li22 Li26 2.607410 1_555
Li22 Si6 2.662850 1_555
Li22 Si4 2.721977 1_555
Li23 Li25 2.570911 1_555
Li23 Li27 2.607410 1_555
Li23 Si7 2.662850 1_555
Li23 Si5 2.721977 1_555
Li24 Li4 2.660830 1_455
Li24 Li4 2.660830 1_555
Li24 Si0 2.810615 1_555
Li24 Si0 2.810615 1_455
Li24 Si6 2.854003 1_545
Li24 Si4 2.927479 1_555
Li25 Li5 2.660830 1_455
Li25 Li5 2.660830 1_555
Li25 Si1 2.810615 1_555
Li25 Si1 2.810615 1_455
Li25 Si7 2.854003 1_565
Li25 Si5 2.927479 1_555
Li26 Li6 2.660830 1_555
Li26 Li6 2.660830 1_455
Li26 Si2 2.810615 1_555
Li26 Si2 2.810615 1_455
Li26 Si4 2.854003 1_555
Li26 Si6 2.927479 1_555
Li27 Li7 2.660830 1_555
Li27 Li7 2.660830 1_455
Li27 Si3 2.810615 1_455
Li27 Si3 2.810615 1_555
Li27 Si5 2.854003 1_555
Li27 Si7 2.927479 1_555
Si0 Si1 2.496348 1_555
Si2 Si3 2.496348 1_564
