# generated using pymatgen
data_Na3AlSi2SnSO12
_symmetry_space_group_name_H-M   'P 1'
_cell_length_a   8.87061427
_cell_length_b   8.87061397
_cell_length_c   22.15698209
_cell_angle_alpha   90.39727703
_cell_angle_beta   89.60272297
_cell_angle_gamma   120.02578004
_symmetry_Int_Tables_number   1
_chemical_formula_structural   Na3AlSi2SnSO12
_chemical_formula_sum   'Na18 Al6 Si12 Sn6 S6 O72'
_cell_volume   1509.46072893
_cell_formula_units_Z   6
loop_
 _symmetry_equiv_pos_site_id
 _symmetry_equiv_pos_as_xyz
  1  'x, y, z'
loop_
 _atom_site_type_symbol
 _atom_site_label
 _atom_site_symmetry_multiplicity
 _atom_site_fract_x
 _atom_site_fract_y
 _atom_site_fract_z
 _atom_site_occupancy
  Na  Na0  1  0.62782934  0.99761610  0.24621997  1
  Na  Na1  1  0.99946822  0.64425547  0.24629756  1
  Na  Na2  1  0.00238390  0.37217066  0.74621997  1
  Na  Na3  1  0.35574453  0.00053178  0.74629756  1
  Na  Na4  1  0.29449634  0.33094910  0.57955297  1
  Na  Na5  1  0.66613522  0.97758847  0.57963056  1
  Na  Na6  1  0.66905090  0.70550366  0.07955297  1
  Na  Na7  1  0.02241153  0.33386478  0.07963056  1
  Na  Na8  1  0.96116234  0.66428310  0.91288697  1
  Na  Na9  1  0.33280122  0.31092247  0.91296456  1
  Na  Na10  1  0.33571690  0.03883766  0.41288697  1
  Na  Na11  1  0.68907753  0.66719878  0.41296456  1
  Na  Na12  1  0.00545505  0.01686714  0.49702029  1
  Na  Na13  1  0.98313286  0.99454495  0.99702029  1
  Na  Na14  1  0.67212205  0.35020014  0.83035329  1
  Na  Na15  1  0.64979986  0.32787795  0.33035329  1
  Na  Na16  1  0.33878805  0.68353414  0.16368729  1
  Na  Na17  1  0.31646586  0.66121195  0.66368729  1
  Al  Al0  1  0.00310482  0.00667458  0.35262508  1
  Al  Al1  1  0.99332542  0.99689518  0.85262508  1
  Al  Al2  1  0.66977182  0.34000758  0.68595808  1
  Al  Al3  1  0.65999242  0.33022818  0.18595808  1
  Al  Al4  1  0.33643782  0.67334158  0.01929208  1
  Al  Al5  1  0.32665842  0.66356218  0.51929208  1
  Si  Si0  1  0.29474186  0.01001788  0.25343664  1
  Si  Si1  1  0.70936564  0.69979444  0.25218305  1
  Si  Si2  1  0.30020556  0.29063436  0.75218305  1
  Si  Si3  1  0.98998212  0.70525814  0.75343664  1
  Si  Si4  1  0.96140886  0.34335088  0.58676964  1
  Si  Si5  1  0.37603264  0.03312744  0.58551605  1
  Si  Si6  1  0.96687256  0.62396736  0.08551605  1
  Si  Si7  1  0.65664912  0.03859114  0.08676964  1
  Si  Si8  1  0.62807486  0.67668488  0.92010364  1
  Si  Si9  1  0.04269864  0.36646144  0.91885005  1
  Si  Si10  1  0.63353856  0.95730136  0.41885005  1
  Si  Si11  1  0.32331512  0.37192514  0.42010364  1
  Sn  Sn0  1  0.01617572  0.00597256  0.64888216  1
  Sn  Sn1  1  0.99402744  0.98382428  0.14888216  1
  Sn  Sn2  1  0.68284272  0.33930556  0.98221516  1
  Sn  Sn3  1  0.66069444  0.31715728  0.48221516  1
  Sn  Sn4  1  0.34950872  0.67263956  0.31554916  1
  Sn  Sn5  1  0.32736044  0.65049128  0.81554916  1
  S  S0  1  0.00123999  0.29002923  0.25119187  1
  S  S1  1  0.70997077  0.99876001  0.75119187  1
  S  S2  1  0.66790699  0.62336223  0.58452487  1
  S  S3  1  0.37663777  0.33209301  0.08452487  1
  S  S4  1  0.33457299  0.95669623  0.91785887  1
  S  S5  1  0.04330377  0.66542701  0.41785887  1
  O  O0  1  0.19575109  0.02875985  0.31235260  1
  O  O1  1  0.83689866  0.79921797  0.30968188  1
  O  O2  1  0.97286381  0.17523785  0.30318647  1
  O  O3  1  0.20078203  0.16310134  0.80968188  1
  O  O4  1  0.97124015  0.80424891  0.81235260  1
  O  O5  1  0.82476215  0.02713619  0.80318647  1
  O  O6  1  0.77790579  0.96444583  0.69420890  1
  O  O7  1  0.17419788  0.22321333  0.69178843  1
  O  O8  1  0.03702536  0.82645752  0.69290246  1
  O  O9  1  0.77678667  0.82580212  0.19178843  1
  O  O10  1  0.03555417  0.22209421  0.19420890  1
  O  O11  1  0.17354248  0.96297464  0.19290246  1
  O  O12  1  0.86241809  0.36209285  0.64568560  1
  O  O13  1  0.50356566  0.13255097  0.64301488  1
  O  O14  1  0.63953081  0.50857085  0.63651947  1
  O  O15  1  0.86744903  0.49643434  0.14301488  1
  O  O16  1  0.63790715  0.13758191  0.14568560  1
  O  O17  1  0.49142915  0.36046919  0.13651947  1
  O  O18  1  0.44457279  0.29777883  0.02754190  1
  O  O19  1  0.84086488  0.55654633  0.02512143  1
  O  O20  1  0.70369236  0.15979052  0.02623546  1
  O  O21  1  0.44345367  0.15913512  0.52512143  1
  O  O22  1  0.70222117  0.55542721  0.52754190  1
  O  O23  1  0.84020948  0.29630764  0.52623546  1
  O  O24  1  0.52908409  0.69542685  0.97901960  1
  O  O25  1  0.17023166  0.46588497  0.97634888  1
  O  O26  1  0.30619681  0.84190485  0.96985347  1
  O  O27  1  0.53411503  0.82976834  0.47634888  1
  O  O28  1  0.30457315  0.47091591  0.47901960  1
  O  O29  1  0.15809515  0.69380319  0.46985347  1
  O  O30  1  0.11123879  0.63111283  0.36087590  1
  O  O31  1  0.50753088  0.88988033  0.35845543  1
  O  O32  1  0.37035836  0.49312452  0.35956946  1
  O  O33  1  0.11011967  0.49246912  0.85845543  1
  O  O34  1  0.36888717  0.88876121  0.86087590  1
  O  O35  1  0.50687548  0.62964164  0.85956946  1
  O  O36  1  0.02916048  0.82509164  0.41331049  1
  O  O37  1  0.82027870  0.96591645  0.40782194  1
  O  O38  1  0.16041651  0.17451617  0.41046249  1
  O  O39  1  0.03408355  0.17972130  0.90782194  1
  O  O40  1  0.17490836  0.97083952  0.91331049  1
  O  O41  1  0.82548383  0.83958349  0.91046249  1
  O  O42  1  0.96789993  0.15586053  0.59004112  1
  O  O43  1  0.18388712  0.01965313  0.58597939  1
  O  O44  1  0.81820830  0.80227659  0.59040720  1
  O  O45  1  0.98034687  0.81611288  0.08597939  1
  O  O46  1  0.84413947  0.03210007  0.09004112  1
  O  O47  1  0.19772341  0.18179170  0.09040720  1
  O  O48  1  0.69582748  0.15842464  0.74664349  1
  O  O49  1  0.48694570  0.29924945  0.74115494  1
  O  O50  1  0.82708351  0.50784917  0.74379549  1
  O  O51  1  0.70075055  0.51305430  0.24115494  1
  O  O52  1  0.84157536  0.30417252  0.24664349  1
  O  O53  1  0.49215083  0.17291649  0.24379549  1
  O  O54  1  0.63456693  0.48919353  0.92337412  1
  O  O55  1  0.85055412  0.35298613  0.91931239  1
  O  O56  1  0.48487530  0.13560959  0.92374020  1
  O  O57  1  0.64701387  0.14944588  0.41931239  1
  O  O58  1  0.51080647  0.36543307  0.42337412  1
  O  O59  1  0.86439041  0.51512470  0.42374020  1
  O  O60  1  0.36249348  0.49175864  0.07997749  1
  O  O61  1  0.15361170  0.63258345  0.07448894  1
  O  O62  1  0.49374951  0.84118317  0.07712949  1
  O  O63  1  0.36741655  0.84638830  0.57448894  1
  O  O64  1  0.50824136  0.63750652  0.57997749  1
  O  O65  1  0.15881683  0.50625049  0.57712949  1
  O  O66  1  0.30123293  0.82252753  0.25670812  1
  O  O67  1  0.51722012  0.68632013  0.25264639  1
  O  O68  1  0.15154130  0.46894359  0.25707420  1
  O  O69  1  0.31367987  0.48277988  0.75264639  1
  O  O70  1  0.17747247  0.69876707  0.75670812  1
  O  O71  1  0.53105641  0.84845870  0.75707420  1
loop_
_geom_bond_atom_site_label_1
_geom_bond_atom_site_label_2
_geom_bond_distance
_geom_bond_site_symmetry_2
Na0 O53 2.396785 1_565
Na0 O52 2.414497 1_565
Na0 O67 2.429040 1_555
Na0 O66 2.520326 1_555
Na0 O16 2.536919 1_565
Na0 O31 2.685476 1_555
Na0 O9 2.737001 1_555
Na0 O2 2.939934 1_565
Na1 O51 2.303256 1_555
Na1 O66 2.342337 1_655
Na1 O68 2.530664 1_655
Na1 O15 2.605098 1_555
Na1 O52 2.614214 1_555
Na1 O11 2.725673 1_655
Na1 O30 2.756148 1_655
Na1 O1 2.805450 1_555
Na2 O50 2.396785 1_455
Na2 O48 2.414497 1_455
Na2 O69 2.429041 1_555
Na2 O70 2.520326 1_555
Na2 O12 2.536919 1_455
Na2 O33 2.685476 1_555
Na2 O7 2.737001 1_555
Na2 O5 2.939934 1_455
Na3 O49 2.303256 1_555
Na3 O70 2.342337 1_545
Na3 O71 2.530664 1_545
Na3 O13 2.605098 1_555
Na3 O48 2.614214 1_555
Na3 O8 2.725673 1_545
Na3 O34 2.756148 1_545
Na3 O3 2.805450 1_555
Na4 O65 2.396800 1_555
Na4 O64 2.414502 1_555
Na4 O43 2.429040 1_555
Na4 O42 2.520326 1_455
Na4 O28 2.536906 1_555
Na4 O7 2.685476 1_555
Na4 O21 2.737001 1_555
Na4 O14 2.939934 1_555
Na5 O63 2.303263 1_555
Na5 O42 2.342337 1_565
Na5 O44 2.530664 1_555
Na5 O27 2.605078 1_555
Na5 O64 2.614205 1_555
Na5 O23 2.725673 1_565
Na5 O6 2.756148 1_555
Na5 O13 2.805450 1_565
Na6 O62 2.396800 1_555
Na6 O60 2.414502 1_555
Na6 O45 2.429041 1_555
Na6 O46 2.520326 1_565
Na6 O24 2.536906 1_554
Na6 O9 2.685476 1_555
Na6 O19 2.737001 1_555
Na6 O17 2.939934 1_555
Na7 O61 2.303263 1_555
Na7 O46 2.342337 1_455
Na7 O47 2.530664 1_555
Na7 O25 2.605078 1_554
Na7 O60 2.614206 1_555
Na7 O20 2.725673 1_455
Na7 O10 2.756148 1_555
Na7 O15 2.805450 1_455
Na8 O41 2.396785 1_555
Na8 O40 2.414497 1_655
Na8 O55 2.429049 1_555
Na8 O54 2.520317 1_555
Na8 O4 2.536919 1_555
Na8 O19 2.685455 1_556
Na8 O33 2.737001 1_655
Na8 O26 2.939934 1_655
Na9 O39 2.303256 1_555
Na9 O54 2.342341 1_555
Na9 O56 2.530677 1_555
Na9 O3 2.605098 1_555
Na9 O40 2.614214 1_545
Na9 O35 2.725673 1_555
Na9 O18 2.756133 1_556
Na9 O25 2.805450 1_555
Na10 O38 2.396785 1_555
Na10 O36 2.414497 1_545
Na10 O57 2.429049 1_555
Na10 O58 2.520317 1_555
Na10 O0 2.536919 1_555
Na10 O21 2.685455 1_555
Na10 O31 2.737001 1_545
Na10 O29 2.939934 1_545
Na11 O37 2.303256 1_555
Na11 O58 2.342341 1_555
Na11 O59 2.530677 1_555
Na11 O1 2.605098 1_555
Na11 O36 2.614214 1_655
Na11 O32 2.725673 1_555
Na11 O22 2.756133 1_555
Na11 O27 2.805450 1_555
Na12 O38 2.366473 1_555
Na12 O37 2.469447 1_445
Na12 O42 2.499087 1_455
Na12 O43 2.528718 1_555
Na12 O36 2.585952 1_545
Na12 O44 2.739815 1_445
Na13 O41 2.366473 1_555
Na13 O39 2.469447 1_665
Na13 O46 2.499087 1_566
Na13 O45 2.528718 1_556
Na13 O40 2.585952 1_655
Na13 O47 2.739815 1_666
Na14 O50 2.366473 1_555
Na14 O49 2.469447 1_555
Na14 O54 2.499087 1_555
Na14 O55 2.528718 1_555
Na14 O48 2.585952 1_555
Na14 O56 2.739815 1_555
Na15 O53 2.366473 1_555
Na15 O51 2.469447 1_555
Na15 O58 2.499087 1_555
Na15 O57 2.528718 1_555
Na15 O52 2.585952 1_555
Na15 O59 2.739815 1_555
Na16 O62 2.366473 1_555
Na16 O61 2.469447 1_555
Na16 O66 2.499087 1_555
Na16 O67 2.528718 1_555
Na16 O60 2.585952 1_555
Na16 O68 2.739815 1_555
Na17 O65 2.366473 1_555
Na17 O63 2.469447 1_555
Na17 O70 2.499087 1_555
Na17 O69 2.528718 1_555
Na17 O64 2.585952 1_555
Na17 O71 2.739815 1_555
Al0 O0 1.844220 1_555
Al0 O37 1.910085 1_445
Al0 O38 1.930110 1_555
Al0 O1 1.935327 1_445
Al0 O2 1.983911 1_455
Al0 O36 2.205184 1_545
Al1 O4 1.844220 1_555
Al1 O39 1.910085 1_665
Al1 O41 1.930110 1_555
Al1 O3 1.935327 1_665
Al1 O5 1.983911 1_565
Al1 O40 2.205184 1_655
Al2 O12 1.844220 1_555
Al2 O49 1.910085 1_555
Al2 O50 1.930110 1_555
Al2 O13 1.935327 1_555
Al2 O14 1.983911 1_555
Al2 O48 2.205184 1_555
Al3 O16 1.844220 1_555
Al3 O51 1.910085 1_555
Al3 O53 1.930110 1_555
Al3 O15 1.935327 1_555
Al3 O17 1.983911 1_555
Al3 O52 2.205184 1_555
Al4 O24 1.844220 1_554
Al4 O61 1.910085 1_555
Al4 O62 1.930110 1_555
Al4 O25 1.935327 1_554
Al4 O26 1.983911 1_554
Al4 O60 2.205184 1_555
Al5 O28 1.844220 1_555
Al5 O63 1.910085 1_555
Al5 O65 1.930110 1_555
Al5 O27 1.935327 1_555
Al5 O29 1.983911 1_555
Al5 O64 2.205184 1_555
O0 Si0 1.621721 1_555
O1 Si1 1.639092 1_555
O2 S0 1.477556 1_655
O3 Si2 1.639092 1_555
O4 Si3 1.621721 1_555
O5 S1 1.477556 1_545
O6 S1 1.489157 1_555
O6 Sn0 2.192746 1_665
O7 Si2 1.654807 1_555
O7 Sn0 1.967729 1_555
O8 Si3 1.640796 1_455
O8 Sn0 1.959611 1_565
O9 Si1 1.654807 1_555
O9 Sn1 1.967729 1_555
O10 S0 1.489157 1_555
O10 Sn1 2.192746 1_445
O11 Si0 1.640796 1_565
O11 Sn1 1.959611 1_455
O12 Si4 1.621721 1_555
O13 Si5 1.639092 1_555
O14 S2 1.477556 1_555
O15 Si6 1.639092 1_555
O16 Si7 1.621721 1_555
O17 S3 1.477556 1_555
O18 S3 1.489157 1_555
O18 Sn2 2.192746 1_554
O19 Si6 1.654807 1_555
O19 Sn2 1.967729 1_554
O20 Si7 1.640796 1_555
O20 Sn2 1.959611 1_554
O21 Si5 1.654807 1_555
O21 Sn3 1.967729 1_555
O22 S2 1.489157 1_555
O22 Sn3 2.192746 1_555
O23 Si4 1.640796 1_555
O23 Sn3 1.959611 1_555
O24 Si8 1.621721 1_555
O25 Si9 1.639092 1_555
O26 S4 1.477556 1_555
O27 Si10 1.639092 1_555
O28 Si11 1.621721 1_555
O29 S5 1.477556 1_555
O30 S5 1.489157 1_555
O30 Sn4 2.192746 1_555
O31 Si10 1.654807 1_555
O31 Sn4 1.967729 1_555
O32 Si11 1.640796 1_555
O32 Sn4 1.959611 1_555
O33 Si9 1.654807 1_555
O33 Sn5 1.967729 1_555
O34 S4 1.489157 1_555
O34 Sn5 2.192746 1_555
O35 Si8 1.640796 1_555
O35 Sn5 1.959611 1_555
O36 S5 1.487230 1_555
O37 Si10 1.636305 1_555
O38 Si11 1.633059 1_555
O39 Si9 1.636305 1_555
O40 S4 1.487230 1_555
O41 Si8 1.633059 1_555
O42 Si4 1.694763 1_555
O42 Sn0 2.062174 1_655
O43 Si5 1.647856 1_555
O43 Sn0 1.990828 1_555
O44 S2 1.481655 1_555
O44 Sn0 2.202487 1_665
O45 Si6 1.647856 1_555
O45 Sn1 1.990828 1_555
O46 Si7 1.694763 1_555
O46 Sn1 2.062174 1_545
O47 S3 1.481655 1_555
O47 Sn1 2.202487 1_445
O48 S1 1.487230 1_545
O49 Si2 1.636305 1_555
O50 Si3 1.633059 1_555
O51 Si1 1.636305 1_555
O52 S0 1.487230 1_655
O53 Si0 1.633059 1_555
O54 Si8 1.694775 1_555
O54 Sn2 2.062174 1_555
O55 Si9 1.647843 1_655
O55 Sn2 1.990828 1_555
O56 S4 1.481650 1_545
O56 Sn2 2.202487 1_555
O57 Si10 1.647843 1_545
O57 Sn3 1.990828 1_555
O58 Si11 1.694775 1_555
O58 Sn3 2.062174 1_555
O59 S5 1.481650 1_655
O59 Sn3 2.202487 1_555
O60 S3 1.487242 1_555
O61 Si6 1.636289 1_455
O62 Si7 1.633054 1_565
O63 Si5 1.636289 1_565
O64 S2 1.487242 1_555
O65 Si4 1.633054 1_455
O66 Si0 1.694763 1_565
O66 Sn4 2.062174 1_555
O67 Si1 1.647856 1_555
O67 Sn4 1.990828 1_555
O68 S0 1.481655 1_555
O68 Sn4 2.202487 1_555
O69 Si2 1.647856 1_555
O69 Sn5 1.990828 1_555
O70 Si3 1.694763 1_455
O70 Sn5 2.062174 1_555
O71 S1 1.481655 1_555
O71 Sn5 2.202487 1_555
