# generated using pymatgen
data_Pr2MgCuO4
_symmetry_space_group_name_H-M   'P 1'
_cell_length_a   3.81202622
_cell_length_b   3.81202574
_cell_length_c   9.83696760
_cell_angle_alpha   101.17229740
_cell_angle_beta   101.17228836
_cell_angle_gamma   89.99999892
_symmetry_Int_Tables_number   1
_chemical_formula_structural   Pr2MgCuO4
_chemical_formula_sum   'Pr2 Mg1 Cu1 O4'
_cell_volume   137.47497784
_cell_formula_units_Z   1
loop_
 _symmetry_equiv_pos_site_id
 _symmetry_equiv_pos_as_xyz
  1  'x, y, z'
loop_
 _atom_site_type_symbol
 _atom_site_label
 _atom_site_symmetry_multiplicity
 _atom_site_fract_x
 _atom_site_fract_y
 _atom_site_fract_z
 _atom_site_occupancy
  Pr  Pr0  1  0.31234070  0.31234070  0.62468041  1
  Pr  Pr1  1  0.68765930  0.68765930  0.37531959  1
  Mg  Mg0  1  0.50000000  0.50000000  0.00000000  1
  Cu  Cu0  1  0.00000000  -0.00000000  0.00000000  1
  O  O0  1  0.18962840  0.18962840  0.37925781  1
  O  O1  1  0.81037160  0.81037160  0.62074219  1
  O  O2  1  0.50000000  -0.00000000  0.00000000  1
  O  O3  1  0.00000000  0.50000000  0.00000000  1
loop_
_geom_bond_atom_site_label_1
_geom_bond_atom_site_label_2
_geom_bond_distance
_geom_bond_site_symmetry_2
Mg0 O2 1.906013 1_555
Mg0 O2 1.906013 1_565
Mg0 O3 1.906013 1_555
Mg0 O3 1.906013 1_655
Cu0 O3 1.906013 1_555
Cu0 O3 1.906013 1_545
Cu0 O2 1.906013 1_455
Cu0 O2 1.906013 1_555
O0 Pr0 2.321809 1_555
O0 Pr1 2.695767 1_545
O0 Pr1 2.695767 1_455
O0 Pr1 2.695767 1_445
O0 Pr1 2.695767 1_555
O1 Pr1 2.321809 1_555
O1 Pr0 2.695767 1_565
O1 Pr0 2.695767 1_655
O1 Pr0 2.695767 1_665
O1 Pr0 2.695767 1_555
