# generated using pymatgen
data_Pr3InN
_symmetry_space_group_name_H-M   'P 1'
_cell_length_a   5.07883424
_cell_length_b   5.07883424
_cell_length_c   5.07883424
_cell_angle_alpha   90.00000000
_cell_angle_beta   90.00000000
_cell_angle_gamma   90.00000000
_symmetry_Int_Tables_number   1
_chemical_formula_structural   Pr3InN
_chemical_formula_sum   'Pr3 In1 N1'
_cell_volume   131.00628050
_cell_formula_units_Z   1
loop_
 _symmetry_equiv_pos_site_id
 _symmetry_equiv_pos_as_xyz
  1  'x, y, z'
loop_
 _atom_site_type_symbol
 _atom_site_label
 _atom_site_symmetry_multiplicity
 _atom_site_fract_x
 _atom_site_fract_y
 _atom_site_fract_z
 _atom_site_occupancy
  Pr  Pr0  1  0.50000000  0.50000000  0.00000000  1
  Pr  Pr1  1  0.00000000  0.50000000  0.50000000  1
  Pr  Pr2  1  0.50000000  0.00000000  0.50000000  1
  In  In0  1  0.00000000  0.00000000  0.00000000  1
  N  N0  1  0.50000000  0.50000000  0.50000000  1
loop_
_geom_bond_atom_site_label_1
_geom_bond_atom_site_label_2
_geom_bond_distance
_geom_bond_site_symmetry_2
In0 Pr1 3.591278 1_544
In0 Pr1 3.591278 1_545
In0 Pr1 3.591278 1_555
In0 Pr1 3.591278 1_554
In0 Pr0 3.591278 1_555
In0 Pr2 3.591278 1_455
In0 Pr2 3.591278 1_454
In0 Pr0 3.591278 1_445
In0 Pr2 3.591278 1_555
In0 Pr0 3.591278 1_455
In0 Pr0 3.591278 1_545
In0 Pr2 3.591278 1_554
N0 Pr1 2.539417 1_655
N0 Pr2 2.539417 1_565
N0 Pr1 2.539417 1_555
N0 Pr2 2.539417 1_555
N0 Pr0 2.539417 1_555
N0 Pr0 2.539417 1_556
