# generated using pymatgen
data_RbH3(CO2)2
_symmetry_space_group_name_H-M   'P 1'
_cell_length_a   7.85319900
_cell_length_b   7.98421900
_cell_length_c   18.20060100
_cell_angle_alpha   90.00000000
_cell_angle_beta   90.00000000
_cell_angle_gamma   90.00000000
_symmetry_Int_Tables_number   1
_chemical_formula_structural   RbH3(CO2)2
_chemical_formula_sum   'Rb8 H24 C16 O32'
_cell_volume   1141.20790783
_cell_formula_units_Z   8
loop_
 _symmetry_equiv_pos_site_id
 _symmetry_equiv_pos_as_xyz
  1  'x, y, z'
loop_
 _atom_site_type_symbol
 _atom_site_label
 _atom_site_symmetry_multiplicity
 _atom_site_fract_x
 _atom_site_fract_y
 _atom_site_fract_z
 _atom_site_occupancy
  Rb  Rb0  1  0.78036600  0.55879200  0.03955000  1
  Rb  Rb1  1  0.28036600  0.44120800  0.46045000  1
  Rb  Rb2  1  0.71963400  0.05879200  0.96045000  1
  Rb  Rb3  1  0.21963400  0.94120800  0.53955000  1
  Rb  Rb4  1  0.21963400  0.44120800  0.96045000  1
  Rb  Rb5  1  0.71963400  0.55879200  0.53955000  1
  Rb  Rb6  1  0.28036600  0.94120800  0.03955000  1
  Rb  Rb7  1  0.78036600  0.05879200  0.46045000  1
  H  H0  1  0.02925700  0.07857600  0.23152300  1
  H  H1  1  0.52925700  0.92142400  0.26847700  1
  H  H2  1  0.47074300  0.57857600  0.76847700  1
  H  H3  1  0.97074300  0.42142400  0.73152300  1
  H  H4  1  0.97074300  0.92142400  0.76847700  1
  H  H5  1  0.47074300  0.07857600  0.73152300  1
  H  H6  1  0.52925700  0.42142400  0.23152300  1
  H  H7  1  0.02925700  0.57857600  0.26847700  1
  H  H8  1  0.23716100  0.68345400  0.20267500  1
  H  H9  1  0.73716100  0.31654600  0.29732500  1
  H  H10  1  0.26283900  0.18345400  0.79732500  1
  H  H11  1  0.76283900  0.81654600  0.70267500  1
  H  H12  1  0.76283900  0.31654600  0.79732500  1
  H  H13  1  0.26283900  0.68345400  0.70267500  1
  H  H14  1  0.73716100  0.81654600  0.20267500  1
  H  H15  1  0.23716100  0.18345400  0.29732500  1
  H  H16  1  0.86249400  0.24824700  0.15559200  1
  H  H17  1  0.36249400  0.75175300  0.34440800  1
  H  H18  1  0.63750600  0.74824700  0.84440800  1
  H  H19  1  0.13750600  0.25175300  0.65559200  1
  H  H20  1  0.13750600  0.75175300  0.84440800  1
  H  H21  1  0.63750600  0.24824700  0.65559200  1
  H  H22  1  0.36249400  0.25175300  0.15559200  1
  H  H23  1  0.86249400  0.74824700  0.34440800  1
  C  C0  1  0.63293800  0.37220100  0.33065800  1
  C  C1  1  0.13293800  0.62779900  0.16934200  1
  C  C2  1  0.86706200  0.87220100  0.66934200  1
  C  C3  1  0.36706200  0.12779900  0.83065800  1
  C  C4  1  0.36706200  0.62779900  0.66934200  1
  C  C5  1  0.86706200  0.37220100  0.83065800  1
  C  C6  1  0.13293800  0.12779900  0.33065800  1
  C  C7  1  0.63293800  0.87220100  0.16934200  1
  C  C8  1  0.96766700  0.18670300  0.12475000  1
  C  C9  1  0.46766700  0.81329700  0.37525000  1
  C  C10  1  0.53233300  0.68670300  0.87525000  1
  C  C11  1  0.03233300  0.31329700  0.62475000  1
  C  C12  1  0.03233300  0.81329700  0.87525000  1
  C  C13  1  0.53233300  0.18670300  0.62475000  1
  C  C14  1  0.46766700  0.31329700  0.12475000  1
  C  C15  1  0.96766700  0.68670300  0.37525000  1
  O  O0  1  0.99496300  0.43242500  0.79340000  1
  O  O1  1  0.49496300  0.56757500  0.70660000  1
  O  O2  1  0.50503700  0.93242500  0.20660000  1
  O  O3  1  0.00503700  0.06757500  0.29340000  1
  O  O4  1  0.00503700  0.56757500  0.20660000  1
  O  O5  1  0.50503700  0.43242500  0.29340000  1
  O  O6  1  0.49496300  0.06757500  0.79340000  1
  O  O7  1  0.99496300  0.93242500  0.70660000  1
  O  O8  1  0.64184500  0.37381400  0.39876300  1
  O  O9  1  0.14184500  0.62618600  0.10123700  1
  O  O10  1  0.85815500  0.87381400  0.60123700  1
  O  O11  1  0.35815500  0.12618600  0.89876300  1
  O  O12  1  0.35815500  0.62618600  0.60123700  1
  O  O13  1  0.85815500  0.37381400  0.89876300  1
  O  O14  1  0.14184500  0.12618600  0.39876300  1
  O  O15  1  0.64184500  0.87381400  0.10123700  1
  O  O16  1  0.93588300  0.41302200  0.66192000  1
  O  O17  1  0.43588300  0.58697800  0.83808000  1
  O  O18  1  0.56411700  0.91302200  0.33808000  1
  O  O19  1  0.06411700  0.08697800  0.16192000  1
  O  O20  1  0.06411700  0.58697800  0.33808000  1
  O  O21  1  0.56411700  0.41302200  0.16192000  1
  O  O22  1  0.43588300  0.08697800  0.66192000  1
  O  O23  1  0.93588300  0.91302200  0.83808000  1
  O  O24  1  0.98498500  0.21713500  0.05764200  1
  O  O25  1  0.48498500  0.78286500  0.44235800  1
  O  O26  1  0.51501500  0.71713500  0.94235800  1
  O  O27  1  0.01501500  0.28286500  0.55764200  1
  O  O28  1  0.01501500  0.78286500  0.94235800  1
  O  O29  1  0.51501500  0.21713500  0.55764200  1
  O  O30  1  0.48498500  0.28286500  0.05764200  1
  O  O31  1  0.98498500  0.71713500  0.44235800  1
loop_
_geom_bond_atom_site_label_1
_geom_bond_atom_site_label_2
_geom_bond_distance
_geom_bond_site_symmetry_2
H0 O3 1.145520 1_555
H0 O19 1.297794 1_555
H1 O2 1.145520 1_555
H1 O18 1.297794 1_555
H2 O1 1.145520 1_555
H2 O17 1.297794 1_555
H3 O0 1.145520 1_555
H3 O16 1.297794 1_555
H4 O7 1.145520 1_555
H4 O23 1.297794 1_555
H5 O6 1.145520 1_555
H5 O22 1.297794 1_555
H6 O5 1.145520 1_555
H6 O21 1.297794 1_555
H7 O4 1.145520 1_555
H7 O20 1.297794 1_555
C0 H9 1.111501 1_555
C0 O8 1.241591 1_555
C0 O5 1.303816 1_555
C1 H8 1.111501 1_555
C1 O9 1.241591 1_555
C1 O4 1.303816 1_555
C2 H11 1.111501 1_555
C2 O10 1.241591 1_555
C2 O7 1.303816 1_555
C3 H10 1.111501 1_555
C3 O11 1.241591 1_555
C3 O6 1.303816 1_555
C4 H13 1.111501 1_555
C4 O12 1.241591 1_555
C4 O1 1.303816 1_555
C5 H12 1.111501 1_555
C5 O13 1.241591 1_555
C5 O0 1.303816 1_555
C6 H15 1.111501 1_555
C6 O14 1.241591 1_555
C6 O3 1.303816 1_555
C7 H14 1.111501 1_555
C7 O15 1.241591 1_555
C7 O2 1.303816 1_555
C8 H16 1.112989 1_555
C8 O24 1.252743 1_555
C8 O19 1.290491 1_655
C9 H17 1.112989 1_555
C9 O25 1.252743 1_555
C9 O18 1.290491 1_555
C10 H18 1.112989 1_555
C10 O26 1.252743 1_555
C10 O17 1.290491 1_555
C11 H19 1.112989 1_555
C11 O27 1.252743 1_555
C11 O16 1.290491 1_455
C12 H20 1.112989 1_555
C12 O28 1.252743 1_555
C12 O23 1.290491 1_455
C13 H21 1.112989 1_555
C13 O29 1.252743 1_555
C13 O22 1.290491 1_555
C14 H22 1.112989 1_555
C14 O30 1.252743 1_555
C14 O21 1.290491 1_555
C15 H23 1.112989 1_555
C15 O31 1.252743 1_555
C15 O20 1.290491 1_655
O8 Rb7 2.961449 1_555
O8 Rb5 3.019995 1_555
O8 Rb1 3.099787 1_555
O9 Rb6 2.961449 1_555
O9 Rb4 3.019995 1_554
O9 Rb0 3.099787 1_455
O10 Rb5 2.961449 1_555
O10 Rb7 3.019995 1_565
O10 Rb3 3.099787 1_655
O11 Rb4 2.961449 1_555
O11 Rb6 3.019995 1_546
O11 Rb2 3.099787 1_555
O12 Rb3 2.961449 1_555
O12 Rb1 3.019995 1_555
O12 Rb5 3.099787 1_555
O13 Rb2 2.961449 1_555
O13 Rb0 3.019995 1_556
O13 Rb4 3.099787 1_655
O14 Rb1 2.961449 1_555
O14 Rb3 3.019995 1_545
O14 Rb7 3.099787 1_455
O15 Rb0 2.961449 1_555
O15 Rb2 3.019995 1_564
O15 Rb6 3.099787 1_555
O16 Rb5 3.032996 1_555
O17 Rb4 3.032996 1_555
O18 Rb7 3.032996 1_565
O19 Rb6 3.032996 1_545
O20 Rb1 3.032996 1_555
O21 Rb0 3.032996 1_555
O22 Rb3 3.032996 1_545
O23 Rb2 3.032996 1_565
O24 Rb2 3.011637 1_554
O24 Rb4 3.118589 1_654
O24 Rb0 3.183056 1_555
O24 Rb6 3.216030 1_645
O25 Rb3 3.011637 1_555
O25 Rb5 3.118589 1_555
O25 Rb1 3.183056 1_555
O25 Rb7 3.216030 1_565
O26 Rb0 3.011637 1_556
O26 Rb6 3.118589 1_556
O26 Rb2 3.183056 1_565
O26 Rb4 3.216030 1_555
O27 Rb1 3.011637 1_555
O27 Rb7 3.118589 1_455
O27 Rb3 3.183056 1_545
O27 Rb5 3.216030 1_455
O28 Rb6 3.011637 1_556
O28 Rb0 3.118589 1_456
O28 Rb4 3.183056 1_555
O28 Rb2 3.216030 1_465
O29 Rb7 3.011637 1_555
O29 Rb1 3.118589 1_555
O29 Rb5 3.183056 1_555
O29 Rb3 3.216030 1_545
O30 Rb4 3.011637 1_554
O30 Rb2 3.118589 1_554
O30 Rb6 3.183056 1_545
O30 Rb0 3.216030 1_555
O31 Rb5 3.011637 1_555
O31 Rb3 3.118589 1_655
O31 Rb7 3.183056 1_565
O31 Rb1 3.216030 1_655
