# generated using pymatgen
data_Na6Sc3NbSi2(PO6)4
_symmetry_space_group_name_H-M   'P 1'
_cell_length_a   15.73976364
_cell_length_b   9.07461905
_cell_length_c   9.08705295
_cell_angle_alpha   89.47679669
_cell_angle_beta   124.92426891
_cell_angle_gamma   90.06689808
_symmetry_Int_Tables_number   1
_chemical_formula_structural   Na6Sc3NbSi2(PO6)4
_chemical_formula_sum   'Na12 Sc6 Nb2 Si4 P8 O48'
_cell_volume   1064.12373611
_cell_formula_units_Z   2
loop_
 _symmetry_equiv_pos_site_id
 _symmetry_equiv_pos_as_xyz
  1  'x, y, z'
loop_
 _atom_site_type_symbol
 _atom_site_label
 _atom_site_symmetry_multiplicity
 _atom_site_fract_x
 _atom_site_fract_y
 _atom_site_fract_z
 _atom_site_occupancy
  Na  Na0  1  0.25033724  0.75038847  0.99861780  1
  Na  Na1  1  0.74545112  0.75303850  0.48584659  1
  Na  Na2  1  0.75033724  0.25038847  0.99861780  1
  Na  Na3  1  0.24545112  0.25303850  0.48584659  1
  Na  Na4  1  0.49924265  0.08521906  0.73802399  1
  Na  Na5  1  0.50498088  0.89435130  0.25691680  1
  Na  Na6  1  0.99924265  0.58521906  0.73802399  1
  Na  Na7  1  0.00498088  0.39435130  0.25691680  1
  Na  Na8  1  0.18937028  0.92703443  0.29578667  1
  Na  Na9  1  0.81084111  0.08207094  0.70397291  1
  Na  Na10  1  0.68937028  0.42703443  0.29578667  1
  Na  Na11  1  0.31084111  0.58207094  0.70397291  1
  Sc  Sc0  1  0.10533550  0.75516369  0.56398816  1
  Sc  Sc1  1  0.89459188  0.24489836  0.43672896  1
  Sc  Sc2  1  0.10300599  0.25349715  0.05690834  1
  Sc  Sc3  1  0.60533550  0.25516369  0.56398816  1
  Sc  Sc4  1  0.39459188  0.74489836  0.43672896  1
  Sc  Sc5  1  0.60300599  0.75349715  0.05690834  1
  Nb  Nb0  1  0.89593035  0.74734706  0.94011051  1
  Nb  Nb1  1  0.39593035  0.24734706  0.94011051  1
  Si  Si0  1  0.35177227  0.89904636  0.75324059  1
  Si  Si1  1  0.65176783  0.10167379  0.25419908  1
  Si  Si2  1  0.85177227  0.39904636  0.75324059  1
  Si  Si3  1  0.15176783  0.60167379  0.25419908  1
  P  P0  1  0.00227021  0.95450564  0.75907139  1
  P  P1  1  0.99721678  0.04313651  0.24581044  1
  P  P2  1  0.50227021  0.45450564  0.75907139  1
  P  P3  1  0.49721678  0.54313651  0.24581044  1
  P  P4  1  0.64697157  0.89309866  0.74282606  1
  P  P5  1  0.35506098  0.10454102  0.25848207  1
  P  P6  1  0.14697157  0.39309866  0.74282606  1
  P  P7  1  0.85506098  0.60454102  0.25848207  1
  O  O0  1  0.15414955  0.56409422  0.74256085  1
  O  O1  1  0.84777301  0.58388957  0.76683387  1
  O  O2  1  0.85210483  0.43419730  0.24462865  1
  O  O3  1  0.15185921  0.42337367  0.24376980  1
  O  O4  1  0.65414955  0.06409422  0.74256085  1
  O  O5  1  0.34777301  0.08388957  0.76683387  1
  O  O6  1  0.35210483  0.93419730  0.24462865  1
  O  O7  1  0.65185921  0.92337367  0.24376980  1
  O  O8  1  0.43500140  0.55606101  0.59274615  1
  O  O9  1  0.56742689  0.54367361  0.93090785  1
  O  O10  1  0.55761672  0.44075764  0.41038712  1
  O  O11  1  0.43424806  0.44393727  0.07375423  1
  O  O12  1  0.93500140  0.05606101  0.59274615  1
  O  O13  1  0.06742689  0.04367361  0.93090785  1
  O  O14  1  0.05761672  0.94075764  0.41038712  1
  O  O15  1  0.93424806  0.94393727  0.07375423  1
  O  O16  1  0.25604641  0.82187279  0.74484913  1
  O  O17  1  0.74632206  0.83274704  0.76148841  1
  O  O18  1  0.73937101  0.19107829  0.24804652  1
  O  O19  1  0.25898491  0.16165502  0.24439787  1
  O  O20  1  0.75604641  0.32187279  0.74484913  1
  O  O21  1  0.24632206  0.33274704  0.76148841  1
  O  O22  1  0.23937101  0.69107829  0.24804652  1
  O  O23  1  0.75898491  0.66165502  0.24439787  1
  O  O24  1  0.35223592  0.87223899  0.57448531  1
  O  O25  1  0.64533721  0.85024585  0.90470223  1
  O  O26  1  0.65234605  0.14566320  0.42791276  1
  O  O27  1  0.35746318  0.16134955  0.09372150  1
  O  O28  1  0.85223592  0.37223899  0.57448531  1
  O  O29  1  0.14533721  0.35024585  0.90470223  1
  O  O30  1  0.15234605  0.64566320  0.42791276  1
  O  O31  1  0.85746318  0.66134955  0.09372150  1
  O  O32  1  0.46007875  0.83940042  0.93102533  1
  O  O33  1  0.55056444  0.83475264  0.56605903  1
  O  O34  1  0.53477714  0.16956921  0.07677700  1
  O  O35  1  0.45452647  0.15717782  0.43146748  1
  O  O36  1  0.96007875  0.33940042  0.93102533  1
  O  O37  1  0.05056444  0.33475264  0.56605903  1
  O  O38  1  0.03477714  0.66956921  0.07677700  1
  O  O39  1  0.95452647  0.65717782  0.43146748  1
  O  O40  1  0.06846168  0.83908934  0.74444038  1
  O  O41  1  0.91783059  0.86109426  0.76526766  1
  O  O42  1  0.92174135  0.14903274  0.24790455  1
  O  O43  1  0.07958651  0.13403759  0.24133597  1
  O  O44  1  0.56846168  0.33908934  0.74444038  1
  O  O45  1  0.41783059  0.36109426  0.76526766  1
  O  O46  1  0.42174135  0.64903274  0.24790455  1
  O  O47  1  0.57958651  0.63403759  0.24133597  1
loop_
_geom_bond_atom_site_label_1
_geom_bond_atom_site_label_2
_geom_bond_distance
_geom_bond_site_symmetry_2
Na0 O22 2.425339 1_556
Na0 O16 2.440567 1_555
Na0 O46 2.495231 1_556
Na0 O6 2.511440 1_556
Na0 O40 2.564847 1_555
Na0 O0 2.568362 1_555
Na1 O7 2.373012 1_555
Na1 O23 2.473001 1_555
Na1 O47 2.512795 1_555
Na1 O1 2.587513 1_555
Na1 O17 2.605958 1_555
Na1 O41 2.630855 1_555
Na2 O18 2.425339 1_556
Na2 O20 2.440567 1_555
Na2 O42 2.495231 1_556
Na2 O2 2.511440 1_556
Na2 O44 2.564847 1_555
Na2 O4 2.568362 1_555
Na3 O3 2.373012 1_555
Na3 O19 2.473001 1_555
Na3 O43 2.512795 1_555
Na3 O5 2.587513 1_555
Na3 O21 2.605958 1_555
Na3 O45 2.630855 1_555
Na4 O4 2.422625 1_555
Na4 O35 2.530775 1_555
Na4 O44 2.534094 1_555
Na4 O5 2.543052 1_555
Na4 O24 2.720776 1_545
Na4 O25 2.844830 1_545
Na4 O45 2.890095 1_555
Na4 O34 2.906058 1_556
Na5 O6 2.372092 1_555
Na5 O7 2.396337 1_555
Na5 O33 2.522745 1_555
Na5 O46 2.559837 1_555
Na5 O32 2.673525 1_554
Na5 O47 2.679950 1_555
Na6 O0 2.422625 1_655
Na6 O39 2.530775 1_555
Na6 O40 2.534094 1_655
Na6 O1 2.543052 1_555
Na6 O28 2.720776 1_555
Na6 O29 2.844830 1_655
Na6 O41 2.890095 1_555
Na6 O38 2.906058 1_656
Na7 O2 2.372092 1_455
Na7 O3 2.396337 1_555
Na7 O37 2.522745 1_555
Na7 O42 2.559837 1_455
Na7 O36 2.673525 1_454
Na7 O43 2.679950 1_555
Na8 O43 2.402295 1_565
Na8 O24 2.403961 1_555
Na8 O22 2.409184 1_555
Na8 O19 2.552243 1_565
Na9 O26 2.379259 1_555
Na9 O20 2.450144 1_555
Na9 O41 2.465914 1_545
Na9 O17 2.646539 1_545
Na9 O12 2.676453 1_555
Na9 O4 2.687071 1_555
Na10 O47 2.402295 1_555
Na10 O28 2.403961 1_555
Na10 O18 2.409184 1_555
Na10 O23 2.552243 1_555
Na11 O30 2.379259 1_555
Na11 O16 2.450144 1_555
Na11 O45 2.465914 1_555
Na11 O21 2.646539 1_555
Na11 O8 2.676453 1_555
Na11 O0 2.687071 1_555
Nb0 O38 1.922639 1_656
Nb0 O31 1.967421 1_556
Nb0 O1 1.981800 1_555
Nb0 O15 2.054165 1_556
Nb0 O41 2.074821 1_555
Nb0 O17 2.094088 1_555
Nb1 O34 1.922639 1_556
Nb1 O27 1.967421 1_556
Nb1 O5 1.981800 1_555
Nb1 O11 2.054165 1_556
Nb1 O45 2.074821 1_555
Nb1 O21 2.094088 1_555
O0 P6 1.555776 1_555
O0 Sc0 2.180374 1_555
O1 Si2 1.686939 1_555
O2 P7 1.550549 1_555
O2 Sc1 2.248691 1_555
O3 Si3 1.621693 1_555
O3 Sc2 2.097861 1_555
O4 P4 1.555776 1_545
O4 Sc3 2.180374 1_555
O5 Si0 1.686939 1_545
O6 P5 1.550549 1_565
O6 Sc4 2.248691 1_555
O7 Si1 1.621693 1_565
O7 Sc5 2.097861 1_555
O8 P2 1.548952 1_555
O8 Sc4 2.068028 1_555
O9 P2 1.527193 1_555
O9 Sc5 2.133827 1_556
O10 P3 1.533718 1_555
O10 Sc3 2.026948 1_555
O11 P3 1.576864 1_555
O12 P0 1.548952 1_645
O12 Sc1 2.068028 1_555
O13 P0 1.527193 1_545
O13 Sc2 2.133827 1_556
O14 P1 1.533718 1_465
O14 Sc0 2.026948 1_555
O15 P1 1.576864 1_565
O16 Si0 1.622769 1_555
O16 Sc0 2.060484 1_555
O17 P4 1.571842 1_555
O18 Si1 1.627088 1_555
O18 Sc1 2.088886 1_555
O19 P5 1.533237 1_555
O19 Sc2 2.194151 1_555
O20 Si2 1.622769 1_555
O20 Sc3 2.060484 1_555
O21 P6 1.571842 1_555
O22 Si3 1.627088 1_555
O22 Sc4 2.088886 1_555
O23 P7 1.533237 1_555
O23 Sc5 2.194151 1_555
O24 Si0 1.648808 1_555
O24 Sc4 2.080996 1_555
O25 P4 1.532486 1_555
O25 Sc5 2.039444 1_556
O26 Si1 1.626742 1_555
O26 Sc3 2.033629 1_555
O27 P5 1.599823 1_555
O28 Si2 1.648808 1_555
O28 Sc1 2.080996 1_555
O29 P6 1.532486 1_555
O29 Sc2 2.039444 1_556
O30 Si3 1.626742 1_555
O30 Sc0 2.033629 1_555
O31 P7 1.599823 1_555
O32 Si0 1.625376 1_555
O32 Sc5 2.004598 1_556
O33 P4 1.544643 1_555
O33 Sc4 2.186842 1_555
O34 Si1 1.719009 1_555
O35 P5 1.531115 1_555
O35 Sc3 2.148714 1_555
O36 Si2 1.625376 1_555
O36 Sc2 2.004598 1_656
O37 P6 1.544643 1_555
O37 Sc1 2.186842 1_455
O38 Si3 1.719009 1_555
O39 P7 1.531115 1_555
O39 Sc0 2.148714 1_655
O40 P0 1.537450 1_555
O40 Sc0 2.172389 1_555
O41 P0 1.603216 1_655
O42 P1 1.537520 1_555
O42 Sc1 2.179735 1_555
O43 P1 1.555702 1_455
O43 Sc2 2.189273 1_555
O44 P2 1.537450 1_555
O44 Sc3 2.172389 1_555
O45 P2 1.603216 1_555
O46 P3 1.537520 1_555
O46 Sc4 2.179735 1_555
O47 P3 1.555702 1_555
O47 Sc5 2.189273 1_555
