# generated using pymatgen
data_Cr2CuTe4
_symmetry_space_group_name_H-M   'P 1'
_cell_length_a   7.91870501
_cell_length_b   7.91869872
_cell_length_c   7.91871054
_cell_angle_alpha   60.00052523
_cell_angle_beta   60.00053113
_cell_angle_gamma   60.00050775
_symmetry_Int_Tables_number   1
_chemical_formula_structural   Cr2CuTe4
_chemical_formula_sum   'Cr4 Cu2 Te8'
_cell_volume   351.11759114
_cell_formula_units_Z   2
loop_
 _symmetry_equiv_pos_site_id
 _symmetry_equiv_pos_as_xyz
  1  'x, y, z'
loop_
 _atom_site_type_symbol
 _atom_site_label
 _atom_site_symmetry_multiplicity
 _atom_site_fract_x
 _atom_site_fract_y
 _atom_site_fract_z
 _atom_site_occupancy
  Cr  Cr0  1  0.49999983  0.49999979  0.50000012  1
  Cr  Cr1  1  0.49999981  0.49999973  0.00000034  1
  Cr  Cr2  1  -0.00000019  0.49999980  0.50000023  1
  Cr  Cr3  1  0.49999980  -0.00000020  0.50000024  1
  Cu  Cu0  1  0.87499962  0.87499724  0.87500133  1
  Cu  Cu1  1  0.12500034  0.12500272  0.12499854  1
  Te  Te0  1  0.25631281  0.25632177  0.25630767  1
  Te  Te1  1  0.74368741  0.74367848  0.26894100  1
  Te  Te2  1  0.26894346  0.74367574  0.74369046  1
  Te  Te3  1  0.74368112  0.26894622  0.74368583  1
  Te  Te4  1  0.73105665  0.25632453  0.25630937  1
  Te  Te5  1  0.25631910  0.73105392  0.25631400  1
  Te  Te6  1  0.25631280  0.25632176  0.73105876  1
  Te  Te7  1  0.74368743  0.74367849  0.74369211  1
loop_
_geom_bond_atom_site_label_1
_geom_bond_atom_site_label_2
_geom_bond_distance
_geom_bond_site_symmetry_2
Cr0 Te6 2.730777 1_555
Cr0 Te4 2.730783 1_555
Cr0 Te1 2.730783 1_555
Cr0 Te2 2.730785 1_555
Cr0 Te5 2.730789 1_555
Cr0 Te3 2.730790 1_555
Cr1 Te0 2.730779 1_555
Cr1 Te4 2.730784 1_555
Cr1 Te2 2.730786 1_554
Cr1 Te7 2.730787 1_554
Cr1 Te5 2.730796 1_555
Cr1 Te3 2.730797 1_554
Cr2 Te7 2.730811 1_455
Cr2 Te0 2.730811 1_555
Cr2 Te6 2.730816 1_555
Cr2 Te1 2.730816 1_455
Cr2 Te3 2.730821 1_455
Cr2 Te5 2.730827 1_555
Cr3 Te7 2.730863 1_545
Cr3 Te0 2.730863 1_555
Cr3 Te6 2.730866 1_555
Cr3 Te2 2.730867 1_545
Cr3 Te1 2.730867 1_545
Cr3 Te4 2.730873 1_555
Cu0 Te7 2.547048 1_555
Cu0 Te1 2.547073 1_556
Cu0 Te2 2.547098 1_655
Cu0 Te3 2.547129 1_565
Cu1 Te0 2.547051 1_555
Cu1 Te6 2.547074 1_554
Cu1 Te4 2.547097 1_455
Cu1 Te5 2.547128 1_545
