# generated using pymatgen
data_Li7TaO6
_symmetry_space_group_name_H-M   'P 1'
_cell_length_a   5.88489135
_cell_length_b   5.88489135
_cell_length_c   5.88489147
_cell_angle_alpha   56.84763595
_cell_angle_beta   56.84763595
_cell_angle_gamma   56.84764729
_symmetry_Int_Tables_number   1
_chemical_formula_structural   Li7TaO6
_chemical_formula_sum   'Li7 Ta1 O6'
_cell_volume   133.62926566
_cell_formula_units_Z   1
loop_
 _symmetry_equiv_pos_site_id
 _symmetry_equiv_pos_as_xyz
  1  'x, y, z'
loop_
 _atom_site_type_symbol
 _atom_site_label
 _atom_site_symmetry_multiplicity
 _atom_site_fract_x
 _atom_site_fract_y
 _atom_site_fract_z
 _atom_site_occupancy
  Li  Li0  1  0.12180200  0.49806600  0.72604700  1
  Li  Li1  1  0.49806600  0.72604700  0.12180200  1
  Li  Li2  1  0.72604700  0.12180200  0.49806600  1
  Li  Li3  1  0.93134200  0.48906500  0.23492900  1
  Li  Li4  1  0.48906500  0.23492900  0.93134200  1
  Li  Li5  1  0.23492900  0.93134200  0.48906500  1
  Li  Li6  1  0.65459000  0.65459000  0.65459000  1
  Ta  Ta0  1  0.00133300  0.00133300  0.00133300  1
  O  O0  1  0.64267100  0.88523300  0.23133500  1
  O  O1  1  0.23133500  0.64267100  0.88523300  1
  O  O2  1  0.88523300  0.23133500  0.64267100  1
  O  O3  1  0.07223200  0.79788500  0.37497000  1
  O  O4  1  0.79788500  0.37497000  0.07223200  1
  O  O5  1  0.37497000  0.07223200  0.79788500  1
loop_
_geom_bond_atom_site_label_1
_geom_bond_atom_site_label_2
_geom_bond_distance
_geom_bond_site_symmetry_2
Li0 O3 1.891026 1_555
Li0 O4 1.989360 1_456
Li0 O5 2.031011 1_555
Li0 O1 2.037050 1_555
Li1 O4 1.891026 1_555
Li1 O5 1.989361 1_564
Li1 O3 2.031011 1_555
Li1 O0 2.037050 1_555
Li2 O5 1.891026 1_555
Li2 O3 1.989361 1_645
Li2 O4 2.031011 1_555
Li2 O2 2.037050 1_555
Li3 O2 1.972110 1_555
Li3 O1 1.976376 1_654
Li3 O0 1.993828 1_555
Li3 O4 2.021561 1_555
Li4 O1 1.972110 1_555
Li4 O0 1.976376 1_546
Li4 O2 1.993828 1_555
Li4 O5 2.021561 1_555
Li5 O0 1.972110 1_555
Li5 O2 1.976377 1_465
Li5 O1 1.993828 1_555
Li5 O3 2.021561 1_555
Li6 O1 2.107274 1_555
Li6 O0 2.107274 1_555
Li6 O2 2.107274 1_555
Li6 O3 2.405257 1_655
Li6 O4 2.405257 1_556
Li6 O5 2.405258 1_565
O0 Ta0 2.048168 1_665
O1 Ta0 2.048168 1_566
O2 Ta0 2.048168 1_656
O3 Ta0 2.005001 1_565
O4 Ta0 2.005001 1_655
O5 Ta0 2.005001 1_556
