# generated using pymatgen
data_Eu(BH4)2
_symmetry_space_group_name_H-M   'P 1'
_cell_length_a   6.96386000
_cell_length_b   7.30480700
_cell_length_c   8.41778500
_cell_angle_alpha   90.00000000
_cell_angle_beta   90.00000000
_cell_angle_gamma   90.00000000
_symmetry_Int_Tables_number   1
_chemical_formula_structural   Eu(BH4)2
_chemical_formula_sum   'Eu4 B8 H32'
_cell_volume   428.20980429
_cell_formula_units_Z   4
loop_
 _symmetry_equiv_pos_site_id
 _symmetry_equiv_pos_as_xyz
  1  'x, y, z'
loop_
 _atom_site_type_symbol
 _atom_site_label
 _atom_site_symmetry_multiplicity
 _atom_site_fract_x
 _atom_site_fract_y
 _atom_site_fract_z
 _atom_site_occupancy
  Eu  Eu0  1  0.00000000  0.25000000  0.37471300  1
  Eu  Eu1  1  0.50000000  0.75000000  0.12528700  1
  Eu  Eu2  1  0.00000000  0.75000000  0.62528700  1
  Eu  Eu3  1  0.50000000  0.25000000  0.87471300  1
  B  B0  1  0.26412600  0.43618400  0.10921200  1
  B  B1  1  0.76412700  0.56381600  0.39078800  1
  B  B2  1  0.23587400  0.93618400  0.39078800  1
  B  B3  1  0.73587300  0.06381600  0.10921200  1
  B  B4  1  0.73587300  0.56381600  0.89078800  1
  B  B5  1  0.23587400  0.43618400  0.60921200  1
  B  B6  1  0.76412700  0.06381600  0.60921200  1
  B  B7  1  0.26412600  0.93618400  0.89078800  1
  H  H0  1  0.16232500  0.30002300  0.10761100  1
  H  H1  1  0.66232500  0.69997700  0.39238900  1
  H  H2  1  0.33767500  0.80002300  0.39238900  1
  H  H3  1  0.83767500  0.19997700  0.10761100  1
  H  H4  1  0.83767500  0.69997700  0.89238900  1
  H  H5  1  0.33767500  0.30002300  0.60761100  1
  H  H6  1  0.66232500  0.19997700  0.60761100  1
  H  H7  1  0.16232500  0.80002300  0.89238900  1
  H  H8  1  0.42654300  0.39510200  0.15535800  1
  H  H9  1  0.92654300  0.60489800  0.34464200  1
  H  H10  1  0.07345700  0.89510200  0.34464200  1
  H  H11  1  0.57345700  0.10489800  0.15535800  1
  H  H12  1  0.57345700  0.60489800  0.84464200  1
  H  H13  1  0.07345700  0.39510200  0.65535800  1
  H  H14  1  0.92654300  0.10489800  0.65535800  1
  H  H15  1  0.42654300  0.89510200  0.84464200  1
  H  H16  1  0.27072500  0.49675300  0.97281800  1
  H  H17  1  0.77072500  0.50324700  0.52718200  1
  H  H18  1  0.22927500  0.99675300  0.52718200  1
  H  H19  1  0.72927500  0.00324700  0.97281800  1
  H  H20  1  0.72927500  0.50324700  0.02718200  1
  H  H21  1  0.22927500  0.49675300  0.47281800  1
  H  H22  1  0.77072500  0.00324700  0.47281800  1
  H  H23  1  0.27072500  0.99675300  0.02718200  1
  H  H24  1  0.19922200  0.55682000  0.19456000  1
  H  H25  1  0.69922200  0.44318000  0.30544000  1
  H  H26  1  0.30077800  0.05682000  0.30544000  1
  H  H27  1  0.80077800  0.94318000  0.19456000  1
  H  H28  1  0.80077800  0.44318000  0.80544000  1
  H  H29  1  0.30077800  0.55682000  0.69456000  1
  H  H30  1  0.69922200  0.94318000  0.69456000  1
  H  H31  1  0.19922200  0.05682000  0.80544000  1
loop_
_geom_bond_atom_site_label_1
_geom_bond_atom_site_label_2
_geom_bond_distance
_geom_bond_site_symmetry_2
Eu0 H0 2.542967 1_555
Eu0 H3 2.542967 1_455
Eu0 H21 2.545622 1_555
Eu0 H22 2.545622 1_455
Eu0 H25 2.592028 1_455
Eu0 H26 2.592028 1_555
Eu0 H13 2.639343 1_555
Eu0 H14 2.639343 1_455
Eu0 H9 2.654545 1_455
Eu0 H10 2.654545 1_545
Eu0 H18 2.760201 1_545
Eu0 H17 2.760201 1_455
Eu1 H1 2.542967 1_555
Eu1 H2 2.542967 1_555
Eu1 H23 2.545622 1_555
Eu1 H20 2.545622 1_555
Eu1 H27 2.592028 1_555
Eu1 H24 2.592028 1_555
Eu1 H15 2.639343 1_554
Eu1 H12 2.639343 1_554
Eu1 H11 2.654545 1_565
Eu1 H8 2.654545 1_555
Eu1 H16 2.760201 1_554
Eu1 H19 2.760201 1_564
Eu2 H7 2.542967 1_555
Eu2 H4 2.542967 1_455
Eu2 H18 2.545622 1_555
Eu2 H17 2.545622 1_455
Eu2 H29 2.592028 1_555
Eu2 H30 2.592028 1_455
Eu2 H10 2.639343 1_555
Eu2 H9 2.639343 1_455
Eu2 H14 2.654545 1_465
Eu2 H13 2.654545 1_555
Eu2 H21 2.760201 1_555
Eu2 H22 2.760201 1_465
Eu3 H6 2.542967 1_555
Eu3 H5 2.542967 1_555
Eu3 H16 2.545622 1_555
Eu3 H19 2.545622 1_555
Eu3 H28 2.592028 1_555
Eu3 H31 2.592028 1_555
Eu3 H8 2.639343 1_556
Eu3 H11 2.639343 1_556
Eu3 H12 2.654545 1_555
Eu3 H15 2.654545 1_545
Eu3 H23 2.760201 1_546
Eu3 H20 2.760201 1_556
B0 H0 1.221495 1_555
B0 H24 1.223519 1_555
B0 H16 1.231294 1_554
B0 H8 1.232973 1_555
B1 H1 1.221499 1_555
B1 H25 1.223522 1_555
B1 H17 1.231293 1_555
B1 H9 1.232966 1_555
B2 H2 1.221495 1_555
B2 H26 1.223519 1_565
B2 H18 1.231294 1_555
B2 H10 1.232973 1_555
B3 H3 1.221499 1_555
B3 H27 1.223522 1_545
B3 H19 1.231293 1_554
B3 H11 1.232966 1_555
B4 H4 1.221499 1_555
B4 H28 1.223522 1_555
B4 H20 1.231293 1_556
B4 H12 1.232966 1_555
B5 H5 1.221495 1_555
B5 H29 1.223519 1_555
B5 H21 1.231294 1_555
B5 H13 1.232973 1_555
B6 H6 1.221499 1_555
B6 H30 1.223522 1_545
B6 H22 1.231293 1_555
B6 H14 1.232966 1_555
B7 H7 1.221495 1_555
B7 H31 1.223519 1_565
B7 H23 1.231294 1_556
B7 H15 1.232973 1_555
