# generated using pymatgen
data_MgFe6(O3F)3
_symmetry_space_group_name_H-M   'P 1'
_cell_length_a   7.35969320
_cell_length_b   5.70855058
_cell_length_c   5.89231255
_cell_angle_alpha   78.72245941
_cell_angle_beta   68.92669138
_cell_angle_gamma   72.61299557
_symmetry_Int_Tables_number   1
_chemical_formula_structural   MgFe6(O3F)3
_chemical_formula_sum   'Mg1 Fe6 O9 F3'
_cell_volume   219.36194648
_cell_formula_units_Z   1
loop_
 _symmetry_equiv_pos_site_id
 _symmetry_equiv_pos_as_xyz
  1  'x, y, z'
loop_
 _atom_site_type_symbol
 _atom_site_label
 _atom_site_symmetry_multiplicity
 _atom_site_fract_x
 _atom_site_fract_y
 _atom_site_fract_z
 _atom_site_occupancy
  Mg  Mg0  1  0.33459300  0.66149100  0.15536600  1
  Fe  Fe0  1  0.83395000  0.67198400  0.67034200  1
  Fe  Fe1  1  0.32694400  0.72581700  0.62921800  1
  Fe  Fe2  1  0.66762200  0.37321600  0.31669700  1
  Fe  Fe3  1  0.13392800  0.29522900  0.35644700  1
  Fe  Fe4  1  0.52245200  0.01913500  0.01133700  1
  Fe  Fe5  1  0.98678700  0.94690400  0.04646300  1
  O  O0  1  0.28567800  0.91510600  0.89311500  1
  O  O1  1  0.94819000  0.23119800  0.23653100  1
  O  O2  1  0.63192300  0.58699700  0.54554800  1
  O  O3  1  0.69762600  0.11341000  0.12774600  1
  O  O4  1  0.03050300  0.76080400  0.77988200  1
  O  O5  1  0.38035000  0.43473700  0.43918700  1
  O  O6  1  0.63985100  0.65779100  0.01846200  1
  O  O7  1  0.31600900  0.96617200  0.33551800  1
  O  O8  1  0.02935400  0.66771900  0.31776100  1
  F  F0  1  0.34048600  0.36938500  0.00121200  1
  F  F1  1  0.67384000  0.03343200  0.65557300  1
  F  F2  1  0.97917200  0.30756500  0.70169000  1
loop_
_geom_bond_atom_site_label_1
_geom_bond_atom_site_label_2
_geom_bond_distance
_geom_bond_site_symmetry_2
Mg0 O0 1.956278 1_554
Mg0 O5 1.970673 1_555
Mg0 O6 2.091281 1_555
Mg0 O8 2.093618 1_555
Mg0 O7 2.155499 1_555
Fe0 O4 2.001007 1_655
Fe0 O6 2.037583 1_556
Fe0 O8 2.057952 1_655
Fe0 O2 2.084155 1_555
Fe1 O0 1.949157 1_555
Fe1 O7 1.997349 1_555
Fe1 O4 2.000997 1_555
Fe1 O5 2.047003 1_555
Fe1 O2 2.050135 1_555
Fe2 O2 1.890489 1_555
Fe2 O1 1.895270 1_555
Fe2 O5 1.916319 1_555
Fe2 O3 1.939399 1_555
Fe2 O6 2.170756 1_555
Fe3 O1 1.896237 1_455
Fe3 O7 1.951115 1_545
Fe3 O8 2.030835 1_555
Fe3 O5 2.410793 1_555
Fe4 O3 1.901891 1_555
Fe4 O6 1.982494 1_545
Fe4 O7 2.002552 1_545
Fe4 O0 2.351111 1_544
Fe5 O4 1.945366 1_654
Fe5 O3 1.974327 1_565
Fe5 O0 2.020998 1_654
Fe5 O1 2.043374 1_565
Fe5 O8 2.063701 1_655
F0 Mg0 2.031834 1_555
F0 Fe4 2.050668 1_555
F0 Fe3 2.149720 1_555
F1 Fe4 1.987520 1_556
F1 Fe0 2.050343 1_545
F1 Fe2 2.499861 1_555
F2 Fe3 1.944837 1_655
F2 Fe0 2.041312 1_555
F2 Fe5 2.597317 1_546
