# generated using pymatgen
data_RbMgCl3
_symmetry_space_group_name_H-M   'P 1'
_cell_length_a   7.09539857
_cell_length_b   7.09539909
_cell_length_c   11.86949791
_cell_angle_alpha   90.00000000
_cell_angle_beta   90.00000000
_cell_angle_gamma   120.00000229
_symmetry_Int_Tables_number   1
_chemical_formula_structural   RbMgCl3
_chemical_formula_sum   'Rb4 Mg4 Cl12'
_cell_volume   517.50743545
_cell_formula_units_Z   4
loop_
 _symmetry_equiv_pos_site_id
 _symmetry_equiv_pos_as_xyz
  1  'x, y, z'
loop_
 _atom_site_type_symbol
 _atom_site_label
 _atom_site_symmetry_multiplicity
 _atom_site_fract_x
 _atom_site_fract_y
 _atom_site_fract_z
 _atom_site_occupancy
  Rb  Rb0  1  0.00000000  0.00000000  -0.00000000  1
  Rb  Rb1  1  0.00000000  0.00000000  0.50000000  1
  Rb  Rb2  1  0.33333300  0.66666700  0.75000000  1
  Rb  Rb3  1  0.66666700  0.33333300  0.25000000  1
  Mg  Mg0  1  0.33333300  0.66666700  0.11820975  1
  Mg  Mg1  1  0.66666700  0.33333300  0.61820975  1
  Mg  Mg2  1  0.66666700  0.33333300  0.88179025  1
  Mg  Mg3  1  0.33333300  0.66666700  0.38179025  1
  Cl  Cl0  1  0.50000000  0.00000000  -0.00000000  1
  Cl  Cl1  1  0.50000000  0.50000000  0.50000000  1
  Cl  Cl2  1  0.00000000  0.50000000  0.50000000  1
  Cl  Cl3  1  0.00000000  0.50000000  -0.00000000  1
  Cl  Cl4  1  0.50000000  0.50000000  -0.00000000  1
  Cl  Cl5  1  0.50000000  0.00000000  0.50000000  1
  Cl  Cl6  1  0.17406579  0.34813358  0.25000000  1
  Cl  Cl7  1  0.82593421  0.17406579  0.75000000  1
  Cl  Cl8  1  0.34813358  0.17406579  0.75000000  1
  Cl  Cl9  1  0.65186642  0.82593421  0.25000000  1
  Cl  Cl10  1  0.17406579  0.82593421  0.25000000  1
  Cl  Cl11  1  0.82593421  0.65186642  0.75000000  1
loop_
_geom_bond_atom_site_label_1
_geom_bond_atom_site_label_2
_geom_bond_distance
_geom_bond_site_symmetry_2
Cl0 Mg2 2.482749 1_554
Cl0 Mg0 2.482749 1_545
Cl0 Rb0 3.547699 1_555
Cl0 Rb0 3.547699 1_655
Cl0 Rb3 3.605647 1_555
Cl0 Rb2 3.605647 1_544
Cl1 Mg3 2.482754 1_555
Cl1 Mg1 2.482754 1_555
Cl1 Rb1 3.547699 1_555
Cl1 Rb1 3.547699 1_665
Cl1 Rb2 3.605651 1_555
Cl1 Rb3 3.605651 1_555
Cl2 Mg3 2.482749 1_555
Cl2 Mg1 2.482749 1_455
Cl2 Rb1 3.547700 1_555
Cl2 Rb1 3.547700 1_565
Cl2 Rb3 3.605647 1_455
Cl2 Rb2 3.605647 1_555
Cl3 Mg2 2.482749 1_454
Cl3 Mg0 2.482749 1_555
Cl3 Rb0 3.547700 1_555
Cl3 Rb0 3.547700 1_565
Cl3 Rb3 3.605647 1_455
Cl3 Rb2 3.605647 1_554
Cl4 Mg0 2.482754 1_555
Cl4 Mg2 2.482754 1_554
Cl4 Rb0 3.547699 1_555
Cl4 Rb0 3.547699 1_665
Cl4 Rb3 3.605651 1_555
Cl4 Rb2 3.605651 1_554
Cl5 Mg3 2.482749 1_545
Cl5 Mg1 2.482749 1_555
Cl5 Rb1 3.547699 1_555
Cl5 Rb1 3.547699 1_655
Cl5 Rb3 3.605647 1_555
Cl5 Rb2 3.605647 1_545
Cl6 Mg0 2.505613 1_555
Cl6 Mg3 2.505613 1_555
Cl6 Rb3 3.548854 1_455
Cl6 Rb3 3.548875 1_555
Cl6 Rb0 3.658077 1_555
Cl6 Rb1 3.658077 1_555
Cl7 Mg1 2.505618 1_555
Cl7 Mg2 2.505618 1_555
Cl7 Rb2 3.548864 1_655
Cl7 Rb2 3.548864 1_545
Cl7 Rb1 3.658070 1_655
Cl7 Rb0 3.658070 1_656
Cl8 Mg2 2.505613 1_555
Cl8 Mg1 2.505613 1_555
Cl8 Rb2 3.548854 1_545
Cl8 Rb2 3.548876 1_555
Cl8 Rb1 3.658077 1_555
Cl8 Rb0 3.658077 1_556
Cl9 Mg0 2.505613 1_555
Cl9 Mg3 2.505613 1_555
Cl9 Rb3 3.548854 1_565
Cl9 Rb3 3.548876 1_555
Cl9 Rb1 3.658077 1_665
Cl9 Rb0 3.658077 1_665
Cl10 Mg0 2.505618 1_555
Cl10 Mg3 2.505618 1_555
Cl10 Rb3 3.548864 1_455
Cl10 Rb3 3.548864 1_565
Cl10 Rb0 3.658070 1_565
Cl10 Rb1 3.658070 1_565
Cl11 Mg1 2.505613 1_555
Cl11 Mg2 2.505613 1_555
Cl11 Rb2 3.548854 1_655
Cl11 Rb2 3.548875 1_555
Cl11 Rb1 3.658077 1_665
Cl11 Rb0 3.658077 1_666
