# generated using pymatgen
data_TlPb2Cl5
_symmetry_space_group_name_H-M   'P 1'
_cell_length_a   7.96389345
_cell_length_b   8.96041902
_cell_length_c   12.58655833
_cell_angle_alpha   89.87026661
_cell_angle_beta   90.00000000
_cell_angle_gamma   90.00000000
_symmetry_Int_Tables_number   1
_chemical_formula_structural   TlPb2Cl5
_chemical_formula_sum   'Tl4 Pb8 Cl20'
_cell_volume   898.17226339
_cell_formula_units_Z   4
loop_
 _symmetry_equiv_pos_site_id
 _symmetry_equiv_pos_as_xyz
  1  'x, y, z'
loop_
 _atom_site_type_symbol
 _atom_site_label
 _atom_site_symmetry_multiplicity
 _atom_site_fract_x
 _atom_site_fract_y
 _atom_site_fract_z
 _atom_site_occupancy
  Tl  Tl0  1  0.95292345  0.51208995  0.83194572  1
  Tl  Tl1  1  0.45292345  0.48791005  0.66805428  1
  Tl  Tl2  1  0.04707655  0.48791005  0.16805428  1
  Tl  Tl3  1  0.54707655  0.51208995  0.33194572  1
  Pb  Pb0  1  0.50777596  0.00741987  0.32433020  1
  Pb  Pb1  1  0.00777596  0.99258013  0.17566980  1
  Pb  Pb2  1  0.49222404  0.99258013  0.67566980  1
  Pb  Pb3  1  0.99222404  0.00741987  0.82433020  1
  Pb  Pb4  1  0.56593183  0.25301069  0.00572674  1
  Pb  Pb5  1  0.06593183  0.74698931  0.49427326  1
  Pb  Pb6  1  0.43406817  0.74698931  0.99427326  1
  Pb  Pb7  1  0.93406817  0.25301069  0.50572674  1
  Cl  Cl0  1  0.84460936  0.77605067  0.31300884  1
  Cl  Cl1  1  0.34460936  0.22394933  0.18699116  1
  Cl  Cl2  1  0.15539064  0.22394933  0.68699116  1
  Cl  Cl3  1  0.65539064  0.77605067  0.81300884  1
  Cl  Cl4  1  0.81280790  0.22979692  0.27899978  1
  Cl  Cl5  1  0.31280790  0.77020308  0.22100022  1
  Cl  Cl6  1  0.18719210  0.77020308  0.72100022  1
  Cl  Cl7  1  0.68719210  0.22979692  0.77899978  1
  Cl  Cl8  1  0.67469725  0.54021238  0.08349797  1
  Cl  Cl9  1  0.17469725  0.45978762  0.41650203  1
  Cl  Cl10  1  0.32530275  0.45978762  0.91650203  1
  Cl  Cl11  1  0.82530275  0.54021238  0.58349797  1
  Cl  Cl12  1  0.83546547  0.95806199  0.59868432  1
  Cl  Cl13  1  0.33546547  0.04193801  0.90131568  1
  Cl  Cl14  1  0.16453453  0.04193801  0.40131568  1
  Cl  Cl15  1  0.66453453  0.95806199  0.09868432  1
  Cl  Cl16  1  0.95800723  0.21840226  0.00174235  1
  Cl  Cl17  1  0.45800723  0.78159774  0.49825765  1
  Cl  Cl18  1  0.04199277  0.78159774  0.99825765  1
  Cl  Cl19  1  0.54199277  0.21840226  0.50174235  1
loop_
_geom_bond_atom_site_label_1
_geom_bond_atom_site_label_2
_geom_bond_distance
_geom_bond_site_symmetry_2
Cl0 Pb5 2.894315 1_655
Cl0 Pb1 2.902734 1_655
Cl1 Pb4 2.894315 1_555
Cl1 Pb0 2.902734 1_555
Cl2 Pb7 2.894315 1_455
Cl2 Pb3 2.902734 1_455
Cl3 Pb6 2.894315 1_555
Cl3 Pb2 2.902734 1_555
Cl4 Pb1 2.938180 1_645
Cl4 Pb7 3.020300 1_555
Cl4 Pb0 3.192494 1_555
Cl5 Pb0 2.938180 1_565
Cl5 Pb6 3.020300 1_554
Cl5 Pb1 3.192494 1_555
Cl6 Pb3 2.938180 1_465
Cl6 Pb5 3.020300 1_555
Cl6 Pb2 3.192494 1_555
Cl7 Pb2 2.938180 1_545
Cl7 Pb4 3.020300 1_556
Cl7 Pb3 3.192494 1_555
Cl8 Pb4 2.888343 1_555
Cl8 Pb6 2.890856 1_554
Cl8 Tl2 3.185086 1_655
Cl9 Pb5 2.888343 1_555
Cl9 Pb7 2.890856 1_455
Cl9 Tl3 3.185086 1_555
Cl10 Pb6 2.888343 1_555
Cl10 Pb4 2.890856 1_556
Cl10 Tl0 3.185086 1_455
Cl11 Pb7 2.888343 1_555
Cl11 Pb5 2.890856 1_655
Cl11 Tl1 3.185086 1_555
Cl12 Pb2 2.916878 1_555
Cl12 Pb5 2.946872 1_655
Cl12 Pb7 2.992708 1_565
Cl12 Pb3 3.134647 1_565
Cl13 Pb3 2.916878 1_455
Cl13 Pb4 2.946872 1_556
Cl13 Pb6 2.992708 1_545
Cl13 Pb2 3.134647 1_545
Cl14 Pb0 2.916878 1_555
Cl14 Pb7 2.946872 1_455
Cl14 Pb5 2.992708 1_545
Cl14 Pb1 3.134647 1_545
Cl15 Pb1 2.916878 1_655
Cl15 Pb6 2.946872 1_554
Cl15 Pb4 2.992708 1_565
Cl15 Pb0 3.134647 1_565
Cl16 Pb3 2.941709 1_554
Cl16 Pb1 3.003964 1_645
Cl16 Pb4 3.138220 1_555
Cl17 Pb2 2.941709 1_555
Cl17 Pb0 3.003964 1_565
Cl17 Pb5 3.138220 1_555
Cl18 Pb1 2.941709 1_556
Cl18 Pb3 3.003964 1_465
Cl18 Pb6 3.138220 1_555
Cl19 Pb0 2.941709 1_555
Cl19 Pb2 3.003964 1_545
Cl19 Pb7 3.138220 1_555
