# generated using pymatgen
data_MgV2CdO6
_symmetry_space_group_name_H-M   'P 1'
_cell_length_a   3.93930830
_cell_length_b   5.57153576
_cell_length_c   6.99314595
_cell_angle_alpha   83.79383529
_cell_angle_beta   90.00163952
_cell_angle_gamma   110.65558363
_symmetry_Int_Tables_number   1
_chemical_formula_structural   MgV2CdO6
_chemical_formula_sum   'Mg1 V2 Cd1 O6'
_cell_volume   142.65760720
_cell_formula_units_Z   1
loop_
 _symmetry_equiv_pos_site_id
 _symmetry_equiv_pos_as_xyz
  1  'x, y, z'
loop_
 _atom_site_type_symbol
 _atom_site_label
 _atom_site_symmetry_multiplicity
 _atom_site_fract_x
 _atom_site_fract_y
 _atom_site_fract_z
 _atom_site_occupancy
  Mg  Mg0  1  0.16550062  0.32973129  0.18190576  1
  V  V0  1  0.21259826  0.42375051  0.67585253  1
  V  V1  1  0.82791979  0.65503411  0.36873318  1
  Cd  Cd0  1  0.88103758  0.76189516  0.92525226  1
  O  O0  1  0.05069001  0.09854794  0.69925802  1
  O  O1  1  0.97354406  0.94681759  0.21412446  1
  O  O2  1  0.27843810  0.55615000  0.91904342  1
  O  O3  1  0.69707403  0.39300064  0.21626639  1
  O  O4  1  0.29274282  0.58458627  0.40805251  1
  O  O5  1  0.76331173  0.52548648  0.64151147  1
loop_
_geom_bond_atom_site_label_1
_geom_bond_atom_site_label_2
_geom_bond_distance
_geom_bond_site_symmetry_2
Mg0 O1 1.982922 1_445
Mg0 O3 2.016010 1_455
Mg0 O3 2.016056 1_555
Mg0 O2 2.066672 1_554
Mg0 O4 2.179881 1_555
Cd0 O0 2.221993 1_665
Cd0 O2 2.245430 1_555
Cd0 O2 2.245768 1_655
Cd0 O1 2.336731 1_556
Cd0 O5 2.453829 1_555
Cd0 O3 2.633633 1_556
O0 V0 1.684363 1_555
O1 V1 1.761529 1_555
O2 V0 1.907863 1_555
O3 V1 1.827440 1_555
O4 V0 1.961509 1_555
O4 V1 2.016483 1_455
O4 V1 2.016729 1_555
O5 V1 1.948674 1_555
O5 V0 2.046569 1_555
O5 V0 2.046886 1_655
