# generated using pymatgen
data_LaTa3(PO4)6
_symmetry_space_group_name_H-M   'P 1'
_cell_length_a   8.95135452
_cell_length_b   8.95135422
_cell_length_c   23.00107222
_cell_angle_alpha   90.00000000
_cell_angle_beta   90.00000000
_cell_angle_gamma   120.00000110
_symmetry_Int_Tables_number   1
_chemical_formula_structural   LaTa3(PO4)6
_chemical_formula_sum   'La3 Ta9 P18 O72'
_cell_volume   1596.08571130
_cell_formula_units_Z   3
loop_
 _symmetry_equiv_pos_site_id
 _symmetry_equiv_pos_as_xyz
  1  'x, y, z'
loop_
 _atom_site_type_symbol
 _atom_site_label
 _atom_site_symmetry_multiplicity
 _atom_site_fract_x
 _atom_site_fract_y
 _atom_site_fract_z
 _atom_site_occupancy
  La  La0  1  0.00000000  0.00000000  0.37096454  1
  La  La1  1  0.66666700  0.33333300  0.69525150  1
  La  La2  1  0.66666700  0.33333300  0.18664660  1
  Ta  Ta0  1  0.00000000  0.00000000  0.86065924  1
  Ta  Ta1  1  0.00000000  0.00000000  0.64277522  1
  Ta  Ta2  1  0.00000000  0.00000000  0.14688882  1
  Ta  Ta3  1  0.66666700  0.33333300  0.98077249  1
  Ta  Ta4  1  0.66666700  0.33333300  0.47875511  1
  Ta  Ta5  1  0.33333300  0.66666700  0.01635439  1
  Ta  Ta6  1  0.33333300  0.66666700  0.52369046  1
  Ta  Ta7  1  0.33333300  0.66666700  0.30789034  1
  Ta  Ta8  1  0.33333300  0.66666700  0.80927224  1
  P  P0  1  0.27175252  0.97602423  0.25041120  1
  P  P1  1  0.70427171  0.72824748  0.25041120  1
  P  P2  1  0.02397577  0.29572829  0.25041120  1
  P  P3  1  0.26003963  0.28345204  0.75348753  1
  P  P4  1  0.02341241  0.73996037  0.75348753  1
  P  P5  1  0.71654796  0.97658759  0.75348753  1
  P  P6  1  0.95763553  0.32876240  0.58238939  1
  P  P7  1  0.37112787  0.04236447  0.58238939  1
  P  P8  1  0.67123760  0.62887213  0.58238939  1
  P  P9  1  0.96557884  0.63580899  0.07904231  1
  P  P10  1  0.67023116  0.03442116  0.07904231  1
  P  P11  1  0.36419101  0.32976884  0.07904231  1
  P  P12  1  0.61442071  0.65610273  0.91407080  1
  P  P13  1  0.04168102  0.38557929  0.91407080  1
  P  P14  1  0.34389727  0.95831898  0.91407080  1
  P  P15  1  0.58875275  0.95675025  0.41882557  1
  P  P16  1  0.36799649  0.41124725  0.41882557  1
  P  P17  1  0.04324975  0.63200351  0.41882557  1
  O  O0  1  0.19740280  0.00810168  0.30405608  1
  O  O1  1  0.81069888  0.80259720  0.30405608  1
  O  O2  1  0.99189832  0.18930112  0.30405608  1
  O  O3  1  0.16546352  0.17844197  0.80887750  1
  O  O4  1  0.01297845  0.83453648  0.80887750  1
  O  O5  1  0.82155803  0.98702155  0.80887750  1
  O  O6  1  0.80320218  0.95530343  0.69822184  1
  O  O7  1  0.15210124  0.19679782  0.69822184  1
  O  O8  1  0.04469657  0.84789876  0.69822184  1
  O  O9  1  0.80271847  0.84324596  0.19414534  1
  O  O10  1  0.04052749  0.19728153  0.19414534  1
  O  O11  1  0.15675404  0.95947251  0.19414534  1
  O  O12  1  0.90221513  0.38025964  0.63698646  1
  O  O13  1  0.47804551  0.09778487  0.63698646  1
  O  O14  1  0.61974036  0.52195449  0.63698646  1
  O  O15  1  0.91972636  0.52617379  0.13214352  1
  O  O16  1  0.60644843  0.08027364  0.13214352  1
  O  O17  1  0.47382621  0.39355157  0.13214352  1
  O  O18  1  0.46771031  0.30045196  0.02779836  1
  O  O19  1  0.83274266  0.53228969  0.02779836  1
  O  O20  1  0.69954804  0.16725734  0.02779836  1
  O  O21  1  0.46320450  0.17045083  0.53126419  1
  O  O22  1  0.70724734  0.53679550  0.53126419  1
  O  O23  1  0.82954917  0.29275266  0.53126419  1
  O  O24  1  0.52842257  0.69320092  0.96538971  1
  O  O25  1  0.16477735  0.47157743  0.96538971  1
  O  O26  1  0.30679908  0.83522265  0.96538971  1
  O  O27  1  0.48671991  0.85220335  0.47289302  1
  O  O28  1  0.36548245  0.51328009  0.47289302  1
  O  O29  1  0.14779665  0.63451755  0.47289302  1
  O  O30  1  0.13039474  0.61613917  0.36280237  1
  O  O31  1  0.48574343  0.86960526  0.36280237  1
  O  O32  1  0.38386083  0.51425657  0.36280237  1
  O  O33  1  0.12712131  0.50323894  0.86030630  1
  O  O34  1  0.37611663  0.87287869  0.86030630  1
  O  O35  1  0.49676106  0.62388337  0.86030630  1
  O  O36  1  0.02218207  0.78759799  0.42199854  1
  O  O37  1  0.76541592  0.97781793  0.42199854  1
  O  O38  1  0.21240201  0.23458408  0.42199854  1
  O  O39  1  0.01631302  0.20111161  0.90560373  1
  O  O40  1  0.18479859  0.98368698  0.90560373  1
  O  O41  1  0.79888839  0.81520141  0.90560373  1
  O  O42  1  0.96392544  0.15818332  0.59438916  1
  O  O43  1  0.19425788  0.03607456  0.59438916  1
  O  O44  1  0.84181668  0.80574212  0.59438916  1
  O  O45  1  0.97356034  0.81050703  0.08828845  1
  O  O46  1  0.83694670  0.02643966  0.08828845  1
  O  O47  1  0.18949297  0.16305330  0.08828845  1
  O  O48  1  0.69688275  0.13288680  0.75252272  1
  O  O49  1  0.43600505  0.30311725  0.75252272  1
  O  O50  1  0.86711320  0.56399495  0.75252272  1
  O  O51  1  0.65760148  0.54529601  0.23826649  1
  O  O52  1  0.88769553  0.34239852  0.23826649  1
  O  O53  1  0.45470399  0.11230447  0.23826649  1
  O  O54  1  0.63377456  0.49731516  0.92750889  1
  O  O55  1  0.86354160  0.36622544  0.92750889  1
  O  O56  1  0.50268484  0.13645840  0.92750889  1
  O  O57  1  0.60065436  0.13598147  0.42777577  1
  O  O58  1  0.53532810  0.39934564  0.42777577  1
  O  O59  1  0.86401853  0.46467190  0.42777577  1
  O  O60  1  0.33079671  0.47710797  0.05734282  1
  O  O61  1  0.14631026  0.66920329  0.05734282  1
  O  O62  1  0.52289203  0.85368974  0.05734282  1
  O  O63  1  0.32125403  0.85340655  0.56709833  1
  O  O64  1  0.53215151  0.67874597  0.56709833  1
  O  O65  1  0.14659345  0.46784849  0.56709833  1
  O  O66  1  0.26467827  0.79708079  0.25787337  1
  O  O67  1  0.53240153  0.73532173  0.25787337  1
  O  O68  1  0.20291921  0.46759847  0.25787337  1
  O  O69  1  0.27175566  0.46364410  0.76157991  1
  O  O70  1  0.19188744  0.72824434  0.76157991  1
  O  O71  1  0.53635590  0.80811256  0.76157991  1
loop_
_geom_bond_atom_site_label_1
_geom_bond_atom_site_label_2
_geom_bond_distance
_geom_bond_site_symmetry_2
La0 O1 2.316873 1_445
La0 O2 2.316873 1_455
La0 O0 2.316873 1_555
La0 O38 2.325881 1_555
La0 O36 2.325881 1_545
La0 O37 2.325881 1_445
La1 O50 2.348003 1_555
La1 O48 2.348003 1_555
La1 O49 2.348003 1_555
La1 O13 2.352118 1_555
La1 O14 2.352118 1_555
La1 O12 2.352118 1_555
La2 O53 2.273813 1_555
La2 O51 2.273813 1_555
La2 O52 2.273813 1_555
La2 O16 2.402571 1_555
La2 O15 2.402571 1_555
La2 O17 2.402571 1_555
O0 P0 1.496316 1_545
O1 P1 1.496316 1_555
O2 P2 1.496316 1_655
O3 P3 1.558091 1_555
O3 Ta0 1.948809 1_555
O4 P4 1.558091 1_555
O4 Ta0 1.948809 1_565
O5 P5 1.558091 1_555
O5 Ta0 1.948809 1_665
O6 P5 1.549717 1_555
O6 Ta1 2.045726 1_665
O7 P3 1.549717 1_555
O7 Ta1 2.045726 1_555
O8 P4 1.549717 1_555
O8 Ta1 2.045726 1_565
O9 P1 1.613683 1_555
O9 Ta2 1.947039 1_665
O10 P2 1.613683 1_555
O10 Ta2 1.947039 1_555
O11 P0 1.613683 1_555
O11 Ta2 1.947039 1_565
O12 P6 1.504756 1_555
O13 P7 1.504756 1_555
O14 P8 1.504756 1_555
O15 P9 1.490153 1_555
O16 P10 1.490153 1_555
O17 P11 1.490153 1_555
O18 P11 1.599985 1_555
O18 Ta3 1.975886 1_554
O19 P9 1.599985 1_555
O19 Ta3 1.975886 1_554
O20 P10 1.599985 1_555
O20 Ta3 1.975886 1_554
O21 P7 1.559397 1_555
O21 Ta4 2.060602 1_555
O22 P8 1.559397 1_555
O22 Ta4 2.060602 1_555
O23 P6 1.559397 1_555
O23 Ta4 2.060602 1_555
O24 P12 1.533565 1_555
O24 Ta5 2.016286 1_556
O25 P13 1.533565 1_555
O25 Ta5 2.016286 1_556
O26 P14 1.533565 1_555
O26 Ta5 2.016286 1_556
O27 P15 1.549774 1_555
O27 Ta6 1.930876 1_555
O28 P16 1.549774 1_555
O28 Ta6 1.930876 1_555
O29 P17 1.549774 1_555
O29 Ta6 1.930876 1_555
O30 P17 1.549167 1_555
O30 Ta7 2.068367 1_555
O31 P15 1.549167 1_555
O31 Ta7 2.068367 1_555
O32 P16 1.549167 1_555
O32 Ta7 2.068367 1_555
O33 P13 1.554980 1_555
O33 Ta8 2.055455 1_555
O34 P14 1.554980 1_555
O34 Ta8 2.055455 1_555
O35 P12 1.554980 1_555
O35 Ta8 2.055455 1_555
O36 P17 1.497794 1_555
O37 P15 1.497803 1_555
O38 P16 1.497799 1_555
O39 P13 1.562406 1_555
O39 Ta0 2.016911 1_555
O40 P14 1.562397 1_555
O40 Ta0 2.016911 1_565
O41 P12 1.562402 1_555
O41 Ta0 2.016911 1_665
O42 P6 1.580122 1_555
O42 Ta1 1.950655 1_655
O43 P7 1.580131 1_555
O43 Ta1 1.950655 1_555
O44 P8 1.580127 1_555
O44 Ta1 1.950655 1_665
O45 P9 1.544030 1_555
O45 Ta2 2.085302 1_665
O46 P10 1.544021 1_555
O46 Ta2 2.085302 1_655
O47 P11 1.544026 1_555
O47 Ta2 2.085302 1_555
O48 P5 1.495063 1_545
O49 P3 1.495072 1_555
O50 P4 1.495068 1_655
O51 P1 1.500115 1_555
O52 P2 1.500106 1_655
O53 P0 1.500113 1_545
O54 P12 1.546631 1_555
O54 Ta3 2.043138 1_555
O55 P13 1.546613 1_655
O55 Ta3 2.043138 1_555
O56 P14 1.546621 1_545
O56 Ta3 2.043138 1_555
O57 P15 1.567414 1_545
O57 Ta4 1.949612 1_555
O58 P16 1.567432 1_555
O58 Ta4 1.949612 1_555
O59 P17 1.567422 1_655
O59 Ta4 1.949612 1_555
O60 P11 1.572314 1_555
O60 Ta5 1.931317 1_555
O61 P9 1.572297 1_455
O61 Ta5 1.931317 1_555
O62 P10 1.572303 1_565
O62 Ta5 1.931317 1_555
O63 P7 1.558468 1_565
O63 Ta6 1.995855 1_555
O64 P8 1.558485 1_555
O64 Ta6 1.995855 1_555
O65 P6 1.558472 1_455
O65 Ta6 1.995855 1_555
O66 P0 1.580429 1_555
O66 Ta7 1.944579 1_555
O67 P1 1.580438 1_555
O67 Ta7 1.944580 1_555
O68 P2 1.580433 1_555
O68 Ta7 1.944579 1_555
O69 P3 1.574209 1_555
O69 Ta8 1.951448 1_555
O70 P4 1.574201 1_555
O70 Ta8 1.951448 1_555
O71 P5 1.574205 1_555
O71 Ta8 1.951448 1_555
