# generated using pymatgen
data_Na3AlSiGe(PO6)2
_symmetry_space_group_name_H-M   'P 1'
_cell_length_a   8.64186673
_cell_length_b   8.64186647
_cell_length_c   21.56405000
_cell_angle_alpha   90.33099568
_cell_angle_beta   89.66900426
_cell_angle_gamma   120.18777408
_symmetry_Int_Tables_number   1
_chemical_formula_structural   Na3AlSiGe(PO6)2
_chemical_formula_sum   'Na18 Al6 Si6 Ge6 P12 O72'
_cell_volume   1392.00750009
_cell_formula_units_Z   6
loop_
 _symmetry_equiv_pos_site_id
 _symmetry_equiv_pos_as_xyz
  1  'x, y, z'
loop_
 _atom_site_type_symbol
 _atom_site_label
 _atom_site_symmetry_multiplicity
 _atom_site_fract_x
 _atom_site_fract_y
 _atom_site_fract_z
 _atom_site_occupancy
  Na  Na0  1  0.00075783  0.99743974  0.49854959  1
  Na  Na1  1  0.00256026  0.99924217  0.99854959  1
  Na  Na2  1  0.66646024  0.32964592  0.83201137  1
  Na  Na3  1  0.67035408  0.33353976  0.33201137  1
  Na  Na4  1  0.34423889  0.67299731  0.16528775  1
  Na  Na5  1  0.32700269  0.65576111  0.66528775  1
  Na  Na6  1  0.36290417  0.36420499  0.24905083  1
  Na  Na7  1  0.99585789  0.62842617  0.24901548  1
  Na  Na8  1  0.63579501  0.63709583  0.74905083  1
  Na  Na9  1  0.37157383  0.00414211  0.74901548  1
  Na  Na10  1  0.03540858  0.70041708  0.58173559  1
  Na  Na11  1  0.66036180  0.96539818  0.58430606  1
  Na  Na12  1  0.29958292  0.96459142  0.08173559  1
  Na  Na13  1  0.03460182  0.33963820  0.08430606  1
  Na  Na14  1  0.97019479  0.66943656  0.91788889  1
  Na  Na15  1  0.69918185  0.03072208  0.91423027  1
  Na  Na16  1  0.96927792  0.30081815  0.41423027  1
  Na  Na17  1  0.33056344  0.02980521  0.41788889  1
  Al  Al0  1  0.99302894  0.99389807  0.35342310  1
  Al  Al1  1  0.00610193  0.00697106  0.85342310  1
  Al  Al2  1  0.67046516  0.32763833  0.68674760  1
  Al  Al3  1  0.67236167  0.32953484  0.18674760  1
  Al  Al4  1  0.33061476  0.66935155  0.01973356  1
  Al  Al5  1  0.33064845  0.66938524  0.51973356  1
  Si  Si0  1  0.99138003  0.28051150  0.25199093  1
  Si  Si1  1  0.71948850  0.00861997  0.75199093  1
  Si  Si2  1  0.37718873  0.04819918  0.58450610  1
  Si  Si3  1  0.95180082  0.62281127  0.08450610  1
  Si  Si4  1  0.33120342  0.96125401  0.91833310  1
  Si  Si5  1  0.03874599  0.66879658  0.41833310  1
  Ge  Ge0  1  0.00590907  0.00720222  0.64831984  1
  Ge  Ge1  1  0.99279778  0.99409093  0.14831984  1
  Ge  Ge2  1  0.66100898  0.33497495  0.98146809  1
  Ge  Ge3  1  0.66502505  0.33899102  0.48146809  1
  Ge  Ge4  1  0.32726433  0.66165615  0.31482830  1
  Ge  Ge5  1  0.33834385  0.67273567  0.81482830  1
  P  P0  1  0.29313741  0.00196884  0.25088544  1
  P  P1  1  0.70971193  0.71455317  0.25139188  1
  P  P2  1  0.28544683  0.29028807  0.75139188  1
  P  P3  1  0.99803116  0.70686259  0.75088544  1
  P  P4  1  0.95813652  0.33476622  0.58379822  1
  P  P5  1  0.66037488  0.61698547  0.58521595  1
  P  P6  1  0.66523378  0.04186348  0.08379822  1
  P  P7  1  0.38301453  0.33962512  0.08521595  1
  P  P8  1  0.61659239  0.66256963  0.91779541  1
  P  P9  1  0.05155138  0.37878113  0.91760198  1
  P  P10  1  0.62121887  0.94844862  0.41760198  1
  P  P11  1  0.33743037  0.38340761  0.41779541  1
  O  O0  1  0.20764008  0.03587692  0.30798688  1
  O  O1  1  0.83441802  0.79632250  0.30646890  1
  O  O2  1  0.97188137  0.16537547  0.31238515  1
  O  O3  1  0.20367750  0.16558198  0.80646890  1
  O  O4  1  0.96412308  0.79235992  0.80798688  1
  O  O5  1  0.83462453  0.02811863  0.81238515  1
  O  O6  1  0.79800785  0.95647741  0.68903648  1
  O  O7  1  0.17079414  0.21127100  0.69164157  1
  O  O8  1  0.04432752  0.83005823  0.69184685  1
  O  O9  1  0.78872900  0.82920586  0.19164157  1
  O  O10  1  0.04352259  0.20199215  0.18903648  1
  O  O11  1  0.16994177  0.95567248  0.19184685  1
  O  O12  1  0.87231248  0.37410521  0.63918017  1
  O  O13  1  0.50423488  0.13512812  0.64373002  1
  O  O14  1  0.63686097  0.50684898  0.64315836  1
  O  O15  1  0.86487188  0.49576512  0.14373002  1
  O  O16  1  0.62589479  0.12768752  0.13918017  1
  O  O17  1  0.49315102  0.36313903  0.14315836  1
  O  O18  1  0.45903714  0.28946780  0.02698025  1
  O  O19  1  0.83220097  0.53745246  0.02060762  1
  O  O20  1  0.70986588  0.16288860  0.02422537  1
  O  O21  1  0.46254754  0.16779903  0.52060762  1
  O  O22  1  0.71053220  0.54096286  0.52698025  1
  O  O23  1  0.83711140  0.29013412  0.52422537  1
  O  O24  1  0.52828977  0.69764643  0.97296515  1
  O  O25  1  0.16210797  0.46196386  0.97605117  1
  O  O26  1  0.29570134  0.83350178  0.97733078  1
  O  O27  1  0.53803614  0.83789203  0.47605117  1
  O  O28  1  0.30235357  0.47171023  0.47296515  1
  O  O29  1  0.16649822  0.70429866  0.47733078  1
  O  O30  1  0.12184929  0.62001302  0.35593288  1
  O  O31  1  0.49574641  0.86788447  0.35971315  1
  O  O32  1  0.37415749  0.49462494  0.35662553  1
  O  O33  1  0.13211553  0.50425359  0.85971315  1
  O  O34  1  0.37998698  0.87815071  0.85593288  1
  O  O35  1  0.50537506  0.62584251  0.85662553  1
  O  O36  1  0.02675533  0.84746261  0.40842258  1
  O  O37  1  0.80991697  0.97652428  0.41057886  1
  O  O38  1  0.16978626  0.19468675  0.41130135  1
  O  O39  1  0.02347572  0.19008303  0.91057886  1
  O  O40  1  0.15253739  0.97324467  0.90842258  1
  O  O41  1  0.80531325  0.83021374  0.91130135  1
  O  O42  1  0.96826369  0.15990116  0.58959155  1
  O  O43  1  0.17210593  0.01817593  0.59056231  1
  O  O44  1  0.83314839  0.80892800  0.58883574  1
  O  O45  1  0.98182407  0.82789407  0.09056231  1
  O  O46  1  0.84009884  0.03173631  0.08959155  1
  O  O47  1  0.19107200  0.16685161  0.08883574  1
  O  O48  1  0.68747151  0.17631992  0.74459534  1
  O  O49  1  0.47557611  0.31637074  0.74354579  1
  O  O50  1  0.82774081  0.52501527  0.74181284  1
  O  O51  1  0.68362926  0.52442389  0.24354579  1
  O  O52  1  0.82368008  0.31252849  0.24459534  1
  O  O53  1  0.47498473  0.17225919  0.24181284  1
  O  O54  1  0.64233376  0.49640564  0.92187937  1
  O  O55  1  0.86060987  0.36080996  0.92158377  1
  O  O56  1  0.51921707  0.15690749  0.92476948  1
  O  O57  1  0.63919004  0.13939013  0.42158377  1
  O  O58  1  0.50359436  0.35766624  0.42187937  1
  O  O59  1  0.84309251  0.48078293  0.42476948  1
  O  O60  1  0.35954621  0.50232333  0.07631113  1
  O  O61  1  0.15073770  0.64391182  0.07723422  1
  O  O62  1  0.50005514  0.85608377  0.07578924  1
  O  O63  1  0.35608818  0.84926230  0.57723422  1
  O  O64  1  0.49767667  0.64045379  0.57631113  1
  O  O65  1  0.14391623  0.49994486  0.57578924  1
  O  O66  1  0.30951622  0.83082651  0.25642781  1
  O  O67  1  0.52008759  0.69352184  0.25768427  1
  O  O68  1  0.17963080  0.48548627  0.25509277  1
  O  O69  1  0.30647816  0.47991241  0.75768427  1
  O  O70  1  0.16917349  0.69048378  0.75642781  1
  O  O71  1  0.51451373  0.82036920  0.75509277  1
loop_
_geom_bond_atom_site_label_1
_geom_bond_atom_site_label_2
_geom_bond_distance
_geom_bond_site_symmetry_2
Na0 O36 2.401291 1_555
Na0 O43 2.434067 1_565
Na0 O38 2.465832 1_565
Na0 O37 2.466502 1_455
Na0 O44 2.484661 1_455
Na0 O42 2.502507 1_465
Na1 O40 2.401291 1_555
Na1 O45 2.434067 1_456
Na1 O41 2.465833 1_455
Na1 O39 2.466502 1_565
Na1 O47 2.484661 1_566
Na1 O46 2.502507 1_466
Na2 O48 2.356096 1_555
Na2 O56 2.437894 1_555
Na2 O54 2.478114 1_555
Na2 O55 2.489069 1_555
Na2 O50 2.493278 1_555
Na2 O49 2.493404 1_555
Na3 O52 2.356096 1_555
Na3 O59 2.437894 1_555
Na3 O58 2.478114 1_555
Na3 O57 2.489069 1_555
Na3 O53 2.493278 1_555
Na3 O51 2.493404 1_555
Na4 O62 2.429801 1_555
Na4 O60 2.456611 1_555
Na4 O67 2.463836 1_555
Na4 O61 2.464416 1_555
Na4 O68 2.466964 1_555
Na4 O66 2.487323 1_555
Na5 O65 2.429801 1_555
Na5 O64 2.456611 1_555
Na5 O69 2.463836 1_555
Na5 O63 2.464416 1_555
Na5 O71 2.466964 1_555
Na5 O70 2.487323 1_555
Na6 O68 2.299877 1_555
Na6 O53 2.307611 1_555
Na6 O51 2.398336 1_555
Na6 O67 2.467412 1_555
Na6 O17 2.541994 1_555
Na6 O32 2.554044 1_555
Na6 O10 2.717921 1_555
Na6 O0 2.767573 1_555
Na7 O52 2.364160 1_555
Na7 O51 2.380292 1_555
Na7 O66 2.380340 1_655
Na7 O68 2.458136 1_655
Na7 O15 2.538666 1_555
Na7 O30 2.572351 1_655
Na7 O11 2.742431 1_655
Na7 O1 2.753468 1_555
Na8 O71 2.299877 1_555
Na8 O50 2.307611 1_555
Na8 O49 2.398336 1_555
Na8 O69 2.467412 1_555
Na8 O14 2.541994 1_555
Na8 O35 2.554044 1_555
Na8 O6 2.717921 1_555
Na8 O4 2.767574 1_555
Na9 O48 2.364160 1_555
Na9 O49 2.380292 1_555
Na9 O70 2.380340 1_545
Na9 O71 2.458136 1_545
Na9 O13 2.538666 1_555
Na9 O34 2.572351 1_545
Na9 O8 2.742431 1_545
Na9 O3 2.753468 1_555
Na10 O65 2.350943 1_555
Na10 O44 2.366767 1_455
Na10 O43 2.388859 1_565
Na10 O63 2.399451 1_555
Na10 O29 2.507278 1_555
Na10 O8 2.604540 1_555
Na10 O22 2.702609 1_455
Na10 O12 2.737915 1_455
Na11 O63 2.300786 1_555
Na11 O42 2.328478 1_565
Na11 O64 2.432843 1_555
Na11 O44 2.470095 1_555
Na11 O27 2.570703 1_555
Na11 O6 2.578099 1_555
Na11 O13 2.749994 1_565
Na11 O23 2.755977 1_565
Na12 O62 2.350943 1_555
Na12 O47 2.366767 1_565
Na12 O45 2.388859 1_455
Na12 O61 2.399451 1_555
Na12 O26 2.507278 1_554
Na12 O11 2.604540 1_555
Na12 O18 2.702609 1_565
Na12 O16 2.737915 1_565
Na13 O61 2.300786 1_555
Na13 O46 2.328478 1_455
Na13 O60 2.432843 1_555
Na13 O47 2.470095 1_555
Na13 O25 2.570703 1_554
Na13 O10 2.578099 1_555
Na13 O15 2.749994 1_455
Na13 O20 2.755977 1_455
Na14 O40 2.293402 1_655
Na14 O55 2.340539 1_555
Na14 O41 2.444698 1_555
Na14 O54 2.451338 1_555
Na14 O19 2.502039 1_556
Na14 O4 2.614262 1_555
Na14 O33 2.745428 1_655
Na14 O26 2.752429 1_655
Na15 O56 2.314768 1_555
Na15 O41 2.333238 1_545
Na15 O39 2.423658 1_655
Na15 O55 2.470582 1_555
Na15 O5 2.487971 1_555
Na15 O20 2.608513 1_556
Na15 O34 2.700201 1_545
Na15 O24 2.795687 1_545
Na16 O59 2.314768 1_555
Na16 O38 2.333238 1_655
Na16 O37 2.423658 1_545
Na16 O57 2.470582 1_555
Na16 O2 2.487971 1_555
Na16 O23 2.608513 1_555
Na16 O30 2.700201 1_655
Na16 O28 2.795687 1_655
Na17 O36 2.293402 1_545
Na17 O57 2.340540 1_555
Na17 O38 2.444698 1_555
Na17 O58 2.451338 1_555
Na17 O21 2.502039 1_555
Na17 O0 2.614262 1_555
Na17 O31 2.745428 1_545
Na17 O29 2.752429 1_545
Al0 O2 1.817109 1_565
Al0 O1 1.860572 1_555
Al0 O36 1.866885 1_655
Al0 O37 1.945860 1_555
Al0 O0 1.959021 1_665
Al0 O38 2.057512 1_665
Al1 O5 1.817109 1_455
Al1 O3 1.860572 1_555
Al1 O40 1.866885 1_545
Al1 O39 1.945860 1_555
Al1 O4 1.959021 1_445
Al1 O41 2.057512 1_445
Al2 O13 1.812730 1_555
Al2 O48 1.871346 1_555
Al2 O12 1.880366 1_555
Al2 O50 1.957167 1_555
Al2 O14 1.959248 1_555
Al2 O49 2.039309 1_555
Al3 O15 1.812730 1_555
Al3 O52 1.871346 1_555
Al3 O16 1.880366 1_555
Al3 O53 1.957167 1_555
Al3 O17 1.959248 1_555
Al3 O51 2.039309 1_555
Al4 O26 1.840665 1_554
Al4 O24 1.886262 1_554
Al4 O25 1.895151 1_554
Al4 O61 1.907717 1_555
Al4 O62 1.957279 1_555
Al4 O60 2.005325 1_555
Al5 O29 1.840665 1_555
Al5 O28 1.886262 1_555
Al5 O27 1.895151 1_555
Al5 O63 1.907717 1_555
Al5 O65 1.957279 1_555
Al5 O64 2.005325 1_555
Ge0 O6 1.839895 1_445
Ge0 O43 1.861925 1_555
Ge0 O7 1.866108 1_555
Ge0 O8 1.966237 1_545
Ge0 O42 1.976567 1_455
Ge0 O44 2.057755 1_445
Ge1 O10 1.839895 1_665
Ge1 O45 1.861925 1_555
Ge1 O9 1.866108 1_555
Ge1 O11 1.966237 1_655
Ge1 O46 1.976567 1_565
Ge1 O47 2.057755 1_665
Ge2 O19 1.832154 1_556
Ge2 O18 1.859755 1_556
Ge2 O56 1.861085 1_555
Ge2 O54 1.967978 1_555
Ge2 O20 1.972762 1_556
Ge2 O55 2.069563 1_555
Ge3 O21 1.832154 1_555
Ge3 O22 1.859755 1_555
Ge3 O59 1.861085 1_555
Ge3 O58 1.967978 1_555
Ge3 O23 1.972762 1_555
Ge3 O57 2.069563 1_555
Ge4 O30 1.846470 1_555
Ge4 O31 1.902564 1_555
Ge4 O68 1.909922 1_555
Ge4 O32 1.915124 1_555
Ge4 O67 1.972242 1_555
Ge4 O66 1.998946 1_555
Ge5 O34 1.846470 1_555
Ge5 O33 1.902564 1_555
Ge5 O71 1.909922 1_555
Ge5 O35 1.915124 1_555
Ge5 O69 1.972242 1_555
Ge5 O70 1.998946 1_555
O0 P0 1.533305 1_555
O1 P1 1.520062 1_555
O2 Si0 1.599476 1_555
O3 P2 1.520062 1_555
O4 P3 1.533305 1_555
O5 Si1 1.599476 1_555
O6 Si1 1.672190 1_565
O7 P2 1.559581 1_555
O8 P3 1.579795 1_455
O9 P1 1.559581 1_555
O10 Si0 1.672190 1_455
O11 P0 1.579795 1_565
O12 P4 1.526619 1_555
O13 Si2 1.605123 1_555
O14 P5 1.524688 1_555
O15 Si3 1.605123 1_555
O16 P6 1.526619 1_555
O17 P7 1.524688 1_555
O18 P7 1.570697 1_555
O19 Si3 1.658012 1_555
O20 P6 1.580199 1_555
O21 Si2 1.658012 1_555
O22 P5 1.570697 1_555
O23 P4 1.580199 1_555
O24 P8 1.519055 1_555
O25 P9 1.526737 1_555
O26 Si4 1.613267 1_555
O27 P10 1.526737 1_555
O28 P11 1.519055 1_555
O29 Si5 1.613267 1_555
O30 Si5 1.670599 1_555
O31 P10 1.570081 1_555
O32 P11 1.570819 1_555
O33 P9 1.570081 1_555
O34 Si4 1.670599 1_555
O35 P8 1.570819 1_555
O36 Si5 1.614106 1_555
O37 P10 1.529926 1_555
O38 P11 1.549798 1_555
O39 P9 1.529926 1_555
O40 Si4 1.614106 1_555
O41 P8 1.549798 1_555
O42 P4 1.562749 1_555
O43 Si2 1.661532 1_555
O44 P5 1.579868 1_555
O45 Si3 1.661532 1_555
O46 P6 1.562749 1_555
O47 P7 1.579868 1_555
O48 Si1 1.615155 1_555
O49 P2 1.550449 1_555
O50 P3 1.532179 1_555
O51 P1 1.550449 1_555
O52 Si0 1.615155 1_555
O53 P0 1.532179 1_555
O54 P8 1.562747 1_555
O55 P9 1.579585 1_655
O56 Si4 1.659864 1_545
O57 P10 1.579585 1_545
O58 P11 1.562747 1_555
O59 Si5 1.659864 1_655
O60 P7 1.531414 1_555
O61 Si3 1.641764 1_455
O62 P6 1.529680 1_565
O63 Si2 1.641764 1_565
O64 P5 1.531414 1_555
O65 P4 1.529680 1_455
O66 P0 1.560286 1_565
O67 P1 1.560449 1_555
O68 Si0 1.700186 1_455
O69 P2 1.560449 1_555
O70 P3 1.560286 1_455
O71 Si1 1.700186 1_565
