# generated using pymatgen
data_Ca2PbO4
_symmetry_space_group_name_H-M   'P 1'
_cell_length_a   3.39822018
_cell_length_b   5.85128628
_cell_length_c   9.77047035
_cell_angle_alpha   90.00000000
_cell_angle_beta   90.00000000
_cell_angle_gamma   90.00000000
_symmetry_Int_Tables_number   1
_chemical_formula_structural   Ca2PbO4
_chemical_formula_sum   'Ca4 Pb2 O8'
_cell_volume   194.27563298
_cell_formula_units_Z   2
loop_
 _symmetry_equiv_pos_site_id
 _symmetry_equiv_pos_as_xyz
  1  'x, y, z'
loop_
 _atom_site_type_symbol
 _atom_site_label
 _atom_site_symmetry_multiplicity
 _atom_site_fract_x
 _atom_site_fract_y
 _atom_site_fract_z
 _atom_site_occupancy
  Ca  Ca0  1  0.50000000  0.42735853  0.81815432  1
  Ca  Ca1  1  0.50000000  0.57264147  0.18184568  1
  Ca  Ca2  1  0.50000000  0.92735853  0.68184568  1
  Ca  Ca3  1  0.50000000  0.07264147  0.31815432  1
  Pb  Pb0  1  0.00000000  0.50000000  0.50000000  1
  Pb  Pb1  1  -0.00000000  0.00000000  0.00000000  1
  O  O0  1  0.00000000  0.14029697  0.79924152  1
  O  O1  1  -0.00000000  0.85970303  0.20075848  1
  O  O2  1  0.00000000  0.64029697  0.70075848  1
  O  O3  1  -0.00000000  0.35970303  0.29924152  1
  O  O4  1  0.50000000  0.26068974  0.54823361  1
  O  O5  1  0.50000000  0.73931026  0.45176639  1
  O  O6  1  0.50000000  0.23931026  0.04823361  1
  O  O7  1  0.50000000  0.76068974  0.95176639  1
loop_
_geom_bond_atom_site_label_1
_geom_bond_atom_site_label_2
_geom_bond_distance
_geom_bond_site_symmetry_2
Ca0 O7 2.346983 1_555
Ca0 O0 2.396340 1_555
Ca0 O0 2.396340 1_655
Ca0 O2 2.398966 1_555
Ca0 O2 2.398966 1_655
Ca0 O6 2.502827 1_556
Ca0 O4 2.811791 1_555
Ca1 O6 2.346983 1_555
Ca1 O1 2.396340 1_655
Ca1 O1 2.396340 1_555
Ca1 O3 2.398966 1_555
Ca1 O3 2.398966 1_655
Ca1 O7 2.502827 1_554
Ca1 O5 2.811791 1_555
Ca2 O4 2.346983 1_565
Ca2 O2 2.396340 1_555
Ca2 O2 2.396340 1_655
Ca2 O0 2.398966 1_565
Ca2 O0 2.398966 1_665
Ca2 O5 2.502827 1_555
Ca2 O7 2.811791 1_555
Ca3 O5 2.346983 1_545
Ca3 O3 2.396340 1_555
Ca3 O3 2.396340 1_655
Ca3 O1 2.398966 1_545
Ca3 O1 2.398966 1_645
Ca3 O4 2.502827 1_555
Ca3 O6 2.811791 1_555
O0 Pb1 2.126360 1_556
O1 Pb1 2.126360 1_565
O2 Pb0 2.126360 1_555
O3 Pb0 2.126360 1_555
O4 Pb0 2.251628 1_555
O4 Pb0 2.251628 1_655
O5 Pb0 2.251628 1_655
O5 Pb0 2.251628 1_555
O6 Pb1 2.251628 1_555
O6 Pb1 2.251628 1_655
O7 Pb1 2.251628 1_566
O7 Pb1 2.251628 1_666
