# generated using pymatgen
data_Na14Ca4Sc4Si5S7O48
_symmetry_space_group_name_H-M   'P 1'
_cell_length_a   18.74345254
_cell_length_b   9.33663173
_cell_length_c   22.63535676
_cell_angle_alpha   89.94243444
_cell_angle_beta   89.96999845
_cell_angle_gamma   119.98278155
_symmetry_Int_Tables_number   1
_chemical_formula_structural   Na14Ca4Sc4Si5S7O48
_chemical_formula_sum   'Na42 Ca12 Sc12 Si15 S21 O144'
_cell_volume   3431.09385346
_cell_formula_units_Z   3
loop_
 _symmetry_equiv_pos_site_id
 _symmetry_equiv_pos_as_xyz
  1  'x, y, z'
loop_
 _atom_site_type_symbol
 _atom_site_label
 _atom_site_symmetry_multiplicity
 _atom_site_fract_x
 _atom_site_fract_y
 _atom_site_fract_z
 _atom_site_occupancy
  Na  Na0  1  0.80773773  0.99409828  0.24521954  1
  Na  Na1  1  0.18298838  0.34564301  0.25283002  1
  Na  Na2  1  0.67910068  0.34648349  0.24987535  1
  Na  Na3  1  0.00783073  0.65487325  0.24371220  1
  Na  Na4  1  0.50677626  0.65086727  0.23195363  1
  Na  Na5  1  0.32105997  0.62032214  0.75130632  1
  Na  Na6  1  0.00534735  0.36087088  0.73234901  1
  Na  Na7  1  0.50738638  0.37541293  0.74389937  1
  Na  Na8  1  0.18413238  0.01936814  0.74957540  1
  Na  Na9  1  0.66922382  0.00182767  0.75190818  1
  Na  Na10  1  0.14811661  0.31714640  0.58475517  1
  Na  Na11  1  0.65517890  0.31637492  0.58533990  1
  Na  Na12  1  0.32167743  0.97393521  0.59427987  1
  Na  Na13  1  0.83443716  0.99589709  0.58915257  1
  Na  Na14  1  0.16080561  0.00098176  0.07133428  1
  Na  Na15  1  0.64690881  0.97670160  0.07583645  1
  Na  Na16  1  0.33747788  0.67585569  0.08281937  1
  Na  Na17  1  0.81930137  0.66965163  0.08466533  1
  Na  Na18  1  0.48461621  0.67740334  0.91744782  1
  Na  Na19  1  0.98976835  0.67809277  0.91447087  1
  Na  Na20  1  0.34141164  0.03628284  0.91050619  1
  Na  Na21  1  0.83879551  0.02097313  0.91087315  1
  Na  Na22  1  0.17005457  0.28015433  0.91426720  1
  Na  Na23  1  0.66588585  0.27470407  0.91489373  1
  Na  Na24  1  0.49154564  0.30340911  0.42099495  1
  Na  Na25  1  0.98893961  0.29790398  0.43511559  1
  Na  Na26  1  0.16653746  0.06038740  0.42231447  1
  Na  Na27  1  0.66716671  0.05491006  0.42156022  1
  Na  Na28  1  0.34436884  0.65899410  0.41877611  1
  Na  Na29  1  0.83855129  0.64927919  0.41850661  1
  Na  Na30  1  0.01504046  0.01968917  0.50886221  1
  Na  Na31  1  0.51914632  0.00552997  0.50683368  1
  Na  Na32  1  0.01636109  0.03473084  0.00211716  1
  Na  Na33  1  0.51535218  0.00971508  0.00406795  1
  Na  Na34  1  0.32932913  0.33705758  0.82621110  1
  Na  Na35  1  0.80919154  0.32528586  0.82665272  1
  Na  Na36  1  0.31504857  0.29716773  0.32861655  1
  Na  Na37  1  0.80849363  0.31027011  0.33496882  1
  Na  Na38  1  0.17280325  0.67307210  0.16484919  1
  Na  Na39  1  0.65096226  0.64116444  0.16112557  1
  Na  Na40  1  0.15316227  0.65814478  0.66372043  1
  Na  Na41  1  0.66208705  0.67083162  0.67009442  1
  Ca  Ca0  1  0.01087409  0.01524663  0.34998954  1
  Ca  Ca1  1  0.50768983  0.01248624  0.34888549  1
  Ca  Ca2  1  0.00654501  0.00182569  0.84798085  1
  Ca  Ca3  1  0.50975985  0.99737852  0.84659783  1
  Ca  Ca4  1  0.33237547  0.33344548  0.67863414  1
  Ca  Ca5  1  0.82740290  0.33101034  0.17676681  1
  Ca  Ca6  1  0.33190409  0.33393238  0.98890790  1
  Ca  Ca7  1  0.82567369  0.31922864  0.98617438  1
  Ca  Ca8  1  0.32541391  0.33211215  0.48755250  1
  Ca  Ca9  1  0.83124875  0.32970673  0.49120625  1
  Ca  Ca10  1  0.66327801  0.66004940  0.31495961  1
  Ca  Ca11  1  0.16454543  0.66524640  0.81404168  1
  Sc  Sc0  1  0.00755590  0.00783725  0.64990155  1
  Sc  Sc1  1  0.51269174  0.99867157  0.65653291  1
  Sc  Sc2  1  0.01213226  0.01021878  0.15155380  1
  Sc  Sc3  1  0.50865156  0.00836677  0.14901001  1
  Sc  Sc4  1  0.82892219  0.32214998  0.67745029  1
  Sc  Sc5  1  0.33017855  0.33453910  0.17756901  1
  Sc  Sc6  1  0.16576516  0.66599602  0.01748617  1
  Sc  Sc7  1  0.65360214  0.66199046  0.02193166  1
  Sc  Sc8  1  0.15489407  0.64644695  0.52379088  1
  Sc  Sc9  1  0.66562837  0.66419433  0.51812403  1
  Sc  Sc10  1  0.17119614  0.67286192  0.31428021  1
  Sc  Sc11  1  0.66605385  0.67031966  0.81134852  1
  Si  Si0  1  0.15709891  0.00049476  0.24981935  1
  Si  Si1  1  0.65324143  0.00055266  0.25190891  1
  Si  Si2  1  0.15172864  0.30698870  0.75154473  1
  Si  Si3  1  0.65811197  0.31179744  0.74972225  1
  Si  Si4  1  0.49911875  0.69104361  0.75680057  1
  Si  Si5  1  0.98375070  0.32425350  0.58458397  1
  Si  Si6  1  0.17654723  0.01677727  0.58205137  1
  Si  Si7  1  0.67875945  0.01897255  0.58106704  1
  Si  Si8  1  0.48318340  0.64166340  0.08453836  1
  Si  Si9  1  0.17994695  0.33980710  0.08363477  1
  Si  Si10  1  0.67610727  0.33812485  0.08386945  1
  Si  Si11  1  0.16751102  0.96625808  0.91708759  1
  Si  Si12  1  0.66891700  0.96071860  0.91739057  1
  Si  Si13  1  0.16807823  0.37900344  0.41557178  1
  Si  Si14  1  0.66792175  0.36849840  0.41601915  1
  S  S0  1  0.34759454  0.69373794  0.25123553  1
  S  S1  1  0.85567033  0.70801976  0.24926314  1
  S  S2  1  0.00195554  0.30404837  0.25040168  1
  S  S3  1  0.49271586  0.29611136  0.24977246  1
  S  S4  1  0.99324663  0.68959010  0.74934379  1
  S  S5  1  0.35351256  0.99890036  0.74859192  1
  S  S6  1  0.84926478  0.00437236  0.75046489  1
  S  S7  1  0.48919896  0.32852473  0.58024884  1
  S  S8  1  0.33604790  0.65616146  0.58166676  1
  S  S9  1  0.83146728  0.63716417  0.58167778  1
  S  S10  1  0.98975953  0.64865778  0.08418196  1
  S  S11  1  0.33141867  0.02608442  0.08297276  1
  S  S12  1  0.83721158  0.01805192  0.08425219  1
  S  S13  1  0.31518190  0.67203120  0.91895124  1
  S  S14  1  0.81192163  0.66822025  0.91849981  1
  S  S15  1  0.01716451  0.37102657  0.91874607  1
  S  S16  1  0.52030113  0.37540175  0.91408610  1
  S  S17  1  0.31172599  0.95680737  0.41745689  1
  S  S18  1  0.81594882  0.96233500  0.41672703  1
  S  S19  1  0.02075828  0.66286083  0.41299138  1
  S  S20  1  0.51644917  0.66257635  0.41789760  1
  O  O0  1  0.12267476  0.04046063  0.31027830  1
  O  O1  1  0.61591003  0.01715029  0.31488063  1
  O  O2  1  0.39156217  0.77208041  0.30605356  1
  O  O3  1  0.89842088  0.79162457  0.30429636  1
  O  O4  1  0.48599901  0.22003420  0.30841129  1
  O  O5  1  0.98727799  0.21456399  0.30706425  1
  O  O6  1  0.11305117  0.21707955  0.81465864  1
  O  O7  1  0.62607768  0.20293734  0.81061420  1
  O  O8  1  0.47767412  0.74792978  0.81886409  1
  O  O9  1  0.98578013  0.75095112  0.80821956  1
  O  O10  1  0.39692765  0.00632152  0.80423712  1
  O  O11  1  0.89374545  0.01658553  0.80582886  1
  O  O12  1  0.40038111  0.99378648  0.69603997  1
  O  O13  1  0.89292099  0.98970916  0.69822482  1
  O  O14  1  0.08953306  0.18761630  0.69798700  1
  O  O15  1  0.59276916  0.21148112  0.69447019  1
  O  O16  1  0.99409777  0.80102994  0.70244799  1
  O  O17  1  0.51229064  0.83092293  0.70645790  1
  O  O18  1  0.39053681  0.79431113  0.19832971  1
  O  O19  1  0.90084659  0.81055183  0.19680148  1
  O  O20  1  0.00897869  0.20370425  0.20216407  1
  O  O21  1  0.49402291  0.18821607  0.20244645  1
  O  O22  1  0.08986134  0.97034444  0.19589875  1
  O  O23  1  0.59186550  0.99766419  0.19840419  1
  O  O24  1  0.45054136  0.34829877  0.63408374  1
  O  O25  1  0.93369992  0.34344324  0.64071671  1
  O  O26  1  0.24020566  0.09811781  0.63740790  1
  O  O27  1  0.74508626  0.12344682  0.63469282  1
  O  O28  1  0.32601055  0.55012835  0.63305567  1
  O  O29  1  0.81957605  0.51361325  0.62739878  1
  O  O30  1  0.43455292  0.52386885  0.14221413  1
  O  O31  1  0.95296030  0.55588841  0.13903552  1
  O  O32  1  0.31984501  0.12449904  0.12933686  1
  O  O33  1  0.82932767  0.10176762  0.13732435  1
  O  O34  1  0.24367640  0.36620075  0.13893997  1
  O  O35  1  0.73549878  0.38278370  0.14216642  1
  O  O36  1  0.21111381  0.28938704  0.02437096  1
  O  O37  1  0.71653560  0.29253582  0.02799284  1
  O  O38  1  0.43189810  0.57048932  0.02402028  1
  O  O39  1  0.93986230  0.56264811  0.03174068  1
  O  O40  1  0.34569575  0.10805075  0.02525271  1
  O  O41  1  0.85102906  0.11916474  0.03059871  1
  O  O42  1  0.21140053  0.13490078  0.52305596  1
  O  O43  1  0.71120646  0.12432941  0.52020541  1
  O  O44  1  0.34917085  0.58614791  0.52672707  1
  O  O45  1  0.84686293  0.58646216  0.52363823  1
  O  O46  1  0.44166721  0.31879591  0.52661825  1
  O  O47  1  0.93500572  0.30015890  0.52305272  1
  O  O48  1  0.26611730  0.66833839  0.97210413  1
  O  O49  1  0.77108098  0.67323059  0.97409772  1
  O  O50  1  0.07441819  0.46378156  0.96845464  1
  O  O51  1  0.57134773  0.46514574  0.96611738  1
  O  O52  1  0.16536306  0.84952530  0.97483274  1
  O  O53  1  0.66942396  0.86005281  0.97724713  1
  O  O54  1  0.26989511  0.86660568  0.47187390  1
  O  O55  1  0.76781652  0.86420060  0.46926844  1
  O  O56  1  0.16647426  0.48336948  0.47317000  1
  O  O57  1  0.66677654  0.48804401  0.47067705  1
  O  O58  1  0.07243811  0.67586503  0.46460207  1
  O  O59  1  0.57369211  0.68321048  0.46722991  1
  O  O60  1  0.06377233  0.66027739  0.35731783  1
  O  O61  1  0.55217414  0.65240785  0.36107209  1
  O  O62  1  0.25889658  0.87147219  0.36475608  1
  O  O63  1  0.77029393  0.88420682  0.36156682  1
  O  O64  1  0.17007380  0.48552116  0.35573797  1
  O  O65  1  0.67240087  0.45603169  0.35249734  1
  O  O66  1  0.05341877  0.45361763  0.86215686  1
  O  O67  1  0.56313552  0.46545612  0.85911879  1
  O  O68  1  0.17064802  0.87928445  0.85570079  1
  O  O69  1  0.67371553  0.85673716  0.86007532  1
  O  O70  1  0.26879085  0.65785220  0.86435363  1
  O  O71  1  0.75941481  0.64888117  0.86676841  1
  O  O72  1  0.00924289  0.80944892  0.41367367  1
  O  O73  1  0.50216369  0.80610491  0.41995888  1
  O  O74  1  0.39216416  0.96252136  0.41267619  1
  O  O75  1  0.89637976  0.96540402  0.41797197  1
  O  O76  1  0.08380330  0.19618766  0.42040105  1
  O  O77  1  0.58170391  0.18821173  0.42403335  1
  O  O78  1  0.00212905  0.19841179  0.92059373  1
  O  O79  1  0.50838892  0.20551538  0.91443694  1
  O  O80  1  0.08132753  0.97455582  0.92384683  1
  O  O81  1  0.58546756  0.97674726  0.92185262  1
  O  O82  1  0.39416638  0.83168512  0.92125452  1
  O  O83  1  0.89297481  0.82524947  0.91462645  1
  O  O84  1  0.49377351  0.17335258  0.58348346  1
  O  O85  1  0.98902424  0.15209371  0.59185180  1
  O  O86  1  0.08491583  0.99750254  0.59271692  1
  O  O87  1  0.58863537  0.00586427  0.59278348  1
  O  O88  1  0.40573451  0.82828502  0.58937157  1
  O  O89  1  0.89922546  0.80619223  0.59546130  1
  O  O90  1  0.48981862  0.82548857  0.09329389  1
  O  O91  1  0.99433347  0.81492165  0.08649912  1
  O  O92  1  0.39918875  0.99240351  0.09650984  1
  O  O93  1  0.90670784  0.98366666  0.09063879  1
  O  O94  1  0.08777738  0.17475397  0.09561773  1
  O  O95  1  0.58392545  0.17301649  0.09152612  1
  O  O96  1  0.34513470  0.14866858  0.74663111  1
  O  O97  1  0.84365318  0.15932287  0.74630166  1
  O  O98  1  0.24332107  0.32495429  0.74696900  1
  O  O99  1  0.74783946  0.32323228  0.73660430  1
  O  O100  1  0.42502606  0.50496265  0.74328224  1
  O  O101  1  0.92415218  0.51781350  0.74238370  1
  O  O102  1  0.34072281  0.52603107  0.24782619  1
  O  O103  1  0.85261145  0.54564491  0.24744760  1
  O  O104  1  0.42310004  0.32849361  0.24339295  1
  O  O105  1  0.93326619  0.33605708  0.24027533  1
  O  O106  1  0.24694762  0.16744662  0.23799355  1
  O  O107  1  0.74677718  0.16416862  0.24772814  1
  O  O108  1  0.32874222  0.52884099  0.92032556  1
  O  O109  1  0.82797379  0.52621225  0.91857826  1
  O  O110  1  0.43848510  0.36451220  0.91610539  1
  O  O111  1  0.93781013  0.36814850  0.92574264  1
  O  O112  1  0.25183717  0.14927665  0.91821060  1
  O  O113  1  0.75306795  0.14510169  0.91301688  1
  O  O114  1  0.32635209  0.12946990  0.41728330  1
  O  O115  1  0.82955996  0.13268484  0.41848106  1
  O  O116  1  0.25214077  0.36400288  0.41207078  1
  O  O117  1  0.75215481  0.35447098  0.41892266  1
  O  O118  1  0.43622510  0.50728092  0.42452539  1
  O  O119  1  0.93945373  0.51009026  0.41469315  1
  O  O120  1  0.17693778  0.51339481  0.07997102  1
  O  O121  1  0.67069920  0.50714995  0.07407077  1
  O  O122  1  0.07579073  0.67860530  0.07960930  1
  O  O123  1  0.57883233  0.67731754  0.08281964  1
  O  O124  1  0.25244685  0.86010450  0.08226268  1
  O  O125  1  0.75941268  0.85395635  0.08003416  1
  O  O126  1  0.17007769  0.83558697  0.57322833  1
  O  O127  1  0.67590460  0.83873311  0.57831424  1
  O  O128  1  0.25855110  0.66583866  0.57794220  1
  O  O129  1  0.75253468  0.64444002  0.58063484  1
  O  O130  1  0.08020070  0.47909328  0.58370372  1
  O  O131  1  0.57554903  0.47289162  0.57689766  1
  O  O132  1  0.15775241  0.82270109  0.25226858  1
  O  O133  1  0.65846976  0.83025494  0.24402075  1
  O  O134  1  0.26128224  0.66651059  0.25164134  1
  O  O135  1  0.77095715  0.68538371  0.24725963  1
  O  O136  1  0.08116927  0.46758201  0.25078189  1
  O  O137  1  0.57183039  0.45930406  0.24501433  1
  O  O138  1  0.15692566  0.48686229  0.74306367  1
  O  O139  1  0.66179088  0.49145815  0.75375598  1
  O  O140  1  0.07275320  0.68752068  0.74487145  1
  O  O141  1  0.58771063  0.68817552  0.75497902  1
  O  O142  1  0.27076078  0.84668738  0.74644444  1
  O  O143  1  0.76385909  0.85967817  0.75130926  1
loop_
_geom_bond_atom_site_label_1
_geom_bond_atom_site_label_2
_geom_bond_distance
_geom_bond_site_symmetry_2
Na0 O107 2.375640 1_565
Na0 O133 2.427138 1_555
Na0 O33 2.593517 1_565
Na0 O135 2.607492 1_555
Na0 O63 2.784572 1_555
Na0 O105 2.869301 1_565
Na1 O106 2.512413 1_555
Na1 O102 2.571522 1_555
Na1 O134 2.595178 1_555
Na1 O136 2.666851 1_555
Na1 O64 2.740731 1_555
Na1 O34 2.784646 1_555
Na1 O0 2.803461 1_555
Na2 O65 2.567207 1_555
Na2 O107 2.582083 1_555
Na2 O35 2.610338 1_555
Na2 O137 2.698345 1_555
Na2 O135 2.744888 1_555
Na2 O103 2.827156 1_555
Na3 O132 2.447343 1_555
Na3 O103 2.558432 1_455
Na3 O31 2.565704 1_455
Na3 O105 2.581172 1_455
Na3 O136 2.715731 1_555
Na3 O60 2.768541 1_555
Na3 O22 2.770638 1_555
Na4 O30 2.401675 1_555
Na4 O133 2.491194 1_555
Na4 O104 2.620322 1_555
Na4 O137 2.636693 1_555
Na4 O102 2.747165 1_555
Na4 O23 2.904621 1_555
Na4 O61 3.042459 1_555
Na5 O98 2.392153 1_555
Na5 O100 2.662373 1_555
Na5 O138 2.687305 1_555
Na5 O142 2.712737 1_555
Na5 O28 2.768863 1_555
Na5 O70 2.823595 1_555
Na6 O25 2.432513 1_455
Na6 O138 2.485033 1_555
Na6 O101 2.596927 1_455
Na6 O97 2.669021 1_455
Na6 O140 2.669988 1_555
Na6 O14 2.874701 1_555
Na7 O100 2.390088 1_555
Na7 O141 2.542553 1_555
Na7 O139 2.542931 1_555
Na7 O24 2.666937 1_555
Na7 O96 2.701656 1_555
Na7 O67 2.780240 1_555
Na7 O15 2.933498 1_555
Na8 O98 2.492117 1_555
Na8 O96 2.631922 1_555
Na8 O68 2.684709 1_545
Na8 O26 2.704180 1_555
Na8 O140 2.739583 1_545
Na8 O142 2.803112 1_545
Na9 O141 2.538222 1_545
Na9 O99 2.621863 1_555
Na9 O143 2.694612 1_545
Na9 O7 2.732601 1_555
Na9 O17 2.751745 1_545
Na9 O69 2.818580 1_545
Na9 O97 2.839286 1_555
Na9 O27 2.954152 1_555
Na10 O130 2.414757 1_555
Na10 O85 2.588181 1_455
Na10 O86 2.609138 1_545
Na10 O14 2.810882 1_555
Na10 O128 2.858438 1_555
Na10 O42 2.876289 1_555
Na10 O56 2.892055 1_555
Na11 O87 2.524616 1_555
Na11 O131 2.565035 1_555
Na11 O84 2.626757 1_555
Na11 O129 2.671326 1_555
Na11 O15 2.697498 1_555
Na11 O29 2.850883 1_555
Na11 O43 2.894348 1_555
Na11 O57 2.999225 1_555
Na12 O126 2.510753 1_555
Na12 O26 2.529739 1_565
Na12 O128 2.532242 1_555
Na12 O88 2.546647 1_555
Na12 O12 2.692060 1_555
Na12 O84 2.815469 1_565
Na12 O54 2.942669 1_555
Na13 O85 2.510578 1_565
Na13 O127 2.585808 1_555
Na13 O89 2.604159 1_555
Na13 O27 2.698076 1_565
Na13 O13 2.714080 1_555
Na13 O129 2.851024 1_555
Na13 O47 2.915181 1_565
Na13 O55 2.985055 1_555
Na14 O36 2.593340 1_555
Na14 O122 2.615080 1_545
Na14 O52 2.627750 1_544
Na14 O124 2.645668 1_545
Na14 O94 2.651177 1_555
Na14 O91 2.729781 1_445
Na14 O32 2.917349 1_555
Na15 O123 2.429106 1_555
Na15 O90 2.581045 1_555
Na15 O53 2.609134 1_554
Na15 O95 2.653849 1_565
Na15 O37 2.777999 1_565
Na15 O125 2.860846 1_555
Na15 O23 2.999954 1_555
Na16 O90 2.485065 1_555
Na16 O92 2.598905 1_555
Na16 O120 2.607295 1_555
Na16 O38 2.758902 1_555
Na16 O18 2.820932 1_555
Na16 O34 2.823707 1_555
Na16 O48 2.825671 1_554
Na16 O124 2.870513 1_555
Na17 O121 2.427993 1_555
Na17 O125 2.482442 1_555
Na17 O93 2.549177 1_555
Na17 O49 2.667224 1_554
Na17 O35 2.668521 1_555
Na17 O91 2.856087 1_555
Na17 O19 2.917282 1_555
Na18 O8 2.347979 1_555
Na18 O81 2.472816 1_555
Na18 O108 2.532448 1_555
Na18 O110 2.599691 1_555
Na18 O38 2.607462 1_556
Na18 O82 2.719832 1_555
Na19 O80 2.430150 1_655
Na19 O9 2.510031 1_555
Na19 O111 2.563065 1_555
Na19 O109 2.630099 1_555
Na19 O83 2.769587 1_555
Na19 O39 2.840209 1_556
Na20 O112 2.394286 1_555
Na20 O82 2.563826 1_545
Na20 O110 2.673221 1_555
Na20 O40 2.674228 1_556
Na20 O10 2.690134 1_555
Na20 O79 2.712509 1_555
Na21 O113 2.405970 1_555
Na21 O83 2.496480 1_545
Na21 O11 2.599194 1_555
Na21 O78 2.664140 1_655
Na21 O41 2.834231 1_556
Na21 O111 2.838098 1_555
Na21 O69 2.917608 1_545
Na22 O112 2.392272 1_555
Na22 O6 2.438902 1_555
Na22 O80 2.491904 1_545
Na22 O36 2.597515 1_556
Na22 O108 2.712068 1_555
Na22 O78 2.847481 1_555
Na23 O81 2.417371 1_545
Na23 O7 2.466281 1_555
Na23 O113 2.472372 1_555
Na23 O79 2.688119 1_555
Na23 O37 2.707067 1_556
Na23 O109 2.760684 1_555
Na24 O77 2.415330 1_555
Na24 O118 2.584118 1_555
Na24 O46 2.596782 1_555
Na24 O4 2.652235 1_555
Na24 O114 2.684450 1_555
Na24 O74 2.776896 1_545
Na25 O47 2.236888 1_555
Na25 O76 2.421185 1_655
Na25 O119 2.614191 1_555
Na25 O115 2.615721 1_555
Na25 O75 2.723600 1_545
Na26 O42 2.410694 1_555
Na26 O76 2.445273 1_555
Na26 O116 2.473111 1_555
Na26 O0 2.644233 1_555
Na26 O72 2.705049 1_545
Na26 O114 2.733186 1_555
Na27 O43 2.357387 1_555
Na27 O117 2.431097 1_555
Na27 O77 2.472001 1_555
Na27 O1 2.558090 1_555
Na27 O115 2.754540 1_555
Na27 O73 2.789664 1_545
Na28 O116 2.416514 1_555
Na28 O74 2.512840 1_555
Na28 O44 2.549411 1_555
Na28 O73 2.564120 1_555
Na28 O118 2.724888 1_555
Na28 O2 2.732442 1_555
Na29 O117 2.396602 1_555
Na29 O45 2.473882 1_555
Na29 O75 2.586306 1_555
Na29 O72 2.775159 1_655
Na29 O119 2.780240 1_555
Na29 O3 2.864999 1_555
Na30 O86 2.373590 1_545
Na30 O85 2.429193 1_455
Na30 O76 2.500799 1_555
Na30 O89 2.861976 1_445
Na30 O72 2.881474 1_545
Na30 O75 2.883814 1_445
Na31 O87 2.340943 1_555
Na31 O77 2.406057 1_555
Na31 O84 2.537900 1_555
Na31 O73 2.617392 1_545
Na31 O88 2.687271 1_545
Na32 O80 2.370823 1_544
Na32 O78 2.492814 1_554
Na32 O94 2.497927 1_555
Na32 O91 2.678596 1_445
Na32 O93 2.735098 1_445
Na32 O83 2.930435 1_444
Na33 O81 2.384953 1_544
Na33 O95 2.438388 1_555
Na33 O90 2.536909 1_545
Na33 O82 2.770062 1_544
Na33 O79 2.776056 1_554
Na33 O92 2.964449 1_545
Na34 O98 2.377019 1_555
Na34 O100 2.525593 1_555
Na34 O96 2.636842 1_555
Na34 O112 2.639010 1_555
Na34 O108 2.787827 1_555
Na34 O110 2.805933 1_555
Na35 O99 2.336199 1_555
Na35 O113 2.445567 1_555
Na35 O97 2.670399 1_555
Na35 O109 2.705798 1_555
Na35 O101 2.762268 1_555
Na36 O106 2.401364 1_555
Na36 O116 2.466478 1_555
Na36 O114 2.617280 1_555
Na36 O102 2.665564 1_555
Na36 O104 2.703932 1_555
Na37 O117 2.309045 1_555
Na37 O107 2.351404 1_555
Na37 O115 2.669684 1_555
Na37 O103 2.758834 1_555
Na37 O119 2.862996 1_555
Na38 O120 2.457824 1_555
Na38 O124 2.481427 1_555
Na38 O132 2.519063 1_555
Na38 O134 2.591969 1_555
Na38 O136 2.666432 1_555
Na38 O122 2.670046 1_555
Na39 O123 2.353904 1_555
Na39 O121 2.460129 1_555
Na39 O137 2.482352 1_555
Na39 O133 2.532991 1_555
Na39 O125 2.720426 1_555
Na39 O135 2.847515 1_555
Na40 O130 2.380978 1_555
Na40 O138 2.427964 1_555
Na40 O140 2.476309 1_555
Na40 O126 2.551146 1_555
Na40 O128 2.744256 1_555
Na40 O142 2.756148 1_555
Na41 O141 2.425873 1_555
Na41 O139 2.524927 1_555
Na41 O127 2.535265 1_555
Na41 O143 2.603001 1_555
Na41 O129 2.729489 1_555
Na41 O131 2.740784 1_555
Ca0 O0 2.181557 1_555
Ca0 O76 2.227625 1_555
Ca0 O5 2.328572 1_455
Ca0 O3 2.340896 1_445
Ca0 O72 2.388842 1_545
Ca0 O75 2.487334 1_445
Ca1 O1 2.149152 1_555
Ca1 O77 2.289751 1_555
Ca1 O4 2.354555 1_555
Ca1 O2 2.416471 1_545
Ca1 O74 2.444799 1_545
Ca1 O73 2.471023 1_545
Ca2 O6 2.139766 1_555
Ca2 O80 2.310159 1_545
Ca2 O9 2.354020 1_445
Ca2 O11 2.385889 1_455
Ca2 O83 2.451342 1_445
Ca2 O78 2.496994 1_555
Ca3 O8 2.187112 1_555
Ca3 O7 2.216527 1_565
Ca3 O81 2.286360 1_555
Ca3 O10 2.361668 1_565
Ca3 O79 2.488148 1_565
Ca3 O82 2.565943 1_555
Ca4 O26 2.212439 1_555
Ca4 O100 2.224726 1_555
Ca4 O98 2.247175 1_555
Ca4 O28 2.325652 1_555
Ca4 O24 2.373188 1_555
Ca4 O96 2.410362 1_555
Ca5 O35 2.155762 1_555
Ca5 O107 2.220332 1_555
Ca5 O33 2.336768 1_555
Ca5 O31 2.394128 1_555
Ca5 O103 2.420665 1_555
Ca5 O105 2.432208 1_555
Ca6 O38 2.211395 1_556
Ca6 O36 2.235945 1_556
Ca6 O112 2.281987 1_555
Ca6 O40 2.394373 1_556
Ca6 O108 2.413972 1_555
Ca6 O110 2.492680 1_555
Ca7 O37 2.151894 1_556
Ca7 O113 2.243592 1_555
Ca7 O111 2.352371 1_555
Ca7 O41 2.368573 1_556
Ca7 O39 2.440322 1_556
Ca7 O109 2.447108 1_555
Ca8 O42 2.159953 1_555
Ca8 O116 2.303080 1_555
Ca8 O44 2.357802 1_555
Ca8 O118 2.370882 1_555
Ca8 O46 2.412041 1_555
Ca8 O114 2.479745 1_555
Ca9 O43 2.203189 1_555
Ca9 O47 2.217015 1_555
Ca9 O117 2.296227 1_555
Ca9 O45 2.381980 1_555
Ca9 O115 2.458175 1_555
Ca9 O119 2.554557 1_555
Ca10 O65 2.168421 1_555
Ca10 O133 2.291295 1_555
Ca10 O61 2.297892 1_555
Ca10 O63 2.308108 1_555
Ca10 O137 2.399041 1_555
Ca10 O135 2.448790 1_555
Ca11 O68 2.161317 1_555
Ca11 O138 2.267904 1_555
Ca11 O70 2.292704 1_555
Ca11 O66 2.304048 1_555
Ca11 O142 2.407321 1_555
Ca11 O140 2.411341 1_555
O0 Si0 1.633743 1_555
O1 Si1 1.628842 1_555
O2 S0 1.467732 1_555
O3 S1 1.476818 1_555
O4 S3 1.480097 1_555
O5 S2 1.478672 1_655
O6 Si2 1.630768 1_555
O7 Si3 1.636969 1_555
O8 Si4 1.622185 1_555
O9 S4 1.485025 1_555
O10 S5 1.482682 1_545
O11 S6 1.478149 1_555
O12 S5 1.493296 1_555
O12 Sc1 2.266089 1_555
O13 S6 1.482507 1_565
O13 Sc0 2.339974 1_665
O14 Si2 1.666266 1_555
O14 Sc0 1.946980 1_555
O15 Si3 1.672968 1_555
O15 Sc1 1.990517 1_545
O16 S4 1.480135 1_555
O16 Sc0 2.171379 1_665
O17 Si4 1.655161 1_555
O17 Sc1 1.927378 1_555
O18 S0 1.484932 1_555
O18 Sc3 2.390071 1_565
O19 S1 1.493332 1_555
O19 Sc2 2.232172 1_665
O20 S2 1.487423 1_555
O20 Sc2 2.165667 1_555
O21 S3 1.479789 1_555
O21 Sc3 2.195855 1_555
O22 Si0 1.674777 1_565
O22 Sc2 1.952339 1_565
O23 Si1 1.661751 1_565
O23 Sc3 1.962173 1_565
O24 S7 1.475550 1_555
O25 Si5 1.641270 1_555
O25 Sc4 2.048290 1_555
O26 Si6 1.633485 1_555
O27 Si7 1.662031 1_555
O27 Sc4 1.984748 1_555
O28 S8 1.476425 1_555
O29 S9 1.480467 1_555
O29 Sc4 2.195210 1_555
O30 Si8 1.654897 1_555
O30 Sc5 2.032622 1_555
O31 S10 1.472224 1_555
O32 S11 1.481105 1_555
O32 Sc5 2.167973 1_555
O33 S12 1.480896 1_555
O34 Si9 1.662136 1_555
O34 Sc5 1.990154 1_555
O35 Si10 1.641058 1_555
O36 Si9 1.624095 1_555
O37 Si10 1.636314 1_555
O38 Si8 1.614578 1_555
O39 S10 1.476828 1_555
O40 S11 1.468740 1_555
O41 S12 1.478592 1_555
O42 Si6 1.643888 1_555
O43 Si7 1.622902 1_555
O44 S8 1.481999 1_555
O45 S9 1.473323 1_555
O46 S7 1.481928 1_555
O47 Si5 1.619178 1_555
O48 S13 1.503837 1_555
O48 Sc6 2.133183 1_556
O49 S14 1.485543 1_555
O49 Sc7 2.407960 1_556
O50 S15 1.497319 1_555
O50 Sc6 2.122056 1_556
O51 S16 1.485430 1_555
O51 Sc7 2.127321 1_556
O52 Si11 1.688542 1_555
O52 Sc6 1.969271 1_556
O53 Si12 1.650918 1_555
O53 Sc7 1.994608 1_556
O54 S17 1.475854 1_555
O54 Sc8 2.411752 1_555
O55 S18 1.496108 1_555
O55 Sc9 2.190306 1_555
O56 Si13 1.637677 1_555
O56 Sc8 2.002965 1_555
O57 Si14 1.674401 1_555
O57 Sc9 1.974252 1_555
O58 S19 1.483818 1_555
O58 Sc8 2.164418 1_555
O59 S20 1.493420 1_555
O59 Sc9 2.153028 1_555
O60 S19 1.502367 1_555
O60 Sc10 2.185916 1_555
O61 S20 1.474704 1_555
O62 S17 1.500979 1_555
O62 Sc10 2.098984 1_555
O63 S18 1.484037 1_555
O64 Si13 1.668776 1_555
O64 Sc10 1.974949 1_555
O65 Si14 1.634407 1_555
O66 S15 1.473267 1_555
O67 S16 1.490550 1_555
O67 Sc11 2.203362 1_555
O68 Si11 1.625889 1_555
O69 Si12 1.650277 1_555
O69 Sc11 2.005169 1_555
O70 S13 1.478952 1_555
O71 S14 1.482005 1_555
O71 Sc11 2.242267 1_555
O72 S19 1.488384 1_555
O73 S20 1.492786 1_555
O74 S17 1.485634 1_555
O75 S18 1.493721 1_555
O76 Si13 1.650817 1_555
O77 Si14 1.660760 1_555
O78 S15 1.491461 1_555
O79 S16 1.487227 1_555
O80 Si11 1.662437 1_555
O81 Si12 1.647095 1_555
O82 S13 1.486943 1_555
O83 S14 1.496204 1_555
O84 S7 1.495207 1_555
O84 Sc1 2.468390 1_545
O85 Si5 1.666982 1_555
O85 Sc0 2.031195 1_655
O86 Si6 1.652572 1_565
O86 Sc0 1.981254 1_565
O87 Si7 1.652775 1_555
O87 Sc1 2.003757 1_545
O88 S8 1.490612 1_555
O88 Sc1 2.383554 1_555
O89 S9 1.482910 1_555
O89 Sc0 2.317841 1_665
O90 Si8 1.669678 1_555
O90 Sc3 2.008218 1_565
O91 S10 1.512292 1_555
O91 Sc2 2.236610 1_665
O92 S11 1.485180 1_565
O92 Sc3 2.311105 1_565
O93 S12 1.496265 1_565
O93 Sc2 2.319744 1_665
O94 Si9 1.664538 1_555
O94 Sc2 1.946935 1_555
O95 Si10 1.651899 1_555
O95 Sc3 1.968026 1_555
O96 S5 1.483680 1_545
O97 S6 1.504910 1_555
O97 Sc4 2.287245 1_555
O98 Si2 1.642585 1_555
O99 Si3 1.657703 1_555
O99 Sc4 2.028767 1_555
O100 Si4 1.621947 1_555
O101 S4 1.482902 1_555
O101 Sc4 2.330810 1_555
O102 S0 1.507650 1_555
O102 Sc5 2.327558 1_555
O103 S1 1.488821 1_555
O104 S3 1.486366 1_555
O104 Sc5 2.314595 1_555
O105 S2 1.477898 1_655
O106 Si0 1.646965 1_555
O106 Sc5 2.073455 1_555
O107 Si1 1.654982 1_555
O108 S13 1.480694 1_555
O109 S14 1.499061 1_555
O110 S16 1.485994 1_555
O111 S15 1.482527 1_655
O112 Si11 1.649076 1_545
O113 Si12 1.657355 1_545
O114 S17 1.494077 1_545
O115 S18 1.480174 1_545
O116 Si13 1.651948 1_555
O117 Si14 1.649515 1_555
O118 S20 1.485291 1_555
O119 S19 1.478390 1_655
O120 Si9 1.651637 1_555
O120 Sc6 2.090159 1_555
O121 Si10 1.645950 1_555
O121 Sc7 2.011358 1_555
O122 S10 1.496077 1_455
O122 Sc6 2.243109 1_555
O123 Si8 1.652223 1_555
O123 Sc7 2.020604 1_555
O124 S11 1.516647 1_565
O124 Sc6 2.266919 1_555
O125 S12 1.500105 1_565
O125 Sc7 2.308694 1_555
O126 Si6 1.646856 1_565
O126 Sc8 1.988400 1_555
O127 Si7 1.657973 1_565
O127 Sc9 2.059110 1_555
O128 S8 1.502159 1_555
O128 Sc8 2.227417 1_555
O129 S9 1.514756 1_555
O129 Sc9 2.234206 1_555
O130 Si5 1.657199 1_455
O130 Sc8 2.011961 1_555
O131 S7 1.503780 1_555
O131 Sc9 2.188502 1_555
O132 Si0 1.667016 1_565
O132 Sc10 2.083192 1_555
O133 Si1 1.651028 1_565
O134 S0 1.506946 1_555
O134 Sc10 2.227707 1_555
O135 S1 1.494182 1_555
O136 S2 1.506667 1_555
O136 Sc10 2.315661 1_555
O137 S3 1.507767 1_555
O138 Si2 1.643958 1_555
O139 Si3 1.646680 1_555
O139 Sc11 2.089432 1_555
O140 S4 1.503338 1_455
O141 Si4 1.674548 1_555
O141 Sc11 2.014523 1_555
O142 S5 1.491607 1_555
O143 S6 1.492124 1_565
O143 Sc11 2.255321 1_555
