# generated using pymatgen
data_Na5Sc2Zn2P3(SO8)3
_symmetry_space_group_name_H-M   'P 1'
_cell_length_a   8.95563514
_cell_length_b   8.96597709
_cell_length_c   22.42029787
_cell_angle_alpha   89.93976410
_cell_angle_beta   90.02833455
_cell_angle_gamma   119.93071799
_symmetry_Int_Tables_number   1
_chemical_formula_structural   Na5Sc2Zn2P3(SO8)3
_chemical_formula_sum   'Na15 Sc6 Zn6 P9 S9 O72'
_cell_volume   1560.15791274
_cell_formula_units_Z   3
loop_
 _symmetry_equiv_pos_site_id
 _symmetry_equiv_pos_as_xyz
  1  'x, y, z'
loop_
 _atom_site_type_symbol
 _atom_site_label
 _atom_site_symmetry_multiplicity
 _atom_site_fract_x
 _atom_site_fract_y
 _atom_site_fract_z
 _atom_site_occupancy
  Na  Na0  1  0.64090792  0.01443039  0.25224372  1
  Na  Na1  1  0.99920714  0.63125115  0.24313534  1
  Na  Na2  1  0.63311377  0.63076102  0.74383660  1
  Na  Na3  1  0.99563537  0.35530397  0.74591863  1
  Na  Na4  1  0.30643036  0.34590822  0.58525220  1
  Na  Na5  1  0.66630407  0.96428189  0.57779847  1
  Na  Na6  1  0.29933288  0.95869349  0.07958409  1
  Na  Na7  1  0.69435406  0.02693520  0.91115170  1
  Na  Na8  1  0.96453998  0.29067592  0.41309895  1
  Na  Na9  1  0.98502451  0.97112160  0.49471230  1
  Na  Na10  1  0.00674084  0.98902230  0.99531709  1
  Na  Na11  1  0.63405398  0.31205193  0.82916278  1
  Na  Na12  1  0.63859924  0.31880744  0.33047395  1
  Na  Na13  1  0.31821254  0.63714736  0.16153501  1
  Na  Na14  1  0.32571385  0.66997087  0.66251972  1
  Sc  Sc0  1  0.99690712  0.00153835  0.64946648  1
  Sc  Sc1  1  0.00504950  0.00484661  0.14934529  1
  Sc  Sc2  1  0.67167727  0.34488276  0.98247173  1
  Sc  Sc3  1  0.67087346  0.33655017  0.48280008  1
  Sc  Sc4  1  0.33724320  0.67248251  0.31587922  1
  Sc  Sc5  1  0.33804325  0.67769380  0.81611682  1
  Zn  Zn0  1  0.00299786  0.00600993  0.34613852  1
  Zn  Zn1  1  0.02408413  0.01009200  0.84821375  1
  Zn  Zn2  1  0.66239992  0.32835074  0.68085267  1
  Zn  Zn3  1  0.67091392  0.33478574  0.18119141  1
  Zn  Zn4  1  0.31159339  0.66291581  0.01459731  1
  Zn  Zn5  1  0.34013815  0.66872772  0.51437513  1
  P  P0  1  0.29754538  0.00527510  0.25042034  1
  P  P1  1  0.99966011  0.29705993  0.25204706  1
  P  P2  1  0.30076325  0.29818259  0.74949114  1
  P  P3  1  0.70610901  0.00306204  0.75282803  1
  P  P4  1  0.96683188  0.33972668  0.58463870  1
  P  P5  1  0.66713189  0.62838984  0.58530375  1
  P  P6  1  0.96367848  0.62950607  0.08649218  1
  P  P7  1  0.33098834  0.96546043  0.92030224  1
  P  P8  1  0.63428643  0.96373609  0.41814444  1
  S  S0  1  0.70579532  0.70500673  0.25077150  1
  S  S1  1  0.00010788  0.70655752  0.75136111  1
  S  S2  1  0.37060120  0.03664306  0.58344620  1
  S  S3  1  0.66719162  0.03516021  0.08310048  1
  S  S4  1  0.37481956  0.33897810  0.08384057  1
  S  S5  1  0.62655300  0.66757567  0.91747960  1
  S  S6  1  0.03725461  0.36908833  0.91674870  1
  S  S7  1  0.33377352  0.36998007  0.41795073  1
  S  S8  1  0.03983142  0.67019818  0.41703240  1
  O  O0  1  0.20786289  0.02302549  0.30541459  1
  O  O1  1  0.81142152  0.78343213  0.30448278  1
  O  O2  1  0.96715220  0.19099795  0.30974689  1
  O  O3  1  0.21575506  0.19005012  0.80449721  1
  O  O4  1  0.97347786  0.78554075  0.80464124  1
  O  O5  1  0.81453275  0.02476530  0.80899208  1
  O  O6  1  0.79236055  0.97276144  0.69677477  1
  O  O7  1  0.19021510  0.21530214  0.69212034  1
  O  O8  1  0.02456044  0.81068622  0.69721557  1
  O  O9  1  0.78801829  0.81548906  0.19759892  1
  O  O10  1  0.01868618  0.20087283  0.19802705  1
  O  O11  1  0.18535723  0.97137604  0.19316986  1
  O  O12  1  0.88361694  0.35742286  0.64206979  1
  O  O13  1  0.47664742  0.11326628  0.63729905  1
  O  O14  1  0.63804380  0.52266915  0.64269861  1
  O  O15  1  0.88355145  0.53188988  0.14486819  1
  O  O16  1  0.63992931  0.11469768  0.13724628  1
  O  O17  1  0.47449077  0.35753173  0.13831808  1
  O  O18  1  0.45814197  0.30872755  0.03094858  1
  O  O19  1  0.84881254  0.53314378  0.03219020  1
  O  O20  1  0.68637856  0.14132907  0.02919290  1
  O  O21  1  0.45355653  0.14748842  0.53050159  1
  O  O22  1  0.68287293  0.53190880  0.53086967  1
  O  O23  1  0.84957482  0.30767416  0.52915043  1
  O  O24  1  0.53729093  0.68801357  0.96903977  1
  O  O25  1  0.14254666  0.45169931  0.96948453  1
  O  O26  1  0.31330740  0.86770287  0.97879007  1
  O  O27  1  0.54877603  0.86235129  0.47551141  1
  O  O28  1  0.30825343  0.44601901  0.47335654  1
  O  O29  1  0.14351971  0.68687184  0.47002728  1
  O  O30  1  0.11920436  0.64230938  0.36219930  1
  O  O31  1  0.52439228  0.87384123  0.36165097  1
  O  O32  1  0.35129452  0.47893954  0.36575243  1
  O  O33  1  0.11686082  0.46879030  0.86131792  1
  O  O34  1  0.36088590  0.86997992  0.86714244  1
  O  O35  1  0.52578909  0.64432860  0.86129671  1
  O  O36  1  0.01639663  0.81986309  0.41109190  1
  O  O37  1  0.81832723  0.98875218  0.41328317  1
  O  O38  1  0.17751383  0.19752788  0.41259388  1
  O  O39  1  0.00734901  0.19089012  0.91326023  1
  O  O40  1  0.17126518  0.98445671  0.91251640  1
  O  O41  1  0.79820544  0.82507955  0.91258467  1
  O  O42  1  0.98175068  0.17095005  0.58766941  1
  O  O43  1  0.19943755  0.02546946  0.58842832  1
  O  O44  1  0.82927713  0.81163861  0.58805366  1
  O  O45  1  0.98601705  0.81478770  0.08771123  1
  O  O46  1  0.82520932  0.02183813  0.08754731  1
  O  O47  1  0.20149244  0.17591518  0.08720036  1
  O  O48  1  0.69123055  0.16587202  0.74540798  1
  O  O49  1  0.48656657  0.33179601  0.74409211  1
  O  O50  1  0.84655125  0.53155135  0.74618996  1
  O  O51  1  0.68473585  0.53193962  0.24430233  1
  O  O52  1  0.83826992  0.31912856  0.24560280  1
  O  O53  1  0.48205149  0.15895417  0.24357786  1
  O  O54  1  0.64637234  0.51245930  0.92163074  1
  O  O55  1  0.86179302  0.35294599  0.92121298  1
  O  O56  1  0.50275769  0.14418752  0.92275782  1
  O  O57  1  0.65425129  0.14844925  0.42070732  1
  O  O58  1  0.49090142  0.35477274  0.42107295  1
  O  O59  1  0.86730310  0.50704070  0.42079494  1
  O  O60  1  0.35271962  0.48888427  0.07617150  1
  O  O61  1  0.14774608  0.65351653  0.08110213  1
  O  O62  1  0.51253960  0.86220060  0.07800143  1
  O  O63  1  0.35090629  0.86385758  0.57674237  1
  O  O64  1  0.50628063  0.65246013  0.57974754  1
  O  O65  1  0.15044812  0.49397896  0.57708893  1
  O  O66  1  0.31454974  0.83759367  0.25539068  1
  O  O67  1  0.53366891  0.69351189  0.25537211  1
  O  O68  1  0.16158609  0.48005328  0.25584769  1
  O  O69  1  0.30938282  0.47870059  0.75426433  1
  O  O70  1  0.15434513  0.68342873  0.75595875  1
  O  O71  1  0.52611514  0.83525968  0.75616305  1
loop_
_geom_bond_atom_site_label_1
_geom_bond_atom_site_label_2
_geom_bond_distance
_geom_bond_site_symmetry_2
Na0 O53 2.362121 1_555
Na0 O52 2.406336 1_555
Na0 O66 2.537104 1_545
Na0 O67 2.539380 1_545
Na0 O31 2.716273 1_545
Na0 O16 2.731070 1_555
Na0 O2 2.844238 1_555
Na0 O9 2.961343 1_545
Na1 O15 2.408637 1_555
Na1 O52 2.426246 1_555
Na1 O68 2.449433 1_655
Na1 O51 2.494517 1_555
Na1 O66 2.502045 1_655
Na1 O30 2.860430 1_655
Na1 O11 2.873210 1_655
Na1 O1 2.979573 1_555
Na2 O49 2.323148 1_555
Na2 O71 2.472053 1_555
Na2 O14 2.475959 1_555
Na2 O50 2.478757 1_555
Na2 O69 2.524771 1_555
Na2 O35 2.827323 1_555
Na2 O6 2.860172 1_555
Na2 O4 2.975622 1_555
Na3 O48 2.386669 1_555
Na3 O69 2.460046 1_655
Na3 O50 2.526898 1_555
Na3 O12 2.538594 1_555
Na3 O70 2.560139 1_655
Na3 O33 2.794357 1_655
Na3 O7 2.873183 1_655
Na3 O5 2.934298 1_555
Na4 O65 2.365862 1_555
Na4 O64 2.421475 1_555
Na4 O42 2.523242 1_455
Na4 O43 2.535760 1_555
Na4 O7 2.641162 1_555
Na4 O28 2.660895 1_555
Na4 O14 2.879937 1_555
Na4 O21 2.958579 1_555
Na5 O64 2.423565 1_555
Na5 O44 2.459363 1_555
Na5 O42 2.497954 1_565
Na5 O27 2.498886 1_555
Na5 O63 2.500324 1_555
Na5 O6 2.882274 1_555
Na5 O23 2.883537 1_565
Na5 O13 2.952779 1_565
Na6 O61 2.371505 1_555
Na6 O26 2.427778 1_554
Na6 O45 2.441001 1_455
Na6 O62 2.458487 1_555
Na6 O47 2.508764 1_565
Na6 O11 2.767512 1_555
Na6 O18 2.932825 1_565
Na6 O16 2.945201 1_565
Na7 O41 2.412695 1_545
Na7 O39 2.430734 1_655
Na7 O56 2.432735 1_555
Na7 O5 2.535416 1_555
Na7 O55 2.543725 1_555
Na7 O34 2.771065 1_545
Na7 O20 2.853091 1_556
Na7 O24 2.936871 1_545
Na8 O37 2.346364 1_545
Na8 O57 2.416818 1_555
Na8 O38 2.434154 1_655
Na8 O2 2.488750 1_555
Na8 O59 2.497604 1_555
Na8 O23 2.830773 1_555
Na8 O30 2.965947 1_655
Na8 O28 2.993621 1_655
Na9 O37 2.412244 1_555
Na9 O36 2.412284 1_655
Na9 O44 2.525084 1_555
Na9 O38 2.642988 1_665
Na9 O43 2.721005 1_665
Na9 O42 2.759494 1_565
Na10 O40 2.383690 1_555
Na10 O41 2.520306 1_455
Na10 O45 2.543667 1_456
Na10 O39 2.577544 1_565
Na10 O47 2.679722 1_566
Na10 O46 2.736315 1_466
Na11 O49 2.375695 1_555
Na11 O48 2.486361 1_555
Na11 O56 2.506197 1_555
Na11 O50 2.685842 1_555
Na11 O54 2.710833 1_555
Na11 O55 2.793674 1_555
Na12 O53 2.411092 1_555
Na12 O58 2.531653 1_555
Na12 O57 2.579211 1_555
Na12 O51 2.600023 1_555
Na12 O52 2.610860 1_555
Na12 O59 2.774476 1_555
Na13 O61 2.413392 1_555
Na13 O60 2.437499 1_555
Na13 O68 2.539237 1_555
Na13 O62 2.664369 1_555
Na13 O67 2.725784 1_555
Na13 O66 2.779533 1_555
Na14 O65 2.480745 1_555
Na14 O64 2.518029 1_555
Na14 O63 2.524563 1_555
Na14 O69 2.633620 1_555
Na14 O70 2.635745 1_555
Na14 O71 2.678410 1_555
O0 P0 1.523025 1_555
O0 Zn0 1.986223 1_555
O1 S0 1.475229 1_555
O1 Zn0 2.093796 1_665
O2 P1 1.544053 1_555
O2 Zn0 2.011949 1_655
O3 P2 1.517339 1_555
O3 Zn1 1.935215 1_555
O4 S1 1.468309 1_655
O4 Zn1 2.075178 1_665
O5 P3 1.541781 1_555
O5 Zn1 2.134704 1_655
O6 P3 1.568735 1_565
O6 Sc0 2.019142 1_565
O7 P2 1.566349 1_555
O7 Sc0 2.067870 1_455
O8 S1 1.478901 1_555
O8 Sc0 2.134082 1_465
O9 S0 1.488347 1_555
O9 Sc1 2.129764 1_665
O10 P1 1.545541 1_455
O10 Sc1 2.021125 1_555
O11 P0 1.563395 1_565
O11 Sc1 2.035767 1_565
O12 P4 1.535547 1_555
O12 Zn2 2.057871 1_555
O13 S2 1.476907 1_555
O13 Zn2 2.059320 1_555
O14 P5 1.540647 1_555
O14 Zn2 2.047119 1_555
O15 P6 1.538088 1_555
O15 Zn3 2.013183 1_555
O16 S3 1.489207 1_555
O16 Zn3 2.097396 1_555
O17 S4 1.472221 1_555
O17 Zn3 2.101401 1_555
O18 S4 1.496714 1_555
O18 Sc2 2.079932 1_554
O19 P6 1.549505 1_555
O19 Sc2 1.984536 1_554
O20 S3 1.493649 1_555
O20 Sc2 2.163575 1_554
O21 S2 1.486704 1_555
O21 Sc3 2.123926 1_555
O22 P5 1.543277 1_555
O22 Sc3 2.014228 1_555
O23 P4 1.559271 1_555
O23 Sc3 2.029639 1_555
O24 S5 1.468495 1_555
O24 Zn4 2.174191 1_556
O25 S6 1.462707 1_555
O25 Zn4 2.010677 1_556
O26 P7 1.540178 1_555
O26 Zn4 1.996208 1_556
O27 P8 1.539766 1_555
O27 Zn5 2.006423 1_555
O28 S7 1.489189 1_555
O28 Zn5 2.085455 1_555
O29 S8 1.468712 1_555
O29 Zn5 2.097482 1_555
O30 S8 1.502683 1_555
O30 Sc4 2.106869 1_555
O31 P8 1.559435 1_555
O31 Sc4 2.025899 1_555
O32 S7 1.481021 1_555
O32 Sc4 2.119223 1_555
O33 S6 1.488095 1_555
O33 Sc5 2.180494 1_555
O34 P7 1.567253 1_555
O34 Sc5 1.993706 1_555
O35 S5 1.502064 1_555
O35 Sc5 2.107656 1_555
O36 S8 1.463931 1_555
O36 Zn0 2.261686 1_565
O37 P8 1.552410 1_555
O37 Zn0 2.184487 1_665
O38 S7 1.484754 1_555
O38 Zn0 2.221749 1_555
O39 S6 1.484517 1_555
O39 Zn1 2.241574 1_555
O40 P7 1.532449 1_555
O40 Zn1 2.041671 1_565
O41 S5 1.484236 1_555
O41 Zn1 2.361335 1_665
O42 P4 1.585534 1_555
O42 Sc0 2.108642 1_555
O43 S2 1.489675 1_555
O43 Sc0 2.195932 1_455
O44 P5 1.559228 1_555
O44 Sc0 2.121484 1_565
O45 P6 1.571275 1_555
O45 Sc1 2.134779 1_665
O46 S3 1.481677 1_555
O46 Sc1 2.186110 1_655
O47 S4 1.512574 1_555
O47 Sc1 2.166586 1_555
O48 P3 1.539437 1_555
O48 Zn2 2.157369 1_555
O49 P2 1.540785 1_555
O49 Zn2 2.131141 1_555
O50 S1 1.487821 1_655
O50 Zn2 2.278129 1_555
O51 S0 1.474053 1_555
O51 Zn3 2.220105 1_555
O52 P1 1.560189 1_555
O52 Zn3 2.135165 1_555
O53 P0 1.542798 1_555
O53 Zn3 2.153922 1_555
O54 S5 1.490119 1_555
O54 Sc2 2.122425 1_555
O55 S6 1.507761 1_655
O55 Sc2 2.160950 1_555
O56 P7 1.574004 1_545
O56 Sc2 2.146036 1_555
O57 P8 1.575674 1_545
O57 Sc3 2.135116 1_555
O58 S7 1.481551 1_555
O58 Sc3 2.190861 1_555
O59 S8 1.509556 1_655
O59 Sc3 2.162956 1_555
O60 S4 1.462928 1_555
O60 Zn4 2.246032 1_555
O61 P6 1.557024 1_455
O61 Zn4 2.064459 1_555
O62 S3 1.480898 1_565
O62 Zn4 2.290411 1_555
O63 S2 1.476984 1_565
O63 Zn5 2.204999 1_555
O64 P5 1.564355 1_555
O64 Zn5 2.144131 1_555
O65 P4 1.541350 1_455
O65 Zn5 2.158565 1_555
O66 P0 1.588712 1_565
O66 Sc4 2.089923 1_555
O67 S0 1.496357 1_555
O67 Sc4 2.154347 1_555
O68 P1 1.558209 1_455
O68 Sc4 2.134779 1_555
O69 P2 1.585149 1_555
O69 Sc5 2.172575 1_555
O70 S1 1.499084 1_555
O70 Sc5 2.147170 1_555
O71 P3 1.564389 1_565
O71 Sc5 2.064770 1_555
