# generated using pymatgen
data_NaY2Sc2PS5O24
_symmetry_space_group_name_H-M   'P 1'
_cell_length_a   8.96926254
_cell_length_b   8.96894281
_cell_length_c   23.66030221
_cell_angle_alpha   90.02559300
_cell_angle_beta   90.00319842
_cell_angle_gamma   119.86598926
_symmetry_Int_Tables_number   1
_chemical_formula_structural   NaY2Sc2PS5O24
_chemical_formula_sum   'Na3 Y6 Sc6 P3 S15 O72'
_cell_volume   1650.56915563
_cell_formula_units_Z   3
loop_
 _symmetry_equiv_pos_site_id
 _symmetry_equiv_pos_as_xyz
  1  'x, y, z'
loop_
 _atom_site_type_symbol
 _atom_site_label
 _atom_site_symmetry_multiplicity
 _atom_site_fract_x
 _atom_site_fract_y
 _atom_site_fract_z
 _atom_site_occupancy
  Na  Na0  1  0.99854378  0.98666945  0.99505191  1
  Na  Na1  1  0.65338399  0.33138680  0.83907707  1
  Na  Na2  1  0.67518543  0.33207237  0.33297245  1
  Y  Y0  1  0.99943983  0.99364957  0.85135742  1
  Y  Y1  1  0.00105112  0.00519415  0.15288726  1
  Y  Y2  1  0.67155862  0.33386183  0.18903150  1
  Y  Y3  1  0.66122973  0.33340861  0.97917445  1
  Y  Y4  1  0.33828309  0.67237003  0.01797580  1
  Y  Y5  1  0.34039973  0.67264650  0.81106542  1
  Sc  Sc0  1  0.99849326  0.00609643  0.35566241  1
  Sc  Sc1  1  0.00074257  0.00006808  0.64427582  1
  Sc  Sc2  1  0.66568872  0.33388893  0.68164627  1
  Sc  Sc3  1  0.66760038  0.33388560  0.48245431  1
  Sc  Sc4  1  0.33272093  0.66677146  0.51958300  1
  Sc  Sc5  1  0.32806575  0.66122577  0.31510412  1
  P  P0  1  0.00237924  0.29433243  0.25670351  1
  P  P1  1  0.63112500  0.66729386  0.91527570  1
  P  P2  1  0.33320955  0.96400059  0.91530233  1
  S  S0  1  0.28993590  0.99573756  0.25644293  1
  S  S1  1  0.70515532  0.71015444  0.25646053  1
  S  S2  1  0.29549260  0.28642946  0.74468282  1
  S  S3  1  0.98958019  0.70142269  0.74421044  1
  S  S4  1  0.71526368  0.01187238  0.74443300  1
  S  S5  1  0.95607956  0.33400993  0.58238429  1
  S  S6  1  0.37820100  0.04436394  0.58219614  1
  S  S7  1  0.66610370  0.62232480  0.58222464  1
  S  S8  1  0.96153368  0.63169099  0.08370389  1
  S  S9  1  0.67142028  0.03983276  0.08371469  1
  S  S10  1  0.36774788  0.32951029  0.08453562  1
  S  S11  1  0.03834612  0.37129150  0.91531159  1
  S  S12  1  0.61880617  0.95606862  0.41736657  1
  S  S13  1  0.33785066  0.38027795  0.41751814  1
  S  S14  1  0.04298839  0.66426966  0.41739270  1
  O  O0  1  0.19950575  0.02035850  0.30472392  1
  O  O1  1  0.82166886  0.79765865  0.30473372  1
  O  O2  1  0.97660150  0.17136248  0.30688918  1
  O  O3  1  0.22518201  0.18421652  0.79677552  1
  O  O4  1  0.95647259  0.77113929  0.79643173  1
  O  O5  1  0.81667960  0.04303845  0.79671693  1
  O  O6  1  0.80709863  0.99166030  0.69532123  1
  O  O7  1  0.18474661  0.19472880  0.69532564  1
  O  O8  1  0.01127850  0.81416013  0.69520619  1
  O  O9  1  0.77751129  0.80499258  0.20313977  1
  O  O10  1  0.02702563  0.21926708  0.20132898  1
  O  O11  1  0.19299412  0.96871786  0.20322540  1
  O  O12  1  0.87760504  0.36903094  0.63234955  1
  O  O13  1  0.49104447  0.12224686  0.63233635  1
  O  O14  1  0.63085845  0.50908995  0.63225079  1
  O  O15  1  0.87467695  0.53076080  0.13522350  1
  O  O16  1  0.65716577  0.12660969  0.13512879  1
  O  O17  1  0.46945868  0.34470303  0.13577391  1
  O  O18  1  0.45032863  0.30617194  0.03377300  1
  O  O19  1  0.85555663  0.54949809  0.03309290  1
  O  O20  1  0.69474733  0.14493982  0.03302411  1
  O  O21  1  0.45882165  0.15901306  0.53228075  1
  O  O22  1  0.70066614  0.54152113  0.53232470  1
  O  O23  1  0.84136230  0.29979989  0.53232538  1
  O  O24  1  0.54268556  0.67832230  0.96935878  1
  O  O25  1  0.13666188  0.45212463  0.96710248  1
  O  O26  1  0.31431400  0.86048717  0.96912415  1
  O  O27  1  0.53667716  0.84796446  0.46815096  1
  O  O28  1  0.31019994  0.46197875  0.46813817  1
  O  O29  1  0.15173826  0.69041533  0.46813957  1
  O  O30  1  0.12092331  0.63009779  0.36734921  1
  O  O31  1  0.50859240  0.87911100  0.36726192  1
  O  O32  1  0.37185087  0.49148191  0.36740661  1
  O  O33  1  0.12291170  0.47235678  0.86413980  1
  O  O34  1  0.34332510  0.87184352  0.86161576  1
  O  O35  1  0.52503061  0.64990452  0.86185162  1
  O  O36  1  0.02479057  0.81670417  0.40892213  1
  O  O37  1  0.79006705  0.97252540  0.40973547  1
  O  O38  1  0.18491552  0.20890529  0.40945290  1
  O  O39  1  0.02050065  0.19819177  0.91190764  1
  O  O40  1  0.17452195  0.98877010  0.91296883  1
  O  O41  1  0.80900267  0.83253661  0.91273383  1
  O  O42  1  0.97424854  0.18117487  0.59193166  1
  O  O43  1  0.20746198  0.02655264  0.59185744  1
  O  O44  1  0.81882788  0.79261576  0.59196555  1
  O  O45  1  0.97933589  0.80556980  0.08794328  1
  O  O46  1  0.82691779  0.02074036  0.08754469  1
  O  O47  1  0.19526927  0.17142018  0.08801539  1
  O  O48  1  0.69508332  0.16629590  0.73618452  1
  O  O49  1  0.47030687  0.30612290  0.73663048  1
  O  O50  1  0.83414090  0.52830196  0.73586940  1
  O  O51  1  0.68527762  0.53531263  0.25243969  1
  O  O52  1  0.83884594  0.31167919  0.25333578  1
  O  O53  1  0.46206712  0.15322471  0.25213671  1
  O  O54  1  0.65572661  0.50857096  0.91668287  1
  O  O55  1  0.86561744  0.35355947  0.91809709  1
  O  O56  1  0.49851682  0.14182273  0.91710512  1
  O  O57  1  0.63929969  0.13196747  0.42541268  1
  O  O58  1  0.49364949  0.36095354  0.42550898  1
  O  O59  1  0.86835714  0.50764601  0.42536787  1
  O  O60  1  0.34977163  0.48170431  0.07984065  1
  O  O61  1  0.12983476  0.64479565  0.07951407  1
  O  O62  1  0.51669467  0.87103577  0.08022373  1
  O  O63  1  0.36061570  0.87322356  0.57186682  1
  O  O64  1  0.51261500  0.63990485  0.57182737  1
  O  O65  1  0.12680420  0.48719972  0.57191008  1
  O  O66  1  0.31094027  0.84441793  0.26519765  1
  O  O67  1  0.53543952  0.69510945  0.26511067  1
  O  O68  1  0.16224910  0.47205608  0.26725059  1
  O  O69  1  0.30948801  0.45565133  0.74945429  1
  O  O70  1  0.14303466  0.68448600  0.74946608  1
  O  O71  1  0.54552395  0.85706347  0.74873430  1
loop_
_geom_bond_atom_site_label_1
_geom_bond_atom_site_label_2
_geom_bond_distance
_geom_bond_site_symmetry_2
Na0 O40 2.496845 1_655
Na0 O41 2.500244 1_555
Na0 O39 2.671913 1_665
Na0 O45 2.687558 1_556
Na0 O46 2.778561 1_566
Na0 O47 2.789532 1_666
Na1 O54 2.421060 1_555
Na1 O56 2.424757 1_555
Na1 O55 2.604026 1_555
Na1 O49 2.872559 1_555
Na1 O48 2.967727 1_555
Na1 O50 2.977116 1_555
Na2 O52 2.450702 1_555
Na2 O51 2.607763 1_555
Na2 O53 2.613052 1_555
Na2 O57 2.745287 1_555
Na2 O59 2.745887 1_555
Na2 O58 2.816360 1_555
O0 S0 1.479811 1_545
O0 Sc0 2.119004 1_455
O1 S1 1.481486 1_555
O1 Sc0 2.122993 1_565
O2 P0 1.557896 1_655
O2 Sc0 1.964361 1_555
O3 S2 1.477347 1_555
O3 Y0 2.290044 1_445
O4 S3 1.479890 1_555
O4 Y0 2.247612 1_555
O5 S4 1.477223 1_555
O5 Y0 2.297409 1_545
O6 S4 1.486676 1_565
O6 Sc1 2.085868 1_665
O7 S2 1.487360 1_555
O7 Sc1 2.087824 1_555
O8 S3 1.486504 1_455
O8 Sc1 2.097606 1_565
O9 S1 1.479039 1_555
O9 Y1 2.252656 1_665
O10 P0 1.538239 1_555
O10 Y1 2.146361 1_555
O11 S0 1.479844 1_555
O11 Y1 2.247325 1_565
O12 S5 1.487147 1_555
O12 Sc2 2.115769 1_555
O13 S6 1.488192 1_555
O13 Sc2 2.110572 1_555
O14 S7 1.487859 1_555
O14 Sc2 2.103138 1_555
O15 S8 1.486936 1_555
O15 Y2 2.203756 1_555
O16 S9 1.483299 1_555
O16 Y2 2.203934 1_555
O17 S10 1.482037 1_555
O17 Y2 2.249114 1_555
O18 S10 1.479616 1_555
O18 Y3 2.201603 1_554
O19 S8 1.477194 1_555
O19 Y3 2.248294 1_554
O20 S9 1.474961 1_555
O20 Y3 2.253672 1_554
O21 S6 1.495218 1_555
O21 Sc3 2.105508 1_555
O22 S7 1.496089 1_555
O22 Sc3 2.096717 1_555
O23 S5 1.496923 1_555
O23 Sc3 2.095088 1_555
O24 P1 1.534466 1_555
O24 Y4 2.142422 1_556
O25 S11 1.472127 1_555
O25 Y4 2.249684 1_556
O26 P2 1.535150 1_555
O26 Y4 2.142860 1_556
O27 S12 1.488726 1_555
O27 Sc4 2.123556 1_555
O28 S13 1.487667 1_555
O28 Sc4 2.127105 1_555
O29 S14 1.489922 1_555
O29 Sc4 2.122347 1_555
O30 S14 1.482451 1_555
O30 Sc5 2.131147 1_555
O31 S12 1.476007 1_555
O31 Sc5 2.193133 1_555
O32 S13 1.480445 1_555
O32 Sc5 2.144873 1_555
O33 S11 1.476207 1_555
O33 Y5 2.263064 1_555
O34 P2 1.542301 1_555
O34 Y5 2.138804 1_555
O35 P1 1.542561 1_555
O35 Y5 2.136408 1_555
O36 S14 1.469172 1_555
O36 Sc0 2.220339 1_465
O37 S12 1.479252 1_555
O37 Sc0 2.159228 1_565
O38 S13 1.476608 1_555
O38 Sc0 2.166295 1_455
O39 S11 1.481494 1_555
O39 Y0 2.259669 1_445
O40 P2 1.546975 1_555
O40 Y0 2.158982 1_455
O41 P1 1.546176 1_555
O41 Y0 2.158333 1_555
O42 S5 1.476260 1_555
O42 Sc1 2.148246 1_655
O43 S6 1.476276 1_555
O43 Sc1 2.143420 1_555
O44 S7 1.475883 1_555
O44 Sc1 2.151785 1_665
O45 S8 1.489793 1_555
O45 Y1 2.292349 1_665
O46 S9 1.490159 1_555
O46 Y1 2.250737 1_655
O47 S10 1.491965 1_555
O47 Y1 2.242522 1_555
O48 S4 1.496339 1_555
O48 Sc2 2.095331 1_555
O49 S2 1.500073 1_555
O49 Sc2 2.095563 1_555
O50 S3 1.495761 1_555
O50 Sc2 2.084008 1_555
O51 S1 1.490415 1_555
O51 Y2 2.303600 1_555
O52 P0 1.552177 1_655
O52 Y2 2.214289 1_555
O53 S0 1.489083 1_545
O53 Y2 2.314157 1_555
O54 P1 1.545723 1_555
O54 Y3 2.176237 1_555
O55 S11 1.477985 1_655
O55 Y3 2.269847 1_555
O56 P2 1.545517 1_545
O56 Y3 2.176965 1_555
O57 S12 1.506603 1_545
O57 Sc3 2.169228 1_555
O58 S13 1.503239 1_555
O58 Sc3 2.164677 1_555
O59 S14 1.507042 1_655
O59 Sc3 2.168578 1_555
O60 S10 1.456346 1_555
O60 Y4 2.292425 1_555
O61 S8 1.457966 1_455
O61 Y4 2.284024 1_555
O62 S9 1.460180 1_565
O62 Y4 2.249976 1_555
O63 S6 1.482974 1_565
O63 Sc4 2.134958 1_555
O64 S7 1.482165 1_555
O64 Sc4 2.139336 1_555
O65 S5 1.482881 1_455
O65 Sc4 2.139481 1_555
O66 S0 1.474864 1_555
O66 Sc5 2.090582 1_555
O67 S1 1.474026 1_555
O67 Sc5 2.094918 1_555
O68 P0 1.543509 1_555
O68 Sc5 1.964043 1_555
O69 S2 1.463605 1_555
O69 Y5 2.334447 1_555
O70 S3 1.463273 1_455
O70 Y5 2.335851 1_555
O71 S4 1.466589 1_565
O71 Y5 2.295079 1_555
