# generated using pymatgen
data_Fe3BO5
_symmetry_space_group_name_H-M   'P 1'
_cell_length_a   3.05175586
_cell_length_b   9.38142686
_cell_length_c   12.40083039
_cell_angle_alpha   90.00000000
_cell_angle_beta   90.00000000
_cell_angle_gamma   90.00000000
_symmetry_Int_Tables_number   1
_chemical_formula_structural   Fe3BO5
_chemical_formula_sum   'Fe12 B4 O20'
_cell_volume   355.03359642
_cell_formula_units_Z   4
loop_
 _symmetry_equiv_pos_site_id
 _symmetry_equiv_pos_as_xyz
  1  'x, y, z'
loop_
 _atom_site_type_symbol
 _atom_site_label
 _atom_site_symmetry_multiplicity
 _atom_site_fract_x
 _atom_site_fract_y
 _atom_site_fract_z
 _atom_site_occupancy
  Fe  Fe0  1  0.50000000  0.50000000  0.00000000  1
  Fe  Fe1  1  0.50000000  -0.00000000  0.50000000  1
  Fe  Fe2  1  0.50000000  0.74557336  0.38779106  1
  Fe  Fe3  1  -0.00000000  -0.00288972  0.72439462  1
  Fe  Fe4  1  -0.00000000  0.00288972  0.27560538  1
  Fe  Fe5  1  -0.00000000  0.50288972  0.22439462  1
  Fe  Fe6  1  0.50000000  0.75442664  0.88779106  1
  Fe  Fe7  1  -0.00000000  0.49711028  0.77560538  1
  Fe  Fe8  1  0.00000000  0.50000000  0.50000000  1
  Fe  Fe9  1  0.50000000  0.25442664  0.61220894  1
  Fe  Fe10  1  0.50000000  0.24557336  0.11220894  1
  Fe  Fe11  1  -0.00000000  -0.00000000  0.00000000  1
  B  B0  1  0.50000000  0.72620905  0.63941856  1
  B  B1  1  0.50000000  0.77379095  0.13941856  1
  B  B2  1  0.50000000  0.22620905  0.86058144  1
  B  B3  1  0.50000000  0.27379095  0.36058144  1
  O  O0  1  0.50000000  0.65213466  0.54347175  1
  O  O1  1  0.50000000  0.37320354  0.85982585  1
  O  O2  1  -0.00000000  0.10457419  0.14016833  1
  O  O3  1  -0.00000000  0.10539564  0.58135422  1
  O  O4  1  0.50000000  0.34758936  0.26441999  1
  O  O5  1  0.50000000  0.62679646  0.14017415  1
  O  O6  1  -0.00000000  0.39460436  0.08135422  1
  O  O7  1  -0.00000000  0.60457419  0.35983167  1
  O  O8  1  -0.00000000  0.89542581  0.85983167  1
  O  O9  1  -0.00000000  0.60539564  0.91864578  1
  O  O10  1  -0.00000000  0.89460436  0.41864578  1
  O  O11  1  0.50000000  0.84758936  0.23558001  1
  O  O12  1  0.50000000  0.34786534  0.45652825  1
  O  O13  1  0.50000000  0.65241064  0.73558001  1
  O  O14  1  0.50000000  0.15213466  0.95652825  1
  O  O15  1  0.50000000  0.84786534  0.04347175  1
  O  O16  1  -0.00000000  0.39542581  0.64016833  1
  O  O17  1  0.50000000  0.12679646  0.35982585  1
  O  O18  1  0.50000000  0.15241064  0.76441999  1
  O  O19  1  0.50000000  0.87320354  0.64017415  1
loop_
_geom_bond_atom_site_label_1
_geom_bond_atom_site_label_2
_geom_bond_distance
_geom_bond_site_symmetry_2
Fe0 O9 2.079363 1_554
Fe0 O6 2.079363 1_555
Fe0 O6 2.079363 1_655
Fe0 O9 2.079363 1_654
Fe0 O1 2.106321 1_554
Fe0 O5 2.106321 1_555
Fe1 O10 2.079363 1_645
Fe1 O10 2.079363 1_545
Fe1 O3 2.079363 1_655
Fe1 O3 2.079363 1_555
Fe1 O17 2.106321 1_555
Fe1 O19 2.106321 1_545
Fe2 O7 2.048963 1_555
Fe2 O7 2.048963 1_655
Fe2 O10 2.104627 1_555
Fe2 O10 2.104627 1_655
Fe2 O11 2.116312 1_555
Fe2 O0 2.120261 1_555
Fe3 O8 1.931538 1_545
Fe3 O3 2.044121 1_555
Fe3 O18 2.167334 1_555
Fe3 O18 2.167334 1_455
Fe3 O19 2.184103 1_545
Fe3 O19 2.184103 1_445
Fe4 O2 1.931538 1_555
Fe4 O10 2.044121 1_545
Fe4 O11 2.167334 1_445
Fe4 O11 2.167334 1_545
Fe4 O17 2.184103 1_455
Fe4 O17 2.184103 1_555
Fe5 O7 1.931538 1_555
Fe5 O6 2.044121 1_555
Fe5 O4 2.167334 1_555
Fe5 O4 2.167334 1_455
Fe5 O5 2.184103 1_455
Fe5 O5 2.184103 1_555
Fe6 O8 2.048963 1_655
Fe6 O8 2.048963 1_555
Fe6 O9 2.104627 1_555
Fe6 O9 2.104627 1_655
Fe6 O13 2.116312 1_555
Fe6 O15 2.120261 1_556
Fe7 O16 1.931538 1_555
Fe7 O9 2.044121 1_555
Fe7 O13 2.167334 1_455
Fe7 O13 2.167334 1_555
Fe7 O1 2.184103 1_555
Fe7 O1 2.184103 1_455
Fe8 O7 1.995951 1_555
Fe8 O16 1.995951 1_555
Fe8 O12 2.157761 1_455
Fe8 O12 2.157761 1_555
Fe8 O0 2.157761 1_455
Fe8 O0 2.157761 1_555
Fe9 O16 2.048963 1_655
Fe9 O16 2.048963 1_555
Fe9 O3 2.104627 1_555
Fe9 O3 2.104627 1_655
Fe9 O18 2.116312 1_555
Fe9 O12 2.120261 1_555
Fe10 O2 2.048963 1_655
Fe10 O2 2.048963 1_555
Fe10 O6 2.104627 1_555
Fe10 O6 2.104627 1_655
Fe10 O4 2.116312 1_555
Fe10 O14 2.120261 1_554
Fe11 O8 1.995951 1_544
Fe11 O2 1.995951 1_555
Fe11 O14 2.157761 1_454
Fe11 O15 2.157761 1_445
Fe11 O14 2.157761 1_554
Fe11 O15 2.157761 1_545
B0 O0 1.377894 1_555
B0 O13 1.378891 1_555
B0 O19 1.379050 1_555
B1 O15 1.377894 1_555
B1 O11 1.378891 1_555
B1 O5 1.379050 1_555
B2 O14 1.377894 1_555
B2 O18 1.378891 1_555
B2 O1 1.379050 1_555
B3 O12 1.377894 1_555
B3 O4 1.378891 1_555
B3 O17 1.379050 1_555
