# generated using pymatgen
data_CeOs2
_symmetry_space_group_name_H-M   'P 1'
_cell_length_a   5.37696199
_cell_length_b   5.37695179
_cell_length_c   5.37696421
_cell_angle_alpha   60.00007224
_cell_angle_beta   60.00012711
_cell_angle_gamma   60.00007038
_symmetry_Int_Tables_number   1
_chemical_formula_structural   CeOs2
_chemical_formula_sum   'Ce2 Os4'
_cell_volume   109.92491592
_cell_formula_units_Z   2
loop_
 _symmetry_equiv_pos_site_id
 _symmetry_equiv_pos_as_xyz
  1  'x, y, z'
loop_
 _atom_site_type_symbol
 _atom_site_label
 _atom_site_symmetry_multiplicity
 _atom_site_fract_x
 _atom_site_fract_y
 _atom_site_fract_z
 _atom_site_occupancy
  Ce  Ce0  1  0.87500100  0.87499900  0.87500100  1
  Ce  Ce1  1  0.12499900  0.12500100  0.12499900  1
  Os  Os0  1  0.50000000  0.50000000  0.50000000  1
  Os  Os1  1  0.50000000  0.50000000  -0.00000000  1
  Os  Os2  1  0.00000000  0.50000000  0.50000000  1
  Os  Os3  1  0.50000000  -0.00000000  0.50000000  1
loop_
_geom_bond_atom_site_label_1
_geom_bond_atom_site_label_2
_geom_bond_distance
_geom_bond_site_symmetry_2
Ce0 Os1 3.152518 1_656
Ce0 Os2 3.152519 1_656
Ce0 Os1 3.152522 1_556
Ce0 Os2 3.152523 1_665
Ce0 Os1 3.152523 1_566
Ce0 Os2 3.152523 1_655
Ce0 Os3 3.152524 1_665
Ce0 Os0 3.152525 1_655
Ce0 Os0 3.152525 1_556
Ce0 Os3 3.152526 1_566
Ce0 Os3 3.152530 1_565
Ce0 Os0 3.152530 1_565
Ce1 Os1 3.152518 1_455
Ce1 Os2 3.152519 1_554
Ce1 Os1 3.152522 1_555
Ce1 Os2 3.152523 1_545
Ce1 Os1 3.152523 1_545
Ce1 Os2 3.152523 1_555
Ce1 Os3 3.152524 1_455
Ce1 Os0 3.152525 1_455
Ce1 Os0 3.152525 1_554
Ce1 Os3 3.152526 1_554
Ce1 Os3 3.152530 1_555
Ce1 Os0 3.152530 1_545
Os0 Os3 2.688476 1_555
Os0 Os3 2.688476 1_565
Os0 Os2 2.688481 1_555
Os0 Os2 2.688481 1_655
Os0 Os1 2.688482 1_555
Os0 Os1 2.688482 1_556
Os1 Os3 2.688482 1_564
Os1 Os3 2.688482 1_555
Os1 Os2 2.688487 1_654
Os1 Os2 2.688487 1_555
Os2 Os3 2.688481 1_465
Os2 Os3 2.688481 1_555
