# generated using pymatgen
data_MgIr2(WO6)2
_symmetry_space_group_name_H-M   'P 1'
_cell_length_a   5.18511612
_cell_length_b   5.36615264
_cell_length_c   7.50622979
_cell_angle_alpha   90.13379280
_cell_angle_beta   90.09573706
_cell_angle_gamma   89.97993662
_symmetry_Int_Tables_number   1
_chemical_formula_structural   MgIr2(WO6)2
_chemical_formula_sum   'Mg1 Ir2 W2 O12'
_cell_volume   208.85339904
_cell_formula_units_Z   1
loop_
 _symmetry_equiv_pos_site_id
 _symmetry_equiv_pos_as_xyz
  1  'x, y, z'
loop_
 _atom_site_type_symbol
 _atom_site_label
 _atom_site_symmetry_multiplicity
 _atom_site_fract_x
 _atom_site_fract_y
 _atom_site_fract_z
 _atom_site_occupancy
  Mg  Mg0  1  0.51872700  0.55773000  0.75173300  1
  Ir  Ir0  1  0.00291100  0.49777900  0.50459600  1
  Ir  Ir1  1  0.49742400  0.99991600  0.99691500  1
  W  W0  1  0.99969000  0.49424400  0.01408800  1
  W  W1  1  0.50026800  0.00266500  0.48843500  1
  O  O0  1  0.12730700  0.48152300  0.75249800  1
  O  O1  1  0.19647300  0.20124100  0.04358900  1
  O  O2  1  0.19674000  0.19899900  0.45781200  1
  O  O3  1  0.29694900  0.69996000  0.04290100  1
  O  O4  1  0.30667300  0.69992100  0.45706500  1
  O  O5  1  0.40933400  0.95818300  0.74695100  1
  O  O6  1  0.59364300  0.02279200  0.24751200  1
  O  O7  1  0.68063800  0.31135800  0.56380100  1
  O  O8  1  0.68567800  0.30860200  0.93700900  1
  O  O9  1  0.78528300  0.77460200  0.93909000  1
  O  O10  1  0.79561600  0.79202800  0.55251300  1
  O  O11  1  0.90664800  0.51095600  0.25349300  1
loop_
_geom_bond_atom_site_label_1
_geom_bond_atom_site_label_2
_geom_bond_distance
_geom_bond_site_symmetry_2
Mg0 O0 2.070507 1_555
Mg0 O7 2.106445 1_555
Mg0 O8 2.115307 1_555
Mg0 O5 2.222655 1_555
Mg0 O9 2.286792 1_555
Mg0 O10 2.428045 1_555
Mg0 O3 2.584882 1_556
Mg0 O4 2.585069 1_555
Ir0 O2 1.923899 1_555
Ir0 O10 1.943016 1_455
Ir0 O4 1.946678 1_555
Ir0 O11 1.950436 1_455
Ir0 O0 1.970524 1_555
Ir0 O7 1.999067 1_455
Ir1 O1 1.929718 1_566
Ir1 O5 1.942801 1_555
Ir1 O3 1.948202 1_556
Ir1 O6 1.948874 1_566
Ir1 O9 1.968883 1_555
Ir1 O8 1.976091 1_565
O0 W0 2.074066 1_456
O1 W0 1.887328 1_455
O2 W1 1.907490 1_555
O3 W0 1.907883 1_455
O4 W1 1.923767 1_565
O5 W1 2.012475 1_565
O6 W1 1.876259 1_555
O7 W1 1.983335 1_555
O8 W0 1.993344 1_556
O9 W0 1.953687 1_556
O10 W1 1.962916 1_565
O11 W0 1.863387 1_555
