# generated using pymatgen
data_Na3TaGaSi2PO12
_symmetry_space_group_name_H-M   'P 1'
_cell_length_a   15.54279545
_cell_length_b   26.81986656
_cell_length_c   8.95781097
_cell_angle_alpha   90.00000000
_cell_angle_beta   125.16066060
_cell_angle_gamma   90.00000000
_symmetry_Int_Tables_number   1
_chemical_formula_structural   Na3TaGaSi2PO12
_chemical_formula_sum   'Na36 Ta12 Ga12 Si24 P12 O144'
_cell_volume   3052.78983133
_cell_formula_units_Z   12
loop_
 _symmetry_equiv_pos_site_id
 _symmetry_equiv_pos_as_xyz
  1  'x, y, z'
loop_
 _atom_site_type_symbol
 _atom_site_label
 _atom_site_symmetry_multiplicity
 _atom_site_fract_x
 _atom_site_fract_y
 _atom_site_fract_z
 _atom_site_occupancy
  Na  Na0  1  0.25851144  0.25355483  0.01190756  1
  Na  Na1  1  0.25136938  0.58653424  0.02145607  1
  Na  Na2  1  0.25258429  0.91724988  0.02295730  1
  Na  Na3  1  0.75851144  0.24644517  0.51190756  1
  Na  Na4  1  0.75258429  0.58275012  0.52295730  1
  Na  Na5  1  0.75136938  0.91346576  0.52145607  1
  Na  Na6  1  0.75136938  0.08653424  0.02145607  1
  Na  Na7  1  0.75258429  0.41724988  0.02295730  1
  Na  Na8  1  0.75851144  0.75355483  0.01190756  1
  Na  Na9  1  0.25258429  0.08275012  0.52295730  1
  Na  Na10  1  0.25136938  0.41346576  0.52145607  1
  Na  Na11  1  0.25851144  0.74644517  0.51190756  1
  Na  Na12  1  0.49535383  0.03700569  0.75181335  1
  Na  Na13  1  0.49785126  0.37134472  0.75845985  1
  Na  Na14  1  0.49579934  0.70366771  0.74915922  1
  Na  Na15  1  0.49579934  0.29633229  0.24915922  1
  Na  Na16  1  0.49785126  0.62865528  0.25845985  1
  Na  Na17  1  0.49535383  0.96299431  0.25181335  1
  Na  Na18  1  0.99579934  0.20366771  0.74915922  1
  Na  Na19  1  0.99535383  0.53700569  0.75181335  1
  Na  Na20  1  0.99785126  0.87134472  0.75845985  1
  Na  Na21  1  0.99785126  0.12865528  0.25845985  1
  Na  Na22  1  0.99535383  0.46299431  0.25181335  1
  Na  Na23  1  0.99579934  0.79633229  0.24915922  1
  Na  Na24  1  0.81434492  0.64556168  0.20897087  1
  Na  Na25  1  0.81484340  0.97981896  0.21765415  1
  Na  Na26  1  0.19663878  0.30900136  0.28442212  1
  Na  Na27  1  0.19663878  0.69099864  0.78442212  1
  Na  Na28  1  0.81484340  0.02018104  0.71765415  1
  Na  Na29  1  0.81434492  0.35443832  0.70897087  1
  Na  Na30  1  0.31434492  0.14556168  0.20897087  1
  Na  Na31  1  0.31484340  0.47981896  0.21765415  1
  Na  Na32  1  0.69663878  0.80900136  0.28442212  1
  Na  Na33  1  0.69663878  0.19099864  0.78442212  1
  Na  Na34  1  0.31484340  0.52018104  0.71765415  1
  Na  Na35  1  0.31434492  0.85443832  0.70897087  1
  Ta  Ta0  1  0.10890687  0.24773105  0.57060518  1
  Ta  Ta1  1  0.10457006  0.58282914  0.56814355  1
  Ta  Ta2  1  0.10658295  0.91760580  0.56744407  1
  Ta  Ta3  1  0.10658295  0.08239420  0.06744407  1
  Ta  Ta4  1  0.10457006  0.41717086  0.06814355  1
  Ta  Ta5  1  0.10890687  0.75226895  0.07060518  1
  Ta  Ta6  1  0.60457006  0.08282914  0.56814355  1
  Ta  Ta7  1  0.60658295  0.41760580  0.56744407  1
  Ta  Ta8  1  0.60890687  0.74773105  0.57060518  1
  Ta  Ta9  1  0.60890687  0.25226895  0.07060518  1
  Ta  Ta10  1  0.60658295  0.58239420  0.06744407  1
  Ta  Ta11  1  0.60457006  0.91717086  0.06814355  1
  Ga  Ga0  1  0.89830566  0.24914199  0.94419537  1
  Ga  Ga1  1  0.89269329  0.58126879  0.93592955  1
  Ga  Ga2  1  0.89335978  0.91233456  0.93887100  1
  Ga  Ga3  1  0.89335978  0.08766544  0.43887100  1
  Ga  Ga4  1  0.89269329  0.41873121  0.43592955  1
  Ga  Ga5  1  0.89830566  0.75085801  0.44419537  1
  Ga  Ga6  1  0.39269329  0.08126879  0.93592955  1
  Ga  Ga7  1  0.39335978  0.41233456  0.93887100  1
  Ga  Ga8  1  0.39830566  0.74914199  0.94419537  1
  Ga  Ga9  1  0.39830566  0.25085801  0.44419537  1
  Ga  Ga10  1  0.39335978  0.58766544  0.43887100  1
  Ga  Ga11  1  0.39269329  0.91873121  0.43592955  1
  Si  Si0  1  0.35354121  0.29854454  0.74917034  1
  Si  Si1  1  0.35487328  0.63251530  0.75413529  1
  Si  Si2  1  0.35380653  0.96639904  0.74994309  1
  Si  Si3  1  0.64529187  0.29794279  0.73963489  1
  Si  Si4  1  0.64580107  0.62861412  0.73967411  1
  Si  Si5  1  0.64576397  0.96231121  0.74025699  1
  Si  Si6  1  0.64576397  0.03768879  0.24025699  1
  Si  Si7  1  0.64580107  0.37138588  0.23967411  1
  Si  Si8  1  0.64529187  0.70205721  0.23963489  1
  Si  Si9  1  0.35380653  0.03360096  0.24994309  1
  Si  Si10  1  0.35487328  0.36748470  0.25413529  1
  Si  Si11  1  0.35354121  0.70145546  0.24917034  1
  Si  Si12  1  0.85487328  0.13251530  0.75413529  1
  Si  Si13  1  0.85380653  0.46639904  0.74994309  1
  Si  Si14  1  0.85354121  0.79854454  0.74917034  1
  Si  Si15  1  0.14580107  0.12861412  0.73967411  1
  Si  Si16  1  0.14576397  0.46231121  0.74025699  1
  Si  Si17  1  0.14529187  0.79794279  0.73963489  1
  Si  Si18  1  0.14529187  0.20205721  0.23963489  1
  Si  Si19  1  0.14576397  0.53768879  0.24025699  1
  Si  Si20  1  0.14580107  0.87138588  0.23967411  1
  Si  Si21  1  0.85354121  0.20145546  0.24917034  1
  Si  Si22  1  0.85380653  0.53360096  0.24994309  1
  Si  Si23  1  0.85487328  0.86748470  0.25413529  1
  P  P0  1  0.00134189  0.32069996  0.74671837  1
  P  P1  1  0.99433595  0.65489463  0.74237077  1
  P  P2  1  0.99829945  0.98769043  0.73957116  1
  P  P3  1  0.99829945  0.01230957  0.23957116  1
  P  P4  1  0.99433595  0.34510537  0.24237077  1
  P  P5  1  0.00134189  0.67930004  0.24671837  1
  P  P6  1  0.49433595  0.15489463  0.74237077  1
  P  P7  1  0.49829945  0.48769043  0.73957116  1
  P  P8  1  0.50134189  0.82069996  0.74671837  1
  P  P9  1  0.50134189  0.17930004  0.24671837  1
  P  P10  1  0.49829945  0.51230957  0.23957116  1
  P  P11  1  0.49433595  0.84510537  0.24237077  1
  O  O0  1  0.14662572  0.19167063  0.74096465  1
  O  O1  1  0.14863506  0.52587161  0.74279000  1
  O  O2  1  0.14760387  0.85998675  0.74022835  1
  O  O3  1  0.84781291  0.19289225  0.76036968  1
  O  O4  1  0.85135837  0.52610112  0.76013965  1
  O  O5  1  0.84862039  0.85905737  0.75744146  1
  O  O6  1  0.84862039  0.14094263  0.25744146  1
  O  O7  1  0.85135837  0.47389888  0.26013965  1
  O  O8  1  0.84781291  0.80710775  0.26036968  1
  O  O9  1  0.14760387  0.14001325  0.24022835  1
  O  O10  1  0.14863506  0.47412839  0.24279000  1
  O  O11  1  0.14662572  0.80832937  0.24096465  1
  O  O12  1  0.64863506  0.02587161  0.74279000  1
  O  O13  1  0.64760387  0.35998675  0.74022835  1
  O  O14  1  0.64662572  0.69167063  0.74096465  1
  O  O15  1  0.35135837  0.02610112  0.76013965  1
  O  O16  1  0.34862039  0.35905737  0.75744146  1
  O  O17  1  0.34781291  0.69289225  0.76036968  1
  O  O18  1  0.34781291  0.30710775  0.26036968  1
  O  O19  1  0.34862039  0.64094263  0.25744146  1
  O  O20  1  0.35135837  0.97389888  0.26013965  1
  O  O21  1  0.64662572  0.30832937  0.24096465  1
  O  O22  1  0.64760387  0.64001325  0.24022835  1
  O  O23  1  0.64863506  0.97412839  0.24279000  1
  O  O24  1  0.43191241  0.18436577  0.56400497  1
  O  O25  1  0.43290505  0.51917575  0.56731264  1
  O  O26  1  0.43727788  0.85445646  0.58249118  1
  O  O27  1  0.56142466  0.18991844  0.91031678  1
  O  O28  1  0.56076317  0.52204879  0.91285314  1
  O  O29  1  0.56816578  0.85284418  0.92736378  1
  O  O30  1  0.56816578  0.14715582  0.42736378  1
  O  O31  1  0.56076317  0.47795121  0.41285314  1
  O  O32  1  0.56142466  0.81008156  0.41031678  1
  O  O33  1  0.43727788  0.14554354  0.08249118  1
  O  O34  1  0.43290505  0.48082425  0.06731264  1
  O  O35  1  0.43191241  0.81563423  0.06400497  1
  O  O36  1  0.93290505  0.01917575  0.56731264  1
  O  O37  1  0.93727788  0.35445646  0.58249118  1
  O  O38  1  0.93191241  0.68436577  0.56400497  1
  O  O39  1  0.06076317  0.02204879  0.91285314  1
  O  O40  1  0.06816578  0.35284418  0.92736378  1
  O  O41  1  0.06142466  0.68991844  0.91031678  1
  O  O42  1  0.06142466  0.31008156  0.41031678  1
  O  O43  1  0.06816578  0.64715582  0.42736378  1
  O  O44  1  0.06076317  0.97795121  0.41285314  1
  O  O45  1  0.93191241  0.31563423  0.06400497  1
  O  O46  1  0.93727788  0.64554354  0.08249118  1
  O  O47  1  0.93290505  0.98082425  0.06731264  1
  O  O48  1  0.25243240  0.27358952  0.73652510  1
  O  O49  1  0.25389427  0.60791609  0.74692230  1
  O  O50  1  0.25497274  0.93882457  0.73999069  1
  O  O51  1  0.74946895  0.27724467  0.75857378  1
  O  O52  1  0.75067593  0.60854698  0.76671715  1
  O  O53  1  0.75316546  0.94607403  0.76383924  1
  O  O54  1  0.75316546  0.05392597  0.26383924  1
  O  O55  1  0.75067593  0.39145302  0.26671715  1
  O  O56  1  0.74946895  0.72275533  0.25857378  1
  O  O57  1  0.25497274  0.06117543  0.23999069  1
  O  O58  1  0.25389427  0.39208391  0.24692230  1
  O  O59  1  0.25243240  0.72641048  0.23652510  1
  O  O60  1  0.75389427  0.10791609  0.74692230  1
  O  O61  1  0.75497274  0.43882457  0.73999069  1
  O  O62  1  0.75243240  0.77358952  0.73652510  1
  O  O63  1  0.25067593  0.10854698  0.76671715  1
  O  O64  1  0.25316546  0.44607403  0.76383924  1
  O  O65  1  0.24946895  0.77724467  0.75857378  1
  O  O66  1  0.24946895  0.22275533  0.25857378  1
  O  O67  1  0.25316546  0.55392597  0.26383924  1
  O  O68  1  0.25067593  0.89145302  0.26671715  1
  O  O69  1  0.75243240  0.22641048  0.23652510  1
  O  O70  1  0.75497274  0.56117543  0.23999069  1
  O  O71  1  0.75389427  0.89208391  0.24692230  1
  O  O72  1  0.35131866  0.28639431  0.56939360  1
  O  O73  1  0.35389540  0.61670029  0.58134294  1
  O  O74  1  0.35924262  0.95008657  0.58455047  1
  O  O75  1  0.63915303  0.28433443  0.91491693  1
  O  O76  1  0.63997143  0.61761907  0.91993237  1
  O  O77  1  0.64328208  0.95022169  0.92331584  1
  O  O78  1  0.64328208  0.04977831  0.42331584  1
  O  O79  1  0.63997143  0.38238093  0.41993237  1
  O  O80  1  0.63915303  0.71566557  0.41491693  1
  O  O81  1  0.35924262  0.04991343  0.08455047  1
  O  O82  1  0.35389540  0.38329971  0.08134294  1
  O  O83  1  0.35131866  0.71360569  0.06939360  1
  O  O84  1  0.85389540  0.11670029  0.58134294  1
  O  O85  1  0.85924262  0.45008657  0.58455047  1
  O  O86  1  0.85131866  0.78639431  0.56939360  1
  O  O87  1  0.13997143  0.11761907  0.91993237  1
  O  O88  1  0.14328208  0.45022169  0.92331584  1
  O  O89  1  0.13915303  0.78433443  0.91491693  1
  O  O90  1  0.13915303  0.21566557  0.41491693  1
  O  O91  1  0.14328208  0.54977831  0.42331584  1
  O  O92  1  0.13997143  0.88238093  0.41993237  1
  O  O93  1  0.85131866  0.21360569  0.06939360  1
  O  O94  1  0.85924262  0.54991343  0.08455047  1
  O  O95  1  0.85389540  0.88329971  0.08134294  1
  O  O96  1  0.46180061  0.27579951  0.93460838  1
  O  O97  1  0.46094895  0.60793861  0.94067969  1
  O  O98  1  0.46141701  0.94104264  0.93935377  1
  O  O99  1  0.54149066  0.27484656  0.55722749  1
  O  O100  1  0.53809530  0.60961118  0.55564795  1
  O  O101  1  0.54010226  0.94280273  0.55659849  1
  O  O102  1  0.54010226  0.05719727  0.05659849  1
  O  O103  1  0.53809530  0.39038882  0.05564795  1
  O  O104  1  0.54149066  0.72515344  0.05722749  1
  O  O105  1  0.46141701  0.05895736  0.43935377  1
  O  O106  1  0.46094895  0.39206139  0.44067969  1
  O  O107  1  0.46180061  0.72420049  0.43460838  1
  O  O108  1  0.96094895  0.10793861  0.94067969  1
  O  O109  1  0.96141701  0.44104264  0.93935377  1
  O  O110  1  0.96180061  0.77579951  0.93460838  1
  O  O111  1  0.03809530  0.10961118  0.55564795  1
  O  O112  1  0.04010226  0.44280273  0.55659849  1
  O  O113  1  0.04149066  0.77484656  0.55722749  1
  O  O114  1  0.04149066  0.22515344  0.05722749  1
  O  O115  1  0.04010226  0.55719727  0.05659849  1
  O  O116  1  0.03809530  0.89038882  0.05564795  1
  O  O117  1  0.96180061  0.22420049  0.43460838  1
  O  O118  1  0.96141701  0.55895736  0.43935377  1
  O  O119  1  0.96094895  0.89206139  0.44067969  1
  O  O120  1  0.08160280  0.28661113  0.74378805  1
  O  O121  1  0.08186132  0.62284449  0.74382803  1
  O  O122  1  0.08274646  0.95495805  0.74359014  1
  O  O123  1  0.92392671  0.28656382  0.75520689  1
  O  O124  1  0.92369500  0.61820682  0.75437729  1
  O  O125  1  0.92296418  0.95307607  0.74933292  1
  O  O126  1  0.92296418  0.04692393  0.24933292  1
  O  O127  1  0.92369500  0.38179318  0.25437729  1
  O  O128  1  0.92392671  0.71343618  0.25520689  1
  O  O129  1  0.08274646  0.04504195  0.24359014  1
  O  O130  1  0.08186132  0.37715551  0.24382803  1
  O  O131  1  0.08160280  0.71338887  0.24378805  1
  O  O132  1  0.58186132  0.12284449  0.74382803  1
  O  O133  1  0.58274646  0.45495805  0.74359014  1
  O  O134  1  0.58160280  0.78661113  0.74378805  1
  O  O135  1  0.42369500  0.11820682  0.75437729  1
  O  O136  1  0.42296418  0.45307607  0.74933292  1
  O  O137  1  0.42392671  0.78656382  0.75520689  1
  O  O138  1  0.42392671  0.21343618  0.25520689  1
  O  O139  1  0.42296418  0.54692393  0.24933292  1
  O  O140  1  0.42369500  0.88179318  0.25437729  1
  O  O141  1  0.58160280  0.21338887  0.24378805  1
  O  O142  1  0.58274646  0.54504195  0.24359014  1
  O  O143  1  0.58186132  0.87715551  0.24382803  1
loop_
_geom_bond_atom_site_label_1
_geom_bond_atom_site_label_2
_geom_bond_distance
_geom_bond_site_symmetry_2
Na0 O18 2.320577 1_555
Na0 O66 2.437632 1_555
Na0 O138 2.462549 1_555
Na0 O48 2.472736 1_554
Na0 O120 2.551262 1_554
Na0 O0 2.609276 1_554
Na1 O19 2.280922 1_555
Na1 O67 2.325944 1_555
Na1 O139 2.477555 1_555
Na1 O49 2.547414 1_554
Na1 O121 2.555013 1_554
Na1 O1 2.614793 1_554
Na2 O68 2.306961 1_555
Na2 O20 2.328642 1_555
Na2 O140 2.434127 1_555
Na2 O122 2.577836 1_554
Na2 O2 2.583747 1_554
Na2 O50 2.620989 1_554
Na3 O3 2.320577 1_555
Na3 O51 2.437632 1_555
Na3 O123 2.462549 1_555
Na3 O69 2.472736 1_555
Na3 O141 2.551262 1_555
Na3 O21 2.609276 1_555
Na4 O52 2.306961 1_555
Na4 O4 2.328642 1_555
Na4 O124 2.434127 1_555
Na4 O142 2.577836 1_555
Na4 O22 2.583747 1_555
Na4 O70 2.620989 1_555
Na5 O5 2.280922 1_555
Na5 O53 2.325944 1_555
Na5 O125 2.477555 1_555
Na5 O71 2.547414 1_555
Na5 O143 2.555013 1_555
Na5 O23 2.614793 1_555
Na6 O6 2.280922 1_555
Na6 O54 2.325944 1_555
Na6 O126 2.477555 1_555
Na6 O60 2.547414 1_554
Na6 O132 2.555013 1_554
Na6 O12 2.614793 1_554
Na7 O55 2.306961 1_555
Na7 O7 2.328642 1_555
Na7 O127 2.434127 1_555
Na7 O133 2.577836 1_554
Na7 O13 2.583747 1_554
Na7 O61 2.620989 1_554
Na8 O8 2.320577 1_555
Na8 O56 2.437632 1_555
Na8 O128 2.462549 1_555
Na8 O62 2.472736 1_554
Na8 O134 2.551262 1_554
Na8 O14 2.609276 1_554
Na9 O63 2.306961 1_555
Na9 O15 2.328642 1_555
Na9 O135 2.434127 1_555
Na9 O129 2.577836 1_555
Na9 O9 2.583747 1_555
Na9 O57 2.620989 1_555
Na10 O16 2.280922 1_555
Na10 O64 2.325944 1_555
Na10 O136 2.477555 1_555
Na10 O58 2.547414 1_555
Na10 O130 2.555013 1_555
Na10 O10 2.614793 1_555
Na11 O17 2.320577 1_555
Na11 O65 2.437632 1_555
Na11 O137 2.462549 1_555
Na11 O59 2.472736 1_555
Na11 O131 2.551262 1_555
Na11 O11 2.609276 1_555
Na12 O15 2.300524 1_555
Na12 O12 2.448145 1_555
Na12 O135 2.452207 1_555
Na12 O102 2.458453 1_556
Na12 O105 2.599728 1_555
Na12 O132 2.687715 1_555
Na12 O74 2.916170 1_545
Na12 O77 2.999292 1_545
Na13 O16 2.337569 1_555
Na13 O103 2.412743 1_556
Na13 O13 2.444355 1_555
Na13 O136 2.461065 1_555
Na13 O106 2.619243 1_555
Na13 O133 2.643875 1_555
Na13 O75 2.947583 1_555
Na13 O72 2.967123 1_555
Na14 O17 2.377015 1_555
Na14 O14 2.408876 1_555
Na14 O104 2.488916 1_556
Na14 O137 2.502688 1_555
Na14 O134 2.608317 1_555
Na14 O107 2.609014 1_555
Na15 O18 2.377015 1_555
Na15 O21 2.408876 1_555
Na15 O99 2.488916 1_555
Na15 O138 2.502688 1_555
Na15 O141 2.608317 1_555
Na15 O96 2.609014 1_554
Na16 O19 2.337569 1_555
Na16 O100 2.412743 1_555
Na16 O22 2.444355 1_555
Na16 O139 2.461065 1_555
Na16 O97 2.619243 1_554
Na16 O142 2.643875 1_555
Na16 O80 2.947583 1_555
Na16 O83 2.967123 1_555
Na17 O20 2.300524 1_555
Na17 O23 2.448145 1_555
Na17 O140 2.452207 1_555
Na17 O101 2.458453 1_555
Na17 O98 2.599728 1_554
Na17 O143 2.687715 1_555
Na17 O81 2.916170 1_565
Na17 O78 2.999292 1_565
Na18 O3 2.377015 1_555
Na18 O0 2.408876 1_655
Na18 O114 2.488916 1_656
Na18 O123 2.502688 1_555
Na18 O120 2.608317 1_655
Na18 O117 2.609014 1_555
Na19 O4 2.300524 1_555
Na19 O1 2.448145 1_655
Na19 O124 2.452207 1_555
Na19 O115 2.458453 1_656
Na19 O118 2.599728 1_555
Na19 O121 2.687715 1_655
Na19 O85 2.916170 1_555
Na19 O88 2.999292 1_655
Na20 O5 2.337569 1_555
Na20 O116 2.412743 1_656
Na20 O2 2.444355 1_655
Na20 O125 2.461065 1_555
Na20 O119 2.619243 1_555
Na20 O122 2.643875 1_655
Na20 O89 2.947583 1_655
Na20 O86 2.967123 1_555
Na21 O6 2.337569 1_555
Na21 O111 2.412743 1_655
Na21 O9 2.444355 1_655
Na21 O126 2.461065 1_555
Na21 O108 2.619243 1_554
Na21 O129 2.643875 1_655
Na21 O90 2.947583 1_655
Na21 O93 2.967123 1_555
Na22 O7 2.300524 1_555
Na22 O10 2.448145 1_655
Na22 O127 2.452207 1_555
Na22 O112 2.458453 1_655
Na22 O109 2.599728 1_554
Na22 O130 2.687715 1_655
Na22 O94 2.916170 1_555
Na22 O91 2.999292 1_655
Na23 O8 2.377015 1_555
Na23 O11 2.408876 1_655
Na23 O113 2.488916 1_655
Na23 O128 2.502688 1_555
Na23 O131 2.608317 1_655
Na23 O110 2.609014 1_554
Na24 O128 2.360888 1_555
Na24 O56 2.452852 1_555
Na24 O70 2.519190 1_555
Na24 O76 2.555138 1_554
Na24 O46 2.725401 1_555
Na24 O22 2.766371 1_555
Na24 O38 2.800600 1_555
Na25 O54 2.344627 1_565
Na25 O126 2.365259 1_565
Na25 O77 2.568041 1_554
Na25 O71 2.605574 1_555
Na25 O23 2.723524 1_555
Na25 O36 2.769879 1_565
Na25 O47 2.833359 1_555
Na26 O72 2.365496 1_555
Na26 O130 2.430796 1_555
Na26 O18 2.480527 1_555
Na26 O58 2.492836 1_555
Na26 O66 2.509444 1_555
Na26 O40 2.871271 1_554
Na26 O42 2.901567 1_555
Na27 O83 2.365496 1_556
Na27 O121 2.430796 1_555
Na27 O17 2.480527 1_555
Na27 O49 2.492836 1_555
Na27 O65 2.509444 1_555
Na27 O43 2.871271 1_555
Na27 O41 2.901567 1_555
Na28 O53 2.344627 1_545
Na28 O125 2.365259 1_545
Na28 O78 2.568041 1_555
Na28 O60 2.605574 1_555
Na28 O12 2.723524 1_555
Na28 O47 2.769879 1_546
Na28 O36 2.833359 1_555
Na29 O123 2.360888 1_555
Na29 O51 2.452852 1_555
Na29 O61 2.519190 1_555
Na29 O79 2.555138 1_555
Na29 O37 2.725401 1_555
Na29 O13 2.766371 1_555
Na29 O45 2.800600 1_556
Na30 O138 2.360888 1_555
Na30 O66 2.452852 1_555
Na30 O57 2.519190 1_555
Na30 O87 2.555138 1_554
Na30 O33 2.725401 1_555
Na30 O9 2.766371 1_555
Na30 O24 2.800600 1_555
Na31 O67 2.344627 1_555
Na31 O139 2.365259 1_555
Na31 O88 2.568041 1_554
Na31 O58 2.605574 1_555
Na31 O10 2.723524 1_555
Na31 O25 2.769879 1_555
Na31 O34 2.833359 1_555
Na32 O86 2.365496 1_555
Na32 O143 2.430796 1_555
Na32 O8 2.480527 1_555
Na32 O71 2.492836 1_555
Na32 O56 2.509444 1_555
Na32 O29 2.871271 1_554
Na32 O32 2.901567 1_555
Na33 O93 2.365496 1_556
Na33 O132 2.430796 1_555
Na33 O3 2.480527 1_555
Na33 O60 2.492836 1_555
Na33 O51 2.509444 1_555
Na33 O30 2.871271 1_555
Na33 O27 2.901567 1_555
Na34 O64 2.344627 1_555
Na34 O136 2.365259 1_555
Na34 O91 2.568041 1_555
Na34 O49 2.605574 1_555
Na34 O1 2.723524 1_555
Na34 O34 2.769879 1_556
Na34 O25 2.833359 1_555
Na35 O137 2.360888 1_555
Na35 O65 2.452852 1_555
Na35 O50 2.519190 1_555
Na35 O92 2.555138 1_555
Na35 O26 2.725401 1_555
Na35 O2 2.766371 1_555
Na35 O35 2.800600 1_556
Ga0 O93 1.908613 1_556
Ga0 O114 1.948502 1_656
Ga0 O45 1.989777 1_556
Ga0 O3 2.028534 1_555
Ga0 O51 2.062566 1_555
Ga0 O123 2.192793 1_555
Ga1 O94 1.883380 1_556
Ga1 O52 1.962560 1_555
Ga1 O4 1.978991 1_555
Ga1 O115 1.995542 1_656
Ga1 O46 2.031657 1_556
Ga1 O124 2.181985 1_555
Ga2 O95 1.874308 1_556
Ga2 O116 1.947062 1_656
Ga2 O5 1.965949 1_555
Ga2 O53 2.022456 1_555
Ga2 O47 2.064272 1_556
Ga2 O125 2.277750 1_555
Ga3 O84 1.874308 1_555
Ga3 O111 1.947062 1_655
Ga3 O6 1.965949 1_555
Ga3 O54 2.022456 1_555
Ga3 O36 2.064272 1_555
Ga3 O126 2.277750 1_555
Ga4 O85 1.883380 1_555
Ga4 O55 1.962560 1_555
Ga4 O7 1.978991 1_555
Ga4 O112 1.995542 1_655
Ga4 O37 2.031657 1_555
Ga4 O127 2.181985 1_555
Ga5 O86 1.908613 1_555
Ga5 O113 1.948502 1_655
Ga5 O38 1.989777 1_555
Ga5 O8 2.028534 1_555
Ga5 O56 2.062566 1_555
Ga5 O128 2.192793 1_555
Ga6 O81 1.883380 1_556
Ga6 O63 1.962560 1_555
Ga6 O15 1.978991 1_555
Ga6 O102 1.995542 1_556
Ga6 O33 2.031657 1_556
Ga6 O135 2.181985 1_555
Ga7 O82 1.874308 1_556
Ga7 O103 1.947062 1_556
Ga7 O16 1.965949 1_555
Ga7 O64 2.022456 1_555
Ga7 O34 2.064272 1_556
Ga7 O136 2.277750 1_555
Ga8 O83 1.908613 1_556
Ga8 O104 1.948502 1_556
Ga8 O35 1.989777 1_556
Ga8 O17 2.028534 1_555
Ga8 O65 2.062566 1_555
Ga8 O137 2.192793 1_555
Ga9 O72 1.908613 1_555
Ga9 O99 1.948502 1_555
Ga9 O24 1.989777 1_555
Ga9 O18 2.028534 1_555
Ga9 O66 2.062566 1_555
Ga9 O138 2.192793 1_555
Ga10 O73 1.874308 1_555
Ga10 O100 1.947062 1_555
Ga10 O19 1.965949 1_555
Ga10 O67 2.022456 1_555
Ga10 O25 2.064272 1_555
Ga10 O139 2.277750 1_555
Ga11 O74 1.883380 1_555
Ga11 O68 1.962560 1_555
Ga11 O20 1.978991 1_555
Ga11 O101 1.995542 1_555
Ga11 O26 2.031657 1_555
Ga11 O140 2.181985 1_555
O0 Si15 1.691205 1_555
O0 Ta0 1.975530 1_555
O1 Si16 1.705074 1_555
O1 Ta1 2.004009 1_555
O2 Si17 1.664341 1_555
O2 Ta2 2.013352 1_555
O3 Si12 1.626148 1_555
O4 Si13 1.605503 1_555
O5 Si14 1.628441 1_555
O6 Si21 1.628441 1_555
O7 Si22 1.605503 1_555
O8 Si23 1.626148 1_555
O9 Si18 1.664341 1_555
O9 Ta3 2.013352 1_555
O10 Si19 1.705074 1_555
O10 Ta4 2.004009 1_555
O11 Si20 1.691205 1_555
O11 Ta5 1.975530 1_555
O12 Si5 1.705074 1_545
O12 Ta6 2.004009 1_555
O13 Si3 1.664341 1_555
O13 Ta7 2.013352 1_555
O14 Si4 1.691205 1_555
O14 Ta8 1.975530 1_555
O15 Si2 1.605503 1_545
O16 Si0 1.628441 1_555
O17 Si1 1.626148 1_555
O18 Si10 1.626148 1_555
O19 Si11 1.628441 1_555
O20 Si9 1.605503 1_565
O21 Si7 1.691205 1_555
O21 Ta9 1.975530 1_555
O22 Si8 1.664341 1_555
O22 Ta10 2.013352 1_555
O23 Si6 1.705074 1_565
O23 Ta11 2.004009 1_555
O24 P6 1.527588 1_555
O25 P7 1.523423 1_555
O26 P8 1.512680 1_555
O27 P6 1.557624 1_555
O27 Ta9 2.045039 1_556
O28 P7 1.570174 1_555
O28 Ta10 1.976964 1_556
O29 P8 1.582648 1_555
O29 Ta11 2.016205 1_556
O30 P9 1.582648 1_555
O30 Ta6 2.016205 1_555
O31 P10 1.570174 1_555
O31 Ta7 1.976964 1_555
O32 P11 1.557624 1_555
O32 Ta8 2.045039 1_555
O33 P9 1.512680 1_555
O34 P10 1.523423 1_555
O35 P11 1.527588 1_555
O36 P2 1.523423 1_545
O37 P0 1.512680 1_655
O38 P1 1.527588 1_555
O39 P2 1.570174 1_445
O39 Ta3 1.976964 1_556
O40 P0 1.582648 1_555
O40 Ta4 2.016205 1_556
O41 P1 1.557624 1_455
O41 Ta5 2.045039 1_556
O42 P4 1.557624 1_455
O42 Ta0 2.045039 1_555
O43 P5 1.582648 1_555
O43 Ta1 2.016205 1_555
O44 P3 1.570174 1_465
O44 Ta2 1.976964 1_555
O45 P4 1.527588 1_555
O46 P5 1.512680 1_655
O47 P3 1.523423 1_565
O48 Si0 1.650882 1_555
O48 Ta0 1.961562 1_555
O49 Si1 1.669120 1_555
O49 Ta1 2.030559 1_555
O50 Si2 1.660394 1_555
O50 Ta2 1.981543 1_555
O51 Si3 1.625539 1_555
O52 Si4 1.597062 1_555
O53 Si5 1.617018 1_555
O54 Si6 1.617018 1_555
O55 Si7 1.597062 1_555
O56 Si8 1.625539 1_555
O57 Si9 1.660394 1_555
O57 Ta3 1.981543 1_555
O58 Si10 1.669120 1_555
O58 Ta4 2.030559 1_555
O59 Si11 1.650882 1_555
O59 Ta5 1.961562 1_555
O60 Si12 1.669120 1_555
O60 Ta6 2.030559 1_555
O61 Si13 1.660394 1_555
O61 Ta7 1.981543 1_555
O62 Si14 1.650882 1_555
O62 Ta8 1.961562 1_555
O63 Si15 1.597062 1_555
O64 Si16 1.617018 1_555
O65 Si17 1.625539 1_555
O66 Si18 1.625539 1_555
O67 Si19 1.617018 1_555
O68 Si20 1.597062 1_555
O69 Si21 1.650882 1_555
O69 Ta9 1.961562 1_555
O70 Si22 1.660394 1_555
O70 Ta10 1.981543 1_555
O71 Si23 1.669120 1_555
O71 Ta11 2.030559 1_555
O72 Si0 1.623797 1_555
O73 Si1 1.596514 1_555
O74 Si2 1.593024 1_555
O75 Si3 1.667396 1_555
O75 Ta9 1.913292 1_556
O76 Si4 1.694401 1_555
O76 Ta10 1.922928 1_556
O77 Si5 1.693647 1_555
O77 Ta11 1.931298 1_556
O78 Si6 1.693647 1_555
O78 Ta6 1.931298 1_555
O79 Si7 1.694401 1_555
O79 Ta7 1.922928 1_555
O80 Si8 1.667396 1_555
O80 Ta8 1.913292 1_555
O81 Si9 1.593024 1_555
O82 Si10 1.596514 1_555
O83 Si11 1.623797 1_555
O84 Si12 1.596514 1_555
O85 Si13 1.593024 1_555
O86 Si14 1.623797 1_555
O87 Si15 1.694401 1_555
O87 Ta3 1.922928 1_556
O88 Si16 1.693647 1_555
O88 Ta4 1.931298 1_556
O89 Si17 1.667396 1_555
O89 Ta5 1.913292 1_556
O90 Si18 1.667396 1_555
O90 Ta0 1.913292 1_555
O91 Si19 1.693647 1_555
O91 Ta1 1.931298 1_555
O92 Si20 1.694401 1_555
O92 Ta2 1.922928 1_555
O93 Si21 1.623797 1_555
O94 Si22 1.593024 1_555
O95 Si23 1.596514 1_555
O96 Si0 1.656364 1_555
O96 Ta9 1.975372 1_556
O97 Si1 1.664920 1_555
O97 Ta10 1.980434 1_556
O98 Si2 1.694193 1_555
O98 Ta11 1.932629 1_556
O99 Si3 1.618732 1_555
O100 Si4 1.612847 1_555
O101 Si5 1.601755 1_555
O102 Si6 1.601755 1_555
O103 Si7 1.612847 1_555
O104 Si8 1.618732 1_555
O105 Si9 1.694193 1_555
O105 Ta6 1.932629 1_555
O106 Si10 1.664920 1_555
O106 Ta7 1.980434 1_555
O107 Si11 1.656364 1_555
O107 Ta8 1.975372 1_555
O108 Si12 1.664920 1_555
O108 Ta3 1.980434 1_656
O109 Si13 1.694193 1_555
O109 Ta4 1.932629 1_656
O110 Si14 1.656364 1_555
O110 Ta5 1.975372 1_656
O111 Si15 1.612847 1_555
O112 Si16 1.601755 1_555
O113 Si17 1.618732 1_555
O114 Si18 1.618732 1_555
O115 Si19 1.601755 1_555
O116 Si20 1.612847 1_555
O117 Si21 1.656364 1_555
O117 Ta0 1.975372 1_655
O118 Si22 1.694193 1_555
O118 Ta1 1.932629 1_655
O119 Si23 1.664920 1_555
O119 Ta2 1.980434 1_655
O120 P0 1.558998 1_555
O120 Ta0 2.105317 1_555
O121 P1 1.602889 1_455
O121 Ta1 2.095898 1_555
O122 P2 1.562149 1_455
O122 Ta2 2.074568 1_555
O123 P0 1.548275 1_655
O124 P1 1.523570 1_555
O125 P2 1.535730 1_555
O126 P3 1.535730 1_555
O127 P4 1.523570 1_555
O128 P5 1.548275 1_655
O129 P3 1.562149 1_455
O129 Ta3 2.074568 1_555
O130 P4 1.602889 1_455
O130 Ta4 2.095898 1_555
O131 P5 1.558998 1_555
O131 Ta5 2.105317 1_555
O132 P6 1.602889 1_555
O132 Ta6 2.095898 1_555
O133 P7 1.562149 1_555
O133 Ta7 2.074568 1_555
O134 P8 1.558998 1_555
O134 Ta8 2.105317 1_555
O135 P6 1.523570 1_555
O136 P7 1.535730 1_555
O137 P8 1.548275 1_555
O138 P9 1.548275 1_555
O139 P10 1.535730 1_555
O140 P11 1.523570 1_555
O141 P9 1.558998 1_555
O141 Ta9 2.105317 1_555
O142 P10 1.562149 1_555
O142 Ta10 2.074568 1_555
O143 P11 1.602889 1_555
O143 Ta11 2.095898 1_555
