# generated using pymatgen
data_Cr2P5O16
_symmetry_space_group_name_H-M   'P 1'
_cell_length_a   6.76677600
_cell_length_b   5.06529300
_cell_length_c   18.81527738
_cell_angle_alpha   89.95667023
_cell_angle_beta   90.00000000
_cell_angle_gamma   90.00000000
_symmetry_Int_Tables_number   1
_chemical_formula_structural   Cr2P5O16
_chemical_formula_sum   'Cr4 P10 O32'
_cell_volume   644.90667692
_cell_formula_units_Z   2
loop_
 _symmetry_equiv_pos_site_id
 _symmetry_equiv_pos_as_xyz
  1  'x, y, z'
loop_
 _atom_site_type_symbol
 _atom_site_label
 _atom_site_symmetry_multiplicity
 _atom_site_fract_x
 _atom_site_fract_y
 _atom_site_fract_z
 _atom_site_occupancy
  Cr  Cr0  1  0.18026200  0.74380200  0.40671300  1
  Cr  Cr1  1  0.81973800  0.74380200  0.90671300  1
  Cr  Cr2  1  0.81973800  0.25619800  0.59328700  1
  Cr  Cr3  1  0.18026200  0.25619800  0.09328700  1
  P  P0  1  0.74080800  0.00000000  0.75000000  1
  P  P1  1  0.12360000  0.76263800  0.57787600  1
  P  P2  1  0.25919200  0.00000000  0.25000000  1
  P  P3  1  0.45985300  0.25186200  0.37088400  1
  P  P4  1  0.54014700  0.74813800  0.62911600  1
  P  P5  1  0.87640000  0.23736200  0.42212400  1
  P  P6  1  0.45985300  0.74813800  0.12911600  1
  P  P7  1  0.12360000  0.23736200  0.92212400  1
  P  P8  1  0.87640000  0.76263800  0.07787600  1
  P  P9  1  0.54014700  0.25186200  0.87088400  1
  O  O0  1  0.79428700  0.33702500  0.49254100  1
  O  O1  1  0.97685700  0.58073600  0.61411600  1
  O  O2  1  0.69218000  0.78757700  0.13275900  1
  O  O3  1  0.02314300  0.41926400  0.38588400  1
  O  O4  1  0.36105300  0.05247600  0.41852800  1
  O  O5  1  0.97685700  0.41926400  0.88588400  1
  O  O6  1  0.42212900  0.45942600  0.11434900  1
  O  O7  1  0.05390500  0.05151600  0.57191900  1
  O  O8  1  0.42212900  0.54057400  0.38565100  1
  O  O9  1  0.85608200  0.84520900  0.80410700  1
  O  O10  1  0.69218000  0.21242300  0.36724100  1
  O  O11  1  0.40917500  0.19875200  0.28863600  1
  O  O12  1  0.94609500  0.94848400  0.42808100  1
  O  O13  1  0.94609500  0.05151600  0.07191900  1
  O  O14  1  0.20571300  0.66297500  0.50745900  1
  O  O15  1  0.02314300  0.58073600  0.11411600  1
  O  O16  1  0.20571300  0.33702500  0.99254100  1
  O  O17  1  0.14391800  0.84520900  0.30410700  1
  O  O18  1  0.30782000  0.78757700  0.63275900  1
  O  O19  1  0.85608200  0.15479100  0.69589300  1
  O  O20  1  0.57787100  0.54057400  0.88565100  1
  O  O21  1  0.59082500  0.80124800  0.71136400  1
  O  O22  1  0.40917500  0.80124800  0.21136400  1
  O  O23  1  0.05390500  0.94848400  0.92808100  1
  O  O24  1  0.63894700  0.05247600  0.91852800  1
  O  O25  1  0.36105300  0.94752400  0.08147200  1
  O  O26  1  0.57787100  0.45942600  0.61434900  1
  O  O27  1  0.30782000  0.21242300  0.86724100  1
  O  O28  1  0.14391800  0.15479100  0.19589300  1
  O  O29  1  0.63894700  0.94752400  0.58147200  1
  O  O30  1  0.79428700  0.66297500  0.00745900  1
  O  O31  1  0.59082500  0.19875200  0.78863600  1
loop_
_geom_bond_atom_site_label_1
_geom_bond_atom_site_label_2
_geom_bond_distance
_geom_bond_site_symmetry_2
Cr0 O12 1.935972 1_455
Cr0 O14 1.946604 1_555
Cr0 O8 1.973829 1_555
Cr0 O3 1.996816 1_555
Cr0 O4 1.997797 1_565
Cr0 O17 2.012433 1_555
Cr1 O23 1.935972 1_655
Cr1 O30 1.946604 1_556
Cr1 O20 1.973829 1_555
Cr1 O5 1.996816 1_555
Cr1 O24 1.997797 1_565
Cr1 O9 2.012433 1_555
Cr2 O7 1.935972 1_655
Cr2 O0 1.946604 1_555
Cr2 O26 1.973829 1_555
Cr2 O1 1.996816 1_555
Cr2 O29 1.997797 1_545
Cr2 O19 2.012433 1_555
Cr3 O13 1.935972 1_455
Cr3 O16 1.946604 1_554
Cr3 O6 1.973829 1_555
Cr3 O15 1.996816 1_555
Cr3 O25 1.997797 1_545
Cr3 O28 2.012433 1_555
O0 P5 1.523153 1_555
O1 P1 1.516228 1_655
O2 P6 1.586235 1_555
O2 P8 1.623714 1_555
O3 P5 1.516228 1_455
O4 P3 1.506384 1_555
O5 P7 1.516228 1_655
O6 P6 1.510503 1_555
O7 P1 1.541375 1_545
O8 P3 1.510503 1_555
O9 P0 1.502797 1_565
O10 P3 1.586235 1_555
O10 P5 1.623714 1_555
O11 P2 1.604090 1_555
O11 P3 1.607922 1_555
O12 P5 1.541375 1_565
O13 P8 1.541375 1_545
O14 P1 1.523153 1_555
O15 P8 1.516228 1_455
O16 P7 1.523153 1_555
O17 P2 1.502797 1_565
O18 P4 1.586235 1_555
O18 P1 1.623714 1_555
O19 P0 1.502797 1_555
O20 P9 1.510503 1_555
O21 P0 1.604090 1_565
O21 P4 1.607922 1_555
O22 P2 1.604090 1_565
O22 P6 1.607922 1_555
O23 P7 1.541375 1_565
O24 P9 1.506384 1_555
O25 P6 1.506384 1_555
O26 P4 1.510503 1_555
O27 P9 1.586235 1_555
O27 P7 1.623714 1_555
O28 P2 1.502797 1_555
O29 P4 1.506384 1_555
O30 P8 1.523153 1_555
O31 P0 1.604090 1_555
O31 P9 1.607922 1_555
