# generated using pymatgen
data_Na2Ca5Ge3(SO4)12
_symmetry_space_group_name_H-M   'P 1'
_cell_length_a   17.69109274
_cell_length_b   8.88756754
_cell_length_c   23.21372861
_cell_angle_alpha   90.25876347
_cell_angle_beta   89.88337614
_cell_angle_gamma   120.20451288
_symmetry_Int_Tables_number   1
_chemical_formula_structural   Na2Ca5Ge3(SO4)12
_chemical_formula_sum   'Na6 Ca15 Ge9 S36 O144'
_cell_volume   3154.35066365
_cell_formula_units_Z   3
loop_
 _symmetry_equiv_pos_site_id
 _symmetry_equiv_pos_as_xyz
  1  'x, y, z'
loop_
 _atom_site_type_symbol
 _atom_site_label
 _atom_site_symmetry_multiplicity
 _atom_site_fract_x
 _atom_site_fract_y
 _atom_site_fract_z
 _atom_site_occupancy
  Na  Na0  1  0.00024466  -0.00023748  0.50195114  1
  Na  Na1  1  0.50239054  0.00595034  0.00132178  1
  Na  Na2  1  0.33457742  0.33406130  0.82782538  1
  Na  Na3  1  0.83368866  0.33295151  0.83104237  1
  Na  Na4  1  0.33568708  0.33896456  0.33486270  1
  Na  Na5  1  0.83239293  0.33009432  0.33368308  1
  Ca  Ca0  1  0.00611593  0.00404751  0.35721714  1
  Ca  Ca1  1  0.50090735  0.00043098  0.85779571  1
  Ca  Ca2  1  0.00027084  0.99914590  0.64363558  1
  Ca  Ca3  1  0.50258488  0.00505504  0.14504576  1
  Ca  Ca4  1  0.32757971  0.32855317  0.67708847  1
  Ca  Ca5  1  0.83886291  0.33962133  0.67931872  1
  Ca  Ca6  1  0.82643949  0.32480516  0.17827373  1
  Ca  Ca7  1  0.32440830  0.32734414  0.98340249  1
  Ca  Ca8  1  0.84226333  0.33902621  0.98602683  1
  Ca  Ca9  1  0.34251518  0.34493509  0.48653519  1
  Ca  Ca10  1  0.82506089  0.32270071  0.48618212  1
  Ca  Ca11  1  0.16278597  0.66618881  0.30489048  1
  Ca  Ca12  1  0.67088685  0.66347726  0.30609119  1
  Ca  Ca13  1  0.17337283  0.67653091  0.80506792  1
  Ca  Ca14  1  0.65964297  0.65586269  0.80446388  1
  Ge  Ge0  1  0.49921142  0.99326394  0.35663344  1
  Ge  Ge1  1  0.99776990  0.99850588  0.85128153  1
  Ge  Ge2  1  0.49978939  0.99886527  0.64926625  1
  Ge  Ge3  1  0.00037325  0.00284624  0.14905044  1
  Ge  Ge4  1  0.33599393  0.33462841  0.18030166  1
  Ge  Ge5  1  0.15798654  0.67597403  0.01202364  1
  Ge  Ge6  1  0.67968004  0.67283579  0.01221438  1
  Ge  Ge7  1  0.16997584  0.66649544  0.51737539  1
  Ge  Ge8  1  0.66168437  0.66822422  0.51952498  1
  S  S0  1  0.15234010  0.02208802  0.24004109  1
  S  S1  1  0.64336917  0.01662799  0.25809024  1
  S  S2  1  0.36089776  0.69338001  0.25024642  1
  S  S3  1  0.86311515  0.71732103  0.24439064  1
  S  S4  1  0.99604790  0.27753323  0.24489198  1
  S  S5  1  0.48493467  0.27684808  0.25040132  1
  S  S6  1  0.14418676  0.27027572  0.75757749  1
  S  S7  1  0.64233989  0.27722944  0.74438177  1
  S  S8  1  0.99139216  0.71116983  0.75684439  1
  S  S9  1  0.49573114  0.71485920  0.74467186  1
  S  S10  1  0.36194258  0.00855776  0.74455770  1
  S  S11  1  0.86281170  0.01671375  0.75679392  1
  S  S12  1  0.49292544  0.32860392  0.58264239  1
  S  S13  1  0.99681080  0.35273580  0.57657718  1
  S  S14  1  0.18140872  0.01094897  0.57421762  1
  S  S15  1  0.66983841  0.00818319  0.58427507  1
  S  S16  1  0.33541183  0.65869316  0.58325681  1
  S  S17  1  0.82300968  0.64035159  0.57579577  1
  S  S18  1  0.48599689  0.61668458  0.08356831  1
  S  S19  1  0.99373887  0.65644169  0.08279194  1
  S  S20  1  0.32224536  0.02435017  0.08163292  1
  S  S21  1  0.83536432  0.01195969  0.08309373  1
  S  S22  1  0.17957214  0.33362373  0.08945924  1
  S  S23  1  0.68102734  0.35221659  0.07418555  1
  S  S24  1  0.30705264  0.67647554  0.92482109  1
  S  S25  1  0.82013029  0.68402698  0.91342271  1
  S  S26  1  0.02637415  0.36557865  0.91541045  1
  S  S27  1  0.52627959  0.38215915  0.92305340  1
  S  S28  1  0.15442599  0.95036917  0.91448158  1
  S  S29  1  0.66583194  0.94525883  0.92389418  1
  S  S30  1  0.31925426  0.95552588  0.41263730  1
  S  S31  1  0.80818948  0.94246204  0.42259303  1
  S  S32  1  0.16773928  0.38582436  0.42199407  1
  S  S33  1  0.65553613  0.35875685  0.41402467  1
  S  S34  1  0.02576219  0.66893366  0.42194103  1
  S  S35  1  0.52433551  0.68410592  0.41466155  1
  O  O0  1  0.12047520  0.05746250  0.29350669  1
  O  O1  1  0.59755366  0.04653205  0.31173891  1
  O  O2  1  0.41764769  0.77035085  0.30430755  1
  O  O3  1  0.91513459  0.80183042  0.29563962  1
  O  O4  1  0.46768066  0.16607290  0.30349666  1
  O  O5  1  0.98752916  0.17674328  0.29640437  1
  O  O6  1  0.10117063  0.15702395  0.81252444  1
  O  O7  1  0.60207768  0.17817640  0.79660006  1
  O  O8  1  0.48624600  0.79479932  0.79717647  1
  O  O9  1  0.97743749  0.79621279  0.81212605  1
  O  O10  1  0.41099574  0.02541008  0.79691794  1
  O  O11  1  0.92032592  0.04691953  0.81209590  1
  O  O12  1  0.40786782  0.99654129  0.68995188  1
  O  O13  1  0.90572654  0.00464835  0.70526766  1
  O  O14  1  0.09692924  0.18550893  0.70549834  1
  O  O15  1  0.58947110  0.18503187  0.68986075  1
  O  O16  1  -0.00315387  0.80674489  0.70526919  1
  O  O17  1  0.50253141  0.81979219  0.69057311  1
  O  O18  1  0.39993737  0.79497181  0.19925050  1
  O  O19  1  0.90867668  0.82024653  0.18896710  1
  O  O20  1  0.00471158  0.18780111  0.19009493  1
  O  O21  1  0.49755170  0.20167246  0.19873713  1
  O  O22  1  0.09369363  0.99464793  0.18952380  1
  O  O23  1  0.59727266  0.00621281  0.20538644  1
  O  O24  1  0.45669818  0.36860776  0.63292674  1
  O  O25  1  0.95907232  0.37560221  0.63003331  1
  O  O26  1  0.22889137  0.08425304  0.62817735  1
  O  O27  1  0.72708595  0.08184333  0.63406214  1
  O  O28  1  0.31433715  0.54887851  0.63413012  1
  O  O29  1  0.81246993  0.54025208  0.62825712  1
  O  O30  1  0.44178326  0.50144727  0.13987944  1
  O  O31  1  0.95749690  0.54479397  0.13289417  1
  O  O32  1  0.30824840  0.10923109  0.13579074  1
  O  O33  1  0.81479376  0.07927151  0.13458558  1
  O  O34  1  0.24267559  0.37308113  0.14045985  1
  O  O35  1  0.72802202  0.37431136  0.12835254  1
  O  O36  1  0.21136101  0.28682203  0.03880561  1
  O  O37  1  0.72416468  0.32698943  0.02464089  1
  O  O38  1  0.42918641  0.53515977  0.03458266  1
  O  O39  1  0.94069450  0.59034119  0.03109144  1
  O  O40  1  0.33881562  0.13193910  0.03126241  1
  O  O41  1  0.85598223  0.12498628  0.03332477  1
  O  O42  1  0.22379927  0.12336153  0.52466416  1
  O  O43  1  0.70370593  0.11294145  0.53254122  1
  O  O44  1  0.35698528  0.58740358  0.53325068  1
  O  O45  1  0.83477591  0.55945718  0.52428691  1
  O  O46  1  0.43857608  0.28649678  0.53132869  1
  O  O47  1  0.94211110  0.32994926  0.52650187  1
  O  O48  1  0.25968556  0.69337145  0.98055514  1
  O  O49  1  0.78060395  0.71259668  0.96915283  1
  O  O50  1  0.07921455  0.44905964  0.97252926  1
  O  O51  1  0.58322180  0.47960358  0.97620651  1
  O  O52  1  0.14095578  0.84255425  0.97042100  1
  O  O53  1  0.65888556  0.84031702  0.98020301  1
  O  O54  1  0.28067550  0.85074453  0.46605790  1
  O  O55  1  0.76026404  0.83480907  0.47734936  1
  O  O56  1  0.16243543  0.47732144  0.47752726  1
  O  O57  1  0.64290612  0.43987189  0.46742870  1
  O  O58  1  0.08260771  0.68470012  0.47418245  1
  O  O59  1  0.57522395  0.70977887  0.47044055  1
  O  O60  1  0.06687235  0.66186927  0.36818513  1
  O  O61  1  0.56648143  0.66243168  0.36474089  1
  O  O62  1  0.26733005  0.87811448  0.36118460  1
  O  O63  1  0.76143379  0.85535868  0.37049487  1
  O  O64  1  0.17064861  0.48081636  0.37062588  1
  O  O65  1  0.66913459  0.46095908  0.36243978  1
  O  O66  1  0.06889868  0.47573947  0.86659223  1
  O  O67  1  0.56767168  0.47212794  0.87012818  1
  O  O68  1  0.16922513  0.86807946  0.86570812  1
  O  O69  1  0.66925721  0.85615736  0.87255686  1
  O  O70  1  0.26107190  0.67019634  0.87273888  1
  O  O71  1  0.76431264  0.65464365  0.86451450  1
  O  O72  1  0.01914510  0.82782439  0.42497920  1
  O  O73  1  0.51875276  0.85001998  0.40996666  1
  O  O74  1  0.40741716  0.95742790  0.40622007  1
  O  O75  1  0.89502158  0.95842236  0.42548763  1
  O  O76  1  0.08779015  0.21346768  0.42520536  1
  O  O77  1  0.56926564  0.18356699  0.40804859  1
  O  O78  1  0.02130553  0.19093569  0.91104082  1
  O  O79  1  0.51851430  0.20941197  0.92628771  1
  O  O80  1  0.07176080  0.95787887  0.91017465  1
  O  O81  1  0.58622818  0.95829293  0.92730187  1
  O  O82  1  0.39414837  0.83259370  0.92868743  1
  O  O83  1  0.90707483  0.85280657  0.90889037  1
  O  O84  1  0.51088990  0.18256133  0.59402010  1
  O  O85  1  0.01221000  0.20492191  0.57967517  1
  O  O86  1  0.09032769  0.97140754  0.57779216  1
  O  O87  1  0.57920794  0.97978509  0.59521524  1
  O  O88  1  0.41139256  0.84088046  0.59448487  1
  O  O89  1  0.89594996  0.82078707  0.57978906  1
  O  O90  1  0.49621366  0.78994597  0.09130983  1
  O  O91  1  0.01221827  0.83887566  0.09412773  1
  O  O92  1  0.39592180  0.99588903  0.08982784  1
  O  O93  1  0.91286173  0.98468314  0.09330888  1
  O  O94  1  0.08977442  0.17639166  0.10128094  1
  O  O95  1  0.59012665  0.20654201  0.07716277  1
  O  O96  1  0.35326200  0.16426854  0.73998307  1
  O  O97  1  0.85413557  0.17324414  0.75634251  1
  O  O98  1  0.23216685  0.28987763  0.75763825  1
  O  O99  1  0.72916006  0.29503895  0.73870036  1
  O  O100  1  0.41734472  0.54096694  0.73932220  1
  O  O101  1  0.91272723  0.53624962  0.75672619  1
  O  O102  1  0.35385633  0.51295643  0.24320467  1
  O  O103  1  0.85392611  0.54410721  0.23934486  1
  O  O104  1  0.39946665  0.28543936  0.24271956  1
  O  O105  1  0.91691944  0.29104075  0.23921513  1
  O  O106  1  0.24066923  0.18900302  0.23095096  1
  O  O107  1  0.73086495  0.17409509  0.25887056  1
  O  O108  1  0.31238226  0.51829619  0.92865074  1
  O  O109  1  0.83412226  0.53679805  0.92169499  1
  O  O110  1  0.44010422  0.36771229  0.92777684  1
  O  O111  1  0.93829611  0.34006481  0.92188943  1
  O  O112  1  0.22993488  0.12439784  0.92198958  1
  O  O113  1  0.74471203  0.11765967  0.92815788  1
  O  O114  1  0.33732643  0.13481941  0.41926106  1
  O  O115  1  0.81505843  0.11346879  0.42624210  1
  O  O116  1  0.24615060  0.36932538  0.42544060  1
  O  O117  1  0.72851047  0.32558895  0.41981537  1
  O  O118  1  0.43529891  0.53544597  0.41971700  1
  O  O119  1  0.93898341  0.51235953  0.42602988  1
  O  O120  1  0.16947021  0.48663167  0.08137940  1
  O  O121  1  0.67969422  0.52206829  0.06743495  1
  O  O122  1  0.08250850  0.66547747  0.07122686  1
  O  O123  1  0.57193647  0.62961205  0.07866349  1
  O  O124  1  0.23948850  0.85017197  0.07422711  1
  O  O125  1  0.75582251  0.83457500  0.07109407  1
  O  O126  1  0.18182455  0.84125289  0.56673035  1
  O  O127  1  0.65723203  0.82643953  0.57386922  1
  O  O128  1  0.25723679  0.67848575  0.57059994  1
  O  O129  1  0.73845700  0.64753685  0.57036072  1
  O  O130  1  0.08606351  0.51857350  0.57147888  1
  O  O131  1  0.58109517  0.49144213  0.57028479  1
  O  O132  1  0.16474977  0.87349917  0.24296683  1
  O  O133  1  0.64768793  0.86008829  0.26539804  1
  O  O134  1  0.27388257  0.66503786  0.25962793  1
  O  O135  1  0.77846499  0.70774352  0.24442012  1
  O  O136  1  0.07511120  0.44809480  0.24489412  1
  O  O137  1  0.55689170  0.45262851  0.25883552  1
  O  O138  1  0.14818993  0.43600313  0.76424215  1
  O  O139  1  0.64722367  0.44586230  0.74444459  1
  O  O140  1  0.07046881  0.70272215  0.76344944  1
  O  O141  1  0.57573246  0.70573074  0.74452556  1
  O  O142  1  0.27694877  0.84886117  0.74342831  1
  O  O143  1  0.77949787  0.85922849  0.76435727  1
loop_
_geom_bond_atom_site_label_1
_geom_bond_atom_site_label_2
_geom_bond_distance
_geom_bond_site_symmetry_2
Na0 O75 2.463787 1_445
Na0 O86 2.474339 1_545
Na0 O72 2.475201 1_545
Na0 O85 2.491653 1_555
Na0 O76 2.497920 1_555
Na0 O89 2.501762 1_445
Na1 O95 2.426013 1_555
Na1 O79 2.427470 1_554
Na1 O82 2.429984 1_544
Na1 O81 2.438616 1_544
Na1 O92 2.755610 1_545
Na1 O90 2.808088 1_545
Na2 O98 2.319846 1_555
Na2 O96 2.648766 1_555
Na2 O100 2.656899 1_555
Na2 O112 2.868262 1_555
Na2 O110 2.899625 1_555
Na2 O108 2.986955 1_555
Na3 O97 2.375788 1_555
Na3 O101 2.381649 1_555
Na3 O99 2.740596 1_555
Na3 O109 2.768104 1_555
Na3 O111 2.788048 1_555
Na3 O113 2.866241 1_555
Na4 O102 2.559021 1_555
Na4 O104 2.568218 1_555
Na4 O118 2.630906 1_555
Na4 O114 2.686349 1_555
Na4 O116 2.722935 1_555
Na4 O106 2.855495 1_555
Na5 O107 2.376916 1_555
Na5 O117 2.699744 1_555
Na5 O105 2.769052 1_555
Na5 O119 2.772548 1_555
Na5 O115 2.803212 1_555
Na5 O103 2.804273 1_555
Ca0 O3 2.222510 1_445
Ca0 O5 2.232938 1_455
Ca0 O76 2.306445 1_555
Ca0 O72 2.316770 1_545
Ca0 O0 2.352353 1_555
Ca0 O75 2.393747 1_445
Ca1 O7 2.209537 1_555
Ca1 O8 2.211059 1_545
Ca1 O10 2.223473 1_555
Ca1 O79 2.338354 1_555
Ca1 O81 2.367725 1_545
Ca1 O82 2.382273 1_545
Ca2 O14 2.206461 1_565
Ca2 O16 2.211838 1_555
Ca2 O13 2.217840 1_465
Ca2 O89 2.271966 1_455
Ca2 O85 2.286567 1_565
Ca2 O86 2.305900 1_555
Ca3 O21 2.179771 1_555
Ca3 O23 2.181810 1_555
Ca3 O18 2.228791 1_545
Ca3 O90 2.232917 1_545
Ca3 O92 2.250474 1_545
Ca3 O95 2.305107 1_555
Ca4 O100 2.267406 1_555
Ca4 O96 2.271429 1_555
Ca4 O26 2.285436 1_555
Ca4 O28 2.316006 1_555
Ca4 O24 2.360305 1_555
Ca4 O98 2.423407 1_555
Ca5 O99 2.245895 1_555
Ca5 O25 2.289747 1_555
Ca5 O29 2.379411 1_555
Ca5 O101 2.381995 1_555
Ca5 O27 2.385614 1_555
Ca5 O97 2.425766 1_555
Ca6 O103 2.251526 1_555
Ca6 O105 2.269345 1_555
Ca6 O35 2.313360 1_555
Ca6 O33 2.315482 1_555
Ca6 O31 2.399077 1_555
Ca6 O107 2.425790 1_555
Ca7 O40 2.186162 1_556
Ca7 O38 2.191623 1_556
Ca7 O108 2.219169 1_555
Ca7 O112 2.243293 1_555
Ca7 O36 2.247780 1_556
Ca7 O110 2.289107 1_555
Ca8 O37 2.224509 1_556
Ca8 O111 2.253266 1_555
Ca8 O39 2.277804 1_556
Ca8 O113 2.285369 1_555
Ca8 O41 2.316817 1_556
Ca8 O109 2.370608 1_555
Ca9 O42 2.217896 1_555
Ca9 O46 2.266976 1_555
Ca9 O118 2.276848 1_555
Ca9 O44 2.304417 1_555
Ca9 O116 2.312823 1_555
Ca9 O114 2.395056 1_555
Ca10 O45 2.204431 1_555
Ca10 O47 2.245285 1_555
Ca10 O115 2.252090 1_555
Ca10 O43 2.285692 1_555
Ca10 O117 2.312336 1_555
Ca10 O119 2.333367 1_555
Ca11 O60 2.228079 1_555
Ca11 O134 2.231301 1_555
Ca11 O136 2.249889 1_555
Ca11 O62 2.271234 1_555
Ca11 O64 2.305723 1_555
Ca11 O132 2.328436 1_555
Ca12 O133 2.202780 1_555
Ca12 O65 2.217332 1_555
Ca12 O63 2.224298 1_555
Ca12 O137 2.229350 1_555
Ca12 O135 2.251000 1_555
Ca12 O61 2.288645 1_555
Ca13 O138 2.166011 1_555
Ca13 O140 2.176537 1_555
Ca13 O142 2.221743 1_555
Ca13 O70 2.230833 1_555
Ca13 O68 2.233552 1_555
Ca13 O66 2.309557 1_555
Ca14 O143 2.186466 1_555
Ca14 O67 2.230802 1_555
Ca14 O141 2.238753 1_555
Ca14 O139 2.244562 1_555
Ca14 O69 2.316769 1_555
Ca14 O71 2.324446 1_555
Ge0 O1 1.872277 1_565
Ge0 O74 1.881202 1_555
Ge0 O77 1.923487 1_565
Ge0 O73 1.931809 1_555
Ge0 O2 2.142793 1_555
Ge0 O4 2.252431 1_565
Ge1 O11 1.868541 1_565
Ge1 O9 1.877194 1_555
Ge1 O6 1.884728 1_665
Ge1 O83 1.988972 1_555
Ge1 O80 2.049426 1_655
Ge1 O78 2.070536 1_665
Ge2 O15 1.869096 1_565
Ge2 O12 1.870046 1_555
Ge2 O17 1.883194 1_555
Ge2 O87 1.951345 1_555
Ge2 O88 1.953683 1_555
Ge2 O84 2.010971 1_565
Ge3 O20 1.864134 1_555
Ge3 O19 1.866134 1_445
Ge3 O94 1.914137 1_555
Ge3 O22 1.934324 1_545
Ge3 O93 1.962669 1_445
Ge3 O91 2.020533 1_545
Ge4 O106 1.926398 1_555
Ge4 O30 1.948022 1_555
Ge4 O104 2.014390 1_555
Ge4 O102 2.054517 1_555
Ge4 O34 2.067469 1_555
Ge4 O32 2.077384 1_555
Ge5 O48 1.873581 1_554
Ge5 O122 1.883833 1_555
Ge5 O52 1.917871 1_554
Ge5 O50 2.002606 1_554
Ge5 O124 2.074403 1_555
Ge5 O120 2.415569 1_555
Ge6 O121 1.858640 1_555
Ge6 O53 1.861516 1_554
Ge6 O51 1.898460 1_554
Ge6 O49 1.916520 1_554
Ge6 O125 1.946917 1_555
Ge6 O123 2.327407 1_555
Ge7 O126 1.851014 1_555
Ge7 O56 1.860379 1_555
Ge7 O130 1.884975 1_555
Ge7 O58 1.918310 1_555
Ge7 O128 1.939615 1_555
Ge7 O54 2.171941 1_555
Ge8 O129 1.879053 1_555
Ge8 O55 1.897412 1_555
Ge8 O131 1.909366 1_555
Ge8 O127 1.915708 1_555
Ge8 O59 2.086530 1_555
Ge8 O57 2.234465 1_555
O0 S0 1.459109 1_555
O1 S1 1.577410 1_555
O2 S2 1.535312 1_555
O3 S3 1.458523 1_555
O4 S5 1.512835 1_555
O5 S4 1.458823 1_555
O6 S6 1.567206 1_555
O7 S7 1.458400 1_555
O8 S9 1.459374 1_555
O9 S8 1.567404 1_555
O10 S10 1.457659 1_555
O11 S11 1.575682 1_555
O12 S10 1.536301 1_565
O13 S11 1.447637 1_555
O14 S6 1.445766 1_555
O15 S7 1.540255 1_555
O16 S8 1.445858 1_455
O17 S9 1.535711 1_555
O18 S2 1.439623 1_555
O19 S3 1.551228 1_555
O20 S4 1.546165 1_455
O21 S5 1.440940 1_555
O22 S0 1.502970 1_565
O23 S1 1.448283 1_555
O24 S12 1.456776 1_555
O25 S13 1.468938 1_555
O26 S14 1.464707 1_555
O27 S15 1.456312 1_555
O28 S16 1.459009 1_555
O29 S17 1.466723 1_555
O30 S18 1.603556 1_555
O31 S19 1.454530 1_555
O32 S20 1.545671 1_555
O33 S21 1.459428 1_555
O34 S22 1.542282 1_555
O35 S23 1.465818 1_555
O36 S22 1.449204 1_555
O37 S23 1.456601 1_555
O38 S18 1.446609 1_555
O39 S19 1.452463 1_555
O40 S20 1.447121 1_555
O41 S21 1.454991 1_555
O42 S14 1.461776 1_555
O43 S15 1.453948 1_555
O44 S16 1.459276 1_555
O45 S17 1.460053 1_555
O46 S12 1.456721 1_555
O47 S13 1.460813 1_555
O48 S24 1.587167 1_555
O49 S25 1.548907 1_555
O50 S26 1.575043 1_555
O51 S27 1.550769 1_555
O52 S28 1.562513 1_555
O53 S29 1.577540 1_555
O54 S30 1.496109 1_555
O55 S31 1.562161 1_555
O56 S32 1.548790 1_555
O57 S33 1.503127 1_555
O58 S34 1.537307 1_555
O59 S35 1.527924 1_555
O60 S34 1.460006 1_555
O61 S35 1.440465 1_555
O62 S30 1.450835 1_555
O63 S31 1.448253 1_555
O64 S32 1.449985 1_555
O65 S33 1.451094 1_555
O66 S26 1.440221 1_555
O67 S27 1.449515 1_555
O68 S28 1.438510 1_555
O69 S29 1.445841 1_555
O70 S24 1.443699 1_555
O71 S25 1.440390 1_555
O72 S34 1.475890 1_555
O73 S35 1.531022 1_555
O74 S30 1.558103 1_555
O75 S31 1.471562 1_555
O76 S32 1.474169 1_555
O77 S33 1.542974 1_555
O78 S26 1.511978 1_555
O79 S27 1.473243 1_555
O80 S28 1.500680 1_555
O81 S29 1.471914 1_555
O82 S24 1.468229 1_555
O83 S25 1.518656 1_555
O84 S12 1.507967 1_555
O85 S13 1.471818 1_455
O86 S14 1.468573 1_565
O87 S15 1.513502 1_565
O88 S16 1.517974 1_555
O89 S17 1.470508 1_555
O90 S18 1.467569 1_555
O91 S19 1.506054 1_455
O92 S20 1.460222 1_565
O93 S21 1.526741 1_565
O94 S22 1.523090 1_555
O95 S23 1.473959 1_555
O96 S10 1.471476 1_555
O97 S11 1.474457 1_555
O98 S6 1.476519 1_555
O99 S7 1.468441 1_555
O100 S9 1.472933 1_555
O101 S8 1.475359 1_555
O102 S2 1.552503 1_555
O103 S3 1.468569 1_555
O104 S5 1.562443 1_555
O105 S4 1.470169 1_555
O106 S0 1.534956 1_555
O107 S1 1.474834 1_555
O108 S24 1.458658 1_555
O109 S25 1.462430 1_555
O110 S27 1.468064 1_555
O111 S26 1.464875 1_655
O112 S28 1.458326 1_545
O113 S29 1.467196 1_545
O114 S30 1.466434 1_545
O115 S31 1.464543 1_545
O116 S32 1.468810 1_555
O117 S33 1.468201 1_555
O118 S35 1.465326 1_555
O119 S34 1.467445 1_655
O120 S22 1.470826 1_555
O121 S23 1.530322 1_555
O122 S19 1.554466 1_455
O123 S18 1.470146 1_555
O124 S20 1.512489 1_565
O125 S21 1.519422 1_565
O126 S14 1.521078 1_565
O127 S15 1.533423 1_565
O128 S16 1.508930 1_555
O129 S17 1.534424 1_555
O130 S13 1.529293 1_455
O131 S12 1.529830 1_555
O132 S0 1.445463 1_565
O133 S1 1.441995 1_565
O134 S2 1.445540 1_555
O135 S3 1.456588 1_555
O136 S4 1.456336 1_455
O137 S5 1.448009 1_555
O138 S6 1.446186 1_555
O139 S7 1.457178 1_555
O140 S8 1.446676 1_455
O141 S9 1.457810 1_555
O142 S10 1.458962 1_565
O143 S11 1.444902 1_565
