# generated using pymatgen
data_Na10Y4Al4Si5S7O48
_symmetry_space_group_name_H-M   'P 1'
_cell_length_a   17.99006801
_cell_length_b   9.03510376
_cell_length_c   22.66483422
_cell_angle_alpha   89.59059685
_cell_angle_beta   89.09223444
_cell_angle_gamma   120.05417726
_symmetry_Int_Tables_number   1
_chemical_formula_structural   Na10Y4Al4Si5S7O48
_chemical_formula_sum   'Na30 Y12 Al12 Si15 S21 O144'
_cell_volume   3187.80193037
_cell_formula_units_Z   3
loop_
 _symmetry_equiv_pos_site_id
 _symmetry_equiv_pos_as_xyz
  1  'x, y, z'
loop_
 _atom_site_type_symbol
 _atom_site_label
 _atom_site_symmetry_multiplicity
 _atom_site_fract_x
 _atom_site_fract_y
 _atom_site_fract_z
 _atom_site_occupancy
  Na  Na0  1  0.32688939  0.99966036  0.25014188  1
  Na  Na1  1  0.82252621  0.99471914  0.25701613  1
  Na  Na2  1  0.18650706  0.38012370  0.24015927  1
  Na  Na3  1  0.66979022  0.35678050  0.24558800  1
  Na  Na4  1  0.99312101  0.63600524  0.26470327  1
  Na  Na5  1  0.49620416  0.62252219  0.25989315  1
  Na  Na6  1  0.83044241  0.65345566  0.73880056  1
  Na  Na7  1  0.99163259  0.35511965  0.75500723  1
  Na  Na8  1  0.49639404  0.34902178  0.75822737  1
  Na  Na9  1  0.17498383  0.99328056  0.73607272  1
  Na  Na10  1  0.02000886  0.71286810  0.58618984  1
  Na  Na11  1  0.32989723  0.98328295  0.59386619  1
  Na  Na12  1  0.02353283  0.32713049  0.08407369  1
  Na  Na13  1  0.51195753  0.33352863  0.08800903  1
  Na  Na14  1  0.16025596  0.30440635  0.93075149  1
  Na  Na15  1  0.66267707  0.30055844  0.93063303  1
  Na  Na16  1  0.16418897  0.01508079  0.42772962  1
  Na  Na17  1  0.66169093  0.03512210  0.42450347  1
  Na  Na18  1  0.99194717  0.99294950  0.50554896  1
  Na  Na19  1  0.51394101  0.99439764  0.49129352  1
  Na  Na20  1  0.00564543  0.00944725  0.00202963  1
  Na  Na21  1  0.50535960  0.00157175  0.00830755  1
  Na  Na22  1  0.34860085  0.33082194  0.83535924  1
  Na  Na23  1  0.85117678  0.31797012  0.82779299  1
  Na  Na24  1  0.35404846  0.36858861  0.33940371  1
  Na  Na25  1  0.84680095  0.36303554  0.34139063  1
  Na  Na26  1  0.17783157  0.65978459  0.17267822  1
  Na  Na27  1  0.67786127  0.65769601  0.16532752  1
  Na  Na28  1  0.17219823  0.67790280  0.66949167  1
  Na  Na29  1  0.68584233  0.72258087  0.65398502  1
  Y  Y0  1  0.98836956  0.98497037  0.35551322  1
  Y  Y1  1  0.98855257  0.98766622  0.84656767  1
  Y  Y2  1  0.49588323  0.01570437  0.84948934  1
  Y  Y3  1  0.51175160  0.00794625  0.63971215  1
  Y  Y4  1  0.99597652  0.99989547  0.15823190  1
  Y  Y5  1  0.82330922  0.33110034  0.18287457  1
  Y  Y6  1  0.33987713  0.33684484  0.98735814  1
  Y  Y7  1  0.83142666  0.33184842  0.98586788  1
  Y  Y8  1  0.17125091  0.65563741  0.02197081  1
  Y  Y9  1  0.16805243  0.66670783  0.52064156  1
  Y  Y10  1  0.16273744  0.66565914  0.81159019  1
  Y  Y11  1  0.67053420  0.68822131  0.81081243  1
  Al  Al0  1  0.48337073  0.96467269  0.34587073  1
  Al  Al1  1  0.00600369  0.99395413  0.64770931  1
  Al  Al2  1  0.49827815  0.01952170  0.15631902  1
  Al  Al3  1  0.33066627  0.32314510  0.67921625  1
  Al  Al4  1  0.83044562  0.31002566  0.68148664  1
  Al  Al5  1  0.33902723  0.35642487  0.18831206  1
  Al  Al6  1  0.33929571  0.35245731  0.48354874  1
  Al  Al7  1  0.84219883  0.35662822  0.48618703  1
  Al  Al8  1  0.65926374  0.64126898  0.01837796  1
  Al  Al9  1  0.65706688  0.71235803  0.51535131  1
  Al  Al10  1  0.16112395  0.64577648  0.31655603  1
  Al  Al11  1  0.64634836  0.61319493  0.31937851  1
  Si  Si0  1  0.35540929  0.71203553  0.25001227  1
  Si  Si1  1  0.83382688  0.68969259  0.25589124  1
  Si  Si2  1  0.00393428  0.31695685  0.25139230  1
  Si  Si3  1  0.49401546  0.28020505  0.25242904  1
  Si  Si4  1  0.99050270  0.68681971  0.73811339  1
  Si  Si5  1  0.35103026  0.01848107  0.73825602  1
  Si  Si6  1  0.85735140  0.00742631  0.73682183  1
  Si  Si7  1  0.18910618  0.06570523  0.58050177  1
  Si  Si8  1  0.70129797  0.06188254  0.57548417  1
  Si  Si9  1  0.18883094  0.32975350  0.08901674  1
  Si  Si10  1  0.66782446  0.32274567  0.08335505  1
  Si  Si11  1  0.01102000  0.35181049  0.91702482  1
  Si  Si12  1  0.52176245  0.37630440  0.91636374  1
  Si  Si13  1  0.01601225  0.64901256  0.41924760  1
  Si  Si14  1  0.51583167  0.66760073  0.41492925  1
  S  S0  1  0.15735506  0.00188313  0.25371437  1
  S  S1  1  0.63389763  0.98794578  0.25236218  1
  S  S2  1  0.15313865  0.29075597  0.74172160  1
  S  S3  1  0.65873360  0.30106663  0.74838020  1
  S  S4  1  0.49111430  0.68595117  0.74577888  1
  S  S5  1  0.47850614  0.35311529  0.57907782  1
  S  S6  1  0.97258024  0.32308612  0.58391900  1
  S  S7  1  0.33568690  0.60791348  0.58456119  1
  S  S8  1  0.83162171  0.62009209  0.58168030  1
  S  S9  1  0.48559992  0.64382636  0.08993528  1
  S  S10  1  0.98619512  0.64319125  0.08525060  1
  S  S11  1  0.33805513  0.04029931  0.09489169  1
  S  S12  1  0.82328403  0.00359780  0.08256887  1
  S  S13  1  0.31982505  0.66394115  0.91387760  1
  S  S14  1  0.80893653  0.67097517  0.92175487  1
  S  S15  1  0.16802835  0.97172681  0.91627201  1
  S  S16  1  0.66326919  0.95171063  0.92406915  1
  S  S17  1  0.32046465  0.96652272  0.41290351  1
  S  S18  1  0.80336395  0.95204648  0.41875607  1
  S  S19  1  0.17563241  0.37714751  0.41377809  1
  S  S20  1  0.66652542  0.38126644  0.41975304  1
  O  O0  1  0.11922277  0.03580425  0.30656482  1
  O  O1  1  0.59641974  0.01934613  0.30665093  1
  O  O2  1  0.41670428  0.77742664  0.30690330  1
  O  O3  1  0.91040982  0.77164389  0.30400200  1
  O  O4  1  0.47673400  0.13964087  0.30503380  1
  O  O5  1  0.98664335  0.18178823  0.30389870  1
  O  O6  1  0.12087501  0.19195081  0.79842705  1
  O  O7  1  0.62436861  0.20450422  0.80519357  1
  O  O8  1  0.48526445  0.76441284  0.80104587  1
  O  O9  1  0.96955615  0.76281898  0.79740171  1
  O  O10  1  0.41463457  0.05704543  0.79496138  1
  O  O11  1  0.90732293  0.04632547  0.79987351  1
  O  O12  1  0.39617455  0.99542562  0.67920884  1
  O  O13  1  0.91859321  0.98874583  0.68677325  1
  O  O14  1  0.09546973  0.19455365  0.69328861  1
  O  O15  1  0.59708476  0.21089201  0.70081753  1
  O  O16  1  0.01494645  0.82396859  0.68251406  1
  O  O17  1  0.50540711  0.79689545  0.69421681  1
  O  O18  1  0.40290662  0.85052644  0.19581856  1
  O  O19  1  0.87066122  0.81449217  0.19716066  1
  O  O20  1  0.02385061  0.24711023  0.18963628  1
  O  O21  1  0.51741068  0.21276317  0.19196941  1
  O  O22  1  0.09928239  0.96087277  0.20287132  1
  O  O23  1  0.58374568  0.97640129  0.19986304  1
  O  O24  1  0.43978347  0.36833029  0.63616888  1
  O  O25  1  0.93182323  0.34927076  0.63708706  1
  O  O26  1  0.25037152  0.15482614  0.63741569  1
  O  O27  1  0.75181792  0.15445664  0.63511851  1
  O  O28  1  0.33582853  0.51300330  0.63756515  1
  O  O29  1  0.82080502  0.52103423  0.63688001  1
  O  O30  1  0.44251675  0.51912476  0.14124584  1
  O  O31  1  0.94437069  0.54213354  0.13976860  1
  O  O32  1  0.33295483  0.13691236  0.14550476  1
  O  O33  1  0.81073038  0.07211757  0.13920271  1
  O  O34  1  0.25139220  0.33447096  0.14280411  1
  O  O35  1  0.72539017  0.35667133  0.14170574  1
  O  O36  1  0.22791681  0.33158897  0.02304398  1
  O  O37  1  0.71104875  0.29636342  0.02345299  1
  O  O38  1  0.43478910  0.56825624  0.03586896  1
  O  O39  1  0.93678615  0.54991599  0.03307903  1
  O  O40  1  0.35463350  0.14259687  0.03890477  1
  O  O41  1  0.83936321  0.12862982  0.03420569  1
  O  O42  1  0.24100759  0.17405456  0.51915374  1
  O  O43  1  0.75116843  0.17834815  0.51675362  1
  O  O44  1  0.33872088  0.52497310  0.52935373  1
  O  O45  1  0.85048458  0.53688813  0.53061311  1
  O  O46  1  0.41929957  0.32850484  0.53030615  1
  O  O47  1  0.92529531  0.31731763  0.53022894  1
  O  O48  1  0.28095853  0.68486256  0.96882511  1
  O  O49  1  0.75828666  0.67786040  0.97258123  1
  O  O50  1  0.06941201  0.45629402  0.97511266  1
  O  O51  1  0.57913894  0.48932096  0.97228751  1
  O  O52  1  0.16793539  0.87467700  0.96901659  1
  O  O53  1  0.66366076  0.85000137  0.97466339  1
  O  O54  1  0.28512414  0.87099284  0.47025145  1
  O  O55  1  0.75727244  0.84134409  0.47119646  1
  O  O56  1  0.16703599  0.45977638  0.46735706  1
  O  O57  1  0.65686582  0.47366329  0.46993715  1
  O  O58  1  0.07127813  0.67895145  0.47900841  1
  O  O59  1  0.58190822  0.71841662  0.47021132  1
  O  O60  1  0.07143950  0.63766319  0.36106505  1
  O  O61  1  0.56148841  0.63054467  0.35681331  1
  O  O62  1  0.26070355  0.87323100  0.36406976  1
  O  O63  1  0.75793622  0.86992734  0.36394179  1
  O  O64  1  0.18149673  0.47901939  0.35982962  1
  O  O65  1  0.67471495  0.47507781  0.36232400  1
  O  O66  1  0.06001418  0.44973098  0.85496880  1
  O  O67  1  0.56684835  0.46129222  0.85203905  1
  O  O68  1  0.17528313  0.89246452  0.86076052  1
  O  O69  1  0.67329617  0.88382801  0.86686072  1
  O  O70  1  0.27135424  0.66258827  0.86219246  1
  O  O71  1  0.76857153  0.66731995  0.86482208  1
  O  O72  1  0.01396847  0.82853916  0.41608319  1
  O  O73  1  0.51085424  0.84614447  0.40394889  1
  O  O74  1  0.40606948  0.98401620  0.40481026  1
  O  O75  1  0.89103287  0.97418859  0.42165760  1
  O  O76  1  0.10038564  0.20181671  0.41242624  1
  O  O77  1  0.59162403  0.20486316  0.41602675  1
  O  O78  1  0.01114830  0.17056371  0.91931365  1
  O  O79  1  0.51905806  0.18941006  0.92144199  1
  O  O80  1  0.08879908  0.98240536  0.91634182  1
  O  O81  1  0.58268044  0.95994532  0.92365490  1
  O  O82  1  0.40912117  0.80858412  0.91179582  1
  O  O83  1  0.89625035  0.81871087  0.92379850  1
  O  O84  1  0.48415767  0.19378774  0.58011056  1
  O  O85  1  0.98202314  0.17086074  0.58674333  1
  O  O86  1  0.08959061  0.03389867  0.58800347  1
  O  O87  1  0.60330994  0.03469516  0.57433734  1
  O  O88  1  0.41099748  0.78364704  0.58278028  1
  O  O89  1  0.91224907  0.79350798  0.58426894  1
  O  O90  1  0.49434464  0.81003498  0.09955531  1
  O  O91  1  0.99259790  0.81136698  0.08592580  1
  O  O92  1  0.41364374  0.01639439  0.09836118  1
  O  O93  1  0.90296293  0.99203989  0.08396354  1
  O  O94  1  0.09049571  0.16439236  0.08988319  1
  O  O95  1  0.57305811  0.14942166  0.09411397  1
  O  O96  1  0.34458104  0.19570462  0.73485362  1
  O  O97  1  0.84235690  0.17071921  0.73233419  1
  O  O98  1  0.24106355  0.31753006  0.73274053  1
  O  O99  1  0.74367777  0.32152423  0.73761145  1
  O  O100  1  0.41144422  0.51579846  0.74015611  1
  O  O101  1  0.90589328  0.49864302  0.72735489  1
  O  O102  1  0.34209352  0.51841966  0.23785735  1
  O  O103  1  0.81726326  0.49531596  0.24905278  1
  O  O104  1  0.41139743  0.31364464  0.24221658  1
  O  O105  1  0.91782741  0.33434437  0.24696446  1
  O  O106  1  0.24279185  0.15597394  0.24262944  1
  O  O107  1  0.72367092  0.13601392  0.24797643  1
  O  O108  1  0.31966022  0.50048705  0.91506738  1
  O  O109  1  0.81192381  0.50932849  0.92393974  1
  O  O110  1  0.42526393  0.34649276  0.91794604  1
  O  O111  1  0.91643472  0.33382362  0.91770226  1
  O  O112  1  0.24312846  0.14932276  0.91661572  1
  O  O113  1  0.73643390  0.13119025  0.92442389  1
  O  O114  1  0.32550826  0.13667488  0.41709521  1
  O  O115  1  0.81057654  0.12280408  0.42043440  1
  O  O116  1  0.25506027  0.36379222  0.41594724  1
  O  O117  1  0.74624873  0.36719872  0.42193712  1
  O  O118  1  0.42137862  0.49541900  0.43016934  1
  O  O119  1  0.91939718  0.47793859  0.42789187  1
  O  O120  1  0.17600046  0.49964388  0.09389041  1
  O  O121  1  0.65766368  0.49553771  0.07458196  1
  O  O122  1  0.07265043  0.66163067  0.08309753  1
  O  O123  1  0.57119744  0.65452482  0.08203093  1
  O  O124  1  0.25826640  0.87389861  0.09136977  1
  O  O125  1  0.74654932  0.83561485  0.07194710  1
  O  O126  1  0.18080618  0.87191985  0.58074182  1
  O  O127  1  0.68709856  0.86413892  0.57221879  1
  O  O128  1  0.25643800  0.62174267  0.58732095  1
  O  O129  1  0.75543622  0.63653687  0.57289278  1
  O  O130  1  0.06078564  0.48060410  0.58285825  1
  O  O131  1  0.56486683  0.50547831  0.57141443  1
  O  O132  1  0.16951370  0.85171510  0.26249035  1
  O  O133  1  0.64115381  0.83176228  0.25606947  1
  O  O134  1  0.25888441  0.69065650  0.26399160  1
  O  O135  1  0.74170870  0.68337618  0.27077400  1
  O  O136  1  0.09110396  0.50688232  0.25988496  1
  O  O137  1  0.57865782  0.47010304  0.26269068  1
  O  O138  1  0.15830436  0.45923915  0.74474608  1
  O  O139  1  0.66677001  0.47261899  0.75130246  1
  O  O140  1  0.07437651  0.66170799  0.74453336  1
  O  O141  1  0.56544015  0.65393877  0.74645608  1
  O  O142  1  0.25433787  0.85678781  0.74640681  1
  O  O143  1  0.76609462  0.82437100  0.73959899  1
loop_
_geom_bond_atom_site_label_1
_geom_bond_atom_site_label_2
_geom_bond_distance
_geom_bond_site_symmetry_2
Na0 O134 2.438026 1_555
Na0 O104 2.460805 1_565
Na0 O132 2.461640 1_555
Na0 O106 2.541156 1_565
Na0 O32 2.643551 1_565
Na0 O18 2.649113 1_555
Na0 O4 2.669843 1_565
Na0 O62 2.808594 1_555
Na1 O135 2.449628 1_555
Na1 O19 2.578489 1_555
Na1 O63 2.655942 1_555
Na1 O105 2.667469 1_565
Na1 O107 2.667647 1_565
Na1 O33 2.793573 1_565
Na1 O5 2.798144 1_565
Na1 O133 2.829396 1_555
Na2 O102 2.426887 1_555
Na2 O134 2.498766 1_555
Na2 O136 2.531625 1_555
Na2 O34 2.610589 1_555
Na2 O106 2.680323 1_555
Na2 O20 2.814533 1_555
Na2 O64 2.875883 1_555
Na3 O103 2.300727 1_555
Na3 O137 2.356563 1_555
Na3 O35 2.543707 1_555
Na3 O107 2.618752 1_555
Na3 O135 2.632600 1_555
Na3 O21 2.690745 1_555
Na3 O65 2.846665 1_555
Na3 O1 2.967087 1_555
Na4 O105 2.399999 1_555
Na4 O3 2.511857 1_555
Na4 O136 2.556502 1_655
Na4 O60 2.613842 1_655
Na4 O132 2.769416 1_655
Na4 O103 2.786484 1_555
Na4 O22 2.910046 1_655
Na4 O31 2.979019 1_555
Na5 O133 2.331099 1_555
Na5 O104 2.459073 1_555
Na5 O137 2.479644 1_555
Na5 O61 2.491743 1_555
Na5 O102 2.501853 1_555
Na5 O2 2.667873 1_555
Na5 O30 2.872523 1_555
Na6 O143 2.348487 1_555
Na6 O101 2.400414 1_555
Na6 O139 2.562801 1_555
Na6 O29 2.577227 1_555
Na6 O9 2.578933 1_555
Na6 O99 2.597109 1_555
Na6 O13 2.856615 1_555
Na7 O140 2.407206 1_655
Na7 O97 2.413733 1_555
Na7 O66 2.537668 1_655
Na7 O101 2.544797 1_555
Na7 O11 2.605870 1_555
Na7 O138 2.660662 1_655
Na7 O25 2.887855 1_555
Na8 O141 2.399005 1_555
Na8 O10 2.420561 1_555
Na8 O96 2.434227 1_555
Na8 O67 2.446366 1_555
Na8 O100 2.662991 1_555
Na8 O139 2.687044 1_555
Na8 O15 2.957168 1_555
Na8 O24 2.996853 1_555
Na9 O142 2.320256 1_555
Na9 O98 2.550927 1_565
Na9 O140 2.614791 1_555
Na9 O26 2.616130 1_565
Na9 O96 2.657448 1_565
Na9 O16 2.797962 1_555
Na9 O6 2.812418 1_565
Na9 O68 2.963913 1_555
Na10 O89 2.389124 1_455
Na10 O16 2.428734 1_555
Na10 O126 2.504136 1_555
Na10 O86 2.519593 1_565
Na10 O130 2.547572 1_555
Na10 O58 2.658686 1_555
Na11 O12 2.262787 1_555
Na11 O126 2.370920 1_555
Na11 O84 2.468471 1_565
Na11 O88 2.841842 1_555
Na11 O128 2.850972 1_555
Na12 O94 2.325286 1_555
Na12 O120 2.396766 1_555
Na12 O20 2.495384 1_555
Na12 O50 2.659214 1_554
Na12 O122 2.690494 1_555
Na12 O93 2.700664 1_445
Na13 O121 2.287227 1_555
Na13 O95 2.413990 1_555
Na13 O92 2.508890 1_555
Na13 O123 2.541530 1_555
Na13 O21 2.613403 1_555
Na13 O40 2.731625 1_555
Na13 O30 2.812090 1_555
Na13 O51 2.909290 1_554
Na14 O78 2.345740 1_555
Na14 O36 2.388752 1_556
Na14 O108 2.521622 1_555
Na14 O112 2.524370 1_555
Na14 O80 2.550314 1_545
Na14 O50 2.789115 1_555
Na15 O79 2.269054 1_555
Na15 O37 2.296599 1_556
Na15 O109 2.387504 1_555
Na15 O113 2.480546 1_555
Na15 O81 2.673011 1_545
Na15 O51 2.933247 1_555
Na15 O7 2.968066 1_555
Na16 O72 2.383358 1_545
Na16 O76 2.495674 1_555
Na16 O42 2.532116 1_555
Na16 O114 2.543224 1_555
Na16 O116 2.735960 1_555
Na16 O58 2.858536 1_545
Na16 O0 2.906151 1_555
Na16 O62 2.985815 1_545
Na17 O115 2.382437 1_555
Na17 O73 2.430307 1_545
Na17 O77 2.432609 1_555
Na17 O43 2.587697 1_555
Na17 O117 2.596655 1_555
Na17 O59 2.667963 1_545
Na17 O1 2.910522 1_555
Na18 O89 2.402342 1_555
Na18 O86 2.485553 1_665
Na18 O85 2.514283 1_565
Na18 O75 2.597232 1_555
Na18 O72 2.661254 1_655
Na18 O76 2.819003 1_665
Na19 O73 2.383945 1_555
Na19 O77 2.386513 1_565
Na19 O87 2.404030 1_565
Na19 O74 2.749132 1_555
Na19 O88 2.764924 1_555
Na19 O84 2.927333 1_565
Na20 O78 2.335447 1_554
Na20 O94 2.500088 1_555
Na20 O80 2.519942 1_544
Na20 O91 2.527878 1_445
Na20 O93 2.545931 1_445
Na20 O83 2.596916 1_444
Na21 O95 2.352136 1_555
Na21 O81 2.491442 1_544
Na21 O79 2.516965 1_554
Na21 O90 2.627464 1_545
Na21 O92 2.650429 1_555
Na21 O82 2.823721 1_544
Na22 O110 2.305614 1_555
Na22 O112 2.531931 1_555
Na22 O96 2.577040 1_555
Na22 O108 2.587253 1_555
Na22 O100 2.589571 1_555
Na23 O111 2.337276 1_555
Na23 O97 2.513317 1_555
Na23 O101 2.661229 1_555
Na23 O99 2.846981 1_555
Na23 O113 2.867104 1_555
Na24 O118 2.394722 1_555
Na24 O116 2.450830 1_555
Na24 O114 2.568236 1_555
Na24 O104 2.572841 1_555
Na24 O102 2.727397 1_555
Na24 O106 2.975783 1_555
Na25 O119 2.319330 1_555
Na25 O105 2.556014 1_555
Na25 O117 2.563376 1_555
Na25 O103 2.593516 1_555
Na25 O115 2.614573 1_555
Na26 O120 2.296603 1_555
Na26 O136 2.440039 1_555
Na26 O134 2.486711 1_555
Na26 O124 2.508595 1_555
Na26 O132 2.733829 1_555
Na26 O122 2.802832 1_555
Na27 O121 2.458101 1_555
Na27 O125 2.543478 1_555
Na27 O135 2.629235 1_555
Na27 O123 2.703262 1_555
Na27 O137 2.778375 1_555
Na27 O133 2.860554 1_555
Na28 O142 2.358915 1_555
Na28 O140 2.377983 1_555
Na28 O138 2.513671 1_555
Na28 O128 2.591705 1_555
Na28 O126 2.609758 1_555
Na28 O130 2.765215 1_555
Na29 O127 2.237542 1_555
Na29 O143 2.340893 1_555
Na29 O129 2.544078 1_555
Na29 O141 2.821517 1_555
Na29 O131 2.827014 1_555
Al0 O2 1.761575 1_555
Al0 O4 1.881933 1_565
Al0 O73 1.911776 1_555
Al0 O74 1.984160 1_555
Al0 O1 2.024973 1_565
Al1 O13 1.772032 1_455
Al1 O16 1.800320 1_555
Al1 O86 1.899377 1_565
Al1 O14 2.024883 1_565
Al1 O89 2.290546 1_455
Al1 O85 2.308298 1_465
Al2 O21 1.801875 1_555
Al2 O18 1.839671 1_545
Al2 O95 1.873439 1_555
Al2 O92 2.016287 1_555
Al2 O23 2.032856 1_545
Al2 O90 2.268516 1_545
Al3 O26 1.777786 1_555
Al3 O96 1.804601 1_555
Al3 O28 1.912292 1_555
Al3 O98 1.981890 1_555
Al3 O24 2.025575 1_555
Al3 O100 2.147937 1_555
Al4 O27 1.776993 1_555
Al4 O97 1.793183 1_555
Al4 O101 1.892198 1_555
Al4 O25 1.937421 1_555
Al4 O99 2.041306 1_555
Al4 O29 2.235194 1_555
Al5 O34 1.824815 1_555
Al5 O102 1.830532 1_555
Al5 O104 1.970992 1_555
Al5 O30 1.984555 1_555
Al5 O106 2.133764 1_555
Al5 O32 2.168099 1_555
Al6 O118 1.822978 1_555
Al6 O42 1.859393 1_555
Al6 O44 1.883178 1_555
Al6 O46 1.896959 1_555
Al6 O116 2.209360 1_555
Al6 O114 2.387566 1_555
Al7 O43 1.749955 1_555
Al7 O119 1.808944 1_555
Al7 O45 1.863777 1_555
Al7 O47 1.982765 1_555
Al7 O117 2.313451 1_555
Al7 O115 2.423999 1_555
Al8 O51 1.771961 1_554
Al8 O121 1.814974 1_555
Al8 O49 1.925298 1_554
Al8 O125 2.086206 1_555
Al8 O53 2.089494 1_554
Al8 O123 2.173903 1_555
Al9 O59 1.730629 1_555
Al9 O127 1.771711 1_555
Al9 O55 1.852373 1_555
Al9 O131 2.157190 1_555
Al9 O57 2.394696 1_555
Al9 O129 2.564478 1_555
Al10 O136 1.817224 1_555
Al10 O60 1.858787 1_555
Al10 O134 1.972118 1_555
Al10 O64 1.977297 1_555
Al10 O132 2.160264 1_555
Al10 O62 2.235503 1_555
Al11 O61 1.809869 1_555
Al11 O137 1.817007 1_555
Al11 O135 1.843703 1_555
Al11 O65 1.844274 1_555
Al11 O63 2.421613 1_555
Al11 O133 2.473053 1_555
O0 S0 1.479583 1_555
O0 Y0 2.410462 1_445
O1 S1 1.489755 1_545
O2 Si0 1.622039 1_555
O3 Si1 1.634858 1_555
O3 Y0 2.102717 1_555
O4 Si3 1.643850 1_555
O5 Si2 1.609797 1_655
O5 Y0 2.135054 1_545
O6 S2 1.492175 1_555
O6 Y1 2.398320 1_445
O7 S3 1.489941 1_555
O7 Y2 2.283246 1_555
O8 S4 1.471706 1_555
O8 Y2 2.450463 1_565
O9 Si4 1.635700 1_555
O9 Y1 2.198778 1_555
O10 Si5 1.654128 1_555
O10 Y2 2.097823 1_555
O11 Si6 1.644785 1_555
O11 Y1 2.086420 1_545
O12 Si5 1.622655 1_565
O12 Y3 2.200311 1_565
O13 Si6 1.636598 1_565
O14 S2 1.477608 1_555
O15 S3 1.483667 1_555
O15 Y3 2.218359 1_555
O16 Si4 1.652628 1_455
O17 S4 1.467042 1_555
O17 Y3 2.217903 1_565
O18 Si0 1.636574 1_555
O19 Si1 1.638476 1_555
O19 Y4 2.190938 1_555
O20 Si2 1.645896 1_555
O20 Y4 2.158527 1_445
O21 Si3 1.636070 1_555
O22 S0 1.487674 1_565
O22 Y4 2.304927 1_455
O23 S1 1.477249 1_555
O24 S5 1.499471 1_555
O25 S6 1.481738 1_555
O26 Si7 1.642577 1_555
O27 Si8 1.626682 1_555
O28 S7 1.471768 1_555
O29 S8 1.485247 1_555
O30 S9 1.516783 1_555
O31 S10 1.480852 1_555
O31 Y5 2.253850 1_555
O32 S11 1.475639 1_555
O33 S12 1.491343 1_555
O33 Y5 2.452766 1_555
O34 Si9 1.658569 1_555
O35 Si10 1.626871 1_555
O35 Y5 2.117501 1_555
O36 Si9 1.638647 1_555
O36 Y6 2.136670 1_554
O37 Si10 1.631439 1_555
O37 Y7 2.181857 1_554
O38 S9 1.491868 1_555
O38 Y6 2.238830 1_554
O39 S10 1.481808 1_555
O39 Y7 2.230097 1_554
O40 S11 1.499518 1_555
O40 Y6 2.227732 1_554
O41 S12 1.485369 1_555
O41 Y7 2.197890 1_554
O42 Si7 1.669535 1_555
O43 Si8 1.637256 1_555
O44 S7 1.477301 1_555
O45 S8 1.508458 1_555
O46 S5 1.486422 1_555
O47 S6 1.482033 1_555
O48 S13 1.477751 1_555
O48 Y8 2.194094 1_556
O49 S14 1.478420 1_555
O50 Si11 1.672205 1_555
O50 Y8 2.124197 1_556
O51 Si12 1.648913 1_555
O52 S15 1.476976 1_555
O52 Y8 2.333927 1_556
O53 S16 1.466680 1_555
O54 S17 1.498919 1_555
O54 Y9 2.268658 1_555
O55 S18 1.490534 1_555
O56 S19 1.476003 1_555
O56 Y9 2.225565 1_555
O57 S20 1.474260 1_555
O58 Si13 1.635478 1_555
O58 Y9 2.043796 1_555
O59 Si14 1.643931 1_555
O60 Si13 1.675247 1_555
O61 Si14 1.664090 1_555
O62 S17 1.494893 1_555
O63 S18 1.483183 1_555
O64 S19 1.495310 1_555
O65 S20 1.512420 1_555
O66 Si11 1.643072 1_555
O66 Y10 2.119352 1_555
O67 Si12 1.641859 1_555
O67 Y11 2.154754 1_555
O68 S15 1.488002 1_555
O68 Y10 2.251559 1_555
O69 S16 1.484824 1_555
O69 Y11 2.164663 1_555
O70 S13 1.467882 1_555
O70 Y10 2.293294 1_555
O71 S14 1.483156 1_555
O71 Y11 2.245770 1_555
O72 Si13 1.641850 1_555
O72 Y0 2.176826 1_455
O73 Si14 1.676871 1_555
O74 S17 1.475523 1_555
O75 S18 1.489714 1_555
O75 Y0 2.251032 1_555
O76 S19 1.482217 1_555
O76 Y0 2.393166 1_445
O77 S20 1.489119 1_555
O78 Si11 1.639192 1_555
O78 Y1 2.236467 1_445
O79 Si12 1.667865 1_555
O79 Y2 2.167764 1_555
O80 S15 1.476002 1_555
O80 Y1 2.435304 1_455
O81 S16 1.488624 1_555
O81 Y2 2.525204 1_565
O82 S13 1.478058 1_555
O82 Y2 2.213401 1_565
O83 S14 1.467745 1_555
O83 Y1 2.341440 1_555
O84 S5 1.493103 1_555
O84 Y3 2.390471 1_555
O85 S6 1.468918 1_555
O86 Si7 1.670619 1_555
O87 Si8 1.654187 1_555
O87 Y3 2.117962 1_555
O88 S7 1.483541 1_555
O88 Y3 2.342982 1_565
O89 S8 1.513255 1_555
O90 S9 1.447951 1_555
O91 S10 1.465406 1_555
O91 Y4 2.351640 1_555
O92 S11 1.483017 1_555
O93 S12 1.489277 1_565
O93 Y4 2.368642 1_555
O94 Si9 1.647190 1_555
O94 Y4 2.202801 1_445
O95 Si10 1.650922 1_555
O96 Si5 1.663718 1_555
O97 Si6 1.630087 1_555
O98 S2 1.485864 1_555
O99 S3 1.460684 1_555
O100 S4 1.495154 1_555
O101 Si4 1.640893 1_555
O102 Si0 1.668144 1_555
O103 Si1 1.636545 1_555
O103 Y5 2.156674 1_555
O104 Si3 1.677394 1_555
O105 Si2 1.637931 1_655
O105 Y5 2.243020 1_555
O106 S0 1.484324 1_555
O107 S1 1.495596 1_545
O107 Y5 2.282854 1_555
O108 S13 1.475395 1_555
O108 Y6 2.350691 1_555
O109 S14 1.488641 1_555
O109 Y7 2.282876 1_555
O110 Si12 1.617748 1_555
O110 Y6 2.151649 1_555
O111 Si11 1.626108 1_655
O111 Y7 2.150208 1_555
O112 S15 1.493053 1_545
O112 Y6 2.375765 1_555
O113 S16 1.491570 1_545
O113 Y7 2.270430 1_555
O114 S17 1.497772 1_545
O115 S18 1.482914 1_545
O116 S19 1.494528 1_555
O117 S20 1.503452 1_555
O118 Si14 1.659140 1_555
O119 Si13 1.656035 1_655
O120 Si9 1.666774 1_555
O120 Y8 2.177846 1_555
O121 Si10 1.671178 1_555
O122 S10 1.478899 1_455
O122 Y8 2.255709 1_555
O123 S9 1.501554 1_555
O124 S11 1.473387 1_565
O124 Y8 2.417374 1_555
O125 S12 1.477942 1_565
O126 Si7 1.681026 1_565
O126 Y9 2.228396 1_555
O127 Si8 1.675751 1_565
O128 S7 1.492595 1_555
O128 Y9 2.385733 1_555
O129 S8 1.467120 1_555
O130 S6 1.510069 1_455
O130 Y9 2.273648 1_555
O131 S5 1.478104 1_555
O132 S0 1.490991 1_565
O133 S1 1.482755 1_555
O134 Si0 1.672965 1_555
O135 Si1 1.658515 1_555
O136 Si2 1.661259 1_555
O137 Si3 1.648213 1_555
O138 S2 1.480073 1_555
O138 Y10 2.382261 1_555
O139 S3 1.484951 1_555
O139 Y11 2.350910 1_555
O140 Si4 1.642806 1_455
O140 Y10 2.204209 1_555
O141 S4 1.503252 1_555
O141 Y11 2.303333 1_555
O142 Si5 1.623208 1_565
O142 Y10 2.217274 1_555
O143 Si6 1.646261 1_565
O143 Y11 2.199832 1_555
