# generated using pymatgen
data_SiTePt
_symmetry_space_group_name_H-M   'P 1'
_cell_length_a   6.18489233
_cell_length_b   6.28311977
_cell_length_c   12.56048367
_cell_angle_alpha   90.00000000
_cell_angle_beta   90.00000000
_cell_angle_gamma   90.00000000
_symmetry_Int_Tables_number   1
_chemical_formula_structural   SiTePt
_chemical_formula_sum   'Si8 Te8 Pt8'
_cell_volume   488.10566170
_cell_formula_units_Z   8
loop_
 _symmetry_equiv_pos_site_id
 _symmetry_equiv_pos_as_xyz
  1  'x, y, z'
loop_
 _atom_site_type_symbol
 _atom_site_label
 _atom_site_symmetry_multiplicity
 _atom_site_fract_x
 _atom_site_fract_y
 _atom_site_fract_z
 _atom_site_occupancy
  Si  Si0  1  0.87159521  0.33304706  0.43890982  1
  Si  Si1  1  0.37159521  0.16695294  0.56109018  1
  Si  Si2  1  0.62840479  0.66695294  0.93890982  1
  Si  Si3  1  0.37159521  0.33304706  0.06109018  1
  Si  Si4  1  0.87159521  0.16695294  0.93890982  1
  Si  Si5  1  0.62840479  0.83304706  0.43890982  1
  Si  Si6  1  0.12840479  0.66695294  0.56109018  1
  Si  Si7  1  0.12840479  0.83304706  0.06109018  1
  Te  Te0  1  0.61667959  0.08397950  0.17429618  1
  Te  Te1  1  0.88332041  0.91602050  0.67429618  1
  Te  Te2  1  0.38332041  0.58397950  0.32570382  1
  Te  Te3  1  0.88332041  0.58397950  0.17429618  1
  Te  Te4  1  0.61667959  0.41602050  0.67429618  1
  Te  Te5  1  0.11667959  0.08397950  0.32570382  1
  Te  Te6  1  0.11667959  0.41602050  0.82570382  1
  Te  Te7  1  0.38332041  0.91602050  0.82570382  1
  Pt  Pt0  1  0.52471914  0.31316944  0.88641126  1
  Pt  Pt1  1  0.02471914  0.18683056  0.11358874  1
  Pt  Pt2  1  0.47528086  0.81316944  0.61358874  1
  Pt  Pt3  1  0.97528086  0.68683056  0.38641126  1
  Pt  Pt4  1  0.47528086  0.68683056  0.11358874  1
  Pt  Pt5  1  0.97528086  0.81316944  0.88641126  1
  Pt  Pt6  1  0.52471914  0.18683056  0.38641126  1
  Pt  Pt7  1  0.02471914  0.31316944  0.61358874  1
loop_
_geom_bond_atom_site_label_1
_geom_bond_atom_site_label_2
_geom_bond_distance
_geom_bond_site_symmetry_2
Si0 Te5 2.601644 1_655
Si1 Te4 2.601644 1_555
Si2 Te7 2.601644 1_555
Si3 Te0 2.601644 1_555
Si4 Te6 2.601644 1_655
Si5 Te2 2.601644 1_555
Si6 Te1 2.601644 1_455
Si7 Te3 2.601644 1_455
Pt0 Si3 2.392984 1_556
Pt0 Si2 2.405658 1_555
Pt0 Si4 2.425185 1_555
Pt0 Te6 2.714406 1_555
Pt0 Te7 2.751897 1_545
Pt0 Te4 2.799897 1_555
Pt1 Si4 2.392984 1_454
Pt1 Si7 2.405658 1_545
Pt1 Si3 2.425185 1_555
Pt1 Te0 2.714406 1_455
Pt1 Te3 2.751897 1_455
Pt1 Te5 2.799897 1_555
Pt2 Si5 2.392984 1_555
Pt2 Si1 2.405658 1_565
Pt2 Si6 2.425185 1_555
Pt2 Te1 2.714406 1_555
Pt2 Te4 2.751897 1_555
Pt2 Te7 2.799897 1_555
Pt3 Si6 2.392984 1_655
Pt3 Si0 2.405658 1_555
Pt3 Si5 2.425185 1_555
Pt3 Te2 2.714406 1_655
Pt3 Te5 2.751897 1_665
Pt3 Te3 2.799897 1_555
Pt4 Si2 2.392984 1_554
Pt4 Si3 2.405658 1_555
Pt4 Si7 2.425185 1_555
Pt4 Te3 2.714406 1_555
Pt4 Te0 2.751897 1_565
Pt4 Te2 2.799897 1_555
Pt5 Si7 2.392984 1_656
Pt5 Si4 2.405658 1_565
Pt5 Si2 2.425185 1_555
Pt5 Te7 2.714406 1_655
Pt5 Te6 2.751897 1_655
Pt5 Te1 2.799897 1_555
Pt6 Si1 2.392984 1_555
Pt6 Si5 2.405658 1_545
Pt6 Si0 2.425185 1_555
Pt6 Te5 2.714406 1_555
Pt6 Te2 2.751897 1_555
Pt6 Te0 2.799897 1_555
Pt7 Si0 2.392984 1_455
Pt7 Si6 2.405658 1_555
Pt7 Si1 2.425185 1_555
Pt7 Te4 2.714406 1_455
Pt7 Te1 2.751897 1_445
Pt7 Te6 2.799897 1_555
