# generated using pymatgen
data_Na3HfMg3PS5O24
_symmetry_space_group_name_H-M   'P 1'
_cell_length_a   8.76652757
_cell_length_b   8.75336683
_cell_length_c   22.72820347
_cell_angle_alpha   90.05348007
_cell_angle_beta   90.01652048
_cell_angle_gamma   120.24107556
_symmetry_Int_Tables_number   1
_chemical_formula_structural   Na3HfMg3PS5O24
_chemical_formula_sum   'Na9 Hf3 Mg9 P3 S15 O72'
_cell_volume   1506.73881840
_cell_formula_units_Z   3
loop_
 _symmetry_equiv_pos_site_id
 _symmetry_equiv_pos_as_xyz
  1  'x, y, z'
loop_
 _atom_site_type_symbol
 _atom_site_label
 _atom_site_symmetry_multiplicity
 _atom_site_fract_x
 _atom_site_fract_y
 _atom_site_fract_z
 _atom_site_occupancy
  Na  Na0  1  0.36341356  0.36397491  0.25074332  1
  Na  Na1  1  0.02650987  0.69822346  0.58488026  1
  Na  Na2  1  0.30027875  0.96596025  0.08096057  1
  Na  Na3  1  0.99299718  0.00110053  0.50059768  1
  Na  Na4  1  0.99932997  0.00616092  0.99374882  1
  Na  Na5  1  0.66626786  0.32910577  0.82890638  1
  Na  Na6  1  0.67470909  0.33180862  0.33153273  1
  Na  Na7  1  0.33289683  0.66613315  0.16746158  1
  Na  Na8  1  0.34766523  0.66466423  0.66448953  1
  Hf  Hf0  1  0.67065123  0.33059049  0.97630672  1
  Hf  Hf1  1  0.66687002  0.33912549  0.48187733  1
  Hf  Hf2  1  0.32746581  0.66797370  0.81452361  1
  Mg  Mg0  1  0.99580806  0.99756823  0.35132540  1
  Mg  Mg1  1  0.00656903  0.00731394  0.85245428  1
  Mg  Mg2  1  0.99239830  -0.00006604  0.64986621  1
  Mg  Mg3  1  0.99155096  0.99844816  0.15085641  1
  Mg  Mg4  1  0.66201469  0.33659079  0.68562877  1
  Mg  Mg5  1  0.67563730  0.33538941  0.18522502  1
  Mg  Mg6  1  0.32854737  0.66094419  0.01402242  1
  Mg  Mg7  1  0.34624399  0.66674745  0.51805949  1
  Mg  Mg8  1  0.33375643  0.67383038  0.31670107  1
  P  P0  1  0.66421337  0.62892282  0.58636689  1
  P  P1  1  0.04701170  0.37040155  0.91819311  1
  P  P2  1  0.32357540  0.95346122  0.91926385  1
  S  S0  1  0.29116173  0.99798426  0.24930073  1
  S  S1  1  0.70819131  0.70844123  0.25020338  1
  S  S2  1  0.99886242  0.29106113  0.25046322  1
  S  S3  1  0.29122392  0.28714767  0.74955881  1
  S  S4  1  0.99510052  0.70845514  0.74936173  1
  S  S5  1  0.71266536  0.00451496  0.75007901  1
  S  S6  1  0.95949205  0.33222840  0.58466091  1
  S  S7  1  0.37362364  0.03998485  0.58481170  1
  S  S8  1  0.95935856  0.62612240  0.08509490  1
  S  S9  1  0.66816673  0.04007425  0.08484883  1
  S  S10  1  0.37454266  0.33662116  0.08535535  1
  S  S11  1  0.62655364  0.67243454  0.91773601  1
  S  S12  1  0.62539448  0.95544207  0.41616300  1
  S  S13  1  0.32781576  0.37316441  0.41542286  1
  S  S14  1  0.04684719  0.67158069  0.41691969  1
  O  O0  1  0.20955070  0.03061268  0.30106854  1
  O  O1  1  0.81555615  0.78830857  0.30276498  1
  O  O2  1  0.97295281  0.18378331  0.30306399  1
  O  O3  1  0.21023373  0.18428426  0.80266981  1
  O  O4  1  0.97428459  0.79212975  0.80205080  1
  O  O5  1  0.81532562  0.02572081  0.80316716  1
  O  O6  1  0.78662715  0.97156885  0.69678180  1
  O  O7  1  0.18342030  0.21207161  0.69634575  1
  O  O8  1  0.02951918  0.81369646  0.69513563  1
  O  O9  1  0.78706413  0.81429918  0.19699835  1
  O  O10  1  0.03210840  0.21280823  0.19735324  1
  O  O11  1  0.18741946  0.97268120  0.19464108  1
  O  O12  1  0.87736091  0.36287006  0.63580003  1
  O  O13  1  0.48528242  0.12163681  0.63619546  1
  O  O14  1  0.64039993  0.51136072  0.63820234  1
  O  O15  1  0.87546524  0.51674911  0.13655451  1
  O  O16  1  0.63565123  0.12276620  0.13601181  1
  O  O17  1  0.48046361  0.35968890  0.13867623  1
  O  O18  1  0.46052748  0.30543535  0.03263145  1
  O  O19  1  0.84881561  0.54201296  0.03139974  1
  O  O20  1  0.69331301  0.15173847  0.03107695  1
  O  O21  1  0.45944747  0.15039471  0.53045868  1
  O  O22  1  0.69612951  0.53676965  0.52960981  1
  O  O23  1  0.84714921  0.30440671  0.53010459  1
  O  O24  1  0.54582774  0.69474586  0.97058086  1
  O  O25  1  0.15364551  0.45558527  0.97270799  1
  O  O26  1  0.30792879  0.85380710  0.97586957  1
  O  O27  1  0.54400697  0.85196304  0.46927219  1
  O  O28  1  0.30590355  0.45647035  0.46805714  1
  O  O29  1  0.14620849  0.69210743  0.47153773  1
  O  O30  1  0.12363606  0.63867550  0.36461733  1
  O  O31  1  0.51752428  0.88010403  0.36326689  1
  O  O32  1  0.36231846  0.47950517  0.36148643  1
  O  O33  1  0.12931961  0.49003498  0.86254609  1
  O  O34  1  0.36359539  0.87090102  0.86432409  1
  O  O35  1  0.51419523  0.63644724  0.86422600  1
  O  O36  1  0.02179189  0.82474126  0.41006438  1
  O  O37  1  0.80375220  0.97938173  0.40976139  1
  O  O38  1  0.17410836  0.19417764  0.40930006  1
  O  O39  1  0.01555923  0.18600866  0.90950604  1
  O  O40  1  0.16578043  0.97591340  0.90985186  1
  O  O41  1  0.80222516  0.82378500  0.90935430  1
  O  O42  1  0.97809565  0.17549558  0.58906225  1
  O  O43  1  0.19744383  0.02321976  0.58916166  1
  O  O44  1  0.83951569  0.80893909  0.58841420  1
  O  O45  1  0.98058468  0.80581831  0.08985801  1
  O  O46  1  0.82659581  0.02481182  0.09002812  1
  O  O47  1  0.19908907  0.17105561  0.09001658  1
  O  O48  1  0.68768051  0.15836989  0.74310433  1
  O  O49  1  0.46959342  0.31074665  0.74384467  1
  O  O50  1  0.84284381  0.52840992  0.74374744  1
  O  O51  1  0.68288620  0.52579251  0.24362913  1
  O  O52  1  0.84217480  0.31131755  0.24312613  1
  O  O53  1  0.46922290  0.16282716  0.24302183  1
  O  O54  1  0.64052951  0.50749382  0.92402438  1
  O  O55  1  0.86148139  0.36089494  0.92353457  1
  O  O56  1  0.49689855  0.14197159  0.92424469  1
  O  O57  1  0.64472032  0.13775562  0.42353614  1
  O  O58  1  0.49148686  0.35464771  0.42300722  1
  O  O59  1  0.86384173  0.50562998  0.42284426  1
  O  O60  1  0.35755524  0.49365548  0.07744526  1
  O  O61  1  0.13834768  0.64849022  0.07858306  1
  O  O62  1  0.50609196  0.86448549  0.07704051  1
  O  O63  1  0.34868264  0.86087293  0.57593162  1
  O  O64  1  0.50183769  0.64588481  0.57641451  1
  O  O65  1  0.13224331  0.49644093  0.57522049  1
  O  O66  1  0.31118013  0.84121317  0.25640132  1
  O  O67  1  0.52583305  0.68307589  0.25628939  1
  O  O68  1  0.16304256  0.46962467  0.25679552  1
  O  O69  1  0.31252581  0.47078130  0.75667188  1
  O  O70  1  0.15989098  0.69089649  0.75588129  1
  O  O71  1  0.52994104  0.83956710  0.75672091  1
loop_
_geom_bond_atom_site_label_1
_geom_bond_atom_site_label_2
_geom_bond_distance
_geom_bond_site_symmetry_2
Na0 O68 2.365551 1_555
Na0 O53 2.374016 1_555
Na0 O67 2.416284 1_555
Na0 O51 2.425080 1_555
Na0 O32 2.713497 1_555
Na0 O17 2.753557 1_555
Na0 O0 2.772205 1_555
Na0 O10 2.789759 1_555
Na1 O44 2.287604 1_455
Na1 O65 2.382353 1_555
Na1 O63 2.448624 1_555
Na1 O43 2.460355 1_565
Na1 O8 2.696351 1_555
Na1 O29 2.792493 1_555
Na1 O12 2.794113 1_455
Na1 O22 2.799180 1_455
Na2 O47 2.378204 1_565
Na2 O62 2.380450 1_555
Na2 O61 2.401382 1_555
Na2 O45 2.429837 1_455
Na2 O26 2.595260 1_554
Na2 O11 2.778119 1_555
Na2 O18 2.795047 1_565
Na2 O16 2.832537 1_565
Na3 O44 2.520216 1_545
Na3 O42 2.566198 1_555
Na3 O37 2.594309 1_545
Na3 O43 2.636133 1_655
Na3 O38 2.643578 1_655
Na3 O36 2.658514 1_645
Na4 O39 2.438192 1_655
Na4 O40 2.495026 1_645
Na4 O41 2.535212 1_545
Na4 O46 2.712640 1_556
Na4 O47 2.717205 1_656
Na4 O45 2.755178 1_546
Na5 O48 2.519753 1_555
Na5 O49 2.540586 1_555
Na5 O50 2.544361 1_555
Na5 O56 2.672404 1_555
Na5 O55 2.673735 1_555
Na5 O54 2.740748 1_555
Na6 O52 2.547767 1_555
Na6 O51 2.600723 1_555
Na6 O53 2.605430 1_555
Na6 O59 2.611934 1_555
Na6 O57 2.623763 1_555
Na6 O58 2.695732 1_555
Na7 O67 2.589114 1_555
Na7 O68 2.593616 1_555
Na7 O61 2.597185 1_555
Na7 O66 2.599898 1_555
Na7 O60 2.614398 1_555
Na7 O62 2.626104 1_555
Na8 O64 2.466904 1_555
Na8 O71 2.611405 1_555
Na8 O69 2.616324 1_555
Na8 O63 2.644255 1_555
Na8 O65 2.653753 1_555
Na8 O70 2.731102 1_555
Hf0 O55 1.965292 1_555
Hf0 O56 1.976964 1_555
Hf0 O54 2.072373 1_555
Hf0 O20 2.087299 1_556
Hf0 O19 2.124930 1_556
Hf0 O18 2.161895 1_556
Hf1 O22 1.945550 1_555
Hf1 O21 2.057562 1_555
Hf1 O23 2.067605 1_555
Hf1 O59 2.091910 1_555
Hf1 O58 2.093376 1_555
Hf1 O57 2.133933 1_555
Hf2 O33 1.978296 1_555
Hf2 O34 1.991489 1_555
Hf2 O70 2.066663 1_555
Hf2 O71 2.110019 1_555
Hf2 O35 2.118128 1_555
Hf2 O69 2.119761 1_555
Mg0 O1 2.037161 1_555
Mg0 O2 2.057287 1_565
Mg0 O0 2.086951 1_665
Mg0 O37 2.087041 1_555
Mg0 O38 2.103855 1_665
Mg0 O36 2.115070 1_655
Mg1 O39 2.001560 1_555
Mg1 O3 2.021453 1_555
Mg1 O40 2.027681 1_545
Mg1 O5 2.088770 1_455
Mg1 O4 2.097418 1_445
Mg1 O41 2.137467 1_445
Mg2 O6 2.000790 1_545
Mg2 O7 2.057059 1_655
Mg2 O44 2.068733 1_545
Mg2 O8 2.087915 1_645
Mg2 O42 2.117810 1_555
Mg2 O43 2.192982 1_655
Mg3 O9 2.001320 1_555
Mg3 O10 2.021899 1_665
Mg3 O11 2.092633 1_655
Mg3 O46 2.095556 1_565
Mg3 O45 2.146326 1_555
Mg3 O47 2.177498 1_665
Mg4 O14 1.957838 1_555
Mg4 O13 2.064390 1_555
Mg4 O49 2.065154 1_555
Mg4 O50 2.095392 1_555
Mg4 O12 2.112757 1_555
Mg4 O48 2.132601 1_555
Mg5 O15 2.003946 1_555
Mg5 O16 2.043687 1_555
Mg5 O52 2.053526 1_555
Mg5 O51 2.105470 1_555
Mg5 O17 2.111399 1_555
Mg5 O53 2.129202 1_555
Mg6 O25 1.919307 1_554
Mg6 O26 1.986113 1_554
Mg6 O24 2.030907 1_554
Mg6 O60 2.160014 1_555
Mg6 O61 2.182614 1_555
Mg6 O62 2.202049 1_555
Mg7 O64 1.975675 1_555
Mg7 O27 2.009219 1_555
Mg7 O28 2.035863 1_555
Mg7 O63 2.139445 1_555
Mg7 O65 2.148876 1_555
Mg7 O29 2.152657 1_555
Mg8 O31 2.010242 1_555
Mg8 O30 2.025983 1_555
Mg8 O66 2.088023 1_555
Mg8 O32 2.103401 1_555
Mg8 O68 2.142043 1_555
Mg8 O67 2.142761 1_555
O0 S0 1.477660 1_545
O1 S1 1.461771 1_555
O2 S2 1.466312 1_555
O3 S3 1.459638 1_555
O4 S4 1.461832 1_555
O5 S5 1.459785 1_555
O6 S5 1.469386 1_565
O7 S3 1.469702 1_555
O8 S4 1.476819 1_455
O9 S1 1.468405 1_555
O10 S2 1.486931 1_455
O11 S0 1.488441 1_555
O12 S6 1.461408 1_555
O13 S7 1.458072 1_555
O14 P0 1.508824 1_555
O15 S8 1.455594 1_555
O16 S9 1.470999 1_555
O17 S10 1.477058 1_555
O18 S10 1.511907 1_555
O19 S8 1.499833 1_555
O20 S9 1.510943 1_555
O21 S7 1.515429 1_555
O22 P0 1.618221 1_555
O23 S6 1.524438 1_555
O24 S11 1.456295 1_555
O25 P1 1.503508 1_555
O26 P2 1.522043 1_555
O27 S12 1.462230 1_555
O28 S13 1.462647 1_555
O29 S14 1.474222 1_555
O30 S14 1.464360 1_555
O31 S12 1.464312 1_555
O32 S13 1.476303 1_555
O33 P1 1.568043 1_555
O34 P2 1.567965 1_555
O35 S11 1.494859 1_555
O36 S14 1.472042 1_555
O37 S12 1.476485 1_555
O38 S13 1.470613 1_555
O39 P1 1.507079 1_555
O40 P2 1.507214 1_555
O41 S11 1.452124 1_555
O42 S6 1.464393 1_555
O43 S7 1.479377 1_555
O44 P0 1.551605 1_555
O45 S8 1.491759 1_555
O46 S9 1.465438 1_555
O47 S10 1.494123 1_555
O48 S5 1.477951 1_555
O49 S3 1.476293 1_555
O50 S4 1.470470 1_555
O51 S1 1.506636 1_555
O52 S2 1.480302 1_555
O53 S0 1.506918 1_545
O54 S11 1.516085 1_555
O55 P1 1.590857 1_655
O56 P2 1.586954 1_545
O57 S12 1.526660 1_545
O58 S13 1.532605 1_555
O59 S14 1.534651 1_655
O60 S10 1.466494 1_555
O61 S8 1.487644 1_455
O62 S9 1.487363 1_565
O63 S7 1.483485 1_565
O64 P0 1.520607 1_555
O65 S6 1.487866 1_455
O66 S0 1.477482 1_555
O67 S1 1.505576 1_555
O68 S2 1.506243 1_455
O69 S3 1.530334 1_555
O70 S4 1.534971 1_455
O71 S5 1.531113 1_565
