# generated using pymatgen
data_H2WO4
_symmetry_space_group_name_H-M   'P 1'
_cell_length_a   5.24636800
_cell_length_b   5.45553000
_cell_length_c   10.97686800
_cell_angle_alpha   90.00000000
_cell_angle_beta   90.00000000
_cell_angle_gamma   90.00000000
_symmetry_Int_Tables_number   1
_chemical_formula_structural   H2WO4
_chemical_formula_sum   'H8 W4 O16'
_cell_volume   314.17682058
_cell_formula_units_Z   4
loop_
 _symmetry_equiv_pos_site_id
 _symmetry_equiv_pos_as_xyz
  1  'x, y, z'
loop_
 _atom_site_type_symbol
 _atom_site_label
 _atom_site_symmetry_multiplicity
 _atom_site_fract_x
 _atom_site_fract_y
 _atom_site_fract_z
 _atom_site_occupancy
  H  H0  1  0.08039800  0.75000000  0.50920600  1
  H  H1  1  0.58039800  0.25000000  0.99079400  1
  H  H2  1  0.91960200  0.25000000  0.49079400  1
  H  H3  1  0.41960200  0.75000000  0.00920600  1
  H  H4  1  0.22770100  0.25000000  0.47583400  1
  H  H5  1  0.72770100  0.75000000  0.02416600  1
  H  H6  1  0.77229900  0.75000000  0.52416600  1
  H  H7  1  0.27229900  0.25000000  0.97583400  1
  W  W0  1  0.01252500  0.75000000  0.77530100  1
  W  W1  1  0.51252500  0.25000000  0.72469900  1
  W  W2  1  0.98747500  0.25000000  0.22469900  1
  W  W3  1  0.48747500  0.75000000  0.27530100  1
  O  O0  1  0.41968500  0.75000000  0.43323400  1
  O  O1  1  0.91968500  0.25000000  0.06676600  1
  O  O2  1  0.58031500  0.25000000  0.56676600  1
  O  O3  1  0.93657000  0.75000000  0.56699600  1
  O  O4  1  0.74748700  0.99967000  0.27462700  1
  O  O5  1  0.24748700  0.00033000  0.22537300  1
  O  O6  1  0.43657000  0.25000000  0.93300400  1
  O  O7  1  0.75251300  0.50033000  0.77462700  1
  O  O8  1  0.25251300  0.00033000  0.72537300  1
  O  O9  1  0.75251300  0.99967000  0.77462700  1
  O  O10  1  0.74748700  0.50033000  0.27462700  1
  O  O11  1  0.24748700  0.49967000  0.22537300  1
  O  O12  1  0.06343000  0.25000000  0.43300400  1
  O  O13  1  0.56343000  0.75000000  0.06699600  1
  O  O14  1  0.08031500  0.75000000  0.93323400  1
  O  O15  1  0.25251300  0.49967000  0.72537300  1
loop_
_geom_bond_atom_site_label_1
_geom_bond_atom_site_label_2
_geom_bond_distance
_geom_bond_site_symmetry_2
H0 O3 0.985792 1_455
H1 O6 0.985792 1_555
H2 O12 0.985792 1_655
H3 O13 0.985792 1_555
H4 O12 0.981721 1_555
H5 O13 0.981721 1_555
H6 O3 0.981721 1_555
H7 O6 0.981721 1_555
O0 W3 1.769715 1_555
O1 W2 1.769715 1_555
O2 W1 1.769715 1_555
O3 W0 2.321000 1_655
O4 W3 1.927730 1_555
O4 W2 1.936672 1_565
O5 W2 1.927730 1_455
O5 W3 1.936672 1_545
O6 W1 2.321000 1_555
O7 W0 1.927730 1_655
O7 W1 1.936672 1_555
O8 W1 1.927730 1_555
O8 W0 1.936672 1_545
O9 W0 1.927730 1_655
O9 W1 1.936672 1_565
O10 W3 1.927730 1_555
O10 W2 1.936672 1_555
O11 W2 1.927730 1_455
O11 W3 1.936672 1_555
O12 W2 2.321000 1_455
O13 W3 2.321000 1_555
O14 W0 1.769715 1_555
O15 W1 1.927730 1_555
O15 W0 1.936672 1_555
