# generated using pymatgen
data_MgMn6O7F5
_symmetry_space_group_name_H-M   'P 1'
_cell_length_a   8.46543372
_cell_length_b   5.84733509
_cell_length_c   6.01107458
_cell_angle_alpha   65.66157501
_cell_angle_beta   63.14643371
_cell_angle_gamma   64.79786404
_symmetry_Int_Tables_number   1
_chemical_formula_structural   MgMn6O7F5
_chemical_formula_sum   'Mg1 Mn6 O7 F5'
_cell_volume   231.12010449
_cell_formula_units_Z   1
loop_
 _symmetry_equiv_pos_site_id
 _symmetry_equiv_pos_as_xyz
  1  'x, y, z'
loop_
 _atom_site_type_symbol
 _atom_site_label
 _atom_site_symmetry_multiplicity
 _atom_site_fract_x
 _atom_site_fract_y
 _atom_site_fract_z
 _atom_site_occupancy
  Mg  Mg0  1  0.83756300  0.66061100  0.16476600  1
  Mn  Mn0  1  0.82951800  0.66611200  0.66166900  1
  Mn  Mn1  1  0.63360700  0.30449000  0.33677000  1
  Mn  Mn2  1  0.33570400  0.65330600  0.65533100  1
  Mn  Mn3  1  0.20168100  0.34966700  0.34397400  1
  Mn  Mn4  1  0.47936700  0.99107100  0.99561600  1
  Mn  Mn5  1  0.02956100  0.02861800  0.99251900  1
  O  O0  1  0.65424100  0.02383700  0.64260300  1
  O  O1  1  0.33665900  0.35693900  0.96985500  1
  O  O2  1  0.37551600  0.44038900  0.45093300  1
  O  O3  1  0.33164900  0.96898000  0.36065900  1
  O  O4  1  0.66537000  0.62980400  0.03527800  1
  O  O5  1  0.01567900  0.32684000  0.68749400  1
  O  O6  1  0.00355500  0.69762100  0.29997800  1
  F  F0  1  0.31320900  0.86885100  0.86894400  1
  F  F1  1  0.65245000  0.58066500  0.52154600  1
  F  F2  1  0.91857300  0.26621900  0.23682200  1
  F  F3  1  0.72869900  0.05516600  0.10447900  1
  F  F4  1  0.02406500  0.76176400  0.81361700  1
loop_
_geom_bond_atom_site_label_1
_geom_bond_atom_site_label_2
_geom_bond_distance
_geom_bond_site_symmetry_2
Mg0 O6 2.029225 1_655
Mg0 O4 2.031596 1_555
Mn0 O5 1.935957 1_655
Mn0 O0 1.975597 1_565
Mn0 O6 1.984607 1_655
Mn0 O4 2.014575 1_556
Mn1 O2 1.868779 1_555
Mn1 O0 1.913785 1_555
Mn1 O4 2.031991 1_555
Mn2 O2 1.924210 1_555
Mn2 O3 1.962620 1_555
Mn2 O1 1.969517 1_555
Mn3 O5 1.943056 1_555
Mn3 O3 2.001400 1_545
Mn3 O1 2.001471 1_554
Mn3 O6 2.018337 1_555
Mn3 O2 2.158951 1_555
Mn4 O1 1.937829 1_565
Mn4 O0 1.949241 1_565
Mn4 O3 1.954573 1_556
Mn4 O4 2.022359 1_556
Mn5 O5 1.949677 1_555
Mn5 O6 2.063263 1_546
F0 Mn2 2.045038 1_555
F0 Mn5 2.059248 1_565
F0 Mn4 2.311118 1_555
F1 Mg0 2.008722 1_555
F1 Mn0 2.308956 1_555
F1 Mn2 2.319592 1_555
F1 Mn1 2.392662 1_555
F2 Mg0 2.018506 1_555
F2 Mn5 2.071975 1_654
F2 Mn1 2.138277 1_555
F3 Mg0 2.026131 1_545
F3 Mn1 2.094304 1_555
F3 Mn5 2.272603 1_654
F3 Mn4 2.673463 1_544
F4 Mg0 2.013315 1_456
F4 Mn2 2.252150 1_555
F4 Mn5 2.254680 1_565
F4 Mn0 2.534552 1_455
