# generated using pymatgen
data_CsCaI3
_symmetry_space_group_name_H-M   'P 1'
_cell_length_a   6.18139703
_cell_length_b   6.18139703
_cell_length_c   6.17084849
_cell_angle_alpha   90.00092099
_cell_angle_beta   90.00092099
_cell_angle_gamma   90.09387658
_symmetry_Int_Tables_number   1
_chemical_formula_structural   CsCaI3
_chemical_formula_sum   'Cs1 Ca1 I3'
_cell_volume   235.78576333
_cell_formula_units_Z   1
loop_
 _symmetry_equiv_pos_site_id
 _symmetry_equiv_pos_as_xyz
  1  'x, y, z'
loop_
 _atom_site_type_symbol
 _atom_site_label
 _atom_site_symmetry_multiplicity
 _atom_site_fract_x
 _atom_site_fract_y
 _atom_site_fract_z
 _atom_site_occupancy
  Cs  Cs0  1  0.00043840  0.00043840  0.99260623  1
  Ca  Ca0  1  0.50072749  0.50072749  0.48646899  1
  I  I0  1  0.50222230  0.00084989  0.48628439  1
  I  I1  1  0.49867893  0.49867893  0.98624499  1
  I  I2  1  0.00084989  0.50222230  0.48628439  1
loop_
_geom_bond_atom_site_label_1
_geom_bond_atom_site_label_2
_geom_bond_distance
_geom_bond_site_symmetry_2
Cs0 I2 4.331898 1_546
Cs0 I0 4.331898 1_456
Cs0 I2 4.347529 1_556
Cs0 I0 4.347529 1_556
Cs0 I1 4.352135 1_555
Cs0 I1 4.374690 1_545
Cs0 I1 4.374690 1_455
Cs0 I1 4.382869 1_445
Cs0 I2 4.387049 1_545
Cs0 I0 4.387049 1_455
Cs0 I2 4.402623 1_555
Cs0 I0 4.402623 1_555
Ca0 I1 3.084094 1_555
Ca0 I1 3.086858 1_554
Ca0 I2 3.089971 1_555
Ca0 I0 3.089971 1_555
Ca0 I2 3.091454 1_655
Ca0 I0 3.091454 1_565
