# generated using pymatgen
data_Ta4FeTe4
_symmetry_space_group_name_H-M   'P 1'
_cell_length_a   4.86032300
_cell_length_b   10.94930800
_cell_length_c   19.26369700
_cell_angle_alpha   90.00000000
_cell_angle_beta   90.00000000
_cell_angle_gamma   90.00000000
_symmetry_Int_Tables_number   1
_chemical_formula_structural   Ta4FeTe4
_chemical_formula_sum   'Ta16 Fe4 Te16'
_cell_volume   1025.15950563
_cell_formula_units_Z   4
loop_
 _symmetry_equiv_pos_site_id
 _symmetry_equiv_pos_as_xyz
  1  'x, y, z'
loop_
 _atom_site_type_symbol
 _atom_site_label
 _atom_site_symmetry_multiplicity
 _atom_site_fract_x
 _atom_site_fract_y
 _atom_site_fract_z
 _atom_site_occupancy
  Ta  Ta0  1  0.50000000  0.59583500  0.60566000  1
  Ta  Ta1  1  0.50000000  0.40416500  0.39434000  1
  Ta  Ta2  1  0.50000000  0.09583500  0.89434000  1
  Ta  Ta3  1  0.50000000  0.90416500  0.10566000  1
  Ta  Ta4  1  0.00000000  0.29992400  0.46370300  1
  Ta  Ta5  1  0.00000000  0.70007600  0.53629700  1
  Ta  Ta6  1  0.00000000  0.79992400  0.03629700  1
  Ta  Ta7  1  0.00000000  0.20007600  0.96370300  1
  Ta  Ta8  1  0.50000000  0.31314000  0.55451800  1
  Ta  Ta9  1  0.50000000  0.68686000  0.44548200  1
  Ta  Ta10  1  0.50000000  0.81314000  0.94548200  1
  Ta  Ta11  1  0.50000000  0.18686000  0.05451800  1
  Ta  Ta12  1  0.00000000  0.43580400  0.61317600  1
  Ta  Ta13  1  0.00000000  0.56419600  0.38682400  1
  Ta  Ta14  1  0.00000000  0.93580400  0.88682400  1
  Ta  Ta15  1  0.00000000  0.06419600  0.11317600  1
  Fe  Fe0  1  0.24996600  0.50000000  0.50000000  1
  Fe  Fe1  1  0.75003400  0.00000000  0.00000000  1
  Fe  Fe2  1  0.75003400  0.50000000  0.50000000  1
  Fe  Fe3  1  0.24996600  0.00000000  0.00000000  1
  Te  Te0  1  0.00000000  0.66572900  0.68327400  1
  Te  Te1  1  0.00000000  0.33427100  0.31672600  1
  Te  Te2  1  0.00000000  0.16572900  0.81672600  1
  Te  Te3  1  0.00000000  0.83427100  0.18327400  1
  Te  Te4  1  0.50000000  0.38921800  0.69636400  1
  Te  Te5  1  0.50000000  0.61078200  0.30363600  1
  Te  Te6  1  0.50000000  0.88921800  0.80363600  1
  Te  Te7  1  0.50000000  0.11078200  0.19636400  1
  Te  Te8  1  0.50000000  0.15379200  0.43679600  1
  Te  Te9  1  0.50000000  0.84620800  0.56320400  1
  Te  Te10  1  0.50000000  0.65379200  0.06320400  1
  Te  Te11  1  0.50000000  0.34620800  0.93679600  1
  Te  Te12  1  0.00000000  0.32359300  0.09454000  1
  Te  Te13  1  0.00000000  0.67640700  0.90546000  1
  Te  Te14  1  0.00000000  0.82359300  0.40546000  1
  Te  Te15  1  0.00000000  0.17640700  0.59454000  1
loop_
_geom_bond_atom_site_label_1
_geom_bond_atom_site_label_2
_geom_bond_distance
_geom_bond_site_symmetry_2
Ta0 Te4 2.858513 1_555
Ta0 Te9 2.860809 1_555
Ta0 Te0 2.954112 1_655
Ta0 Te0 2.954112 1_555
Ta1 Te5 2.858513 1_555
Ta1 Te8 2.860809 1_555
Ta1 Te1 2.954112 1_555
Ta1 Te1 2.954112 1_655
Ta2 Te6 2.858513 1_545
Ta2 Te11 2.860809 1_555
Ta2 Te2 2.954112 1_555
Ta2 Te2 2.954112 1_655
Ta3 Te7 2.858513 1_565
Ta3 Te10 2.860809 1_555
Ta3 Te3 2.954112 1_555
Ta3 Te3 2.954112 1_655
Ta4 Te1 2.856188 1_555
Ta4 Te15 2.860331 1_555
Ta4 Te8 2.955417 1_555
Ta4 Te8 2.955417 1_455
Ta5 Te0 2.856188 1_555
Ta5 Te14 2.860331 1_555
Ta5 Te9 2.955417 1_555
Ta5 Te9 2.955417 1_455
Ta6 Te3 2.856188 1_555
Ta6 Te13 2.860331 1_554
Ta6 Te10 2.955417 1_455
Ta6 Te10 2.955417 1_555
Ta7 Te2 2.856188 1_555
Ta7 Te12 2.860331 1_556
Ta7 Te11 2.955417 1_555
Ta7 Te11 2.955417 1_455
Ta8 Te4 2.856629 1_555
Ta8 Te8 2.861275 1_555
Ta8 Te15 2.956600 1_655
Ta8 Te15 2.956600 1_555
Ta9 Te5 2.856629 1_555
Ta9 Te9 2.861275 1_555
Ta9 Te14 2.956600 1_555
Ta9 Te14 2.956600 1_655
Ta10 Te6 2.856629 1_555
Ta10 Te10 2.861275 1_556
Ta10 Te13 2.956600 1_655
Ta10 Te13 2.956600 1_555
Ta11 Te7 2.856629 1_555
Ta11 Te11 2.861275 1_554
Ta11 Te12 2.956600 1_555
Ta11 Te12 2.956600 1_655
Ta12 Te0 2.856806 1_555
Ta12 Te15 2.862816 1_555
Ta12 Te4 2.955318 1_455
Ta12 Te4 2.955318 1_555
Ta13 Te1 2.856806 1_555
Ta13 Te14 2.862816 1_555
Ta13 Te5 2.955318 1_555
Ta13 Te5 2.955318 1_455
Ta14 Te2 2.856806 1_565
Ta14 Te13 2.862816 1_555
Ta14 Te6 2.955318 1_555
Ta14 Te6 2.955318 1_455
Ta15 Te3 2.856806 1_545
Ta15 Te12 2.862816 1_555
Ta15 Te7 2.955318 1_455
Ta15 Te7 2.955318 1_555
Fe0 Fe2 2.429831 1_455
Fe0 Fe2 2.430492 1_555
Fe0 Ta1 2.592445 1_555
Fe0 Ta0 2.592445 1_555
Fe0 Ta12 2.592935 1_555
Fe0 Ta13 2.592935 1_555
Fe0 Ta5 2.600781 1_555
Fe0 Ta4 2.600781 1_555
Fe0 Ta8 2.601124 1_555
Fe0 Ta9 2.601124 1_555
Fe1 Fe3 2.429831 1_655
Fe1 Fe3 2.430492 1_555
Fe1 Ta2 2.592445 1_554
Fe1 Ta3 2.592445 1_545
Fe1 Ta15 2.592935 1_655
Fe1 Ta14 2.592935 1_644
Fe1 Ta6 2.600781 1_645
Fe1 Ta7 2.600781 1_654
Fe1 Ta11 2.601124 1_555
Fe1 Ta10 2.601124 1_544
Fe2 Ta1 2.592445 1_555
Fe2 Ta0 2.592445 1_555
Fe2 Ta12 2.592935 1_655
Fe2 Ta13 2.592935 1_655
Fe2 Ta5 2.600781 1_655
Fe2 Ta4 2.600781 1_655
Fe2 Ta8 2.601124 1_555
Fe2 Ta9 2.601124 1_555
Fe3 Ta2 2.592445 1_554
Fe3 Ta3 2.592445 1_545
Fe3 Ta15 2.592935 1_555
Fe3 Ta14 2.592935 1_544
Fe3 Ta6 2.600781 1_545
Fe3 Ta7 2.600781 1_554
Fe3 Ta11 2.601124 1_555
Fe3 Ta10 2.601124 1_544
