# generated using pymatgen
data_LiTe3
_symmetry_space_group_name_H-M   'P 1'
_cell_length_a   8.77689195
_cell_length_b   8.77699530
_cell_length_c   21.46105558
_cell_angle_alpha   89.99626102
_cell_angle_beta   90.00285262
_cell_angle_gamma   120.00366122
_symmetry_Int_Tables_number   1
_chemical_formula_structural   LiTe3
_chemical_formula_sum   'Li12 Te36'
_cell_volume   1431.70092019
_cell_formula_units_Z   12
loop_
 _symmetry_equiv_pos_site_id
 _symmetry_equiv_pos_as_xyz
  1  'x, y, z'
loop_
 _atom_site_type_symbol
 _atom_site_label
 _atom_site_symmetry_multiplicity
 _atom_site_fract_x
 _atom_site_fract_y
 _atom_site_fract_z
 _atom_site_occupancy
  Li  Li0  1  0.33334121  0.66667167  0.42010969  1
  Li  Li1  1  0.66667121  0.33333968  0.07990173  1
  Li  Li2  1  0.66668401  0.33334481  0.57996584  1
  Li  Li3  1  0.33333153  0.66668636  0.91961024  1
  Li  Li4  1  0.33334397  0.66667418  0.66423505  1
  Li  Li5  1  0.66667461  0.33334086  0.83576349  1
  Li  Li6  1  0.66666699  0.33333596  0.33579266  1
  Li  Li7  1  0.33332623  0.66666598  0.16426765  1
  Li  Li8  1  -0.00002481  -0.00000930  0.74962061  1
  Li  Li9  1  0.00005805  0.00008269  0.25041054  1
  Li  Li10  1  0.00000226  0.00002141  0.49997973  1
  Li  Li11  1  -0.00000315  0.00001567  0.00003025  1
  Te  Te0  1  0.17814647  0.33690541  0.08247618  1
  Te  Te1  1  0.66304482  0.84130353  0.08248084  1
  Te  Te2  1  0.15867934  0.82178435  0.08246534  1
  Te  Te3  1  0.84111978  0.66299615  0.41766967  1
  Te  Te4  1  0.82201180  0.15891504  0.41765861  1
  Te  Te5  1  0.33702626  0.17801293  0.41766199  1
  Te  Te6  1  0.82170761  0.66294032  0.91758483  1
  Te  Te7  1  0.33697542  0.15866578  0.91756650  1
  Te  Te8  1  0.84125506  0.17826692  0.91757601  1
  Te  Te9  1  0.15915304  0.33717757  0.58234365  1
  Te  Te10  1  0.17819690  0.84101204  0.58236408  1
  Te  Te11  1  0.66283088  0.82181876  0.58236317  1
  Te  Te12  1  0.85592741  0.67011233  0.16555371  1
  Te  Te13  1  0.32962033  0.18575564  0.16560531  1
  Te  Te14  1  0.81418991  0.14403489  0.16557475  1
  Te  Te15  1  0.18546364  0.32964629  0.33463416  1
  Te  Te16  1  0.14417702  0.81464152  0.33463025  1
  Te  Te17  1  0.67040023  0.85582576  0.33461201  1
  Te  Te18  1  0.14438446  0.32978542  0.83423437  1
  Te  Te19  1  0.67028345  0.81461157  0.83422712  1
  Te  Te20  1  0.18533565  0.85560238  0.83423133  1
  Te  Te21  1  0.81465212  0.67028408  0.66554062  1
  Te  Te22  1  0.85565626  0.18529373  0.66552459  1
  Te  Te23  1  0.32966880  0.14434213  0.66555510  1
  Te  Te24  1  0.52493469  0.52495954  0.74984054  1
  Te  Te25  1  0.00006066  0.47504200  0.74986907  1
  Te  Te26  1  0.47498947  -0.00005323  0.74991955  1
  Te  Te27  1  0.47510252  0.47512623  0.25019042  1
  Te  Te28  1  -0.00003369  0.52491741  0.25018691  1
  Te  Te29  1  0.52492056  0.00004477  0.25018078  1
  Te  Te30  1  0.00002473  0.49998936  0.50021736  1
  Te  Te31  1  0.50002063  0.50002796  0.50021825  1
  Te  Te32  1  0.49999806  0.00002676  0.50021418  1
  Te  Te33  1  0.49997413  0.49996893  -0.00021384  1
  Te  Te34  1  0.00001938  0.50004381  -0.00021844  1
  Te  Te35  1  0.50001107  0.00000296  -0.00022446  1
loop_
_geom_bond_atom_site_label_1
_geom_bond_atom_site_label_2
_geom_bond_distance
_geom_bond_site_symmetry_2
Li0 Te30 3.061726 1_555
Li0 Te31 3.061785 1_555
Li0 Te32 3.061994 1_565
Li0 Te15 3.156025 1_555
Li0 Te17 3.156408 1_555
Li0 Te16 3.156643 1_555
Li1 Te33 3.061889 1_555
Li1 Te34 3.062076 1_655
Li1 Te35 3.062140 1_555
Li1 Te12 3.156757 1_555
Li1 Te14 3.157295 1_555
Li1 Te13 3.159120 1_555
Li2 Te32 3.057515 1_555
Li2 Te30 3.057557 1_655
Li2 Te31 3.057589 1_555
Li2 Te21 3.156665 1_555
Li2 Te22 3.156881 1_555
Li2 Te23 3.157216 1_555
Li3 Te34 3.062466 1_556
Li3 Te35 3.062485 1_566
Li3 Te33 3.062828 1_556
Li3 Te18 3.153914 1_555
Li3 Te20 3.153951 1_555
Li3 Te19 3.154312 1_555
Li4 Te10 3.060410 1_555
Li4 Te11 3.060440 1_555
Li4 Te9 3.060751 1_555
Li4 Te24 3.137076 1_555
Li4 Te25 3.137317 1_555
Li4 Te26 3.137988 1_565
Li5 Te6 3.060621 1_555
Li5 Te8 3.060782 1_555
Li5 Te7 3.060953 1_555
Li5 Te26 3.140700 1_555
Li5 Te25 3.141262 1_655
Li5 Te24 3.141399 1_555
Li6 Te5 3.061341 1_555
Li6 Te3 3.061635 1_555
Li6 Te4 3.062081 1_555
Li6 Te28 3.137024 1_655
Li6 Te29 3.137133 1_555
Li6 Te27 3.137308 1_555
Li7 Te1 3.060863 1_555
Li7 Te0 3.061240 1_555
Li7 Te2 3.061349 1_555
Li7 Te27 3.141101 1_555
Li7 Te28 3.141378 1_555
Li7 Te29 3.141427 1_565
Li8 Te22 3.093000 1_455
Li8 Te23 3.093078 1_555
Li8 Te21 3.093359 1_445
Li8 Te19 3.099842 1_445
Li8 Te20 3.100233 1_545
Li8 Te18 3.100637 1_555
Li9 Te16 3.094256 1_545
Li9 Te15 3.094356 1_555
Li9 Te17 3.094600 1_445
Li9 Te13 3.101732 1_555
Li9 Te14 3.103747 1_455
Li9 Te12 3.104962 1_445
Li10 Te4 3.112064 1_455
Li10 Te5 3.112871 1_555
Li10 Te3 3.112899 1_445
Li10 Te9 3.114326 1_555
Li10 Te11 3.114626 1_445
Li10 Te10 3.114845 1_545
Li11 Te2 3.113693 1_545
Li11 Te0 3.113711 1_555
Li11 Te1 3.114122 1_445
Li11 Te8 3.114417 1_454
Li11 Te7 3.114467 1_554
Li11 Te6 3.114876 1_444
