# generated using pymatgen
data_Na10La4Ti4Si7S5O48
_symmetry_space_group_name_H-M   'P 1'
_cell_length_a   18.81705361
_cell_length_b   9.46411342
_cell_length_c   22.74575505
_cell_angle_alpha   90.04796197
_cell_angle_beta   86.62757255
_cell_angle_gamma   120.00276513
_symmetry_Int_Tables_number   1
_chemical_formula_structural   Na10La4Ti4Si7S5O48
_chemical_formula_sum   'Na30 La12 Ti12 Si21 S15 O144'
_cell_volume   3499.93740114
_cell_formula_units_Z   3
loop_
 _symmetry_equiv_pos_site_id
 _symmetry_equiv_pos_as_xyz
  1  'x, y, z'
loop_
 _atom_site_type_symbol
 _atom_site_label
 _atom_site_symmetry_multiplicity
 _atom_site_fract_x
 _atom_site_fract_y
 _atom_site_fract_z
 _atom_site_occupancy
  Na  Na0  1  0.18384830  0.36633056  0.23963749  1
  Na  Na1  1  0.68488039  0.36890684  0.23955726  1
  Na  Na2  1  0.99260911  0.64542890  0.25155224  1
  Na  Na3  1  0.49454430  0.64523038  0.25073502  1
  Na  Na4  1  0.49223150  0.33621218  0.75835627  1
  Na  Na5  1  0.18401374  0.00311831  0.74154964  1
  Na  Na6  1  0.67922721  0.00518929  0.74183333  1
  Na  Na7  1  0.65714659  0.33698578  0.58199708  1
  Na  Na8  1  0.01304079  0.69778292  0.57473030  1
  Na  Na9  1  0.82606367  0.97212046  0.58673531  1
  Na  Na10  1  0.49482454  0.67612659  0.91771176  1
  Na  Na11  1  0.99355754  0.67493041  0.91608058  1
  Na  Na12  1  0.84718702  0.03456637  0.91247618  1
  Na  Na13  1  0.15325153  0.30786220  0.91961938  1
  Na  Na14  1  0.49194480  0.30952981  0.41550068  1
  Na  Na15  1  0.98368962  0.29876838  0.41559483  1
  Na  Na16  1  0.34318538  0.65790888  0.40874603  1
  Na  Na17  1  0.84706801  0.66595036  0.40929387  1
  Na  Na18  1  0.02744443  0.02226020  0.50285709  1
  Na  Na19  1  0.52009182  0.99133816  0.50159014  1
  Na  Na20  1  0.01362120  0.01470136  0.00600954  1
  Na  Na21  1  0.51805913  0.04090933  0.00311697  1
  Na  Na22  1  0.34571354  0.33913135  0.83583191  1
  Na  Na23  1  0.85151038  0.35114265  0.83222539  1
  Na  Na24  1  0.34081624  0.32296008  0.33072378  1
  Na  Na25  1  0.83886286  0.32021379  0.33678040  1
  Na  Na26  1  0.18107650  0.66897203  0.16763496  1
  Na  Na27  1  0.68150465  0.67103273  0.16821704  1
  Na  Na28  1  0.18104212  0.67391356  0.67411136  1
  Na  Na29  1  0.67930398  0.67904787  0.67033220  1
  La  La0  1  0.00230942  0.99561489  0.34707577  1
  La  La1  1  0.50269707  0.99901886  0.34585937  1
  La  La2  1  0.99871563  0.00693742  0.84094908  1
  La  La3  1  0.49098573  0.00023048  0.85536948  1
  La  La4  1  0.33641540  0.33586379  0.67972283  1
  La  La5  1  0.83860992  0.34075315  0.68672595  1
  La  La6  1  0.33788118  0.34217484  0.17600868  1
  La  La7  1  0.83798822  0.33934846  0.17798209  1
  La  La8  1  0.16013639  0.65208258  0.02006365  1
  La  La9  1  0.65898011  0.64617651  0.02264080  1
  La  La10  1  0.16689332  0.67691324  0.51808832  1
  La  La11  1  0.65726330  0.67499714  0.51704985  1
  Ti  Ti0  1  0.98794093  0.95360369  0.64974651  1
  Ti  Ti1  1  0.49242405  0.95760741  0.64955563  1
  Ti  Ti2  1  0.99246011  0.02715057  0.14956258  1
  Ti  Ti3  1  0.49235705  0.02420744  0.14941029  1
  Ti  Ti4  1  0.31837168  0.29451360  0.97587317  1
  Ti  Ti5  1  0.81681834  0.31316926  0.97395481  1
  Ti  Ti6  1  0.31624727  0.32306210  0.47317894  1
  Ti  Ti7  1  0.82085011  0.35910889  0.47908991  1
  Ti  Ti8  1  0.15669155  0.61950083  0.31214386  1
  Ti  Ti9  1  0.65663340  0.62228054  0.31323186  1
  Ti  Ti10  1  0.15624543  0.69404982  0.81104412  1
  Ti  Ti11  1  0.65517985  0.69445081  0.81173077  1
  Si  Si0  1  0.34635863  0.71352413  0.25189739  1
  Si  Si1  1  0.84697389  0.71419784  0.25169889  1
  Si  Si2  1  0.00197341  0.30801607  0.25396891  1
  Si  Si3  1  0.50234531  0.30879981  0.25331674  1
  Si  Si4  1  0.00428552  0.69862776  0.75450463  1
  Si  Si5  1  0.50187536  0.69781755  0.75432983  1
  Si  Si6  1  0.34765642  0.98161969  0.74787859  1
  Si  Si7  1  0.84172945  0.97155222  0.75372204  1
  Si  Si8  1  0.17747041  0.04728238  0.58864442  1
  Si  Si9  1  0.68269384  0.05351373  0.58875252  1
  Si  Si10  1  0.83431554  0.63957937  0.58150421  1
  Si  Si11  1  0.17802870  0.30836456  0.08831370  1
  Si  Si12  1  0.67781913  0.30723329  0.09009650  1
  Si  Si13  1  0.01432043  0.37997671  0.91532402  1
  Si  Si14  1  0.51053291  0.38187454  0.91670837  1
  Si  Si15  1  0.16745138  0.96903724  0.91518451  1
  Si  Si16  1  0.66917540  0.96896518  0.91799026  1
  Si  Si17  1  0.16708585  0.36602948  0.41672608  1
  Si  Si18  1  0.66730796  0.36608352  0.42042943  1
  Si  Si19  1  0.01212556  0.64483601  0.41896567  1
  Si  Si20  1  0.50811819  0.64482609  0.41456199  1
  S  S0  1  0.14702263  0.97547150  0.24490080  1
  S  S1  1  0.64658857  0.97444877  0.24474570  1
  S  S2  1  0.14686729  0.32007468  0.74970096  1
  S  S3  1  0.64069781  0.30766916  0.74421331  1
  S  S4  1  0.48212167  0.29916324  0.58080080  1
  S  S5  1  0.98051268  0.30372229  0.57690189  1
  S  S6  1  0.34542297  0.64890665  0.57817198  1
  S  S7  1  0.48266302  0.67208803  0.08317185  1
  S  S8  1  0.98157040  0.66648996  0.08160277  1
  S  S9  1  0.34418134  0.04195334  0.08016440  1
  S  S10  1  0.84415775  0.03856493  0.07915823  1
  S  S11  1  0.30976682  0.62905249  0.91730637  1
  S  S12  1  0.81418559  0.64139881  0.91709560  1
  S  S13  1  0.31425249  0.98960926  0.41566393  1
  S  S14  1  0.81204285  0.98051216  0.41673313  1
  O  O0  1  0.11952518  0.00215491  0.30441522  1
  O  O1  1  0.61926820  0.00062721  0.30439638  1
  O  O2  1  0.39377970  0.76776633  0.31220604  1
  O  O3  1  0.89610808  0.76520609  0.31130844  1
  O  O4  1  0.49217252  0.21899824  0.31526259  1
  O  O5  1  0.99391604  0.21810532  0.31544275  1
  O  O6  1  0.12077125  0.25115918  0.81119776  1
  O  O7  1  0.60187321  0.21312838  0.79992302  1
  O  O8  1  0.49495649  0.77630657  0.81465637  1
  O  O9  1  0.00165086  0.77862328  0.81587415  1
  O  O10  1  0.40793123  0.04236113  0.80094208  1
  O  O11  1  0.88354568  0.99716937  0.81539111  1
  O  O12  1  0.40548173  0.96030343  0.69106585  1
  O  O13  1  0.90337511  0.96254865  0.69697025  1
  O  O14  1  0.09075072  0.20455574  0.70759116  1
  O  O15  1  0.59366305  0.21056210  0.69335683  1
  O  O16  1  0.00829543  0.82031197  0.69710458  1
  O  O17  1  0.50807320  0.82087913  0.69677107  1
  O  O18  1  0.40773899  0.85130489  0.19773976  1
  O  O19  1  0.90814603  0.85302901  0.19772937  1
  O  O20  1  0.00964563  0.19704476  0.19755002  1
  O  O21  1  0.50931458  0.19475655  0.19761362  1
  O  O22  1  0.09189424  0.97522760  0.20066863  1
  O  O23  1  0.59095734  0.97412998  0.20085292  1
  O  O24  1  0.44352162  0.30598358  0.63831831  1
  O  O25  1  0.94059547  0.32159552  0.63207374  1
  O  O26  1  0.22442460  0.11885244  0.64736526  1
  O  O27  1  0.72676804  0.12287907  0.64848402  1
  O  O28  1  0.33176122  0.55405360  0.63269907  1
  O  O29  1  0.81671203  0.51302751  0.63355408  1
  O  O30  1  0.44699013  0.58845293  0.14205268  1
  O  O31  1  0.94416075  0.58356077  0.14014736  1
  O  O32  1  0.33039391  0.10348704  0.13649838  1
  O  O33  1  0.83093163  0.10817752  0.13351168  1
  O  O34  1  0.22132486  0.31906710  0.14860216  1
  O  O35  1  0.72112233  0.31355255  0.14950398  1
  O  O36  1  0.23790929  0.29144535  0.03103683  1
  O  O37  1  0.74006455  0.29740325  0.03173949  1
  O  O38  1  0.43638394  0.56622218  0.03498715  1
  O  O39  1  0.93579166  0.56169801  0.03257164  1
  O  O40  1  0.35012217  0.14961017  0.02954641  1
  O  O41  1  0.85095266  0.13762866  0.02589455  1
  O  O42  1  0.23977229  0.17967710  0.53013590  1
  O  O43  1  0.74094283  0.19665144  0.53249072  1
  O  O44  1  0.34965934  0.56002792  0.52497505  1
  O  O45  1  0.84571649  0.54800761  0.51894864  1
  O  O46  1  0.43880200  0.31267462  0.53094978  1
  O  O47  1  0.93565125  0.30663356  0.52560409  1
  O  O48  1  0.27438543  0.64746247  0.97407316  1
  O  O49  1  0.77793730  0.66118695  0.97343044  1
  O  O50  1  0.07512576  0.44270762  0.96818089  1
  O  O51  1  0.56246312  0.46752136  0.97192530  1
  O  O52  1  0.14864945  0.84475074  0.96858986  1
  O  O53  1  0.67366302  0.86451189  0.97058568  1
  O  O54  1  0.28005941  0.90306344  0.47292673  1
  O  O55  1  0.78101934  0.90271245  0.47603500  1
  O  O56  1  0.16911093  0.47461980  0.47028294  1
  O  O57  1  0.66384620  0.45355998  0.47968588  1
  O  O58  1  0.05656123  0.66644827  0.47957545  1
  O  O59  1  0.55804890  0.67447363  0.47197328  1
  O  O60  1  0.07166966  0.62504250  0.36248611  1
  O  O61  1  0.56433525  0.62220371  0.35693816  1
  O  O62  1  0.26634475  0.90175319  0.36631302  1
  O  O63  1  0.76145854  0.87767975  0.37022698  1
  O  O64  1  0.17952796  0.48088427  0.35503467  1
  O  O65  1  0.67531474  0.48923378  0.36158374  1
  O  O66  1  0.06987000  0.52206574  0.85932843  1
  O  O67  1  0.56413323  0.51301394  0.85691659  1
  O  O68  1  0.17627055  0.87811007  0.85309913  1
  O  O69  1  0.67887890  0.87597768  0.85555622  1
  O  O70  1  0.26502019  0.63347609  0.86699207  1
  O  O71  1  0.76746657  0.62901907  0.86672054  1
  O  O72  1  0.99140436  0.79017668  0.41075662  1
  O  O73  1  0.48432472  0.78553360  0.40781031  1
  O  O74  1  0.39997660  0.02188660  0.41072943  1
  O  O75  1  0.89745431  0.00436476  0.41092482  1
  O  O76  1  0.08803222  0.18818420  0.41708879  1
  O  O77  1  0.58815680  0.18745966  0.41621899  1
  O  O78  1  0.99199134  0.19206072  0.90611947  1
  O  O79  1  0.49153635  0.19775833  0.91228754  1
  O  O80  1  0.09738583  0.02209965  0.91257450  1
  O  O81  1  0.58892043  0.98711996  0.91830531  1
  O  O82  1  0.39742992  0.75592294  0.91404526  1
  O  O83  1  0.90070101  0.77865098  0.91224022  1
  O  O84  1  0.48612633  0.14617296  0.57851887  1
  O  O85  1  0.97802392  0.14462632  0.57931890  1
  O  O86  1  0.08467296  0.03524640  0.59467806  1
  O  O87  1  0.58975341  0.03915104  0.59307315  1
  O  O88  1  0.42797382  0.80557702  0.58136781  1
  O  O89  1  0.92664211  0.81055210  0.59017708  1
  O  O90  1  0.48062058  0.82612775  0.08178266  1
  O  O91  1  0.98063371  0.82137426  0.07978998  1
  O  O92  1  0.42626849  0.04840776  0.08251284  1
  O  O93  1  0.92652610  0.04494822  0.08354989  1
  O  O94  1  0.08483216  0.13774748  0.09506356  1
  O  O95  1  0.58487382  0.13727916  0.09503997  1
  O  O96  1  0.32666483  0.12765583  0.73828615  1
  O  O97  1  0.81940331  0.11437366  0.74398052  1
  O  O98  1  0.23133005  0.34215507  0.74067108  1
  O  O99  1  0.72559502  0.33809750  0.74222207  1
  O  O100  1  0.43456066  0.50675884  0.74836556  1
  O  O101  1  0.93164239  0.51452181  0.75180775  1
  O  O102  1  0.32769959  0.52719535  0.24100546  1
  O  O103  1  0.82823789  0.52851105  0.23972660  1
  O  O104  1  0.43441655  0.36258419  0.24625302  1
  O  O105  1  0.93431929  0.36218887  0.24787568  1
  O  O106  1  0.23316588  0.11022406  0.23618077  1
  O  O107  1  0.73266102  0.10826455  0.23601750  1
  O  O108  1  0.30389278  0.46193861  0.91837825  1
  O  O109  1  0.81931086  0.48479820  0.92220809  1
  O  O110  1  0.41998361  0.38161982  0.92732389  1
  O  O111  1  0.92422033  0.37705181  0.92812482  1
  O  O112  1  0.25746145  0.14228924  0.92328132  1
  O  O113  1  0.75806582  0.15265235  0.92148526  1
  O  O114  1  0.31833341  0.15375603  0.41901518  1
  O  O115  1  0.81887438  0.14428652  0.41568373  1
  O  O116  1  0.25645082  0.36167408  0.42088137  1
  O  O117  1  0.75857349  0.36986864  0.41906421  1
  O  O118  1  0.41836835  0.46474952  0.42463358  1
  O  O119  1  0.92106163  0.46597079  0.42401350  1
  O  O120  1  0.16576023  0.46493140  0.08250260  1
  O  O121  1  0.66590603  0.46334850  0.08563731  1
  O  O122  1  0.06646751  0.69476114  0.08095840  1
  O  O123  1  0.56865929  0.70449205  0.08151265  1
  O  O124  1  0.27844077  0.87354949  0.07452881  1
  O  O125  1  0.77880926  0.86819486  0.07670943  1
  O  O126  1  0.15671717  0.85987240  0.58098778  1
  O  O127  1  0.67747923  0.88005661  0.58004354  1
  O  O128  1  0.27989293  0.69002329  0.57596686  1
  O  O129  1  0.76408469  0.68870890  0.57963727  1
  O  O130  1  0.06586903  0.44391682  0.57565915  1
  O  O131  1  0.56820487  0.44121468  0.58177828  1
  O  O132  1  0.14182300  0.81270417  0.24501700  1
  O  O133  1  0.64194473  0.81211965  0.24441608  1
  O  O134  1  0.25442838  0.70436916  0.26066516  1
  O  O135  1  0.75461548  0.70273306  0.26144783  1
  O  O136  1  0.09615867  0.48112561  0.25263044  1
  O  O137  1  0.59707837  0.48017539  0.25298847  1
  O  O138  1  0.15036602  0.47944419  0.74622997  1
  O  O139  1  0.63833661  0.46192988  0.74425843  1
  O  O140  1  0.09811687  0.71407209  0.74991252  1
  O  O141  1  0.59662798  0.71418260  0.75122116  1
  O  O142  1  0.25723145  0.80827382  0.76011050  1
  O  O143  1  0.75108823  0.79184212  0.75982800  1
loop_
_geom_bond_atom_site_label_1
_geom_bond_atom_site_label_2
_geom_bond_distance
_geom_bond_site_symmetry_2
Na0 O34 2.264325 1_555
Na0 O102 2.352515 1_555
Na0 O136 2.392759 1_555
Na1 O35 2.264142 1_555
Na1 O103 2.341941 1_555
Na1 O137 2.368967 1_555
Na1 O135 2.807056 1_555
Na2 O105 2.337887 1_555
Na2 O132 2.432653 1_655
Na2 O31 2.707493 1_555
Na2 O103 2.745528 1_555
Na2 O3 2.862771 1_555
Na2 O22 2.914104 1_655
Na3 O104 2.330755 1_555
Na3 O133 2.404308 1_555
Na3 O30 2.641535 1_555
Na3 O102 2.779818 1_555
Na3 O61 2.875404 1_555
Na3 O23 2.895506 1_555
Na3 O2 2.963019 1_555
Na4 O100 2.369785 1_555
Na4 O139 2.387988 1_555
Na4 O10 2.569163 1_555
Na4 O67 2.782566 1_555
Na4 O96 2.797582 1_555
Na4 O24 2.899599 1_555
Na5 O26 2.312290 1_555
Na5 O96 2.326515 1_555
Na5 O140 2.382179 1_545
Na5 O68 2.765474 1_545
Na5 O142 2.843836 1_545
Na5 O98 2.868743 1_555
Na6 O97 2.305830 1_555
Na6 O27 2.309391 1_555
Na6 O141 2.393212 1_545
Na6 O99 2.817761 1_555
Na7 O131 2.329405 1_555
Na7 O87 2.450652 1_555
Na7 O57 2.545465 1_555
Na7 O43 2.720522 1_555
Na7 O15 2.737545 1_555
Na7 O84 2.800240 1_555
Na7 O129 2.901958 1_555
Na7 O29 2.928217 1_555
Na8 O58 2.340160 1_555
Na8 O89 2.360730 1_455
Na8 O126 2.362199 1_555
Na9 O129 2.339575 1_555
Na9 O85 2.478963 1_565
Na9 O127 2.492601 1_555
Na9 O55 2.679844 1_555
Na10 O82 2.310464 1_555
Na10 O110 2.416410 1_555
Na10 O8 2.528693 1_555
Na10 O81 2.566911 1_555
Na10 O67 2.791754 1_555
Na10 O38 2.814685 1_556
Na11 O83 2.399509 1_555
Na11 O9 2.448424 1_655
Na11 O111 2.450656 1_555
Na11 O66 2.770889 1_655
Na11 O39 2.802086 1_556
Na11 O109 2.837981 1_555
Na11 O80 2.860283 1_665
Na11 O52 2.870987 1_655
Na12 O11 2.352216 1_545
Na12 O78 2.357830 1_555
Na12 O113 2.436559 1_555
Na12 O41 2.749524 1_556
Na12 O111 2.844991 1_555
Na13 O80 2.370831 1_555
Na13 O108 2.453385 1_555
Na13 O6 2.567185 1_555
Na13 O50 2.587045 1_555
Na13 O78 2.699335 1_455
Na13 O70 2.929332 1_555
Na14 O74 2.393241 1_555
Na14 O4 2.435516 1_555
Na14 O118 2.473388 1_555
Na14 O77 2.589950 1_555
Na14 O46 2.759947 1_555
Na14 O114 2.829320 1_555
Na14 O61 2.854556 1_555
Na15 O119 2.401557 1_555
Na15 O5 2.429339 1_555
Na15 O75 2.430197 1_555
Na15 O47 2.623879 1_555
Na15 O76 2.648484 1_655
Na15 O115 2.687093 1_555
Na15 O60 2.897164 1_655
Na16 O73 2.301750 1_555
Na16 O2 2.361603 1_555
Na16 O116 2.443822 1_555
Na16 O44 2.831442 1_555
Na16 O118 2.849844 1_555
Na17 O72 2.361582 1_555
Na17 O3 2.365568 1_555
Na17 O117 2.442397 1_555
Na17 O45 2.726967 1_555
Na17 O75 2.850480 1_565
Na17 O119 2.885147 1_555
Na18 O76 2.350443 1_555
Na18 O86 2.380875 1_555
Na18 O85 2.472674 1_455
Na18 O89 2.705520 1_445
Na18 O72 2.888373 1_445
Na19 O88 2.444550 1_555
Na19 O87 2.445218 1_565
Na19 O77 2.488418 1_565
Na19 O84 2.533454 1_565
Na19 O73 2.765458 1_555
Na20 O91 2.301322 1_445
Na20 O93 2.450877 1_455
Na20 O94 2.451437 1_555
Na20 O80 2.549857 1_554
Na20 O78 2.990642 1_454
Na21 O95 2.437935 1_555
Na21 O92 2.450528 1_555
Na21 O81 2.476515 1_544
Na21 O90 2.501103 1_545
Na21 O79 2.754684 1_554
Na22 O110 2.494868 1_555
Na22 O100 2.496273 1_555
Na22 O108 2.496529 1_555
Na22 O112 2.590066 1_555
Na22 O96 2.902712 1_555
Na23 O101 2.314917 1_555
Na23 O111 2.589375 1_555
Na23 O109 2.602402 1_555
Na23 O113 2.650607 1_555
Na23 O97 2.862917 1_555
Na24 O104 2.424222 1_555
Na24 O114 2.450374 1_555
Na24 O118 2.626122 1_555
Na24 O116 2.656546 1_555
Na24 O102 2.916251 1_555
Na24 O106 3.034451 1_555
Na25 O115 2.331088 1_555
Na25 O105 2.516719 1_555
Na25 O117 2.526302 1_555
Na25 O119 2.540658 1_555
Na26 O136 2.500555 1_555
Na26 O132 2.518307 1_555
Na26 O134 2.524877 1_555
Na26 O120 2.657917 1_555
Na26 O124 2.755554 1_555
Na27 O133 2.485849 1_555
Na27 O137 2.506005 1_555
Na27 O135 2.531601 1_555
Na27 O121 2.638066 1_555
Na27 O125 2.703310 1_555
Na28 O138 2.289679 1_555
Na28 O140 2.414024 1_555
Na28 O142 2.449759 1_555
Na28 O128 2.773993 1_555
Na28 O126 2.952872 1_555
Na29 O139 2.431700 1_555
Na29 O143 2.446590 1_555
Na29 O141 2.468918 1_555
Na29 O129 2.505258 1_555
Na29 O127 2.813889 1_555
La0 O3 2.289269 1_455
La0 O5 2.307600 1_465
La0 O0 2.328537 1_565
La0 O72 2.343326 1_455
La0 O76 2.411808 1_565
La0 O75 2.415590 1_465
La1 O2 2.296135 1_555
La1 O4 2.299759 1_565
La1 O1 2.329051 1_565
La1 O73 2.331577 1_555
La1 O77 2.399512 1_565
La1 O74 2.458121 1_565
La2 O11 2.234020 1_545
La2 O9 2.260741 1_645
La2 O78 2.340569 1_555
La2 O6 2.363472 1_655
La2 O80 2.492210 1_655
La2 O83 2.523468 1_545
La3 O10 2.232878 1_555
La3 O79 2.269167 1_555
La3 O7 2.343973 1_555
La3 O8 2.345478 1_545
La3 O82 2.425784 1_545
La3 O81 2.449504 1_545
La4 O26 2.247717 1_555
La4 O96 2.303263 1_555
La4 O24 2.318421 1_555
La4 O28 2.368837 1_555
La4 O98 2.372888 1_555
La4 O100 2.410836 1_555
La5 O29 2.241565 1_555
La5 O27 2.304336 1_555
La5 O25 2.308231 1_555
La5 O101 2.319953 1_555
La5 O97 2.364686 1_555
La5 O99 2.397346 1_555
La6 O34 2.219843 1_555
La6 O30 2.296756 1_555
La6 O102 2.363561 1_555
La6 O32 2.371422 1_555
La6 O104 2.424853 1_555
La6 O106 2.436523 1_555
La7 O35 2.223852 1_555
La7 O31 2.292821 1_555
La7 O103 2.346285 1_555
La7 O33 2.355620 1_555
La7 O105 2.409668 1_555
La7 O107 2.411595 1_555
La8 O50 2.219508 1_554
La8 O52 2.273751 1_554
La8 O120 2.318360 1_555
La8 O48 2.355277 1_554
La8 O122 2.368993 1_555
La8 O124 2.556831 1_555
La9 O51 2.158745 1_554
La9 O53 2.267758 1_554
La9 O121 2.305601 1_555
La9 O123 2.378103 1_555
La9 O49 2.381403 1_554
La9 O125 2.568168 1_555
La10 O56 2.218244 1_555
La10 O58 2.257360 1_555
La10 O54 2.314943 1_555
La10 O126 2.318841 1_555
La10 O130 2.389714 1_555
La10 O128 2.516943 1_555
La11 O59 2.180049 1_555
La11 O127 2.298963 1_555
La11 O57 2.318159 1_555
La11 O55 2.380441 1_555
La11 O131 2.424544 1_555
La11 O129 2.481797 1_555
O0 S0 1.487179 1_545
O1 S1 1.487053 1_545
O2 Si0 1.620566 1_555
O3 Si1 1.620571 1_555
O4 Si3 1.597443 1_555
O5 Si2 1.596948 1_655
O6 S2 1.491160 1_555
O7 S3 1.476227 1_555
O8 Si5 1.589213 1_555
O9 Si4 1.597432 1_555
O10 Si6 1.606697 1_545
O11 Si7 1.607489 1_555
O12 Si6 1.717043 1_555
O12 Ti1 1.851646 1_555
O13 Si7 1.715127 1_555
O13 Ti0 1.904360 1_555
O14 S2 1.480003 1_555
O14 Ti0 2.610301 1_445
O15 S3 1.507073 1_555
O15 Ti1 2.451778 1_545
O16 Si4 1.714814 1_555
O16 Ti0 1.852679 1_455
O17 Si5 1.712557 1_555
O17 Ti1 1.826243 1_555
O18 Si0 1.697327 1_555
O18 Ti3 1.900730 1_565
O19 Si1 1.697707 1_555
O19 Ti2 1.901804 1_565
O20 Si2 1.702431 1_555
O20 Ti2 1.843879 1_455
O21 Si3 1.705038 1_555
O21 Ti3 1.852668 1_555
O22 S0 1.486178 1_555
O22 Ti2 2.503994 1_465
O23 S1 1.487407 1_555
O23 Ti3 2.484329 1_565
O24 S4 1.475899 1_555
O25 S5 1.477650 1_555
O26 Si8 1.600692 1_555
O27 Si9 1.597266 1_555
O28 S6 1.464157 1_555
O29 Si10 1.582824 1_555
O30 S7 1.495140 1_555
O31 S8 1.491214 1_555
O32 S9 1.469379 1_555
O33 S10 1.466582 1_555
O34 Si11 1.613434 1_555
O35 Si12 1.604411 1_555
O36 Si11 1.732036 1_555
O36 Ti4 1.897416 1_554
O37 Si12 1.751661 1_555
O37 Ti5 1.843152 1_554
O38 S7 1.483674 1_555
O39 S8 1.492046 1_555
O39 Ti5 2.720607 1_554
O40 S9 1.499704 1_555
O40 Ti4 2.153161 1_554
O41 S10 1.492289 1_555
O41 Ti5 2.393337 1_554
O42 Si8 1.750897 1_555
O42 Ti6 1.849689 1_555
O43 Si9 1.739862 1_555
O43 Ti7 1.891137 1_555
O44 S6 1.493995 1_555
O44 Ti6 2.342110 1_555
O45 Si10 1.723261 1_555
O45 Ti7 1.856769 1_555
O46 S4 1.476407 1_555
O46 Ti6 2.763698 1_555
O47 S5 1.487952 1_555
O47 Ti7 2.715742 1_555
O48 S11 1.468098 1_555
O49 S12 1.471993 1_555
O50 Si13 1.608840 1_555
O51 Si14 1.593693 1_555
O52 Si15 1.587452 1_555
O53 Si16 1.585218 1_555
O54 S13 1.468836 1_555
O55 S14 1.476998 1_555
O56 Si17 1.582982 1_555
O57 Si18 1.596255 1_555
O58 Si19 1.614208 1_555
O59 Si20 1.595885 1_555
O60 Si19 1.726564 1_555
O60 Ti8 1.934368 1_555
O61 Si20 1.716304 1_555
O61 Ti9 1.949437 1_555
O62 S13 1.460122 1_555
O63 S14 1.470527 1_555
O63 Ti9 2.634640 1_555
O64 Si17 1.707275 1_555
O64 Ti8 1.863518 1_555
O65 Si18 1.725090 1_555
O65 Ti9 1.846379 1_555
O66 Si13 1.721525 1_555
O66 Ti10 1.909047 1_555
O67 Si14 1.731132 1_555
O67 Ti11 1.947756 1_555
O68 Si15 1.695742 1_555
O68 Ti10 1.864037 1_555
O69 Si16 1.718322 1_555
O69 Ti11 1.851295 1_555
O70 S11 1.472806 1_555
O70 Ti10 2.760207 1_555
O71 S12 1.454217 1_555
O72 Si19 1.619977 1_655
O73 Si20 1.613100 1_555
O74 S13 1.481177 1_545
O75 S14 1.504562 1_545
O76 Si17 1.593886 1_555
O77 Si18 1.607409 1_555
O78 Si13 1.626561 1_655
O79 Si14 1.598498 1_555
O80 Si15 1.632600 1_545
O81 Si16 1.602618 1_555
O82 S11 1.474180 1_555
O83 S12 1.487960 1_555
O84 S4 1.487740 1_555
O84 Ti1 2.459365 1_545
O85 S5 1.483803 1_555
O85 Ti0 2.499353 1_545
O86 Si8 1.689332 1_555
O86 Ti0 1.950889 1_445
O87 Si9 1.681881 1_555
O87 Ti1 1.977791 1_545
O88 S6 1.525263 1_555
O88 Ti1 2.102151 1_555
O89 Si10 1.704065 1_555
O89 Ti0 1.902196 1_555
O90 S7 1.477855 1_555
O90 Ti3 2.355921 1_565
O91 S8 1.475375 1_555
O91 Ti2 2.442101 1_565
O92 S9 1.519155 1_555
O92 Ti3 2.102953 1_555
O93 S10 1.529860 1_555
O93 Ti2 2.061744 1_555
O94 Si11 1.686156 1_555
O94 Ti2 1.892790 1_455
O95 Si12 1.680014 1_555
O95 Ti3 1.895013 1_555
O96 Si6 1.634154 1_545
O97 Si7 1.622339 1_545
O98 S2 1.497120 1_555
O99 S3 1.472569 1_555
O100 Si5 1.619156 1_555
O101 Si4 1.592471 1_655
O102 Si0 1.638492 1_555
O103 Si1 1.636351 1_555
O104 Si3 1.610514 1_555
O105 Si2 1.605101 1_655
O106 S0 1.479349 1_545
O107 S1 1.475719 1_545
O108 S11 1.529424 1_555
O108 Ti4 2.184569 1_555
O109 S12 1.537517 1_555
O109 Ti5 1.986577 1_555
O110 Si14 1.705571 1_555
O110 Ti4 1.931755 1_555
O111 Si13 1.689670 1_655
O111 Ti5 2.016884 1_555
O112 Si15 1.688183 1_545
O112 Ti4 1.824073 1_555
O113 Si16 1.712782 1_545
O113 Ti5 1.851206 1_555
O114 S13 1.518640 1_545
O114 Ti6 2.034879 1_555
O115 S14 1.489955 1_545
O115 Ti7 2.478044 1_555
O116 Si17 1.710669 1_555
O116 Ti6 1.839574 1_555
O117 Si18 1.698156 1_555
O117 Ti7 1.885623 1_555
O118 Si20 1.698771 1_555
O118 Ti6 1.971256 1_555
O119 Si19 1.700369 1_655
O119 Ti7 1.991225 1_555
O120 Si11 1.616298 1_555
O121 Si12 1.605517 1_555
O122 S8 1.481093 1_455
O123 S7 1.486797 1_555
O124 S9 1.460631 1_565
O125 S10 1.462890 1_565
O126 Si8 1.625890 1_565
O127 Si9 1.607615 1_565
O128 S6 1.470243 1_555
O129 Si10 1.607986 1_555
O130 S5 1.484738 1_455
O131 S4 1.502683 1_555
O132 S0 1.493923 1_555
O132 Ti8 2.513865 1_555
O133 S1 1.494561 1_555
O133 Ti9 2.511311 1_555
O134 Si0 1.687966 1_555
O134 Ti8 1.915583 1_555
O135 Si1 1.687424 1_555
O135 Ti9 1.925751 1_555
O136 Si2 1.707617 1_555
O136 Ti8 1.879240 1_555
O137 Si3 1.707429 1_555
O137 Ti9 1.900678 1_555
O138 S2 1.478442 1_555
O138 Ti10 2.469873 1_555
O139 S3 1.482655 1_555
O139 Ti11 2.579244 1_555
O140 Si4 1.694093 1_555
O140 Ti10 1.884791 1_555
O141 Si5 1.707913 1_555
O141 Ti11 1.878214 1_555
O142 Si6 1.678521 1_555
O142 Ti10 1.952041 1_555
O143 Si7 1.700728 1_555
O143 Ti11 1.894168 1_555
