# generated using pymatgen
data_Na8MgSi5Ge3SO24
_symmetry_space_group_name_H-M   'P 1'
_cell_length_a   8.90361363
_cell_length_b   8.87889598
_cell_length_c   21.89066258
_cell_angle_alpha   91.42547785
_cell_angle_beta   89.95467704
_cell_angle_gamma   120.22160098
_symmetry_Int_Tables_number   1
_chemical_formula_structural   Na8MgSi5Ge3SO24
_chemical_formula_sum   'Na24 Mg3 Si15 Ge9 S3 O72'
_cell_volume   1494.74195245
_cell_formula_units_Z   3
loop_
 _symmetry_equiv_pos_site_id
 _symmetry_equiv_pos_as_xyz
  1  'x, y, z'
loop_
 _atom_site_type_symbol
 _atom_site_label
 _atom_site_symmetry_multiplicity
 _atom_site_fract_x
 _atom_site_fract_y
 _atom_site_fract_z
 _atom_site_occupancy
  Na  Na0  1  0.64105153  0.01096785  0.24778946  1
  Na  Na1  1  0.36440702  0.36491380  0.24482633  1
  Na  Na2  1  0.99535608  0.62305407  0.24608204  1
  Na  Na3  1  0.63050036  0.62170747  0.74914685  1
  Na  Na4  1  0.99259370  0.36784527  0.75209632  1
  Na  Na5  1  0.37894559  0.00745587  0.74899823  1
  Na  Na6  1  0.30758878  0.33343004  0.58757553  1
  Na  Na7  1  0.03191425  0.70307806  0.58379913  1
  Na  Na8  1  0.66352135  0.96727201  0.58902336  1
  Na  Na9  1  0.30697237  0.96921318  0.08062997  1
  Na  Na10  1  0.66341867  0.69434239  0.08002085  1
  Na  Na11  1  0.03215919  0.34165906  0.08082931  1
  Na  Na12  1  0.96369496  0.66659936  0.91544216  1
  Na  Na13  1  0.70160395  0.03489057  0.91504229  1
  Na  Na14  1  0.33372473  0.29812786  0.91560111  1
  Na  Na15  1  0.96331639  0.28861512  0.41418807  1
  Na  Na16  1  0.32425673  0.03306076  0.41827518  1
  Na  Na17  1  0.70992905  0.67546864  0.41852788  1
  Na  Na18  1  0.00054205  0.99742627  0.49796731  1
  Na  Na19  1  0.00025112  0.99983079  0.99575857  1
  Na  Na20  1  0.66624437  0.33301048  0.82973130  1
  Na  Na21  1  0.67498670  0.33241384  0.33373981  1
  Na  Na22  1  0.33099016  0.66424292  0.16179584  1
  Na  Na23  1  0.33943422  0.67143360  0.67009627  1
  Mg  Mg0  1  0.99777990  0.00429306  0.35639340  1
  Mg  Mg1  1  0.65507813  0.32972441  0.68924376  1
  Mg  Mg2  1  0.67455845  0.33490643  0.17863844  1
  Si  Si0  1  -0.00012152  0.29279380  0.25275672  1
  Si  Si1  1  0.28111212  0.28533892  0.75237619  1
  Si  Si2  1  0.00466000  0.71105532  0.75306366  1
  Si  Si3  1  0.71346753  0.99685899  0.75176212  1
  Si  Si4  1  0.37460746  0.04125905  0.58268946  1
  Si  Si5  1  0.66490481  0.62632580  0.58399810  1
  Si  Si6  1  0.96127740  0.62691657  0.08445726  1
  Si  Si7  1  0.66026927  0.04092052  0.08248554  1
  Si  Si8  1  0.38227216  0.34063102  0.08349235  1
  Si  Si9  1  0.62062648  0.66584183  0.91627538  1
  Si  Si10  1  0.04563086  0.38022317  0.91592836  1
  Si  Si11  1  0.33349513  0.95381627  0.91704259  1
  Si  Si12  1  0.61837708  0.95568852  0.41638658  1
  Si  Si13  1  0.33527684  0.38069054  0.41953620  1
  Si  Si14  1  0.03985460  0.66070117  0.42025397  1
  Ge  Ge0  1  0.99962992  0.00113365  0.85299693  1
  Ge  Ge1  1  0.00064332  0.98260541  0.65457480  1
  Ge  Ge2  1  0.00701439  0.02257499  0.13748933  1
  Ge  Ge3  1  0.66684644  0.33405038  0.98015659  1
  Ge  Ge4  1  0.65310356  0.33683293  0.47869616  1
  Ge  Ge5  1  0.33421397  0.66811833  0.01695149  1
  Ge  Ge6  1  0.34809194  0.68145511  0.51622220  1
  Ge  Ge7  1  0.31618867  0.64491073  0.32497790  1
  Ge  Ge8  1  0.33420364  0.66594899  0.81355688  1
  S  S0  1  0.29099191  -0.00034040  0.25024878  1
  S  S1  1  0.70830510  0.70923178  0.25007200  1
  S  S2  1  0.95697835  0.33417149  0.58219233  1
  O  O0  1  0.20754396  0.02204614  0.30549911  1
  O  O1  1  0.81838884  0.79073524  0.30521257  1
  O  O2  1  0.97018387  0.17363964  0.30969002  1
  O  O3  1  0.19340402  0.16074048  0.81125532  1
  O  O4  1  0.96443005  0.80282672  0.81151181  1
  O  O5  1  0.83814232  0.03324992  0.81182592  1
  O  O6  1  0.79968685  0.95707494  0.68922081  1
  O  O7  1  0.15444983  0.19887387  0.68917805  1
  O  O8  1  0.04872374  0.83183207  0.69068371  1
  O  O9  1  0.78767095  0.81659102  0.19500895  1
  O  O10  1  0.04304937  0.20402030  0.18992865  1
  O  O11  1  0.17976147  0.96615037  0.19425216  1
  O  O12  1  0.87989977  0.36486941  0.63713347  1
  O  O13  1  0.49895020  0.11452323  0.64089379  1
  O  O14  1  0.62352764  0.50642177  0.64136738  1
  O  O15  1  0.89164331  0.51621122  0.14468308  1
  O  O16  1  0.61846508  0.10775462  0.14492567  1
  O  O17  1  0.48945681  0.37590211  0.14578676  1
  O  O18  1  0.46490333  0.29345932  0.02358593  1
  O  O19  1  0.83065299  0.54291563  0.02417057  1
  O  O20  1  0.70897983  0.17068199  0.02397684  1
  O  O21  1  0.46062579  0.16710873  0.52124859  1
  O  O22  1  0.70954124  0.54166575  0.52181799  1
  O  O23  1  0.84644027  0.30243839  0.52590896  1
  O  O24  1  0.53637835  0.70590696  0.97690578  1
  O  O25  1  0.17085206  0.46398908  0.97689224  1
  O  O26  1  0.29338650  0.83066637  0.97666155  1
  O  O27  1  0.53558853  0.83377254  0.47539730  1
  O  O28  1  0.29627237  0.47413996  0.47752245  1
  O  O29  1  0.17056706  0.69734285  0.47771182  1
  O  O30  1  0.12025386  0.61833840  0.35737238  1
  O  O31  1  0.48441900  0.86229075  0.35497721  1
  O  O32  1  0.38216183  0.50430199  0.35817206  1
  O  O33  1  0.12957960  0.50522146  0.85699317  1
  O  O34  1  0.37632629  0.86895601  0.85693335  1
  O  O35  1  0.49377693  0.62412322  0.85634733  1
  O  O36  1  0.02194551  0.82988669  0.41168080  1
  O  O37  1  0.80563956  0.97325307  0.41205538  1
  O  O38  1  0.16992346  0.18963494  0.41385974  1
  O  O39  1  0.02572853  0.18456247  0.91109560  1
  O  O40  1  0.16057968  0.97618330  0.91129575  1
  O  O41  1  0.81557941  0.84107168  0.91131289  1
  O  O42  1  0.97523878  0.17746736  0.58468417  1
  O  O43  1  0.17896152  0.02361863  0.58807464  1
  O  O44  1  0.84336159  0.82552954  0.58844677  1
  O  O45  1  0.98027830  0.82647094  0.09370097  1
  O  O46  1  0.83744920  0.01892744  0.08866608  1
  O  O47  1  0.18433889  0.15929361  0.08674286  1
  O  O48  1  0.69637747  0.16749688  0.74641201  1
  O  O49  1  0.47043342  0.30659583  0.74827878  1
  O  O50  1  0.83584326  0.52201612  0.74530627  1
  O  O51  1  0.68405400  0.53260550  0.24552832  1
  O  O52  1  0.83439196  0.32049467  0.24670591  1
  O  O53  1  0.46364240  0.15741511  0.24686716  1
  O  O54  1  0.63997948  0.49075731  0.92350345  1
  O  O55  1  0.85085191  0.35930032  0.92400589  1
  O  O56  1  0.51027366  0.14922804  0.92409947  1
  O  O57  1  0.63496947  0.14961180  0.42383754  1
  O  O58  1  0.51427785  0.36777353  0.42190241  1
  O  O59  1  0.84845177  0.48046643  0.42515585  1
  O  O60  1  0.35284920  0.50784926  0.07509422  1
  O  O61  1  0.15596838  0.65177785  0.07455288  1
  O  O62  1  0.49087160  0.84316647  0.07391362  1
  O  O63  1  0.34759714  0.84014342  0.57378732  1
  O  O64  1  0.48889402  0.64608545  0.57382754  1
  O  O65  1  0.13374983  0.49266587  0.57769826  1
  O  O66  1  0.30934070  0.84060852  0.25307188  1
  O  O67  1  0.53356035  0.69709753  0.25462520  1
  O  O68  1  0.18981179  0.49543075  0.25743809  1
  O  O69  1  0.29586644  0.47924571  0.75635951  1
  O  O70  1  0.18368776  0.69919027  0.75751063  1
  O  O71  1  0.52040655  0.81755718  0.75635075  1
loop_
_geom_bond_atom_site_label_1
_geom_bond_atom_site_label_2
_geom_bond_distance
_geom_bond_site_symmetry_2
Na0 O52 2.399456 1_555
Na0 O67 2.457692 1_545
Na0 O16 2.473927 1_555
Na0 O53 2.501051 1_555
Na0 O66 2.556358 1_545
Na0 O31 2.736567 1_545
Na0 O2 2.856203 1_555
Na0 O9 2.860799 1_545
Na1 O68 2.373314 1_555
Na1 O53 2.412431 1_555
Na1 O17 2.418041 1_555
Na1 O51 2.459675 1_555
Na1 O67 2.551595 1_555
Na1 O32 2.713665 1_555
Na1 O10 2.734394 1_555
Na2 O52 2.323111 1_555
Na2 O15 2.386687 1_555
Na2 O51 2.467031 1_555
Na2 O66 2.473816 1_655
Na2 O68 2.516577 1_655
Na2 O30 2.688826 1_655
Na2 O11 2.897752 1_655
Na2 O1 2.938912 1_555
Na3 O71 2.389911 1_555
Na3 O50 2.399669 1_555
Na3 O49 2.417170 1_555
Na3 O14 2.536598 1_555
Na3 O69 2.591774 1_555
Na3 O35 2.647371 1_555
Na3 O4 2.893721 1_555
Na3 O6 2.921023 1_555
Na4 O48 2.324273 1_555
Na4 O69 2.363338 1_655
Na4 O50 2.403623 1_555
Na4 O70 2.551088 1_655
Na4 O33 2.572087 1_655
Na4 O12 2.704591 1_555
Na4 O7 2.880142 1_655
Na4 O5 2.916205 1_555
Na5 O49 2.354217 1_555
Na5 O70 2.404837 1_545
Na5 O48 2.443580 1_555
Na5 O71 2.570383 1_545
Na5 O13 2.594411 1_555
Na5 O34 2.685342 1_545
Na5 O8 2.827931 1_545
Na5 O3 2.933650 1_555
Na6 O43 2.389265 1_555
Na6 O64 2.435642 1_555
Na6 O42 2.559059 1_455
Na6 O65 2.580712 1_555
Na6 O7 2.592450 1_555
Na6 O14 2.687828 1_555
Na6 O28 2.766191 1_555
Na6 O21 2.839261 1_555
Na7 O44 2.417124 1_455
Na7 O63 2.449087 1_555
Na7 O65 2.454157 1_555
Na7 O43 2.461442 1_565
Na7 O8 2.549327 1_555
Na7 O29 2.640578 1_555
Na7 O22 2.811000 1_455
Na7 O12 2.879738 1_455
Na8 O42 2.447244 1_565
Na8 O63 2.466580 1_555
Na8 O64 2.480065 1_555
Na8 O44 2.485113 1_555
Na8 O6 2.532502 1_555
Na8 O13 2.645334 1_565
Na8 O27 2.718082 1_555
Na8 O23 2.956222 1_565
Na9 O62 2.406504 1_555
Na9 O47 2.429422 1_565
Na9 O61 2.436394 1_555
Na9 O26 2.533598 1_554
Na9 O45 2.540580 1_455
Na9 O11 2.727269 1_555
Na9 O16 2.769761 1_565
Na9 O18 2.815261 1_565
Na10 O60 2.404570 1_555
Na10 O45 2.465183 1_555
Na10 O62 2.485336 1_555
Na10 O46 2.494052 1_565
Na10 O24 2.552973 1_554
Na10 O9 2.719890 1_555
Na10 O19 2.729507 1_555
Na10 O17 2.873364 1_555
Na11 O61 2.403918 1_555
Na11 O60 2.472462 1_555
Na11 O46 2.503801 1_455
Na11 O25 2.578697 1_554
Na11 O47 2.587236 1_555
Na11 O10 2.733408 1_555
Na11 O20 2.765404 1_455
Na11 O15 2.786124 1_455
Na12 O55 2.398885 1_555
Na12 O40 2.407961 1_655
Na12 O41 2.492155 1_555
Na12 O54 2.501768 1_555
Na12 O4 2.601552 1_555
Na12 O19 2.662751 1_556
Na12 O33 2.812093 1_655
Na12 O26 2.852927 1_655
Na13 O56 2.387964 1_555
Na13 O41 2.397682 1_545
Na13 O55 2.494015 1_555
Na13 O39 2.499269 1_655
Na13 O5 2.568107 1_555
Na13 O20 2.630973 1_556
Na13 O34 2.791686 1_545
Na13 O24 2.897964 1_545
Na14 O54 2.383609 1_555
Na14 O39 2.399667 1_555
Na14 O40 2.471268 1_545
Na14 O56 2.521548 1_555
Na14 O3 2.568686 1_555
Na14 O18 2.647956 1_556
Na14 O25 2.849624 1_555
Na14 O35 2.850044 1_555
Na15 O59 2.395471 1_555
Na15 O38 2.404888 1_655
Na15 O37 2.418630 1_545
Na15 O2 2.495018 1_555
Na15 O57 2.548386 1_555
Na15 O23 2.681183 1_555
Na15 O30 2.851380 1_655
Na15 O28 2.898424 1_655
Na16 O36 2.370585 1_545
Na16 O38 2.400047 1_555
Na16 O57 2.418948 1_555
Na16 O21 2.527466 1_555
Na16 O58 2.574411 1_555
Na16 O0 2.659673 1_555
Na16 O31 2.884710 1_545
Na16 O29 2.921389 1_545
Na17 O37 2.342483 1_555
Na17 O58 2.392210 1_555
Na17 O36 2.407310 1_655
Na17 O22 2.579426 1_555
Na17 O59 2.588914 1_555
Na17 O1 2.694564 1_555
Na17 O32 2.830769 1_555
Na17 O27 2.835702 1_555
Na18 O36 2.441722 1_555
Na18 O43 2.465498 1_565
Na18 O38 2.477451 1_565
Na18 O37 2.490885 1_455
Na18 O44 2.491334 1_455
Na18 O42 2.533884 1_465
Na19 O41 2.376903 1_455
Na19 O40 2.403892 1_555
Na19 O39 2.439796 1_565
Na19 O47 2.487306 1_566
Na19 O46 2.547910 1_466
Na19 O45 2.624075 1_456
Na20 O48 2.412693 1_555
Na20 O49 2.417910 1_555
Na20 O50 2.472012 1_555
Na20 O54 2.532994 1_555
Na20 O55 2.571051 1_555
Na20 O56 2.596271 1_555
Na21 O52 2.406732 1_555
Na21 O59 2.438890 1_555
Na21 O57 2.495454 1_555
Na21 O58 2.507668 1_555
Na21 O53 2.546940 1_555
Na21 O51 2.630744 1_555
Na22 O60 2.389286 1_555
Na22 O61 2.430753 1_555
Na22 O62 2.474335 1_555
Na22 O68 2.542714 1_555
Na22 O66 2.574735 1_555
Na22 O67 2.629479 1_555
Na23 O71 2.371325 1_555
Na23 O70 2.441674 1_555
Na23 O69 2.474071 1_555
Na23 O64 2.556570 1_555
Na23 O63 2.596388 1_555
Na23 O65 2.623772 1_555
Mg0 O2 1.953266 1_555
Mg0 O38 2.000173 1_655
Mg0 O37 2.006504 1_545
Mg0 O1 2.061572 1_545
Mg0 O36 2.082811 1_645
Mg0 O0 2.112656 1_655
Mg1 O13 1.982771 1_555
Mg1 O49 2.021134 1_555
Mg1 O50 2.035705 1_555
Mg1 O14 2.040742 1_555
Mg1 O48 2.097549 1_555
Mg1 O12 2.188795 1_555
Mg2 O16 1.942752 1_555
Mg2 O15 1.950581 1_555
Mg2 O17 1.996150 1_555
Mg2 O52 2.111388 1_555
Mg2 O51 2.226069 1_555
Mg2 O53 2.318249 1_555
Ge0 O5 1.840790 1_555
Ge0 O4 1.840798 1_545
Ge0 O3 1.849443 1_655
Ge0 O39 1.959702 1_655
Ge0 O40 2.016903 1_645
Ge0 O41 2.019217 1_545
Ge1 O8 1.797301 1_555
Ge1 O7 1.848907 1_565
Ge1 O6 1.850965 1_455
Ge1 O44 1.984510 1_455
Ge1 O43 2.052602 1_565
Ge1 O42 2.431374 1_465
Ge2 O47 1.826268 1_555
Ge2 O46 1.836915 1_455
Ge2 O10 1.845086 1_555
Ge2 O45 1.872777 1_445
Ge2 O11 2.229431 1_545
Ge2 O9 2.293334 1_445
Ge3 O18 1.904887 1_556
Ge3 O19 1.919663 1_556
Ge3 O56 1.934353 1_555
Ge3 O20 1.944872 1_556
Ge3 O55 1.971288 1_555
Ge3 O54 1.988113 1_555
Ge4 O22 1.856485 1_555
Ge4 O58 1.873561 1_555
Ge4 O21 1.882297 1_555
Ge4 O57 1.965274 1_555
Ge4 O59 1.965554 1_555
Ge4 O23 2.161562 1_555
Ge5 O25 1.854354 1_554
Ge5 O24 1.877548 1_554
Ge5 O26 1.893401 1_554
Ge5 O62 1.907870 1_555
Ge5 O61 1.975805 1_555
Ge5 O60 2.000151 1_555
Ge6 O27 1.788722 1_555
Ge6 O28 1.840357 1_555
Ge6 O29 1.860485 1_555
Ge6 O63 1.868445 1_555
Ge6 O64 1.918062 1_555
Ge6 O65 2.269513 1_555
Ge7 O30 1.787159 1_555
Ge7 O32 1.793246 1_555
Ge7 O31 1.851552 1_555
Ge7 O68 1.901355 1_555
Ge7 O67 2.336720 1_555
Ge7 O66 2.396557 1_555
Ge8 O34 1.877788 1_555
Ge8 O35 1.893285 1_555
Ge8 O33 1.925450 1_555
Ge8 O69 1.939084 1_555
Ge8 O70 1.951187 1_555
Ge8 O71 1.990665 1_555
O0 S0 1.479742 1_555
O1 S1 1.478426 1_555
O2 Si0 1.589325 1_655
O3 Si1 1.641536 1_555
O4 Si2 1.634170 1_655
O5 Si3 1.638756 1_545
O6 Si3 1.683953 1_555
O7 Si1 1.689137 1_555
O8 Si2 1.678409 1_555
O9 S1 1.496202 1_555
O10 Si0 1.706115 1_555
O11 S0 1.503018 1_565
O12 S2 1.470524 1_555
O13 Si4 1.583742 1_555
O14 Si5 1.586583 1_555
O15 Si6 1.593232 1_555
O16 Si7 1.593789 1_555
O17 Si8 1.596356 1_555
O18 Si8 1.648574 1_555
O19 Si6 1.652507 1_555
O20 Si7 1.650899 1_555
O21 Si4 1.689899 1_555
O22 Si5 1.680692 1_555
O23 S2 1.507158 1_555
O24 Si9 1.641445 1_555
O25 Si10 1.641770 1_555
O26 Si11 1.644258 1_555
O27 Si12 1.627458 1_555
O28 Si13 1.630122 1_555
O29 Si14 1.625772 1_555
O30 Si14 1.671063 1_555
O31 Si12 1.693736 1_555
O32 Si13 1.671687 1_555
O33 Si10 1.639965 1_555
O34 Si11 1.638197 1_555
O35 Si9 1.640365 1_555
O36 Si14 1.603871 1_555
O37 Si12 1.597487 1_555
O38 Si13 1.592551 1_555
O39 Si10 1.655782 1_555
O40 Si11 1.653752 1_555
O41 Si9 1.653734 1_555
O42 S2 1.482163 1_555
O43 Si4 1.672952 1_555
O44 Si5 1.680774 1_555
O45 Si6 1.699818 1_555
O46 Si7 1.690219 1_555
O47 Si8 1.688854 1_555
O48 Si3 1.604140 1_545
O49 Si1 1.601684 1_555
O50 Si2 1.597433 1_655
O51 S1 1.472175 1_555
O52 Si0 1.617336 1_655
O53 S0 1.472364 1_555
O54 Si9 1.659312 1_555
O55 Si10 1.658365 1_655
O56 Si11 1.658156 1_545
O57 Si12 1.656232 1_545
O58 Si13 1.655394 1_555
O59 Si14 1.655138 1_655
O60 Si8 1.646818 1_555
O61 Si6 1.648386 1_455
O62 Si7 1.646538 1_565
O63 Si4 1.683725 1_565
O64 Si5 1.677954 1_555
O65 S2 1.498052 1_455
O66 S0 1.503804 1_565
O67 S1 1.507907 1_555
O68 Si0 1.742277 1_555
O69 Si1 1.659488 1_555
O70 Si2 1.652633 1_555
O71 Si3 1.658955 1_555
