# generated using pymatgen
data_MgCu2(NiO2)4
_symmetry_space_group_name_H-M   'P 1'
_cell_length_a   6.17003903
_cell_length_b   5.78922044
_cell_length_c   5.78878765
_cell_angle_alpha   60.00247294
_cell_angle_beta   90.00000000
_cell_angle_gamma   117.99169971
_symmetry_Int_Tables_number   1
_chemical_formula_structural   MgCu2(NiO2)4
_chemical_formula_sum   'Mg1 Cu2 Ni4 O8'
_cell_volume   150.49868477
_cell_formula_units_Z   1
loop_
 _symmetry_equiv_pos_site_id
 _symmetry_equiv_pos_as_xyz
  1  'x, y, z'
loop_
 _atom_site_type_symbol
 _atom_site_label
 _atom_site_symmetry_multiplicity
 _atom_site_fract_x
 _atom_site_fract_y
 _atom_site_fract_z
 _atom_site_occupancy
  Mg  Mg0  1  0.62500000  0.75000000  0.12500000  1
  Cu  Cu0  1  0.08728400  0.05857000  0.97071500  1
  Cu  Cu1  1  0.16271600  0.44143000  0.27928500  1
  Ni  Ni0  1  0.62500000  0.25000000  0.12500000  1
  Ni  Ni1  1  0.62500000  0.25000000  0.62500000  1
  Ni  Ni2  1  0.62500000  0.75000000  0.62500000  1
  Ni  Ni3  1  0.12500000  0.75000000  0.62500000  1
  O  O0  1  0.81031100  0.20725300  0.39637400  1
  O  O1  1  0.38943700  0.25636200  0.37181900  1
  O  O2  1  0.86056300  0.24363800  0.87818100  1
  O  O3  1  0.86044300  0.73869800  0.38318100  1
  O  O4  1  0.43968900  0.29274700  0.85362600  1
  O  O5  1  0.86044300  0.73869800  0.87812100  1
  O  O6  1  0.38955700  0.76130200  0.37187900  1
  O  O7  1  0.38955700  0.76130200  0.86681900  1
loop_
_geom_bond_atom_site_label_1
_geom_bond_atom_site_label_2
_geom_bond_distance
_geom_bond_site_symmetry_2
Mg0 O2 2.083033 1_564
Mg0 O1 2.083033 1_555
Mg0 O6 2.083202 1_555
Mg0 O7 2.083202 1_554
Mg0 O3 2.083202 1_555
Mg0 O5 2.083202 1_554
Cu0 O4 1.827371 1_555
Cu0 O2 2.055404 1_455
Cu0 O3 2.057918 1_446
Cu0 O5 2.057918 1_445
Cu1 O0 1.827371 1_455
Cu1 O1 2.055404 1_555
Cu1 O6 2.057918 1_555
Cu1 O7 2.057918 1_554
Ni0 O4 1.926976 1_554
Ni0 O0 1.926976 1_555
Ni0 O5 2.063029 1_554
Ni0 O6 2.063029 1_545
Ni0 O1 2.063520 1_555
Ni0 O2 2.063520 1_554
Ni1 O4 1.926971 1_555
Ni1 O0 1.926971 1_555
Ni1 O3 2.063029 1_555
Ni1 O7 2.063029 1_545
Ni1 O2 2.063520 1_555
Ni1 O1 2.063520 1_555
Ni2 O0 1.929242 1_565
Ni2 O4 1.929242 1_555
Ni2 O5 2.062753 1_555
Ni2 O7 2.062753 1_555
Ni2 O3 2.062753 1_555
Ni2 O6 2.062753 1_555
Ni3 O2 2.148897 1_455
Ni3 O1 2.148897 1_565
Ni3 O5 2.149337 1_455
Ni3 O7 2.149337 1_555
Ni3 O3 2.149337 1_455
Ni3 O6 2.149337 1_555
