# generated using pymatgen
data_Na21Ca8Ta4Si3(P5O24)3
_symmetry_space_group_name_H-M   'P 1'
_cell_length_a   9.33909790
_cell_length_b   9.36498233
_cell_length_c   22.44406095
_cell_angle_alpha   89.99365795
_cell_angle_beta   90.11762619
_cell_angle_gamma   120.18503682
_symmetry_Int_Tables_number   1
_chemical_formula_structural   Na21Ca8Ta4Si3(P5O24)3
_chemical_formula_sum   'Na21 Ca8 Ta4 Si3 P15 O72'
_cell_volume   1696.79747977
_cell_formula_units_Z   1
loop_
 _symmetry_equiv_pos_site_id
 _symmetry_equiv_pos_as_xyz
  1  'x, y, z'
loop_
 _atom_site_type_symbol
 _atom_site_label
 _atom_site_symmetry_multiplicity
 _atom_site_fract_x
 _atom_site_fract_y
 _atom_site_fract_z
 _atom_site_occupancy
  Na  Na0  1  0.66826712  0.01134299  0.24109500  1
  Na  Na1  1  0.98642633  0.64396422  0.24106919  1
  Na  Na2  1  0.66034580  0.64970548  0.74693785  1
  Na  Na3  1  0.98574059  0.33567743  0.74820003  1
  Na  Na4  1  0.35035044  0.01010608  0.74726105  1
  Na  Na5  1  0.29465134  0.33872680  0.58326976  1
  Na  Na6  1  0.04778965  0.70861269  0.57726851  1
  Na  Na7  1  0.65967788  0.95006142  0.57861645  1
  Na  Na8  1  0.29369743  0.95424779  0.08107562  1
  Na  Na9  1  0.66295247  0.70421359  0.08100027  1
  Na  Na10  1  0.04602077  0.34170494  0.07737061  1
  Na  Na11  1  0.98485452  0.68197024  0.91315050  1
  Na  Na12  1  0.98278063  0.29922916  0.40589745  1
  Na  Na13  1  0.30710134  0.00938808  0.41011544  1
  Na  Na14  1  0.70993780  0.69983225  0.40969952  1
  Na  Na15  1  0.98831408  0.98929554  0.49535274  1
  Na  Na16  1  0.00138790  0.03260803  0.99327808  1
  Na  Na17  1  0.65376527  0.31783305  0.83351458  1
  Na  Na18  1  0.65006598  0.33418783  0.32260580  1
  Na  Na19  1  0.33249864  0.64315577  0.16236559  1
  Na  Na20  1  0.33702369  0.67022628  0.66286603  1
  Ca  Ca0  1  0.00520150  0.00523336  0.34419480  1
  Ca  Ca1  1  0.99892412  0.00804382  0.85153739  1
  Ca  Ca2  1  0.99823652  0.00006443  0.65122951  1
  Ca  Ca3  1  0.00591678  0.00865666  0.15079125  1
  Ca  Ca4  1  0.66835321  0.33392945  0.68455490  1
  Ca  Ca5  1  0.65869871  0.33112212  0.18491731  1
  Ca  Ca6  1  0.33496007  0.66377084  0.01170172  1
  Ca  Ca7  1  0.33478814  0.66874464  0.51291510  1
  Ta  Ta0  1  0.66411548  0.32963948  0.97832369  1
  Ta  Ta1  1  0.66912090  0.33278695  0.47878142  1
  Ta  Ta2  1  0.33183342  0.66680737  0.32110977  1
  Ta  Ta3  1  0.33320159  0.66278308  0.82472949  1
  Si  Si0  1  0.01874653  0.36310705  0.92374003  1
  Si  Si1  1  0.63450310  0.97387394  0.42142874  1
  Si  Si2  1  0.02676873  0.66145277  0.42178770  1
  P  P0  1  0.30983616  0.98446045  0.25474987  1
  P  P1  1  0.68045014  0.69442220  0.25411368  1
  P  P2  1  0.01053333  0.32218042  0.25292808  1
  P  P3  1  0.30675357  0.32018860  0.75006202  1
  P  P4  1  0.01639365  0.69429554  0.75367388  1
  P  P5  1  0.67828893  0.98385074  0.74905711  1
  P  P6  1  0.95795565  0.32583735  0.58202420  1
  P  P7  1  0.36899004  0.04281859  0.58234696  1
  P  P8  1  0.67158853  0.62794939  0.58198668  1
  P  P9  1  0.95584594  0.62957144  0.08181324  1
  P  P10  1  0.67185088  0.04372632  0.08216995  1
  P  P11  1  0.37259481  0.32933915  0.07927673  1
  P  P12  1  0.63101305  0.65084739  0.92041119  1
  P  P13  1  0.34493572  0.97083638  0.92014388  1
  P  P14  1  0.34495668  0.37302134  0.42067193  1
  O  O0  1  0.22956430  0.00058424  0.31119042  1
  O  O1  1  0.78448553  0.78314823  0.30895082  1
  O  O2  1  0.98649718  0.21541661  0.30755647  1
  O  O3  1  0.21223532  0.19130546  0.79732512  1
  O  O4  1  0.98836010  0.77876892  0.80667807  1
  O  O5  1  0.80762407  0.01638470  0.79632255  1
  O  O6  1  0.73334750  0.94659248  0.68842433  1
  O  O7  1  0.21150695  0.26872280  0.68980628  1
  O  O8  1  0.05003398  0.79753457  0.69589658  1
  O  O9  1  0.75037798  0.80395817  0.19767628  1
  O  O10  1  0.03020071  0.24557883  0.19513158  1
  O  O11  1  0.20211981  0.95439970  0.19867726  1
  O  O12  1  0.87842073  0.33378476  0.64006798  1
  O  O13  1  0.45392406  0.12469027  0.64084342  1
  O  O14  1  0.67013655  0.54455596  0.64046239  1
  O  O15  1  0.87694124  0.53855893  0.13957873  1
  O  O16  1  0.66216518  0.12017877  0.14076413  1
  O  O17  1  0.46769598  0.34006915  0.13514527  1
  O  O18  1  0.48287314  0.32932344  0.02405693  1
  O  O19  1  0.84017400  0.51454701  0.02680401  1
  O  O20  1  0.66749253  0.15973365  0.02867049  1
  O  O21  1  0.48391428  0.15621656  0.52801009  1
  O  O22  1  0.66858341  0.51236754  0.52761221  1
  O  O23  1  0.84279744  0.32855178  0.52741332  1
  O  O24  1  0.56963785  0.67776672  0.97910641  1
  O  O25  1  0.10546061  0.44515517  0.98499177  1
  O  O26  1  0.32465329  0.88358932  0.97877885  1
  O  O27  1  0.57230176  0.87225056  0.48193277  1
  O  O28  1  0.31239159  0.42990959  0.47953602  1
  O  O29  1  0.12276583  0.68862133  0.48303634  1
  O  O30  1  0.14065504  0.63424927  0.36805954  1
  O  O31  1  0.49479268  0.85646844  0.36734716  1
  O  O32  1  0.36468889  0.50149848  0.37053610  1
  O  O33  1  0.14514393  0.50685179  0.86950010  1
  O  O34  1  0.36870133  0.86386252  0.86846190  1
  O  O35  1  0.50585097  0.63940322  0.86844382  1
  O  O36  1  0.99422050  0.81200321  0.41043017  1
  O  O37  1  0.82157508  0.01841533  0.40914652  1
  O  O38  1  0.20685160  0.19807011  0.40728609  1
  O  O39  1  0.98659144  0.18240387  0.91346650  1
  O  O40  1  0.19237749  0.98260407  0.90646590  1
  O  O41  1  0.80730569  0.78428048  0.90723859  1
  O  O42  1  0.95722241  0.16184583  0.57470609  1
  O  O43  1  0.20176555  0.03784727  0.57516419  1
  O  O44  1  0.83399952  0.79472653  0.57446560  1
  O  O45  1  0.95505796  0.79373819  0.07635600  1
  O  O46  1  0.83688670  0.04528117  0.07536505  1
  O  O47  1  0.20545389  0.16534408  0.07490743  1
  O  O48  1  0.64193347  0.12761795  0.74909645  1
  O  O49  1  0.48785562  0.35910314  0.74890556  1
  O  O50  1  0.87381422  0.51372369  0.75009183  1
  O  O51  1  0.66459749  0.52419351  0.25007832  1
  O  O52  1  0.86558529  0.35742431  0.25148500  1
  O  O53  1  0.49228482  0.12159251  0.25151778  1
  O  O54  1  0.62691205  0.47965068  0.91906856  1
  O  O55  1  0.84001943  0.37012173  0.91928672  1
  O  O56  1  0.50711164  0.14529014  0.91972472  1
  O  O57  1  0.62475344  0.15005907  0.42286727  1
  O  O58  1  0.51620718  0.37553927  0.42097703  1
  O  O59  1  0.84388822  0.48090027  0.42205486  1
  O  O60  1  0.34980099  0.48156919  0.07772811  1
  O  O61  1  0.13322062  0.65788677  0.07890630  1
  O  O62  1  0.52032150  0.86842323  0.07817896  1
  O  O63  1  0.35063133  0.86987668  0.58037235  1
  O  O64  1  0.51553561  0.64404998  0.58019013  1
  O  O65  1  0.13262055  0.47751917  0.57863967  1
  O  O66  1  0.31425450  0.81502585  0.26138271  1
  O  O67  1  0.50327776  0.67658448  0.26395348  1
  O  O68  1  0.17493876  0.49577878  0.26193874  1
  O  O69  1  0.31549453  0.49181889  0.76582322  1
  O  O70  1  0.18327814  0.68741731  0.76394174  1
  O  O71  1  0.50756774  0.81958941  0.76348059  1
loop_
_geom_bond_atom_site_label_1
_geom_bond_atom_site_label_2
_geom_bond_distance
_geom_bond_site_symmetry_2
Na0 O53 2.351577 1_555
Na0 O16 2.483995 1_555
Na0 O9 2.609748 1_545
Na0 O67 2.758807 1_545
Na0 O52 2.819057 1_555
Na0 O66 2.900303 1_545
Na0 O2 2.996834 1_555
Na1 O52 2.341956 1_555
Na1 O15 2.486866 1_555
Na1 O51 2.635326 1_555
Na1 O66 2.685160 1_655
Na1 O11 2.744668 1_655
Na1 O68 2.774538 1_655
Na2 O49 2.365409 1_555
Na2 O14 2.604010 1_555
Na2 O71 2.643819 1_555
Na2 O69 2.820471 1_555
Na2 O6 2.831349 1_555
Na2 O50 2.855443 1_555
Na2 O4 2.983795 1_555
Na2 O35 3.066630 1_555
Na3 O50 2.372239 1_555
Na3 O12 2.620490 1_555
Na3 O69 2.691727 1_655
Na3 O48 2.795629 1_555
Na3 O5 2.807061 1_555
Na3 O7 2.810227 1_655
Na3 O70 2.874993 1_655
Na4 O48 2.369430 1_555
Na4 O13 2.599413 1_555
Na4 O70 2.639629 1_545
Na4 O8 2.744254 1_545
Na4 O3 2.830782 1_555
Na4 O71 2.846684 1_545
Na4 O49 2.848127 1_555
Na5 O65 2.442800 1_555
Na5 O28 2.456839 1_555
Na5 O7 2.499105 1_555
Na5 O43 2.503342 1_555
Na5 O64 2.550525 1_555
Na5 O42 2.731268 1_455
Na6 O29 2.266354 1_555
Na6 O63 2.447194 1_555
Na6 O44 2.501881 1_455
Na6 O65 2.652609 1_555
Na6 O43 2.668030 1_565
Na6 O8 2.786666 1_555
Na7 O27 2.302346 1_555
Na7 O42 2.474255 1_565
Na7 O64 2.479306 1_555
Na7 O6 2.561999 1_555
Na7 O63 2.591659 1_555
Na7 O44 2.675337 1_555
Na8 O61 2.401744 1_555
Na8 O26 2.447098 1_554
Na8 O47 2.498859 1_565
Na8 O62 2.615499 1_555
Na8 O45 2.736948 1_455
Na8 O11 2.776453 1_555
Na9 O24 2.413643 1_554
Na9 O45 2.420121 1_555
Na9 O62 2.490536 1_555
Na9 O60 2.602515 1_555
Na9 O9 2.760709 1_555
Na9 O46 2.764086 1_565
Na10 O25 2.238085 1_554
Na10 O60 2.455115 1_555
Na10 O46 2.463819 1_455
Na10 O61 2.647108 1_555
Na10 O47 2.724187 1_555
Na10 O10 2.772217 1_555
Na11 O41 2.298205 1_555
Na11 O40 2.493870 1_655
Na11 O55 2.530996 1_555
Na11 O4 2.550173 1_555
Na12 O37 2.281859 1_555
Na12 O2 2.348824 1_555
Na12 O59 2.632471 1_555
Na12 O38 2.696436 1_655
Na12 O30 2.844561 1_655
Na13 O0 2.322541 1_555
Na13 O38 2.380379 1_555
Na13 O36 2.554167 1_445
Na13 O57 2.585471 1_555
Na14 O36 2.312526 1_555
Na14 O1 2.380418 1_555
Na14 O37 2.619282 1_565
Na14 O58 2.652760 1_555
Na15 O44 2.432910 1_555
Na15 O42 2.518361 1_565
Na15 O43 2.542312 1_665
Na15 O36 2.546736 1_555
Na15 O37 2.580170 1_565
Na15 O38 2.810338 1_665
Na16 O39 2.321453 1_455
Na16 O46 2.442051 1_456
Na16 O47 2.477445 1_556
Na16 O45 2.774393 1_446
Na16 O40 2.837519 1_545
Na16 O41 2.858419 1_445
Na17 O56 2.452636 1_555
Na17 O55 2.470081 1_555
Na17 O54 2.535994 1_555
Na17 O48 2.564613 1_555
Na17 O49 2.597345 1_555
Na17 O50 2.705239 1_555
Na18 O51 2.364716 1_555
Na18 O53 2.392016 1_555
Na18 O52 2.493831 1_555
Na18 O58 2.661900 1_555
Na18 O59 2.762151 1_555
Na18 O57 2.772086 1_555
Na19 O60 2.484422 1_555
Na19 O68 2.652384 1_555
Na19 O61 2.689832 1_555
Na19 O67 2.706200 1_555
Na19 O62 2.718291 1_555
Na19 O66 2.799404 1_555
Na20 O63 2.588687 1_555
Na20 O64 2.589673 1_555
Na20 O65 2.645025 1_555
Na20 O71 2.708956 1_555
Na20 O70 2.734921 1_555
Na20 O69 2.799085 1_555
Ca0 O1 2.209724 1_445
Ca0 O2 2.219453 1_455
Ca0 O0 2.244817 1_555
Ca0 O37 2.303140 1_455
Ca0 O36 2.304024 1_445
Ca0 O38 2.320057 1_555
Ca1 O39 2.191295 1_555
Ca1 O5 2.205648 1_555
Ca1 O3 2.228441 1_655
Ca1 O40 2.294410 1_645
Ca1 O41 2.322551 1_545
Ca1 O4 2.328252 1_545
Ca2 O8 2.399309 1_645
Ca2 O6 2.414566 1_545
Ca2 O42 2.443823 1_555
Ca2 O43 2.447367 1_655
Ca2 O7 2.449708 1_655
Ca2 O44 2.458197 1_545
Ca3 O10 2.336304 1_555
Ca3 O11 2.387231 1_545
Ca3 O47 2.406085 1_555
Ca3 O9 2.426307 1_445
Ca3 O46 2.451276 1_455
Ca3 O45 2.470577 1_445
Ca4 O14 2.199324 1_555
Ca4 O12 2.203741 1_555
Ca4 O13 2.204281 1_555
Ca4 O49 2.322236 1_555
Ca4 O48 2.326743 1_555
Ca4 O50 2.328217 1_555
Ca5 O17 2.139840 1_555
Ca5 O16 2.224968 1_555
Ca5 O15 2.233836 1_555
Ca5 O51 2.304610 1_555
Ca5 O53 2.332893 1_555
Ca5 O52 2.352795 1_555
Ca6 O25 2.174200 1_554
Ca6 O26 2.234216 1_554
Ca6 O24 2.252448 1_554
Ca6 O60 2.315851 1_555
Ca6 O62 2.355798 1_555
Ca6 O61 2.394804 1_555
Ca7 O29 2.184103 1_555
Ca7 O27 2.188823 1_555
Ca7 O28 2.266503 1_555
Ca7 O65 2.357667 1_555
Ca7 O64 2.358979 1_555
Ca7 O63 2.362526 1_555
O0 P0 1.518961 1_545
O1 P1 1.527319 1_555
O2 P2 1.525947 1_655
O3 P3 1.514408 1_555
O4 P4 1.522940 1_655
O5 P5 1.517196 1_545
O6 P5 1.556099 1_555
O7 P3 1.554531 1_555
O8 P4 1.552738 1_555
O9 P1 1.553288 1_555
O10 P2 1.537772 1_555
O11 P0 1.544392 1_555
O12 P6 1.521178 1_555
O13 P7 1.524836 1_555
O14 P8 1.523741 1_555
O15 P9 1.523964 1_555
O16 P10 1.521871 1_555
O17 P11 1.508953 1_555
O18 P11 1.613100 1_555
O18 Ta0 1.980079 1_554
O19 P9 1.635942 1_555
O19 Ta0 2.003994 1_554
O20 P10 1.633310 1_555
O20 Ta0 1.964584 1_554
O21 P7 1.620470 1_555
O21 Ta1 2.019447 1_555
O22 P8 1.622148 1_555
O22 Ta1 2.009583 1_555
O23 P6 1.637583 1_555
O23 Ta1 1.970071 1_555
O24 P12 1.508647 1_555
O25 Si0 1.583056 1_555
O26 P13 1.510134 1_555
O27 Si1 1.591931 1_555
O28 P14 1.512117 1_555
O29 Si2 1.588661 1_555
O30 Si2 1.711166 1_555
O30 Ta2 1.962483 1_555
O31 Si1 1.713430 1_555
O31 Ta2 1.955391 1_555
O32 P14 1.589149 1_555
O32 Ta2 2.048736 1_555
O33 Si0 1.759308 1_555
O33 Ta3 1.911699 1_555
O34 P13 1.619655 1_555
O34 Ta3 1.997668 1_555
O35 P12 1.614516 1_555
O35 Ta3 1.989677 1_555
O36 Si2 1.604920 1_655
O37 Si1 1.603561 1_545
O38 P14 1.520430 1_555
O39 Si0 1.579853 1_655
O40 P13 1.514069 1_555
O41 P12 1.514149 1_555
O42 P6 1.541140 1_555
O43 P7 1.546932 1_555
O44 P8 1.545081 1_555
O45 P9 1.545977 1_555
O46 P10 1.541914 1_555
O47 P11 1.547118 1_555
O48 P5 1.545218 1_545
O49 P3 1.540921 1_555
O50 P4 1.540924 1_655
O51 P1 1.527808 1_555
O52 P2 1.546466 1_655
O53 P0 1.535534 1_545
O54 P12 1.584632 1_555
O54 Ta0 2.086039 1_555
O55 Si0 1.705856 1_655
O55 Ta0 1.995172 1_555
O56 P13 1.573203 1_545
O56 Ta0 2.075400 1_555
O57 Si1 1.697891 1_545
O57 Ta1 1.990035 1_555
O58 P14 1.587601 1_555
O58 Ta1 2.109525 1_555
O59 Si2 1.694737 1_655
O59 Ta1 1.985064 1_555
O60 P11 1.544048 1_555
O61 P9 1.541866 1_455
O62 P10 1.539203 1_565
O63 P7 1.541170 1_565
O64 P8 1.539185 1_555
O65 P6 1.534549 1_455
O66 P0 1.614747 1_555
O66 Ta2 1.994617 1_555
O67 P1 1.593117 1_555
O67 Ta2 2.019561 1_555
O68 P2 1.590622 1_555
O68 Ta2 2.026951 1_555
O69 P3 1.607272 1_555
O69 Ta3 2.017933 1_555
O70 P4 1.608047 1_555
O70 Ta3 2.047420 1_555
O71 P5 1.596524 1_555
O71 Ta3 2.074128 1_555
