# generated using pymatgen
data_BaIn2Ir
_symmetry_space_group_name_H-M   'P 1'
_cell_length_a   6.36883896
_cell_length_b   6.36883896
_cell_length_c   8.15298314
_cell_angle_alpha   90.00000000
_cell_angle_beta   90.00000000
_cell_angle_gamma   139.64736519
_symmetry_Int_Tables_number   1
_chemical_formula_structural   BaIn2Ir
_chemical_formula_sum   'Ba2 In4 Ir2'
_cell_volume   214.12640891
_cell_formula_units_Z   2
loop_
 _symmetry_equiv_pos_site_id
 _symmetry_equiv_pos_as_xyz
  1  'x, y, z'
loop_
 _atom_site_type_symbol
 _atom_site_label
 _atom_site_symmetry_multiplicity
 _atom_site_fract_x
 _atom_site_fract_y
 _atom_site_fract_z
 _atom_site_occupancy
  Ba  Ba0  1  0.05191364  0.94808636  0.25000000  1
  Ba  Ba1  1  0.94808636  0.05191364  0.75000000  1
  In  In0  1  0.66747392  0.33252608  0.55557526  1
  In  In1  1  0.33252608  0.66747392  0.44442474  1
  In  In2  1  0.66747392  0.33252608  0.94442474  1
  In  In3  1  0.33252608  0.66747392  0.05557526  1
  Ir  Ir0  1  0.22117532  0.77882468  0.75000000  1
  Ir  Ir1  1  0.77882468  0.22117532  0.25000000  1
loop_
_geom_bond_atom_site_label_1
_geom_bond_atom_site_label_2
_geom_bond_distance
_geom_bond_site_symmetry_2
Ba0 Ir1 3.265062 1_465
Ba0 Ir1 3.490778 1_565
Ba0 Ir1 3.490778 1_455
Ba0 In2 3.597382 1_454
Ba0 In0 3.597382 1_455
Ba0 In0 3.597382 1_565
Ba0 In2 3.597382 1_564
Ba0 In1 3.710632 1_555
Ba0 In3 3.710632 1_555
Ba0 In3 3.770707 1_455
Ba0 In1 3.770707 1_455
Ba0 In3 3.770707 1_565
Ba0 In1 3.770707 1_565
Ba1 Ir0 3.265062 1_645
Ba1 Ir0 3.490778 1_545
Ba1 Ir0 3.490778 1_655
Ba1 In3 3.597382 1_656
Ba1 In3 3.597382 1_546
Ba1 In1 3.597382 1_655
Ba1 In1 3.597382 1_545
Ba1 In2 3.710632 1_555
Ba1 In0 3.710632 1_555
Ba1 In0 3.770707 1_655
Ba1 In2 3.770707 1_655
Ba1 In2 3.770707 1_545
Ba1 In0 3.770707 1_545
In0 Ir0 2.783937 1_655
In0 Ir0 2.783937 1_545
In0 Ir1 2.824752 1_555
In0 In1 3.088818 1_545
In0 In1 3.088818 1_655
In0 In2 3.170283 1_555
In1 Ir1 2.783937 1_565
In1 Ir1 2.783937 1_455
In1 Ir0 2.824752 1_555
In1 In3 3.170283 1_555
In2 Ir0 2.783937 1_655
In2 Ir0 2.783937 1_545
In2 Ir1 2.824752 1_556
In2 In3 3.088818 1_546
In2 In3 3.088818 1_656
In3 Ir1 2.783937 1_565
In3 Ir1 2.783937 1_455
In3 Ir0 2.824752 1_554
