# generated using pymatgen
data_MgCr2(BiO4)2
_symmetry_space_group_name_H-M   'P 1'
_cell_length_a   6.41030245
_cell_length_b   6.36229749
_cell_length_c   6.28563131
_cell_angle_alpha   105.30385235
_cell_angle_beta   105.65036368
_cell_angle_gamma   118.34105431
_symmetry_Int_Tables_number   1
_chemical_formula_structural   MgCr2(BiO4)2
_chemical_formula_sum   'Mg1 Cr2 Bi2 O8'
_cell_volume   192.62520431
_cell_formula_units_Z   1
loop_
 _symmetry_equiv_pos_site_id
 _symmetry_equiv_pos_as_xyz
  1  'x, y, z'
loop_
 _atom_site_type_symbol
 _atom_site_label
 _atom_site_symmetry_multiplicity
 _atom_site_fract_x
 _atom_site_fract_y
 _atom_site_fract_z
 _atom_site_occupancy
  Mg  Mg0  1  0.61679300  0.86679900  0.23355600  1
  Cr  Cr0  1  0.35364600  0.60369500  0.70735500  1
  Cr  Cr1  1  0.61825300  0.36824100  0.23656000  1
  Bi  Bi0  1  0.13840900  0.88837600  0.27672000  1
  Bi  Bi1  1  0.91460300  0.16460600  0.82930700  1
  O  O0  1  0.23844900  0.62563700  0.95031700  1
  O  O1  1  0.37088500  0.79285100  0.54093800  1
  O  O2  1  0.17003000  0.24802300  0.54087700  1
  O  O3  1  0.71185400  0.82467300  0.95030300  1
  O  O4  1  0.26187700  0.19099500  0.07433300  1
  O  O5  1  0.78564800  0.72740700  0.40731200  1
  O  O6  1  0.62166500  0.17994800  0.40728100  1
  O  O7  1  0.81247100  0.38333200  0.07430800  1
loop_
_geom_bond_atom_site_label_1
_geom_bond_atom_site_label_2
_geom_bond_distance
_geom_bond_site_symmetry_2
Mg0 O5 1.983892 1_555
Mg0 O6 1.984164 1_565
Mg0 O0 2.025143 1_554
Mg0 O3 2.025241 1_554
Cr0 O1 1.776334 1_555
Cr0 O2 1.777006 1_555
Cr0 O0 1.868375 1_555
Cr0 O3 1.868406 1_555
Cr1 O4 1.794588 1_555
Cr1 O7 1.795158 1_555
Cr1 O6 1.810514 1_555
Cr1 O5 1.811367 1_555
Bi0 O1 2.325032 1_555
Bi0 O2 2.325138 1_565
Bi0 O6 2.465741 1_565
Bi0 O5 2.466295 1_455
Bi0 O4 2.518147 1_565
Bi0 O7 2.518457 1_455
Bi0 O0 2.707783 1_554
Bi0 O3 2.707864 1_454
Bi1 O7 2.239298 1_556
Bi1 O4 2.239355 1_656
Bi1 O3 2.382837 1_545
Bi1 O0 2.383461 1_655
