# generated using pymatgen
data_Ba2MgMnMoO6
_symmetry_space_group_name_H-M   'P 1'
_cell_length_a   6.11363389
_cell_length_b   6.52321501
_cell_length_c   6.12469807
_cell_angle_alpha   63.45812677
_cell_angle_beta   59.24228734
_cell_angle_gamma   63.35494950
_symmetry_Int_Tables_number   1
_chemical_formula_structural   Ba2MgMnMoO6
_chemical_formula_sum   'Ba2 Mg1 Mn1 Mo1 O6'
_cell_volume   179.92839497
_cell_formula_units_Z   1
loop_
 _symmetry_equiv_pos_site_id
 _symmetry_equiv_pos_as_xyz
  1  'x, y, z'
loop_
 _atom_site_type_symbol
 _atom_site_label
 _atom_site_symmetry_multiplicity
 _atom_site_fract_x
 _atom_site_fract_y
 _atom_site_fract_z
 _atom_site_occupancy
  Ba  Ba0  1  0.72168117  0.83611977  0.72102494  1
  Ba  Ba1  1  0.29760212  0.09701213  0.30117677  1
  Mg  Mg0  1  0.09702498  0.71138806  0.09699826  1
  Mn  Mn0  1  0.91508485  0.25229012  0.91613061  1
  Mo  Mo0  1  0.51149691  0.46767414  0.51127131  1
  O  O0  1  0.27327414  0.69981766  0.74119369  1
  O  O1  1  0.27573723  0.70295043  0.27790080  1
  O  O2  1  0.74760823  0.22017385  0.74285149  1
  O  O3  1  0.29401261  0.22116168  0.74895006  1
  O  O4  1  0.75126415  0.22178229  0.29319075  1
  O  O5  1  0.74021263  0.70057986  0.27431233  1
loop_
_geom_bond_atom_site_label_1
_geom_bond_atom_site_label_2
_geom_bond_distance
_geom_bond_site_symmetry_2
Ba0 O2 2.645093 1_565
Ba0 O3 2.685225 1_565
Ba0 O4 2.694426 1_565
Ba0 O1 3.107913 1_655
Ba0 O1 3.128232 1_556
Ba0 O0 3.133115 1_655
Ba0 O5 3.146926 1_556
Ba0 O5 3.167832 1_555
Ba0 O0 3.172184 1_555
Ba0 Mn0 3.266387 1_555
Ba1 O1 2.702055 1_545
Ba1 O5 2.772232 1_545
Ba1 O0 2.773708 1_545
Ba1 O2 3.079808 1_455
Ba1 O4 3.084539 1_455
Ba1 O3 3.115734 1_554
Ba1 O2 3.132507 1_554
Ba1 O3 3.175680 1_555
Ba1 O4 3.194938 1_555
Mg0 O1 1.885233 1_555
Mg0 O0 1.894197 1_554
Mg0 O5 1.894571 1_455
Mn0 O2 1.929014 1_555
Mn0 O4 1.943771 1_556
Mn0 O3 1.947852 1_655
Mo0 O0 2.056035 1_555
Mo0 O5 2.056441 1_555
Mo0 O4 2.075773 1_555
Mo0 O3 2.078170 1_555
Mo0 O1 2.153719 1_555
Mo0 O2 2.158545 1_555
