# generated using pymatgen
data_Na3Zr2SiGe2P5O24
_symmetry_space_group_name_H-M   'P 1'
_cell_length_a   8.72732863
_cell_length_b   8.70813713
_cell_length_c   22.43205896
_cell_angle_alpha   90.03124684
_cell_angle_beta   89.84514172
_cell_angle_gamma   119.83173812
_symmetry_Int_Tables_number   1
_chemical_formula_structural   Na3Zr2SiGe2P5O24
_chemical_formula_sum   'Na9 Zr6 Si3 Ge6 P15 O72'
_cell_volume   1478.89876995
_cell_formula_units_Z   3
loop_
 _symmetry_equiv_pos_site_id
 _symmetry_equiv_pos_as_xyz
  1  'x, y, z'
loop_
 _atom_site_type_symbol
 _atom_site_label
 _atom_site_symmetry_multiplicity
 _atom_site_fract_x
 _atom_site_fract_y
 _atom_site_fract_z
 _atom_site_occupancy
  Na  Na0  1  0.37082715  0.00116377  0.74798828  1
  Na  Na1  1  0.66484819  0.96487295  0.58642670  1
  Na  Na2  1  0.66858507  0.70237908  0.08172056  1
  Na  Na3  1  0.01189741  0.00115688  0.50159540  1
  Na  Na4  1  0.00870300  0.00515038  0.99597916  1
  Na  Na5  1  0.67667601  0.34147728  0.83400559  1
  Na  Na6  1  0.66686042  0.33356143  0.33369496  1
  Na  Na7  1  0.32033224  0.66530004  0.16762822  1
  Na  Na8  1  0.32550611  0.65249059  0.66732623  1
  Zr  Zr0  1  0.00044883  0.00023530  0.35206833  1
  Zr  Zr1  1  0.00713206  0.00284416  0.14378503  1
  Zr  Zr2  1  0.32150795  0.66567591  0.01863724  1
  Zr  Zr3  1  0.32729154  0.66516609  0.52345492  1
  Zr  Zr4  1  0.33269059  0.66608521  0.31533380  1
  Zr  Zr5  1  0.33861696  0.66487674  0.81334104  1
  Si  Si0  1  0.72722238  0.01074438  0.74694929  1
  Si  Si1  1  0.37700400  0.05958627  0.58676240  1
  Si  Si2  1  0.94336908  0.60515298  0.08329552  1
  Ge  Ge0  1  0.99458307  0.00008987  0.85060444  1
  Ge  Ge1  1  0.00390675  0.99870143  0.64696345  1
  Ge  Ge2  1  0.67118500  0.33237692  0.68705752  1
  Ge  Ge3  1  0.67098256  0.33395758  0.18566107  1
  Ge  Ge4  1  0.66939599  0.33586295  0.97992330  1
  Ge  Ge5  1  0.65938873  0.33083969  0.48347074  1
  P  P0  1  0.30729380  0.01194698  0.24752460  1
  P  P1  1  0.70484602  0.69502340  0.24675282  1
  P  P2  1  0.98898070  0.29438680  0.24778435  1
  P  P3  1  0.28282904  0.27898921  0.74780933  1
  P  P4  1  0.98839360  0.71234324  0.74857429  1
  P  P5  1  0.94467951  0.32804664  0.58576165  1
  P  P6  1  0.67618487  0.61551101  0.58607063  1
  P  P7  1  0.66506640  0.05770310  0.08265263  1
  P  P8  1  0.39208614  0.33216957  0.08183385  1
  P  P9  1  0.63965574  0.66703572  0.91792394  1
  P  P10  1  0.02831433  0.36072144  0.91570605  1
  P  P11  1  0.33295306  0.97437026  0.91471937  1
  P  P12  1  0.62802031  0.97207812  0.42043676  1
  P  P13  1  0.34456789  0.37253816  0.41949502  1
  P  P14  1  0.02514208  0.65341502  0.41976406  1
  O  O0  1  0.22075783  0.03923739  0.30334915  1
  O  O1  1  0.82119991  0.78512295  0.30168674  1
  O  O2  1  0.96483910  0.18178060  0.30373916  1
  O  O3  1  0.20537966  0.15981367  0.80424865  1
  O  O4  1  0.96114835  0.79534820  0.80587129  1
  O  O5  1  0.84318110  0.03878733  0.80689711  1
  O  O6  1  0.80704792  0.97113928  0.68623896  1
  O  O7  1  0.16867437  0.19708111  0.69207495  1
  O  O8  1  0.03576816  0.83496554  0.69320628  1
  O  O9  1  0.78645332  0.80829590  0.19061336  1
  O  O10  1  0.02135445  0.20959979  0.19319540  1
  O  O11  1  0.18895319  0.97822378  0.19319357  1
  O  O12  1  0.86629916  0.36460715  0.64200406  1
  O  O13  1  0.50446514  0.13845373  0.64576771  1
  O  O14  1  0.64227159  0.50062624  0.64203920  1
  O  O15  1  0.85801552  0.49237138  0.14371967  1
  O  O16  1  0.63213470  0.13384132  0.14025946  1
  O  O17  1  0.50319804  0.36469881  0.13893806  1
  O  O18  1  0.47051613  0.30112932  0.02457356  1
  O  O19  1  0.82140197  0.52427405  0.02392772  1
  O  O20  1  0.69186169  0.16572669  0.02545000  1
  O  O21  1  0.46684656  0.17532081  0.52651127  1
  O  O22  1  0.70687206  0.53663760  0.52834762  1
  O  O23  1  0.82828374  0.29299642  0.52944253  1
  O  O24  1  0.55890382  0.69951640  0.97431513  1
  O  O25  1  0.14583504  0.44651438  0.97088271  1
  O  O26  1  0.29853528  0.85220197  0.96909422  1
  O  O27  1  0.54623664  0.85772195  0.47642455  1
  O  O28  1  0.31221262  0.45862535  0.47380583  1
  O  O29  1  0.14570858  0.68816126  0.47373579  1
  O  O30  1  0.11149301  0.62632655  0.36373297  1
  O  O31  1  0.51222175  0.88309871  0.36530303  1
  O  O32  1  0.36995208  0.48483362  0.36330638  1
  O  O33  1  0.11542641  0.48130831  0.86150479  1
  O  O34  1  0.36654588  0.89099291  0.85879674  1
  O  O35  1  0.51767211  0.63703418  0.86389391  1
  O  O36  1  0.00759184  0.81949788  0.41261880  1
  O  O37  1  0.81101240  0.98917945  0.41260989  1
  O  O38  1  0.18035820  0.18827022  0.41255923  1
  O  O39  1  0.01647809  0.17797290  0.90814562  1
  O  O40  1  0.16375110  0.98832917  0.90642048  1
  O  O41  1  0.82328671  0.83400034  0.90815143  1
  O  O42  1  0.96012360  0.15737272  0.59029676  1
  O  O43  1  0.17759952  0.03273688  0.59297861  1
  O  O44  1  0.83940622  0.80662401  0.59073137  1
  O  O45  1  0.96186739  0.80201501  0.08604170  1
  O  O46  1  0.82887106  0.03399657  0.08684740  1
  O  O47  1  0.20580727  0.17224359  0.08596128  1
  O  O48  1  0.69710861  0.18481760  0.74250066  1
  O  O49  1  0.47136417  0.30081552  0.74239723  1
  O  O50  1  0.82166302  0.52781740  0.74128527  1
  O  O51  1  0.68620050  0.50990607  0.24174971  1
  O  O52  1  0.81863240  0.30557487  0.24270514  1
  O  O53  1  0.48910244  0.17961369  0.24007145  1
  O  O54  1  0.65162641  0.49552001  0.92292682  1
  O  O55  1  0.84335351  0.34229066  0.92411304  1
  O  O56  1  0.50120824  0.15634721  0.92432663  1
  O  O57  1  0.64443102  0.15604421  0.42675060  1
  O  O58  1  0.51468973  0.36110505  0.42554893  1
  O  O59  1  0.84394528  0.48581884  0.42818196  1
  O  O60  1  0.37753480  0.50206021  0.07703099  1
  O  O61  1  0.14081080  0.63163117  0.07987904  1
  O  O62  1  0.50548652  0.86716085  0.07766130  1
  O  O63  1  0.36380652  0.86445397  0.58143646  1
  O  O64  1  0.51277748  0.64114745  0.58081716  1
  O  O65  1  0.13016816  0.48903723  0.58079122  1
  O  O66  1  0.32569581  0.84643250  0.25448548  1
  O  O67  1  0.52176323  0.67829717  0.25436905  1
  O  O68  1  0.15327183  0.47887800  0.25452575  1
  O  O69  1  0.30140914  0.46290402  0.75436649  1
  O  O70  1  0.15612822  0.69464744  0.75535861  1
  O  O71  1  0.52466132  0.83966491  0.75345042  1
loop_
_geom_bond_atom_site_label_1
_geom_bond_atom_site_label_2
_geom_bond_distance
_geom_bond_site_symmetry_2
Na0 O49 2.305749 1_555
Na0 O71 2.382204 1_545
Na0 O70 2.384472 1_545
Na0 O48 2.479704 1_555
Na0 O13 2.578523 1_555
Na0 O34 2.658338 1_545
Na0 O3 2.749403 1_555
Na0 O8 2.821782 1_545
Na1 O42 2.271906 1_565
Na1 O63 2.322839 1_555
Na1 O64 2.449989 1_555
Na1 O44 2.513721 1_555
Na1 O6 2.550240 1_555
Na1 O27 2.661100 1_555
Na1 O23 2.787862 1_565
Na1 O13 2.847577 1_565
Na2 O60 2.258081 1_555
Na2 O45 2.259506 1_555
Na2 O62 2.475161 1_555
Na2 O46 2.508135 1_565
Na2 O24 2.590445 1_554
Na2 O9 2.634916 1_555
Na2 O19 2.812704 1_555
Na2 O17 2.854649 1_555
Na3 O43 2.447208 1_555
Na3 O38 2.531770 1_555
Na3 O36 2.534839 1_545
Na3 O44 2.565961 1_445
Na3 O42 2.572463 1_455
Na3 O37 2.627897 1_445
Na4 O39 2.460174 1_555
Na4 O40 2.463879 1_545
Na4 O41 2.517122 1_445
Na4 O45 2.580275 1_446
Na4 O47 2.583772 1_556
Na4 O46 2.656235 1_456
Na5 O54 2.472342 1_555
Na5 O55 2.491449 1_555
Na5 O48 2.518576 1_555
Na5 O50 2.550854 1_555
Na5 O56 2.565089 1_555
Na5 O49 2.635672 1_555
Na6 O52 2.507174 1_555
Na6 O58 2.523562 1_555
Na6 O51 2.526727 1_555
Na6 O57 2.546678 1_555
Na6 O53 2.561248 1_555
Na6 O59 2.571936 1_555
Na7 O61 2.444227 1_555
Na7 O68 2.488798 1_555
Na7 O66 2.491996 1_555
Na7 O67 2.590280 1_555
Na7 O62 2.633293 1_555
Na7 O60 2.664115 1_555
Na8 O69 2.497587 1_555
Na8 O65 2.510189 1_555
Na8 O64 2.567110 1_555
Na8 O71 2.570258 1_555
Na8 O63 2.572431 1_555
Na8 O70 2.596700 1_555
Ge0 O5 1.808624 1_555
Ge0 O4 1.937240 1_545
Ge0 O39 1.951089 1_655
Ge0 O41 1.957958 1_545
Ge0 O3 1.961071 1_655
Ge0 O40 1.979505 1_645
Ge1 O6 1.835024 1_455
Ge1 O43 1.842740 1_565
Ge1 O8 1.893143 1_555
Ge1 O7 1.900159 1_565
Ge1 O44 2.017010 1_455
Ge1 O42 2.049595 1_465
Ge2 O13 1.840565 1_555
Ge2 O12 1.874913 1_555
Ge2 O48 1.881921 1_555
Ge2 O14 1.897610 1_555
Ge2 O50 1.970690 1_555
Ge2 O49 2.041955 1_555
Ge3 O15 1.790361 1_555
Ge3 O16 1.897657 1_555
Ge3 O53 1.919510 1_555
Ge3 O52 1.919659 1_555
Ge3 O17 1.926907 1_555
Ge3 O51 1.935096 1_555
Ge4 O19 1.807212 1_556
Ge4 O20 1.888967 1_556
Ge4 O18 1.891011 1_556
Ge4 O55 1.944383 1_555
Ge4 O54 1.951727 1_555
Ge4 O56 1.969394 1_555
Ge5 O21 1.821662 1_555
Ge5 O22 1.912649 1_555
Ge5 O58 1.921662 1_555
Ge5 O57 1.937506 1_555
Ge5 O59 1.944792 1_555
Ge5 O23 1.958726 1_555
O0 P0 1.538872 1_555
O0 Zr0 2.084678 1_555
O1 P1 1.542176 1_555
O1 Zr0 2.079721 1_665
O2 P2 1.541360 1_555
O2 Zr0 2.064878 1_655
O3 P3 1.560668 1_555
O4 P4 1.548969 1_555
O5 Si0 1.628889 1_555
O6 Si0 1.640838 1_565
O7 P3 1.537258 1_555
O8 P4 1.553449 1_455
O9 P1 1.537425 1_555
O9 Zr1 2.104193 1_665
O10 P2 1.526159 1_455
O10 Zr1 2.064406 1_555
O11 P0 1.530666 1_565
O11 Zr1 2.034844 1_565
O12 P5 1.540317 1_555
O13 Si1 1.645577 1_555
O14 P6 1.539314 1_555
O15 Si2 1.620119 1_555
O16 P7 1.542313 1_555
O17 P8 1.547410 1_555
O18 P8 1.539604 1_555
O19 Si2 1.631990 1_555
O20 P7 1.538486 1_555
O21 Si1 1.633026 1_555
O22 P6 1.549280 1_555
O23 P5 1.555367 1_555
O24 P9 1.539459 1_555
O24 Zr2 2.179354 1_556
O25 P10 1.544526 1_555
O25 Zr2 2.058147 1_556
O26 P11 1.546380 1_555
O26 Zr2 2.059321 1_556
O27 P12 1.538772 1_555
O27 Zr3 2.092641 1_555
O28 P13 1.527658 1_555
O28 Zr3 2.062946 1_555
O29 P14 1.534355 1_555
O29 Zr3 2.029999 1_555
O30 P14 1.541031 1_555
O30 Zr4 2.085522 1_555
O31 P12 1.542055 1_555
O31 Zr4 2.084219 1_555
O32 P13 1.542178 1_555
O32 Zr4 2.066260 1_555
O33 P10 1.536580 1_555
O33 Zr5 2.099857 1_555
O34 P11 1.547768 1_555
O34 Zr5 2.120835 1_555
O35 P9 1.549348 1_555
O35 Zr5 2.042922 1_555
O36 P14 1.536761 1_555
O36 Zr0 2.103880 1_565
O37 P12 1.537988 1_555
O37 Zr0 2.101568 1_665
O38 P13 1.538142 1_555
O38 Zr0 2.106886 1_555
O39 P10 1.551848 1_555
O40 P11 1.552455 1_555
O41 P9 1.552604 1_555
O42 P5 1.561091 1_555
O43 Si1 1.642118 1_555
O44 P6 1.565816 1_555
O45 Si2 1.641121 1_555
O45 Zr1 2.050678 1_665
O46 P7 1.545810 1_555
O46 Zr1 2.134537 1_655
O47 P8 1.528989 1_555
O47 Zr1 2.076093 1_555
O48 Si0 1.665384 1_555
O49 P3 1.563980 1_555
O50 P4 1.549470 1_555
O51 P1 1.541631 1_555
O52 P2 1.541993 1_555
O53 P0 1.539905 1_555
O54 P9 1.552349 1_555
O55 P10 1.551657 1_655
O56 P11 1.549232 1_545
O57 P12 1.542262 1_545
O58 P13 1.543012 1_555
O59 P14 1.539116 1_655
O60 P8 1.550362 1_555
O60 Zr2 2.164150 1_555
O61 Si2 1.622424 1_455
O61 Zr2 1.996419 1_555
O62 P7 1.551409 1_565
O62 Zr2 2.148424 1_555
O63 Si1 1.649268 1_565
O63 Zr3 2.062641 1_555
O64 P6 1.554093 1_555
O64 Zr3 2.160647 1_555
O65 P5 1.529605 1_455
O65 Zr3 2.081176 1_555
O66 P0 1.535664 1_565
O66 Zr4 2.105096 1_555
O67 P1 1.539627 1_555
O67 Zr4 2.101843 1_555
O68 P2 1.539120 1_455
O68 Zr4 2.107030 1_555
O69 P3 1.534407 1_555
O69 Zr5 2.092971 1_555
O70 P4 1.554187 1_455
O70 Zr5 2.172047 1_555
O71 Si0 1.656649 1_565
O71 Zr5 2.071137 1_555
