# generated using pymatgen
data_LiIn(MoO4)2
_symmetry_space_group_name_H-M   'P 1'
_cell_length_a   7.59105570
_cell_length_b   7.59105570
_cell_length_c   5.09344940
_cell_angle_alpha   88.87887352
_cell_angle_beta   88.87887352
_cell_angle_gamma   100.88394450
_symmetry_Int_Tables_number   1
_chemical_formula_structural   LiIn(MoO4)2
_chemical_formula_sum   'Li2 In2 Mo4 O16'
_cell_volume   288.08983709
_cell_formula_units_Z   2
loop_
 _symmetry_equiv_pos_site_id
 _symmetry_equiv_pos_as_xyz
  1  'x, y, z'
loop_
 _atom_site_type_symbol
 _atom_site_label
 _atom_site_symmetry_multiplicity
 _atom_site_fract_x
 _atom_site_fract_y
 _atom_site_fract_z
 _atom_site_occupancy
  Li  Li0  1  0.58459900  0.41540100  0.25000000  1
  Li  Li1  1  0.41540100  0.58459900  0.75000000  1
  In  In0  1  0.90819300  0.09180700  0.75000000  1
  In  In1  1  0.09180700  0.90819300  0.25000000  1
  Mo  Mo0  1  0.57299800  0.89093600  0.24999400  1
  Mo  Mo1  1  0.10906400  0.42700200  0.25000600  1
  Mo  Mo2  1  0.42700200  0.10906400  0.75000600  1
  Mo  Mo3  1  0.89093600  0.57299800  0.74999400  1
  O  O0  1  0.43516200  0.31669400  0.59340400  1
  O  O1  1  0.68330600  0.56483800  0.90659600  1
  O  O2  1  0.44475100  0.83205100  0.95678200  1
  O  O3  1  0.16794900  0.55524900  0.54321800  1
  O  O4  1  0.56483800  0.68330600  0.40659600  1
  O  O5  1  0.31669400  0.43516200  0.09340400  1
  O  O6  1  0.94215800  0.81273600  0.61022500  1
  O  O7  1  0.18726400  0.05784200  0.88977500  1
  O  O8  1  0.05784200  0.18726400  0.38977500  1
  O  O9  1  0.81273600  0.94215800  0.11022500  1
  O  O10  1  0.94775100  0.34749000  0.93223100  1
  O  O11  1  0.65251000  0.05224900  0.56776900  1
  O  O12  1  0.05224900  0.65251000  0.06776900  1
  O  O13  1  0.34749000  0.94775100  0.43223100  1
  O  O14  1  0.83205100  0.44475100  0.45678200  1
  O  O15  1  0.55524900  0.16794900  0.04321800  1
loop_
_geom_bond_atom_site_label_1
_geom_bond_atom_site_label_2
_geom_bond_distance
_geom_bond_site_symmetry_2
Li0 O0 2.111335 1_555
Li0 O1 2.111335 1_554
Li0 O15 2.148480 1_555
Li0 O14 2.148480 1_555
Li0 O5 2.229025 1_555
Li0 O4 2.229025 1_555
Li1 O5 2.111335 1_556
Li1 O4 2.111335 1_555
Li1 O3 2.148480 1_555
Li1 O2 2.148480 1_555
Li1 O0 2.229025 1_555
Li1 O1 2.229025 1_555
In0 O11 2.140119 1_555
In0 O10 2.140119 1_555
In0 O9 2.176592 1_546
In0 O8 2.176592 1_655
In0 O6 2.306347 1_545
In0 O7 2.306347 1_655
In1 O12 2.140119 1_555
In1 O13 2.140119 1_555
In1 O6 2.176592 1_455
In1 O7 2.176592 1_564
In1 O8 2.306347 1_565
In1 O9 2.306347 1_455
Mo0 O4 1.742488 1_555
Mo0 O2 1.815675 1_554
Mo0 O9 1.908180 1_555
Mo0 O13 2.051900 1_555
Mo0 O11 2.078519 1_565
Mo0 O15 2.361171 1_565
Mo1 O5 1.742488 1_555
Mo1 O3 1.815675 1_555
Mo1 O8 1.908180 1_555
Mo1 O12 2.051900 1_555
Mo1 O10 2.078519 1_454
Mo1 O14 2.361171 1_455
Mo2 O0 1.742488 1_555
Mo2 O15 1.815675 1_556
Mo2 O7 1.908180 1_555
Mo2 O11 2.051900 1_555
Mo2 O13 2.078519 1_545
Mo2 O2 2.361171 1_545
Mo3 O1 1.742488 1_555
Mo3 O14 1.815675 1_555
Mo3 O6 1.908180 1_555
Mo3 O10 2.051900 1_555
Mo3 O12 2.078519 1_656
Mo3 O3 2.361171 1_655
