# generated using pymatgen
data_Na2Mg(SbO3)2
_symmetry_space_group_name_H-M   'P 1'
_cell_length_a   6.54253348
_cell_length_b   6.54253348
_cell_length_c   6.54253391
_cell_angle_alpha   50.57193345
_cell_angle_beta   50.57193323
_cell_angle_gamma   50.57192798
_symmetry_Int_Tables_number   1
_chemical_formula_structural   Na2Mg(SbO3)2
_chemical_formula_sum   'Na2 Mg1 Sb2 O6'
_cell_volume   153.96954748
_cell_formula_units_Z   1
loop_
 _symmetry_equiv_pos_site_id
 _symmetry_equiv_pos_as_xyz
  1  'x, y, z'
loop_
 _atom_site_type_symbol
 _atom_site_label
 _atom_site_symmetry_multiplicity
 _atom_site_fract_x
 _atom_site_fract_y
 _atom_site_fract_z
 _atom_site_occupancy
  Na  Na0  1  0.66714400  0.66714400  0.66714400  1
  Na  Na1  1  0.33285600  0.33285600  0.33285600  1
  Mg  Mg0  1  0.50000000  0.50000000  0.50000000  1
  Sb  Sb0  1  0.84735300  0.84735300  0.84735300  1
  Sb  Sb1  1  0.15264700  0.15264700  0.15264700  1
  O  O0  1  0.91176100  0.24909700  0.52754400  1
  O  O1  1  0.24909700  0.52754400  0.91176100  1
  O  O2  1  0.52754400  0.91176100  0.24909700  1
  O  O3  1  0.08823900  0.75090300  0.47245600  1
  O  O4  1  0.47245600  0.08823900  0.75090300  1
  O  O5  1  0.75090300  0.47245600  0.08823900  1
loop_
_geom_bond_atom_site_label_1
_geom_bond_atom_site_label_2
_geom_bond_distance
_geom_bond_site_symmetry_2
Na0 O4 2.467088 1_565
Na0 O3 2.467088 1_655
Na0 O5 2.467088 1_556
Na0 O0 2.575363 1_555
Na0 O1 2.575363 1_555
Na0 O2 2.575363 1_555
Na1 O2 2.467088 1_545
Na1 O0 2.467088 1_455
Na1 O1 2.467088 1_554
Na1 O3 2.575363 1_555
Na1 O5 2.575363 1_555
Na1 O4 2.575363 1_555
Mg0 O3 2.146681 1_555
Mg0 O0 2.146681 1_555
Mg0 O4 2.146681 1_555
Mg0 O2 2.146681 1_555
Mg0 O5 2.146681 1_555
Mg0 O1 2.146681 1_555
O0 Sb1 2.165809 1_655
O0 Sb0 2.182976 1_545
O1 Sb1 2.165809 1_556
O1 Sb0 2.182976 1_455
O2 Sb1 2.165809 1_565
O2 Sb0 2.182976 1_554
O3 Sb0 2.165809 1_455
O3 Sb1 2.182976 1_565
O4 Sb0 2.165809 1_545
O4 Sb1 2.182976 1_556
O5 Sb0 2.165809 1_554
O5 Sb1 2.182976 1_655
