# generated using pymatgen
data_Na4HfZr(SiO4)3
_symmetry_space_group_name_H-M   'P 1'
_cell_length_a   9.26709028
_cell_length_b   9.26708995
_cell_length_c   23.04055955
_cell_angle_alpha   90.00000000
_cell_angle_beta   90.00000000
_cell_angle_gamma   120.00000118
_symmetry_Int_Tables_number   1
_chemical_formula_structural   Na4HfZr(SiO4)3
_chemical_formula_sum   'Na24 Hf6 Zr6 Si18 O72'
_cell_volume   1713.60381686
_cell_formula_units_Z   6
loop_
 _symmetry_equiv_pos_site_id
 _symmetry_equiv_pos_as_xyz
  1  'x, y, z'
loop_
 _atom_site_type_symbol
 _atom_site_label
 _atom_site_symmetry_multiplicity
 _atom_site_fract_x
 _atom_site_fract_y
 _atom_site_fract_z
 _atom_site_occupancy
  Na  Na0  1  0.63407695  0.00006989  0.24996432  1
  Na  Na1  1  0.36599294  0.36592305  0.24996432  1
  Na  Na2  1  0.99993011  0.63400706  0.24996432  1
  Na  Na3  1  0.63365287  0.63382207  0.75018259  1
  Na  Na4  1  0.00016919  0.36634713  0.75018259  1
  Na  Na5  1  0.36617793  0.99983081  0.75018259  1
  Na  Na6  1  0.30032412  0.33332570  0.58334131  1
  Na  Na7  1  0.03300258  0.69967588  0.58334131  1
  Na  Na8  1  0.66667430  0.96699742  0.58334131  1
  Na  Na9  1  0.30028994  0.96691963  0.08315056  1
  Na  Na10  1  0.66663069  0.69971006  0.08315056  1
  Na  Na11  1  0.03308037  0.33336931  0.08315056  1
  Na  Na12  1  0.96705235  0.66660760  0.91669375  1
  Na  Na13  1  0.69955426  0.03294765  0.91669375  1
  Na  Na14  1  0.33339240  0.30044574  0.91669375  1
  Na  Na15  1  0.96696917  0.30016475  0.41666553  1
  Na  Na16  1  0.33319458  0.03303083  0.41666553  1
  Na  Na17  1  0.69983525  0.66680542  0.41666553  1
  Na  Na18  1  -0.00000000  0.00000000  0.50005385  1
  Na  Na19  1  -0.00000000  0.00000000  0.99992578  1
  Na  Na20  1  0.66666700  0.33333300  0.83342300  1
  Na  Na21  1  0.66666700  0.33333300  0.33328962  1
  Na  Na22  1  0.33333300  0.66666700  0.16655806  1
  Na  Na23  1  0.33333300  0.66666700  0.66674632  1
  Hf  Hf0  1  -0.00000000  0.00000000  0.85178947  1
  Hf  Hf1  1  0.66666700  0.33333300  0.18423258  1
  Hf  Hf2  1  0.66666700  0.33333300  0.98171991  1
  Hf  Hf3  1  0.33333300  0.66666700  0.01786041  1
  Hf  Hf4  1  0.33333300  0.66666700  0.31525047  1
  Hf  Hf5  1  0.33333300  0.66666700  0.81579387  1
  Zr  Zr0  1  -0.00000000  0.00000000  0.35076703  1
  Zr  Zr1  1  -0.00000000  0.00000000  0.64944211  1
  Zr  Zr2  1  -0.00000000  0.00000000  0.14873359  1
  Zr  Zr3  1  0.66666700  0.33333300  0.68485295  1
  Zr  Zr4  1  0.66666700  0.33333300  0.48196161  1
  Zr  Zr5  1  0.33333300  0.66666700  0.51759919  1
  Si  Si0  1  0.29546044  0.00014809  0.24990080  1
  Si  Si1  1  0.70468765  0.70453956  0.24990080  1
  Si  Si2  1  0.99985191  0.29531235  0.24990080  1
  Si  Si3  1  0.29262596  0.29394692  0.75091789  1
  Si  Si4  1  0.00132096  0.70737404  0.75091789  1
  Si  Si5  1  0.70605308  0.99867904  0.75091789  1
  Si  Si6  1  0.96065574  0.33320871  0.58337651  1
  Si  Si7  1  0.37255398  0.03934426  0.58337651  1
  Si  Si8  1  0.66679129  0.62744602  0.58337651  1
  Si  Si9  1  0.95914755  0.62457067  0.08297859  1
  Si  Si10  1  0.66542411  0.04085245  0.08297859  1
  Si  Si11  1  0.37542933  0.33457589  0.08297859  1
  Si  Si12  1  0.62579066  0.66663264  0.91672075  1
  Si  Si13  1  0.04084098  0.37420934  0.91672075  1
  Si  Si14  1  0.33336736  0.95915902  0.91672075  1
  Si  Si15  1  0.62613431  0.95937254  0.41610811  1
  Si  Si16  1  0.33323723  0.37386569  0.41610811  1
  Si  Si17  1  0.04062746  0.66676277  0.41610811  1
  O  O0  1  0.20924077  0.03454777  0.30668161  1
  O  O1  1  0.82530700  0.79075923  0.30668161  1
  O  O2  1  0.96545223  0.17469300  0.30668161  1
  O  O3  1  0.20385022  0.17209240  0.80714151  1
  O  O4  1  0.96824218  0.79614978  0.80714151  1
  O  O5  1  0.82790760  0.03175782  0.80714151  1
  O  O6  1  0.79093805  0.96527953  0.69344815  1
  O  O7  1  0.17434148  0.20906195  0.69344815  1
  O  O8  1  0.03472047  0.82565852  0.69344815  1
  O  O9  1  0.79125230  0.82566392  0.19319150  1
  O  O10  1  0.03441162  0.20874770  0.19319150  1
  O  O11  1  0.17433608  0.96558838  0.19319150  1
  O  O12  1  0.87416479  0.36665203  0.64028580  1
  O  O13  1  0.49248825  0.12583521  0.64028580  1
  O  O14  1  0.63334797  0.50751175  0.64028580  1
  O  O15  1  0.87197316  0.50543711  0.14006054  1
  O  O16  1  0.63346495  0.12802684  0.14006054  1
  O  O17  1  0.49456289  0.36653505  0.14006054  1
  O  O18  1  0.46292565  0.30159091  0.02633082  1
  O  O19  1  0.83866626  0.53707435  0.02633082  1
  O  O20  1  0.69840909  0.16133374  0.02633082  1
  O  O21  1  0.45897807  0.15910496  0.52641284  1
  O  O22  1  0.70012789  0.54102193  0.52641284  1
  O  O23  1  0.84089504  0.29987211  0.52641284  1
  O  O24  1  0.53831860  0.69963963  0.97349600  1
  O  O25  1  0.16132003  0.46168140  0.97349600  1
  O  O26  1  0.30036037  0.83867997  0.97349600  1
  O  O27  1  0.54114654  0.84096351  0.47341164  1
  O  O28  1  0.29981598  0.45885346  0.47341164  1
  O  O29  1  0.15903649  0.70018402  0.47341164  1
  O  O30  1  0.12917449  0.63469968  0.35960681  1
  O  O31  1  0.50552419  0.87082551  0.35960681  1
  O  O32  1  0.36530032  0.49447581  0.35960681  1
  O  O33  1  0.12806571  0.49436298  0.85993717  1
  O  O34  1  0.36629627  0.87193429  0.85993717  1
  O  O35  1  0.50563702  0.63370373  0.85993717  1
  O  O36  1  0.02312109  0.83440292  0.41073980  1
  O  O37  1  0.81128183  0.97687891  0.41073980  1
  O  O38  1  0.16559708  0.18871817  0.41073980  1
  O  O39  1  0.02318285  0.18867281  0.91029961  1
  O  O40  1  0.16548996  0.97681715  0.91029961  1
  O  O41  1  0.81132719  0.83451004  0.91029961  1
  O  O42  1  0.97725450  0.16526765  0.58889377  1
  O  O43  1  0.18801315  0.02274550  0.58889377  1
  O  O44  1  0.83473235  0.81198685  0.58889377  1
  O  O45  1  0.97675973  0.81013108  0.08877344  1
  O  O46  1  0.83337135  0.02324027  0.08877344  1
  O  O47  1  0.18986892  0.16662865  0.08877344  1
  O  O48  1  0.68938546  0.16688679  0.74505724  1
  O  O49  1  0.47750233  0.31061454  0.74505724  1
  O  O50  1  0.83311321  0.52249767  0.74505724  1
  O  O51  1  0.68815267  0.51998760  0.24329616  1
  O  O52  1  0.83183593  0.31184733  0.24329616  1
  O  O53  1  0.48001240  0.16816407  0.24329616  1
  O  O54  1  0.64356077  0.49887289  0.92312128  1
  O  O55  1  0.85531312  0.35643923  0.92312128  1
  O  O56  1  0.50112711  0.14468688  0.92312128  1
  O  O57  1  0.64287268  0.14419593  0.42161916  1
  O  O58  1  0.50132425  0.35712732  0.42161916  1
  O  O59  1  0.85580407  0.49867575  0.42161916  1
  O  O60  1  0.35759350  0.50232262  0.07678707  1
  O  O61  1  0.14472812  0.64240650  0.07678707  1
  O  O62  1  0.49767738  0.85527188  0.07678707  1
  O  O63  1  0.35599300  0.85483685  0.57792044  1
  O  O64  1  0.49884285  0.64400700  0.57792044  1
  O  O65  1  0.14516315  0.50115715  0.57792044  1
  O  O66  1  0.31185642  0.83201219  0.25646649  1
  O  O67  1  0.52015478  0.68814358  0.25646649  1
  O  O68  1  0.16798781  0.47984522  0.25646649  1
  O  O69  1  0.31020974  0.47912328  0.75702050  1
  O  O70  1  0.16891254  0.68979026  0.75702050  1
  O  O71  1  0.52087672  0.83108746  0.75702050  1
loop_
_geom_bond_atom_site_label_1
_geom_bond_atom_site_label_2
_geom_bond_distance
_geom_bond_site_symmetry_2
Na0 O52 2.536744 1_555
Na0 O67 2.537936 1_545
Na0 O53 2.590873 1_555
Na0 O66 2.591128 1_545
Na0 O31 2.794406 1_545
Na0 O16 2.797341 1_555
Na0 O2 2.964343 1_555
Na0 O9 2.966309 1_545
Na1 O53 2.536751 1_555
Na1 O68 2.537945 1_555
Na1 O51 2.590881 1_555
Na1 O67 2.591128 1_555
Na1 O32 2.794408 1_555
Na1 O17 2.797345 1_555
Na1 O0 2.964343 1_555
Na1 O10 2.966309 1_555
Na2 O51 2.536743 1_555
Na2 O66 2.537938 1_655
Na2 O52 2.590881 1_555
Na2 O68 2.591120 1_655
Na2 O30 2.794404 1_655
Na2 O15 2.797343 1_555
Na2 O1 2.964343 1_555
Na2 O11 2.966309 1_655
Na3 O71 2.523780 1_555
Na3 O50 2.530183 1_555
Na3 O49 2.597092 1_555
Na3 O69 2.601395 1_555
Na3 O14 2.788958 1_555
Na3 O35 2.793019 1_555
Na3 O6 2.964985 1_555
Na3 O4 2.989153 1_555
Na4 O69 2.523772 1_555
Na4 O48 2.530175 1_455
Na4 O50 2.597084 1_455
Na4 O70 2.601395 1_555
Na4 O12 2.788954 1_455
Na4 O33 2.793017 1_555
Na4 O7 2.964985 1_555
Na4 O5 2.989153 1_455
Na5 O70 2.523773 1_555
Na5 O49 2.530174 1_565
Na5 O48 2.597092 1_565
Na5 O71 2.601387 1_555
Na5 O13 2.788956 1_565
Na5 O34 2.793015 1_555
Na5 O8 2.964985 1_555
Na5 O3 2.989153 1_565
Na6 O43 2.527433 1_555
Na6 O64 2.528373 1_555
Na6 O65 2.595858 1_555
Na6 O42 2.596665 1_455
Na6 O28 2.788189 1_555
Na6 O7 2.789386 1_555
Na6 O21 2.977006 1_555
Na6 O14 2.978218 1_555
Na7 O44 2.527442 1_455
Na7 O65 2.528359 1_555
Na7 O63 2.595842 1_555
Na7 O43 2.596665 1_565
Na7 O29 2.788181 1_555
Na7 O8 2.789388 1_555
Na7 O22 2.977006 1_455
Na7 O12 2.978218 1_455
Na8 O42 2.527435 1_565
Na8 O63 2.528376 1_555
Na8 O64 2.595843 1_555
Na8 O44 2.596657 1_555
Na8 O27 2.788185 1_555
Na8 O6 2.789384 1_555
Na8 O23 2.977006 1_565
Na8 O13 2.978218 1_565
Na9 O62 2.516065 1_555
Na9 O47 2.526434 1_565
Na9 O45 2.600142 1_455
Na9 O61 2.609253 1_555
Na9 O11 2.788628 1_555
Na9 O26 2.792186 1_554
Na9 O16 2.978541 1_565
Na9 O18 2.988300 1_565
Na10 O60 2.516080 1_555
Na10 O45 2.526425 1_555
Na10 O46 2.600142 1_565
Na10 O62 2.609269 1_555
Na10 O9 2.788626 1_555
Na10 O24 2.792194 1_554
Na10 O17 2.978541 1_555
Na10 O19 2.988300 1_555
Na11 O61 2.516083 1_555
Na11 O46 2.526427 1_455
Na11 O47 2.600134 1_555
Na11 O60 2.609254 1_555
Na11 O10 2.788624 1_555
Na11 O25 2.792190 1_554
Na11 O15 2.978541 1_455
Na11 O20 2.988300 1_455
Na12 O55 2.525813 1_555
Na12 O40 2.526076 1_655
Na12 O54 2.601006 1_555
Na12 O41 2.602072 1_555
Na12 O4 2.792730 1_555
Na12 O19 2.794545 1_556
Na12 O33 2.977607 1_655
Na12 O26 2.978398 1_655
Na13 O56 2.525796 1_555
Na13 O41 2.526083 1_545
Na13 O55 2.601005 1_555
Na13 O39 2.602080 1_655
Na13 O5 2.792734 1_555
Na13 O20 2.794541 1_556
Na13 O34 2.977607 1_545
Na13 O24 2.978398 1_545
Na14 O54 2.525810 1_555
Na14 O39 2.526074 1_555
Na14 O56 2.601022 1_555
Na14 O40 2.602079 1_545
Na14 O3 2.792732 1_555
Na14 O18 2.794549 1_556
Na14 O35 2.977607 1_555
Na14 O25 2.978398 1_555
Na15 O59 2.520640 1_555
Na15 O38 2.524782 1_655
Na15 O37 2.598718 1_545
Na15 O57 2.604160 1_555
Na15 O23 2.784937 1_555
Na15 O2 2.785225 1_555
Na15 O28 2.974945 1_655
Na15 O30 2.989785 1_655
Na16 O57 2.520657 1_555
Na16 O36 2.524775 1_545
Na16 O38 2.598710 1_555
Na16 O58 2.604161 1_555
Na16 O21 2.784941 1_555
Na16 O0 2.785221 1_555
Na16 O29 2.974945 1_545
Na16 O31 2.989785 1_545
Na17 O58 2.520654 1_555
Na17 O37 2.524773 1_555
Na17 O36 2.598718 1_655
Na17 O59 2.604177 1_555
Na17 O22 2.784945 1_555
Na17 O1 2.785223 1_555
Na17 O27 2.974945 1_555
Na17 O32 2.989785 1_555
Na18 O44 2.627316 1_445
Na18 O42 2.627316 1_455
Na18 O43 2.627316 1_555
Na18 O38 2.639026 1_555
Na18 O36 2.639026 1_545
Na18 O37 2.639026 1_445
Na19 O45 2.637045 1_446
Na19 O47 2.637045 1_556
Na19 O46 2.637045 1_456
Na19 O39 2.644234 1_555
Na19 O41 2.644234 1_445
Na19 O40 2.644234 1_545
Na20 O50 2.625561 1_555
Na20 O48 2.625561 1_555
Na20 O49 2.625561 1_555
Na20 O56 2.645555 1_555
Na20 O54 2.645555 1_555
Na20 O55 2.645555 1_555
Na21 O57 2.622242 1_555
Na21 O59 2.622242 1_555
Na21 O58 2.622242 1_555
Na21 O51 2.643228 1_555
Na21 O53 2.643228 1_555
Na21 O52 2.643228 1_555
Na22 O66 2.642669 1_555
Na22 O68 2.642669 1_555
Na22 O67 2.642669 1_555
Na22 O62 2.643981 1_555
Na22 O60 2.643981 1_555
Na22 O61 2.643981 1_555
Na23 O63 2.628169 1_555
Na23 O65 2.628169 1_555
Na23 O64 2.628169 1_555
Na23 O69 2.649594 1_555
Na23 O71 2.649594 1_555
Na23 O70 2.649594 1_555
Hf0 O4 2.039018 1_445
Hf0 O3 2.039018 1_555
Hf0 O5 2.039018 1_455
Hf0 O39 2.131897 1_555
Hf0 O41 2.131897 1_445
Hf0 O40 2.131897 1_545
Hf1 O16 2.040817 1_555
Hf1 O15 2.040817 1_555
Hf1 O17 2.040817 1_555
Hf1 O51 2.130537 1_555
Hf1 O53 2.130537 1_555
Hf1 O52 2.130537 1_555
Hf2 O19 2.037771 1_556
Hf2 O20 2.037771 1_556
Hf2 O18 2.037771 1_556
Hf2 O56 2.133216 1_555
Hf2 O54 2.133216 1_555
Hf2 O55 2.133216 1_555
Hf3 O25 2.041159 1_554
Hf3 O26 2.041159 1_554
Hf3 O24 2.041159 1_554
Hf3 O62 2.134437 1_555
Hf3 O60 2.134437 1_555
Hf3 O61 2.134437 1_555
Hf4 O31 2.037461 1_555
Hf4 O32 2.037461 1_555
Hf4 O30 2.037461 1_555
Hf4 O66 2.127642 1_555
Hf4 O68 2.127642 1_555
Hf4 O67 2.127642 1_555
Hf5 O34 2.040877 1_555
Hf5 O33 2.040877 1_555
Hf5 O35 2.040877 1_555
Hf5 O69 2.127878 1_555
Hf5 O71 2.127878 1_555
Hf5 O70 2.127878 1_555
O0 Si0 1.645081 1_555
O0 Zr0 2.067215 1_555
O1 Si1 1.645081 1_555
O1 Zr0 2.067215 1_665
O2 Si2 1.645081 1_555
O2 Zr0 2.067215 1_655
O3 Si3 1.643504 1_555
O4 Si4 1.643504 1_655
O5 Si5 1.643504 1_545
O6 Si5 1.646635 1_555
O6 Zr1 2.064389 1_665
O7 Si3 1.646635 1_555
O7 Zr1 2.064389 1_555
O8 Si4 1.646635 1_555
O8 Zr1 2.064389 1_565
O9 Si1 1.646287 1_555
O9 Zr2 2.067918 1_665
O10 Si2 1.646287 1_455
O10 Zr2 2.067918 1_555
O11 Si0 1.646287 1_565
O11 Zr2 2.067918 1_565
O12 Si6 1.645052 1_555
O12 Zr3 2.062420 1_555
O13 Si7 1.645052 1_555
O13 Zr3 2.062420 1_555
O14 Si8 1.645052 1_555
O14 Zr3 2.062420 1_555
O15 Si9 1.646012 1_555
O16 Si10 1.646011 1_555
O17 Si11 1.646012 1_555
O18 Si11 1.643862 1_555
O19 Si9 1.643862 1_555
O20 Si10 1.643862 1_555
O21 Si7 1.645264 1_555
O21 Zr4 2.062195 1_555
O22 Si8 1.645264 1_555
O22 Zr4 2.062195 1_555
O23 Si6 1.645265 1_555
O23 Zr4 2.062196 1_555
O24 Si12 1.646152 1_555
O25 Si13 1.646152 1_555
O26 Si14 1.646152 1_555
O27 Si15 1.644189 1_555
O27 Zr5 2.060013 1_555
O28 Si16 1.644189 1_555
O28 Zr5 2.060013 1_555
O29 Si17 1.644189 1_555
O29 Zr5 2.060013 1_555
O30 Si17 1.643224 1_555
O31 Si15 1.643224 1_555
O32 Si16 1.643224 1_555
O33 Si13 1.644651 1_555
O34 Si14 1.644651 1_555
O35 Si12 1.644651 1_555
O36 Si17 1.645335 1_555
O36 Zr0 2.153861 1_565
O37 Si15 1.645345 1_555
O37 Zr0 2.153861 1_665
O38 Si16 1.645341 1_555
O38 Zr0 2.153861 1_555
O39 Si13 1.650329 1_555
O40 Si14 1.650320 1_555
O41 Si12 1.650326 1_555
O42 Si6 1.643583 1_555
O42 Zr1 2.158499 1_655
O43 Si7 1.643592 1_555
O43 Zr1 2.158499 1_555
O44 Si8 1.643588 1_555
O44 Zr1 2.158499 1_665
O45 Si9 1.649498 1_555
O45 Zr2 2.161475 1_665
O46 Si10 1.649489 1_555
O46 Zr2 2.161475 1_655
O47 Si11 1.649494 1_555
O47 Zr2 2.161475 1_555
O48 Si5 1.647031 1_545
O48 Zr3 2.161584 1_555
O49 Si3 1.647040 1_555
O49 Zr3 2.161584 1_555
O50 Si4 1.647036 1_655
O50 Zr3 2.161584 1_555
O51 Si1 1.646074 1_555
O52 Si2 1.646065 1_555
O53 Si0 1.646070 1_555
O54 Si12 1.649788 1_555
O55 Si13 1.649770 1_655
O56 Si14 1.649778 1_545
O57 Si15 1.645632 1_545
O57 Zr4 2.160386 1_555
O58 Si16 1.645650 1_555
O58 Zr4 2.160386 1_555
O59 Si17 1.645640 1_655
O59 Zr4 2.160386 1_555
O60 Si11 1.649593 1_555
O61 Si9 1.649575 1_455
O62 Si10 1.649582 1_565
O63 Si7 1.643326 1_565
O63 Zr5 2.156467 1_555
O64 Si8 1.643344 1_555
O64 Zr5 2.156467 1_555
O65 Si6 1.643334 1_455
O65 Zr5 2.156467 1_555
O66 Si0 1.646356 1_565
O67 Si1 1.646366 1_555
O68 Si2 1.646362 1_455
O69 Si3 1.646665 1_555
O70 Si4 1.646656 1_555
O71 Si5 1.646661 1_555
