# generated using pymatgen
data_MgMn6(O2F)4
_symmetry_space_group_name_H-M   'P 1'
_cell_length_a   5.17406470
_cell_length_b   5.12519257
_cell_length_c   8.88620026
_cell_angle_alpha   91.15208433
_cell_angle_beta   90.66011986
_cell_angle_gamma   81.70363294
_symmetry_Int_Tables_number   1
_chemical_formula_structural   MgMn6(O2F)4
_chemical_formula_sum   'Mg1 Mn6 O8 F4'
_cell_volume   233.12292644
_cell_formula_units_Z   1
loop_
 _symmetry_equiv_pos_site_id
 _symmetry_equiv_pos_as_xyz
  1  'x, y, z'
loop_
 _atom_site_type_symbol
 _atom_site_label
 _atom_site_symmetry_multiplicity
 _atom_site_fract_x
 _atom_site_fract_y
 _atom_site_fract_z
 _atom_site_occupancy
  Mg  Mg0  1  0.53922231  0.99305244  0.32682916  1
  Mn  Mn0  1  0.95106314  0.90052884  0.00481651  1
  Mn  Mn1  1  0.04651830  0.06743331  0.31748941  1
  Mn  Mn2  1  0.08629643  0.05225106  0.67353285  1
  Mn  Mn3  1  0.47430536  0.51519952  0.82802746  1
  Mn  Mn4  1  0.49754826  0.49149765  0.15580817  1
  Mn  Mn5  1  0.45183093  0.52017910  0.50929740  1
  O  O0  1  0.24598158  0.84676527  0.16840684  1
  O  O1  1  0.25885669  0.89238988  0.47264035  1
  O  O2  1  0.18713200  0.79747056  0.83938921  1
  O  O3  1  0.31902919  0.34821685  0.32544986  1
  O  O4  1  0.29800752  0.34810433  0.66737678  1
  O  O5  1  0.67640303  0.63828736  0.99541345  1
  O  O6  1  0.63547401  0.64855097  0.67079596  1
  O  O7  1  0.76673716  0.13298773  0.16987400  1
  F  F0  1  0.29625194  0.33572705  0.98170681  1
  F  F1  1  0.71978149  0.63897908  0.34463282  1
  F  F2  1  0.77995115  0.14975879  0.48133671  1
  F  F3  1  0.78350151  0.16873222  0.83146124  1
loop_
_geom_bond_atom_site_label_1
_geom_bond_atom_site_label_2
_geom_bond_distance
_geom_bond_site_symmetry_2
Mg0 O3 2.003415 1_565
Mg0 O7 2.041347 1_565
Mg0 O1 2.082192 1_555
Mg0 O0 2.254464 1_555
Mn0 O2 1.937993 1_654
Mn0 O7 2.028389 1_565
Mn0 O0 2.088365 1_655
Mn0 O5 2.092111 1_554
Mn1 O1 1.908690 1_545
Mn1 O0 1.932261 1_545
Mn1 O7 1.939772 1_455
Mn1 O3 2.154801 1_555
Mn2 O4 1.996532 1_555
Mn2 O2 2.003138 1_545
Mn2 O1 2.102875 1_545
Mn3 O6 1.828757 1_555
Mn3 O2 1.920448 1_555
Mn3 O4 1.936419 1_555
Mn3 O5 1.954641 1_555
Mn4 O5 1.930875 1_554
Mn4 O3 1.984246 1_555
Mn4 O0 2.081665 1_555
Mn4 O7 2.144377 1_555
Mn5 O6 1.872505 1_555
Mn5 O4 1.913796 1_555
Mn5 O3 2.002222 1_555
Mn5 O1 2.051825 1_555
F0 Mn3 1.970734 1_555
F0 Mn4 2.066111 1_556
F1 Mg0 1.926086 1_555
F1 Mn5 2.181758 1_555
F1 Mn4 2.205520 1_555
F2 Mn1 2.013411 1_655
F2 Mg0 2.070379 1_545
F2 Mn2 2.328600 1_655
F2 Mn5 2.368290 1_555
F3 Mn2 2.127775 1_655
F3 Mn0 2.173628 1_546
F3 Mn3 2.212394 1_555
