# generated using pymatgen
data_Fe2Ge
_symmetry_space_group_name_H-M   'P 1'
_cell_length_a   4.13286828
_cell_length_b   4.13286828
_cell_length_c   5.00875200
_cell_angle_alpha   90.00000000
_cell_angle_beta   90.00000000
_cell_angle_gamma   120.00000446
_symmetry_Int_Tables_number   1
_chemical_formula_structural   Fe2Ge
_chemical_formula_sum   'Fe4 Ge2'
_cell_volume   74.09062676
_cell_formula_units_Z   2
loop_
 _symmetry_equiv_pos_site_id
 _symmetry_equiv_pos_as_xyz
  1  'x, y, z'
loop_
 _atom_site_type_symbol
 _atom_site_label
 _atom_site_symmetry_multiplicity
 _atom_site_fract_x
 _atom_site_fract_y
 _atom_site_fract_z
 _atom_site_occupancy
  Fe  Fe0  1  0.00000000  0.00000000  0.00000000  1
  Fe  Fe1  1  0.00000000  0.00000000  0.50000000  1
  Fe  Fe2  1  0.33333300  0.66666700  0.25000000  1
  Fe  Fe3  1  0.66666700  0.33333300  0.75000000  1
  Ge  Ge0  1  0.33333300  0.66666700  0.75000000  1
  Ge  Ge1  1  0.66666700  0.33333300  0.25000000  1
loop_
_geom_bond_atom_site_label_1
_geom_bond_atom_site_label_2
_geom_bond_distance
_geom_bond_site_symmetry_2
Fe0 Fe1 2.504376 1_554
Fe0 Fe1 2.504376 1_555
Fe0 Fe2 2.694717 1_545
Fe0 Ge0 2.694717 1_544
Fe0 Ge1 2.694717 1_455
Fe0 Fe3 2.694717 1_454
Fe0 Ge1 2.694720 1_445
Fe0 Ge0 2.694720 1_554
Fe0 Fe3 2.694720 1_554
Fe0 Fe2 2.694720 1_445
Fe0 Ge1 2.694720 1_555
Fe0 Ge0 2.694720 1_444
Fe0 Fe3 2.694720 1_444
Fe0 Fe2 2.694720 1_555
Fe1 Fe2 2.694717 1_545
Fe1 Ge0 2.694717 1_545
Fe1 Fe3 2.694717 1_455
Fe1 Ge1 2.694717 1_455
Fe1 Ge1 2.694720 1_445
Fe1 Fe2 2.694720 1_445
Fe1 Ge0 2.694720 1_445
Fe1 Ge1 2.694720 1_555
Fe1 Fe3 2.694720 1_555
Fe1 Ge0 2.694720 1_555
Fe1 Fe3 2.694720 1_445
Fe1 Fe2 2.694720 1_555
Fe2 Ge1 2.386110 1_455
Fe2 Ge1 2.386110 1_565
Fe2 Ge1 2.386117 1_555
Fe2 Ge0 2.504376 1_554
Fe2 Ge0 2.504376 1_555
Fe3 Ge0 2.386110 1_545
Fe3 Ge0 2.386110 1_655
Fe3 Ge0 2.386117 1_555
Fe3 Ge1 2.504376 1_555
Fe3 Ge1 2.504376 1_556
