# generated using pymatgen
data_MgFe4(CoO4)2
_symmetry_space_group_name_H-M   'P 1'
_cell_length_a   6.13895012
_cell_length_b   6.63878047
_cell_length_c   6.13895116
_cell_angle_alpha   57.14045679
_cell_angle_beta   59.01612316
_cell_angle_gamma   57.14046042
_symmetry_Int_Tables_number   1
_chemical_formula_structural   MgFe4(CoO4)2
_chemical_formula_sum   'Mg1 Fe4 Co2 O8'
_cell_volume   167.70487273
_cell_formula_units_Z   1
loop_
 _symmetry_equiv_pos_site_id
 _symmetry_equiv_pos_as_xyz
  1  'x, y, z'
loop_
 _atom_site_type_symbol
 _atom_site_label
 _atom_site_symmetry_multiplicity
 _atom_site_fract_x
 _atom_site_fract_y
 _atom_site_fract_z
 _atom_site_occupancy
  Mg  Mg0  1  0.05233201  0.44378303  0.05233201  1
  Fe  Fe0  1  0.92067324  0.07570821  0.92067324  1
  Fe  Fe1  1  0.37996320  0.11823288  0.37996320  1
  Fe  Fe2  1  0.08295478  0.69253941  0.53309932  1
  Fe  Fe3  1  0.53309932  0.69253941  0.08295478  1
  Co  Co0  1  0.62756632  0.15592298  0.62756632  1
  Co  Co1  1  0.63102989  0.59122419  0.63102989  1
  O  O0  1  0.38574560  0.41125495  0.38574560  1
  O  O1  1  0.45881330  0.29170728  0.94551638  1
  O  O2  1  0.39385236  0.80474948  0.39385236  1
  O  O3  1  0.94551638  0.29170728  0.45881330  1
  O  O4  1  0.33139394  0.93577174  0.79290744  1
  O  O5  1  0.86908300  0.42417115  0.86908300  1
  O  O6  1  0.79290744  0.93577174  0.33139394  1
  O  O7  1  0.87111122  0.82762428  0.87111122  1
loop_
_geom_bond_atom_site_label_1
_geom_bond_atom_site_label_2
_geom_bond_distance
_geom_bond_site_symmetry_2
Mg0 O1 1.993979 1_554
Mg0 O3 1.993979 1_455
Mg0 O7 2.022481 1_454
Mg0 O5 2.041781 1_454
Fe0 O4 2.012051 1_645
Fe0 O6 2.012051 1_546
Fe0 O5 2.016292 1_555
Fe0 O7 2.020037 1_545
Fe0 O1 2.344935 1_555
Fe0 O3 2.344935 1_555
Fe1 O0 1.984418 1_555
Fe1 O2 1.992004 1_545
Fe1 O6 2.064966 1_545
Fe1 O4 2.064967 1_545
Fe1 O3 2.148580 1_455
Fe1 O1 2.148581 1_554
Fe2 O0 2.023793 1_555
Fe2 O2 2.024944 1_555
Fe2 O6 2.071580 1_455
Fe2 O7 2.185554 1_455
Fe2 O5 2.216933 1_455
Fe3 O0 2.023793 1_555
Fe3 O2 2.024944 1_555
Fe3 O4 2.071580 1_554
Fe3 O7 2.185554 1_554
Fe3 O5 2.216933 1_554
Co0 O0 2.022024 1_555
Co0 O7 2.109557 1_545
Co0 O3 2.123604 1_555
Co0 O1 2.123604 1_555
Co0 O4 2.417824 1_545
Co0 O6 2.417824 1_545
Co1 O2 1.988131 1_555
Co1 O5 2.045158 1_555
Co1 O1 2.193805 1_555
Co1 O3 2.193805 1_555
Co1 O6 2.371075 1_555
Co1 O4 2.371076 1_555
