# generated using pymatgen
data_MgTe4Mo3S2
_symmetry_space_group_name_H-M   'P 1'
_cell_length_a   3.42384200
_cell_length_b   3.42428116
_cell_length_c   37.23358357
_cell_angle_alpha   89.92090903
_cell_angle_beta   90.00000000
_cell_angle_gamma   119.99575761
_symmetry_Int_Tables_number   1
_chemical_formula_structural   MgTe4Mo3S2
_chemical_formula_sum   'Mg1 Te4 Mo3 S2'
_cell_volume   378.06512156
_cell_formula_units_Z   1
loop_
 _symmetry_equiv_pos_site_id
 _symmetry_equiv_pos_as_xyz
  1  'x, y, z'
loop_
 _atom_site_type_symbol
 _atom_site_label
 _atom_site_symmetry_multiplicity
 _atom_site_fract_x
 _atom_site_fract_y
 _atom_site_fract_z
 _atom_site_occupancy
  Mg  Mg0  1  0.99838900  0.99677800  0.24374400  1
  Te  Te0  1  0.66684800  0.33369400  0.05971100  1
  Te  Te1  1  0.66686700  0.33373400  0.52815200  1
  Te  Te2  1  0.66656000  0.33312000  0.16008100  1
  Te  Te3  1  0.66634000  0.33267700  0.62822600  1
  Mo  Mo0  1  0.33346000  0.66692000  0.10965600  1
  Mo  Mo1  1  0.33335800  0.66671700  0.57821200  1
  Mo  Mo2  1  0.66705200  0.33410500  0.35384400  1
  S  S0  1  0.33284400  0.66569000  0.39362900  1
  S  S1  1  0.33488100  0.66976400  0.31341900  1
loop_
_geom_bond_atom_site_label_1
_geom_bond_atom_site_label_2
_geom_bond_distance
_geom_bond_site_symmetry_2
Mo0 Te0 2.712318 1_565
Mo0 Te0 2.715022 1_455
Mo0 Te0 2.715026 1_555
Mo0 Te2 2.725753 1_555
Mo0 Te2 2.725753 1_455
Mo0 Te2 2.727687 1_565
Mo1 Te3 2.715499 1_455
Mo1 Te3 2.715507 1_555
Mo1 Te1 2.715774 1_565
Mo1 Te3 2.716640 1_565
Mo1 Te1 2.717698 1_455
Mo1 Te1 2.717700 1_555
Mo2 S0 2.469145 1_655
Mo2 S0 2.469147 1_555
Mo2 S0 2.472738 1_545
Mo2 S1 2.481262 1_545
Mo2 S1 2.486429 1_655
Mo2 S1 2.486432 1_555
