# generated using pymatgen
data_Na10Hf4Mg4Si5S7O48
_symmetry_space_group_name_H-M   'P 1'
_cell_length_a   18.00579146
_cell_length_b   9.05323276
_cell_length_c   22.60047561
_cell_angle_alpha   89.96130993
_cell_angle_beta   89.53483256
_cell_angle_gamma   120.15439033
_symmetry_Int_Tables_number   1
_chemical_formula_structural   Na10Hf4Mg4Si5S7O48
_chemical_formula_sum   'Na30 Hf12 Mg12 Si15 S21 O144'
_cell_volume   3185.41105438
_cell_formula_units_Z   3
loop_
 _symmetry_equiv_pos_site_id
 _symmetry_equiv_pos_as_xyz
  1  'x, y, z'
loop_
 _atom_site_type_symbol
 _atom_site_label
 _atom_site_symmetry_multiplicity
 _atom_site_fract_x
 _atom_site_fract_y
 _atom_site_fract_z
 _atom_site_occupancy
  Na  Na0  1  0.32608051  0.02573965  0.25177518  1
  Na  Na1  1  0.67319898  0.34217107  0.25366535  1
  Na  Na2  1  0.99809434  0.63593108  0.23768001  1
  Na  Na3  1  0.49926926  0.62819531  0.23607290  1
  Na  Na4  1  0.32285284  0.62136929  0.75504079  1
  Na  Na5  1  0.82255181  0.62136154  0.75353889  1
  Na  Na6  1  0.99744759  0.36831263  0.73616527  1
  Na  Na7  1  0.49789999  0.36908956  0.73626803  1
  Na  Na8  1  0.17319318  0.00648132  0.75178811  1
  Na  Na9  1  0.67433601  0.00705314  0.75076324  1
  Na  Na10  1  0.33400404  0.97066345  0.57024149  1
  Na  Na11  1  0.83394837  0.97169393  0.56914357  1
  Na  Na12  1  0.33469077  0.69763427  0.06983718  1
  Na  Na13  1  0.83280859  0.69657721  0.06898518  1
  Na  Na14  1  0.48230585  0.67997727  0.90845907  1
  Na  Na15  1  0.98231384  0.68009417  0.90710991  1
  Na  Na16  1  0.48396298  0.28730196  0.40591680  1
  Na  Na17  1  0.16571678  0.02836834  0.40476291  1
  Na  Na18  1  0.98595297  0.00838368  0.49292323  1
  Na  Na19  1  0.49997863  0.99820330  0.49315273  1
  Na  Na20  1  0.99638566  0.00261633  0.99159484  1
  Na  Na21  1  0.49521404  0.99689602  0.99421970  1
  Na  Na22  1  0.32467568  0.34380204  0.82823363  1
  Na  Na23  1  0.82485500  0.34365436  0.82729779  1
  Na  Na24  1  0.32725213  0.32603493  0.32192664  1
  Na  Na25  1  0.81743063  0.27619932  0.33029905  1
  Na  Na26  1  0.15256867  0.66352285  0.15615079  1
  Na  Na27  1  0.64965273  0.67256371  0.15927293  1
  Na  Na28  1  0.14548079  0.63080881  0.65823593  1
  Na  Na29  1  0.64801535  0.63373928  0.65683415  1
  Hf  Hf0  1  0.00610145  0.00875604  0.64753986  1
  Hf  Hf1  1  0.50718798  0.01043756  0.64779758  1
  Hf  Hf2  1  0.00408267  0.99553320  0.14683736  1
  Hf  Hf3  1  0.50679320  0.00383563  0.14830826  1
  Hf  Hf4  1  0.33474066  0.34424280  0.98112446  1
  Hf  Hf5  1  0.83492243  0.34315459  0.98069385  1
  Hf  Hf6  1  0.33824885  0.33404119  0.48123724  1
  Hf  Hf7  1  0.83724419  0.32490812  0.47990451  1
  Hf  Hf8  1  0.16862954  0.67314984  0.31602506  1
  Hf  Hf9  1  0.67109420  0.68369586  0.31347432  1
  Hf  Hf10  1  0.16798694  0.65843616  0.81534125  1
  Hf  Hf11  1  0.66794168  0.65884123  0.81551686  1
  Mg  Mg0  1  0.99737293  0.00377113  0.35272493  1
  Mg  Mg1  1  0.50062301  0.00511628  0.35094698  1
  Mg  Mg2  1  0.99895680  0.99493364  0.85107829  1
  Mg  Mg3  1  0.49912895  0.99485607  0.85154468  1
  Mg  Mg4  1  0.33917441  0.34547029  0.68458924  1
  Mg  Mg5  1  0.83908407  0.34545109  0.68443235  1
  Mg  Mg6  1  0.33668417  0.33279015  0.18545627  1
  Mg  Mg7  1  0.83455114  0.32500153  0.18439142  1
  Mg  Mg8  1  0.16550094  0.66827470  0.01846093  1
  Mg  Mg9  1  0.66448558  0.66735250  0.01883616  1
  Mg  Mg10  1  0.16308491  0.65534944  0.51891529  1
  Mg  Mg11  1  0.66724212  0.66343465  0.51811239  1
  Si  Si0  1  0.14778243  0.00555624  0.25541162  1
  Si  Si1  1  0.65036917  0.00974720  0.25219931  1
  Si  Si2  1  0.49938107  0.29544688  0.25399578  1
  Si  Si3  1  0.14727190  0.28912941  0.75226130  1
  Si  Si4  1  0.64745995  0.28975837  0.75254412  1
  Si  Si5  1  0.99917753  0.70429790  0.75408155  1
  Si  Si6  1  0.49922830  0.70442167  0.75412755  1
  Si  Si7  1  0.48546526  0.33679294  0.58563381  1
  Si  Si8  1  0.98413863  0.33600103  0.58671033  1
  Si  Si9  1  0.48443996  0.63274426  0.08617465  1
  Si  Si10  1  0.98379582  0.62495840  0.08708964  1
  Si  Si11  1  0.31700804  0.67748999  0.92185247  1
  Si  Si12  1  0.81705506  0.67810701  0.92194947  1
  Si  Si13  1  0.31618519  0.95612905  0.42267987  1
  Si  Si14  1  0.81794446  0.95833346  0.42180221  1
  S  S0  1  0.35324371  0.70855600  0.25100869  1
  S  S1  1  0.85545584  0.71169249  0.25072056  1
  S  S2  1  0.99978613  0.29036292  0.25125968  1
  S  S3  1  0.35416361  -0.00151564  0.75057874  1
  S  S4  1  0.85425213  -0.00152623  0.75102879  1
  S  S5  1  0.18744037  0.04223742  0.58459536  1
  S  S6  1  0.68793698  0.04253729  0.58530755  1
  S  S7  1  0.33234861  0.62689529  0.58548687  1
  S  S8  1  0.83258092  0.62587326  0.58506674  1
  S  S9  1  0.33232466  0.03919693  0.08529082  1
  S  S10  1  0.83315643  0.04045325  0.08463992  1
  S  S11  1  0.18807333  0.33291440  0.08602451  1
  S  S12  1  0.68716821  0.33354467  0.08519639  1
  S  S13  1  0.02060393  0.37006240  0.91864379  1
  S  S14  1  0.52021304  0.36948306  0.91856477  1
  S  S15  1  0.16850256  0.96097337  0.91756628  1
  S  S16  1  0.66878314  0.96120400  0.91755674  1
  S  S17  1  0.16635176  0.37388127  0.41855685  1
  S  S18  1  0.66907841  0.37666582  0.41724098  1
  S  S19  1  0.01992485  0.66539494  0.41820062  1
  S  S20  1  0.52220467  0.67247863  0.41766352  1
  O  O0  1  0.10283621  0.01728100  0.31524711  1
  O  O1  1  0.60228148  0.03505479  0.30750400  1
  O  O2  1  0.40628936  0.79089977  0.30236921  1
  O  O3  1  0.91007077  0.79903335  0.30061212  1
  O  O4  1  0.48123307  0.18126043  0.31280093  1
  O  O5  1  0.99044837  0.19005087  0.30369785  1
  O  O6  1  0.10058329  0.16952668  0.80792529  1
  O  O7  1  0.60025391  0.16922992  0.80786112  1
  O  O8  1  0.48189685  0.78204188  0.81311653  1
  O  O9  1  0.98254708  0.78261835  0.81317542  1
  O  O10  1  0.40808826  0.02659468  0.80169111  1
  O  O11  1  0.90806408  0.02632000  0.80219030  1
  O  O12  1  0.39122760  0.96764842  0.69535941  1
  O  O13  1  0.89147954  0.96781139  0.69594525  1
  O  O14  1  0.08408868  0.20886014  0.69307271  1
  O  O15  1  0.58425145  0.21026414  0.69314170  1
  O  O16  1  0.01496754  0.83415618  0.69700506  1
  O  O17  1  0.51451021  0.83430452  0.69707310  1
  O  O18  1  0.39043019  0.81556244  0.19603433  1
  O  O19  1  0.89154156  0.81368876  0.19425766  1
  O  O20  1  0.00986711  0.20947083  0.19638340  1
  O  O21  1  0.51313434  0.19343127  0.19712508  1
  O  O22  1  0.08048916  0.96598934  0.19845726  1
  O  O23  1  0.58706128  0.96673058  0.19257808  1
  O  O24  1  0.43699608  0.34402101  0.64474522  1
  O  O25  1  0.93861606  0.34424591  0.64718957  1
  O  O26  1  0.23830009  0.12903164  0.63700552  1
  O  O27  1  0.73661816  0.12563258  0.63896857  1
  O  O28  1  0.32308631  0.52995649  0.63980031  1
  O  O29  1  0.82404241  0.53051219  0.63988388  1
  O  O30  1  0.43594848  0.52913601  0.14517657  1
  O  O31  1  0.93702539  0.52164031  0.14682232  1
  O  O32  1  0.32340148  0.11731797  0.13967258  1
  O  O33  1  0.82309459  0.12165338  0.13730662  1
  O  O34  1  0.23958565  0.34790738  0.13726207  1
  O  O35  1  0.73721330  0.35031402  0.13824492  1
  O  O36  1  0.22617956  0.30457052  0.03066934  1
  O  O37  1  0.73012503  0.30942977  0.03159118  1
  O  O38  1  0.41849845  0.53101196  0.02786659  1
  O  O39  1  0.91830815  0.52889030  0.02923113  1
  O  O40  1  0.33962093  0.14336088  0.03190231  1
  O  O41  1  0.84312977  0.14234585  0.03000906  1
  O  O42  1  0.22946376  0.14887493  0.52978724  1
  O  O43  1  0.73044148  0.15051938  0.53192088  1
  O  O44  1  0.34035994  0.53675497  0.53223868  1
  O  O45  1  0.84094482  0.53819539  0.53204013  1
  O  O46  1  0.41988755  0.30764512  0.52706908  1
  O  O47  1  0.91712299  0.30623626  0.53046485  1
  O  O48  1  0.26778926  0.68139716  0.98076170  1
  O  O49  1  0.76792268  0.68236538  0.98079449  1
  O  O50  1  0.07233678  0.45875723  0.97012446  1
  O  O51  1  0.57205857  0.45826518  0.96976460  1
  O  O52  1  0.15599433  0.84723277  0.96749345  1
  O  O53  1  0.65671788  0.84777368  0.96731026  1
  O  O54  1  0.26529757  0.85149060  0.48055393  1
  O  O55  1  0.77286715  0.85811768  0.48232433  1
  O  O56  1  0.15685436  0.45641291  0.47042453  1
  O  O57  1  0.65619542  0.46514519  0.46687860  1
  O  O58  1  0.07411293  0.68325407  0.46802717  1
  O  O59  1  0.57307183  0.68743599  0.46926066  1
  O  O60  1  0.05773035  0.63535434  0.36186068  1
  O  O61  1  0.55890580  0.63613354  0.36277678  1
  O  O62  1  0.25315530  0.86381845  0.36259975  1
  O  O63  1  0.75413859  0.85658256  0.36484082  1
  O  O64  1  0.17599310  0.47542284  0.36333009  1
  O  O65  1  0.67877265  0.47202489  0.36035909  1
  O  O66  1  0.05878143  0.48129817  0.86363750  1
  O  O67  1  0.55821974  0.48105799  0.86341506  1
  O  O68  1  0.17857137  0.88355282  0.86094657  1
  O  O69  1  0.67951519  0.88524724  0.86084877  1
  O  O70  1  0.25896088  0.65361091  0.86133761  1
  O  O71  1  0.75874453  0.65391487  0.86166569  1
  O  O72  1  0.01333444  0.81991785  0.41209500  1
  O  O73  1  0.50930359  0.81755516  0.41048182  1
  O  O74  1  0.41244240  0.98949639  0.41597203  1
  O  O75  1  0.91245619  0.98520478  0.41145928  1
  O  O76  1  0.09323079  0.19785623  0.41355700  1
  O  O77  1  0.59330992  0.20278101  0.41415593  1
  O  O78  1  0.00912791  0.20120608  0.91139955  1
  O  O79  1  0.50890532  0.20061415  0.91106685  1
  O  O80  1  0.09313300  0.98324443  0.91401255  1
  O  O81  1  0.59341355  0.98335543  0.91398309  1
  O  O82  1  0.41345161  0.83935668  0.91617931  1
  O  O83  1  0.91356374  0.83990733  0.91608448  1
  O  O84  1  0.48434994  0.14915351  0.58580279  1
  O  O85  1  0.98397653  0.14910219  0.58641345  1
  O  O86  1  0.10018917  0.02328103  0.58629652  1
  O  O87  1  0.60003835  0.02294961  0.58670912  1
  O  O88  1  0.41263913  0.79967564  0.58644141  1
  O  O89  1  0.91249234  0.80078493  0.58685147  1
  O  O90  1  0.48413340  0.81921019  0.08615941  1
  O  O91  1  0.98513325  0.81566020  0.08897430  1
  O  O92  1  0.41239810  0.02572730  0.08630416  1
  O  O93  1  0.91427575  0.02811795  0.08790589  1
  O  O94  1  0.09903770  0.17925319  0.08999823  1
  O  O95  1  0.59986530  0.17808739  0.08663626  1
  O  O96  1  0.33855562  0.14246377  0.74356083  1
  O  O97  1  0.83846812  0.14224453  0.74429838  1
  O  O98  1  0.24220876  0.31294773  0.74209429  1
  O  O99  1  0.74226624  0.31356431  0.74234943  1
  O  O100  1  0.41946789  0.51176337  0.74523655  1
  O  O101  1  0.91909984  0.51214924  0.74553713  1
  O  O102  1  0.34013745  0.53634924  0.24417571  1
  O  O103  1  0.84605444  0.54018894  0.24497802  1
  O  O104  1  0.42042341  0.33078664  0.24484789  1
  O  O105  1  0.92587132  0.31905967  0.24655231  1
  O  O106  1  0.24399521  0.16026781  0.24434882  1
  O  O107  1  0.74353653  0.17959332  0.24238644  1
  O  O108  1  0.32600262  0.49672117  0.92191906  1
  O  O109  1  0.82696010  0.49800054  0.92229780  1
  O  O110  1  0.43266717  0.35584580  0.92273003  1
  O  O111  1  0.93332069  0.35742136  0.92265031  1
  O  O112  1  0.24870173  0.13071287  0.92279137  1
  O  O113  1  0.74891451  0.13172704  0.92300759  1
  O  O114  1  0.32060314  0.15138029  0.42262849  1
  O  O115  1  0.82355537  0.15213690  0.42259489  1
  O  O116  1  0.24730088  0.36146536  0.42109026  1
  O  O117  1  0.74893300  0.36617284  0.42322743  1
  O  O118  1  0.43372644  0.50969134  0.42204757  1
  O  O119  1  0.93191945  0.51315192  0.42254421  1
  O  O120  1  0.18061867  0.48713287  0.08027059  1
  O  O121  1  0.67943334  0.48677078  0.07894376  1
  O  O122  1  0.07793403  0.65308421  0.07627756  1
  O  O123  1  0.57827429  0.65742045  0.07594536  1
  O  O124  1  0.25809759  0.86312043  0.08072840  1
  O  O125  1  0.76038842  0.86393351  0.08005317  1
  O  O126  1  0.18001294  0.87354298  0.57944606  1
  O  O127  1  0.67982042  0.87304239  0.57990957  1
  O  O128  1  0.25855875  0.65432145  0.58018540  1
  O  O129  1  0.75827733  0.65299701  0.58086483  1
  O  O130  1  0.07754165  0.49888580  0.57601390  1
  O  O131  1  0.57871531  0.49968276  0.57508102  1
  O  O132  1  0.15217415  0.81964029  0.25731935  1
  O  O133  1  0.65655742  0.83194549  0.25629226  1
  O  O134  1  0.26604223  0.69587370  0.25667421  1
  O  O135  1  0.76696451  0.68641604  0.25561258  1
  O  O136  1  0.08011231  0.46648681  0.25425497  1
  O  O137  1  0.59074821  0.48262488  0.25702606  1
  O  O138  1  0.15859774  0.48468329  0.75721769  1
  O  O139  1  0.65879435  0.48517913  0.75752916  1
  O  O140  1  0.09036589  0.69716997  0.75720238  1
  O  O141  1  0.59052915  0.69804461  0.75721477  1
  O  O142  1  0.26739929  0.83869559  0.75633013  1
  O  O143  1  0.76754431  0.83844766  0.75658624  1
loop_
_geom_bond_atom_site_label_1
_geom_bond_atom_site_label_2
_geom_bond_distance
_geom_bond_site_symmetry_2
Na0 O106 2.346964 1_555
Na0 O104 2.412232 1_555
Na0 O134 2.617900 1_545
Na0 O32 2.673577 1_555
Na0 O132 2.725027 1_545
Na0 O4 2.793300 1_555
Na0 O62 2.855580 1_545
Na0 O18 2.957131 1_545
Na1 O107 2.388169 1_555
Na1 O137 2.391966 1_555
Na1 O65 2.663801 1_555
Na1 O1 2.691649 1_555
Na1 O135 2.698198 1_555
Na1 O103 2.706166 1_555
Na1 O21 2.813477 1_555
Na1 O35 2.829153 1_555
Na2 O31 2.322230 1_555
Na2 O103 2.425176 1_555
Na2 O132 2.458726 1_655
Na2 O105 2.491558 1_555
Na2 O136 2.637931 1_655
Na2 O22 2.727056 1_655
Na3 O30 2.310324 1_555
Na3 O104 2.336410 1_555
Na3 O133 2.530977 1_555
Na3 O102 2.555877 1_555
Na3 O137 2.620471 1_555
Na3 O23 2.821642 1_555
Na4 O100 2.405899 1_555
Na4 O98 2.434168 1_555
Na4 O138 2.569327 1_555
Na4 O142 2.615758 1_555
Na4 O70 2.733760 1_555
Na4 O28 2.733954 1_555
Na4 O8 2.813912 1_555
Na5 O101 2.398827 1_555
Na5 O99 2.424557 1_555
Na5 O139 2.562341 1_555
Na5 O143 2.608254 1_555
Na5 O29 2.701686 1_555
Na5 O71 2.770224 1_555
Na5 O9 2.843854 1_555
Na6 O25 2.239776 1_555
Na6 O101 2.360458 1_555
Na6 O97 2.553771 1_555
Na6 O138 2.589918 1_655
Na6 O140 2.626702 1_655
Na6 O14 2.775941 1_655
Na7 O24 2.306520 1_555
Na7 O100 2.352063 1_555
Na7 O96 2.558579 1_555
Na7 O139 2.587005 1_555
Na7 O141 2.626687 1_555
Na7 O15 2.767374 1_555
Na8 O98 2.412678 1_555
Na8 O140 2.425184 1_545
Na8 O96 2.592994 1_555
Na8 O6 2.722540 1_555
Na8 O68 2.728117 1_545
Na8 O16 2.770921 1_545
Na8 O142 2.790420 1_545
Na8 O26 2.823973 1_555
Na9 O99 2.412046 1_555
Na9 O141 2.424710 1_545
Na9 O97 2.571398 1_555
Na9 O69 2.741929 1_545
Na9 O27 2.744937 1_555
Na9 O7 2.746350 1_555
Na9 O17 2.781647 1_545
Na9 O143 2.782264 1_545
Na10 O54 2.346456 1_555
Na10 O84 2.384246 1_565
Na10 O126 2.458757 1_555
Na10 O128 2.486656 1_555
Na10 O88 2.597060 1_555
Na10 O46 2.807554 1_565
Na11 O55 2.240209 1_555
Na11 O85 2.385035 1_565
Na11 O127 2.461134 1_555
Na11 O129 2.508946 1_555
Na11 O89 2.600216 1_555
Na11 O47 2.756477 1_565
Na12 O48 2.321065 1_554
Na12 O90 2.372610 1_555
Na12 O120 2.461866 1_555
Na12 O124 2.505578 1_555
Na12 O92 2.598747 1_565
Na12 O38 2.778132 1_555
Na13 O49 2.289393 1_554
Na13 O91 2.437006 1_555
Na13 O121 2.450404 1_555
Na13 O125 2.457362 1_555
Na13 O93 2.632909 1_565
Na13 O39 2.794512 1_555
Na14 O82 2.333127 1_555
Na14 O8 2.345500 1_555
Na14 O81 2.458792 1_555
Na14 O108 2.461728 1_555
Na14 O110 2.621613 1_555
Na15 O9 2.315552 1_555
Na15 O83 2.337207 1_555
Na15 O109 2.451722 1_555
Na15 O80 2.458029 1_655
Na15 O111 2.615288 1_555
Na16 O4 2.304304 1_555
Na16 O74 2.342058 1_545
Na16 O77 2.452757 1_555
Na16 O114 2.579490 1_555
Na16 O118 2.613419 1_555
Na17 O0 2.303955 1_555
Na17 O72 2.430472 1_545
Na17 O114 2.465672 1_555
Na17 O76 2.470950 1_555
Na17 O116 2.635853 1_555
Na17 O62 2.817781 1_545
Na18 O75 2.223997 1_545
Na18 O85 2.477225 1_555
Na18 O76 2.549845 1_655
Na18 O89 2.690671 1_545
Na18 O72 2.706665 1_645
Na18 O86 2.914537 1_655
Na19 O74 2.335198 1_555
Na19 O77 2.502342 1_565
Na19 O73 2.543369 1_555
Na19 O84 2.590748 1_565
Na19 O88 2.692594 1_555
Na19 O87 2.724683 1_565
Na20 O83 2.268016 1_545
Na20 O78 2.478794 1_655
Na20 O80 2.529332 1_645
Na20 O93 2.695996 1_556
Na20 O91 2.718938 1_546
Na20 O94 2.832244 1_656
Na21 O82 2.290939 1_555
Na21 O79 2.554409 1_565
Na21 O81 2.568226 1_555
Na21 O90 2.571265 1_556
Na21 O92 2.638992 1_566
Na21 O95 2.750840 1_566
Na22 O98 2.388275 1_555
Na22 O100 2.465892 1_555
Na22 O108 2.524248 1_555
Na22 O112 2.730489 1_555
Na22 O96 2.738900 1_555
Na22 O110 2.865076 1_555
Na23 O99 2.368880 1_555
Na23 O101 2.442473 1_555
Na23 O109 2.552634 1_555
Na23 O97 2.711054 1_555
Na23 O113 2.745986 1_555
Na23 O111 2.880627 1_555
Na24 O106 2.315068 1_555
Na24 O104 2.393915 1_555
Na24 O102 2.512363 1_555
Na24 O114 2.737661 1_555
Na24 O116 2.758718 1_555
Na24 O118 2.903999 1_555
Na25 O107 2.314956 1_555
Na25 O115 2.397870 1_555
Na25 O105 2.592924 1_555
Na25 O117 2.750485 1_555
Na25 O103 2.904477 1_555
Na25 O119 2.971659 1_555
Na26 O122 2.232836 1_555
Na26 O124 2.505006 1_555
Na26 O120 2.558532 1_555
Na26 O132 2.690675 1_555
Na26 O136 2.722068 1_555
Na26 O134 2.982761 1_555
Na27 O123 2.253848 1_555
Na27 O125 2.578765 1_555
Na27 O133 2.594958 1_555
Na27 O137 2.662176 1_555
Na27 O121 2.703178 1_555
Na28 O130 2.224427 1_555
Na28 O128 2.609256 1_555
Na28 O140 2.629318 1_555
Na28 O126 2.643971 1_555
Na28 O138 2.669958 1_555
Na29 O131 2.227735 1_555
Na29 O129 2.552727 1_555
Na29 O127 2.603134 1_555
Na29 O141 2.669486 1_555
Na29 O139 2.700168 1_555
Hf0 O14 1.944971 1_555
Hf0 O16 2.006961 1_545
Hf0 O85 2.048584 1_455
Hf0 O86 2.130968 1_555
Hf0 O13 2.188129 1_445
Hf0 O89 2.262718 1_445
Hf1 O15 1.937009 1_555
Hf1 O17 2.002864 1_545
Hf1 O84 2.057941 1_555
Hf1 O87 2.118037 1_555
Hf1 O12 2.194419 1_545
Hf1 O88 2.289167 1_545
Hf2 O22 1.928889 1_555
Hf2 O91 1.982494 1_455
Hf2 O94 2.108143 1_565
Hf2 O19 2.139130 1_455
Hf2 O20 2.195034 1_565
Hf2 O93 2.233707 1_465
Hf3 O23 1.927054 1_545
Hf3 O21 1.996044 1_555
Hf3 O90 2.064086 1_545
Hf3 O95 2.131399 1_555
Hf3 O18 2.198073 1_545
Hf3 O92 2.295332 1_555
Hf4 O38 1.927638 1_556
Hf4 O108 1.984912 1_555
Hf4 O36 2.112428 1_556
Hf4 O110 2.153539 1_555
Hf4 O40 2.188951 1_556
Hf4 O112 2.214254 1_555
Hf5 O39 1.943678 1_556
Hf5 O109 1.982439 1_555
Hf5 O37 2.088662 1_556
Hf5 O111 2.146792 1_555
Hf5 O113 2.195422 1_555
Hf5 O41 2.199753 1_556
Hf6 O46 1.915241 1_555
Hf6 O114 2.017928 1_555
Hf6 O118 2.118240 1_555
Hf6 O42 2.124759 1_555
Hf6 O44 2.152106 1_555
Hf6 O116 2.243956 1_555
Hf7 O47 1.916677 1_555
Hf7 O115 1.950765 1_555
Hf7 O43 2.117377 1_555
Hf7 O119 2.129164 1_555
Hf7 O117 2.222168 1_555
Hf7 O45 2.235267 1_555
Hf8 O62 1.947576 1_555
Hf8 O132 2.001437 1_555
Hf8 O60 2.111160 1_555
Hf8 O134 2.125313 1_555
Hf8 O64 2.145483 1_555
Hf8 O136 2.243537 1_555
Hf9 O63 1.926838 1_555
Hf9 O133 1.973849 1_555
Hf9 O137 2.102729 1_555
Hf9 O61 2.143941 1_555
Hf9 O135 2.147353 1_555
Hf9 O65 2.253874 1_555
Hf10 O70 1.966027 1_555
Hf10 O138 1.991936 1_555
Hf10 O140 2.079524 1_555
Hf10 O66 2.103417 1_555
Hf10 O142 2.160906 1_555
Hf10 O68 2.206366 1_555
Hf11 O71 1.965666 1_555
Hf11 O139 1.990634 1_555
Hf11 O141 2.081171 1_555
Hf11 O67 2.105657 1_555
Hf11 O143 2.159331 1_555
Hf11 O69 2.207157 1_555
Mg0 O75 1.958742 1_545
Mg0 O0 2.019606 1_655
Mg0 O5 2.073238 1_555
Mg0 O3 2.097506 1_545
Mg0 O76 2.225203 1_655
Mg0 O72 2.266560 1_645
Mg1 O1 1.964687 1_555
Mg1 O4 1.992612 1_555
Mg1 O74 2.106409 1_545
Mg1 O2 2.138974 1_545
Mg1 O73 2.232741 1_545
Mg1 O77 2.251677 1_555
Mg2 O6 1.964963 1_665
Mg2 O9 1.987832 1_555
Mg2 O83 2.069994 1_555
Mg2 O11 2.115682 1_565
Mg2 O78 2.245729 1_665
Mg2 O80 2.264722 1_655
Mg3 O7 1.965480 1_565
Mg3 O8 1.992137 1_555
Mg3 O82 2.067443 1_555
Mg3 O10 2.131194 1_565
Mg3 O79 2.233463 1_565
Mg3 O81 2.258431 1_555
Mg4 O24 1.977604 1_555
Mg4 O100 2.020803 1_555
Mg4 O98 2.066459 1_555
Mg4 O28 2.094440 1_555
Mg4 O26 2.180367 1_555
Mg4 O96 2.264966 1_555
Mg5 O25 1.978777 1_555
Mg5 O101 2.027592 1_555
Mg5 O99 2.071852 1_555
Mg5 O29 2.086151 1_555
Mg5 O27 2.182858 1_555
Mg5 O97 2.278385 1_555
Mg6 O30 1.990601 1_555
Mg6 O104 2.033662 1_555
Mg6 O106 2.082949 1_555
Mg6 O32 2.114522 1_555
Mg6 O34 2.129062 1_555
Mg6 O102 2.247378 1_555
Mg7 O107 1.982917 1_555
Mg7 O31 1.991754 1_555
Mg7 O33 2.046644 1_555
Mg7 O35 2.155192 1_555
Mg7 O105 2.192375 1_555
Mg7 O103 2.305627 1_555
Mg8 O48 1.971490 1_554
Mg8 O122 1.990179 1_555
Mg8 O52 2.064058 1_554
Mg8 O50 2.107392 1_554
Mg8 O124 2.226782 1_555
Mg8 O120 2.272971 1_555
Mg9 O123 1.977550 1_555
Mg9 O49 1.986446 1_554
Mg9 O53 2.067176 1_554
Mg9 O51 2.109648 1_554
Mg9 O125 2.240075 1_555
Mg9 O121 2.244011 1_555
Mg10 O130 1.953837 1_555
Mg10 O54 1.995163 1_555
Mg10 O56 2.063723 1_555
Mg10 O58 2.095019 1_555
Mg10 O128 2.219803 1_555
Mg10 O126 2.296072 1_555
Mg11 O55 1.995780 1_555
Mg11 O131 1.996569 1_555
Mg11 O57 2.061730 1_555
Mg11 O59 2.131083 1_555
Mg11 O129 2.213673 1_555
Mg11 O127 2.275925 1_555
O0 Si0 1.601154 1_555
O1 Si1 1.595808 1_555
O2 S0 1.455755 1_555
O3 S1 1.449725 1_555
O4 Si2 1.610421 1_555
O5 S2 1.448944 1_555
O6 Si3 1.590056 1_555
O7 Si4 1.589089 1_555
O8 Si6 1.607291 1_555
O9 Si5 1.607549 1_555
O10 S3 1.453369 1_555
O11 S4 1.453453 1_555
O12 S3 1.501631 1_565
O13 S4 1.500014 1_565
O14 Si3 1.675474 1_555
O15 Si4 1.678939 1_555
O16 Si5 1.668272 1_455
O17 Si6 1.669788 1_555
O18 S0 1.504552 1_555
O19 S1 1.511757 1_555
O20 S2 1.496180 1_455
O21 Si2 1.671087 1_555
O22 Si0 1.686185 1_565
O23 Si1 1.687121 1_565
O24 Si7 1.609114 1_555
O25 Si8 1.609083 1_555
O26 S5 1.468000 1_555
O27 S6 1.470056 1_555
O28 S7 1.467299 1_555
O29 S8 1.471713 1_555
O30 Si9 1.605280 1_555
O31 Si10 1.610907 1_555
O32 S9 1.465850 1_555
O33 S10 1.456541 1_555
O34 S11 1.452871 1_555
O35 S12 1.467240 1_555
O36 S11 1.505038 1_555
O37 S12 1.506138 1_555
O38 Si9 1.709673 1_555
O39 Si10 1.689076 1_555
O40 S9 1.494613 1_555
O41 S10 1.495345 1_555
O42 S5 1.512674 1_555
O43 S6 1.492967 1_555
O44 S7 1.500597 1_555
O45 S8 1.485741 1_555
O46 Si7 1.711307 1_555
O47 Si8 1.686192 1_555
O48 Si11 1.603623 1_555
O49 Si12 1.602515 1_555
O50 S13 1.460669 1_555
O51 S14 1.456516 1_555
O52 S15 1.464784 1_555
O53 S16 1.461670 1_555
O54 Si13 1.598311 1_555
O55 Si14 1.610390 1_555
O56 S17 1.444974 1_555
O57 S18 1.462063 1_555
O58 S19 1.451150 1_555
O59 S20 1.452585 1_555
O60 S19 1.526777 1_555
O61 S20 1.513083 1_555
O62 Si13 1.704061 1_555
O63 Si14 1.669768 1_555
O64 S17 1.505886 1_555
O65 S18 1.507279 1_555
O66 S13 1.523513 1_555
O67 S14 1.527139 1_555
O68 S15 1.512186 1_555
O69 S16 1.511108 1_555
O70 Si11 1.675189 1_555
O71 Si12 1.673072 1_555
O72 S19 1.468645 1_555
O73 S20 1.453341 1_555
O74 Si13 1.608676 1_555
O75 Si14 1.608523 1_555
O76 S17 1.476651 1_555
O77 S18 1.479284 1_555
O78 S13 1.445665 1_555
O79 S14 1.447624 1_555
O80 S15 1.471543 1_555
O81 S16 1.470922 1_555
O82 Si11 1.618324 1_555
O83 Si12 1.619137 1_555
O84 Si7 1.688746 1_555
O85 Si8 1.690592 1_555
O86 S5 1.492379 1_555
O87 S6 1.501516 1_555
O88 S7 1.505292 1_555
O89 S8 1.513745 1_555
O90 Si9 1.690899 1_555
O91 Si10 1.715060 1_555
O92 S9 1.507086 1_555
O93 S10 1.522149 1_555
O94 S11 1.506756 1_555
O95 S12 1.493081 1_555
O96 S3 1.473659 1_555
O97 S4 1.473134 1_555
O98 Si3 1.626229 1_555
O99 Si4 1.624045 1_555
O100 Si6 1.622850 1_555
O101 Si5 1.620929 1_555
O102 S0 1.463351 1_555
O103 S1 1.480820 1_555
O104 Si2 1.621105 1_555
O105 S2 1.483150 1_555
O106 Si0 1.606299 1_555
O107 Si1 1.621642 1_555
O108 Si11 1.723596 1_555
O109 Si12 1.727054 1_555
O110 S14 1.520191 1_555
O111 S13 1.519281 1_655
O112 S15 1.494741 1_545
O113 S16 1.498513 1_545
O114 Si13 1.729063 1_545
O115 Si14 1.706151 1_545
O116 S17 1.518657 1_555
O117 S18 1.495023 1_555
O118 S20 1.535650 1_555
O119 S19 1.491093 1_655
O120 S11 1.473958 1_555
O121 S12 1.468952 1_555
O122 Si10 1.599142 1_455
O123 Si9 1.603856 1_555
O124 S9 1.483232 1_565
O125 S10 1.476525 1_565
O126 S5 1.469406 1_565
O127 S6 1.471768 1_565
O128 S7 1.474884 1_555
O129 S8 1.480329 1_555
O130 Si8 1.600856 1_455
O131 Si7 1.598802 1_555
O132 Si0 1.724746 1_565
O133 Si1 1.670989 1_565
O134 S0 1.520030 1_555
O135 S1 1.494712 1_555
O136 S2 1.524363 1_455
O137 Si2 1.668506 1_555
O138 Si3 1.681175 1_555
O139 Si4 1.679961 1_555
O140 Si5 1.677307 1_455
O141 Si6 1.675698 1_555
O142 S3 1.508693 1_565
O143 S4 1.508744 1_565
