# generated using pymatgen
data_Gd(PdO2)2
_symmetry_space_group_name_H-M   'P 1'
_cell_length_a   6.50065252
_cell_length_b   6.49970631
_cell_length_c   6.50063413
_cell_angle_alpha   127.11499751
_cell_angle_beta   127.08117491
_cell_angle_gamma   78.07763911
_symmetry_Int_Tables_number   1
_chemical_formula_structural   Gd(PdO2)2
_chemical_formula_sum   'Gd2 Pd4 O8'
_cell_volume   169.31387957
_cell_formula_units_Z   2
loop_
 _symmetry_equiv_pos_site_id
 _symmetry_equiv_pos_as_xyz
  1  'x, y, z'
loop_
 _atom_site_type_symbol
 _atom_site_label
 _atom_site_symmetry_multiplicity
 _atom_site_fract_x
 _atom_site_fract_y
 _atom_site_fract_z
 _atom_site_occupancy
  Gd  Gd0  1  0.00002364  0.00000214  0.00000176  1
  Gd  Gd1  1  0.74997604  0.24999811  0.49999837  1
  Pd  Pd0  1  0.37500021  0.12499943  0.74999834  1
  Pd  Pd1  1  0.37499896  0.62500031  0.75000038  1
  Pd  Pd2  1  0.87500024  0.62499746  0.24999905  1
  Pd  Pd3  1  0.37500127  0.62500181  0.25000195  1
  O  O0  1  0.35173000  0.39274340  0.34747966  1
  O  O1  1  0.75411576  0.60171714  0.45882442  1
  O  O2  1  0.14282868  0.29529351  0.54112405  1
  O  O3  1  0.04535243  0.00424744  0.65258011  1
  O  O4  1  0.39826970  0.85725685  0.15252000  1
  O  O5  1  0.99588416  0.64828253  0.04117534  1
  O  O6  1  0.70464773  0.24575233  0.84742036  1
  O  O7  1  0.60717117  0.95470554  0.95887520  1
loop_
_geom_bond_atom_site_label_1
_geom_bond_atom_site_label_2
_geom_bond_distance
_geom_bond_site_symmetry_2
Gd0 O4 2.359767 1_545
Gd0 O2 2.360035 1_555
Gd0 O6 2.360140 1_454
Gd0 O1 2.360215 1_444
Gd0 O3 2.463598 1_554
Gd0 O0 2.463899 1_555
Gd0 O5 2.463947 1_445
Gd0 O7 2.464218 1_444
Gd1 O0 2.359767 1_555
Gd1 O7 2.360040 1_544
Gd1 O3 2.360144 1_655
Gd1 O5 2.360213 1_556
Gd1 O6 2.463600 1_555
Gd1 O4 2.463898 1_545
Gd1 O1 2.463945 1_555
Gd1 O2 2.464220 1_655
O0 Pd1 1.999635 1_555
O0 Pd3 2.016865 1_555
O1 Pd3 1.999725 1_555
O1 Pd2 2.016592 1_555
O2 Pd0 1.999748 1_555
O2 Pd1 2.016782 1_555
O3 Pd2 1.999810 1_445
O3 Pd0 2.016868 1_555
O4 Pd1 1.999623 1_554
O4 Pd3 2.016859 1_555
O5 Pd3 1.999732 1_655
O5 Pd2 2.016596 1_555
O6 Pd2 1.999789 1_556
O6 Pd0 2.016855 1_555
O7 Pd0 1.999755 1_565
O7 Pd1 2.016785 1_555
