# generated using pymatgen
data_MgFe2(CoO2)4
_symmetry_space_group_name_H-M   'P 1'
_cell_length_a   6.24583798
_cell_length_b   6.28950918
_cell_length_c   6.23406925
_cell_angle_alpha   58.35399416
_cell_angle_beta   94.29841213
_cell_angle_gamma   123.12520689
_symmetry_Int_Tables_number   1
_chemical_formula_structural   MgFe2(CoO2)4
_chemical_formula_sum   'Mg1 Fe2 Co4 O8'
_cell_volume   166.71789126
_cell_formula_units_Z   1
loop_
 _symmetry_equiv_pos_site_id
 _symmetry_equiv_pos_as_xyz
  1  'x, y, z'
loop_
 _atom_site_type_symbol
 _atom_site_label
 _atom_site_symmetry_multiplicity
 _atom_site_fract_x
 _atom_site_fract_y
 _atom_site_fract_z
 _atom_site_occupancy
  Mg  Mg0  1  0.89806900  0.25454400  0.34338200  1
  Fe  Fe0  1  0.50328200  0.99565400  0.00458000  1
  Fe  Fe1  1  0.50161900  0.50492600  0.49075600  1
  Co  Co0  1  0.41002200  0.95525500  0.56229100  1
  Co  Co1  1  0.18679300  0.24808900  0.06701800  1
  Co  Co2  1  0.84537000  0.75263200  0.90195900  1
  Co  Co3  1  0.98303100  0.53614200  0.55038200  1
  O  O0  1  0.73533200  0.47186300  0.29742100  1
  O  O1  1  0.73237100  0.03286000  0.73005300  1
  O  O2  1  0.71760800  0.47875300  0.76689800  1
  O  O3  1  0.25446400  0.02188900  0.76284500  1
  O  O4  1  0.77051000  0.98821700  0.22090700  1
  O  O5  1  0.28888000  0.51273200  0.21718400  1
  O  O6  1  0.28723600  0.96955500  0.25184600  1
  O  O7  1  0.28124400  0.52689000  0.68664300  1
loop_
_geom_bond_atom_site_label_1
_geom_bond_atom_site_label_2
_geom_bond_distance
_geom_bond_site_symmetry_2
Mg0 O4 1.953416 1_545
Mg0 O5 1.956837 1_655
Mg0 O0 2.011777 1_555
Mg0 O1 2.023820 1_555
Fe0 O6 2.007021 1_555
Fe0 O4 2.070844 1_555
Fe0 O2 2.085016 1_564
Fe0 O5 2.090868 1_555
Fe0 O3 2.093245 1_564
Fe0 O1 2.147544 1_564
Fe1 O7 2.010397 1_555
Fe1 O5 2.078533 1_555
Fe1 O3 2.085498 1_555
Fe1 O4 2.090070 1_555
Fe1 O2 2.099459 1_555
Fe1 O0 2.117835 1_555
Co0 O3 1.964626 1_565
Co0 O6 2.002997 1_555
Co0 O7 2.009986 1_555
Co0 O1 2.128741 1_565
Co0 O0 2.251634 1_565
Co1 O7 1.939507 1_554
Co1 O6 1.940320 1_545
Co1 O4 2.106158 1_445
Co1 O5 2.106907 1_555
Co2 O1 2.004279 1_565
Co2 O0 2.006945 1_556
Co2 O3 2.051954 1_665
Co2 O2 2.057137 1_555
Co3 O2 1.967395 1_555
Co3 O7 2.005898 1_655
Co3 O6 2.012543 1_655
Co3 O0 2.159507 1_555
Co3 O1 2.202617 1_555
