# generated using pymatgen
data_Eu4Cl6O
_symmetry_space_group_name_H-M   'P 1'
_cell_length_a   9.41781303
_cell_length_b   9.41853864
_cell_length_c   7.14233016
_cell_angle_alpha   89.98320001
_cell_angle_beta   90.02671674
_cell_angle_gamma   119.99887186
_symmetry_Int_Tables_number   1
_chemical_formula_structural   Eu4Cl6O
_chemical_formula_sum   'Eu8 Cl12 O2'
_cell_volume   548.66724061
_cell_formula_units_Z   2
loop_
 _symmetry_equiv_pos_site_id
 _symmetry_equiv_pos_as_xyz
  1  'x, y, z'
loop_
 _atom_site_type_symbol
 _atom_site_label
 _atom_site_symmetry_multiplicity
 _atom_site_fract_x
 _atom_site_fract_y
 _atom_site_fract_z
 _atom_site_occupancy
  Eu  Eu0  1  0.80332469  0.19667478  0.50033450  1
  Eu  Eu1  1  0.60658165  0.80323894  0.00040449  1
  Eu  Eu2  1  0.19685341  0.39339628  0.00045714  1
  Eu  Eu3  1  0.80341230  0.60657593  0.50042011  1
  Eu  Eu4  1  0.39308692  0.19641175  0.50028067  1
  Eu  Eu5  1  0.19664758  0.80358111  0.00047499  1
  Eu  Eu6  1  0.66665007  0.33326646  0.93321016  1
  Eu  Eu7  1  0.33320779  0.66686282  0.43337527  1
  Cl  Cl0  1  0.46654102  0.93335963  0.71470114  1
  Cl  Cl1  1  0.53327220  0.06667359  0.21468505  1
  Cl  Cl2  1  0.93344010  0.46673075  0.21465254  1
  Cl  Cl3  1  0.46668891  0.53329764  0.71457871  1
  Cl  Cl4  1  0.85810046  0.14198787  0.89222644  1
  Cl  Cl5  1  0.71613355  0.85801247  0.39226614  1
  Cl  Cl6  1  0.53342991  0.46644063  0.21463034  1
  Cl  Cl7  1  0.06679437  0.53352291  0.71471371  1
  Cl  Cl8  1  0.14194453  0.85801613  0.39216289  1
  Cl  Cl9  1  0.28399522  0.14198550  0.89206519  1
  Cl  Cl10  1  0.85812123  0.71612297  0.89222157  1
  Cl  Cl11  1  0.14199069  0.28390670  0.39229838  1
  O  O0  1  0.33327793  0.66675805  0.10610126  1
  O  O1  1  0.66650545  0.33317709  0.60594032  1
loop_
_geom_bond_atom_site_label_1
_geom_bond_atom_site_label_2
_geom_bond_distance
_geom_bond_site_symmetry_2
Eu0 O1 2.353760 1_555
Eu1 O0 2.353736 1_555
Eu2 O0 2.354014 1_555
Eu3 O1 2.353917 1_555
Eu4 O1 2.354010 1_555
Eu5 O0 2.354199 1_555
Eu6 O1 2.337469 1_555
Eu7 O0 2.337500 1_555
Cl0 Eu7 2.960271 1_555
Cl0 Eu5 3.002912 1_556
Cl0 Eu1 3.002950 1_556
Cl0 Eu4 3.266943 1_565
Cl0 Eu0 3.269765 1_565
Cl1 Eu6 2.961364 1_554
Cl1 Eu0 3.002114 1_555
Cl1 Eu4 3.002368 1_555
Cl1 Eu5 3.267079 1_545
Cl1 Eu1 3.269767 1_545
Cl2 Eu6 2.961822 1_554
Cl2 Eu0 3.002847 1_555
Cl2 Eu3 3.002849 1_555
Cl2 Eu5 3.269073 1_655
Cl2 Eu2 3.269459 1_655
Cl3 Eu7 2.962132 1_555
Cl3 Eu2 3.003031 1_556
Cl3 Eu1 3.003066 1_556
Cl3 Eu3 3.269218 1_555
Cl3 Eu4 3.270086 1_555
Cl4 Eu0 2.937592 1_555
Cl4 Eu2 2.971076 1_656
Cl4 Eu1 2.971592 1_546
Cl4 Eu6 3.135487 1_555
Cl5 Eu1 2.937660 1_555
Cl5 Eu3 2.970757 1_555
Cl5 Eu0 2.970856 1_565
Cl5 Eu7 3.137083 1_555
Cl6 Eu6 2.960570 1_554
Cl6 Eu3 3.002417 1_555
Cl6 Eu4 3.002623 1_555
Cl6 Eu2 3.267480 1_555
Cl6 Eu1 3.269723 1_555
Cl7 Eu7 2.960152 1_555
Cl7 Eu2 3.003319 1_556
Cl7 Eu5 3.003522 1_556
Cl7 Eu3 3.266696 1_455
Cl7 Eu0 3.270198 1_455
Cl8 Eu5 2.936145 1_555
Cl8 Eu4 2.968223 1_565
Cl8 Eu3 2.970212 1_455
Cl8 Eu7 3.132847 1_555
Cl9 Eu4 2.936624 1_555
Cl9 Eu5 2.968548 1_546
Cl9 Eu2 2.970663 1_556
Cl9 Eu6 3.134690 1_555
Cl10 Eu3 2.937633 1_555
Cl10 Eu5 2.968634 1_656
Cl10 Eu1 2.971186 1_556
Cl10 Eu6 3.136551 1_555
Cl11 Eu2 2.937644 1_555
Cl11 Eu4 2.968620 1_555
Cl11 Eu0 2.970662 1_455
Cl11 Eu7 3.137460 1_555
