# generated using pymatgen
data_Ba3SrMgNb2O9
_symmetry_space_group_name_H-M   'P 1'
_cell_length_a   5.94820756
_cell_length_b   5.94825257
_cell_length_c   9.72925200
_cell_angle_alpha   89.99842685
_cell_angle_beta   90.00166633
_cell_angle_gamma   120.00025653
_symmetry_Int_Tables_number   1
_chemical_formula_structural   Ba3SrMgNb2O9
_chemical_formula_sum   'Ba3 Sr1 Mg1 Nb2 O9'
_cell_volume   298.11544478
_cell_formula_units_Z   1
loop_
 _symmetry_equiv_pos_site_id
 _symmetry_equiv_pos_as_xyz
  1  'x, y, z'
loop_
 _atom_site_type_symbol
 _atom_site_label
 _atom_site_symmetry_multiplicity
 _atom_site_fract_x
 _atom_site_fract_y
 _atom_site_fract_z
 _atom_site_occupancy
  Ba  Ba0  1  0.99999500  0.99997800  0.01824900  1
  Ba  Ba1  1  0.33335000  0.66669100  0.77203500  1
  Ba  Ba2  1  0.66663900  0.33327500  0.22975300  1
  Sr  Sr0  1  0.00001100  0.00002900  0.58411300  1
  Mg  Mg0  1  0.33331300  0.66665000  0.39294200  1
  Nb  Nb0  1  0.33332200  0.66663100  0.12074700  1
  Nb  Nb1  1  0.66665100  0.33331200  0.85100100  1
  O  O0  1  0.63757200  0.81878100  0.24376700  1
  O  O1  1  0.18121000  0.81878500  0.24374900  1
  O  O2  1  0.18120000  0.36240000  0.24376000  1
  O  O3  1  0.34250200  0.17128000  0.75580800  1
  O  O4  1  0.82876400  0.17127600  0.75578700  1
  O  O5  1  0.82878200  0.65758000  0.75580200  1
  O  O6  1  0.50139000  0.49862800  0.99694600  1
  O  O7  1  0.50139000  0.00275200  0.99693700  1
  O  O8  1  0.99724300  0.49862000  0.99693600  1
loop_
_geom_bond_atom_site_label_1
_geom_bond_atom_site_label_2
_geom_bond_distance
_geom_bond_site_symmetry_2
Ba0 O1 2.880691 1_655
Ba0 O2 2.880887 1_665
Ba0 O0 2.880937 1_555
Ba0 O6 2.981217 1_554
Ba0 O8 2.981279 1_554
Ba0 O7 2.981304 1_564
Ba0 O7 2.981411 1_664
Ba0 O8 2.981481 1_564
Ba0 O6 2.981484 1_664
Ba0 O5 3.103394 1_554
Ba0 O3 3.103662 1_664
Ba0 O4 3.103829 1_564
Ba1 O7 2.790149 1_565
Ba1 O8 2.790284 1_455
Ba1 O6 2.790287 1_555
Ba1 O5 2.978595 1_555
Ba1 O3 2.978614 1_555
Ba1 O4 2.978674 1_565
Ba1 O4 2.978679 1_455
Ba1 O5 2.978733 1_455
Ba1 O3 2.978760 1_565
Ba2 O7 2.833701 1_554
Ba2 O6 2.833811 1_554
Ba2 O8 2.833956 1_554
Ba2 O1 2.980741 1_545
Ba2 O0 2.980775 1_545
Ba2 O2 2.980988 1_655
Ba2 O2 2.981017 1_555
Ba2 O1 2.981219 1_655
Ba2 O0 2.981251 1_555
Mg0 O1 2.136122 1_555
Mg0 O0 2.136127 1_555
Mg0 O2 2.136145 1_555
Nb0 O2 1.971909 1_555
Nb0 O0 1.972016 1_555
Nb0 O1 1.972033 1_555
Nb0 O6 2.109034 1_554
Nb0 O8 2.109063 1_454
Nb0 O7 2.109249 1_564
Nb1 O3 1.909421 1_555
Nb1 O4 1.909573 1_555
Nb1 O5 1.909999 1_555
Nb1 O7 2.217092 1_555
Nb1 O8 2.217200 1_555
Nb1 O6 2.217268 1_555
O3 Sr0 2.429607 1_555
O4 Sr0 2.429549 1_655
O5 Sr0 2.429423 1_665
