# generated using pymatgen
data_KAlCl4
_symmetry_space_group_name_H-M   'P 1'
_cell_length_a   10.68206000
_cell_length_b   7.34367400
_cell_length_c   9.54325315
_cell_angle_alpha   86.63414749
_cell_angle_beta   90.00000000
_cell_angle_gamma   90.00000000
_symmetry_Int_Tables_number   1
_chemical_formula_structural   KAlCl4
_chemical_formula_sum   'K4 Al4 Cl16'
_cell_volume   747.33451491
_cell_formula_units_Z   4
loop_
 _symmetry_equiv_pos_site_id
 _symmetry_equiv_pos_as_xyz
  1  'x, y, z'
loop_
 _atom_site_type_symbol
 _atom_site_label
 _atom_site_symmetry_multiplicity
 _atom_site_fract_x
 _atom_site_fract_y
 _atom_site_fract_z
 _atom_site_occupancy
  K  K0  1  0.91633100  0.56321300  0.94961300  1
  K  K1  1  0.41633100  0.43678700  0.05038700  1
  K  K2  1  0.30679500  0.94164500  0.55378500  1
  K  K3  1  0.80679500  0.05835500  0.44621500  1
  Al  Al0  1  0.66272400  0.99359600  0.93416200  1
  Al  Al1  1  0.16272400  0.00640400  0.06583800  1
  Al  Al2  1  0.05801900  0.49103800  0.43306800  1
  Al  Al3  1  0.55801900  0.50896200  0.56693200  1
  Cl  Cl0  1  0.49279000  0.05252900  0.81934400  1
  Cl  Cl1  1  0.99279000  0.94747100  0.18065600  1
  Cl  Cl2  1  0.69065100  0.21087400  0.07489900  1
  Cl  Cl3  1  0.19065100  0.78912600  0.92510100  1
  Cl  Cl4  1  0.64845800  0.73506800  0.05497200  1
  Cl  Cl5  1  0.14845800  0.26493200  0.94502800  1
  Cl  Cl6  1  0.32255100  0.02896000  0.20239800  1
  Cl  Cl7  1  0.82255100  0.97104000  0.79760200  1
  Cl  Cl8  1  0.39540900  0.53247900  0.69947400  1
  Cl  Cl9  1  0.89540900  0.46752100  0.30052600  1
  Cl  Cl10  1  0.72564100  0.45575900  0.68693000  1
  Cl  Cl11  1  0.22564100  0.54424100  0.31307000  1
  Cl  Cl12  1  0.53298800  0.28833100  0.42859700  1
  Cl  Cl13  1  0.03298800  0.71166900  0.57140300  1
  Cl  Cl14  1  0.57244200  0.76569200  0.44369400  1
  Cl  Cl15  1  0.07244200  0.23430800  0.55630600  1
loop_
_geom_bond_atom_site_label_1
_geom_bond_atom_site_label_2
_geom_bond_distance
_geom_bond_site_symmetry_2
Al0 Cl0 2.151133 1_565
Al0 Cl7 2.160092 1_555
Al0 Cl2 2.165762 1_566
Al0 Cl4 2.167925 1_556
Al1 Cl1 2.151133 1_445
Al1 Cl6 2.160092 1_555
Al1 Cl3 2.165762 1_544
Al1 Cl5 2.167925 1_554
Al2 Cl11 2.148859 1_555
Al2 Cl9 2.161621 1_455
Al2 Cl13 2.165798 1_555
Al2 Cl15 2.168196 1_555
Al3 Cl10 2.148859 1_555
Al3 Cl8 2.161621 1_555
Al3 Cl12 2.165798 1_555
Al3 Cl14 2.168196 1_555
Cl0 K2 3.357897 1_545
Cl1 K3 3.357897 1_565
Cl2 K1 3.368710 1_555
Cl3 K0 3.368710 1_455
Cl4 K0 3.307649 1_554
Cl4 K1 3.310552 1_555
Cl5 K1 3.307649 1_556
Cl5 K0 3.310552 1_455
Cl6 K2 3.381142 1_545
Cl6 K1 3.401110 1_555
Cl7 K3 3.381142 1_565
Cl7 K0 3.401110 1_555
Cl8 K2 3.371533 1_555
Cl8 K1 3.388547 1_556
Cl9 K3 3.371533 1_555
Cl9 K0 3.388547 1_554
Cl10 K0 3.359834 1_555
Cl11 K1 3.359834 1_555
Cl12 K3 3.376654 1_555
Cl12 K2 3.659244 1_545
Cl13 K2 3.376654 1_555
Cl13 K3 3.659244 1_465
Cl14 K3 3.300406 1_565
Cl14 K2 3.314386 1_555
Cl15 K2 3.300406 1_545
Cl15 K3 3.314386 1_455
