# generated using pymatgen
data_AlP(H2O3)2
_symmetry_space_group_name_H-M   'P 1'
_cell_length_a   8.61828200
_cell_length_b   9.68436300
_cell_length_c   9.97014600
_cell_angle_alpha   90.00000000
_cell_angle_beta   90.00000000
_cell_angle_gamma   90.00000000
_symmetry_Int_Tables_number   1
_chemical_formula_structural   AlP(H2O3)2
_chemical_formula_sum   'Al8 P8 H32 O48'
_cell_volume   832.13402164
_cell_formula_units_Z   8
loop_
 _symmetry_equiv_pos_site_id
 _symmetry_equiv_pos_as_xyz
  1  'x, y, z'
loop_
 _atom_site_type_symbol
 _atom_site_label
 _atom_site_symmetry_multiplicity
 _atom_site_fract_x
 _atom_site_fract_y
 _atom_site_fract_z
 _atom_site_occupancy
  Al  Al0  1  0.15459000  0.17006500  0.13411000  1
  Al  Al1  1  0.65459000  0.32993500  0.86589000  1
  Al  Al2  1  0.84541000  0.67006500  0.36589000  1
  Al  Al3  1  0.34541000  0.82993500  0.63411000  1
  Al  Al4  1  0.84541000  0.82993500  0.86589000  1
  Al  Al5  1  0.34541000  0.67006500  0.13411000  1
  Al  Al6  1  0.15459000  0.32993500  0.63411000  1
  Al  Al7  1  0.65459000  0.17006500  0.36589000  1
  P  P0  1  0.47056000  0.35426000  0.14758300  1
  P  P1  1  0.97056000  0.14574000  0.85241700  1
  P  P2  1  0.52944000  0.85426000  0.35241700  1
  P  P3  1  0.02944000  0.64574000  0.64758300  1
  P  P4  1  0.52944000  0.64574000  0.85241700  1
  P  P5  1  0.02944000  0.85426000  0.14758300  1
  P  P6  1  0.47056000  0.14574000  0.64758300  1
  P  P7  1  0.97056000  0.35426000  0.35241700  1
  H  H0  1  0.84340800  0.08625100  0.17879500  1
  H  H1  1  0.34340800  0.41374900  0.82120500  1
  H  H2  1  0.15659200  0.58625100  0.32120500  1
  H  H3  1  0.65659200  0.91374900  0.67879500  1
  H  H4  1  0.15659200  0.91374900  0.82120500  1
  H  H5  1  0.65659200  0.58625100  0.17879500  1
  H  H6  1  0.84340800  0.41374900  0.67879500  1
  H  H7  1  0.34340800  0.08625100  0.32120500  1
  H  H8  1  0.69751600  0.18047300  0.12128000  1
  H  H9  1  0.19751600  0.31952700  0.87872000  1
  H  H10  1  0.30248400  0.68047300  0.37872000  1
  H  H11  1  0.80248400  0.81952700  0.62128000  1
  H  H12  1  0.30248400  0.81952700  0.87872000  1
  H  H13  1  0.80248400  0.68047300  0.12128000  1
  H  H14  1  0.69751600  0.31952700  0.62128000  1
  H  H15  1  0.19751600  0.18047300  0.37872000  1
  H  H16  1  0.14151800  0.57288500  0.97157600  1
  H  H17  1  0.64151800  0.92711500  0.02842400  1
  H  H18  1  0.14151800  0.92711500  0.47157600  1
  H  H19  1  0.64151800  0.57288500  0.52842400  1
  H  H20  1  0.85848200  0.42711500  0.02842400  1
  H  H21  1  0.35848200  0.07288500  0.97157600  1
  H  H22  1  0.79151000  0.95381300  0.42882500  1
  H  H23  1  0.29151000  0.54618700  0.57117500  1
  H  H24  1  0.20849000  0.45381300  0.07117500  1
  H  H25  1  0.70849000  0.04618700  0.92882500  1
  H  H26  1  0.20849000  0.04618700  0.57117500  1
  H  H27  1  0.70849000  0.45381300  0.42882500  1
  H  H28  1  0.79151000  0.54618700  0.92882500  1
  H  H29  1  0.29151000  0.95381300  0.07117500  1
  H  H30  1  0.85848200  0.07288500  0.52842400  1
  H  H31  1  0.35848200  0.42711500  0.47157600  1
  O  O0  1  0.51347400  0.29163100  0.28452500  1
  O  O1  1  0.01347400  0.20836900  0.71547500  1
  O  O2  1  0.48652600  0.79163100  0.21547500  1
  O  O3  1  0.98652600  0.70836900  0.78452500  1
  O  O4  1  0.48652600  0.70836900  0.71547500  1
  O  O5  1  0.98652600  0.79163100  0.28452500  1
  O  O6  1  0.51347400  0.20836900  0.78452500  1
  O  O7  1  0.01347400  0.29163100  0.21547500  1
  O  O8  1  0.48388100  0.51411400  0.14818900  1
  O  O9  1  0.98388100  0.98588600  0.85181100  1
  O  O10  1  0.51611900  0.01411400  0.35181100  1
  O  O11  1  0.01611900  0.48588600  0.64818900  1
  O  O12  1  0.51611900  0.48588600  0.85181100  1
  O  O13  1  0.01611900  0.01411400  0.14818900  1
  O  O14  1  0.48388100  0.98588600  0.64818900  1
  O  O15  1  0.98388100  0.51411400  0.35181100  1
  O  O16  1  0.08313300  0.29263700  0.45918400  1
  O  O17  1  0.82233000  0.44557100  0.93737600  1
  O  O18  1  0.67767000  0.55442900  0.43737600  1
  O  O19  1  0.17767000  0.94557100  0.56262400  1
  O  O20  1  0.67767000  0.94557100  0.93737600  1
  O  O21  1  0.17767000  0.55442900  0.06262400  1
  O  O22  1  0.32233000  0.44557100  0.56262400  1
  O  O23  1  0.82233000  0.05442900  0.43737600  1
  O  O24  1  0.23318600  0.11575300  0.30676000  1
  O  O25  1  0.73318600  0.38424700  0.69324000  1
  O  O26  1  0.58313300  0.20736300  0.54081600  1
  O  O27  1  0.26681400  0.88424700  0.80676000  1
  O  O28  1  0.76681400  0.88424700  0.69324000  1
  O  O29  1  0.26681400  0.61575300  0.30676000  1
  O  O30  1  0.23318600  0.38424700  0.80676000  1
  O  O31  1  0.73318600  0.11575300  0.19324000  1
  O  O32  1  0.91686700  0.79263700  0.04081600  1
  O  O33  1  0.41686700  0.70736300  0.95918400  1
  O  O34  1  0.91686700  0.70736300  0.54081600  1
  O  O35  1  0.41686700  0.79263700  0.45918400  1
  O  O36  1  0.08313300  0.20736300  0.95918400  1
  O  O37  1  0.58313300  0.29263700  0.04081600  1
  O  O38  1  0.79906300  0.31896300  0.38802400  1
  O  O39  1  0.29906300  0.18103700  0.61197600  1
  O  O40  1  0.20093700  0.81896300  0.11197600  1
  O  O41  1  0.70093700  0.68103700  0.88802400  1
  O  O42  1  0.20093700  0.68103700  0.61197600  1
  O  O43  1  0.70093700  0.81896300  0.38802400  1
  O  O44  1  0.79906300  0.18103700  0.88802400  1
  O  O45  1  0.29906300  0.31896300  0.11197600  1
  O  O46  1  0.76681400  0.61575300  0.19324000  1
  O  O47  1  0.32233000  0.05442900  0.06262400  1
loop_
_geom_bond_atom_site_label_1
_geom_bond_atom_site_label_2
_geom_bond_distance
_geom_bond_site_symmetry_2
Al0 O7 1.877013 1_555
Al0 O36 1.884514 1_554
Al0 O45 1.917892 1_555
Al0 O24 1.923149 1_555
Al0 O13 1.929982 1_555
Al0 O47 1.962630 1_555
Al1 O6 1.877013 1_555
Al1 O37 1.884514 1_556
Al1 O44 1.917892 1_555
Al1 O25 1.923149 1_555
Al1 O12 1.929982 1_555
Al1 O17 1.962630 1_555
Al2 O5 1.877013 1_555
Al2 O34 1.884514 1_555
Al2 O43 1.917892 1_555
Al2 O46 1.923149 1_555
Al2 O15 1.929982 1_555
Al2 O18 1.962630 1_555
Al3 O4 1.877013 1_555
Al3 O35 1.884514 1_555
Al3 O42 1.917892 1_555
Al3 O27 1.923149 1_555
Al3 O14 1.929982 1_555
Al3 O19 1.962630 1_555
Al4 O3 1.877013 1_555
Al4 O32 1.884514 1_556
Al4 O41 1.917892 1_555
Al4 O28 1.923149 1_555
Al4 O9 1.929982 1_555
Al4 O20 1.962630 1_555
Al5 O2 1.877013 1_555
Al5 O33 1.884514 1_554
Al5 O40 1.917892 1_555
Al5 O29 1.923149 1_555
Al5 O8 1.929982 1_555
Al5 O21 1.962630 1_555
Al6 O1 1.877013 1_555
Al6 O16 1.884514 1_555
Al6 O39 1.917892 1_555
Al6 O30 1.923149 1_555
Al6 O11 1.929982 1_555
Al6 O22 1.962630 1_555
Al7 O0 1.877013 1_555
Al7 O26 1.884514 1_555
Al7 O38 1.917892 1_555
Al7 O31 1.923149 1_555
Al7 O10 1.929982 1_555
Al7 O23 1.962630 1_555
H0 O31 1.002361 1_555
H0 O13 1.672336 1_655
H1 O30 1.002361 1_555
H1 O12 1.672336 1_555
H2 O29 1.002361 1_555
H2 O15 1.672336 1_455
H3 O28 1.002361 1_555
H3 O14 1.672336 1_555
H4 O27 1.002361 1_555
H4 O9 1.672336 1_455
H5 O46 1.002361 1_555
H5 O8 1.672336 1_555
H6 O25 1.002361 1_555
H6 O11 1.672336 1_655
H7 O24 1.002361 1_555
H7 O10 1.672336 1_555
H8 O31 1.001041 1_555
H8 O37 1.671906 1_555
H9 O30 1.001041 1_555
H9 O36 1.671906 1_555
H10 O29 1.001041 1_555
H10 O35 1.671906 1_555
H11 O28 1.001041 1_555
H11 O34 1.671906 1_555
H12 O27 1.001041 1_555
H12 O33 1.671906 1_555
H13 O46 1.001041 1_555
H13 O32 1.671906 1_555
H14 O25 1.001041 1_555
H14 O26 1.671906 1_555
H15 O24 1.001041 1_555
H15 O16 1.671906 1_555
H16 O21 0.976244 1_556
H17 O20 0.976244 1_554
H18 O19 0.976244 1_555
H19 O18 0.976244 1_555
H20 O17 0.976244 1_554
H21 O47 0.976244 1_556
H22 O23 1.013548 1_565
H22 O43 1.574884 1_555
H23 O22 1.013548 1_555
H23 O42 1.574884 1_555
H24 O21 1.013548 1_555
H24 O45 1.574884 1_555
H25 O20 1.013548 1_545
H25 O44 1.574884 1_555
H26 O19 1.013548 1_545
H26 O39 1.574884 1_555
H27 O18 1.013548 1_555
H27 O38 1.574884 1_555
H28 O17 1.013548 1_555
H28 O41 1.574884 1_555
H29 O47 1.013548 1_565
H29 O40 1.574884 1_555
H30 O23 0.976244 1_555
H31 O22 0.976244 1_555
O0 P0 1.539086 1_555
O1 P1 1.539086 1_455
O2 P2 1.539086 1_555
O3 P3 1.539086 1_655
O4 P4 1.539086 1_555
O5 P5 1.539086 1_655
O6 P6 1.539086 1_555
O7 P7 1.539086 1_455
O8 P0 1.552347 1_555
O9 P1 1.552347 1_565
O10 P2 1.552347 1_545
O11 P3 1.552347 1_555
O12 P4 1.552347 1_555
O13 P5 1.552347 1_545
O14 P6 1.552347 1_565
O15 P7 1.552347 1_555
O16 P7 1.559016 1_455
O26 P6 1.559016 1_555
O32 P5 1.559016 1_655
O33 P4 1.559016 1_555
O34 P3 1.559016 1_655
O35 P2 1.559016 1_555
O36 P1 1.559016 1_455
O37 P0 1.559016 1_555
O38 P7 1.558008 1_555
O39 P6 1.558008 1_555
O40 P5 1.558008 1_555
O41 P4 1.558008 1_555
O42 P3 1.558008 1_555
O43 P2 1.558008 1_555
O44 P1 1.558008 1_555
O45 P0 1.558008 1_555
