# generated using pymatgen
data_Na4Ca2Al2SiS5O24
_symmetry_space_group_name_H-M   'P 1'
_cell_length_a   8.91544153
_cell_length_b   8.88714026
_cell_length_c   22.59073077
_cell_angle_alpha   90.14353501
_cell_angle_beta   89.98230131
_cell_angle_gamma   119.79810586
_symmetry_Int_Tables_number   1
_chemical_formula_structural   Na4Ca2Al2SiS5O24
_chemical_formula_sum   'Na12 Ca6 Al6 Si3 S15 O72'
_cell_volume   1553.25991243
_cell_formula_units_Z   3
loop_
 _symmetry_equiv_pos_site_id
 _symmetry_equiv_pos_as_xyz
  1  'x, y, z'
loop_
 _atom_site_type_symbol
 _atom_site_label
 _atom_site_symmetry_multiplicity
 _atom_site_fract_x
 _atom_site_fract_y
 _atom_site_fract_z
 _atom_site_occupancy
  Na  Na0  1  0.99790018  0.63139853  0.23908324  1
  Na  Na1  1  0.99746463  0.36406623  0.75550276  1
  Na  Na2  1  0.37584509  0.99617951  0.74850357  1
  Na  Na3  1  0.65919349  0.97633528  0.59281534  1
  Na  Na4  1  0.68180816  0.68129056  0.07813951  1
  Na  Na5  1  0.33714941  0.04150573  0.42589118  1
  Na  Na6  1  0.02440275  0.00534283  0.50944583  1
  Na  Na7  1  0.01629140  0.99140863  0.00354330  1
  Na  Na8  1  0.66501476  0.33792973  0.83924726  1
  Na  Na9  1  0.66570065  0.33376782  0.32938148  1
  Na  Na10  1  0.31088480  0.66175792  0.15584050  1
  Na  Na11  1  0.34973982  0.67379535  0.66377098  1
  Ca  Ca0  1  0.99301661  0.00412978  0.35758246  1
  Ca  Ca1  1  0.67293270  0.33362269  0.17057248  1
  Ca  Ca2  1  0.67468930  0.34003127  0.98805600  1
  Ca  Ca3  1  0.65718697  0.33135705  0.49160311  1
  Ca  Ca4  1  0.33992814  0.66304048  0.30802890  1
  Ca  Ca5  1  0.34996640  0.67419904  0.81152497  1
  Al  Al0  1  0.97697219  0.99848304  0.85344213  1
  Al  Al1  1  0.00093381  0.99278856  0.65049584  1
  Al  Al2  1  0.00649289  0.00378176  0.14712657  1
  Al  Al3  1  0.65658203  0.30670331  0.67969947  1
  Al  Al4  1  0.31714303  0.66679963  0.01437948  1
  Al  Al5  1  0.32462830  0.67141291  0.52159801  1
  Si  Si0  1  0.72485139  0.01233441  0.74452266  1
  Si  Si1  1  0.34824754  0.02036691  0.58391792  1
  Si  Si2  1  0.99255289  0.66014846  0.08589236  1
  S  S0  1  0.29111648  0.00823682  0.24843066  1
  S  S1  1  0.71329088  0.71316873  0.24399159  1
  S  S2  1  0.99543140  0.28457039  0.24441602  1
  S  S3  1  0.28811760  0.27169519  0.74686544  1
  S  S4  1  0.97921418  0.71046277  0.75024164  1
  S  S5  1  0.97489050  0.33537405  0.58697291  1
  S  S6  1  0.66911451  0.63250980  0.58922681  1
  S  S7  1  0.66283919  0.00875354  0.08180839  1
  S  S8  1  0.34382438  0.33663275  0.08113371  1
  S  S9  1  0.64154425  0.68139232  0.91666059  1
  S  S10  1  0.04674886  0.36241444  0.91306403  1
  S  S11  1  0.31524391  0.95832375  0.91313403  1
  S  S12  1  0.61917651  0.94885252  0.42465325  1
  S  S13  1  0.33256842  0.38520129  0.42484468  1
  S  S14  1  0.04583746  0.66339843  0.42032493  1
  O  O0  1  0.22031220  0.01367970  0.30741114  1
  O  O1  1  0.80328020  0.79373980  0.29983024  1
  O  O2  1  0.99871062  0.20520770  0.30073059  1
  O  O3  1  0.21535390  0.16861607  0.80194134  1
  O  O4  1  0.96748394  0.79673711  0.80529570  1
  O  O5  1  0.84495821  0.04219172  0.80451158  1
  O  O6  1  0.82920721  0.00372997  0.68703266  1
  O  O7  1  0.18147444  0.18060921  0.69492685  1
  O  O8  1  0.00922003  0.82113649  0.69801137  1
  O  O9  1  0.81665244  0.81533000  0.19193022  1
  O  O10  1  0.99128611  0.17791388  0.19305201  1
  O  O11  1  0.17767846  0.00841888  0.20015992  1
  O  O12  1  0.88952606  0.36670468  0.63977453  1
  O  O13  1  0.50251948  0.12844624  0.63599535  1
  O  O14  1  0.64821878  0.51136316  0.63866638  1
  O  O15  1  0.93037159  0.54849267  0.14673308  1
  O  O16  1  0.61446750  0.07037523  0.13472531  1
  O  O17  1  0.45929051  0.38371456  0.13328720  1
  O  O18  1  0.41018114  0.28272081  0.03088904  1
  O  O19  1  0.83945886  0.57193862  0.03659659  1
  O  O20  1  0.69920081  0.12044475  0.03041058  1
  O  O21  1  0.40741523  0.12167468  0.52193980  1
  O  O22  1  0.70609283  0.57657057  0.53280826  1
  O  O23  1  0.86437177  0.29604590  0.53456781  1
  O  O24  1  0.55040776  0.69549359  0.97016502  1
  O  O25  1  0.16319092  0.46315665  0.96326984  1
  O  O26  1  0.30316676  0.84052234  0.96264802  1
  O  O27  1  0.52040643  0.84992735  0.47868074  1
  O  O28  1  0.33574174  0.48928217  0.47776871  1
  O  O29  1  0.15693580  0.66738932  0.47104202  1
  O  O30  1  0.12166361  0.65801370  0.36300826  1
  O  O31  1  0.52529352  0.86459671  0.37015935  1
  O  O32  1  0.33020311  0.46672707  0.36927171  1
  O  O33  1  0.11468870  0.45313168  0.85629400  1
  O  O34  1  0.33883572  0.89204883  0.85578383  1
  O  O35  1  0.54357596  0.66200053  0.86270919  1
  O  O36  1  0.04326715  0.83005824  0.42526116  1
  O  O37  1  0.79005580  0.96218787  0.42807419  1
  O  O38  1  0.17681195  0.20916022  0.42959044  1
  O  O39  1  0.04135204  0.18938963  0.91047000  1
  O  O40  1  0.14860346  0.96296904  0.91064176  1
  O  O41  1  0.81435054  0.84835308  0.91238329  1
  O  O42  1  0.99795692  0.18211471  0.59547501  1
  O  O43  1  0.15767597  0.99165041  0.60078650  1
  O  O44  1  0.81537205  0.81267429  0.59927614  1
  O  O45  1  0.01691173  0.85701401  0.09611267  1
  O  O46  1  0.81977157  0.99138472  0.09347126  1
  O  O47  1  0.16586431  0.19664882  0.09554510  1
  O  O48  1  0.70495995  0.19409372  0.73863811  1
  O  O49  1  0.46666877  0.29604710  0.73974350  1
  O  O50  1  0.82269640  0.53698320  0.74385792  1
  O  O51  1  0.69492294  0.53726842  0.24304388  1
  O  O52  1  0.84019553  0.30551120  0.24501241  1
  O  O53  1  0.46686085  0.15633279  0.24395497  1
  O  O54  1  0.66992734  0.53251561  0.92018589  1
  O  O55  1  0.87127485  0.33435492  0.92106660  1
  O  O56  1  0.46287619  0.13350738  0.92210264  1
  O  O57  1  0.63632440  0.12423921  0.42459978  1
  O  O58  1  0.48775682  0.36397373  0.42324222  1
  O  O59  1  0.87156156  0.51338088  0.42424765  1
  O  O60  1  0.33774527  0.49837303  0.06613366  1
  O  O61  1  0.17762172  0.67777455  0.06601680  1
  O  O62  1  0.51771833  0.82770429  0.06868133  1
  O  O63  1  0.34806087  0.83119995  0.57715402  1
  O  O64  1  0.50852406  0.64637775  0.58475379  1
  O  O65  1  0.14728660  0.49322909  0.57910425  1
  O  O66  1  0.29122594  0.84015963  0.24278602  1
  O  O67  1  0.54279812  0.70107920  0.24007704  1
  O  O68  1  0.15206060  0.45996328  0.23926576  1
  O  O69  1  0.29682982  0.44236971  0.74922669  1
  O  O70  1  0.13300022  0.68429006  0.75258114  1
  O  O71  1  0.52775617  0.85124270  0.74336514  1
loop_
_geom_bond_atom_site_label_1
_geom_bond_atom_site_label_2
_geom_bond_distance
_geom_bond_site_symmetry_2
Na0 O15 2.193171 1_555
Na0 O66 2.337771 1_655
Na0 O51 2.399695 1_555
Na0 O68 2.508291 1_655
Na0 O52 2.517425 1_555
Na1 O48 2.304377 1_555
Na1 O69 2.404594 1_655
Na1 O33 2.464451 1_655
Na1 O70 2.479224 1_655
Na1 O50 2.690845 1_555
Na1 O5 2.721487 1_555
Na1 O12 2.790324 1_555
Na2 O71 2.289080 1_555
Na2 O49 2.377959 1_565
Na2 O70 2.532900 1_555
Na2 O34 2.558532 1_555
Na2 O48 2.573921 1_565
Na2 O13 2.794801 1_565
Na2 O3 2.832334 1_565
Na3 O63 2.434258 1_555
Na3 O44 2.467716 1_555
Na3 O64 2.553223 1_555
Na3 O6 2.553358 1_565
Na3 O13 2.568923 1_565
Na3 O42 2.641930 1_565
Na3 O23 2.828819 1_565
Na3 O27 2.836731 1_555
Na4 O19 2.270000 1_555
Na4 O62 2.402597 1_555
Na4 O46 2.419518 1_555
Na4 O45 2.624851 1_655
Na4 O60 2.677277 1_555
Na4 O17 2.698553 1_555
Na4 O24 2.736496 1_554
Na4 O9 2.834711 1_555
Na5 O21 2.271039 1_555
Na5 O36 2.345788 1_545
Na5 O57 2.388874 1_555
Na5 O58 2.489120 1_555
Na5 O38 2.527167 1_555
Na5 O0 2.837694 1_555
Na6 O43 2.414729 1_545
Na6 O38 2.439334 1_555
Na6 O36 2.513390 1_545
Na6 O42 2.579385 1_455
Na6 O37 2.663433 1_445
Na6 O44 2.714158 1_445
Na7 O45 2.412225 1_555
Na7 O40 2.480347 1_554
Na7 O41 2.610169 1_454
Na7 O47 2.643893 1_565
Na7 O39 2.682189 1_564
Na7 O46 2.682219 1_455
Na8 O54 2.498929 1_555
Na8 O56 2.610114 1_555
Na8 O55 2.619055 1_555
Na8 O50 2.700905 1_555
Na8 O48 2.713674 1_555
Na8 O49 2.768130 1_555
Na9 O52 2.549508 1_555
Na9 O53 2.561647 1_555
Na9 O51 2.586875 1_555
Na9 O58 2.739205 1_555
Na9 O59 2.753702 1_555
Na9 O57 2.774541 1_555
Na10 O61 2.391745 1_555
Na10 O68 2.502895 1_555
Na10 O60 2.569660 1_555
Na10 O66 2.581235 1_555
Na10 O62 2.600326 1_555
Na10 O67 2.701737 1_555
Na11 O64 2.364086 1_555
Na11 O71 2.395605 1_555
Na11 O63 2.412562 1_555
Na11 O65 2.568921 1_555
Na11 O69 2.689705 1_555
Na11 O70 2.818434 1_555
Ca0 O2 2.183291 1_555
Ca0 O1 2.214775 1_545
Ca0 O0 2.286133 1_655
Ca0 O37 2.297813 1_545
Ca0 O36 2.373307 1_645
Ca0 O38 2.381321 1_655
Ca1 O15 2.202889 1_555
Ca1 O16 2.275872 1_555
Ca1 O17 2.319743 1_555
Ca1 O52 2.342658 1_555
Ca1 O51 2.372125 1_555
Ca1 O53 2.395881 1_555
Ca2 O19 2.142120 1_556
Ca2 O20 2.281434 1_556
Ca2 O54 2.316085 1_555
Ca2 O55 2.334602 1_555
Ca2 O18 2.358848 1_556
Ca2 O56 2.387032 1_555
Ca3 O21 2.186811 1_555
Ca3 O22 2.202594 1_555
Ca3 O23 2.243044 1_555
Ca3 O58 2.278063 1_555
Ca3 O57 2.315126 1_555
Ca3 O59 2.350036 1_555
Ca4 O32 2.197084 1_555
Ca4 O31 2.226302 1_555
Ca4 O67 2.266110 1_555
Ca4 O30 2.289897 1_555
Ca4 O68 2.336414 1_555
Ca4 O66 2.351577 1_555
Ca5 O35 2.125106 1_555
Ca5 O71 2.211538 1_555
Ca5 O34 2.222398 1_555
Ca5 O33 2.279348 1_555
Ca5 O69 2.337893 1_555
Ca5 O70 2.386937 1_555
Al0 O5 1.793136 1_565
Al0 O41 1.933978 1_555
Al0 O39 1.972133 1_665
Al0 O4 2.060185 1_555
Al0 O40 2.143368 1_655
Al0 O3 2.229359 1_665
Al1 O6 1.783684 1_465
Al1 O43 1.796381 1_555
Al1 O8 1.898701 1_555
Al1 O7 1.925296 1_565
Al1 O44 1.999491 1_455
Al1 O42 2.105130 1_465
Al2 O45 1.775074 1_545
Al2 O10 1.920945 1_455
Al2 O11 1.924758 1_555
Al2 O9 1.970818 1_445
Al2 O47 1.975618 1_555
Al2 O46 2.017643 1_445
Al3 O13 1.789245 1_555
Al3 O48 1.842940 1_555
Al3 O12 2.076417 1_555
Al3 O14 2.077568 1_555
Al3 O49 2.134372 1_555
Al3 O50 2.335898 1_555
Al4 O61 1.742608 1_555
Al4 O60 1.980743 1_555
Al4 O26 1.991287 1_554
Al4 O25 2.003505 1_554
Al4 O62 2.049019 1_555
Al4 O24 2.204674 1_554
Al5 O63 1.825299 1_555
Al5 O29 1.867769 1_555
Al5 O27 1.938547 1_555
Al5 O28 1.939440 1_555
Al5 O65 2.053225 1_555
Al5 O64 2.266861 1_555
O0 S0 1.485142 1_555
O1 S1 1.474025 1_555
O2 S2 1.463484 1_555
O3 S3 1.490855 1_555
O4 S4 1.490124 1_555
O5 Si0 1.664415 1_555
O6 Si0 1.621001 1_555
O7 S3 1.472053 1_555
O8 S4 1.474889 1_455
O9 S1 1.493272 1_555
O10 S2 1.485240 1_555
O11 S0 1.488044 1_555
O12 S5 1.512604 1_555
O13 Si1 1.697266 1_555
O14 S6 1.499278 1_555
O15 Si2 1.625018 1_555
O16 S7 1.464950 1_555
O17 S8 1.480912 1_555
O18 S8 1.465093 1_555
O19 Si2 1.628122 1_555
O20 S7 1.457493 1_555
O21 Si1 1.607191 1_555
O22 S6 1.462785 1_555
O23 S5 1.466607 1_555
O24 S9 1.495560 1_555
O25 S10 1.495842 1_555
O26 S11 1.500852 1_555
O27 S12 1.507742 1_555
O28 S13 1.501434 1_555
O29 S14 1.503537 1_555
O30 S14 1.472132 1_555
O31 S12 1.466246 1_555
O32 S13 1.456456 1_555
O33 S10 1.476810 1_555
O34 S11 1.479468 1_555
O35 S9 1.458787 1_555
O36 S14 1.496532 1_555
O37 S12 1.470218 1_555
O38 S13 1.492973 1_555
O39 S10 1.515346 1_555
O40 S11 1.507687 1_555
O41 S9 1.520912 1_555
O42 S5 1.487968 1_555
O43 Si1 1.632844 1_565
O44 S6 1.496261 1_555
O45 Si2 1.667887 1_455
O46 S7 1.505279 1_565
O47 S8 1.486911 1_555
O48 Si0 1.715863 1_555
O49 S3 1.504779 1_555
O50 S4 1.485173 1_555
O51 S1 1.488768 1_555
O52 S2 1.485339 1_555
O53 S0 1.465752 1_555
O54 S9 1.467732 1_555
O55 S10 1.467862 1_655
O56 S11 1.469441 1_545
O57 S12 1.488640 1_545
O58 S13 1.486785 1_555
O59 S14 1.463264 1_655
O60 S8 1.504589 1_555
O61 Si2 1.640597 1_455
O62 S7 1.509840 1_565
O63 Si1 1.686879 1_565
O64 S6 1.500265 1_555
O65 S5 1.489982 1_455
O66 S0 1.499324 1_565
O67 S1 1.472257 1_555
O68 S2 1.493535 1_455
O69 S3 1.480570 1_555
O70 S4 1.501266 1_455
O71 Si0 1.624053 1_565
