# generated using pymatgen
data_MgMn4Zn2O8
_symmetry_space_group_name_H-M   'P 1'
_cell_length_a   6.43192936
_cell_length_b   6.28275035
_cell_length_c   6.21502927
_cell_angle_alpha   87.00194354
_cell_angle_beta   120.53778520
_cell_angle_gamma   121.07271577
_symmetry_Int_Tables_number   1
_chemical_formula_structural   MgMn4Zn2O8
_chemical_formula_sum   'Mg1 Mn4 Zn2 O8'
_cell_volume   177.61496025
_cell_formula_units_Z   1
loop_
 _symmetry_equiv_pos_site_id
 _symmetry_equiv_pos_as_xyz
  1  'x, y, z'
loop_
 _atom_site_type_symbol
 _atom_site_label
 _atom_site_symmetry_multiplicity
 _atom_site_fract_x
 _atom_site_fract_y
 _atom_site_fract_z
 _atom_site_occupancy
  Mg  Mg0  1  0.32074500  0.66899000  0.91249500  1
  Mn  Mn0  1  0.49811500  0.98954400  0.49774400  1
  Mn  Mn1  1  0.50355300  0.51230900  0.50263300  1
  Mn  Mn2  1  0.89226100  0.44480700  0.97408300  1
  Mn  Mn3  1  0.89591800  0.44376400  0.42124800  1
  Zn  Zn0  1  0.18176500  0.09369400  0.83990500  1
  Zn  Zn1  1  0.90203700  0.95058100  0.20072300  1
  O  O0  1  0.05696700  0.74484400  0.27658900  1
  O  O1  1  0.55530800  0.80131500  0.76944100  1
  O  O2  1  0.55830500  0.76172300  0.28984900  1
  O  O3  1  0.97050800  0.70274400  0.73347000  1
  O  O4  1  0.45422600  0.25162300  0.70599600  1
  O  O5  1  0.45564400  0.19774000  0.24395700  1
  O  O6  1  0.06618400  0.31467900  0.28397000  1
  O  O7  1  0.98012700  0.27789400  0.74372900  1
loop_
_geom_bond_atom_site_label_1
_geom_bond_atom_site_label_2
_geom_bond_distance
_geom_bond_site_symmetry_2
Mg0 O1 1.936195 1_555
Mg0 O2 1.938249 1_556
Mg0 O3 2.068566 1_455
Mg0 O7 2.077283 1_455
Mn0 O5 1.997154 1_565
Mn0 O1 1.998542 1_555
Mn0 O0 2.014615 1_555
Mn0 O7 2.215038 1_565
Mn0 O2 2.267563 1_555
Mn0 O4 2.353746 1_565
Mn1 O6 1.997041 1_555
Mn1 O2 2.003817 1_555
Mn1 O4 2.008772 1_555
Mn1 O3 2.145169 1_555
Mn1 O1 2.299465 1_555
Mn1 O5 2.405381 1_555
Mn2 O4 2.024438 1_555
Mn2 O6 2.054034 1_656
Mn2 O0 2.120321 1_656
Mn2 O3 2.187505 1_555
Mn2 O7 2.249395 1_555
Mn3 O5 2.027670 1_555
Mn3 O0 2.050699 1_655
Mn3 O6 2.126897 1_655
Mn3 O7 2.158084 1_555
Mn3 O3 2.285059 1_555
O0 Zn1 1.916902 1_455
O1 Zn1 2.251025 1_556
O2 Zn1 2.251772 1_555
O3 Zn0 2.031848 1_665
O4 Zn0 2.085441 1_555
O5 Zn0 2.079477 1_554
O6 Zn1 1.921160 1_445
O7 Zn0 2.016869 1_655
