# generated using pymatgen
data_LiMnP2O7
_symmetry_space_group_name_H-M   'P 1'
_cell_length_a   8.07030300
_cell_length_b   6.95283000
_cell_length_c   9.68128361
_cell_angle_alpha   67.62749931
_cell_angle_beta   90.00000000
_cell_angle_gamma   90.00000000
_symmetry_Int_Tables_number   1
_chemical_formula_structural   LiMnP2O7
_chemical_formula_sum   'Li4 Mn4 P8 O28'
_cell_volume   502.34118855
_cell_formula_units_Z   4
loop_
 _symmetry_equiv_pos_site_id
 _symmetry_equiv_pos_as_xyz
  1  'x, y, z'
loop_
 _atom_site_type_symbol
 _atom_site_label
 _atom_site_symmetry_multiplicity
 _atom_site_fract_x
 _atom_site_fract_y
 _atom_site_fract_z
 _atom_site_occupancy
  Li  Li0  1  0.12950700  0.79267600  0.02378300  1
  Li  Li1  1  0.37049300  0.79267600  0.52378300  1
  Li  Li2  1  0.62950700  0.20732400  0.47621700  1
  Li  Li3  1  0.87049300  0.20732400  0.97621700  1
  Mn  Mn0  1  0.76452000  0.72402500  0.49576200  1
  Mn  Mn1  1  0.73548000  0.72402500  0.99576200  1
  Mn  Mn2  1  0.26452000  0.27597500  0.00423800  1
  Mn  Mn3  1  0.23548000  0.27597500  0.50423800  1
  P  P0  1  0.46133900  0.04718100  0.79705600  1
  P  P1  1  0.03866100  0.04718100  0.29705600  1
  P  P2  1  0.58177900  0.45367300  0.80005700  1
  P  P3  1  0.08177900  0.54632700  0.69994300  1
  P  P4  1  0.53866100  0.95281900  0.20294400  1
  P  P5  1  0.96133900  0.95281900  0.70294400  1
  P  P6  1  0.91822100  0.45367300  0.30005700  1
  P  P7  1  0.41822100  0.54632700  0.19994300  1
  O  O0  1  0.91875000  0.61292800  0.13573000  1
  O  O1  1  0.06486200  0.15132000  0.65079400  1
  O  O2  1  0.31724000  0.04522400  0.89808900  1
  O  O3  1  0.59482700  0.22680800  0.78807200  1
  O  O4  1  0.58625900  0.90535500  0.36925400  1
  O  O5  1  0.93513800  0.84868000  0.34920600  1
  O  O6  1  0.68276000  0.95477600  0.10191100  1
  O  O7  1  0.40517300  0.77319200  0.21192800  1
  O  O8  1  0.91374100  0.90535500  0.86925400  1
  O  O9  1  0.56486200  0.84868000  0.84920600  1
  O  O10  1  0.81724000  0.95477600  0.60191100  1
  O  O11  1  0.41374100  0.09464500  0.63074600  1
  O  O12  1  0.77174500  0.46403400  0.39492900  1
  O  O13  1  0.08846200  0.46787200  0.36427900  1
  O  O14  1  0.09482700  0.77319200  0.71192800  1
  O  O15  1  0.58846200  0.53212800  0.13572100  1
  O  O16  1  0.27174500  0.53596600  0.10507100  1
  O  O17  1  0.41875000  0.38707200  0.36427000  1
  O  O18  1  0.08625900  0.09464500  0.13074600  1
  O  O19  1  0.72825500  0.46403400  0.89492900  1
  O  O20  1  0.41153800  0.46787200  0.86427900  1
  O  O21  1  0.90517300  0.22680800  0.28807200  1
  O  O22  1  0.91153800  0.53212800  0.63572100  1
  O  O23  1  0.22825500  0.53596600  0.60507100  1
  O  O24  1  0.08125000  0.38707200  0.86427000  1
  O  O25  1  0.18276000  0.04522400  0.39808900  1
  O  O26  1  0.43513800  0.15132000  0.15079400  1
  O  O27  1  0.58125000  0.61292800  0.63573000  1
loop_
_geom_bond_atom_site_label_1
_geom_bond_atom_site_label_2
_geom_bond_distance
_geom_bond_site_symmetry_2
Li0 O16 2.013319 1_555
Li0 O0 2.144380 1_455
Li0 O8 2.234232 1_454
Li0 O2 2.287547 1_564
Li1 O23 2.013319 1_555
Li1 O27 2.144380 1_555
Li1 O4 2.234232 1_555
Li1 O25 2.287547 1_565
Li2 O12 2.013319 1_555
Li2 O17 2.144380 1_555
Li2 O11 2.234232 1_555
Li2 O10 2.287547 1_545
Li3 O19 2.013319 1_555
Li3 O24 2.144380 1_655
Li3 O18 2.234232 1_656
Li3 O6 2.287547 1_546
Mn0 O22 1.909879 1_555
Mn0 O5 1.929804 1_555
Mn0 O27 1.955413 1_555
Mn0 O4 1.995922 1_555
Mn0 O10 2.250828 1_555
Mn0 O12 2.359528 1_555
Mn1 O15 1.909879 1_556
Mn1 O9 1.929804 1_555
Mn1 O0 1.955413 1_556
Mn1 O8 1.995922 1_555
Mn1 O6 2.250828 1_556
Mn1 O19 2.359528 1_555
Mn2 O20 1.909879 1_554
Mn2 O26 1.929804 1_555
Mn2 O24 1.955413 1_554
Mn2 O18 1.995922 1_555
Mn2 O2 2.250828 1_554
Mn2 O16 2.359528 1_555
Mn3 O13 1.909879 1_555
Mn3 O1 1.929804 1_555
Mn3 O17 1.955413 1_555
Mn3 O11 1.995922 1_555
Mn3 O25 2.250828 1_555
Mn3 O23 2.359528 1_555
O0 P6 1.554359 1_555
O1 P5 1.525533 1_445
O2 P0 1.516304 1_555
O3 P0 1.626412 1_555
O3 P2 1.628472 1_555
O4 P4 1.563450 1_555
O5 P1 1.525533 1_665
O6 P4 1.516304 1_555
O7 P4 1.626412 1_555
O7 P7 1.628472 1_555
O8 P5 1.563450 1_555
O9 P0 1.525533 1_565
O10 P5 1.516304 1_555
O11 P0 1.563450 1_555
O12 P6 1.515435 1_555
O13 P6 1.526643 1_455
O14 P5 1.626412 1_455
O14 P3 1.628472 1_555
O15 P7 1.526643 1_555
O16 P7 1.515435 1_555
O17 P7 1.554359 1_555
O18 P1 1.563450 1_555
O19 P2 1.515435 1_555
O20 P2 1.526643 1_555
O21 P1 1.626412 1_655
O21 P6 1.628472 1_555
O22 P3 1.526643 1_655
O23 P3 1.515435 1_555
O24 P3 1.554359 1_555
O25 P1 1.516304 1_555
O26 P4 1.525533 1_545
O27 P2 1.554359 1_555
