# generated using pymatgen
data_MgZn2Co2(SiO5)2
_symmetry_space_group_name_H-M   'P 1'
_cell_length_a   5.45566495
_cell_length_b   7.27165706
_cell_length_c   7.96137460
_cell_angle_alpha   91.72481184
_cell_angle_beta   46.28453068
_cell_angle_gamma   70.95840980
_symmetry_Int_Tables_number   1
_chemical_formula_structural   MgZn2Co2(SiO5)2
_chemical_formula_sum   'Mg1 Zn2 Co2 Si2 O10'
_cell_volume   200.12766974
_cell_formula_units_Z   1
loop_
 _symmetry_equiv_pos_site_id
 _symmetry_equiv_pos_as_xyz
  1  'x, y, z'
loop_
 _atom_site_type_symbol
 _atom_site_label
 _atom_site_symmetry_multiplicity
 _atom_site_fract_x
 _atom_site_fract_y
 _atom_site_fract_z
 _atom_site_occupancy
  Mg  Mg0  1  0.92061389  0.25686243  0.53760182  1
  Zn  Zn0  1  0.19451554  0.25716318  0.84456144  1
  Zn  Zn1  1  0.54083876  0.76029396  0.27996392  1
  Co  Co0  1  0.41876096  0.51735406  0.03511179  1
  Co  Co1  1  0.56017322  0.97569734  0.95435382  1
  Si  Si0  1  0.60513099  0.21887090  0.31501641  1
  Si  Si1  1  0.47006621  0.74664582  0.64655687  1
  O  O0  1  0.54422489  0.04358167  0.22276641  1
  O  O1  1  0.63378839  0.38380389  0.17046563  1
  O  O2  1  0.43877052  0.94478408  0.77621614  1
  O  O3  1  0.47963009  0.56015632  0.75152310  1
  O  O4  1  0.85243758  0.65150894  0.33494587  1
  O  O5  1  0.11919482  0.84057576  0.66992325  1
  O  O6  1  0.18609048  0.32553392  0.61453412  1
  O  O7  1  0.95368090  0.14143348  0.28639105  1
  O  O8  1  0.52303799  0.72722242  0.05258777  1
  O  O9  1  0.52196477  0.24897682  0.88480958  1
loop_
_geom_bond_atom_site_label_1
_geom_bond_atom_site_label_2
_geom_bond_distance
_geom_bond_site_symmetry_2
Mg0 O7 2.009592 1_555
Mg0 O9 2.038628 1_555
Mg0 O3 2.049664 1_555
Mg0 O6 2.098054 1_655
Mg0 O0 2.190752 1_655
Co0 O8 1.826221 1_555
Co0 O9 1.941302 1_554
Co0 O4 1.973625 1_455
Co0 O3 2.092384 1_554
Co0 O1 2.132466 1_555
Co1 O5 1.939056 1_655
Co1 O2 1.968966 1_555
Co1 O8 2.005549 1_556
Co1 O9 2.062620 1_565
Co1 O0 2.114051 1_566
Co1 O7 2.122613 1_466
O0 Si0 1.682807 1_555
O0 Zn1 2.126231 1_545
O1 Si0 1.656502 1_555
O1 Zn0 1.996453 1_654
O2 Si1 1.636142 1_555
O2 Zn0 2.044480 1_565
O3 Si1 1.619372 1_555
O4 Si1 1.669418 1_555
O4 Zn1 1.969563 1_555
O5 Si1 1.677038 1_555
O5 Zn1 2.101128 1_555
O6 Si0 1.646539 1_555
O6 Zn0 1.938895 1_555
O7 Si0 1.636949 1_555
O8 Zn1 1.891085 1_555
O9 Zn0 2.005140 1_555
