# generated using pymatgen
data_Y7(O2F3)3
_symmetry_space_group_name_H-M   'P 1'
_cell_length_a   19.91694733
_cell_length_b   19.91694733
_cell_length_c   5.52327100
_cell_angle_alpha   90.00000000
_cell_angle_beta   90.00000000
_cell_angle_gamma   163.89796584
_symmetry_Int_Tables_number   1
_chemical_formula_structural   Y7(O2F3)3
_chemical_formula_sum   'Y14 O12 F18'
_cell_volume   607.67047565
_cell_formula_units_Z   2
loop_
 _symmetry_equiv_pos_site_id
 _symmetry_equiv_pos_as_xyz
  1  'x, y, z'
loop_
 _atom_site_type_symbol
 _atom_site_label
 _atom_site_symmetry_multiplicity
 _atom_site_fract_x
 _atom_site_fract_y
 _atom_site_fract_z
 _atom_site_occupancy
  Y  Y0  1  0.43354400  0.93354400  0.74199400  1
  Y  Y1  1  0.93354400  0.43354400  0.25800600  1
  Y  Y2  1  0.07953800  0.41749800  0.73404000  1
  Y  Y3  1  0.41749800  0.07953800  0.26596000  1
  Y  Y4  1  0.57953800  0.91749800  0.26596000  1
  Y  Y5  1  0.91749800  0.57953800  0.73404000  1
  Y  Y6  1  0.15891300  0.35836400  0.30003800  1
  Y  Y7  1  0.35836400  0.15891300  0.69996200  1
  Y  Y8  1  0.65891300  0.85836400  0.69996200  1
  Y  Y9  1  0.85836400  0.65891300  0.30003800  1
  Y  Y10  1  0.21230000  0.26999200  0.73796300  1
  Y  Y11  1  0.26999200  0.21230000  0.26203700  1
  Y  Y12  1  0.71230000  0.76999200  0.26203700  1
  Y  Y13  1  0.76999200  0.71230000  0.73796300  1
  O  O0  1  0.65981300  0.37477900  0.47947400  1
  O  O1  1  0.98044500  0.98044500  0.00000000  1
  O  O2  1  0.37477900  0.65981300  0.52052600  1
  O  O3  1  0.48044500  0.48044500  0.00000000  1
  O  O4  1  0.87477900  0.15981300  0.47947400  1
  O  O5  1  0.15981300  0.87477900  0.52052600  1
  O  O6  1  0.40480100  0.54503500  0.53893500  1
  O  O7  1  0.54503500  0.40480100  0.46106500  1
  O  O8  1  0.90480100  0.04503500  0.46106500  1
  O  O9  1  0.04503500  0.90480100  0.53893500  1
  O  O10  1  0.99586000  0.99586000  0.50000000  1
  O  O11  1  0.49586000  0.49586000  0.50000000  1
  F  F0  1  0.15871300  0.00504400  0.04455600  1
  F  F1  1  0.65871300  0.50504400  0.95544400  1
  F  F2  1  0.50504400  0.65871300  0.04455600  1
  F  F3  1  0.00504400  0.15871300  0.95544400  1
  F  F4  1  0.08078600  0.79751500  0.03436400  1
  F  F5  1  0.79751500  0.08078600  0.96563600  1
  F  F6  1  0.58078600  0.29751500  0.96563600  1
  F  F7  1  0.29751500  0.58078600  0.03436400  1
  F  F8  1  0.81234200  0.41465200  0.09871800  1
  F  F9  1  0.41465200  0.81234200  0.90128200  1
  F  F10  1  0.55682800  0.05682800  0.12890800  1
  F  F11  1  0.91465200  0.31234200  0.09871800  1
  F  F12  1  0.18783600  0.75640200  0.44989700  1
  F  F13  1  0.75640200  0.18783600  0.55010300  1
  F  F14  1  0.68783600  0.25640200  0.55010300  1
  F  F15  1  0.25640200  0.68783600  0.44989700  1
  F  F16  1  0.05682800  0.55682800  0.87109200  1
  F  F17  1  0.31234200  0.91465200  0.90128200  1
loop_
_geom_bond_atom_site_label_1
_geom_bond_atom_site_label_2
_geom_bond_distance
_geom_bond_site_symmetry_2
O0 Y3 2.174534 1_555
O0 Y5 2.174936 1_555
O0 Y9 2.375629 1_555
O0 Y7 2.532572 1_555
O1 Y13 2.274072 1_554
O1 Y12 2.274072 1_555
O1 Y10 2.346160 1_664
O1 Y11 2.346160 1_665
O2 Y2 2.174534 1_555
O2 Y4 2.174936 1_555
O2 Y8 2.375629 1_555
O2 Y6 2.532572 1_555
O3 Y10 2.274072 1_554
O3 Y11 2.274072 1_555
O3 Y13 2.346160 1_554
O3 Y12 2.346160 1_555
O4 Y4 2.174534 1_545
O4 Y2 2.174936 1_655
O4 Y6 2.375629 1_655
O4 Y8 2.532572 1_545
O5 Y5 2.174534 1_455
O5 Y3 2.174936 1_565
O5 Y7 2.375629 1_565
O5 Y9 2.532572 1_455
O6 Y6 2.135583 1_555
O6 Y8 2.158752 1_555
O6 Y10 2.357760 1_555
O6 Y12 2.682294 1_555
O7 Y7 2.135583 1_555
O7 Y9 2.158752 1_555
O7 Y11 2.357760 1_555
O7 Y13 2.682294 1_555
O8 Y8 2.135583 1_545
O8 Y6 2.158752 1_655
O8 Y12 2.357760 1_545
O8 Y10 2.682294 1_655
O9 Y9 2.135583 1_455
O9 Y7 2.158752 1_565
O9 Y13 2.357760 1_455
O9 Y11 2.682294 1_565
O10 Y10 2.212351 1_665
O10 Y11 2.212351 1_665
O10 Y12 2.245266 1_555
O10 Y13 2.245266 1_555
O11 Y12 2.212351 1_555
O11 Y13 2.212351 1_555
O11 Y10 2.245266 1_555
O11 Y11 2.245266 1_555
F0 Y7 2.325960 1_554
F0 Y11 2.411394 1_555
F0 Y9 2.461370 1_445
F1 Y9 2.325960 1_556
F1 Y13 2.411394 1_555
F1 Y7 2.461370 1_555
F2 Y8 2.325960 1_554
F2 Y12 2.411394 1_555
F2 Y6 2.461370 1_555
F3 Y6 2.325960 1_556
F3 Y10 2.411394 1_555
F3 Y8 2.461370 1_445
F4 Y5 2.246280 1_454
F4 Y3 2.403810 1_565
F4 Y9 2.428943 1_455
F5 Y4 2.246280 1_546
F5 Y2 2.403810 1_655
F5 Y8 2.428943 1_545
F6 Y3 2.246280 1_556
F6 Y5 2.403810 1_555
F6 Y7 2.428943 1_555
F7 Y2 2.246280 1_554
F7 Y4 2.403810 1_555
F7 Y6 2.428943 1_555
F8 Y1 2.235516 1_555
F8 Y5 2.451931 1_554
F8 Y3 2.527216 1_555
F9 Y0 2.235516 1_555
F9 Y4 2.451931 1_556
F9 Y2 2.527216 1_555
F10 Y1 2.219336 1_555
F10 Y0 2.244985 1_544
F11 Y1 2.235516 1_555
F11 Y2 2.451931 1_654
F11 Y4 2.527216 1_545
F12 Y1 2.354479 1_455
F12 Y0 2.412979 1_555
F12 Y3 2.609199 1_565
F12 Y5 2.723446 1_455
F13 Y0 2.354479 1_545
F13 Y1 2.412979 1_555
F13 Y2 2.609199 1_655
F13 Y4 2.723446 1_545
F14 Y0 2.354479 1_545
F14 Y1 2.412979 1_555
F14 Y5 2.609199 1_555
F14 Y3 2.723446 1_555
F15 Y1 2.354479 1_455
F15 Y0 2.412979 1_555
F15 Y4 2.609199 1_555
F15 Y2 2.723446 1_555
F16 Y0 2.219336 1_555
F16 Y1 2.244985 1_456
F17 Y0 2.235516 1_555
F17 Y3 2.451931 1_566
F17 Y5 2.527216 1_455
