# generated using pymatgen
data_K2MoCl6
_symmetry_space_group_name_H-M   'P 1'
_cell_length_a   6.95288049
_cell_length_b   6.95287989
_cell_length_c   6.95287987
_cell_angle_alpha   60.00000007
_cell_angle_beta   60.00000290
_cell_angle_gamma   59.99998829
_symmetry_Int_Tables_number   1
_chemical_formula_structural   K2MoCl6
_chemical_formula_sum   'K2 Mo1 Cl6'
_cell_volume   237.67264053
_cell_formula_units_Z   1
loop_
 _symmetry_equiv_pos_site_id
 _symmetry_equiv_pos_as_xyz
  1  'x, y, z'
loop_
 _atom_site_type_symbol
 _atom_site_label
 _atom_site_symmetry_multiplicity
 _atom_site_fract_x
 _atom_site_fract_y
 _atom_site_fract_z
 _atom_site_occupancy
  K  K0  1  0.75000000  0.75000000  0.75000000  1
  K  K1  1  0.25000000  0.25000000  0.25000000  1
  Mo  Mo0  1  -0.00000000  0.00000000  0.00000000  1
  Cl  Cl0  1  0.24236367  0.75763633  0.75763633  1
  Cl  Cl1  1  0.24236367  0.75763633  0.24236367  1
  Cl  Cl2  1  0.75763633  0.24236367  0.75763633  1
  Cl  Cl3  1  0.75763633  0.24236367  0.24236367  1
  Cl  Cl4  1  0.75763633  0.75763633  0.24236367  1
  Cl  Cl5  1  0.24236367  0.24236367  0.75763633  1
loop_
_geom_bond_atom_site_label_1
_geom_bond_atom_site_label_2
_geom_bond_distance
_geom_bond_site_symmetry_2
Cl0 Mo0 2.383127 1_566
Cl0 K1 3.477251 1_556
Cl0 K1 3.477251 1_565
Cl0 K0 3.477251 1_555
Cl0 K0 3.477251 1_455
Cl1 Mo0 2.383127 1_565
Cl1 K1 3.477251 1_555
Cl1 K1 3.477251 1_565
Cl1 K0 3.477251 1_554
Cl1 K0 3.477251 1_455
Cl2 Mo0 2.383127 1_656
Cl2 K0 3.477251 1_555
Cl2 K0 3.477251 1_545
Cl2 K1 3.477251 1_556
Cl2 K1 3.477251 1_655
Cl3 Mo0 2.383127 1_655
Cl3 K0 3.477251 1_554
Cl3 K0 3.477251 1_545
Cl3 K1 3.477251 1_555
Cl3 K1 3.477251 1_655
Cl4 Mo0 2.383128 1_665
Cl4 K1 3.477250 1_655
Cl4 K1 3.477250 1_565
Cl4 K0 3.477251 1_555
Cl4 K0 3.477251 1_554
Cl5 Mo0 2.383128 1_556
Cl5 K0 3.477250 1_455
Cl5 K0 3.477250 1_545
Cl5 K1 3.477251 1_555
Cl5 K1 3.477251 1_556
