# generated using pymatgen
data_Na5Ta2Zn2SiP5O24
_symmetry_space_group_name_H-M   'P 1'
_cell_length_a   8.93182291
_cell_length_b   8.99348709
_cell_length_c   22.27792959
_cell_angle_alpha   89.83940810
_cell_angle_beta   89.91671525
_cell_angle_gamma   119.92303989
_symmetry_Int_Tables_number   1
_chemical_formula_structural   Na5Ta2Zn2SiP5O24
_chemical_formula_sum   'Na15 Ta6 Zn6 Si3 P15 O72'
_cell_volume   1550.97891905
_cell_formula_units_Z   3
loop_
 _symmetry_equiv_pos_site_id
 _symmetry_equiv_pos_as_xyz
  1  'x, y, z'
loop_
 _atom_site_type_symbol
 _atom_site_label
 _atom_site_symmetry_multiplicity
 _atom_site_fract_x
 _atom_site_fract_y
 _atom_site_fract_z
 _atom_site_occupancy
  Na  Na0  1  0.61888380  0.00263275  0.25120127  1
  Na  Na1  1  0.99872538  0.61370620  0.24914991  1
  Na  Na2  1  0.34707219  0.99959468  0.75167517  1
  Na  Na3  1  0.29613400  0.31153037  0.58551331  1
  Na  Na4  1  0.02249452  0.70844552  0.58814572  1
  Na  Na5  1  0.68305757  0.97718577  0.59053383  1
  Na  Na6  1  0.65086889  0.68794923  0.07718467  1
  Na  Na7  1  0.04200683  0.35161730  0.07919625  1
  Na  Na8  1  0.98019170  0.68138351  0.91135417  1
  Na  Na9  1  0.00615050  0.00091311  0.50601404  1
  Na  Na10  1  0.01144071  0.01255640  0.98702453  1
  Na  Na11  1  0.67035808  0.32819037  0.83249981  1
  Na  Na12  1  0.65491633  0.33551600  0.33978220  1
  Na  Na13  1  0.32742733  0.66635280  0.16439846  1
  Na  Na14  1  0.33816314  0.65807608  0.66990018  1
  Ta  Ta0  1  0.00387449  0.00274927  0.35821821  1
  Ta  Ta1  1  0.00409869  0.99854415  0.14442786  1
  Ta  Ta2  1  0.66769023  0.33014249  0.68564014  1
  Ta  Ta3  1  0.66351676  0.33086781  0.98070175  1
  Ta  Ta4  1  0.33426922  0.66955411  0.51492046  1
  Ta  Ta5  1  0.33946067  0.66683484  0.81593363  1
  Zn  Zn0  1  0.99722545  0.01175407  0.84680287  1
  Zn  Zn1  1  0.99730099  0.99860951  0.65682913  1
  Zn  Zn2  1  0.66531762  0.33538904  0.18526763  1
  Zn  Zn3  1  0.65867300  0.32818073  0.47973286  1
  Zn  Zn4  1  0.32865153  0.67438888  0.01657415  1
  Zn  Zn5  1  0.33400505  0.65992335  0.31592282  1
  Si  Si0  1  0.71161358  0.00026274  0.74908159  1
  Si  Si1  1  0.36878016  0.03953405  0.58081347  1
  Si  Si2  1  0.96289686  0.62458630  0.08698599  1
  P  P0  1  0.29264478  0.00436698  0.25109308  1
  P  P1  1  0.71007964  0.71207276  0.25143931  1
  P  P2  1  0.00358361  0.28935325  0.25031812  1
  P  P3  1  0.29545847  0.29685531  0.74890910  1
  P  P4  1  0.99802756  0.70026522  0.75197414  1
  P  P5  1  0.95871285  0.33569713  0.57923639  1
  P  P6  1  0.66569249  0.62168162  0.57951390  1
  P  P7  1  0.66382178  0.04147690  0.08742425  1
  P  P8  1  0.37749636  0.33149159  0.08558944  1
  P  P9  1  0.62651135  0.66554684  0.92182622  1
  P  P10  1  0.04149927  0.37001238  0.92066226  1
  P  P11  1  0.33295375  0.96191793  0.91734556  1
  P  P12  1  0.62584734  0.96254877  0.41144256  1
  P  P13  1  0.33647699  0.37670300  0.41354457  1
  P  P14  1  0.03650313  0.66258187  0.41196973  1
  O  O0  1  0.19165973  0.01572894  0.30683188  1
  O  O1  1  0.83120223  0.81738632  0.30535202  1
  O  O2  1  0.99066658  0.17186765  0.30513188  1
  O  O3  1  0.22454479  0.17313219  0.80121697  1
  O  O4  1  0.96855365  0.77387890  0.80874075  1
  O  O5  1  0.82304582  0.03751900  0.80743490  1
  O  O6  1  0.77437311  0.96437931  0.68601301  1
  O  O7  1  0.19795922  0.23513874  0.68989080  1
  O  O8  1  0.04579765  0.81350209  0.69560470  1
  O  O9  1  0.80962736  0.82704011  0.19337597  1
  O  O10  1  0.01509824  0.19249310  0.19251777  1
  O  O11  1  0.17429800  0.98832962  0.19483333  1
  O  O12  1  0.87158407  0.36808196  0.63670056  1
  O  O13  1  0.49727044  0.13140179  0.64131519  1
  O  O14  1  0.63492316  0.50422231  0.63664895  1
  O  O15  1  0.87941066  0.51306235  0.14650404  1
  O  O16  1  0.63980849  0.11554609  0.14498116  1
  O  O17  1  0.48684731  0.36019893  0.14013033  1
  O  O18  1  0.46401566  0.30021341  0.02821470  1
  O  O19  1  0.82736093  0.52571101  0.02751118  1
  O  O20  1  0.69243803  0.16549936  0.03187572  1
  O  O21  1  0.45471194  0.16402782  0.52587018  1
  O  O22  1  0.70012517  0.54422083  0.52571263  1
  O  O23  1  0.84832599  0.30787532  0.52556560  1
  O  O24  1  0.54419487  0.68174259  0.97891861  1
  O  O25  1  0.13563199  0.45049160  0.97864533  1
  O  O26  1  0.30236770  0.84962979  0.97163753  1
  O  O27  1  0.52997259  0.83786102  0.46866755  1
  O  O28  1  0.30662869  0.46462374  0.47221644  1
  O  O29  1  0.16154376  0.69088485  0.46907125  1
  O  O30  1  0.12169033  0.64827532  0.35529208  1
  O  O31  1  0.52363655  0.87891446  0.35530560  1
  O  O32  1  0.35190928  0.48090940  0.35904573  1
  O  O33  1  0.13640639  0.49871896  0.86648585  1
  O  O34  1  0.35949473  0.87155133  0.85978985  1
  O  O35  1  0.50744487  0.64621866  0.86614466  1
  O  O36  1  0.03156349  0.83784742  0.41140764  1
  O  O37  1  0.80665189  0.96694975  0.41057831  1
  O  O38  1  0.16198232  0.19353408  0.41168096  1
  O  O39  1  0.01654985  0.19371903  0.91156413  1
  O  O40  1  0.17637310  0.98384846  0.90775226  1
  O  O41  1  0.81073826  0.81057351  0.91357672  1
  O  O42  1  0.99096797  0.18557727  0.58847046  1
  O  O43  1  0.17446624  0.00396951  0.59183713  1
  O  O44  1  0.81448879  0.80514161  0.58805147  1
  O  O45  1  0.96466420  0.81355782  0.08928967  1
  O  O46  1  0.84420834  0.04200953  0.08844119  1
  O  O47  1  0.19210476  0.16515020  0.08883192  1
  O  O48  1  0.67271294  0.16727360  0.74164777  1
  O  O49  1  0.48590975  0.32731815  0.74012549  1
  O  O50  1  0.83944660  0.51754063  0.74071053  1
  O  O51  1  0.70608562  0.54176166  0.25037894  1
  O  O52  1  0.83374219  0.29254570  0.25136035  1
  O  O53  1  0.46970680  0.16330275  0.24851919  1
  O  O54  1  0.63369117  0.49048176  0.92268376  1
  O  O55  1  0.85782594  0.36479616  0.92318528  1
  O  O56  1  0.50448675  0.14110249  0.92264861  1
  O  O57  1  0.65517375  0.13975928  0.42115893  1
  O  O58  1  0.48732581  0.34799739  0.42079912  1
  O  O59  1  0.85915028  0.51317102  0.42220504  1
  O  O60  1  0.34908121  0.48368233  0.07699424  1
  O  O61  1  0.15071293  0.64810612  0.07822885  1
  O  O62  1  0.52322608  0.85741788  0.07792027  1
  O  O63  1  0.36216843  0.84729592  0.57508932  1
  O  O64  1  0.49051209  0.62937831  0.57535589  1
  O  O65  1  0.14160599  0.50821820  0.57593559  1
  O  O66  1  0.29625882  0.83617435  0.24984585  1
  O  O67  1  0.53919000  0.71066648  0.25135009  1
  O  O68  1  0.16189046  0.46742449  0.25038578  1
  O  O69  1  0.32068229  0.47992672  0.76230673  1
  O  O70  1  0.16078199  0.67384885  0.76079228  1
  O  O71  1  0.50539624  0.83244178  0.75931282  1
loop_
_geom_bond_atom_site_label_1
_geom_bond_atom_site_label_2
_geom_bond_distance
_geom_bond_site_symmetry_2
Na0 O52 2.342879 1_555
Na0 O67 2.353021 1_545
Na0 O53 2.405721 1_555
Na0 O66 2.498492 1_545
Na0 O31 2.525075 1_545
Na0 O16 2.541990 1_555
Na1 O51 2.358770 1_555
Na1 O66 2.400270 1_655
Na1 O68 2.401697 1_655
Na1 O15 2.498096 1_555
Na1 O52 2.503822 1_555
Na1 O30 2.562303 1_655
Na2 O48 2.530620 1_565
Na2 O71 2.531544 1_555
Na2 O70 2.554370 1_555
Na2 O3 2.561607 1_565
Na2 O49 2.576700 1_565
Na2 O8 2.670361 1_555
Na2 O34 2.693012 1_555
Na2 O13 2.763531 1_565
Na3 O42 2.373934 1_455
Na3 O43 2.418732 1_555
Na3 O7 2.456031 1_555
Na3 O64 2.506130 1_555
Na3 O21 2.722206 1_555
Na3 O65 2.741186 1_555
Na3 O28 2.850654 1_555
Na3 O14 2.871755 1_555
Na4 O43 2.305518 1_565
Na4 O44 2.412439 1_455
Na4 O65 2.522248 1_555
Na4 O8 2.546568 1_555
Na4 O63 2.657856 1_555
Na4 O22 2.861288 1_455
Na4 O12 2.866666 1_455
Na4 O29 2.965277 1_555
Na5 O6 2.302248 1_555
Na5 O44 2.363822 1_555
Na5 O42 2.436192 1_565
Na5 O63 2.522394 1_555
Na5 O64 2.738072 1_555
Na6 O62 2.314442 1_555
Na6 O24 2.378458 1_554
Na6 O60 2.387550 1_555
Na6 O45 2.459562 1_555
Na6 O46 2.775626 1_565
Na6 O19 2.852595 1_555
Na6 O17 2.909255 1_555
Na6 O9 2.921473 1_555
Na7 O61 2.338782 1_555
Na7 O60 2.384311 1_555
Na7 O25 2.397797 1_554
Na7 O46 2.450451 1_455
Na7 O47 2.626319 1_555
Na7 O10 2.848515 1_555
Na7 O20 2.909841 1_455
Na7 O15 2.928367 1_455
Na8 O41 2.323293 1_555
Na8 O40 2.391518 1_655
Na8 O4 2.450500 1_555
Na8 O55 2.502203 1_555
Na8 O54 2.698851 1_555
Na8 O33 2.817214 1_655
Na8 O26 2.837678 1_655
Na8 O19 2.929610 1_556
Na9 O43 2.425672 1_555
Na9 O44 2.517248 1_445
Na9 O42 2.528249 1_455
Na9 O38 2.630644 1_555
Na9 O36 2.644314 1_545
Na9 O37 2.694515 1_445
Na10 O39 2.322282 1_555
Na10 O40 2.393764 1_545
Na10 O41 2.442762 1_445
Na10 O47 2.729481 1_556
Na10 O46 2.791815 1_456
Na10 O45 2.792201 1_446
Na11 O48 2.497611 1_555
Na11 O55 2.541111 1_555
Na11 O56 2.558280 1_555
Na11 O54 2.601066 1_555
Na11 O50 2.601534 1_555
Na11 O49 2.635570 1_555
Na12 O58 2.381558 1_555
Na12 O59 2.523980 1_555
Na12 O57 2.524336 1_555
Na12 O53 2.596214 1_555
Na12 O51 2.597545 1_555
Na12 O52 2.681753 1_555
Na13 O61 2.440400 1_555
Na13 O68 2.527832 1_555
Na13 O66 2.544154 1_555
Na13 O62 2.587719 1_555
Na13 O67 2.598389 1_555
Na13 O60 2.619487 1_555
Na14 O71 2.519382 1_555
Na14 O69 2.561311 1_555
Na14 O64 2.588369 1_555
Na14 O70 2.616662 1_555
Na14 O65 2.635629 1_555
Na14 O63 2.649107 1_555
O0 P0 1.566956 1_555
O0 Ta0 1.983860 1_555
O1 P1 1.580473 1_555
O1 Ta0 1.999001 1_665
O2 P2 1.578493 1_655
O2 Ta0 1.973639 1_655
O3 P3 1.511519 1_555
O3 Zn0 2.075096 1_455
O4 P4 1.511467 1_555
O4 Zn0 2.196708 1_565
O5 Si0 1.570460 1_555
O5 Zn0 1.898867 1_555
O6 Si0 1.604130 1_565
O6 Zn1 1.966146 1_555
O7 P3 1.523269 1_555
O7 Zn1 2.118657 1_445
O8 P4 1.534262 1_455
O8 Zn1 2.101842 1_455
O9 P1 1.613948 1_555
O9 Ta1 1.974189 1_655
O10 P2 1.588331 1_555
O10 Ta1 2.009912 1_545
O11 P0 1.600566 1_565
O11 Ta1 1.929792 1_555
O12 P5 1.598326 1_555
O12 Ta2 1.998470 1_555
O13 Si1 1.697405 1_555
O13 Ta2 1.945942 1_555
O14 P6 1.585370 1_555
O14 Ta2 2.043623 1_555
O15 Si2 1.601138 1_555
O15 Zn2 1.973504 1_555
O16 P7 1.510112 1_555
O16 Zn2 2.080305 1_555
O17 P8 1.500201 1_555
O17 Zn2 1.990037 1_555
O18 P8 1.589371 1_555
O18 Ta3 1.968343 1_554
O19 Si2 1.717291 1_555
O19 Ta3 1.938032 1_554
O20 P7 1.596174 1_555
O20 Ta3 1.988206 1_554
O21 Si1 1.572624 1_555
O21 Zn3 1.964065 1_555
O22 P6 1.494608 1_555
O22 Zn3 2.063002 1_555
O23 P5 1.491084 1_555
O23 Zn3 2.063485 1_555
O24 P9 1.511516 1_555
O24 Zn4 2.069408 1_556
O25 P10 1.516788 1_555
O25 Zn4 2.071525 1_556
O26 P11 1.508087 1_555
O26 Zn4 1.975382 1_556
O27 P12 1.626906 1_555
O27 Ta4 1.937710 1_555
O28 P13 1.618603 1_555
O28 Ta4 1.979743 1_555
O29 P14 1.628710 1_555
O29 Ta4 1.938802 1_555
O30 P14 1.511817 1_555
O30 Zn5 2.042755 1_555
O31 P12 1.512199 1_555
O31 Zn5 2.050223 1_555
O32 P13 1.495209 1_555
O32 Zn5 1.946562 1_555
O33 P10 1.589149 1_555
O33 Ta5 2.022963 1_555
O34 P11 1.599362 1_555
O34 Ta5 2.014501 1_555
O35 P9 1.587635 1_555
O35 Ta5 1.954000 1_555
O36 P14 1.598729 1_555
O36 Ta0 2.005395 1_565
O37 P12 1.595626 1_555
O37 Ta0 1.998373 1_665
O38 P13 1.607359 1_555
O38 Ta0 1.988924 1_555
O39 P10 1.501321 1_555
O39 Zn0 2.126404 1_455
O40 P11 1.521956 1_555
O40 Zn0 2.207282 1_465
O41 P9 1.516295 1_555
O41 Zn0 2.287353 1_565
O42 P5 1.527993 1_555
O42 Zn1 2.287050 1_545
O43 Si1 1.618436 1_555
O43 Zn1 2.125927 1_445
O44 P6 1.529568 1_555
O44 Zn1 2.286719 1_555
O45 Si2 1.692617 1_555
O45 Ta1 1.956742 1_655
O46 P7 1.608989 1_555
O46 Ta1 2.075425 1_645
O47 P8 1.585176 1_555
O47 Ta1 2.017987 1_545
O48 Si0 1.709860 1_555
O48 Ta2 1.939033 1_555
O49 P3 1.593985 1_555
O49 Ta2 2.015722 1_555
O50 P4 1.565522 1_555
O50 Ta2 2.033874 1_555
O51 P1 1.514463 1_555
O51 Zn2 2.241386 1_555
O52 P2 1.531662 1_655
O52 Zn2 2.271791 1_555
O53 P0 1.513776 1_555
O53 Zn2 2.171709 1_555
O54 P9 1.607459 1_555
O54 Ta3 2.043114 1_555
O55 P10 1.618536 1_655
O55 Ta3 2.051840 1_555
O56 P11 1.580055 1_545
O56 Ta3 2.049900 1_555
O57 P12 1.497025 1_545
O57 Zn3 2.129550 1_555
O58 P13 1.501853 1_555
O58 Zn3 2.091515 1_555
O59 P14 1.496839 1_655
O59 Zn3 2.150814 1_555
O60 P8 1.523067 1_555
O60 Zn4 2.255380 1_555
O61 Si2 1.594285 1_455
O61 Zn4 2.021248 1_555
O62 P7 1.513531 1_565
O62 Zn4 2.182451 1_555
O63 Si1 1.705347 1_565
O63 Ta4 2.007412 1_555
O64 P6 1.603134 1_555
O64 Ta4 2.096805 1_555
O65 P5 1.597383 1_455
O65 Ta4 2.098889 1_555
O66 P0 1.529325 1_565
O66 Zn5 2.305369 1_555
O67 P1 1.520091 1_555
O67 Zn5 2.188750 1_555
O68 P2 1.518189 1_555
O68 Zn5 2.203999 1_555
O69 P3 1.575918 1_555
O69 Ta5 2.002898 1_555
O70 P4 1.597932 1_455
O70 Ta5 2.041008 1_555
O71 Si0 1.716352 1_565
O71 Ta5 1.946218 1_555
