# generated using pymatgen
data_LiMn2P3O10
_symmetry_space_group_name_H-M   'P 1'
_cell_length_a   8.78363500
_cell_length_b   4.70195600
_cell_length_c   9.21161124
_cell_angle_alpha   82.58455110
_cell_angle_beta   90.00000000
_cell_angle_gamma   90.00000000
_symmetry_Int_Tables_number   1
_chemical_formula_structural   LiMn2P3O10
_chemical_formula_sum   'Li2 Mn4 P6 O20'
_cell_volume   377.26012301
_cell_formula_units_Z   2
loop_
 _symmetry_equiv_pos_site_id
 _symmetry_equiv_pos_as_xyz
  1  'x, y, z'
loop_
 _atom_site_type_symbol
 _atom_site_label
 _atom_site_symmetry_multiplicity
 _atom_site_fract_x
 _atom_site_fract_y
 _atom_site_fract_z
 _atom_site_occupancy
  Li  Li0  1  0.00000000  0.00000000  0.00000000  1
  Li  Li1  1  0.50000000  0.00000000  0.00000000  1
  Mn  Mn0  1  0.06451500  0.96467900  0.33212200  1
  Mn  Mn1  1  0.43548500  0.96467900  0.33212200  1
  Mn  Mn2  1  0.56451500  0.03532100  0.66787800  1
  Mn  Mn3  1  0.93548500  0.03532100  0.66787800  1
  P  P0  1  0.75000000  0.32959500  0.17597100  1
  P  P1  1  0.25000000  0.40012700  0.53731600  1
  P  P2  1  0.25000000  0.54396000  0.13916700  1
  P  P3  1  0.75000000  0.45604000  0.86083300  1
  P  P4  1  0.25000000  0.67040500  0.82402900  1
  P  P5  1  0.75000000  0.59987300  0.46268400  1
  O  O0  1  0.89648400  0.15900900  0.18285000  1
  O  O1  1  0.60351600  0.15900900  0.18285000  1
  O  O2  1  0.25000000  0.25138700  0.23452000  1
  O  O3  1  0.39602200  0.22855400  0.51845400  1
  O  O4  1  0.10351600  0.84099100  0.81715000  1
  O  O5  1  0.39648400  0.84099100  0.81715000  1
  O  O6  1  0.75000000  0.74861300  0.76548000  1
  O  O7  1  0.60397800  0.77144600  0.48154600  1
  O  O8  1  0.89602200  0.77144600  0.48154600  1
  O  O9  1  0.25000000  0.69702300  0.44694700  1
  O  O10  1  0.10456500  0.71873400  0.15140700  1
  O  O11  1  0.39543500  0.71873400  0.15140700  1
  O  O12  1  0.25000000  0.44785500  0.97258400  1
  O  O13  1  0.75000000  0.55475300  0.29001600  1
  O  O14  1  0.25000000  0.44524700  0.70998400  1
  O  O15  1  0.75000000  0.55214500  0.02741600  1
  O  O16  1  0.60456500  0.28126600  0.84859300  1
  O  O17  1  0.89543500  0.28126600  0.84859300  1
  O  O18  1  0.75000000  0.30297700  0.55305300  1
  O  O19  1  0.10397800  0.22855400  0.51845400  1
loop_
_geom_bond_atom_site_label_1
_geom_bond_atom_site_label_2
_geom_bond_distance
_geom_bond_site_symmetry_2
Li0 O10 2.015356 1_545
Li0 O17 2.015356 1_454
Li0 O0 2.132554 1_455
Li0 O4 2.132554 1_544
Li1 O11 2.015356 1_545
Li1 O16 2.015356 1_554
Li1 O1 2.132554 1_555
Li1 O5 2.132554 1_544
Mn0 O0 2.140015 1_465
Mn0 O8 2.141872 1_455
Mn0 O10 2.174655 1_555
Mn0 O2 2.228725 1_565
Mn0 O9 2.239065 1_555
Mn0 O19 2.270541 1_565
Mn1 O1 2.140015 1_565
Mn1 O7 2.141872 1_555
Mn1 O11 2.174655 1_555
Mn1 O2 2.228725 1_565
Mn1 O9 2.239065 1_555
Mn1 O3 2.270541 1_565
Mn2 O5 2.140015 1_545
Mn2 O3 2.141872 1_555
Mn2 O16 2.174655 1_555
Mn2 O6 2.228725 1_545
Mn2 O18 2.239065 1_555
Mn2 O7 2.270541 1_545
Mn3 O4 2.140015 1_645
Mn3 O19 2.141872 1_655
Mn3 O17 2.174655 1_555
Mn3 O6 2.228725 1_545
Mn3 O18 2.239065 1_555
Mn3 O8 2.270541 1_545
O0 P0 1.513189 1_555
O1 P0 1.513189 1_555
O2 P2 1.533644 1_555
O3 P1 1.536963 1_555
O4 P4 1.513189 1_555
O5 P4 1.513189 1_555
O6 P3 1.533644 1_555
O7 P5 1.536963 1_555
O8 P5 1.536963 1_555
O9 P1 1.530292 1_555
O10 P2 1.530955 1_555
O11 P2 1.530955 1_555
O12 P4 1.611823 1_555
O12 P2 1.654650 1_556
O13 P0 1.584779 1_555
O13 P5 1.631552 1_555
O14 P4 1.584779 1_555
O14 P1 1.631552 1_555
O15 P0 1.611823 1_555
O15 P3 1.654650 1_554
O16 P3 1.530955 1_555
O17 P3 1.530955 1_555
O18 P5 1.530292 1_555
O19 P1 1.536963 1_555
