# generated using pymatgen
data_NdMn12
_symmetry_space_group_name_H-M   'P 1'
_cell_length_a   4.72366301
_cell_length_b   6.37099475
_cell_length_c   6.37099486
_cell_angle_alpha   82.10081178
_cell_angle_beta   68.24019633
_cell_angle_gamma   68.24020255
_symmetry_Int_Tables_number   1
_chemical_formula_structural   NdMn12
_chemical_formula_sum   'Nd1 Mn12'
_cell_volume   165.38170527
_cell_formula_units_Z   1
loop_
 _symmetry_equiv_pos_site_id
 _symmetry_equiv_pos_as_xyz
  1  'x, y, z'
loop_
 _atom_site_type_symbol
 _atom_site_label
 _atom_site_symmetry_multiplicity
 _atom_site_fract_x
 _atom_site_fract_y
 _atom_site_fract_z
 _atom_site_occupancy
  Nd  Nd0  1  0.00000000  0.00000000  0.00000000  1
  Mn  Mn0  1  0.73313000  0.76687000  0.76687000  1
  Mn  Mn1  1  0.50000000  0.00000000  0.50000000  1
  Mn  Mn2  1  0.00000000  0.50000000  0.00000000  1
  Mn  Mn3  1  0.50000000  0.50000000  0.00000000  1
  Mn  Mn4  1  0.00000000  0.00000000  0.50000000  1
  Mn  Mn5  1  0.36695400  0.63304600  0.63304600  1
  Mn  Mn6  1  0.00000000  0.36695400  0.63304600  1
  Mn  Mn7  1  0.00000000  0.63304600  0.36695400  1
  Mn  Mn8  1  0.63304600  0.36695400  0.36695400  1
  Mn  Mn9  1  0.26687000  0.23313000  0.23313000  1
  Mn  Mn10  1  0.50000000  0.76687000  0.23313000  1
  Mn  Mn11  1  0.50000000  0.23313000  0.76687000  1
loop_
_geom_bond_atom_site_label_1
_geom_bond_atom_site_label_2
_geom_bond_distance
_geom_bond_site_symmetry_2
Mn0 Mn4 2.406430 1_665
Mn0 Mn3 2.406430 1_556
Mn0 Mn1 2.406430 1_565
Mn0 Mn2 2.406430 1_656
Mn0 Mn7 2.495290 1_655
Mn0 Mn6 2.495290 1_655
Mn0 Mn5 2.613862 1_655
Mn0 Mn5 2.613862 1_555
Mn0 Mn10 2.758878 1_556
Mn0 Mn11 2.758878 1_565
Mn0 Nd0 3.063323 1_566
Mn0 Nd0 3.063324 1_666
Mn1 Mn4 2.361832 1_555
Mn1 Mn4 2.361832 1_655
Mn1 Mn10 2.406430 1_545
Mn1 Mn11 2.406430 1_555
Mn1 Mn9 2.406430 1_555
Mn1 Mn6 2.593986 1_555
Mn1 Mn7 2.593986 1_645
Mn1 Mn5 2.593986 1_545
Mn1 Mn8 2.593986 1_555
Mn1 Nd0 3.185497 1_556
Mn1 Nd0 3.185497 1_655
Mn2 Mn3 2.361832 1_455
Mn2 Mn3 2.361832 1_555
Mn2 Mn9 2.406430 1_555
Mn2 Mn5 2.593986 1_554
Mn2 Mn8 2.593986 1_455
Mn2 Mn7 2.593986 1_555
Mn2 Mn6 2.593986 1_554
Mn2 Nd0 3.185497 1_565
Mn2 Nd0 3.185497 1_555
Mn3 Mn9 2.406430 1_555
Mn3 Mn7 2.593986 1_555
Mn3 Mn6 2.593986 1_654
Mn3 Mn5 2.593986 1_554
Mn3 Mn8 2.593986 1_555
Mn3 Nd0 3.185497 1_565
Mn3 Nd0 3.185497 1_655
Mn4 Mn9 2.406430 1_555
Mn4 Mn7 2.593986 1_545
Mn4 Mn6 2.593986 1_555
Mn4 Mn5 2.593986 1_545
Mn4 Mn8 2.593986 1_455
Mn4 Nd0 3.185497 1_555
Mn4 Nd0 3.185497 1_556
Mn5 Mn8 2.226645 1_555
Mn5 Mn7 2.838525 1_655
Mn5 Mn6 2.838525 1_555
Mn5 Mn6 2.838525 1_655
Mn5 Mn7 2.838525 1_555
Mn5 Nd0 3.070654 1_566
Mn6 Mn7 2.226646 1_555
Mn6 Mn9 2.495290 1_555
Mn6 Mn8 2.838525 1_555
Mn6 Mn8 2.838525 1_455
Mn6 Nd0 3.070654 1_556
Mn7 Mn9 2.495290 1_555
Mn7 Mn8 2.838525 1_455
Mn7 Mn8 2.838525 1_555
Mn7 Nd0 3.070654 1_565
Mn8 Mn9 2.613862 1_655
Mn8 Mn9 2.613862 1_555
Mn8 Nd0 3.070654 1_655
Mn9 Nd0 3.063323 1_655
Mn9 Nd0 3.063324 1_555
Mn10 Mn4 2.406430 1_565
Mn10 Mn2 2.406430 1_655
Mn10 Mn3 2.406430 1_555
Mn10 Mn5 2.495290 1_555
Mn10 Mn8 2.495290 1_555
Mn10 Mn7 2.613862 1_555
Mn10 Mn7 2.613862 1_655
Mn10 Mn9 2.758878 1_565
Mn10 Nd0 3.063323 1_665
Mn10 Nd0 3.063324 1_565
Mn11 Mn4 2.406430 1_655
Mn11 Mn2 2.406430 1_556
Mn11 Mn3 2.406430 1_556
Mn11 Mn8 2.495290 1_555
Mn11 Mn5 2.495290 1_555
Mn11 Mn6 2.613862 1_655
Mn11 Mn6 2.613862 1_555
Mn11 Mn9 2.758878 1_556
Mn11 Nd0 3.063323 1_556
Mn11 Nd0 3.063324 1_656
