# generated using pymatgen
data_CaAsPt
_symmetry_space_group_name_H-M   'P 1'
_cell_length_a   4.19091784
_cell_length_b   4.19091618
_cell_length_c   22.21793092
_cell_angle_alpha   95.41183778
_cell_angle_beta   95.41183538
_cell_angle_gamma   89.99999922
_symmetry_Int_Tables_number   1
_chemical_formula_structural   CaAsPt
_chemical_formula_sum   'Ca6 As6 Pt6'
_cell_volume   386.74423914
_cell_formula_units_Z   6
loop_
 _symmetry_equiv_pos_site_id
 _symmetry_equiv_pos_as_xyz
  1  'x, y, z'
loop_
 _atom_site_type_symbol
 _atom_site_label
 _atom_site_symmetry_multiplicity
 _atom_site_fract_x
 _atom_site_fract_y
 _atom_site_fract_z
 _atom_site_occupancy
  Ca  Ca0  1  0.99951542  0.99951542  0.99902984  1
  Ca  Ca1  1  0.74951542  0.24951542  0.49902984  1
  Ca  Ca2  1  0.16579419  0.16579419  0.33158837  1
  Ca  Ca3  1  0.91579419  0.41579419  0.83158837  1
  Ca  Ca4  1  0.83283903  0.83283903  0.66567806  1
  Ca  Ca5  1  0.58283903  0.08283903  0.16567806  1
  As  As0  1  0.69362255  0.69362255  0.38724409  1
  As  As1  1  0.27713611  0.77713611  0.55427122  1
  As  As2  1  0.52713611  0.52713611  0.05427122  1
  As  As3  1  0.44362255  0.94362255  0.88724409  1
  As  As4  1  0.11007048  0.61007048  0.22014296  1
  As  As5  1  0.36007048  0.36007048  0.72014296  1
  Pt  Pt0  1  0.38825370  0.88825370  0.77650641  1
  Pt  Pt1  1  0.63825370  0.63825370  0.27650641  1
  Pt  Pt2  1  0.47209975  0.47209975  0.94420049  1
  Pt  Pt3  1  0.05466778  0.55466778  0.10933656  1
  Pt  Pt4  1  0.30466778  0.30466778  0.60933656  1
  Pt  Pt5  1  0.22209975  0.72209975  0.44420049  1
loop_
_geom_bond_atom_site_label_1
_geom_bond_atom_site_label_2
_geom_bond_distance
_geom_bond_site_symmetry_2
Ca0 Pt2 3.199915 1_665
Ca0 Pt2 3.199920 1_655
Ca0 Pt2 3.199920 1_565
Ca0 Pt2 3.199926 1_555
Ca0 Pt3 3.207870 1_666
Ca0 Pt3 3.207876 1_656
Ca1 Pt5 3.199915 1_655
Ca1 Pt5 3.199920 1_645
Ca1 Pt5 3.199920 1_555
Ca1 Pt5 3.199926 1_545
Ca1 Pt4 3.207870 1_655
Ca1 Pt4 3.207876 1_555
Ca2 Pt1 3.202020 1_445
Ca2 Pt1 3.202023 1_545
Ca2 Pt1 3.202023 1_455
Ca2 Pt1 3.202026 1_555
Ca2 Pt5 3.246477 1_555
Ca2 Pt5 3.246480 1_545
Ca3 Pt0 3.202020 1_545
Ca3 Pt0 3.202023 1_645
Ca3 Pt0 3.202023 1_555
Ca3 Pt0 3.202026 1_655
Ca3 Pt2 3.246477 1_655
Ca3 Pt2 3.246480 1_555
Ca4 Pt4 3.212628 1_665
Ca4 Pt4 3.212631 1_655
Ca4 Pt4 3.212631 1_565
Ca4 Pt4 3.212634 1_555
Ca4 Pt0 3.216578 1_555
Ca4 Pt0 3.216580 1_655
Ca5 Pt3 3.212628 1_655
Ca5 Pt3 3.212631 1_645
Ca5 Pt3 3.212631 1_555
Ca5 Pt3 3.212634 1_545
Ca5 Pt1 3.216577 1_545
Ca5 Pt1 3.216579 1_555
As0 Pt1 2.438379 1_555
As0 Pt5 2.442092 1_655
As0 Pt5 2.442099 1_555
As0 Ca2 3.206827 1_665
As0 Ca2 3.206830 1_655
As0 Ca2 3.206830 1_565
As0 Ca2 3.206832 1_555
As0 Ca1 3.232601 1_565
As0 Ca1 3.232602 1_555
As1 Pt4 2.420970 1_565
As1 Pt4 2.420978 1_555
As1 Pt5 2.423693 1_555
As1 Ca1 3.203354 1_455
As1 Ca1 3.203354 1_555
As1 Ca1 3.203354 1_465
As1 Ca1 3.203355 1_565
As1 Ca4 3.226252 1_555
As1 Ca4 3.226255 1_455
As2 Pt3 2.420971 1_655
As2 Pt3 2.420979 1_555
As2 Pt2 2.423693 1_554
As2 Ca0 3.203354 1_444
As2 Ca0 3.203354 1_544
As2 Ca0 3.203354 1_454
As2 Ca0 3.203355 1_554
As2 Ca5 3.226251 1_565
As2 Ca5 3.226255 1_555
As3 Pt0 2.438379 1_555
As3 Pt2 2.442091 1_565
As3 Pt2 2.442099 1_555
As3 Ca3 3.206827 1_565
As3 Ca3 3.206830 1_555
As3 Ca3 3.206830 1_465
As3 Ca3 3.206832 1_455
As3 Ca0 3.232602 1_555
As3 Ca0 3.232602 1_455
As4 Pt1 2.435411 1_455
As4 Pt1 2.435422 1_555
As4 Pt3 2.439892 1_555
As4 Ca5 3.196896 1_455
As4 Ca5 3.196901 1_555
As4 Ca5 3.196901 1_465
As4 Ca5 3.196907 1_565
As4 Ca2 3.226896 1_555
As4 Ca2 3.226901 1_565
As5 Pt0 2.435410 1_545
As5 Pt0 2.435421 1_555
As5 Pt4 2.439892 1_555
As5 Ca4 3.196896 1_445
As5 Ca4 3.196901 1_545
As5 Ca4 3.196901 1_455
As5 Ca4 3.196907 1_555
As5 Ca3 3.226897 1_455
As5 Ca3 3.226902 1_555
