# generated using pymatgen
data_Na10Al4In4Si5S7O48
_symmetry_space_group_name_H-M   'P 1'
_cell_length_a   17.72281881
_cell_length_b   8.91497896
_cell_length_c   22.33319384
_cell_angle_alpha   89.58127215
_cell_angle_beta   88.88533520
_cell_angle_gamma   120.01976341
_symmetry_Int_Tables_number   1
_chemical_formula_structural   Na10Al4In4Si5S7O48
_chemical_formula_sum   'Na30 Al12 In12 Si15 S21 O144'
_cell_volume   3054.08919183
_cell_formula_units_Z   3
loop_
 _symmetry_equiv_pos_site_id
 _symmetry_equiv_pos_as_xyz
  1  'x, y, z'
loop_
 _atom_site_type_symbol
 _atom_site_label
 _atom_site_symmetry_multiplicity
 _atom_site_fract_x
 _atom_site_fract_y
 _atom_site_fract_z
 _atom_site_occupancy
  Na  Na0  1  0.32738526  -0.00000826  0.24926616  1
  Na  Na1  1  0.82220291  0.99852920  0.25420443  1
  Na  Na2  1  0.18493503  0.37647495  0.24042998  1
  Na  Na3  1  0.67578555  0.36257442  0.24484299  1
  Na  Na4  1  0.99316689  0.63394657  0.26151573  1
  Na  Na5  1  0.49636553  0.62478135  0.25943254  1
  Na  Na6  1  0.82757243  0.65166137  0.74323968  1
  Na  Na7  1  0.99335767  0.35916932  0.75627922  1
  Na  Na8  1  0.49753339  0.35319905  0.75781683  1
  Na  Na9  1  0.17700217  0.98993937  0.73999612  1
  Na  Na10  1  0.01997257  0.71118718  0.58505304  1
  Na  Na11  1  0.32997483  0.97339272  0.59090906  1
  Na  Na12  1  0.02244992  0.32822460  0.08297493  1
  Na  Na13  1  0.51453302  0.33103597  0.08635991  1
  Na  Na14  1  0.16158039  0.30207640  0.92758139  1
  Na  Na15  1  0.66454557  0.30071216  0.92716225  1
  Na  Na16  1  0.16290443  0.01732257  0.42702724  1
  Na  Na17  1  0.66135560  0.02960359  0.42562536  1
  Na  Na18  1  0.99381042  0.99530576  0.50240101  1
  Na  Na19  1  0.51063209  0.99310730  0.49569651  1
  Na  Na20  1  0.00297028  0.00304777  0.00070933  1
  Na  Na21  1  0.50128679  0.99602646  0.00547598  1
  Na  Na22  1  0.34600487  0.33295840  0.83559584  1
  Na  Na23  1  0.84745679  0.31875814  0.82998597  1
  Na  Na24  1  0.35243860  0.36722904  0.33812231  1
  Na  Na25  1  0.84606600  0.36159861  0.33958358  1
  Na  Na26  1  0.17568848  0.66136982  0.16909465  1
  Na  Na27  1  0.67693421  0.65930798  0.16578467  1
  Na  Na28  1  0.17154792  0.67242548  0.66814652  1
  Na  Na29  1  0.68062174  0.71451425  0.65871441  1
  Al  Al0  1  0.48548605  0.96939766  0.34761220  1
  Al  Al1  1  0.00152958  0.99244975  0.64733143  1
  Al  Al2  1  0.49940547  0.01482631  0.15359476  1
  Al  Al3  1  0.33042361  0.32061166  0.68008676  1
  Al  Al4  1  0.82970190  0.31289228  0.68388424  1
  Al  Al5  1  0.33821990  0.35268074  0.18820693  1
  Al  Al6  1  0.33772998  0.34845019  0.48242935  1
  Al  Al7  1  0.83732301  0.34962781  0.48387196  1
  Al  Al8  1  0.66137952  0.64497676  0.01941089  1
  Al  Al9  1  0.65788397  0.70151908  0.51769696  1
  Al  Al10  1  0.16051251  0.64817859  0.31563559  1
  Al  Al11  1  0.65125846  0.62548710  0.31691662  1
  In  In0  1  0.98792591  0.98469519  0.35287208  1
  In  In1  1  0.98886965  0.99027322  0.84667305  1
  In  In2  1  0.49606652  0.01489008  0.85082136  1
  In  In3  1  0.50784435  0.00277250  0.64268622  1
  In  In4  1  0.99815821  0.00341677  0.15506330  1
  In  In5  1  0.82787070  0.33510355  0.18274249  1
  In  In6  1  0.33818912  0.33608187  0.98638152  1
  In  In7  1  0.83219607  0.33225839  0.98462712  1
  In  In8  1  0.16948418  0.65212029  0.01954310  1
  In  In9  1  0.16508417  0.66949801  0.51827318  1
  In  In10  1  0.16188431  0.66711991  0.81193957  1
  In  In11  1  0.66815580  0.68190276  0.81428295  1
  Si  Si0  1  0.35505160  0.71107767  0.25032407  1
  Si  Si1  1  0.84230388  0.69677818  0.25418187  1
  Si  Si2  1  0.00227761  0.30668127  0.25115548  1
  Si  Si3  1  0.49657515  0.28233486  0.25108536  1
  Si  Si4  1  0.99274089  0.69581390  0.74204200  1
  Si  Si5  1  0.35346341  0.00983726  0.74207880  1
  Si  Si6  1  0.85456838  0.00519973  0.74255969  1
  Si  Si7  1  0.18789827  0.05862799  0.58073277  1
  Si  Si8  1  0.69659247  0.05622728  0.57899957  1
  Si  Si9  1  0.18972655  0.32773262  0.08769518  1
  Si  Si10  1  0.67520484  0.32448698  0.08342772  1
  Si  Si11  1  0.01330100  0.35736304  0.91648957  1
  Si  Si12  1  0.52075844  0.37850593  0.91804505  1
  Si  Si13  1  0.01579643  0.65817312  0.41798945  1
  Si  Si14  1  0.51689391  0.66707989  0.41529136  1
  S  S0  1  0.15539456  0.00194742  0.25222586  1
  S  S1  1  0.63736496  0.99125795  0.25193149  1
  S  S2  1  0.15243813  0.29133576  0.74334048  1
  S  S3  1  0.65409340  0.29672976  0.74916102  1
  S  S4  1  0.49334164  0.69250353  0.74742651  1
  S  S5  1  0.47927381  0.35027841  0.57979924  1
  S  S6  1  0.97369366  0.32319112  0.58406264  1
  S  S7  1  0.33255900  0.60996385  0.58267566  1
  S  S8  1  0.82990053  0.61957244  0.58207121  1
  S  S9  1  0.48465310  0.64100170  0.08713059  1
  S  S10  1  0.98569759  0.64101118  0.08379094  1
  S  S11  1  0.33584468  0.03804818  0.09003096  1
  S  S12  1  0.82507765  0.01390619  0.08199296  1
  S  S13  1  0.31819166  0.66881659  0.91440860  1
  S  S14  1  0.81093256  0.67014489  0.92056505  1
  S  S15  1  0.16707432  0.96534648  0.91649962  1
  S  S16  1  0.66430204  0.95322652  0.92048703  1
  S  S17  1  0.31911209  0.96378270  0.41430481  1
  S  S18  1  0.80603848  0.95351767  0.41897008  1
  S  S19  1  0.17160584  0.37777242  0.41548428  1
  S  S20  1  0.66655031  0.38187667  0.41951496  1
  O  O0  1  0.11961906  0.04327182  0.30594230  1
  O  O1  1  0.59848458  0.02189872  0.30676908  1
  O  O2  1  0.41773308  0.78118429  0.30766264  1
  O  O3  1  0.91582576  0.76806849  0.30503750  1
  O  O4  1  0.47896015  0.14495355  0.30580123  1
  O  O5  1  0.98074151  0.17460849  0.30747211  1
  O  O6  1  0.12198986  0.19275418  0.80162503  1
  O  O7  1  0.62101374  0.19609029  0.80691116  1
  O  O8  1  0.48530776  0.77185850  0.80322851  1
  O  O9  1  0.97203921  0.77062846  0.80338840  1
  O  O10  1  0.41856746  0.06410281  0.79867615  1
  O  O11  1  0.90836689  0.05626203  0.80490705  1
  O  O12  1  0.39607807  0.97908169  0.68103117  1
  O  O13  1  0.91042234  0.97514670  0.68972833  1
  O  O14  1  0.09287078  0.19509114  0.69479704  1
  O  O15  1  0.59276775  0.21195541  0.70041772  1
  O  O16  1  0.01547925  0.82964628  0.68509764  1
  O  O17  1  0.51007738  0.80211871  0.69418354  1
  O  O18  1  0.40277634  0.84752334  0.19413857  1
  O  O19  1  0.88114867  0.82531439  0.19468222  1
  O  O20  1  0.02877642  0.24307212  0.18977200  1
  O  O21  1  0.51900331  0.21072382  0.18995519  1
  O  O22  1  0.09662865  0.95661111  0.20075093  1
  O  O23  1  0.58593848  0.97407836  0.19844149  1
  O  O24  1  0.44070784  0.36988137  0.63768796  1
  O  O25  1  0.93311956  0.35415283  0.63824644  1
  O  O26  1  0.25031629  0.14782061  0.63801867  1
  O  O27  1  0.75018724  0.15288104  0.63786958  1
  O  O28  1  0.33071947  0.51383021  0.63746160  1
  O  O29  1  0.81903965  0.52019985  0.63847776  1
  O  O30  1  0.44187232  0.51520595  0.13949312  1
  O  O31  1  0.94756946  0.53281920  0.13946127  1
  O  O32  1  0.32835432  0.13032579  0.14217261  1
  O  O33  1  0.81195240  0.08308388  0.13941230  1
  O  O34  1  0.25112793  0.33917374  0.14315067  1
  O  O35  1  0.73258856  0.35953439  0.14304058  1
  O  O36  1  0.22868448  0.31781644  0.02158660  1
  O  O37  1  0.71837318  0.29607115  0.02240003  1
  O  O38  1  0.43352533  0.57100053  0.03241186  1
  O  O39  1  0.93520777  0.55269925  0.03077093  1
  O  O40  1  0.35594211  0.14460406  0.03371367  1
  O  O41  1  0.84450140  0.13894531  0.03202332  1
  O  O42  1  0.23981064  0.16850210  0.51883917  1
  O  O43  1  0.74415955  0.17205714  0.51824156  1
  O  O44  1  0.33848768  0.52580891  0.52769607  1
  O  O45  1  0.84919499  0.53523627  0.53041455  1
  O  O46  1  0.42023351  0.32724025  0.53000200  1
  O  O47  1  0.92533128  0.31337835  0.52975634  1
  O  O48  1  0.28246987  0.69879893  0.97094585  1
  O  O49  1  0.75978505  0.68025913  0.97195822  1
  O  O50  1  0.07179402  0.44383725  0.97668491  1
  O  O51  1  0.58049796  0.48405808  0.97420534  1
  O  O52  1  0.16399486  0.86479863  0.97054148  1
  O  O53  1  0.66220570  0.84809189  0.97221270  1
  O  O54  1  0.28496149  0.86533884  0.47318475  1
  O  O55  1  0.75937181  0.84033904  0.47205828  1
  O  O56  1  0.16163444  0.45756690  0.47104200  1
  O  O57  1  0.65688054  0.47435484  0.47086111  1
  O  O58  1  0.07291624  0.70343133  0.47937987  1
  O  O59  1  0.58275211  0.71213310  0.47136243  1
  O  O60  1  0.07090158  0.64323939  0.36002912  1
  O  O61  1  0.56366745  0.63597247  0.35537027  1
  O  O62  1  0.25923869  0.87114337  0.36507547  1
  O  O63  1  0.75954917  0.87250612  0.36315570  1
  O  O64  1  0.18044026  0.48345847  0.36142782  1
  O  O65  1  0.67779139  0.48128102  0.36136916  1
  O  O66  1  0.05895717  0.46319800  0.85357123  1
  O  O67  1  0.56137771  0.47127151  0.85231110  1
  O  O68  1  0.17911699  0.89222190  0.86009966  1
  O  O69  1  0.67839007  0.89130089  0.86241598  1
  O  O70  1  0.26719722  0.65906343  0.86207348  1
  O  O71  1  0.76787683  0.65676231  0.86262539  1
  O  O72  1  0.01230152  0.84018632  0.41409683  1
  O  O73  1  0.51179322  0.84857928  0.40598908  1
  O  O74  1  0.40633966  0.98511267  0.40646272  1
  O  O75  1  0.89514501  0.97666144  0.42125945  1
  O  O76  1  0.09462653  0.20090967  0.41299084  1
  O  O77  1  0.59011174  0.20533481  0.41503684  1
  O  O78  1  0.01251450  0.17207999  0.91432068  1
  O  O79  1  0.51911972  0.18983536  0.92006516  1
  O  O80  1  0.08619166  0.97486745  0.91537133  1
  O  O81  1  0.58161773  0.95914329  0.91965587  1
  O  O82  1  0.40908734  0.81570944  0.91117383  1
  O  O83  1  0.89842943  0.82146516  0.92221707  1
  O  O84  1  0.48374858  0.18767132  0.58118874  1
  O  O85  1  0.98244666  0.16773141  0.58930881  1
  O  O86  1  0.08803609  0.02903252  0.58769633  1
  O  O87  1  0.59660015  0.03069526  0.57915165  1
  O  O88  1  0.40849961  0.78937436  0.58106905  1
  O  O89  1  0.91096270  0.79570223  0.58468570  1
  O  O90  1  0.49440316  0.81115089  0.09828686  1
  O  O91  1  0.99067240  0.80907661  0.08779158  1
  O  O92  1  0.41221849  0.01216465  0.09454671  1
  O  O93  1  0.90399249  0.99614497  0.08357640  1
  O  O94  1  0.08970864  0.15918769  0.08815950  1
  O  O95  1  0.57803935  0.14983519  0.09198216  1
  O  O96  1  0.34339495  0.18496092  0.73570873  1
  O  O97  1  0.84078779  0.17109600  0.73557100  1
  O  O98  1  0.24164225  0.31754643  0.73349400  1
  O  O99  1  0.74152459  0.32083392  0.73875904  1
  O  O100  1  0.41362404  0.51918938  0.74174197  1
  O  O101  1  0.90652192  0.50430536  0.73206037  1
  O  O102  1  0.34154841  0.51509647  0.23975369  1
  O  O103  1  0.82478793  0.49961743  0.24839258  1
  O  O104  1  0.41149239  0.31158184  0.24095429  1
  O  O105  1  0.91222857  0.31642299  0.24416666  1
  O  O106  1  0.24298361  0.15645253  0.24048329  1
  O  O107  1  0.72773332  0.14379361  0.24783183  1
  O  O108  1  0.31899054  0.50442774  0.91708869  1
  O  O109  1  0.81486368  0.50742499  0.92351732  1
  O  O110  1  0.42281808  0.35057156  0.92144819  1
  O  O111  1  0.91783153  0.34313504  0.92031204  1
  O  O112  1  0.24254338  0.14566282  0.91787182  1
  O  O113  1  0.73787012  0.13543199  0.92215106  1
  O  O114  1  0.32343660  0.13573781  0.41907728  1
  O  O115  1  0.81254541  0.12648254  0.42169899  1
  O  O116  1  0.25137432  0.36071264  0.41792058  1
  O  O117  1  0.74689845  0.36499871  0.42221700  1
  O  O118  1  0.42087062  0.49239561  0.42824564  1
  O  O119  1  0.91967834  0.48183866  0.42759352  1
  O  O120  1  0.17783001  0.50207096  0.08942401  1
  O  O121  1  0.66400415  0.49826943  0.07570182  1
  O  O122  1  0.07480392  0.66371072  0.08014581  1
  O  O123  1  0.57184683  0.65350459  0.07939104  1
  O  O124  1  0.25397704  0.86923955  0.08519765  1
  O  O125  1  0.74571282  0.84445180  0.07186774  1
  O  O126  1  0.18008554  0.86106528  0.58194324  1
  O  O127  1  0.68359392  0.85857775  0.57462381  1
  O  O128  1  0.25112506  0.62298327  0.58338320  1
  O  O129  1  0.75176209  0.63453020  0.57313403  1
  O  O130  1  0.06369996  0.48269355  0.58225918  1
  O  O131  1  0.56761806  0.50314442  0.57223848  1
  O  O132  1  0.16806971  0.85037126  0.26172098  1
  O  O133  1  0.64634807  0.83432885  0.25601029  1
  O  O134  1  0.25764741  0.69117073  0.26332405  1
  O  O135  1  0.74813929  0.69024734  0.26700447  1
  O  O136  1  0.08740567  0.50044413  0.25981820  1
  O  O137  1  0.58222610  0.47650482  0.25976366  1
  O  O138  1  0.15824106  0.46290831  0.74621018  1
  O  O139  1  0.66244625  0.47035013  0.75339254  1
  O  O140  1  0.07835132  0.67086807  0.74554873  1
  O  O141  1  0.56949682  0.66060167  0.74893539  1
  O  O142  1  0.25595474  0.84234200  0.75091903  1
  O  O143  1  0.76061772  0.81895893  0.74758952  1
loop_
_geom_bond_atom_site_label_1
_geom_bond_atom_site_label_2
_geom_bond_distance
_geom_bond_site_symmetry_2
Na0 O134 2.402787 1_545
Na0 O104 2.410651 1_555
Na0 O132 2.454468 1_545
Na0 O106 2.513307 1_555
Na0 O18 2.631793 1_545
Na0 O32 2.647377 1_555
Na0 O4 2.676340 1_555
Na0 O62 2.813262 1_545
Na1 O135 2.392121 1_555
Na1 O105 2.465756 1_565
Na1 O107 2.583916 1_565
Na1 O19 2.614035 1_555
Na1 O63 2.649997 1_555
Na1 O133 2.699477 1_555
Na1 O33 2.701953 1_565
Na1 O5 2.741925 1_565
Na2 O102 2.407795 1_555
Na2 O134 2.494400 1_555
Na2 O136 2.507176 1_555
Na2 O34 2.551187 1_555
Na2 O106 2.631547 1_555
Na2 O20 2.683636 1_555
Na2 O64 2.885059 1_555
Na2 O0 2.955410 1_555
Na3 O103 2.292114 1_555
Na3 O137 2.358110 1_555
Na3 O35 2.474365 1_555
Na3 O107 2.540369 1_555
Na3 O135 2.592370 1_555
Na3 O21 2.729283 1_555
Na3 O65 2.810675 1_555
Na3 O1 2.952159 1_555
Na4 O3 2.420398 1_555
Na4 O136 2.488899 1_655
Na4 O105 2.489063 1_555
Na4 O60 2.598417 1_655
Na4 O103 2.624601 1_555
Na4 O132 2.710648 1_655
Na4 O22 2.836693 1_655
Na4 O31 2.879031 1_555
Na5 O133 2.362761 1_555
Na5 O61 2.450893 1_555
Na5 O102 2.458931 1_555
Na5 O104 2.463254 1_555
Na5 O137 2.464947 1_555
Na5 O2 2.637098 1_555
Na5 O30 2.873490 1_555
Na6 O143 2.326036 1_555
Na6 O101 2.361412 1_555
Na6 O139 2.542474 1_555
Na6 O99 2.558120 1_555
Na6 O29 2.597490 1_555
Na6 O9 2.631027 1_555
Na6 O13 2.746861 1_555
Na6 O71 2.858410 1_555
Na7 O140 2.415796 1_655
Na7 O97 2.420779 1_555
Na7 O66 2.445786 1_655
Na7 O101 2.519869 1_555
Na7 O11 2.562033 1_555
Na7 O138 2.590823 1_655
Na7 O25 2.855511 1_555
Na8 O141 2.379321 1_555
Na8 O10 2.395949 1_555
Na8 O67 2.403234 1_555
Na8 O96 2.433002 1_555
Na8 O139 2.564327 1_555
Na8 O100 2.597140 1_555
Na8 O15 2.853687 1_555
Na8 O24 2.912609 1_555
Na9 O142 2.366373 1_555
Na9 O140 2.484675 1_555
Na9 O98 2.550083 1_565
Na9 O96 2.566063 1_565
Na9 O26 2.619994 1_565
Na9 O16 2.794455 1_555
Na9 O6 2.803964 1_565
Na9 O68 2.820894 1_555
Na10 O89 2.399430 1_455
Na10 O126 2.457555 1_555
Na10 O86 2.464321 1_565
Na10 O16 2.495092 1_555
Na10 O130 2.516637 1_555
Na10 O58 2.536936 1_555
Na11 O12 2.336636 1_555
Na11 O126 2.336994 1_555
Na11 O84 2.425965 1_565
Na11 O88 2.637079 1_555
Na11 O128 2.718188 1_555
Na11 O26 2.771444 1_565
Na11 O54 2.797594 1_555
Na12 O94 2.346369 1_555
Na12 O120 2.398802 1_555
Na12 O20 2.519277 1_555
Na12 O50 2.538420 1_554
Na12 O93 2.636568 1_445
Na12 O122 2.651097 1_555
Na13 O121 2.305505 1_555
Na13 O95 2.390363 1_555
Na13 O92 2.494856 1_555
Na13 O123 2.527039 1_555
Na13 O21 2.562304 1_555
Na13 O40 2.743644 1_555
Na13 O51 2.782438 1_554
Na13 O30 2.801207 1_555
Na14 O78 2.319954 1_555
Na14 O36 2.403365 1_556
Na14 O108 2.454522 1_555
Na14 O112 2.458600 1_555
Na14 O80 2.548481 1_545
Na14 O50 2.701208 1_555
Na14 O6 2.964424 1_555
Na15 O79 2.261412 1_555
Na15 O37 2.356462 1_556
Na15 O109 2.361547 1_555
Na15 O113 2.405219 1_555
Na15 O81 2.645685 1_545
Na15 O7 2.841613 1_555
Na15 O51 2.897354 1_555
Na16 O72 2.349567 1_545
Na16 O42 2.487894 1_555
Na16 O114 2.492549 1_555
Na16 O76 2.496038 1_555
Na16 O116 2.654641 1_555
Na16 O58 2.674937 1_545
Na16 O0 2.864251 1_555
Na16 O62 2.947581 1_545
Na17 O73 2.366028 1_545
Na17 O115 2.368025 1_555
Na17 O77 2.467800 1_555
Na17 O43 2.517232 1_555
Na17 O117 2.588623 1_555
Na17 O59 2.636586 1_545
Na17 O1 2.886778 1_555
Na18 O89 2.435637 1_555
Na18 O86 2.477409 1_665
Na18 O75 2.491202 1_555
Na18 O72 2.525309 1_655
Na18 O85 2.551240 1_565
Na18 O76 2.658978 1_665
Na19 O87 2.348663 1_565
Na19 O73 2.395213 1_555
Na19 O77 2.448188 1_565
Na19 O88 2.595392 1_555
Na19 O74 2.721512 1_555
Na19 O84 2.778673 1_565
Na20 O78 2.389876 1_554
Na20 O94 2.475998 1_555
Na20 O80 2.477747 1_544
Na20 O93 2.503985 1_445
Na20 O83 2.508583 1_444
Na20 O91 2.525348 1_445
Na21 O95 2.395338 1_565
Na21 O79 2.470973 1_564
Na21 O81 2.485954 1_554
Na21 O92 2.564917 1_565
Na21 O90 2.601289 1_555
Na21 O82 2.691613 1_554
Na22 O110 2.333719 1_555
Na22 O112 2.507415 1_555
Na22 O100 2.539018 1_555
Na22 O108 2.572437 1_555
Na22 O96 2.589473 1_555
Na22 O98 2.924700 1_555
Na23 O111 2.346337 1_555
Na23 O97 2.467310 1_555
Na23 O101 2.596226 1_555
Na23 O113 2.701691 1_555
Na23 O99 2.803395 1_555
Na23 O109 2.915910 1_555
Na24 O118 2.353899 1_555
Na24 O116 2.481493 1_555
Na24 O104 2.549036 1_555
Na24 O114 2.576807 1_555
Na24 O102 2.613436 1_555
Na24 O106 2.937018 1_555
Na25 O119 2.333602 1_555
Na25 O103 2.502279 1_555
Na25 O117 2.534464 1_555
Na25 O105 2.542838 1_555
Na25 O115 2.600966 1_555
Na25 O107 2.918579 1_555
Na26 O120 2.296171 1_555
Na26 O124 2.478982 1_555
Na26 O136 2.489915 1_555
Na26 O134 2.519943 1_555
Na26 O122 2.705250 1_555
Na26 O132 2.721079 1_555
Na27 O121 2.427360 1_555
Na27 O125 2.538958 1_555
Na27 O135 2.559407 1_555
Na27 O137 2.637098 1_555
Na27 O123 2.690537 1_555
Na27 O133 2.763783 1_555
Na28 O140 2.362654 1_555
Na28 O142 2.414701 1_555
Na28 O138 2.465679 1_555
Na28 O126 2.498836 1_555
Na28 O128 2.509429 1_555
Na28 O130 2.673714 1_555
Na29 O127 2.252197 1_555
Na29 O143 2.373249 1_555
Na29 O129 2.564530 1_555
Na29 O141 2.655928 1_555
Na29 O131 2.778341 1_555
Na29 O139 2.918470 1_555
Al0 O2 1.760923 1_555
Al0 O4 1.870491 1_565
Al0 O73 1.892843 1_555
Al0 O74 1.960158 1_555
Al0 O1 2.011594 1_565
Al0 O77 2.526325 1_565
Al1 O13 1.793510 1_455
Al1 O16 1.796748 1_555
Al1 O86 1.909079 1_565
Al1 O14 2.043636 1_565
Al1 O85 2.179825 1_465
Al1 O89 2.217318 1_455
Al2 O21 1.804107 1_555
Al2 O18 1.827950 1_545
Al2 O95 1.872708 1_555
Al2 O23 2.024586 1_545
Al2 O92 2.042133 1_555
Al2 O90 2.169457 1_545
Al3 O26 1.776510 1_555
Al3 O96 1.823662 1_555
Al3 O98 1.944905 1_555
Al3 O28 1.959640 1_555
Al3 O24 1.993162 1_555
Al3 O100 2.169555 1_555
Al4 O27 1.772906 1_555
Al4 O97 1.790269 1_555
Al4 O101 1.918941 1_555
Al4 O25 1.944413 1_555
Al4 O99 1.996644 1_555
Al4 O29 2.192986 1_555
Al5 O34 1.812651 1_555
Al5 O102 1.834884 1_555
Al5 O104 1.933291 1_555
Al5 O30 1.973197 1_555
Al5 O106 2.052130 1_555
Al5 O32 2.169562 1_555
Al6 O118 1.816093 1_555
Al6 O42 1.840321 1_555
Al6 O44 1.877467 1_555
Al6 O46 1.907018 1_555
Al6 O116 2.163504 1_555
Al6 O114 2.287910 1_555
Al7 O43 1.771715 1_555
Al7 O119 1.812437 1_555
Al7 O45 1.883618 1_555
Al7 O47 2.036927 1_555
Al7 O117 2.187661 1_555
Al7 O115 2.295273 1_555
Al8 O51 1.775363 1_554
Al8 O121 1.825460 1_555
Al8 O49 1.907351 1_554
Al8 O125 2.051308 1_555
Al8 O53 2.082105 1_554
Al8 O123 2.087465 1_555
Al9 O59 1.740986 1_555
Al9 O127 1.787357 1_555
Al9 O55 1.867770 1_555
Al9 O131 2.057283 1_555
Al9 O57 2.278456 1_555
Al9 O129 2.391912 1_555
Al10 O136 1.829395 1_555
Al10 O60 1.837195 1_555
Al10 O134 1.931416 1_555
Al10 O64 1.959104 1_555
Al10 O132 2.106504 1_555
Al10 O62 2.204292 1_555
Al11 O61 1.802938 1_555
Al11 O137 1.830219 1_555
Al11 O135 1.856936 1_555
Al11 O65 1.861147 1_555
Al11 O133 2.335357 1_555
Al11 O63 2.341095 1_555
In0 O5 2.026423 1_565
In0 O3 2.029222 1_555
In0 O72 2.066416 1_655
In0 O75 2.196475 1_555
In0 O0 2.344335 1_665
In0 O76 2.362947 1_665
In1 O11 2.033545 1_565
In1 O9 2.076579 1_555
In1 O78 2.113268 1_665
In1 O83 2.263722 1_555
In1 O6 2.335928 1_665
In1 O80 2.384263 1_655
In2 O10 2.023100 1_555
In2 O79 2.100734 1_555
In2 O82 2.119286 1_545
In2 O7 2.188125 1_555
In2 O8 2.342763 1_545
In2 O81 2.396383 1_545
In3 O87 2.016398 1_555
In3 O12 2.052887 1_545
In3 O17 2.136990 1_545
In3 O15 2.169688 1_555
In3 O88 2.322470 1_545
In3 O84 2.340916 1_555
In4 O19 2.053730 1_545
In4 O20 2.083403 1_655
In4 O94 2.101058 1_655
In4 O22 2.247791 1_645
In4 O91 2.256608 1_545
In4 O93 2.309806 1_545
In5 O35 2.026984 1_555
In5 O103 2.100518 1_555
In5 O105 2.114321 1_555
In5 O31 2.166881 1_555
In5 O107 2.237476 1_555
In5 O33 2.339251 1_555
In6 O36 2.008402 1_556
In6 O110 2.021891 1_555
In6 O40 2.157382 1_556
In6 O38 2.203647 1_556
In6 O108 2.293582 1_555
In6 O112 2.314255 1_555
In7 O111 2.035154 1_555
In7 O37 2.040516 1_556
In7 O41 2.120480 1_556
In7 O39 2.184027 1_556
In7 O109 2.204706 1_555
In7 O113 2.238723 1_555
In8 O50 2.057976 1_554
In8 O120 2.103188 1_555
In8 O48 2.106153 1_554
In8 O122 2.178387 1_555
In8 O52 2.227191 1_554
In8 O124 2.316380 1_555
In9 O58 2.014957 1_555
In9 O56 2.145258 1_555
In9 O126 2.145965 1_555
In9 O54 2.180716 1_555
In9 O130 2.217030 1_555
In9 O128 2.306916 1_555
In10 O66 2.021900 1_555
In10 O142 2.086020 1_555
In10 O140 2.127311 1_555
In10 O68 2.169875 1_555
In10 O70 2.226352 1_555
In10 O138 2.323476 1_555
In11 O67 2.046230 1_555
In11 O143 2.066825 1_555
In11 O69 2.090797 1_555
In11 O71 2.192347 1_555
In11 O141 2.234808 1_555
In11 O139 2.295286 1_555
O0 S0 1.479022 1_555
O1 S1 1.486512 1_545
O2 Si0 1.623837 1_555
O3 Si1 1.622112 1_555
O4 Si3 1.634446 1_555
O5 Si2 1.619848 1_655
O6 S2 1.496451 1_555
O7 S3 1.496487 1_555
O8 S4 1.476697 1_555
O9 Si4 1.641700 1_555
O10 Si5 1.634076 1_555
O11 Si6 1.637608 1_555
O12 Si5 1.636159 1_565
O13 Si6 1.633512 1_565
O14 S2 1.475741 1_555
O15 S3 1.474327 1_555
O16 Si4 1.637086 1_455
O17 S4 1.461549 1_555
O18 Si0 1.636004 1_555
O19 Si1 1.644866 1_555
O20 Si2 1.635315 1_555
O21 Si3 1.635532 1_555
O22 S0 1.483857 1_565
O23 S1 1.478710 1_555
O24 S5 1.502527 1_555
O25 S6 1.492394 1_555
O26 Si7 1.637862 1_555
O27 Si8 1.618477 1_555
O28 S7 1.479118 1_555
O29 S8 1.487430 1_555
O30 S9 1.515134 1_555
O31 S10 1.493436 1_555
O32 S11 1.472303 1_555
O33 S12 1.490768 1_555
O34 Si9 1.634532 1_555
O35 Si10 1.626409 1_555
O36 Si9 1.639406 1_555
O37 Si10 1.632641 1_555
O38 S9 1.480650 1_555
O39 S10 1.473971 1_555
O40 S11 1.495905 1_555
O41 S12 1.479671 1_555
O42 Si7 1.656994 1_555
O43 Si8 1.637741 1_555
O44 S7 1.472714 1_555
O45 S8 1.505897 1_555
O46 S5 1.485755 1_555
O47 S6 1.476563 1_555
O48 S13 1.486508 1_555
O49 S14 1.479876 1_555
O50 Si11 1.657100 1_555
O51 Si12 1.628368 1_555
O52 S15 1.481832 1_555
O53 S16 1.470377 1_555
O54 S17 1.512079 1_555
O55 S18 1.489017 1_555
O56 S19 1.485587 1_555
O57 S20 1.473633 1_555
O58 Si13 1.649469 1_555
O59 Si14 1.639182 1_555
O60 Si13 1.652427 1_555
O61 Si14 1.657476 1_555
O62 S17 1.482777 1_555
O63 S18 1.487263 1_555
O64 S19 1.482602 1_555
O65 S20 1.519142 1_555
O66 Si11 1.640710 1_555
O67 Si12 1.644011 1_555
O68 S15 1.482519 1_555
O69 S16 1.478136 1_555
O70 S13 1.467796 1_555
O71 S14 1.490123 1_555
O72 Si13 1.656225 1_555
O73 Si14 1.676793 1_555
O74 S17 1.466811 1_555
O75 S18 1.488752 1_555
O76 S19 1.484015 1_555
O77 S20 1.482046 1_555
O78 Si11 1.645941 1_555
O79 Si12 1.667916 1_555
O80 S15 1.478442 1_555
O81 S16 1.492953 1_555
O82 S13 1.482722 1_555
O83 S14 1.461385 1_555
O84 S5 1.491032 1_555
O85 S6 1.473779 1_555
O86 Si7 1.657584 1_555
O87 Si8 1.669870 1_555
O88 S7 1.488030 1_555
O89 S8 1.510072 1_555
O90 S9 1.462115 1_555
O91 S10 1.459706 1_555
O92 S11 1.487626 1_555
O93 S12 1.485199 1_565
O94 Si9 1.653466 1_555
O95 Si10 1.651133 1_555
O96 Si5 1.663128 1_555
O97 Si6 1.621996 1_555
O98 S2 1.489443 1_555
O99 S3 1.467403 1_555
O100 S4 1.491674 1_555
O101 Si4 1.645571 1_555
O102 Si0 1.659955 1_555
O103 Si1 1.631396 1_555
O104 Si3 1.672953 1_555
O105 Si2 1.651379 1_655
O106 S0 1.488342 1_555
O107 S1 1.495294 1_545
O108 S13 1.473450 1_555
O109 S14 1.487777 1_555
O110 Si12 1.625665 1_555
O111 Si11 1.632691 1_655
O112 S15 1.491629 1_545
O113 S16 1.491144 1_545
O114 S17 1.500798 1_545
O115 S18 1.489439 1_545
O116 S19 1.497569 1_555
O117 S20 1.507199 1_555
O118 Si14 1.651510 1_555
O119 Si13 1.649379 1_655
O120 Si9 1.670330 1_555
O121 Si10 1.665700 1_555
O122 S10 1.488787 1_455
O123 S9 1.499096 1_555
O124 S11 1.485014 1_565
O125 S12 1.484234 1_565
O126 Si7 1.696204 1_565
O127 Si8 1.662720 1_565
O128 S7 1.504464 1_555
O129 S8 1.473270 1_555
O130 S6 1.514989 1_455
O131 S5 1.479360 1_555
O132 S0 1.490919 1_565
O133 S1 1.487436 1_555
O134 Si0 1.664038 1_555
O135 Si1 1.659650 1_555
O136 Si2 1.645013 1_555
O137 Si3 1.650873 1_555
O138 S2 1.482749 1_555
O139 S3 1.483243 1_555
O140 Si4 1.643064 1_455
O141 S4 1.513071 1_555
O142 Si5 1.629573 1_565
O143 Si6 1.662997 1_565
