# generated using pymatgen
data_CeAl3Ni2
_symmetry_space_group_name_H-M   'P 1'
_cell_length_a   5.25037546
_cell_length_b   5.25037546
_cell_length_c   4.01627272
_cell_angle_alpha   90.00000000
_cell_angle_beta   90.00000000
_cell_angle_gamma   119.99999999
_symmetry_Int_Tables_number   1
_chemical_formula_structural   CeAl3Ni2
_chemical_formula_sum   'Ce1 Al3 Ni2'
_cell_volume   95.88144048
_cell_formula_units_Z   1
loop_
 _symmetry_equiv_pos_site_id
 _symmetry_equiv_pos_as_xyz
  1  'x, y, z'
loop_
 _atom_site_type_symbol
 _atom_site_label
 _atom_site_symmetry_multiplicity
 _atom_site_fract_x
 _atom_site_fract_y
 _atom_site_fract_z
 _atom_site_occupancy
  Ce  Ce0  1  -0.00000000  -0.00000000  -0.00000000  1
  Al  Al0  1  0.50000000  -0.00000000  0.50000000  1
  Al  Al1  1  0.50000000  0.50000000  0.50000000  1
  Al  Al2  1  -0.00000000  0.50000000  0.50000000  1
  Ni  Ni0  1  0.66666700  0.33333300  0.00000000  1
  Ni  Ni1  1  0.33333300  0.66666700  -0.00000000  1
loop_
_geom_bond_atom_site_label_1
_geom_bond_atom_site_label_2
_geom_bond_distance
_geom_bond_site_symmetry_2
Ce0 Ni1 3.031303 1_545
Ce0 Ni0 3.031303 1_455
Ce0 Ni0 3.031307 1_555
Ce0 Ni1 3.031307 1_445
Ce0 Ni1 3.031307 1_555
Ce0 Ni0 3.031307 1_445
Al0 Ni1 2.515911 1_546
Al0 Ni0 2.515911 1_555
Al0 Ni0 2.515911 1_556
Al0 Ni1 2.515911 1_545
Al0 Al2 2.625188 1_545
Al0 Al2 2.625188 1_655
Al0 Al1 2.625188 1_545
Al0 Al1 2.625188 1_555
Al0 Ce0 3.305181 1_656
Al0 Ce0 3.305181 1_556
Al0 Ce0 3.305181 1_555
Al0 Ce0 3.305181 1_655
Al1 Ni0 2.515914 1_556
Al1 Ni1 2.515914 1_555
Al1 Ni0 2.515914 1_555
Al1 Ni1 2.515914 1_556
Al1 Al2 2.625188 1_555
Al1 Al2 2.625188 1_655
Al1 Ce0 3.305181 1_666
Al1 Ce0 3.305181 1_556
Al1 Ce0 3.305181 1_555
Al1 Ce0 3.305181 1_665
Al2 Ni0 2.515911 1_455
Al2 Ni1 2.515911 1_556
Al2 Ni0 2.515911 1_456
Al2 Ni1 2.515911 1_555
Al2 Ce0 3.305181 1_565
Al2 Ce0 3.305181 1_556
Al2 Ce0 3.305181 1_555
Al2 Ce0 3.305181 1_566
Ni0 Ni1 3.031303 1_655
Ni0 Ni1 3.031303 1_545
Ni0 Ni1 3.031312 1_555
