# generated using pymatgen
data_Na5Sc3Ge(PO4)6
_symmetry_space_group_name_H-M   'P 1'
_cell_length_a   8.88545404
_cell_length_b   8.88176371
_cell_length_c   22.38833492
_cell_angle_alpha   89.99796817
_cell_angle_beta   90.00985838
_cell_angle_gamma   120.02897593
_symmetry_Int_Tables_number   1
_chemical_formula_structural   Na5Sc3Ge(PO4)6
_chemical_formula_sum   'Na15 Sc9 Ge3 P18 O72'
_cell_volume   1529.69335486
_cell_formula_units_Z   3
loop_
 _symmetry_equiv_pos_site_id
 _symmetry_equiv_pos_as_xyz
  1  'x, y, z'
loop_
 _atom_site_type_symbol
 _atom_site_label
 _atom_site_symmetry_multiplicity
 _atom_site_fract_x
 _atom_site_fract_y
 _atom_site_fract_z
 _atom_site_occupancy
  Na  Na0  1  0.63763991  0.00054478  0.25373819  1
  Na  Na1  1  0.36313076  0.36309803  0.25423836  1
  Na  Na2  1  -0.00078456  0.63700307  0.25391127  1
  Na  Na3  1  0.64349371  0.63918701  0.75073355  1
  Na  Na4  1  0.99771413  0.35927619  0.75115701  1
  Na  Na5  1  0.03439199  0.70198618  0.58119549  1
  Na  Na6  1  0.66418893  0.96419744  0.58099450  1
  Na  Na7  1  0.66454479  0.70075342  0.08087577  1
  Na  Na8  1  0.03491173  0.33207679  0.08092353  1
  Na  Na9  1  0.01045190  0.01156508  0.49640407  1
  Na  Na10  1  0.01085011  0.99892046  0.99481233  1
  Na  Na11  1  0.65625393  0.32219442  0.83598986  1
  Na  Na12  1  0.66671330  0.33349140  0.34050373  1
  Na  Na13  1  0.33243970  0.67719302  0.16581108  1
  Na  Na14  1  0.33354346  0.66638679  0.66625147  1
  Sc  Sc0  1  0.99938818  0.99931948  0.35701670  1
  Sc  Sc1  1  0.00132003  0.00039508  0.85502379  1
  Sc  Sc2  1  0.00937382  0.00744957  0.64864493  1
  Sc  Sc3  1  0.00681539  0.99920748  0.14572776  1
  Sc  Sc4  1  0.65886284  0.32721569  0.68576516  1
  Sc  Sc5  1  0.66452490  0.33108838  0.18354722  1
  Sc  Sc6  1  0.33270444  0.67237667  0.01595304  1
  Sc  Sc7  1  0.33242988  0.65989195  0.51564614  1
  Sc  Sc8  1  0.33327605  0.66602029  0.32376618  1
  Ge  Ge0  1  0.66473078  0.33197918  0.97762327  1
  Ge  Ge1  1  0.66428601  0.33263527  0.48038396  1
  Ge  Ge2  1  0.33402822  0.67330050  0.82011748  1
  P  P0  1  0.29222799  0.99802471  0.25093238  1
  P  P1  1  0.70609148  0.70796255  0.24896463  1
  P  P2  1  0.00178206  0.29390503  0.24914555  1
  P  P3  1  0.29347771  0.30151211  0.75406996  1
  P  P4  1  0.01152372  0.70900755  0.75185493  1
  P  P5  1  0.69737709  0.99105255  0.75217835  1
  P  P6  1  0.95165174  0.33228843  0.58223394  1
  P  P7  1  0.37890779  0.04824070  0.57991387  1
  P  P8  1  0.66590282  0.61961234  0.58237678  1
  P  P9  1  0.95190980  0.61899814  0.08017903  1
  P  P10  1  0.66570055  0.04616284  0.08046465  1
  P  P11  1  0.37937654  0.33086320  0.07954407  1
  P  P12  1  0.62214791  0.65700619  0.91746538  1
  P  P13  1  0.03435143  0.37767094  0.91769958  1
  P  P14  1  0.34303784  0.96521412  0.91686144  1
  P  P15  1  0.63089602  0.97473041  0.41980071  1
  P  P16  1  0.34385611  0.36850251  0.41821257  1
  P  P17  1  0.02510630  0.65603956  0.41993505  1
  O  O0  1  0.20791677  0.03066637  0.30479697  1
  O  O1  1  0.82557437  0.79568866  0.30210156  1
  O  O2  1  0.97071137  0.17452087  0.30221558  1
  O  O3  1  0.20742462  0.18761515  0.80773004  1
  O  O4  1  0.97435947  0.79538292  0.80393111  1
  O  O5  1  0.82010159  0.02421072  0.80436642  1
  O  O6  1  0.77178731  0.95443644  0.69410411  1
  O  O7  1  0.17825271  0.22350169  0.69745986  1
  O  O8  1  0.03950801  0.81292280  0.69292636  1
  O  O9  1  0.78437586  0.81514771  0.19072527  1
  O  O10  1  0.03084042  0.21570169  0.19089270  1
  O  O11  1  0.17953468  0.96700349  0.19439438  1
  O  O12  1  0.87433558  0.36104444  0.64008112  1
  O  O13  1  0.49109024  0.12779031  0.63585372  1
  O  O14  1  0.64344570  0.51898969  0.64075073  1
  O  O15  1  0.87502802  0.51444850  0.13852914  1
  O  O16  1  0.64307047  0.12318536  0.13937299  1
  O  O17  1  0.48456206  0.36068546  0.13778318  1
  O  O18  1  0.47256491  0.30643925  0.02486016  1
  O  O19  1  0.82753439  0.52679023  0.02608152  1
  O  O20  1  0.69804378  0.17059139  0.02654399  1
  O  O21  1  0.46759294  0.16323350  0.52425665  1
  O  O22  1  0.69856911  0.52869901  0.52813626  1
  O  O23  1  0.82777078  0.29929224  0.52790318  1
  O  O24  1  0.54038997  0.68246653  0.97404834  1
  O  O25  1  0.14200523  0.45903636  0.97422725  1
  O  O26  1  0.31552802  0.85487354  0.97215775  1
  O  O27  1  0.54318747  0.86150656  0.47486554  1
  O  O28  1  0.31736457  0.46095898  0.47115923  1
  O  O29  1  0.13861464  0.68234474  0.47496272  1
  O  O30  1  0.10788805  0.62877397  0.36226493  1
  O  O31  1  0.52123362  0.89124618  0.36212384  1
  O  O32  1  0.37143153  0.47533290  0.35965232  1
  O  O33  1  0.12379914  0.49597387  0.86052738  1
  O  O34  1  0.37468317  0.87707514  0.86038133  1
  O  O35  1  0.50432852  0.62919391  0.86027683  1
  O  O36  1  0.00454516  0.81687140  0.41340513  1
  O  O37  1  0.81228389  0.99520194  0.41340424  1
  O  O38  1  0.18290443  0.18734342  0.41285998  1
  O  O39  1  0.01263739  0.19655942  0.91052719  1
  O  O40  1  0.18357432  0.98627496  0.90980193  1
  O  O41  1  0.80334358  0.81654735  0.91033524  1
  O  O42  1  0.96389011  0.16438479  0.58703485  1
  O  O43  1  0.19407971  0.02394034  0.58567689  1
  O  O44  1  0.83392829  0.80327817  0.58604538  1
  O  O45  1  0.96431636  0.79878847  0.08404119  1
  O  O46  1  0.83304425  0.03062428  0.08367993  1
  O  O47  1  0.19418338  0.17121138  0.08343608  1
  O  O48  1  0.68068418  0.15543901  0.74581703  1
  O  O49  1  0.48004603  0.33322533  0.74671502  1
  O  O50  1  0.84934023  0.52288736  0.74607430  1
  O  O51  1  0.68391620  0.52315870  0.24426826  1
  O  O52  1  0.83901685  0.31575932  0.24459935  1
  O  O53  1  0.47614975  0.16073330  0.24475561  1
  O  O54  1  0.63543026  0.48654234  0.92211512  1
  O  O55  1  0.85052793  0.36410404  0.92266250  1
  O  O56  1  0.51298124  0.14855570  0.92260888  1
  O  O57  1  0.64469024  0.15694784  0.42548577  1
  O  O58  1  0.51295206  0.35708009  0.42548617  1
  O  O59  1  0.84320253  0.48734802  0.42623316  1
  O  O60  1  0.36007480  0.49536991  0.07562021  1
  O  O61  1  0.13120506  0.63335893  0.07547030  1
  O  O62  1  0.50887747  0.86053834  0.07629924  1
  O  O63  1  0.35765099  0.86364091  0.57558240  1
  O  O64  1  0.50933301  0.64868388  0.57680467  1
  O  O65  1  0.13147774  0.49689526  0.57611349  1
  O  O66  1  0.31263161  0.83451094  0.25643819  1
  O  O67  1  0.52289844  0.68898958  0.25543258  1
  O  O68  1  0.16546151  0.47784998  0.25544886  1
  O  O69  1  0.30958233  0.48844452  0.76057495  1
  O  O70  1  0.17506604  0.68510884  0.76054177  1
  O  O71  1  0.51504227  0.82011587  0.76090293  1
loop_
_geom_bond_atom_site_label_1
_geom_bond_atom_site_label_2
_geom_bond_distance
_geom_bond_site_symmetry_2
Na0 O67 2.423713 1_545
Na0 O52 2.463299 1_555
Na0 O53 2.483316 1_555
Na0 O66 2.501133 1_545
Na0 O31 2.626062 1_545
Na0 O16 2.773436 1_555
Na0 O2 2.783195 1_555
Na0 O9 2.924250 1_545
Na1 O68 2.432296 1_555
Na1 O53 2.467926 1_555
Na1 O51 2.477851 1_555
Na1 O67 2.506279 1_555
Na1 O32 2.548619 1_555
Na1 O0 2.797448 1_555
Na1 O17 2.826029 1_555
Na1 O10 2.927919 1_555
Na2 O66 2.438502 1_555
Na2 O51 2.466250 1_455
Na2 O52 2.479005 1_455
Na2 O68 2.504247 1_555
Na2 O30 2.625327 1_555
Na2 O1 2.776341 1_455
Na2 O15 2.805798 1_455
Na2 O11 2.869418 1_555
Na3 O49 2.356244 1_555
Na3 O71 2.402643 1_555
Na3 O50 2.512822 1_555
Na3 O69 2.582305 1_555
Na3 O14 2.683748 1_555
Na3 O35 2.728153 1_555
Na3 O6 2.748156 1_555
Na3 O4 2.811208 1_555
Na4 O50 2.404188 1_555
Na4 O69 2.420224 1_655
Na4 O48 2.474413 1_555
Na4 O70 2.517534 1_655
Na4 O33 2.713451 1_655
Na4 O12 2.720763 1_555
Na4 O7 2.722095 1_655
Na4 O5 2.840044 1_555
Na5 O44 2.365972 1_455
Na5 O65 2.376558 1_555
Na5 O43 2.477750 1_565
Na5 O63 2.489957 1_555
Na5 O29 2.589822 1_555
Na5 O8 2.680589 1_555
Na5 O22 2.843616 1_455
Na5 O12 2.936055 1_455
Na6 O42 2.352025 1_565
Na6 O63 2.407528 1_555
Na6 O64 2.428120 1_555
Na6 O44 2.547088 1_555
Na6 O27 2.579001 1_555
Na6 O6 2.723307 1_555
Na6 O23 2.837967 1_565
Na6 O13 2.867549 1_565
Na7 O45 2.353003 1_555
Na7 O60 2.391848 1_555
Na7 O62 2.429474 1_555
Na7 O46 2.537533 1_565
Na7 O24 2.604482 1_554
Na7 O9 2.670376 1_555
Na7 O19 2.868801 1_555
Na7 O17 2.910238 1_555
Na8 O46 2.362858 1_455
Na8 O61 2.369804 1_555
Na8 O47 2.463954 1_555
Na8 O60 2.504250 1_555
Na8 O25 2.609559 1_554
Na8 O10 2.663395 1_555
Na8 O20 2.863698 1_455
Na8 O15 2.934134 1_455
Na9 O38 2.426985 1_555
Na9 O37 2.513436 1_445
Na9 O36 2.520965 1_545
Na9 O43 2.547221 1_555
Na9 O42 2.587105 1_455
Na9 O44 2.647049 1_445
Na10 O40 2.482719 1_555
Na10 O47 2.536976 1_566
Na10 O45 2.566268 1_456
Na10 O41 2.571023 1_455
Na10 O39 2.571824 1_565
Na10 O46 2.642009 1_466
Na11 O56 2.407363 1_555
Na11 O54 2.480637 1_555
Na11 O55 2.497903 1_555
Na11 O49 2.570657 1_555
Na11 O48 2.576530 1_555
Na11 O50 2.667079 1_555
Na12 O57 2.410331 1_555
Na12 O58 2.412024 1_555
Na12 O59 2.421727 1_555
Na12 O53 2.686121 1_555
Na12 O52 2.687274 1_555
Na12 O51 2.691728 1_555
Na13 O66 2.519242 1_555
Na13 O62 2.563462 1_555
Na13 O67 2.592726 1_555
Na13 O68 2.595195 1_555
Na13 O61 2.596465 1_555
Na13 O60 2.672599 1_555
Na14 O69 2.581808 1_555
Na14 O70 2.588872 1_555
Na14 O64 2.592614 1_555
Na14 O71 2.598222 1_555
Na14 O65 2.618407 1_555
Na14 O63 2.619192 1_555
Ge0 O18 1.923099 1_556
Ge0 O19 1.938520 1_556
Ge0 O20 1.940694 1_556
Ge0 O56 1.946834 1_555
Ge0 O55 1.962182 1_555
Ge0 O54 1.963216 1_555
Ge1 O21 1.910931 1_555
Ge1 O58 1.912460 1_555
Ge1 O59 1.923390 1_555
Ge1 O57 1.924571 1_555
Ge1 O22 1.933208 1_555
Ge1 O23 1.938995 1_555
Ge2 O34 1.887957 1_555
Ge2 O33 1.960683 1_555
Ge2 O35 1.960719 1_555
Ge2 O70 1.983091 1_555
Ge2 O71 1.986523 1_555
Ge2 O69 2.040343 1_555
O0 P0 1.522258 1_545
O0 Sc0 2.088510 1_445
O1 P1 1.523541 1_555
O1 Sc0 2.090849 1_555
O2 P2 1.522916 1_655
O2 Sc0 2.094820 1_545
O3 P3 1.509077 1_555
O3 Sc1 2.047585 1_555
O4 P4 1.520086 1_655
O4 Sc1 2.060312 1_665
O5 P5 1.522882 1_545
O5 Sc1 2.064952 1_655
O6 P5 1.564905 1_555
O6 Sc2 2.172546 1_665
O7 P3 1.556992 1_555
O7 Sc2 2.060572 1_555
O8 P4 1.557107 1_555
O8 Sc2 2.121894 1_565
O9 P1 1.558106 1_555
O9 Sc3 2.088178 1_655
O10 P2 1.558745 1_555
O10 Sc3 2.086771 1_545
O11 P0 1.550569 1_555
O11 Sc3 2.015685 1_555
O12 P6 1.546098 1_555
O12 Sc4 2.055933 1_555
O13 P7 1.534941 1_555
O13 Sc4 1.991247 1_555
O14 P8 1.538838 1_555
O14 Sc4 2.041811 1_555
O15 P9 1.549464 1_555
O15 Sc5 2.029351 1_555
O16 P10 1.544553 1_555
O16 Sc5 2.017898 1_555
O17 P11 1.547773 1_555
O17 Sc5 2.023850 1_555
O18 P11 1.552961 1_555
O19 P9 1.566099 1_555
O20 P10 1.563137 1_555
O21 P7 1.552902 1_555
O22 P8 1.563868 1_555
O23 P6 1.566453 1_555
O24 P12 1.532452 1_555
O24 Sc6 2.031921 1_556
O25 P13 1.531881 1_555
O25 Sc6 2.029854 1_556
O26 P14 1.520877 1_555
O26 Sc6 1.964539 1_556
O27 P15 1.534374 1_555
O27 Sc7 2.047250 1_555
O28 P16 1.525947 1_555
O28 Sc7 1.973604 1_555
O29 P17 1.534054 1_555
O29 Sc7 2.044093 1_555
O30 P17 1.563762 1_555
O30 Sc8 2.049521 1_555
O31 P15 1.563069 1_555
O31 Sc8 2.045516 1_555
O32 P16 1.564150 1_555
O32 Sc8 2.050211 1_555
O33 P13 1.593274 1_555
O34 P14 1.584721 1_555
O35 P12 1.592803 1_555
O36 P17 1.535076 1_555
O36 Sc0 2.072657 1_455
O37 P15 1.535566 1_555
O37 Sc0 2.073365 1_555
O38 P16 1.531468 1_555
O38 Sc0 2.069982 1_445
O39 P13 1.529689 1_555
O39 Sc1 2.101083 1_555
O40 P14 1.527347 1_555
O40 Sc1 2.084427 1_565
O41 P12 1.530423 1_555
O41 Sc1 2.102361 1_665
O42 P6 1.552285 1_555
O42 Sc2 2.138286 1_655
O43 P7 1.551008 1_555
O43 Sc2 2.112477 1_555
O44 P8 1.568175 1_555
O44 Sc2 2.202920 1_665
O45 P9 1.547060 1_555
O45 Sc3 2.132088 1_655
O46 P10 1.562218 1_555
O46 Sc3 2.195926 1_645
O47 P11 1.546189 1_555
O47 Sc3 2.122627 1_545
O48 P5 1.546199 1_545
O48 Sc4 2.113933 1_555
O49 P3 1.545094 1_555
O49 Sc4 2.115426 1_555
O50 P4 1.562614 1_655
O50 Sc4 2.182508 1_555
O51 P1 1.555741 1_555
O51 Sc5 2.119868 1_555
O52 P2 1.555818 1_655
O52 Sc5 2.121610 1_555
O53 P0 1.553886 1_545
O53 Sc5 2.105868 1_555
O54 P12 1.579825 1_555
O55 P13 1.580439 1_655
O56 P14 1.577112 1_545
O57 P15 1.565871 1_545
O58 P16 1.564218 1_555
O59 P17 1.566339 1_655
O60 P11 1.556523 1_555
O60 Sc6 2.167406 1_555
O61 P9 1.536909 1_455
O61 Sc6 2.116836 1_555
O62 P10 1.539197 1_565
O62 Sc6 2.109443 1_555
O63 P7 1.556705 1_565
O63 Sc7 2.172521 1_555
O64 P8 1.541792 1_555
O64 Sc7 2.123992 1_555
O65 P6 1.539895 1_455
O65 Sc7 2.128424 1_555
O66 P0 1.555865 1_555
O66 Sc8 2.195399 1_555
O67 P1 1.557077 1_555
O67 Sc8 2.208574 1_555
O68 P2 1.557575 1_555
O68 Sc8 2.204801 1_555
O69 P3 1.600146 1_555
O70 P4 1.582130 1_555
O71 P5 1.583092 1_555
