# generated using pymatgen
data_NaZr3ZnP3(SO8)3
_symmetry_space_group_name_H-M   'P 1'
_cell_length_a   8.92204123
_cell_length_b   8.93168865
_cell_length_c   23.19558221
_cell_angle_alpha   90.06206292
_cell_angle_beta   89.98306651
_cell_angle_gamma   120.10418076
_symmetry_Int_Tables_number   1
_chemical_formula_structural   NaZr3ZnP3(SO8)3
_chemical_formula_sum   'Na3 Zr9 Zn3 P9 S9 O72'
_cell_volume   1599.10344993
_cell_formula_units_Z   3
loop_
 _symmetry_equiv_pos_site_id
 _symmetry_equiv_pos_as_xyz
  1  'x, y, z'
loop_
 _atom_site_type_symbol
 _atom_site_label
 _atom_site_symmetry_multiplicity
 _atom_site_fract_x
 _atom_site_fract_y
 _atom_site_fract_z
 _atom_site_occupancy
  Na  Na0  1  0.65891525  0.33229141  0.82972602  1
  Na  Na1  1  0.67120961  0.33033512  0.32749569  1
  Na  Na2  1  0.33096271  0.67144365  0.17028708  1
  Zr  Zr0  1  0.99422555  0.99318075  0.35631162  1
  Zr  Zr1  1  0.00713509  0.00534857  0.85800118  1
  Zr  Zr2  1  0.99935778  0.00100323  0.64506786  1
  Zr  Zr3  1  0.99473772  0.99553567  0.14278950  1
  Zr  Zr4  1  0.67427006  0.33548412  0.98032248  1
  Zr  Zr5  1  0.67516706  0.34208288  0.47952978  1
  Zr  Zr6  1  0.33432196  0.67320950  0.01922921  1
  Zr  Zr7  1  0.34147859  0.67456743  0.52043909  1
  Zr  Zr8  1  0.33421608  0.66022399  0.81111304  1
  Zn  Zn0  1  0.65198102  0.34084562  0.68527996  1
  Zn  Zn1  1  0.67557630  0.32970911  0.18023447  1
  Zn  Zn2  1  0.32958044  0.67707546  0.31842472  1
  P  P0  1  0.29467933  0.28595742  0.74979238  1
  P  P1  1  0.66529411  0.61922585  0.58551643  1
  P  P2  1  0.95632150  0.61797724  0.08648986  1
  P  P3  1  0.66188304  0.04439247  0.08630434  1
  P  P4  1  0.62153378  0.66402796  0.91607557  1
  P  P5  1  0.04480561  0.38100891  0.91611492  1
  P  P6  1  0.33835065  0.95725589  0.91504825  1
  P  P7  1  0.61823828  0.95700356  0.41405697  1
  P  P8  1  0.04875129  0.66463194  0.41441017  1
  S  S0  1  0.29443437  0.00245542  0.24967783  1
  S  S1  1  0.70291685  0.70314761  0.24986409  1
  S  S2  1  0.00271544  0.29456871  0.25057098  1
  S  S3  1  0.99570791  0.70647464  0.75010350  1
  S  S4  1  0.71185254  0.00703908  0.74988888  1
  S  S5  1  0.95455611  0.33574932  0.58565211  1
  S  S6  1  0.38112560  0.04705512  0.58494155  1
  S  S7  1  0.38023697  0.33662694  0.08573724  1
  S  S8  1  0.33511316  0.37984049  0.41457583  1
  O  O0  1  0.20380240  0.01971669  0.30190353  1
  O  O1  1  0.81452881  0.79400945  0.30184605  1
  O  O2  1  0.98334047  0.18428304  0.30237860  1
  O  O3  1  0.19889428  0.17198537  0.80286317  1
  O  O4  1  0.97092662  0.79149111  0.80137505  1
  O  O5  1  0.81950798  0.02704888  0.80125006  1
  O  O6  1  0.79370328  0.97784175  0.69772844  1
  O  O7  1  0.17894802  0.19693146  0.69590983  1
  O  O8  1  0.02038977  0.81524852  0.69799936  1
  O  O9  1  0.79361971  0.81443058  0.19845989  1
  O  O10  1  0.02036898  0.20466640  0.19859460  1
  O  O11  1  0.18463798  0.98289771  0.19810886  1
  O  O12  1  0.87752202  0.36289431  0.63636788  1
  O  O13  1  0.48681650  0.11940665  0.63594584  1
  O  O14  1  0.63208849  0.50909893  0.63803762  1
  O  O15  1  0.87810707  0.51124457  0.14008446  1
  O  O16  1  0.62571027  0.11774546  0.13977040  1
  O  O17  1  0.48485205  0.36618742  0.13713706  1
  O  O18  1  0.45738292  0.30915678  0.03272898  1
  O  O19  1  0.84487980  0.53700444  0.03135405  1
  O  O20  1  0.68914391  0.15479170  0.03130642  1
  O  O21  1  0.45920187  0.15292094  0.53230217  1
  O  O22  1  0.69560498  0.53539713  0.53083290  1
  O  O23  1  0.84576394  0.30386133  0.53264436  1
  O  O24  1  0.53736033  0.69093241  0.96996580  1
  O  O25  1  0.15416496  0.46351575  0.97020017  1
  O  O26  1  0.31029528  0.84724366  0.96958365  1
  O  O27  1  0.53633832  0.84496314  0.46914892  1
  O  O28  1  0.30846554  0.45762481  0.46775320  1
  O  O29  1  0.15662997  0.68876082  0.46958312  1
  O  O30  1  0.11915400  0.62556960  0.36093786  1
  O  O31  1  0.51006424  0.87944047  0.36072944  1
  O  O32  1  0.36805660  0.48498774  0.36361517  1
  O  O33  1  0.12968235  0.49418369  0.86233677  1
  O  O34  1  0.36490107  0.87042022  0.86176487  1
  O  O35  1  0.50641931  0.63586217  0.86243250  1
  O  O36  1  0.02731791  0.82593892  0.40666108  1
  O  O37  1  0.80168033  0.97880833  0.40653395  1
  O  O38  1  0.17994299  0.20446510  0.40820566  1
  O  O39  1  0.02331111  0.20069776  0.90710598  1
  O  O40  1  0.17511037  0.97265531  0.90708796  1
  O  O41  1  0.79976881  0.82383470  0.90516880  1
  O  O42  1  0.97370672  0.17901206  0.59150719  1
  O  O43  1  0.20492336  0.02592813  0.59157343  1
  O  O44  1  0.82625708  0.80242407  0.59399903  1
  O  O45  1  0.97805375  0.80164070  0.09397488  1
  O  O46  1  0.82630225  0.02719707  0.09396569  1
  O  O47  1  0.20469773  0.18021857  0.09238639  1
  O  O48  1  0.69538547  0.16079688  0.74302647  1
  O  O49  1  0.47363246  0.30420214  0.74570018  1
  O  O50  1  0.84453557  0.53259863  0.74420980  1
  O  O51  1  0.69148943  0.53357457  0.24532442  1
  O  O52  1  0.84375694  0.30666781  0.24713922  1
  O  O53  1  0.46505324  0.16124628  0.24572611  1
  O  O54  1  0.63996213  0.50202225  0.92335058  1
  O  O55  1  0.86219129  0.35980330  0.92219222  1
  O  O56  1  0.49686673  0.13983873  0.92309197  1
  O  O57  1  0.64233746  0.13952826  0.42585644  1
  O  O58  1  0.48770341  0.35430114  0.42414145  1
  O  O59  1  0.86179012  0.50658881  0.42435376  1
  O  O60  1  0.35544296  0.48855790  0.07735490  1
  O  O61  1  0.13989097  0.64264289  0.07683447  1
  O  O62  1  0.50617884  0.85836285  0.07685773  1
  O  O63  1  0.35533029  0.87029240  0.57489093  1
  O  O64  1  0.50758997  0.64238078  0.57184110  1
  O  O65  1  0.12931184  0.48609989  0.57396697  1
  O  O66  1  0.30664850  0.84374045  0.25349396  1
  O  O67  1  0.53314304  0.69149783  0.25516938  1
  O  O68  1  0.16157386  0.46505034  0.25510764  1
  O  O69  1  0.30674604  0.46423931  0.75790127  1
  O  O70  1  0.15627836  0.69749626  0.75695828  1
  O  O71  1  0.53982978  0.84844242  0.75662004  1
loop_
_geom_bond_atom_site_label_1
_geom_bond_atom_site_label_2
_geom_bond_distance
_geom_bond_site_symmetry_2
Na0 O49 2.485799 1_555
Na0 O50 2.629008 1_555
Na0 O48 2.643732 1_555
Na0 O56 2.692281 1_555
Na0 O54 2.700516 1_555
Na0 O55 2.739335 1_555
Na1 O52 2.492539 1_555
Na1 O53 2.543759 1_555
Na1 O51 2.576554 1_555
Na1 O59 2.779647 1_555
Na1 O57 2.782775 1_555
Na1 O58 2.846090 1_555
Na2 O66 2.543326 1_555
Na2 O68 2.600873 1_555
Na2 O67 2.615293 1_555
Na2 O61 2.689290 1_555
Na2 O62 2.704690 1_555
Na2 O60 2.777162 1_555
O0 S0 1.506392 1_555
O0 Zr0 2.167930 1_445
O1 S1 1.513929 1_555
O1 Zr0 2.113384 1_555
O2 S2 1.508612 1_655
O2 Zr0 2.158432 1_545
O3 P0 1.552859 1_555
O3 Zr1 2.055836 1_555
O4 S3 1.485315 1_555
O4 Zr1 2.203157 1_665
O5 S4 1.483862 1_555
O5 Zr1 2.213612 1_655
O6 S4 1.501660 1_565
O6 Zr2 2.126027 1_565
O7 P0 1.560616 1_555
O7 Zr2 2.050461 1_455
O8 S3 1.496937 1_455
O8 Zr2 2.147587 1_465
O9 S1 1.503206 1_555
O9 Zr3 2.143666 1_555
O10 S2 1.499257 1_555
O10 Zr3 2.187076 1_445
O11 S0 1.499851 1_565
O11 Zr3 2.173327 1_455
O12 S5 1.442604 1_555
O12 Zn0 2.230890 1_555
O13 S6 1.447131 1_555
O13 Zn0 2.113099 1_555
O14 P1 1.499830 1_555
O14 Zn0 1.939565 1_555
O15 P2 1.508613 1_555
O15 Zn1 1.955684 1_555
O16 P3 1.510481 1_555
O16 Zn1 1.953080 1_555
O17 S7 1.454348 1_555
O17 Zn1 2.135177 1_555
O18 S7 1.487959 1_555
O18 Zr4 2.195510 1_554
O19 P2 1.557131 1_555
O19 Zr4 2.050837 1_554
O20 P3 1.555906 1_555
O20 Zr4 2.059094 1_554
O21 S6 1.487087 1_555
O21 Zr5 2.191581 1_555
O22 P1 1.563162 1_555
O22 Zr5 2.027420 1_555
O23 S5 1.502558 1_555
O23 Zr5 2.115276 1_555
O24 P4 1.537567 1_555
O24 Zr6 2.079401 1_556
O25 P5 1.531786 1_555
O25 Zr6 2.088380 1_556
O26 P6 1.544053 1_555
O26 Zr6 2.031390 1_556
O27 P7 1.561106 1_555
O27 Zr7 2.025494 1_555
O28 S8 1.491421 1_555
O28 Zr7 2.181132 1_555
O29 P8 1.550066 1_555
O29 Zr7 2.082970 1_555
O30 P8 1.507688 1_555
O30 Zn2 1.960179 1_555
O31 P7 1.506526 1_555
O31 Zn2 1.974905 1_555
O32 S8 1.446010 1_555
O32 Zn2 2.180608 1_555
O33 P5 1.544536 1_555
O33 Zr8 2.056431 1_555
O34 P6 1.538587 1_555
O34 Zr8 2.111826 1_555
O35 P4 1.551534 1_555
O35 Zr8 2.040075 1_555
O36 P8 1.556143 1_555
O36 Zr0 2.031952 1_455
O37 P7 1.557962 1_555
O37 Zr0 2.025498 1_555
O38 S8 1.488729 1_555
O38 Zr0 2.148310 1_445
O39 P5 1.537392 1_555
O39 Zr1 2.026250 1_555
O40 P6 1.541229 1_555
O40 Zr1 2.017040 1_565
O41 P4 1.534185 1_555
O41 Zr1 2.059634 1_665
O42 S5 1.499271 1_555
O42 Zr2 2.119709 1_555
O43 S6 1.494340 1_555
O43 Zr2 2.131359 1_455
O44 P1 1.555868 1_555
O44 Zr2 2.045216 1_565
O45 P2 1.561750 1_555
O45 Zr3 2.010134 1_555
O46 P3 1.559919 1_555
O46 Zr3 2.012188 1_545
O47 S7 1.494580 1_555
O47 Zr3 2.121344 1_445
O48 S4 1.461442 1_555
O48 Zn0 2.271550 1_555
O49 P0 1.524378 1_555
O49 Zn0 2.020034 1_555
O50 S3 1.465640 1_555
O50 Zn0 2.190406 1_555
O51 S1 1.469752 1_555
O51 Zn1 2.313013 1_555
O52 S2 1.477577 1_655
O52 Zn1 2.239222 1_555
O53 S0 1.473638 1_555
O53 Zn1 2.295187 1_555
O54 P4 1.545470 1_555
O54 Zr4 2.124581 1_555
O55 P5 1.549419 1_655
O55 Zr4 2.076141 1_555
O56 P6 1.542821 1_545
O56 Zr4 2.131364 1_555
O57 P7 1.557660 1_545
O57 Zr5 2.091070 1_555
O58 S8 1.505502 1_555
O58 Zr5 2.155146 1_555
O59 P8 1.570570 1_655
O59 Zr5 2.029265 1_555
O60 S7 1.493291 1_555
O60 Zr6 2.211352 1_555
O61 P2 1.555334 1_455
O61 Zr6 2.096073 1_555
O62 P3 1.556456 1_565
O62 Zr6 2.079777 1_555
O63 S6 1.494868 1_565
O63 Zr7 2.108358 1_555
O64 P1 1.554181 1_555
O64 Zr7 2.032214 1_555
O65 S5 1.485931 1_455
O65 Zr7 2.182918 1_555
O66 S0 1.478014 1_565
O66 Zn2 2.199253 1_555
O67 S1 1.470437 1_555
O67 Zn2 2.287379 1_555
O68 S2 1.474208 1_555
O68 Zn2 2.266683 1_555
O69 P0 1.552406 1_555
O69 Zr8 2.052510 1_555
O70 S3 1.483074 1_455
O70 Zr8 2.177468 1_555
O71 S4 1.485243 1_565
O71 Zr8 2.167654 1_555
