# generated using pymatgen
data_SmCoO3
_symmetry_space_group_name_H-M   'P 1'
_cell_length_a   5.25554460
_cell_length_b   5.38013421
_cell_length_c   7.49230809
_cell_angle_alpha   90.00000000
_cell_angle_beta   90.00000000
_cell_angle_gamma   90.00000000
_symmetry_Int_Tables_number   1
_chemical_formula_structural   SmCoO3
_chemical_formula_sum   'Sm4 Co4 O12'
_cell_volume   211.84902184
_cell_formula_units_Z   4
loop_
 _symmetry_equiv_pos_site_id
 _symmetry_equiv_pos_as_xyz
  1  'x, y, z'
loop_
 _atom_site_type_symbol
 _atom_site_label
 _atom_site_symmetry_multiplicity
 _atom_site_fract_x
 _atom_site_fract_y
 _atom_site_fract_z
 _atom_site_occupancy
  Sm  Sm0  1  0.51191205  0.55411881  0.25000000  1
  Sm  Sm1  1  0.98808795  0.05411881  0.25000000  1
  Sm  Sm2  1  0.48808795  0.44588119  0.75000000  1
  Sm  Sm3  1  0.01191205  0.94588119  0.75000000  1
  Co  Co0  1  0.50000000  0.00000000  0.00000000  1
  Co  Co1  1  -0.00000000  0.50000000  0.50000000  1
  Co  Co2  1  0.50000000  0.00000000  0.50000000  1
  Co  Co3  1  -0.00000000  0.50000000  0.00000000  1
  O  O0  1  0.41981287  0.98572069  0.25000000  1
  O  O1  1  0.08018713  0.48572069  0.25000000  1
  O  O2  1  0.58018713  0.01427931  0.75000000  1
  O  O3  1  0.91981287  0.51427931  0.75000000  1
  O  O4  1  0.79510200  0.79299241  0.04210551  1
  O  O5  1  0.70489800  0.29299241  0.45789449  1
  O  O6  1  0.20489800  0.20700759  0.54210551  1
  O  O7  1  0.29510200  0.70700759  0.95789449  1
  O  O8  1  0.20489800  0.20700759  0.95789449  1
  O  O9  1  0.29510200  0.70700759  0.54210551  1
  O  O10  1  0.79510200  0.79299241  0.45789449  1
  O  O11  1  0.70489800  0.29299241  0.04210551  1
loop_
_geom_bond_atom_site_label_1
_geom_bond_atom_site_label_2
_geom_bond_distance
_geom_bond_site_symmetry_2
Co0 O2 1.921437 1_554
Co0 O0 1.921437 1_545
Co0 O11 1.934934 1_555
Co0 O7 1.934934 1_544
Co0 O8 1.935270 1_554
Co0 O4 1.935270 1_545
Co1 O3 1.921437 1_455
Co1 O1 1.921437 1_555
Co1 O10 1.934934 1_455
Co1 O6 1.934934 1_555
Co1 O9 1.935270 1_555
Co1 O5 1.935270 1_455
Co2 O2 1.921437 1_555
Co2 O0 1.921437 1_545
Co2 O9 1.934934 1_545
Co2 O5 1.934934 1_555
Co2 O6 1.935270 1_555
Co2 O10 1.935270 1_545
Co3 O1 1.921437 1_555
Co3 O3 1.921437 1_454
Co3 O4 1.934934 1_455
Co3 O8 1.934934 1_554
Co3 O7 1.935270 1_554
Co3 O11 1.935270 1_455
O0 Sm1 2.298597 1_465
O0 Sm0 2.371987 1_555
O1 Sm0 2.298597 1_555
O1 Sm1 2.371987 1_455
O2 Sm3 2.298597 1_645
O2 Sm2 2.371987 1_555
O3 Sm2 2.298597 1_555
O3 Sm3 2.371987 1_655
O4 Sm1 2.329930 1_565
O4 Sm0 2.508566 1_555
O4 Sm3 2.600902 1_654
O5 Sm0 2.329930 1_555
O5 Sm1 2.508566 1_555
O5 Sm2 2.600902 1_555
O6 Sm3 2.329930 1_545
O6 Sm2 2.508566 1_555
O6 Sm1 2.600902 1_455
O7 Sm2 2.329930 1_555
O7 Sm3 2.508566 1_555
O7 Sm0 2.600902 1_556
O8 Sm3 2.329930 1_545
O8 Sm2 2.508566 1_555
O8 Sm1 2.600902 1_456
O9 Sm2 2.329930 1_555
O9 Sm3 2.508566 1_555
O9 Sm0 2.600902 1_555
O10 Sm1 2.329930 1_565
O10 Sm0 2.508566 1_555
O10 Sm3 2.600902 1_655
O11 Sm0 2.329930 1_555
O11 Sm1 2.508566 1_555
O11 Sm2 2.600902 1_554
