# generated using pymatgen
data_LaBN2
_symmetry_space_group_name_H-M   'P 1'
_cell_length_a   6.61674644
_cell_length_b   6.91272576
_cell_length_c   7.81157720
_cell_angle_alpha   105.94932836
_cell_angle_beta   90.60369086
_cell_angle_gamma   115.86423193
_symmetry_Int_Tables_number   1
_chemical_formula_structural   LaBN2
_chemical_formula_sum   'La6 B6 N12'
_cell_volume   305.60075640
_cell_formula_units_Z   6
loop_
 _symmetry_equiv_pos_site_id
 _symmetry_equiv_pos_as_xyz
  1  'x, y, z'
loop_
 _atom_site_type_symbol
 _atom_site_label
 _atom_site_symmetry_multiplicity
 _atom_site_fract_x
 _atom_site_fract_y
 _atom_site_fract_z
 _atom_site_occupancy
  La  La0  1  0.53892334  0.78523907  0.06233155  1
  La  La1  1  0.46107666  0.21476093  0.93766845  1
  La  La2  1  0.46780399  0.21779053  0.42186463  1
  La  La3  1  0.53219601  0.78220947  0.57813537  1
  La  La4  1  0.94257939  0.66539502  0.29848451  1
  La  La5  1  0.05742061  0.33460498  0.70151549  1
  B  B0  1  0.89884815  0.20963618  0.32713298  1
  B  B1  1  0.10132285  0.77824523  0.98552985  1
  B  B2  1  0.89867715  0.22175477  0.01447015  1
  B  B3  1  0.10115185  0.79036382  0.67286702  1
  B  B4  1  0.26567685  0.41911500  0.22559615  1
  B  B5  1  0.73432315  0.58088500  0.77440385  1
  N  N0  1  0.14649473  0.35950205  0.04374567  1
  N  N1  1  0.85350527  0.64049795  0.95625433  1
  N  N2  1  0.22742637  0.78359413  0.82835945  1
  N  N3  1  0.76707446  0.05327389  0.42068289  1
  N  N4  1  0.23292554  0.94672611  0.57931711  1
  N  N5  1  0.77257363  0.21640587  0.17164055  1
  N  N6  1  0.48770540  0.48306808  0.74852815  1
  N  N7  1  0.51229460  0.51693192  0.25147185  1
  N  N8  1  0.76205898  0.09022482  0.84026829  1
  N  N9  1  0.23794102  0.90977518  0.15973171  1
  N  N10  1  0.14436487  0.36895635  0.37873662  1
  N  N11  1  0.85563513  0.63104365  0.62126338  1
loop_
_geom_bond_atom_site_label_1
_geom_bond_atom_site_label_2
_geom_bond_distance
_geom_bond_site_symmetry_2
La0 N9 2.540468 1_555
La0 N5 2.560474 1_565
La0 N7 2.623056 1_555
La0 N6 2.652881 1_554
La0 N1 2.723638 1_554
La0 N2 2.734493 1_554
La0 N3 2.857990 1_565
La0 N0 2.917977 1_555
La0 N8 2.996968 1_564
La1 N8 2.540468 1_555
La1 N2 2.560474 1_545
La1 N6 2.623056 1_555
La1 N7 2.652881 1_556
La1 N0 2.723638 1_556
La1 N5 2.734493 1_556
La1 N4 2.857990 1_545
La1 N1 2.917977 1_555
La1 N9 2.996968 1_546
La2 N9 2.398461 1_545
La2 N4 2.491046 1_545
La2 N6 2.664987 1_555
La2 N7 2.669130 1_555
La2 N3 2.678443 1_555
La2 N10 2.813362 1_555
La2 N5 2.824351 1_555
La2 N11 2.871686 1_555
La3 N8 2.398461 1_565
La3 N3 2.491046 1_565
La3 N7 2.664987 1_555
La3 N6 2.669130 1_555
La3 N4 2.678443 1_555
La3 N11 2.813362 1_555
La3 N2 2.824351 1_555
La3 N10 2.871686 1_555
La4 N9 2.453257 1_655
La4 N7 2.552556 1_555
La4 N4 2.567533 1_655
La4 N11 2.642970 1_555
La4 N5 2.668445 1_555
La4 N1 2.673811 1_554
La5 N8 2.453257 1_455
La5 N6 2.552556 1_555
La5 N3 2.567533 1_455
La5 N10 2.642970 1_555
La5 N2 2.668445 1_555
La5 N0 2.673811 1_556
B0 N3 1.444939 1_555
B0 N10 1.481799 1_655
B0 N5 1.489837 1_555
B1 N9 1.439657 1_556
B1 N1 1.468985 1_455
B1 N2 1.491498 1_555
B2 N8 1.439657 1_554
B2 N0 1.468985 1_655
B2 N5 1.491498 1_555
B3 N4 1.444939 1_555
B3 N11 1.481799 1_455
B3 N2 1.489837 1_555
B4 N7 1.454687 1_555
B4 N0 1.476748 1_555
B4 N10 1.483562 1_555
B5 N6 1.454687 1_555
B5 N1 1.476748 1_555
B5 N11 1.483562 1_555
