# generated using pymatgen
data_MgCo6(O2F)4
_symmetry_space_group_name_H-M   'P 1'
_cell_length_a   4.96688784
_cell_length_b   7.66372909
_cell_length_c   5.82083792
_cell_angle_alpha   101.30505983
_cell_angle_beta   101.19682809
_cell_angle_gamma   81.55502544
_symmetry_Int_Tables_number   1
_chemical_formula_structural   MgCo6(O2F)4
_chemical_formula_sum   'Mg1 Co6 O8 F4'
_cell_volume   211.76739240
_cell_formula_units_Z   1
loop_
 _symmetry_equiv_pos_site_id
 _symmetry_equiv_pos_as_xyz
  1  'x, y, z'
loop_
 _atom_site_type_symbol
 _atom_site_label
 _atom_site_symmetry_multiplicity
 _atom_site_fract_x
 _atom_site_fract_y
 _atom_site_fract_z
 _atom_site_occupancy
  Mg  Mg0  1  0.48840767  0.33268997  0.31318107  1
  Co  Co0  1  0.50328063  0.99555990  0.50710751  1
  Co  Co1  1  0.54694893  0.34658890  0.80630548  1
  Co  Co2  1  0.52813163  0.68528444  0.14532915  1
  Co  Co3  1  0.98417055  0.65196949  0.67430311  1
  Co  Co4  1  0.98631039  0.33046430  0.34277307  1
  Co  Co5  1  0.97932808  0.00220708  0.02294884  1
  O  O0  1  0.79587503  0.43427115  0.59232786  1
  O  O1  1  0.80640592  0.13016200  0.27854711  1
  O  O2  1  0.69685579  0.76700337  0.46024972  1
  O  O3  1  0.70246316  0.10461590  0.79476825  1
  O  O4  1  0.69337152  0.44002818  0.12591512  1
  O  O5  1  0.31278970  0.56734286  0.86026936  1
  O  O6  1  0.31483725  0.23124468  0.53551861  1
  O  O7  1  0.30269705  0.90148404  0.21057680  1
  F  F0  1  0.80059548  0.76966475  0.96155253  1
  F  F1  1  0.18303695  0.23518323  0.07273631  1
  F  F2  1  0.15723086  0.88389903  0.73798606  1
  F  F3  1  0.18948342  0.53855174  0.37903604  1
loop_
_geom_bond_atom_site_label_1
_geom_bond_atom_site_label_2
_geom_bond_distance
_geom_bond_site_symmetry_2
Mg0 O4 1.982365 1_555
Mg0 O6 2.011774 1_555
Mg0 O1 2.055563 1_555
Mg0 O0 2.113768 1_555
Co0 O2 1.867292 1_555
Co0 O3 1.879316 1_565
Co0 O7 1.883316 1_555
Co0 O6 1.900603 1_565
Co0 O1 2.621650 1_565
Co1 O3 1.894888 1_555
Co1 O4 1.899467 1_556
Co1 O6 1.908477 1_555
Co1 O5 1.915493 1_555
Co1 O0 2.168358 1_555
Co2 O7 1.875316 1_555
Co2 O2 1.887388 1_555
Co2 O4 1.928425 1_555
Co2 O5 1.928970 1_554
Co2 F0 2.117640 1_554
Co3 O5 1.880070 1_655
Co3 O2 1.933066 1_555
Co3 O0 1.964365 1_555
Co3 F2 2.025407 1_655
Co3 F0 2.049357 1_555
Co3 F3 2.141025 1_655
Co4 O1 1.828331 1_555
Co4 O0 1.870072 1_555
Co4 O6 1.938718 1_655
Co4 O4 1.938783 1_555
Co4 F3 1.965718 1_655
Co4 F1 1.973715 1_655
Co5 O1 1.894651 1_555
Co5 O7 1.911403 1_645
Co5 O3 1.911413 1_554
Co5 F2 2.024469 1_644
Co5 F0 2.045387 1_544
Co5 F1 2.123554 1_655
F1 Mg0 1.978940 1_555
F3 Mg0 2.033789 1_555
