# generated using pymatgen
data_Na8MgTi2O8
_symmetry_space_group_name_H-M   'P 1'
_cell_length_a   6.95488203
_cell_length_b   6.95488203
_cell_length_c   6.63900688
_cell_angle_alpha   90.00000000
_cell_angle_beta   90.00000000
_cell_angle_gamma   79.09456436
_symmetry_Int_Tables_number   1
_chemical_formula_structural   Na8MgTi2O8
_chemical_formula_sum   'Na8 Mg1 Ti2 O8'
_cell_volume   315.33192786
_cell_formula_units_Z   1
loop_
 _symmetry_equiv_pos_site_id
 _symmetry_equiv_pos_as_xyz
  1  'x, y, z'
loop_
 _atom_site_type_symbol
 _atom_site_label
 _atom_site_symmetry_multiplicity
 _atom_site_fract_x
 _atom_site_fract_y
 _atom_site_fract_z
 _atom_site_occupancy
  Na  Na0  1  0.24286230  0.86527416  0.48233007  1
  Na  Na1  1  0.24286230  0.86527416  0.01766993  1
  Na  Na2  1  0.62041891  0.92442058  0.25000000  1
  Na  Na3  1  0.16021020  0.45726099  0.75000000  1
  Na  Na4  1  0.45726099  0.16021020  0.75000000  1
  Na  Na5  1  0.92442058  0.62041891  0.25000000  1
  Na  Na6  1  0.86527416  0.24286230  0.01766993  1
  Na  Na7  1  0.86527416  0.24286230  0.48233007  1
  Mg  Mg0  1  0.86662130  0.86662130  0.75000000  1
  Ti  Ti0  1  0.61195931  0.61195931  0.75000000  1
  Ti  Ti1  1  0.33999178  0.33999178  0.25000000  1
  O  O0  1  0.25017031  0.60932851  0.25000000  1
  O  O1  1  0.35060022  0.68896653  0.75000000  1
  O  O2  1  0.73036628  0.73036628  0.96301988  1
  O  O3  1  0.23193944  0.23193944  0.47179762  1
  O  O4  1  0.23193944  0.23193944  0.02820238  1
  O  O5  1  0.73036628  0.73036628  0.53698012  1
  O  O6  1  0.68896653  0.35060022  0.75000000  1
  O  O7  1  0.60932851  0.25017031  0.25000000  1
loop_
_geom_bond_atom_site_label_1
_geom_bond_atom_site_label_2
_geom_bond_distance
_geom_bond_site_symmetry_2
Na0 O1 2.208013 1_555
Na0 O0 2.348644 1_555
Na0 O3 2.537802 1_565
Na1 O1 2.208013 1_554
Na1 O0 2.348644 1_555
Na1 O4 2.537802 1_565
Na2 O7 2.252232 1_565
Na2 O5 2.376077 1_555
Na2 O2 2.376077 1_554
Na3 O1 2.271040 1_555
Na3 O4 2.412506 1_556
Na3 O3 2.412506 1_555
Na4 O6 2.271040 1_555
Na4 O4 2.412506 1_556
Na4 O3 2.412506 1_555
Na5 O0 2.252232 1_655
Na5 O5 2.376077 1_555
Na5 O2 2.376077 1_554
Na6 O6 2.208013 1_554
Na6 O7 2.348644 1_555
Na6 O4 2.537802 1_655
Na7 O6 2.208013 1_555
Na7 O7 2.348644 1_555
Na7 O3 2.537802 1_655
Mg0 O2 2.033691 1_555
Mg0 O5 2.033691 1_555
O0 Ti1 1.859132 1_555
O1 Ti0 1.795158 1_555
O2 Ti0 1.900790 1_555
O3 Ti1 1.873891 1_555
O4 Ti1 1.873891 1_555
O5 Ti0 1.900790 1_555
O6 Ti0 1.795158 1_555
O7 Ti1 1.859132 1_555
