# generated using pymatgen
data_B4PF9
_symmetry_space_group_name_H-M   'P 1'
_cell_length_a   6.12723000
_cell_length_b   10.68874400
_cell_length_c   14.06564600
_cell_angle_alpha   90.00000000
_cell_angle_beta   90.00000000
_cell_angle_gamma   90.00000000
_symmetry_Int_Tables_number   1
_chemical_formula_structural   B4PF9
_chemical_formula_sum   'B16 P4 F36'
_cell_volume   921.19281421
_cell_formula_units_Z   4
loop_
 _symmetry_equiv_pos_site_id
 _symmetry_equiv_pos_as_xyz
  1  'x, y, z'
loop_
 _atom_site_type_symbol
 _atom_site_label
 _atom_site_symmetry_multiplicity
 _atom_site_fract_x
 _atom_site_fract_y
 _atom_site_fract_z
 _atom_site_occupancy
  B  B0  1  0.78761400  0.12058400  0.23018200  1
  B  B1  1  0.28761400  0.87941600  0.26981800  1
  B  B2  1  0.21238600  0.62058400  0.76981800  1
  B  B3  1  0.71238600  0.37941600  0.73018200  1
  B  B4  1  0.78761400  0.37941600  0.23018200  1
  B  B5  1  0.28761400  0.62058400  0.26981800  1
  B  B6  1  0.21238600  0.87941600  0.76981800  1
  B  B7  1  0.42016500  0.75000000  0.23121100  1
  B  B8  1  0.82525700  0.75000000  0.77812000  1
  B  B9  1  0.32525700  0.25000000  0.72188000  1
  B  B10  1  0.17474300  0.25000000  0.22188000  1
  B  B11  1  0.67474300  0.75000000  0.27812000  1
  B  B12  1  0.07983500  0.75000000  0.73121100  1
  B  B13  1  0.57983500  0.25000000  0.76878900  1
  B  B14  1  0.92016500  0.25000000  0.26878900  1
  B  B15  1  0.71238600  0.12058400  0.73018200  1
  P  P0  1  0.07153500  0.75000000  0.59992800  1
  P  P1  1  0.57153500  0.25000000  0.90007200  1
  P  P2  1  0.92846500  0.25000000  0.40007200  1
  P  P3  1  0.42846500  0.75000000  0.09992800  1
  F  F0  1  0.29673900  0.75000000  0.54939400  1
  F  F1  1  0.54374300  0.63739800  0.05158000  1
  F  F2  1  0.95625700  0.86260200  0.55158000  1
  F  F3  1  0.45625700  0.13739800  0.94842000  1
  F  F4  1  0.95625700  0.63739800  0.55158000  1
  F  F5  1  0.45625700  0.36260200  0.94842000  1
  F  F6  1  0.04374300  0.13739800  0.44842000  1
  F  F7  1  0.54374300  0.86260200  0.05158000  1
  F  F8  1  0.85903600  0.75000000  0.22491300  1
  F  F9  1  0.04374300  0.36260200  0.44842000  1
  F  F10  1  0.14096400  0.25000000  0.77508700  1
  F  F11  1  0.64096400  0.75000000  0.72491300  1
  F  F12  1  0.70816800  0.75000000  0.37195400  1
  F  F13  1  0.20816800  0.25000000  0.12804600  1
  F  F14  1  0.29183200  0.25000000  0.62804600  1
  F  F15  1  0.79183200  0.75000000  0.87195400  1
  F  F16  1  0.21231600  0.52973800  0.21122700  1
  F  F17  1  0.71231600  0.47026200  0.28877300  1
  F  F18  1  0.78768400  0.02973800  0.78877300  1
  F  F19  1  0.28768400  0.97026200  0.71122700  1
  F  F20  1  0.78768400  0.47026200  0.78877300  1
  F  F21  1  0.28768400  0.52973800  0.71122700  1
  F  F22  1  0.21231600  0.97026200  0.21122700  1
  F  F23  1  0.71231600  0.02973800  0.28877300  1
  F  F24  1  0.24969900  0.60031000  0.36210900  1
  F  F25  1  0.74969900  0.39969000  0.13789100  1
  F  F26  1  0.75030100  0.10031000  0.63789100  1
  F  F27  1  0.25030100  0.89969000  0.86210900  1
  F  F28  1  0.75030100  0.39969000  0.63789100  1
  F  F29  1  0.25030100  0.60031000  0.86210900  1
  F  F30  1  0.24969900  0.89969000  0.36210900  1
  F  F31  1  0.74969900  0.10031000  0.13789100  1
  F  F32  1  0.70326100  0.25000000  0.45060600  1
  F  F33  1  0.20326100  0.75000000  0.04939400  1
  F  F34  1  0.35903600  0.25000000  0.27508700  1
  F  F35  1  0.79673900  0.25000000  0.95060600  1
loop_
_geom_bond_atom_site_label_1
_geom_bond_atom_site_label_2
_geom_bond_distance
_geom_bond_site_symmetry_2
B0 F31 1.336442 1_555
B0 F23 1.354597 1_555
B0 B14 1.693520 1_555
B1 F30 1.336442 1_555
B1 F22 1.354597 1_555
B1 B7 1.693520 1_555
B2 F29 1.336442 1_555
B2 F21 1.354597 1_555
B3 F28 1.336442 1_555
B3 F20 1.354597 1_555
B4 F25 1.336442 1_555
B4 F17 1.354597 1_555
B5 F24 1.336442 1_555
B5 F16 1.354597 1_555
B5 B7 1.693520 1_555
B6 F27 1.336442 1_555
B6 F19 1.354597 1_555
B7 P3 1.847280 1_555
B8 F15 1.335631 1_555
B8 F11 1.354693 1_555
B9 F14 1.335631 1_555
B9 F10 1.354693 1_555
B10 F13 1.335631 1_555
B10 F34 1.354693 1_555
B10 B14 1.693665 1_455
B11 F12 1.335631 1_555
B11 F8 1.354693 1_555
B11 B7 1.693665 1_555
B12 B6 1.693520 1_555
B12 B2 1.693520 1_555
B12 B8 1.693665 1_455
B12 P0 1.847280 1_555
B13 B15 1.693520 1_555
B13 B3 1.693520 1_555
B13 B9 1.693665 1_555
B13 P1 1.847280 1_555
B14 B4 1.693520 1_555
B14 P2 1.847280 1_555
B15 F26 1.336442 1_555
B15 F18 1.354597 1_555
F0 P0 1.552188 1_555
F1 P3 1.552405 1_555
F2 P0 1.552405 1_655
F3 P1 1.552405 1_555
F4 P0 1.552405 1_655
F5 P1 1.552405 1_555
F6 P2 1.552405 1_455
F7 P3 1.552405 1_555
F9 P2 1.552405 1_455
F32 P2 1.552188 1_555
F33 P3 1.552188 1_555
F35 P1 1.552188 1_555
