# generated using pymatgen
data_Na10In4Ga4Si5S7O48
_symmetry_space_group_name_H-M   'P 1'
_cell_length_a   17.87469562
_cell_length_b   8.99102380
_cell_length_c   22.65345665
_cell_angle_alpha   89.59826737
_cell_angle_beta   88.78516332
_cell_angle_gamma   120.06336628
_symmetry_Int_Tables_number   1
_chemical_formula_structural   Na10In4Ga4Si5S7O48
_chemical_formula_sum   'Na30 In12 Ga12 Si15 S21 O144'
_cell_volume   3149.54222177
_cell_formula_units_Z   3
loop_
 _symmetry_equiv_pos_site_id
 _symmetry_equiv_pos_as_xyz
  1  'x, y, z'
loop_
 _atom_site_type_symbol
 _atom_site_label
 _atom_site_symmetry_multiplicity
 _atom_site_fract_x
 _atom_site_fract_y
 _atom_site_fract_z
 _atom_site_occupancy
  Na  Na0  1  0.32326656  0.00027261  0.24911056  1
  Na  Na1  1  0.82220371  0.99758327  0.25260616  1
  Na  Na2  1  0.18404642  0.37499782  0.24224848  1
  Na  Na3  1  0.67995916  0.36967947  0.24536541  1
  Na  Na4  1  0.99424324  0.63072435  0.25913813  1
  Na  Na5  1  0.49756852  0.62655259  0.25724763  1
  Na  Na6  1  0.82552065  0.64706061  0.74465952  1
  Na  Na7  1  0.99456696  0.36258493  0.75600155  1
  Na  Na8  1  0.49687184  0.35642882  0.75664030  1
  Na  Na9  1  0.17872053  0.99000409  0.74298685  1
  Na  Na10  1  0.01850737  0.70913395  0.58483140  1
  Na  Na11  1  0.33029639  0.97073132  0.58964245  1
  Na  Na12  1  0.02233428  0.32933983  0.08323005  1
  Na  Na13  1  0.51684978  0.33030014  0.08573587  1
  Na  Na14  1  0.16174539  0.30129167  0.92553743  1
  Na  Na15  1  0.66382286  0.30004562  0.92537969  1
  Na  Na16  1  0.16309506  0.02096209  0.42462132  1
  Na  Na17  1  0.66284933  0.03061934  0.42335749  1
  Na  Na18  1  0.99486479  0.99641895  0.50234680  1
  Na  Na19  1  0.50948262  0.99588172  0.49699283  1
  Na  Na20  1  0.00220823  0.00376903  0.00030953  1
  Na  Na21  1  0.50096438  0.99792657  0.00428053  1
  Na  Na22  1  0.34420556  0.33447609  0.83529765  1
  Na  Na23  1  0.84578590  0.32323992  0.83119979  1
  Na  Na24  1  0.34844778  0.36021870  0.33676475  1
  Na  Na25  1  0.84536545  0.35879403  0.33827619  1
  Na  Na26  1  0.17441430  0.65983374  0.16700981  1
  Na  Na27  1  0.67476800  0.66096342  0.16553678  1
  Na  Na28  1  0.17036197  0.67276126  0.66925222  1
  Na  Na29  1  0.67860855  0.70563504  0.66022656  1
  In  In0  1  0.98904496  0.98461793  0.35175110  1
  In  In1  1  0.99065844  0.99412671  0.84763107  1
  In  In2  1  0.49468569  0.00997977  0.85090052  1
  In  In3  1  0.50683122  0.00054772  0.64543642  1
  In  In4  1  0.99918171  0.00474063  0.15287879  1
  In  In5  1  0.83020573  0.33854406  0.18281428  1
  In  In6  1  0.33719364  0.33511388  0.98505275  1
  In  In7  1  0.83303562  0.33169674  0.98378591  1
  In  In8  1  0.16819905  0.65340491  0.01832610  1
  In  In9  1  0.16366714  0.66835185  0.51705932  1
  In  In10  1  0.16281527  0.66881477  0.81354906  1
  In  In11  1  0.66772972  0.68125481  0.81586905  1
  Ga  Ga0  1  0.48579565  0.97268227  0.34792213  1
  Ga  Ga1  1  0.99958615  0.98703741  0.64918219  1
  Ga  Ga2  1  0.50100235  0.01691489  0.15385637  1
  Ga  Ga3  1  0.32952932  0.31358190  0.67990335  1
  Ga  Ga4  1  0.83087225  0.31012285  0.68425453  1
  Ga  Ga5  1  0.33764981  0.35729316  0.18625099  1
  Ga  Ga6  1  0.33805038  0.34759425  0.48364013  1
  Ga  Ga7  1  0.83564707  0.34731593  0.48424457  1
  Ga  Ga8  1  0.66233487  0.63892837  0.01825845  1
  Ga  Ga9  1  0.65999513  0.70436096  0.51750339  1
  Ga  Ga10  1  0.15747463  0.64129226  0.31585172  1
  Ga  Ga11  1  0.65340927  0.62948321  0.31734466  1
  Si  Si0  1  0.35491254  0.71256319  0.24988483  1
  Si  Si1  1  0.84585938  0.70037080  0.25279731  1
  Si  Si2  1  0.00057148  0.30011650  0.25040315  1
  Si  Si3  1  0.49684211  0.28531562  0.25060947  1
  Si  Si4  1  0.99461646  0.69785683  0.74481195  1
  Si  Si5  1  0.35347061  0.00565225  0.74427803  1
  Si  Si6  1  0.85380868  0.00154367  0.74499726  1
  Si  Si7  1  0.18664765  0.05260692  0.58117297  1
  Si  Si8  1  0.69424902  0.05353362  0.58046495  1
  Si  Si9  1  0.18836983  0.32917964  0.08591794  1
  Si  Si10  1  0.67905612  0.32518920  0.08346213  1
  Si  Si11  1  0.01486975  0.36134360  0.91668705  1
  Si  Si12  1  0.51917931  0.37486028  0.91699720  1
  Si  Si13  1  0.01524887  0.65999316  0.41782499  1
  Si  Si14  1  0.51691871  0.66637154  0.41503592  1
  S  S0  1  0.15186344  0.00126850  0.25133384  1
  S  S1  1  0.64179573  0.99459682  0.25122223  1
  S  S2  1  0.15128804  0.29384056  0.74613460  1
  S  S3  1  0.65102006  0.29581159  0.75001775  1
  S  S4  1  0.49619048  0.69801055  0.74922711  1
  S  S5  1  0.48094363  0.34397870  0.58157537  1
  S  S6  1  0.97742998  0.32641957  0.58391288  1
  S  S7  1  0.33263073  0.61685059  0.58337132  1
  S  S8  1  0.83003021  0.62317716  0.58288361  1
  S  S9  1  0.48428989  0.63788598  0.08497114  1
  S  S10  1  0.98413553  0.63756435  0.08302179  1
  S  S11  1  0.33334492  0.03596272  0.08704064  1
  S  S12  1  0.82757944  0.02294788  0.08246184  1
  S  S13  1  0.31646449  0.66852958  0.91516624  1
  S  S14  1  0.81200477  0.66829460  0.91908402  1
  S  S15  1  0.16709386  0.96414827  0.91688274  1
  S  S16  1  0.66495906  0.95665590  0.91943225  1
  S  S17  1  0.31671150  0.96298850  0.41527840  1
  S  S18  1  0.80875007  0.95549078  0.41778633  1
  S  S19  1  0.16938587  0.37356080  0.41619310  1
  S  S20  1  0.66650845  0.37778593  0.41885006  1
  O  O0  1  0.11533166  0.03695751  0.30505863  1
  O  O1  1  0.60433041  0.02755009  0.30533285  1
  O  O2  1  0.41702298  0.77967408  0.30630940  1
  O  O3  1  0.91421678  0.77104041  0.30539301  1
  O  O4  1  0.47886810  0.15305492  0.30621154  1
  O  O5  1  0.98191046  0.17530597  0.30712186  1
  O  O6  1  0.11827184  0.19252512  0.80272062  1
  O  O7  1  0.61565971  0.19340620  0.80603974  1
  O  O8  1  0.48657969  0.77813803  0.80346657  1
  O  O9  1  0.97571603  0.77899781  0.80375821  1
  O  O10  1  0.41694439  0.05728298  0.80007964  1
  O  O11  1  0.90986103  0.05115025  0.80465095  1
  O  O12  1  0.39551696  0.97780997  0.68356010  1
  O  O13  1  0.90372840  0.96715231  0.68974502  1
  O  O14  1  0.09396529  0.20654873  0.69677313  1
  O  O15  1  0.59304237  0.21371141  0.70031260  1
  O  O16  1  0.02001948  0.82673011  0.68683588  1
  O  O17  1  0.51205983  0.80512862  0.69588030  1
  O  O18  1  0.40040543  0.84200336  0.19267853  1
  O  O19  1  0.88531369  0.82492726  0.19392895  1
  O  O20  1  0.02602059  0.23638361  0.18987412  1
  O  O21  1  0.52120356  0.21860814  0.19012812  1
  O  O22  1  0.09533983  0.96323755  0.20016713  1
  O  O23  1  0.58909404  0.97010303  0.19874076  1
  O  O24  1  0.44330469  0.36911360  0.63829589  1
  O  O25  1  0.93993118  0.36169799  0.63799028  1
  O  O26  1  0.24676542  0.13248126  0.63930124  1
  O  O27  1  0.74896183  0.14375636  0.63848455  1
  O  O28  1  0.32499452  0.51585919  0.63753745  1
  O  O29  1  0.81916775  0.52449724  0.63841385  1
  O  O30  1  0.44512929  0.51928412  0.13857234  1
  O  O31  1  0.94744734  0.52934481  0.13806639  1
  O  O32  1  0.32281154  0.11883509  0.14045059  1
  O  O33  1  0.81561183  0.09617521  0.13863227  1
  O  O34  1  0.24661137  0.34662911  0.14361924  1
  O  O35  1  0.73479217  0.35756008  0.14247808  1
  O  O36  1  0.22872188  0.31257322  0.02246547  1
  O  O37  1  0.72146350  0.30115959  0.02236096  1
  O  O38  1  0.43203817  0.56029550  0.03238115  1
  O  O39  1  0.93211827  0.55215155  0.03136348  1
  O  O40  1  0.35188422  0.14597462  0.03305323  1
  O  O41  1  0.84625873  0.14358490  0.03206194  1
  O  O42  1  0.23747703  0.16715379  0.52074293  1
  O  O43  1  0.73899912  0.16457604  0.51873647  1
  O  O44  1  0.34385707  0.53946444  0.52916602  1
  O  O45  1  0.85005641  0.54320729  0.53137229  1
  O  O46  1  0.42285361  0.31614838  0.53192489  1
  O  O47  1  0.92751132  0.31107389  0.53102979  1
  O  O48  1  0.28027231  0.69931487  0.96999855  1
  O  O49  1  0.76666564  0.68984126  0.97102586  1
  O  O50  1  0.07371277  0.44501966  0.97552097  1
  O  O51  1  0.57925961  0.46723834  0.97418125  1
  O  O52  1  0.15993996  0.86086579  0.96990443  1
  O  O53  1  0.65782197  0.85070099  0.97144713  1
  O  O54  1  0.28035449  0.86146428  0.47180059  1
  O  O55  1  0.76607100  0.84341719  0.47086839  1
  O  O56  1  0.15889055  0.45552236  0.46953596  1
  O  O57  1  0.65657234  0.46714284  0.46946736  1
  O  O58  1  0.07390831  0.70291144  0.47665429  1
  O  O59  1  0.58113427  0.71030069  0.47046855  1
  O  O60  1  0.06477407  0.63903470  0.35812625  1
  O  O61  1  0.56124651  0.63689972  0.35464451  1
  O  O62  1  0.26081024  0.87599095  0.36450264  1
  O  O63  1  0.76055924  0.87596915  0.36328777  1
  O  O64  1  0.18187376  0.47825026  0.36133684  1
  O  O65  1  0.68070602  0.47660670  0.36132855  1
  O  O66  1  0.05919404  0.46986371  0.85519842  1
  O  O67  1  0.56070020  0.47746877  0.85405270  1
  O  O68  1  0.18067629  0.89223677  0.86153490  1
  O  O69  1  0.68063489  0.89150862  0.86336121  1
  O  O70  1  0.26443804  0.65071362  0.86318153  1
  O  O71  1  0.76504037  0.64836190  0.86352423  1
  O  O72  1  0.01383311  0.84225174  0.41316763  1
  O  O73  1  0.51328819  0.84852059  0.40749877  1
  O  O74  1  0.40434569  0.98507089  0.40971416  1
  O  O75  1  0.89729856  0.98027219  0.41773353  1
  O  O76  1  0.09197535  0.19960101  0.41306276  1
  O  O77  1  0.58951618  0.20244301  0.41424762  1
  O  O78  1  0.01435720  0.17676378  0.91390881  1
  O  O79  1  0.51822419  0.18902494  0.91712487  1
  O  O80  1  0.08767085  0.97767046  0.91434407  1
  O  O81  1  0.58444194  0.96823511  0.91591074  1
  O  O82  1  0.40573755  0.81543715  0.91098768  1
  O  O83  1  0.89964126  0.81838282  0.91801740  1
  O  O84  1  0.48457101  0.18194968  0.58511508  1
  O  O85  1  0.98673327  0.17354130  0.58953338  1
  O  O86  1  0.08794687  0.02451532  0.58742616  1
  O  O87  1  0.59538002  0.02713051  0.58258933  1
  O  O88  1  0.40820702  0.79507028  0.58448233  1
  O  O89  1  0.91079323  0.79767042  0.58525058  1
  O  O90  1  0.49238018  0.80612514  0.09346803  1
  O  O91  1  0.99060771  0.80596499  0.08798093  1
  O  O92  1  0.41122942  0.01663385  0.09040677  1
  O  O93  1  0.90707071  0.00877819  0.08460129  1
  O  O94  1  0.08949628  0.16044466  0.08700477  1
  O  O95  1  0.58075921  0.15306640  0.09014954  1
  O  O96  1  0.34433502  0.18312248  0.73981018  1
  O  O97  1  0.84343209  0.17166737  0.73995467  1
  O  O98  1  0.23933376  0.31452019  0.73793000  1
  O  O99  1  0.73860589  0.32261358  0.74181955  1
  O  O100  1  0.41742904  0.52478098  0.74400529  1
  O  O101  1  0.90731953  0.50831163  0.73588514  1
  O  O102  1  0.34098432  0.51651610  0.24262488  1
  O  O103  1  0.83066434  0.50568305  0.24735615  1
  O  O104  1  0.41018525  0.30774416  0.24142265  1
  O  O105  1  0.91217277  0.31287917  0.24410893  1
  O  O106  1  0.23897701  0.15584482  0.24216556  1
  O  O107  1  0.73056213  0.14765545  0.24558961  1
  O  O108  1  0.31840687  0.50538826  0.91904635  1
  O  O109  1  0.81530923  0.50647827  0.92320507  1
  O  O110  1  0.42303389  0.35226019  0.92151952  1
  O  O111  1  0.91991789  0.34610316  0.92087564  1
  O  O112  1  0.24289900  0.14241689  0.91914169  1
  O  O113  1  0.73927297  0.13644447  0.92174628  1
  O  O114  1  0.32052826  0.13227538  0.42006549  1
  O  O115  1  0.81371904  0.12552495  0.42161510  1
  O  O116  1  0.24737070  0.35365656  0.41900779  1
  O  O117  1  0.74481417  0.35659981  0.42139648  1
  O  O118  1  0.42092404  0.49113236  0.42655554  1
  O  O119  1  0.91959980  0.48382148  0.42645758  1
  O  O120  1  0.17593861  0.50084400  0.08622843  1
  O  O121  1  0.66745825  0.49890178  0.07837881  1
  O  O122  1  0.07181800  0.65650019  0.07814949  1
  O  O123  1  0.57098511  0.65071612  0.07790924  1
  O  O124  1  0.25357948  0.86685199  0.08101267  1
  O  O125  1  0.74900008  0.85436525  0.07437609  1
  O  O126  1  0.17969373  0.85901585  0.57993844  1
  O  O127  1  0.68322049  0.85778381  0.57754696  1
  O  O128  1  0.25302285  0.63316817  0.58090467  1
  O  O129  1  0.75252244  0.63756189  0.57460073  1
  O  O130  1  0.06619967  0.48618722  0.58009757  1
  O  O131  1  0.56851373  0.49435202  0.57429215  1
  O  O132  1  0.16298180  0.84864561  0.25849684  1
  O  O133  1  0.65168803  0.84069862  0.25605259  1
  O  O134  1  0.25810522  0.69485911  0.26110954  1
  O  O135  1  0.75122385  0.69166911  0.26357426  1
  O  O136  1  0.08637359  0.49470651  0.25628989  1
  O  O137  1  0.58184805  0.47933533  0.25713410  1
  O  O138  1  0.15849968  0.46503823  0.75045076  1
  O  O139  1  0.65738655  0.46750292  0.75454051  1
  O  O140  1  0.07973346  0.67365469  0.74858010  1
  O  O141  1  0.57238797  0.67066469  0.75156524  1
  O  O142  1  0.25622154  0.84101950  0.75260509  1
  O  O143  1  0.76021687  0.81828455  0.75062010  1
loop_
_geom_bond_atom_site_label_1
_geom_bond_atom_site_label_2
_geom_bond_distance
_geom_bond_site_symmetry_2
Na0 O134 2.396360 1_545
Na0 O104 2.401050 1_555
Na0 O132 2.483742 1_545
Na0 O106 2.523825 1_555
Na0 O32 2.677360 1_555
Na0 O18 2.734408 1_545
Na0 O4 2.765054 1_555
Na0 O62 2.813100 1_545
Na1 O135 2.391089 1_555
Na1 O105 2.463968 1_565
Na1 O107 2.598394 1_565
Na1 O133 2.639400 1_555
Na1 O19 2.677519 1_555
Na1 O63 2.708073 1_555
Na1 O33 2.747970 1_565
Na1 O5 2.799051 1_565
Na2 O102 2.431726 1_555
Na2 O136 2.484274 1_555
Na2 O134 2.536244 1_555
Na2 O34 2.548650 1_555
Na2 O106 2.604792 1_555
Na2 O20 2.752345 1_555
Na2 O64 2.864971 1_555
Na2 O0 2.982568 1_555
Na3 O103 2.336558 1_555
Na3 O137 2.415529 1_555
Na3 O35 2.533501 1_555
Na3 O135 2.553061 1_555
Na3 O107 2.571419 1_555
Na3 O21 2.788533 1_555
Na3 O65 2.801684 1_555
Na3 O1 2.971943 1_555
Na4 O136 2.495215 1_655
Na4 O105 2.503843 1_555
Na4 O3 2.549275 1_555
Na4 O103 2.574546 1_555
Na4 O60 2.579011 1_655
Na4 O132 2.648234 1_655
Na4 O22 2.901180 1_655
Na4 O31 2.901950 1_555
Na5 O133 2.445161 1_555
Na5 O137 2.453403 1_555
Na5 O61 2.485071 1_555
Na5 O102 2.488350 1_555
Na5 O104 2.517323 1_555
Na5 O2 2.672625 1_555
Na5 O30 2.876414 1_555
Na5 O23 2.960039 1_555
Na6 O143 2.355306 1_555
Na6 O101 2.356316 1_555
Na6 O99 2.528539 1_555
Na6 O139 2.606489 1_555
Na6 O29 2.635048 1_555
Na6 O9 2.718639 1_555
Na6 O13 2.762161 1_555
Na6 O71 2.882557 1_555
Na7 O97 2.404371 1_555
Na7 O140 2.425847 1_655
Na7 O66 2.517658 1_655
Na7 O101 2.534856 1_555
Na7 O138 2.594042 1_655
Na7 O11 2.643089 1_555
Na7 O25 2.864241 1_555
Na8 O96 2.408980 1_555
Na8 O141 2.446523 1_555
Na8 O67 2.500419 1_555
Na8 O10 2.509357 1_555
Na8 O139 2.520786 1_555
Na8 O100 2.560122 1_555
Na8 O24 2.886357 1_555
Na8 O15 2.893054 1_555
Na9 O142 2.372506 1_555
Na9 O140 2.485954 1_555
Na9 O98 2.554003 1_565
Na9 O96 2.573470 1_565
Na9 O26 2.629256 1_565
Na9 O16 2.797675 1_555
Na9 O68 2.826237 1_555
Na9 O6 2.873660 1_565
Na10 O89 2.423979 1_455
Na10 O86 2.462480 1_565
Na10 O126 2.494727 1_555
Na10 O16 2.542931 1_555
Na10 O130 2.543140 1_555
Na10 O58 2.635085 1_555
Na10 O45 2.904785 1_455
Na10 O25 2.942905 1_455
Na11 O126 2.371297 1_555
Na11 O12 2.433593 1_555
Na11 O84 2.441262 1_565
Na11 O88 2.578153 1_555
Na11 O128 2.641654 1_555
Na11 O26 2.781560 1_565
Na11 O54 2.854394 1_555
Na11 O46 2.965669 1_565
Na12 O94 2.362945 1_555
Na12 O120 2.385031 1_555
Na12 O20 2.563753 1_555
Na12 O93 2.568902 1_455
Na12 O50 2.605970 1_554
Na12 O122 2.613854 1_555
Na13 O121 2.337032 1_555
Na13 O95 2.383429 1_555
Na13 O92 2.486311 1_555
Na13 O123 2.541600 1_555
Na13 O21 2.580663 1_555
Na13 O51 2.758132 1_554
Na13 O30 2.847662 1_555
Na13 O40 2.854213 1_555
Na14 O78 2.311252 1_555
Na14 O108 2.461877 1_555
Na14 O112 2.497146 1_555
Na14 O36 2.501560 1_556
Na14 O80 2.539352 1_545
Na14 O50 2.722211 1_555
Na14 O6 2.944386 1_555
Na15 O79 2.285822 1_555
Na15 O109 2.395214 1_555
Na15 O113 2.444150 1_555
Na15 O37 2.444223 1_556
Na15 O81 2.596191 1_545
Na15 O51 2.827659 1_555
Na15 O7 2.877009 1_555
Na16 O72 2.346793 1_545
Na16 O114 2.468957 1_555
Na16 O76 2.513614 1_555
Na16 O42 2.578529 1_555
Na16 O116 2.589391 1_555
Na16 O58 2.722817 1_545
Na16 O0 2.881182 1_555
Na16 O62 2.968070 1_545
Na17 O73 2.370683 1_545
Na17 O115 2.385710 1_555
Na17 O77 2.486632 1_555
Na17 O117 2.536097 1_555
Na17 O43 2.547642 1_555
Na17 O59 2.691266 1_545
Na17 O1 2.886881 1_555
Na18 O89 2.474135 1_555
Na18 O86 2.503683 1_665
Na18 O72 2.568785 1_655
Na18 O75 2.574594 1_555
Na18 O85 2.592681 1_565
Na18 O76 2.657711 1_665
Na19 O87 2.428575 1_565
Na19 O73 2.447923 1_555
Na19 O77 2.486941 1_565
Na19 O88 2.643479 1_555
Na19 O74 2.725360 1_555
Na19 O84 2.781659 1_565
Na20 O78 2.428626 1_554
Na20 O94 2.498492 1_555
Na20 O80 2.533873 1_544
Na20 O93 2.545654 1_455
Na20 O91 2.591116 1_445
Na20 O83 2.596436 1_444
Na21 O95 2.434400 1_565
Na21 O79 2.518126 1_564
Na21 O92 2.559275 1_565
Na21 O81 2.566164 1_554
Na21 O90 2.598525 1_555
Na21 O82 2.731098 1_554
Na22 O110 2.391938 1_555
Na22 O100 2.551380 1_555
Na22 O112 2.558074 1_555
Na22 O96 2.564208 1_555
Na22 O108 2.624339 1_555
Na22 O98 2.873186 1_555
Na23 O111 2.402511 1_555
Na23 O97 2.473313 1_555
Na23 O101 2.579920 1_555
Na23 O113 2.689844 1_555
Na23 O99 2.814941 1_555
Na23 O109 2.873028 1_555
Na24 O118 2.412203 1_555
Na24 O116 2.547107 1_555
Na24 O104 2.557366 1_555
Na24 O102 2.588130 1_555
Na24 O114 2.625134 1_555
Na24 O106 2.903171 1_555
Na25 O119 2.379965 1_555
Na25 O103 2.527438 1_555
Na25 O105 2.558377 1_555
Na25 O117 2.568415 1_555
Na25 O115 2.644525 1_555
Na25 O107 2.925567 1_555
Na26 O120 2.338069 1_555
Na26 O136 2.500664 1_555
Na26 O124 2.540753 1_555
Na26 O134 2.560029 1_555
Na26 O122 2.741980 1_555
Na26 O132 2.756419 1_555
Na27 O121 2.428810 1_555
Na27 O125 2.563342 1_555
Na27 O135 2.575947 1_555
Na27 O137 2.611485 1_555
Na27 O123 2.716210 1_555
Na27 O133 2.768528 1_555
Na28 O140 2.396563 1_555
Na28 O142 2.458886 1_555
Na28 O138 2.540682 1_555
Na28 O126 2.565948 1_555
Na28 O128 2.593635 1_555
Na28 O130 2.727136 1_555
Na29 O127 2.287079 1_555
Na29 O143 2.454050 1_555
Na29 O129 2.569206 1_555
Na29 O141 2.685382 1_555
Na29 O131 2.782055 1_555
Na29 O139 2.894916 1_555
In0 O3 2.023317 1_555
In0 O5 2.044031 1_565
In0 O72 2.083237 1_655
In0 O75 2.180868 1_555
In0 O0 2.294192 1_665
In0 O76 2.373444 1_665
In1 O11 2.022659 1_565
In1 O9 2.078694 1_555
In1 O78 2.120091 1_665
In1 O83 2.228239 1_555
In1 O6 2.284648 1_665
In1 O80 2.382834 1_655
In2 O10 2.022474 1_555
In2 O79 2.097887 1_555
In2 O82 2.128069 1_545
In2 O7 2.176874 1_555
In2 O8 2.292632 1_545
In2 O81 2.362091 1_545
In3 O87 2.027293 1_555
In3 O12 2.064875 1_545
In3 O17 2.131331 1_545
In3 O15 2.179181 1_555
In3 O88 2.302912 1_545
In3 O84 2.308189 1_555
In4 O19 2.054986 1_545
In4 O20 2.076209 1_655
In4 O94 2.096918 1_655
In4 O22 2.226241 1_645
In4 O91 2.269561 1_545
In4 O93 2.295988 1_555
In5 O35 2.031972 1_555
In5 O103 2.101197 1_555
In5 O105 2.132699 1_555
In5 O31 2.155421 1_555
In5 O107 2.221688 1_555
In5 O33 2.300126 1_555
In6 O36 2.013187 1_556
In6 O110 2.028728 1_555
In6 O40 2.139348 1_556
In6 O38 2.188892 1_556
In6 O108 2.279620 1_555
In6 O112 2.299821 1_555
In7 O111 2.040000 1_555
In7 O37 2.047057 1_556
In7 O41 2.120842 1_556
In7 O39 2.195638 1_556
In7 O109 2.222692 1_555
In7 O113 2.247790 1_555
In8 O50 2.056113 1_554
In8 O120 2.106260 1_555
In8 O48 2.110505 1_554
In8 O122 2.180574 1_555
In8 O52 2.226743 1_554
In8 O124 2.285685 1_555
In9 O58 2.016496 1_555
In9 O126 2.146925 1_555
In9 O54 2.161521 1_555
In9 O56 2.167274 1_555
In9 O130 2.181713 1_555
In9 O128 2.311002 1_555
In10 O66 2.025653 1_555
In10 O142 2.091204 1_555
In10 O140 2.128366 1_555
In10 O68 2.172930 1_555
In10 O70 2.229452 1_555
In10 O138 2.303416 1_555
In11 O67 2.039841 1_555
In11 O143 2.065408 1_555
In11 O69 2.094380 1_555
In11 O71 2.206569 1_555
In11 O141 2.231591 1_555
In11 O139 2.313047 1_555
Ga0 O2 1.829193 1_555
Ga0 O4 1.929468 1_565
Ga0 O73 1.966168 1_555
Ga0 O74 2.041992 1_555
Ga0 O1 2.126689 1_565
Ga0 O77 2.507308 1_565
Ga1 O13 1.853690 1_555
Ga1 O16 1.860596 1_655
Ga1 O86 1.982864 1_665
Ga1 O14 2.162071 1_665
Ga1 O89 2.222605 1_555
Ga1 O85 2.248977 1_565
Ga2 O21 1.863191 1_555
Ga2 O18 1.886861 1_545
Ga2 O95 1.937313 1_555
Ga2 O23 2.101498 1_545
Ga2 O92 2.175942 1_555
Ga2 O90 2.289035 1_545
Ga3 O26 1.830599 1_555
Ga3 O96 1.895130 1_555
Ga3 O24 2.041667 1_555
Ga3 O98 2.061834 1_555
Ga3 O28 2.088487 1_555
Ga3 O100 2.308525 1_555
Ga4 O27 1.829761 1_555
Ga4 O97 1.860700 1_555
Ga4 O101 2.016895 1_555
Ga4 O25 2.028406 1_555
Ga4 O99 2.128274 1_555
Ga4 O29 2.285248 1_555
Ga5 O34 1.871242 1_555
Ga5 O102 1.904529 1_555
Ga5 O30 2.016242 1_555
Ga5 O104 2.020197 1_555
Ga5 O106 2.160602 1_555
Ga5 O32 2.283991 1_555
Ga6 O118 1.874068 1_555
Ga6 O42 1.888107 1_555
Ga6 O44 1.974965 1_555
Ga6 O46 2.017295 1_555
Ga6 O116 2.227543 1_555
Ga6 O114 2.317500 1_555
Ga7 O43 1.837225 1_555
Ga7 O119 1.876374 1_555
Ga7 O45 1.972738 1_555
Ga7 O47 2.128570 1_555
Ga7 O117 2.214094 1_555
Ga7 O115 2.328785 1_555
Ga8 O51 1.836522 1_554
Ga8 O121 1.882830 1_555
Ga8 O49 1.971143 1_554
Ga8 O123 2.141324 1_555
Ga8 O125 2.208953 1_555
Ga8 O53 2.210351 1_554
Ga9 O59 1.806507 1_555
Ga9 O127 1.844395 1_555
Ga9 O55 1.948265 1_555
Ga9 O131 2.162729 1_555
Ga9 O57 2.375183 1_555
Ga9 O129 2.417466 1_555
Ga10 O60 1.887301 1_555
Ga10 O136 1.895315 1_555
Ga10 O134 2.008568 1_555
Ga10 O64 2.009788 1_555
Ga10 O132 2.224917 1_555
Ga10 O62 2.300659 1_555
Ga11 O61 1.866578 1_555
Ga11 O137 1.920614 1_555
Ga11 O135 1.942673 1_555
Ga11 O65 1.947691 1_555
Ga11 O63 2.350964 1_555
Ga11 O133 2.357659 1_555
O0 S0 1.480640 1_555
O1 S1 1.485902 1_545
O2 Si0 1.621813 1_555
O3 Si1 1.615794 1_555
O4 Si3 1.637960 1_555
O5 Si2 1.614936 1_655
O6 S2 1.494721 1_555
O7 S3 1.491431 1_555
O8 S4 1.478419 1_555
O9 Si4 1.634307 1_555
O10 Si5 1.625439 1_555
O11 Si6 1.626987 1_555
O12 Si5 1.633686 1_565
O13 Si6 1.641024 1_565
O14 S2 1.473569 1_555
O15 S3 1.476963 1_555
O16 Si4 1.643142 1_455
O17 S4 1.471020 1_555
O18 Si0 1.637398 1_555
O19 Si1 1.636400 1_555
O20 Si2 1.631315 1_555
O21 Si3 1.635373 1_555
O22 S0 1.479970 1_565
O23 S1 1.480767 1_555
O24 S5 1.508134 1_555
O25 S6 1.494741 1_555
O26 Si7 1.644544 1_555
O27 Si8 1.617585 1_555
O28 S7 1.483871 1_555
O29 S8 1.486176 1_555
O30 S9 1.516389 1_555
O31 S10 1.496892 1_555
O32 S11 1.482593 1_555
O33 S12 1.496560 1_555
O34 Si9 1.647402 1_555
O35 Si10 1.623580 1_555
O36 Si9 1.635743 1_555
O37 Si10 1.631238 1_555
O38 S9 1.477946 1_555
O39 S10 1.472093 1_555
O40 S11 1.490420 1_555
O41 S12 1.481595 1_555
O42 Si7 1.658361 1_555
O43 Si8 1.650723 1_555
O44 S7 1.474323 1_555
O45 S8 1.502903 1_555
O46 S5 1.482900 1_555
O47 S6 1.474675 1_555
O48 S13 1.479254 1_555
O49 S14 1.482873 1_555
O50 Si11 1.652061 1_555
O51 Si12 1.643671 1_555
O52 S15 1.476567 1_555
O53 S16 1.472533 1_555
O54 S17 1.499672 1_555
O55 S18 1.489046 1_555
O56 S19 1.476435 1_555
O57 S20 1.462559 1_555
O58 Si13 1.638730 1_555
O59 Si14 1.632254 1_555
O60 Si13 1.663747 1_555
O61 Si14 1.655033 1_555
O62 S17 1.487147 1_555
O63 S18 1.489228 1_555
O64 S19 1.497129 1_555
O65 S20 1.515135 1_555
O66 Si11 1.636948 1_555
O67 Si12 1.638848 1_555
O68 S15 1.484850 1_555
O69 S16 1.481486 1_555
O70 S13 1.475511 1_555
O71 S14 1.489360 1_555
O72 Si13 1.654182 1_555
O73 Si14 1.678832 1_555
O74 S17 1.479426 1_555
O75 S18 1.483715 1_555
O76 S19 1.484364 1_555
O77 S20 1.491590 1_555
O78 Si11 1.656637 1_555
O79 Si12 1.662345 1_555
O80 S15 1.486548 1_555
O81 S16 1.497808 1_555
O82 S13 1.476497 1_555
O83 S14 1.468145 1_555
O84 S5 1.492025 1_555
O85 S6 1.469919 1_555
O86 Si7 1.654954 1_555
O87 Si8 1.660649 1_555
O88 S7 1.492110 1_555
O89 S8 1.511138 1_555
O90 S9 1.460188 1_555
O91 S10 1.464897 1_555
O92 S11 1.490251 1_555
O93 S12 1.490532 1_555
O94 Si9 1.654371 1_555
O95 Si10 1.663175 1_555
O96 Si5 1.685963 1_555
O97 Si6 1.633947 1_555
O98 S2 1.496619 1_555
O99 S3 1.467183 1_555
O100 S4 1.494846 1_555
O101 Si4 1.653465 1_555
O102 Si0 1.661968 1_555
O103 Si1 1.637411 1_555
O104 Si3 1.676098 1_555
O105 Si2 1.649606 1_655
O106 S0 1.487725 1_555
O107 S1 1.492942 1_545
O108 S13 1.486540 1_555
O109 S14 1.487733 1_555
O110 Si12 1.627155 1_555
O111 Si11 1.633513 1_655
O112 S15 1.495251 1_545
O113 S16 1.494336 1_545
O114 S17 1.493880 1_545
O115 S18 1.489539 1_545
O116 S19 1.494239 1_555
O117 S20 1.506369 1_555
O118 Si14 1.661732 1_555
O119 Si13 1.654825 1_655
O120 Si9 1.665931 1_555
O121 Si10 1.678845 1_555
O122 S10 1.490853 1_455
O123 S9 1.500147 1_555
O124 S11 1.484083 1_565
O125 S12 1.478377 1_565
O126 Si7 1.682237 1_565
O127 Si8 1.671936 1_565
O128 S7 1.503962 1_555
O129 S8 1.470222 1_555
O130 S6 1.515726 1_455
O131 S5 1.473385 1_555
O132 S0 1.490081 1_565
O133 S1 1.483815 1_555
O134 Si0 1.670057 1_555
O135 Si1 1.666371 1_555
O136 Si2 1.659661 1_555
O137 Si3 1.652609 1_555
O138 S2 1.483001 1_555
O139 S3 1.494358 1_555
O140 Si4 1.645104 1_455
O141 S4 1.502235 1_555
O142 Si5 1.628650 1_565
O143 Si6 1.660139 1_565
