# generated using pymatgen
data_BaYbCo4O7
_symmetry_space_group_name_H-M   'P 1'
_cell_length_a   6.33368400
_cell_length_b   10.30971300
_cell_length_c   11.12437900
_cell_angle_alpha   90.00000000
_cell_angle_beta   90.00000000
_cell_angle_gamma   90.00000000
_symmetry_Int_Tables_number   1
_chemical_formula_structural   BaYbCo4O7
_chemical_formula_sum   'Ba4 Yb4 Co16 O28'
_cell_volume   726.40486469
_cell_formula_units_Z   4
loop_
 _symmetry_equiv_pos_site_id
 _symmetry_equiv_pos_as_xyz
  1  'x, y, z'
loop_
 _atom_site_type_symbol
 _atom_site_label
 _atom_site_symmetry_multiplicity
 _atom_site_fract_x
 _atom_site_fract_y
 _atom_site_fract_z
 _atom_site_occupancy
  Ba  Ba0  1  0.49672900  0.00724000  0.17259500  1
  Ba  Ba1  1  0.00327100  0.00724000  0.67259500  1
  Ba  Ba2  1  0.99672900  0.50724000  0.32740500  1
  Ba  Ba3  1  0.50327100  0.50724000  0.82740500  1
  Yb  Yb0  1  0.98984400  0.37179900  0.67076600  1
  Yb  Yb1  1  0.51015600  0.37179900  0.17076600  1
  Yb  Yb2  1  0.48984400  0.87179900  0.82923400  1
  Yb  Yb3  1  0.01015600  0.87179900  0.32923400  1
  Co  Co0  1  0.99852200  0.18466800  0.17124300  1
  Co  Co1  1  0.26710700  0.19258900  0.91388800  1
  Co  Co2  1  0.99660500  0.94500600  0.00036200  1
  Co  Co3  1  0.76710700  0.69258900  0.58611200  1
  Co  Co4  1  0.23289300  0.19258900  0.41388800  1
  Co  Co5  1  0.49660500  0.44500600  0.49963800  1
  Co  Co6  1  0.50339500  0.94500600  0.50036200  1
  Co  Co7  1  0.74822800  0.18042300  0.41727800  1
  Co  Co8  1  0.00339500  0.44500600  0.99963800  1
  Co  Co9  1  0.49852200  0.68466800  0.32875700  1
  Co  Co10  1  0.25177200  0.68042300  0.58272200  1
  Co  Co11  1  0.50147800  0.18466800  0.67124300  1
  Co  Co12  1  0.75177200  0.18042300  0.91727800  1
  Co  Co13  1  0.73289300  0.69258900  0.08611200  1
  Co  Co14  1  0.24822800  0.68042300  0.08272200  1
  Co  Co15  1  0.00147800  0.68466800  0.82875700  1
  O  O0  1  0.23001000  0.26657100  0.26474600  1
  O  O1  1  0.23226700  0.71685700  0.25195900  1
  O  O2  1  0.73001000  0.76657100  0.23525400  1
  O  O3  1  0.24569300  0.49145500  0.56945500  1
  O  O4  1  0.26773300  0.71685700  0.75195900  1
  O  O5  1  0.73226700  0.21685700  0.24804100  1
  O  O6  1  0.99700700  0.72874200  0.49015400  1
  O  O7  1  0.50299300  0.72874200  0.99015400  1
  O  O8  1  0.27921300  0.00744800  0.39973200  1
  O  O9  1  0.26999000  0.26657100  0.76474600  1
  O  O10  1  0.06260700  0.99768200  0.15425100  1
  O  O11  1  0.43739300  0.99768200  0.65425100  1
  O  O12  1  0.49103800  0.25511900  0.50067500  1
  O  O13  1  0.00896200  0.25511900  0.00067500  1
  O  O14  1  0.22078700  0.00744800  0.89973200  1
  O  O15  1  0.76999000  0.76657100  0.73525400  1
  O  O16  1  0.49700700  0.22874200  0.00984600  1
  O  O17  1  0.77921300  0.50744800  0.10026800  1
  O  O18  1  0.50896200  0.75511900  0.49932500  1
  O  O19  1  0.76773300  0.21685700  0.74804100  1
  O  O20  1  0.99103800  0.75511900  0.99932500  1
  O  O21  1  0.00299300  0.22874200  0.50984600  1
  O  O22  1  0.72078700  0.50744800  0.60026800  1
  O  O23  1  0.93739300  0.49768200  0.84574900  1
  O  O24  1  0.56260700  0.49768200  0.34574900  1
  O  O25  1  0.74569300  0.99145500  0.93054500  1
  O  O26  1  0.25430700  0.49145500  0.06945500  1
  O  O27  1  0.75430700  0.99145500  0.43054500  1
loop_
_geom_bond_atom_site_label_1
_geom_bond_atom_site_label_2
_geom_bond_distance
_geom_bond_site_symmetry_2
Ba0 O5 2.756857 1_555
Ba0 O10 2.758914 1_545
Ba0 O8 2.877934 1_555
Ba0 O16 2.914237 1_555
Ba0 O2 2.970766 1_545
Ba0 O25 3.124638 1_544
Ba1 O19 2.756857 1_455
Ba1 O11 2.758914 1_545
Ba1 O14 2.877934 1_555
Ba1 O21 2.914237 1_555
Ba1 O15 2.970766 1_445
Ba1 O27 3.124638 1_445
Ba2 O1 2.756857 1_655
Ba2 O24 2.758914 1_555
Ba2 O17 2.877934 1_555
Ba2 O6 2.914237 1_555
Ba2 O0 2.970766 1_655
Ba2 O3 3.124638 1_655
Ba3 O4 2.756857 1_555
Ba3 O23 2.758914 1_555
Ba3 O22 2.877934 1_555
Ba3 O7 2.914237 1_555
Ba3 O9 2.970766 1_555
Ba3 O26 3.124638 1_556
Co0 O5 1.919341 1_555
Co0 O10 1.979087 1_645
Co0 O0 1.986103 1_655
Co0 O13 2.032804 1_655
Co1 O9 1.826129 1_555
Co1 O16 1.843554 1_556
Co1 O14 1.937575 1_555
Co1 O13 2.005229 1_556
Co2 O25 1.832509 1_554
Co2 O10 1.844004 1_655
Co2 O14 1.919296 1_664
Co2 O20 1.958032 1_554
Co3 O15 1.826129 1_555
Co3 O6 1.843554 1_555
Co3 O22 1.937575 1_555
Co3 O18 2.005229 1_555
Co4 O0 1.826129 1_555
Co4 O21 1.843554 1_555
Co4 O8 1.937575 1_555
Co4 O12 2.005229 1_555
Co5 O3 1.832509 1_555
Co5 O24 1.844004 1_555
Co5 O22 1.919296 1_555
Co5 O12 1.958032 1_555
Co6 O27 1.832509 1_555
Co6 O11 1.844004 1_555
Co6 O8 1.919296 1_565
Co6 O18 1.958032 1_555
Co7 O5 1.922423 1_555
Co7 O27 1.954167 1_545
Co7 O21 1.977947 1_655
Co7 O12 2.026637 1_555
Co8 O26 1.832509 1_556
Co8 O23 1.844004 1_455
Co8 O17 1.919296 1_456
Co8 O13 1.958032 1_556
Co9 O1 1.919341 1_555
Co9 O24 1.979087 1_555
Co9 O2 1.986103 1_555
Co9 O18 2.032804 1_555
Co10 O4 1.922423 1_555
Co10 O3 1.954167 1_555
Co10 O6 1.977947 1_455
Co10 O18 2.026637 1_555
Co11 O19 1.919341 1_555
Co11 O11 1.979087 1_545
Co11 O9 1.986103 1_555
Co11 O12 2.032804 1_555
Co12 O19 1.922423 1_555
Co12 O25 1.954167 1_545
Co12 O16 1.977947 1_556
Co12 O13 2.026637 1_656
Co13 O2 1.826129 1_555
Co13 O7 1.843554 1_554
Co13 O17 1.937575 1_555
Co13 O20 2.005229 1_554
Co14 O1 1.922423 1_555
Co14 O26 1.954167 1_555
Co14 O7 1.977947 1_554
Co14 O20 2.026637 1_454
Co15 O4 1.919341 1_555
Co15 O23 1.979087 1_455
Co15 O15 1.986103 1_455
Co15 O20 2.032804 1_455
O0 Yb1 2.327722 1_555
O1 Yb3 2.295587 1_555
O2 Yb3 2.327722 1_655
O3 Yb0 2.327640 1_455
O4 Yb2 2.295587 1_555
O5 Yb1 2.295587 1_555
O6 Yb3 2.320944 1_655
O7 Yb2 2.320944 1_555
O8 Yb3 2.339847 1_545
O9 Yb0 2.327722 1_455
O10 Yb3 2.363018 1_555
O11 Yb2 2.363018 1_555
O14 Yb2 2.339847 1_545
O15 Yb2 2.327722 1_555
O16 Yb1 2.320944 1_555
O17 Yb1 2.339847 1_555
O19 Yb0 2.295587 1_555
O21 Yb0 2.320944 1_455
O22 Yb0 2.339847 1_555
O23 Yb0 2.363018 1_555
O24 Yb1 2.363018 1_555
O25 Yb2 2.327640 1_555
O26 Yb1 2.327640 1_555
O27 Yb3 2.327640 1_655
