# generated using pymatgen
data_Na5Zr2In2SiP5O24
_symmetry_space_group_name_H-M   'P 1'
_cell_length_a   9.09890682
_cell_length_b   9.08454738
_cell_length_c   23.14067516
_cell_angle_alpha   90.02007942
_cell_angle_beta   89.93280895
_cell_angle_gamma   120.02403476
_symmetry_Int_Tables_number   1
_chemical_formula_structural   Na5Zr2In2SiP5O24
_chemical_formula_sum   'Na15 Zr6 In6 Si3 P15 O72'
_cell_volume   1656.12694045
_cell_formula_units_Z   3
loop_
 _symmetry_equiv_pos_site_id
 _symmetry_equiv_pos_as_xyz
  1  'x, y, z'
loop_
 _atom_site_type_symbol
 _atom_site_label
 _atom_site_symmetry_multiplicity
 _atom_site_fract_x
 _atom_site_fract_y
 _atom_site_fract_z
 _atom_site_occupancy
  Na  Na0  1  0.00340467  0.63827724  0.25107461  1
  Na  Na1  1  0.63197380  0.63917952  0.75129951  1
  Na  Na2  1  0.36720826  0.99678370  0.75174435  1
  Na  Na3  1  0.66559186  0.96997751  0.58452558  1
  Na  Na4  1  0.29674614  0.96869547  0.08357037  1
  Na  Na5  1  0.67521223  0.69904788  0.08258298  1
  Na  Na6  1  0.02813857  0.33174162  0.08413819  1
  Na  Na7  1  0.96706438  0.30016762  0.41624170  1
  Na  Na8  1  0.33677145  0.03570339  0.41812419  1
  Na  Na9  1  0.00381240  0.99325246  0.50033409  1
  Na  Na10  1  0.99976809  0.99526375  0.99762838  1
  Na  Na11  1  0.67501686  0.33232638  0.83825718  1
  Na  Na12  1  0.65856689  0.33403880  0.33473591  1
  Na  Na13  1  0.33872056  0.66689966  0.17111967  1
  Na  Na14  1  0.32316719  0.65862253  0.66830659  1
  Zr  Zr0  1  0.99523879  0.00250680  0.85475700  1
  Zr  Zr1  1  0.00528870  0.00113209  0.64778888  1
  Zr  Zr2  1  0.66981901  0.32797639  0.68462983  1
  Zr  Zr3  1  0.66610097  0.33144903  0.18650659  1
  Zr  Zr4  1  0.32916400  0.66632445  0.01422629  1
  Zr  Zr5  1  0.33119792  0.66545543  0.52013138  1
  In  In0  1  0.99434658  0.99576266  0.34974280  1
  In  In1  1  0.99977664  0.99923681  0.15302331  1
  In  In2  1  0.66896953  0.33700518  0.97997753  1
  In  In3  1  0.66406382  0.34015058  0.48427866  1
  In  In4  1  0.34089636  0.66686994  0.31588472  1
  In  In5  1  0.33078145  0.66465950  0.81727177  1
  Si  Si0  1  0.70650762  -0.00017424  0.74983499  1
  Si  Si1  1  0.37072197  0.04009854  0.58158300  1
  Si  Si2  1  0.95973138  0.62814228  0.08358199  1
  P  P0  1  0.29546704  0.99927857  0.25122510  1
  P  P1  1  0.70280037  0.70558454  0.24926764  1
  P  P2  1  0.00141946  0.29593363  0.25028726  1
  P  P3  1  0.29027950  0.29251794  0.75049994  1
  P  P4  1  0.00023374  0.70889610  0.75098051  1
  P  P5  1  0.96013742  0.33382036  0.58184888  1
  P  P6  1  0.66755699  0.62672485  0.58396066  1
  P  P7  1  0.66735683  0.04190416  0.08265930  1
  P  P8  1  0.37485410  0.33271314  0.08286435  1
  P  P9  1  0.62739334  0.66404139  0.91573483  1
  P  P10  1  0.03729345  0.37255795  0.91592163  1
  P  P11  1  0.33547665  0.96546273  0.91554973  1
  P  P12  1  0.62821417  0.96055314  0.41704164  1
  P  P13  1  0.33454640  0.37351443  0.41583495  1
  P  P14  1  0.03911159  0.66580232  0.41558392  1
  O  O0  1  0.21777047  0.02948909  0.30605149  1
  O  O1  1  0.82131437  0.78181939  0.30177921  1
  O  O2  1  0.97087207  0.18948641  0.30531167  1
  O  O3  1  0.20972839  0.17567941  0.80332862  1
  O  O4  1  0.97058986  0.79416066  0.80389696  1
  O  O5  1  0.82872324  0.02625425  0.80515648  1
  O  O6  1  0.79200950  0.96846442  0.69212927  1
  O  O7  1  0.18120737  0.20515079  0.69654509  1
  O  O8  1  0.03022467  0.82323455  0.69718404  1
  O  O9  1  0.77770505  0.80688062  0.19286010  1
  O  O10  1  0.02797589  0.21922553  0.19438685  1
  O  O11  1  0.18696383  0.96628887  0.19580392  1
  O  O12  1  0.87358830  0.36191082  0.63519310  1
  O  O13  1  0.49356751  0.12706103  0.63892073  1
  O  O14  1  0.64101916  0.51924694  0.63905496  1
  O  O15  1  0.87571131  0.50698281  0.14143623  1
  O  O16  1  0.63190894  0.12267633  0.13642118  1
  O  O17  1  0.48957167  0.36388886  0.13660138  1
  O  O18  1  0.44812337  0.29305807  0.02998456  1
  O  O19  1  0.83629322  0.54523133  0.02926951  1
  O  O20  1  0.70063039  0.15249821  0.02961214  1
  O  O21  1  0.44914246  0.14611731  0.52285027  1
  O  O22  1  0.70236919  0.55387459  0.52999666  1
  O  O23  1  0.85281311  0.29799196  0.52681415  1
  O  O24  1  0.54110355  0.69067742  0.97094830  1
  O  O25  1  0.14832837  0.45686320  0.97189747  1
  O  O26  1  0.30919042  0.85045415  0.97060403  1
  O  O27  1  0.54217918  0.85103914  0.47199022  1
  O  O28  1  0.30584021  0.46059571  0.46929990  1
  O  O29  1  0.15780847  0.69279178  0.46827228  1
  O  O30  1  0.11416151  0.63333667  0.36023624  1
  O  O31  1  0.51339750  0.88202727  0.36419548  1
  O  O32  1  0.35977723  0.47893085  0.36162941  1
  O  O33  1  0.12127061  0.48235597  0.86295921  1
  O  O34  1  0.36107607  0.88530621  0.86076700  1
  O  O35  1  0.52338947  0.64074183  0.86077579  1
  O  O36  1  0.03183197  0.83276506  0.41245280  1
  O  O37  1  0.80901433  0.98348538  0.41291029  1
  O  O38  1  0.16855713  0.19430908  0.41279796  1
  O  O39  1  0.02817795  0.19704977  0.91198653  1
  O  O40  1  0.17121198  0.97624299  0.91153548  1
  O  O41  1  0.80487965  0.82844026  0.91181755  1
  O  O42  1  0.97144694  0.17045786  0.59069799  1
  O  O43  1  0.18244175  0.01582504  0.59013430  1
  O  O44  1  0.82084010  0.81020098  0.59066087  1
  O  O45  1  0.98572828  0.82011894  0.08922849  1
  O  O46  1  0.82622245  0.02211696  0.08997027  1
  O  O47  1  0.19288929  0.17828202  0.09035015  1
  O  O48  1  0.68190749  0.16749500  0.74480267  1
  O  O49  1  0.47042424  0.31040682  0.74307406  1
  O  O50  1  0.83468468  0.53535341  0.74325239  1
  O  O51  1  0.69189981  0.52758571  0.24273083  1
  O  O52  1  0.83982604  0.31598942  0.24401299  1
  O  O53  1  0.47351006  0.15860701  0.24332070  1
  O  O54  1  0.64415533  0.50558768  0.92086347  1
  O  O55  1  0.86076043  0.35097467  0.92164719  1
  O  O56  1  0.49376284  0.14006045  0.92272781  1
  O  O57  1  0.64803883  0.14129376  0.42178600  1
  O  O58  1  0.48887617  0.34643716  0.42041482  1
  O  O59  1  0.86464325  0.50187130  0.42271960  1
  O  O60  1  0.36113485  0.49768153  0.07693159  1
  O  O61  1  0.15042547  0.64475924  0.07730250  1
  O  O62  1  0.50612221  0.86048269  0.07696965  1
  O  O63  1  0.36345721  0.85418429  0.57704138  1
  O  O64  1  0.50817515  0.64807808  0.57724050  1
  O  O65  1  0.13862841  0.49182657  0.57656647  1
  O  O66  1  0.30545006  0.83385328  0.25560160  1
  O  O67  1  0.52574314  0.68477874  0.25462380  1
  O  O68  1  0.15480321  0.47916110  0.25430374  1
  O  O69  1  0.31617942  0.47283115  0.75471886  1
  O  O70  1  0.16161046  0.69485806  0.75514926  1
  O  O71  1  0.51731838  0.82964385  0.75399520  1
loop_
_geom_bond_atom_site_label_1
_geom_bond_atom_site_label_2
_geom_bond_distance
_geom_bond_site_symmetry_2
Na0 O66 2.415540 1_555
Na0 O68 2.446579 1_555
Na0 O51 2.496185 1_455
Na0 O52 2.540384 1_455
Na0 O30 2.729463 1_555
Na0 O15 2.797761 1_455
Na0 O1 2.824660 1_455
Na0 O11 2.884780 1_555
Na1 O71 2.427405 1_555
Na1 O50 2.462997 1_555
Na1 O69 2.490072 1_555
Na1 O49 2.593137 1_555
Na1 O35 2.720729 1_555
Na1 O14 2.833315 1_555
Na1 O6 2.929639 1_555
Na1 O4 2.936501 1_555
Na2 O70 2.427761 1_555
Na2 O48 2.487014 1_565
Na2 O71 2.499868 1_555
Na2 O49 2.522305 1_565
Na2 O34 2.708956 1_555
Na2 O13 2.858732 1_565
Na2 O3 2.905919 1_565
Na2 O8 2.941298 1_555
Na3 O63 2.408549 1_555
Na3 O42 2.451692 1_565
Na3 O44 2.484931 1_555
Na3 O64 2.537751 1_555
Na3 O6 2.747010 1_555
Na3 O27 2.828549 1_555
Na3 O13 2.881005 1_565
Na3 O23 2.912487 1_565
Na4 O45 2.454429 1_455
Na4 O47 2.518495 1_565
Na4 O62 2.548044 1_555
Na4 O61 2.555988 1_555
Na4 O11 2.777700 1_555
Na4 O18 2.838075 1_565
Na4 O26 2.849443 1_554
Na4 O16 2.913961 1_565
Na5 O45 2.471258 1_555
Na5 O60 2.509873 1_555
Na5 O46 2.548649 1_565
Na5 O62 2.606408 1_555
Na5 O9 2.725998 1_555
Na5 O19 2.768914 1_555
Na5 O24 2.842995 1_554
Na5 O17 2.921865 1_555
Na6 O46 2.476616 1_455
Na6 O61 2.486531 1_555
Na6 O47 2.510652 1_555
Na6 O60 2.628454 1_555
Na6 O10 2.748432 1_555
Na6 O25 2.825867 1_554
Na6 O20 2.876666 1_455
Na6 O15 2.901689 1_455
Na7 O59 2.440686 1_555
Na7 O38 2.460972 1_655
Na7 O37 2.492092 1_545
Na7 O57 2.516417 1_555
Na7 O23 2.757058 1_555
Na7 O2 2.763063 1_555
Na7 O30 2.928584 1_655
Na7 O28 2.940271 1_655
Na8 O58 2.444844 1_555
Na8 O36 2.448728 1_545
Na8 O57 2.496080 1_555
Na8 O38 2.577093 1_555
Na8 O21 2.627231 1_555
Na8 O0 2.801219 1_555
Na8 O31 2.885920 1_545
Na8 O29 2.936738 1_545
Na9 O43 2.583811 1_565
Na9 O36 2.587464 1_555
Na9 O38 2.634751 1_565
Na9 O37 2.663281 1_455
Na9 O44 2.670176 1_455
Na9 O42 2.742539 1_465
Na10 O40 2.587388 1_655
Na10 O41 2.588657 1_555
Na10 O45 2.615216 1_556
Na10 O39 2.623340 1_665
Na10 O46 2.737946 1_566
Na10 O47 2.745637 1_666
Na11 O55 2.515881 1_555
Na11 O54 2.578634 1_555
Na11 O56 2.589153 1_555
Na11 O48 2.648471 1_555
Na11 O50 2.767601 1_555
Na11 O49 2.827524 1_555
Na12 O58 2.548390 1_555
Na12 O57 2.639535 1_555
Na12 O59 2.670517 1_555
Na12 O53 2.677806 1_555
Na12 O51 2.680279 1_555
Na12 O52 2.723352 1_555
Na13 O67 2.527253 1_555
Na13 O68 2.559917 1_555
Na13 O66 2.582621 1_555
Na13 O61 2.711560 1_555
Na13 O60 2.732343 1_555
Na13 O62 2.733820 1_555
Na14 O71 2.593430 1_555
Na14 O69 2.597315 1_555
Na14 O70 2.604721 1_555
Na14 O65 2.661242 1_555
Na14 O63 2.664583 1_555
Na14 O64 2.727024 1_555
In0 O1 2.104407 1_555
In0 O2 2.139609 1_565
In0 O0 2.149629 1_665
In0 O37 2.190642 1_555
In0 O36 2.218763 1_655
In0 O38 2.244430 1_665
In1 O9 2.109398 1_555
In1 O10 2.112370 1_665
In1 O11 2.117747 1_655
In1 O45 2.152690 1_555
In1 O47 2.229807 1_665
In1 O46 2.236060 1_565
In2 O19 2.077930 1_556
In2 O54 2.148475 1_555
In2 O56 2.155590 1_555
In2 O55 2.157864 1_555
In2 O20 2.167276 1_556
In2 O18 2.174500 1_556
In3 O21 2.067713 1_555
In3 O22 2.081514 1_555
In3 O23 2.174281 1_555
In3 O58 2.196562 1_555
In3 O59 2.197869 1_555
In3 O57 2.260779 1_555
In4 O32 2.088134 1_555
In4 O31 2.113363 1_555
In4 O67 2.141413 1_555
In4 O30 2.183712 1_555
In4 O66 2.200765 1_555
In4 O68 2.218131 1_555
In5 O33 2.081271 1_555
In5 O35 2.125411 1_555
In5 O34 2.133839 1_555
In5 O71 2.172836 1_555
In5 O69 2.217396 1_555
In5 O70 2.222441 1_555
O0 P0 1.541613 1_545
O1 P1 1.540841 1_555
O2 P2 1.537773 1_655
O3 P3 1.542267 1_555
O3 Zr0 2.150216 1_455
O4 P4 1.542672 1_655
O4 Zr0 2.142932 1_565
O5 Si0 1.633721 1_555
O5 Zr0 1.997716 1_555
O6 Si0 1.639718 1_565
O6 Zr1 2.079916 1_665
O7 P3 1.545221 1_555
O7 Zr1 2.074646 1_555
O8 P4 1.555503 1_555
O8 Zr1 2.082955 1_565
O9 P1 1.544759 1_555
O10 P2 1.544174 1_555
O11 P0 1.554308 1_555
O12 P5 1.551672 1_555
O12 Zr2 2.065105 1_555
O13 Si1 1.659233 1_555
O13 Zr2 2.023732 1_555
O14 P6 1.549604 1_555
O14 Zr2 2.158192 1_555
O15 Si2 1.656759 1_555
O15 Zr3 2.054533 1_555
O16 P7 1.557393 1_555
O16 Zr3 2.108561 1_555
O17 P8 1.556605 1_555
O17 Zr3 2.116305 1_555
O18 P8 1.519778 1_555
O19 Si2 1.601398 1_555
O20 P7 1.517743 1_555
O21 Si1 1.610859 1_555
O22 P6 1.518556 1_555
O23 P5 1.538185 1_555
O24 P9 1.579562 1_555
O24 Zr4 2.083120 1_556
O25 P10 1.585297 1_555
O25 Zr4 2.038852 1_556
O26 P11 1.588087 1_555
O26 Zr4 2.038600 1_556
O27 P12 1.561605 1_555
O27 Zr5 2.127471 1_555
O28 P13 1.558874 1_555
O28 Zr5 2.114187 1_555
O29 P14 1.565561 1_555
O29 Zr5 2.094641 1_555
O30 P14 1.546913 1_555
O31 P12 1.533742 1_555
O32 P13 1.524261 1_555
O33 P10 1.522101 1_555
O34 P11 1.536227 1_555
O35 P9 1.536216 1_555
O36 P14 1.552704 1_555
O37 P12 1.554194 1_555
O38 P13 1.573522 1_555
O39 P10 1.557209 1_555
O39 Zr0 2.106268 1_455
O40 P11 1.548854 1_555
O40 Zr0 2.175874 1_465
O41 P9 1.559759 1_555
O41 Zr0 2.121150 1_565
O42 P5 1.551802 1_555
O42 Zr1 2.163971 1_655
O43 Si1 1.625988 1_555
O43 Zr1 2.043478 1_555
O44 P6 1.556087 1_555
O44 Zr1 2.159466 1_665
O45 Si2 1.643688 1_555
O46 P7 1.552752 1_555
O47 P8 1.553870 1_555
O48 Si0 1.650811 1_555
O48 Zr2 2.058815 1_555
O49 P3 1.573354 1_555
O49 Zr2 2.202445 1_555
O50 P4 1.552552 1_655
O50 Zr2 2.194219 1_555
O51 P1 1.576990 1_555
O51 Zr3 2.122088 1_555
O52 P2 1.576303 1_655
O52 Zr3 2.125194 1_555
O53 P0 1.551081 1_545
O53 Zr3 2.123032 1_555
O54 P9 1.526209 1_555
O55 P10 1.523288 1_655
O56 P11 1.527091 1_545
O57 P12 1.563364 1_545
O58 P13 1.545848 1_555
O59 P14 1.548832 1_655
O60 P8 1.570930 1_555
O60 Zr4 2.232902 1_555
O61 Si2 1.670871 1_455
O61 Zr4 2.118870 1_555
O62 P7 1.570533 1_565
O62 Zr4 2.230099 1_555
O63 Si1 1.660158 1_565
O63 Zr5 2.062947 1_555
O64 P6 1.564278 1_555
O64 Zr5 2.150348 1_555
O65 P5 1.542633 1_455
O65 Zr5 2.119882 1_555
O66 P0 1.553606 1_555
O67 P1 1.530138 1_555
O68 P2 1.550010 1_555
O69 P3 1.536865 1_555
O70 P4 1.539273 1_555
O71 Si0 1.642913 1_565
