# generated using pymatgen
data_Mn3Ir
_symmetry_space_group_name_H-M   'P 1'
_cell_length_a   5.42560680
_cell_length_b   5.31341062
_cell_length_c   4.36594521
_cell_angle_alpha   89.99991545
_cell_angle_beta   90.00024064
_cell_angle_gamma   119.96969809
_symmetry_Int_Tables_number   1
_chemical_formula_structural   Mn3Ir
_chemical_formula_sum   'Mn6 Ir2'
_cell_volume   109.03429923
_cell_formula_units_Z   2
loop_
 _symmetry_equiv_pos_site_id
 _symmetry_equiv_pos_as_xyz
  1  'x, y, z'
loop_
 _atom_site_type_symbol
 _atom_site_label
 _atom_site_symmetry_multiplicity
 _atom_site_fract_x
 _atom_site_fract_y
 _atom_site_fract_z
 _atom_site_occupancy
  Mn  Mn0  1  0.16906450  0.33366354  0.24999975  1
  Mn  Mn1  1  0.65658617  0.82502677  0.24999970  1
  Mn  Mn2  1  0.15745664  0.82665473  0.24999936  1
  Mn  Mn3  1  0.83106644  0.66412876  0.74999965  1
  Mn  Mn4  1  0.34726098  0.17163610  0.75000021  1
  Mn  Mn5  1  0.84530444  0.17906843  0.74999969  1
  Ir  Ir0  1  0.65382384  0.32111493  0.24999872  1
  Ir  Ir1  1  0.33943699  0.67870675  0.75000292  1
loop_
_geom_bond_atom_site_label_1
_geom_bond_atom_site_label_2
_geom_bond_distance
_geom_bond_site_symmetry_2
Mn0 Mn1 2.629329 1_555
Mn0 Mn2 2.651487 1_555
Mn0 Mn5 2.661601 1_454
Mn0 Mn5 2.661610 1_455
Mn0 Mn2 2.663044 1_545
Mn0 Mn4 2.696827 1_555
Mn0 Mn4 2.696833 1_554
Mn0 Mn1 2.743636 1_445
Mn1 Mn3 2.683463 1_555
Mn1 Mn3 2.683472 1_554
Mn1 Mn2 2.712412 1_555
Mn1 Mn2 2.713216 1_655
Mn1 Mn5 2.725466 1_565
Mn1 Mn5 2.725469 1_564
Mn2 Mn3 2.668181 1_454
Mn2 Mn3 2.668193 1_455
Mn2 Mn4 2.701836 1_564
Mn2 Mn4 2.701839 1_565
Mn3 Mn5 2.616770 1_555
Mn3 Mn4 2.622087 1_555
Mn3 Mn5 2.698326 1_565
Mn3 Mn4 2.751367 1_665
Mn4 Mn5 2.682679 1_555
Mn4 Mn5 2.743360 1_455
Ir0 Mn4 2.615879 1_554
Ir0 Mn4 2.615900 1_555
Ir0 Mn1 2.643439 1_545
Ir0 Mn2 2.662010 1_545
Ir0 Mn0 2.664047 1_555
Ir0 Mn1 2.670035 1_555
Ir0 Mn5 2.682856 1_555
Ir0 Mn5 2.682858 1_554
Ir0 Mn3 2.694593 1_554
Ir0 Mn3 2.694597 1_555
Ir0 Mn2 2.710865 1_655
Ir0 Mn0 2.762790 1_655
Ir1 Mn4 2.598191 1_565
Ir1 Mn1 2.644628 1_556
Ir1 Mn1 2.644661 1_555
Ir1 Mn5 2.669194 1_455
Ir1 Mn2 2.670883 1_556
Ir1 Mn2 2.670899 1_555
Ir1 Mn0 2.699597 1_556
Ir1 Mn0 2.699617 1_555
Ir1 Mn5 2.703896 1_565
Ir1 Mn3 2.706914 1_555
Ir1 Mn4 2.715729 1_555
Ir1 Mn3 2.720352 1_455
