# generated using pymatgen
data_CaTi3SiS5O24
_symmetry_space_group_name_H-M   'P 1'
_cell_length_a   8.79374944
_cell_length_b   8.78588131
_cell_length_c   22.57470882
_cell_angle_alpha   89.87312200
_cell_angle_beta   89.74951340
_cell_angle_gamma   120.02849193
_symmetry_Int_Tables_number   1
_chemical_formula_structural   CaTi3SiS5O24
_chemical_formula_sum   'Ca3 Ti9 Si3 S15 O72'
_cell_volume   1510.00256287
_cell_formula_units_Z   3
loop_
 _symmetry_equiv_pos_site_id
 _symmetry_equiv_pos_as_xyz
  1  'x, y, z'
loop_
 _atom_site_type_symbol
 _atom_site_label
 _atom_site_symmetry_multiplicity
 _atom_site_fract_x
 _atom_site_fract_y
 _atom_site_fract_z
 _atom_site_occupancy
  Ca  Ca0  1  0.99912465  0.99994471  0.36490068  1
  Ca  Ca1  1  0.66249129  0.33298876  0.69203513  1
  Ca  Ca2  1  0.66658700  0.33170911  0.18461935  1
  Ti  Ti0  1  0.00790541  0.00953354  0.86194423  1
  Ti  Ti1  1  0.99156624  0.99272200  0.64369074  1
  Ti  Ti2  1  0.00010273  0.00377204  0.14344676  1
  Ti  Ti3  1  0.66469986  0.32762925  0.97204851  1
  Ti  Ti4  1  0.67296311  0.34992450  0.48180835  1
  Ti  Ti5  1  0.32134147  0.66359383  0.01408729  1
  Ti  Ti6  1  0.34066437  0.67012226  0.52453821  1
  Ti  Ti7  1  0.33525346  0.66958831  0.30820613  1
  Ti  Ti8  1  0.32253433  0.67199461  0.81258481  1
  Si  Si0  1  0.66710912  0.62752236  0.58513517  1
  Si  Si1  1  0.04481041  0.38321844  0.91518378  1
  Si  Si2  1  0.33517819  0.95377515  0.91422732  1
  S  S0  1  0.27787177  0.98352170  0.25029926  1
  S  S1  1  0.70539065  0.72153642  0.25029699  1
  S  S2  1  0.01766300  0.29652877  0.25051255  1
  S  S3  1  0.26960875  0.28578580  0.75266381  1
  S  S4  1  0.01486816  0.73110514  0.75237115  1
  S  S5  1  0.71516511  0.98036228  0.75325429  1
  S  S6  1  0.96112660  0.33165580  0.58102711  1
  S  S7  1  0.37097236  0.04107838  0.58118351  1
  S  S8  1  0.96703979  0.63714398  0.08188548  1
  S  S9  1  0.66729988  0.03171649  0.08060592  1
  S  S10  1  0.36705620  0.33443892  0.08175530  1
  S  S11  1  0.61669459  0.66328358  0.91587851  1
  S  S12  1  0.59734943  0.95528477  0.41762581  1
  S  S13  1  0.35343677  0.39999243  0.41858359  1
  S  S14  1  0.04600108  0.64390831  0.41844080  1
  O  O0  1  0.20233327  0.00889454  0.30376626  1
  O  O1  1  0.80655239  0.79661519  0.30336088  1
  O  O2  1  0.98921014  0.19302841  0.30353989  1
  O  O3  1  0.17414265  0.17678106  0.80610880  1
  O  O4  1  0.99742918  0.81999390  0.80474402  1
  O  O5  1  0.82207866  0.99598824  0.80540514  1
  O  O6  1  0.80461019  0.96493853  0.69719457  1
  O  O7  1  0.16453281  0.20189729  0.69841398  1
  O  O8  1  0.03645149  0.83635027  0.69685337  1
  O  O9  1  0.79383957  0.83667991  0.19674383  1
  O  O10  1  0.04356970  0.20762481  0.19696346  1
  O  O11  1  0.16492091  0.95805575  0.19709564  1
  O  O12  1  0.89766504  0.37334141  0.63395225  1
  O  O13  1  0.47751724  0.09504406  0.63368142  1
  O  O14  1  0.61329143  0.50949365  0.64131246  1
  O  O15  1  0.90388770  0.53537179  0.13602665  1
  O  O16  1  0.62567280  0.09261728  0.13461848  1
  O  O17  1  0.46672787  0.36874706  0.13582248  1
  O  O18  1  0.45075809  0.29712691  0.03103553  1
  O  O19  1  0.84832947  0.55453608  0.03136583  1
  O  O20  1  0.70561287  0.15638764  0.03040499  1
  O  O21  1  0.46300178  0.16162440  0.52949116  1
  O  O22  1  0.70477776  0.52812278  0.52660023  1
  O  O23  1  0.84047864  0.29699803  0.52920134  1
  O  O24  1  0.53852528  0.69698568  0.96912135  1
  O  O25  1  0.17131354  0.47313884  0.97239878  1
  O  O26  1  0.30814703  0.82862039  0.97122713  1
  O  O27  1  0.50296820  0.84399520  0.46967858  1
  O  O28  1  0.33402878  0.49011183  0.47078340  1
  O  O29  1  0.15218592  0.66141743  0.47039839  1
  O  O30  1  0.12934986  0.62301727  0.36323076  1
  O  O31  1  0.49191015  0.86762658  0.36283283  1
  O  O32  1  0.37796430  0.50551985  0.36364180  1
  O  O33  1  0.14057761  0.51215190  0.85820853  1
  O  O34  1  0.37683090  0.86547822  0.85714894  1
  O  O35  1  0.50532712  0.62606518  0.86334860  1
  O  O36  1  0.02052370  0.79376446  0.41548447  1
  O  O37  1  0.76745640  0.96754900  0.41563739  1
  O  O38  1  0.19988700  0.22720114  0.41655561  1
  O  O39  1  0.01469946  0.18713810  0.90516022  1
  O  O40  1  0.16317362  0.97297057  0.90439030  1
  O  O41  1  0.79400555  0.81689890  0.90758962  1
  O  O42  1  0.98024264  0.17352194  0.58874438  1
  O  O43  1  0.19889291  0.03245437  0.58942982  1
  O  O44  1  0.84605287  0.82161796  0.59515306  1
  O  O45  1  0.98560672  0.81704618  0.09195938  1
  O  O46  1  0.83431054  0.02215410  0.09142294  1
  O  O47  1  0.18657787  0.17048751  0.09193943  1
  O  O48  1  0.69769493  0.13486443  0.74830769  1
  O  O49  1  0.43832140  0.29476419  0.75180270  1
  O  O50  1  0.86572912  0.55564522  0.74911370  1
  O  O51  1  0.66652414  0.54314815  0.24084917  1
  O  O52  1  0.87713588  0.33360841  0.24068163  1
  O  O53  1  0.45678243  0.12305265  0.24112175  1
  O  O54  1  0.63555626  0.50619020  0.92799951  1
  O  O55  1  0.85577047  0.36912232  0.93063141  1
  O  O56  1  0.50486063  0.14674356  0.93015667  1
  O  O57  1  0.60814255  0.12704662  0.42441740  1
  O  O58  1  0.51615717  0.38691605  0.42572590  1
  O  O59  1  0.87087581  0.47635649  0.42502124  1
  O  O60  1  0.33676003  0.48219015  0.06957900  1
  O  O61  1  0.14770970  0.66760594  0.07015647  1
  O  O62  1  0.52686735  0.85178956  0.06698309  1
  O  O63  1  0.33015177  0.85842939  0.56589783  1
  O  O64  1  0.51328155  0.67054374  0.56434172  1
  O  O65  1  0.14008445  0.48173225  0.56683392  1
  O  O66  1  0.28213635  0.81183362  0.25772888  1
  O  O67  1  0.53047072  0.71837429  0.25752403  1
  O  O68  1  0.18870155  0.47056245  0.25764859  1
  O  O69  1  0.28529663  0.46096178  0.75921285  1
  O  O70  1  0.18326109  0.72510451  0.75644916  1
  O  O71  1  0.54390262  0.81484082  0.75778681  1
loop_
_geom_bond_atom_site_label_1
_geom_bond_atom_site_label_2
_geom_bond_distance
_geom_bond_site_symmetry_2
Ca0 O37 2.222836 1_555
Ca0 O0 2.222927 1_665
Ca0 O2 2.223257 1_565
Ca0 O36 2.225918 1_655
Ca0 O38 2.227890 1_665
Ca0 O1 2.234457 1_555
Ca1 O14 2.138021 1_555
Ca1 O49 2.265250 1_555
Ca1 O50 2.283285 1_555
Ca1 O48 2.296213 1_555
Ca1 O12 2.315647 1_555
Ca1 O13 2.319288 1_555
Ca2 O53 2.230585 1_555
Ca2 O15 2.234686 1_555
Ca2 O17 2.235163 1_555
Ca2 O52 2.240482 1_555
Ca2 O51 2.252496 1_555
Ca2 O16 2.252512 1_555
O0 S0 1.445748 1_545
O1 S1 1.444633 1_555
O2 S2 1.444763 1_655
O3 S3 1.502982 1_555
O3 Ti0 1.926328 1_555
O4 S4 1.467527 1_655
O4 Ti0 2.075099 1_665
O5 S5 1.473089 1_555
O5 Ti0 2.034168 1_665
O6 S5 1.528837 1_555
O6 Ti1 1.949616 1_555
O7 S3 1.493024 1_555
O7 Ti1 2.108520 1_445
O8 S4 1.509613 1_555
O8 Ti1 2.005790 1_455
O9 S1 1.512867 1_555
O9 Ti2 2.049576 1_665
O10 S2 1.517637 1_555
O10 Ti2 2.035160 1_555
O11 S0 1.506108 1_555
O11 Ti2 2.079574 1_565
O12 S6 1.440041 1_555
O13 S7 1.440398 1_555
O14 Si0 1.550920 1_555
O15 S8 1.447060 1_555
O16 S9 1.449846 1_555
O17 S10 1.447547 1_555
O18 S10 1.481898 1_555
O18 Ti3 2.203723 1_554
O19 S8 1.474090 1_555
O19 Ti3 2.276787 1_554
O20 S9 1.489767 1_555
O20 Ti3 2.160000 1_554
O21 S7 1.505591 1_555
O21 Ti4 2.054802 1_555
O22 Si0 1.705679 1_555
O22 Ti4 1.767204 1_555
O23 S6 1.508712 1_555
O23 Ti4 2.056219 1_555
O24 S11 1.484227 1_555
O24 Ti5 2.045724 1_556
O25 Si1 1.633215 1_555
O25 Ti5 1.798485 1_556
O26 Si2 1.628129 1_555
O26 Ti5 1.793040 1_556
O27 S12 1.483192 1_555
O27 Ti6 1.923127 1_555
O28 S13 1.477254 1_555
O28 Ti6 1.973332 1_555
O29 S14 1.462171 1_555
O29 Ti6 2.034192 1_555
O30 S14 1.500654 1_555
O30 Ti7 2.055597 1_555
O31 S12 1.510761 1_555
O31 Ti7 2.017737 1_555
O32 S13 1.495621 1_555
O32 Ti7 2.079195 1_555
O33 Si1 1.635855 1_555
O33 Ti8 1.823027 1_555
O34 Si2 1.637369 1_555
O34 Ti8 1.824613 1_555
O35 S11 1.470925 1_555
O35 Ti8 2.173295 1_555
O36 S14 1.443297 1_555
O37 S12 1.445457 1_555
O38 S13 1.441957 1_555
O39 Si1 1.623219 1_555
O39 Ti0 1.817739 1_555
O40 Si2 1.619782 1_555
O40 Ti0 1.826120 1_565
O41 S11 1.475758 1_555
O41 Ti0 2.062380 1_665
O42 S6 1.490579 1_555
O42 Ti1 2.054862 1_545
O43 S7 1.487602 1_555
O43 Ti1 2.070717 1_445
O44 Si0 1.659651 1_555
O44 Ti1 1.786668 1_555
O45 S8 1.523252 1_555
O45 Ti2 1.964449 1_665
O46 S9 1.533023 1_555
O46 Ti2 1.944407 1_655
O47 S10 1.534227 1_555
O47 Ti2 1.938632 1_555
O48 S5 1.444613 1_545
O49 S3 1.445796 1_555
O50 S4 1.442118 1_655
O51 S1 1.443852 1_555
O52 S2 1.444816 1_655
O53 S0 1.444533 1_545
O54 S11 1.495057 1_555
O54 Ti3 1.978232 1_555
O55 Si1 1.639849 1_655
O55 Ti3 1.789397 1_555
O56 Si2 1.644876 1_545
O56 Ti3 1.782762 1_555
O57 S12 1.472289 1_545
O57 Ti4 2.176800 1_555
O58 S13 1.501069 1_555
O58 Ti4 2.017889 1_555
O59 S14 1.512875 1_655
O59 Ti4 1.986341 1_555
O60 S10 1.475420 1_555
O60 Ti5 2.082489 1_555
O61 S8 1.495442 1_455
O61 Ti5 1.992954 1_555
O62 S9 1.473161 1_565
O62 Ti5 2.112579 1_555
O63 S7 1.500030 1_565
O63 Ti6 1.943362 1_555
O64 Si0 1.646079 1_555
O64 Ti6 1.765759 1_555
O65 S6 1.494898 1_455
O65 Ti6 1.954153 1_555
O66 S0 1.536377 1_555
O66 Ti7 1.913412 1_555
O67 S1 1.532472 1_555
O67 Ti7 1.919373 1_555
O68 S2 1.525643 1_555
O68 Ti7 1.946118 1_555
O69 S3 1.482674 1_555
O69 Ti8 2.098167 1_555
O70 S4 1.511074 1_555
O70 Ti8 1.976498 1_555
O71 S5 1.483044 1_555
O71 Ti8 2.102788 1_555
