# generated using pymatgen
data_H10SO8
_symmetry_space_group_name_H-M   'P 1'
_cell_length_a   7.45090593
_cell_length_b   7.45090593
_cell_length_c   6.24488970
_cell_angle_alpha   90.00000000
_cell_angle_beta   90.00000000
_cell_angle_gamma   90.00000000
_symmetry_Int_Tables_number   1
_chemical_formula_structural   H10SO8
_chemical_formula_sum   'H20 S2 O16'
_cell_volume   346.69129145
_cell_formula_units_Z   2
loop_
 _symmetry_equiv_pos_site_id
 _symmetry_equiv_pos_as_xyz
  1  'x, y, z'
loop_
 _atom_site_type_symbol
 _atom_site_label
 _atom_site_symmetry_multiplicity
 _atom_site_fract_x
 _atom_site_fract_y
 _atom_site_fract_z
 _atom_site_occupancy
  H  H0  1  -0.00000000  0.50000000  0.08800158  1
  H  H1  1  0.50000000  0.00000000  0.91199842  1
  H  H2  1  0.50000000  0.00000000  0.41199842  1
  H  H3  1  -0.00000000  0.50000000  0.58800158  1
  H  H4  1  0.85232263  0.30861978  0.10544116  1
  H  H5  1  0.14767737  0.69138022  0.10544116  1
  H  H6  1  0.30861978  0.14767737  0.89455884  1
  H  H7  1  0.69138022  0.85232263  0.89455884  1
  H  H8  1  0.80861978  0.35232263  0.60544116  1
  H  H9  1  0.64767737  0.80861978  0.39455884  1
  H  H10  1  0.35232263  0.19138022  0.39455884  1
  H  H11  1  0.19138022  0.64767737  0.60544116  1
  H  H12  1  0.76809629  0.49526040  0.18735714  1
  H  H13  1  0.23190371  0.50473960  0.18735714  1
  H  H14  1  0.49526040  0.23190371  0.81264286  1
  H  H15  1  0.50473960  0.76809629  0.81264286  1
  H  H16  1  0.99526040  0.26809629  0.68735714  1
  H  H17  1  0.73190371  0.99526040  0.31264286  1
  H  H18  1  0.00473960  0.73190371  0.68735714  1
  H  H19  1  0.26809629  0.00473960  0.31264286  1
  S  S0  1  0.50000000  0.50000000  0.50000000  1
  S  S1  1  -0.00000000  0.00000000  -0.00000000  1
  O  O0  1  0.85018650  0.44045708  0.08049919  1
  O  O1  1  0.14981350  0.55954292  0.08049919  1
  O  O2  1  0.44045708  0.14981350  0.91950081  1
  O  O3  1  0.55954292  0.85018650  0.91950081  1
  O  O4  1  0.94045708  0.35018650  0.58049919  1
  O  O5  1  0.64981350  0.94045708  0.41950081  1
  O  O6  1  0.35018650  0.05954292  0.41950081  1
  O  O7  1  0.05954292  0.64981350  0.58049919  1
  O  O8  1  0.59003606  0.36365454  0.63388187  1
  O  O9  1  0.40996394  0.63634546  0.63388187  1
  O  O10  1  0.36365454  0.40996394  0.36611813  1
  O  O11  1  0.63634546  0.59003606  0.36611813  1
  O  O12  1  0.86365454  0.09003606  0.13388187  1
  O  O13  1  0.90996394  0.86365454  0.86611813  1
  O  O14  1  0.09003606  0.13634546  0.86611813  1
  O  O15  1  0.13634546  0.90996394  0.13388187  1
loop_
_geom_bond_atom_site_label_1
_geom_bond_atom_site_label_2
_geom_bond_distance
_geom_bond_site_symmetry_2
H0 O1 1.202092 1_555
H0 O0 1.202092 1_455
H1 O2 1.202092 1_555
H1 O3 1.202092 1_545
H2 O5 1.202092 1_545
H2 O6 1.202092 1_555
H3 O7 1.202092 1_555
H3 O4 1.202092 1_455
H4 O0 0.994707 1_555
H4 O12 1.640477 1_555
H5 O1 0.994707 1_555
H5 O15 1.640477 1_555
H6 O2 0.994707 1_555
H6 O14 1.640477 1_555
H7 O3 0.994707 1_555
H7 O13 1.640477 1_555
H8 O4 0.994707 1_555
H8 O8 1.640477 1_555
H9 O5 0.994707 1_555
H9 O11 1.640477 1_555
H10 O6 0.994707 1_555
H10 O10 1.640477 1_555
H11 O7 0.994707 1_555
H11 O9 1.640477 1_555
H12 O0 0.993055 1_555
H12 O11 1.645768 1_555
H13 O1 0.993055 1_555
H13 O10 1.645768 1_555
H14 O2 0.993055 1_555
H14 O8 1.645768 1_555
H15 O3 0.993055 1_555
H15 O9 1.645768 1_555
H16 O4 0.993055 1_555
H16 O14 1.645768 1_655
H17 O5 0.993055 1_555
H17 O12 1.645768 1_565
H18 O7 0.993055 1_555
H18 O13 1.645768 1_455
H19 O6 0.993055 1_555
H19 O15 1.645768 1_545
O8 S0 1.476859 1_555
O9 S0 1.476859 1_555
O10 S0 1.476859 1_555
O11 S0 1.476859 1_555
O12 S1 1.476859 1_655
O13 S1 1.476859 1_666
O14 S1 1.476859 1_556
O15 S1 1.476859 1_565
