# generated using pymatgen
data_Na9Ta10Zn2Si9(PO8)9
_symmetry_space_group_name_H-M   'P 1'
_cell_length_a   8.86047990
_cell_length_b   8.86395846
_cell_length_c   22.77872439
_cell_angle_alpha   90.01592343
_cell_angle_beta   89.99906970
_cell_angle_gamma   119.73957396
_symmetry_Int_Tables_number   1
_chemical_formula_structural   Na9Ta10Zn2Si9(PO8)9
_chemical_formula_sum   'Na9 Ta10 Zn2 Si9 P9 O72'
_cell_volume   1553.38348165
_cell_formula_units_Z   1
loop_
 _symmetry_equiv_pos_site_id
 _symmetry_equiv_pos_as_xyz
  1  'x, y, z'
loop_
 _atom_site_type_symbol
 _atom_site_label
 _atom_site_symmetry_multiplicity
 _atom_site_fract_x
 _atom_site_fract_y
 _atom_site_fract_z
 _atom_site_occupancy
  Na  Na0  1  0.63386011  0.00879518  0.24688255  1
  Na  Na1  1  0.37742841  0.36515086  0.24596887  1
  Na  Na2  1  0.99105575  0.36596018  0.74628007  1
  Na  Na3  1  0.00018301  0.99934791  0.49845277  1
  Na  Na4  1  0.99979739  0.99918548  0.99893733  1
  Na  Na5  1  0.65500493  0.33214642  0.82740865  1
  Na  Na6  1  0.67841069  0.34394097  0.32847129  1
  Na  Na7  1  0.32521510  0.66471556  0.16512022  1
  Na  Na8  1  0.34197113  0.67317471  0.66591884  1
  Ta  Ta0  1  0.99290886  0.99769858  0.35628149  1
  Ta  Ta1  1  0.00631915  0.00384776  0.85599943  1
  Ta  Ta2  1  0.00218929  0.00264163  0.64570207  1
  Ta  Ta3  1  0.99768332  0.00118500  0.14565210  1
  Ta  Ta4  1  0.66712395  0.33411974  0.97785393  1
  Ta  Ta5  1  0.66637158  0.33407930  0.47822154  1
  Ta  Ta6  1  0.33336261  0.66609667  0.01923712  1
  Ta  Ta7  1  0.33306767  0.66611367  0.51965483  1
  Ta  Ta8  1  0.33014406  0.66353854  0.31363360  1
  Ta  Ta9  1  0.33737950  0.66721040  0.81294003  1
  Zn  Zn0  1  0.65351020  0.33211507  0.68452091  1
  Zn  Zn1  1  0.68071301  0.34618708  0.18464419  1
  Si  Si0  1  0.71228069  0.70658723  0.25024717  1
  Si  Si1  1  0.99767448  0.29133859  0.25000443  1
  Si  Si2  1  0.29752931  0.29017503  0.74996516  1
  Si  Si3  1  0.62307314  0.66860021  0.91685820  1
  Si  Si4  1  0.04638952  0.38058832  0.91623959  1
  Si  Si5  1  0.33474095  0.95392691  0.91674255  1
  Si  Si6  1  0.61879509  0.95414017  0.41684326  1
  Si  Si7  1  0.33213812  0.37704223  0.41695692  1
  Si  Si8  1  0.04504496  0.66743785  0.41736566  1
  P  P0  1  0.28221541  0.99585242  0.25036884  1
  P  P1  1  0.00021785  0.71359982  0.75046673  1
  P  P2  1  0.71236302  0.99775445  0.75018256  1
  P  P3  1  0.95503510  0.33479459  0.58549398  1
  P  P4  1  0.37977705  0.04437311  0.58442851  1
  P  P5  1  0.66661986  0.62220778  0.58438238  1
  P  P6  1  0.95689397  0.62268196  0.08359206  1
  P  P7  1  0.66424634  0.04368491  0.08472792  1
  P  P8  1  0.37781259  0.33330404  0.08470854  1
  O  O0  1  0.19377993  0.02243282  0.30449274  1
  O  O1  1  0.83350448  0.80928307  0.30676321  1
  O  O2  1  0.97919306  0.16721678  0.30620855  1
  O  O3  1  0.18642848  0.16845736  0.80616818  1
  O  O4  1  0.97916119  0.80633716  0.80461908  1
  O  O5  1  0.82720370  0.01808725  0.80428010  1
  O  O6  1  0.80052748  0.96828652  0.69456368  1
  O  O7  1  0.16011788  0.19230009  0.69354446  1
  O  O8  1  0.02536689  0.83020462  0.69525448  1
  O  O9  1  0.80751794  0.83934088  0.19335271  1
  O  O10  1  0.03764445  0.19733902  0.19276793  1
  O  O11  1  0.16789866  0.96822730  0.19460813  1
  O  O12  1  0.88494333  0.36521116  0.64199819  1
  O  O13  1  0.48662782  0.11593773  0.63898059  1
  O  O14  1  0.63301595  0.51582874  0.63899418  1
  O  O15  1  0.88610458  0.51598365  0.13861762  1
  O  O16  1  0.63215600  0.11297820  0.14135180  1
  O  O17  1  0.47858433  0.36424362  0.14141156  1
  O  O18  1  0.46951376  0.30885044  0.03020568  1
  O  O19  1  0.84112537  0.53452018  0.02871745  1
  O  O20  1  0.69247096  0.16045206  0.03029040  1
  O  O21  1  0.46400448  0.15936864  0.52901991  1
  O  O22  1  0.69366229  0.53446600  0.52891064  1
  O  O23  1  0.83892662  0.30708029  0.53069973  1
  O  O24  1  0.52914462  0.69648948  0.97396058  1
  O  O25  1  0.16876076  0.47195275  0.97323385  1
  O  O26  1  0.30439147  0.83258401  0.97405949  1
  O  O27  1  0.52605283  0.83137246  0.47352031  1
  O  O28  1  0.30400498  0.47198780  0.47356797  1
  O  O29  1  0.16674854  0.69471208  0.47431031  1
  O  O30  1  0.13629836  0.63473448  0.35953947  1
  O  O31  1  0.50232620  0.86879213  0.35740063  1
  O  O32  1  0.36623301  0.49846282  0.35796998  1
  O  O33  1  0.13318798  0.49939006  0.85732483  1
  O  O34  1  0.36522824  0.86306571  0.85897018  1
  O  O35  1  0.49774688  0.63429634  0.85929178  1
  O  O36  1  0.02669862  0.83881757  0.40941976  1
  O  O37  1  0.81135875  0.97553787  0.41024725  1
  O  O38  1  0.16440509  0.18653942  0.40862500  1
  O  O39  1  0.02202182  0.18731514  0.90827820  1
  O  O40  1  0.16266368  0.97360668  0.90889289  1
  O  O41  1  0.81277241  0.83697614  0.90757285  1
  O  O42  1  0.97388782  0.16602240  0.58999420  1
  O  O43  1  0.19125857  0.02263496  0.59079068  1
  O  O44  1  0.83178683  0.80853531  0.58989250  1
  O  O45  1  0.97789747  0.80913411  0.08924748  1
  O  O46  1  0.83288971  0.02493472  0.08919510  1
  O  O47  1  0.19243296  0.16666633  0.08849024  1
  O  O48  1  0.70398984  0.16363321  0.74544966  1
  O  O49  1  0.48365895  0.30897454  0.74778945  1
  O  O50  1  0.84779571  0.53089291  0.74606274  1
  O  O51  1  0.67422028  0.51200611  0.24736599  1
  O  O52  1  0.82073164  0.29483348  0.24669651  1
  O  O53  1  0.46156317  0.15482542  0.24541945  1
  O  O54  1  0.64011033  0.49528482  0.92704631  1
  O  O55  1  0.85474818  0.35920519  0.92700121  1
  O  O56  1  0.50408053  0.14533858  0.92736186  1
  O  O57  1  0.64086504  0.14601046  0.42732030  1
  O  O58  1  0.50560135  0.36031996  0.42697036  1
  O  O59  1  0.85490629  0.49519933  0.42736270  1
  O  O60  1  0.35173913  0.49370803  0.07442722  1
  O  O61  1  0.14308783  0.64823111  0.07372322  1
  O  O62  1  0.50641612  0.85771357  0.07432608  1
  O  O63  1  0.35070835  0.85728696  0.57402693  1
  O  O64  1  0.50637954  0.64882175  0.57405318  1
  O  O65  1  0.14128190  0.49230185  0.57475479  1
  O  O66  1  0.30139913  0.83082297  0.25589335  1
  O  O67  1  0.52345593  0.70461736  0.25623403  1
  O  O68  1  0.18019410  0.47795200  0.25583072  1
  O  O69  1  0.29470567  0.47649558  0.75597962  1
  O  O70  1  0.17101589  0.70186840  0.75587179  1
  O  O71  1  0.53112069  0.83192169  0.75605971  1
loop_
_geom_bond_atom_site_label_1
_geom_bond_atom_site_label_2
_geom_bond_distance
_geom_bond_site_symmetry_2
Na0 O52 2.237189 1_555
Na0 O67 2.378127 1_545
Na0 O53 2.442896 1_555
Na0 O66 2.568661 1_545
Na0 O16 2.578105 1_555
Na0 O31 2.793325 1_545
Na0 O9 2.898681 1_545
Na0 O2 2.982750 1_555
Na1 O51 2.283575 1_555
Na1 O53 2.326025 1_555
Na1 O68 2.416135 1_555
Na1 O17 2.546150 1_555
Na1 O67 2.630587 1_555
Na1 O32 2.833661 1_555
Na1 O10 2.881201 1_555
Na1 O0 2.958272 1_555
Na2 O48 2.271700 1_555
Na2 O50 2.364257 1_555
Na2 O69 2.373201 1_655
Na2 O12 2.553521 1_555
Na2 O70 2.597119 1_655
Na2 O33 2.811348 1_655
Na2 O7 2.888425 1_655
Na2 O5 2.987003 1_555
Na3 O36 2.554019 1_555
Na3 O37 2.555424 1_455
Na3 O38 2.581405 1_565
Na3 O44 2.631250 1_455
Na3 O42 2.631502 1_465
Na3 O43 2.643129 1_565
Na4 O40 2.581690 1_655
Na4 O39 2.600063 1_665
Na4 O47 2.600558 1_666
Na4 O41 2.603696 1_555
Na4 O45 2.604808 1_556
Na4 O46 2.607808 1_566
Na5 O49 2.308004 1_555
Na5 O50 2.543831 1_555
Na5 O48 2.558617 1_555
Na5 O54 2.728948 1_555
Na5 O56 2.742101 1_555
Na5 O55 2.813359 1_555
Na6 O51 2.385419 1_555
Na6 O52 2.406964 1_555
Na6 O53 2.623659 1_555
Na6 O59 2.689933 1_555
Na6 O58 2.760424 1_555
Na6 O57 2.771610 1_555
Na7 O68 2.559791 1_555
Na7 O61 2.593421 1_555
Na7 O66 2.606590 1_555
Na7 O67 2.627031 1_555
Na7 O60 2.640528 1_555
Na7 O62 2.656792 1_555
Na8 O71 2.581407 1_555
Na8 O69 2.588593 1_555
Na8 O64 2.619009 1_555
Na8 O63 2.631967 1_555
Na8 O70 2.634280 1_555
Na8 O65 2.685987 1_555
O0 P0 1.540278 1_545
O0 Ta0 2.054360 1_445
O1 Si0 1.633703 1_555
O1 Ta0 1.927478 1_555
O2 Si1 1.642672 1_555
O2 Ta0 1.937956 1_545
O3 Si2 1.648970 1_555
O3 Ta1 1.911768 1_555
O4 P1 1.543919 1_655
O4 Ta1 2.018326 1_665
O5 P2 1.550595 1_545
O5 Ta1 2.030137 1_655
O6 P2 1.576640 1_555
O6 Ta2 1.996128 1_665
O7 Si2 1.684707 1_555
O7 Ta2 1.907109 1_555
O8 P1 1.572220 1_555
O8 Ta2 1.991193 1_565
O9 Si0 1.670926 1_555
O9 Ta3 1.918428 1_565
O10 Si1 1.676791 1_455
O10 Ta3 1.920544 1_455
O11 P0 1.566214 1_555
O11 Ta3 2.010202 1_465
O12 P3 1.510266 1_555
O12 Zn0 2.152332 1_555
O13 P4 1.498872 1_555
O13 Zn0 2.030318 1_555
O14 P5 1.499129 1_555
O14 Zn0 2.013587 1_555
O15 P6 1.506995 1_555
O15 Zn1 1.989907 1_555
O16 P7 1.514778 1_555
O16 Zn1 2.132425 1_555
O17 P8 1.515798 1_555
O17 Zn1 2.118366 1_555
O18 P8 1.556615 1_555
O18 Ta4 2.036899 1_554
O19 P6 1.558696 1_555
O19 Ta4 2.038764 1_554
O20 P7 1.554140 1_555
O20 Ta4 2.047156 1_554
O21 P4 1.560424 1_555
O21 Ta5 2.048975 1_555
O22 P5 1.563087 1_555
O22 Ta5 2.029619 1_555
O23 P3 1.557475 1_555
O23 Ta5 2.046229 1_555
O24 Si3 1.627738 1_555
O24 Ta6 1.918841 1_556
O25 Si4 1.626423 1_555
O25 Ta6 1.922398 1_556
O26 Si5 1.627146 1_555
O26 Ta6 1.918177 1_556
O27 Si6 1.624742 1_555
O27 Ta7 1.920879 1_555
O28 Si7 1.625059 1_555
O28 Ta7 1.920593 1_555
O29 Si8 1.626362 1_555
O29 Ta7 1.916673 1_555
O30 Si8 1.644720 1_555
O30 Ta8 1.916685 1_555
O31 Si6 1.641828 1_555
O31 Ta8 1.968953 1_555
O32 Si7 1.653245 1_555
O32 Ta8 1.930870 1_555
O33 Si4 1.642751 1_555
O33 Ta9 1.959332 1_555
O34 Si5 1.633608 1_555
O34 Ta9 1.936010 1_555
O35 Si3 1.646169 1_555
O35 Ta9 1.905376 1_555
O36 Si8 1.616170 1_555
O36 Ta0 1.989317 1_455
O37 Si6 1.627463 1_555
O37 Ta0 1.955488 1_555
O38 Si7 1.614376 1_555
O38 Ta0 2.001990 1_445
O39 Si4 1.627051 1_555
O39 Ta1 1.963821 1_555
O40 Si5 1.628180 1_555
O40 Ta1 1.952222 1_565
O41 Si3 1.615161 1_555
O41 Ta1 1.998298 1_665
O42 P3 1.588839 1_555
O42 Ta2 2.032668 1_655
O43 P4 1.590263 1_555
O43 Ta2 2.026793 1_555
O44 P5 1.577068 1_555
O44 Ta2 2.068240 1_665
O45 P6 1.573975 1_555
O45 Ta3 2.069335 1_565
O46 P7 1.586568 1_555
O46 Ta3 2.033562 1_555
O47 P8 1.574853 1_555
O47 Ta3 2.077114 1_455
O48 P2 1.512398 1_545
O48 Zn0 2.240631 1_555
O49 Si2 1.573985 1_555
O49 Zn0 2.019359 1_555
O50 P1 1.512205 1_655
O50 Zn0 2.241109 1_555
O51 Si0 1.586097 1_555
O51 Zn1 2.070659 1_555
O52 Si1 1.585188 1_555
O52 Zn1 2.074842 1_555
O53 P0 1.517266 1_545
O53 Zn1 2.301667 1_555
O54 Si3 1.633102 1_555
O54 Ta4 1.943620 1_555
O55 Si4 1.630964 1_655
O55 Ta4 1.946353 1_555
O56 Si5 1.631747 1_545
O56 Ta4 1.952068 1_555
O57 Si6 1.630183 1_545
O57 Ta5 1.949255 1_555
O58 Si7 1.631661 1_555
O58 Ta5 1.942972 1_555
O59 Si8 1.633819 1_655
O59 Ta5 1.950967 1_555
O60 P8 1.567114 1_555
O60 Ta6 2.046901 1_555
O61 P6 1.566173 1_455
O61 Ta6 2.035430 1_555
O62 P7 1.562648 1_565
O62 Ta6 2.055649 1_555
O63 P4 1.564782 1_565
O63 Ta7 2.041065 1_555
O64 P5 1.568184 1_555
O64 Ta7 2.037341 1_555
O65 P3 1.564194 1_455
O65 Ta7 2.059168 1_555
O66 P0 1.559276 1_555
O66 Ta8 2.090270 1_555
O67 Si0 1.670061 1_555
O67 Ta8 2.038957 1_555
O68 Si1 1.647736 1_455
O68 Ta8 2.008846 1_555
O69 Si2 1.669683 1_555
O69 Ta9 2.012171 1_555
O70 P1 1.572371 1_555
O70 Ta9 2.099199 1_555
O71 P2 1.554245 1_555
O71 Ta9 2.066791 1_555
