# generated using pymatgen
data_TlInS2
_symmetry_space_group_name_H-M   'P 1'
_cell_length_a   3.86724086
_cell_length_b   3.86724111
_cell_length_c   14.94836141
_cell_angle_alpha   90.00000000
_cell_angle_beta   90.00000000
_cell_angle_gamma   120.00000675
_symmetry_Int_Tables_number   1
_chemical_formula_structural   TlInS2
_chemical_formula_sum   'Tl2 In2 S4'
_cell_volume   193.60949976
_cell_formula_units_Z   2
loop_
 _symmetry_equiv_pos_site_id
 _symmetry_equiv_pos_as_xyz
  1  'x, y, z'
loop_
 _atom_site_type_symbol
 _atom_site_label
 _atom_site_symmetry_multiplicity
 _atom_site_fract_x
 _atom_site_fract_y
 _atom_site_fract_z
 _atom_site_occupancy
  Tl  Tl0  1  0.66666700  0.33333300  0.75000000  1
  Tl  Tl1  1  0.33333300  0.66666700  0.25000000  1
  In  In0  1  0.00000000  0.00000000  0.50000000  1
  In  In1  1  0.00000000  0.00000000  -0.00000000  1
  S  S0  1  0.33333300  0.66666700  0.90386792  1
  S  S1  1  0.66666700  0.33333300  0.40386792  1
  S  S2  1  0.33333300  0.66666700  0.59613208  1
  S  S3  1  0.66666700  0.33333300  0.09613208  1
loop_
_geom_bond_atom_site_label_1
_geom_bond_atom_site_label_2
_geom_bond_distance
_geom_bond_site_symmetry_2
In0 S2 2.655220 1_545
In0 S1 2.655220 1_455
In0 S2 2.655222 1_445
In0 S1 2.655222 1_555
In0 S2 2.655223 1_555
In0 S1 2.655223 1_445
In1 S0 2.655220 1_544
In1 S3 2.655220 1_455
In1 S0 2.655222 1_444
In1 S3 2.655222 1_555
In1 S0 2.655223 1_554
In1 S3 2.655223 1_445
S0 Tl0 3.205544 1_455
S0 Tl0 3.205544 1_565
S0 Tl0 3.205549 1_555
S1 Tl1 3.205544 1_655
S1 Tl1 3.205544 1_545
S1 Tl1 3.205549 1_555
S2 Tl0 3.205544 1_455
S2 Tl0 3.205544 1_565
S2 Tl0 3.205549 1_555
S3 Tl1 3.205544 1_655
S3 Tl1 3.205544 1_545
S3 Tl1 3.205549 1_555
