# generated using pymatgen
data_Na3Sc2Ta2SiP5O24
_symmetry_space_group_name_H-M   'P 1'
_cell_length_a   8.88931269
_cell_length_b   8.87289062
_cell_length_c   22.77578992
_cell_angle_alpha   89.98578841
_cell_angle_beta   90.03725248
_cell_angle_gamma   119.95534155
_symmetry_Int_Tables_number   1
_chemical_formula_structural   Na3Sc2Ta2SiP5O24
_chemical_formula_sum   'Na9 Sc6 Ta6 Si3 P15 O72'
_cell_volume   1556.44062373
_cell_formula_units_Z   3
loop_
 _symmetry_equiv_pos_site_id
 _symmetry_equiv_pos_as_xyz
  1  'x, y, z'
loop_
 _atom_site_type_symbol
 _atom_site_label
 _atom_site_symmetry_multiplicity
 _atom_site_fract_x
 _atom_site_fract_y
 _atom_site_fract_z
 _atom_site_occupancy
  Na  Na0  1  0.35992049  0.99229175  0.75147424  1
  Na  Na1  1  0.67298648  0.97376081  0.58648521  1
  Na  Na2  1  0.67684008  0.70004352  0.08337051  1
  Na  Na3  1  0.01427286  0.00065196  0.50405461  1
  Na  Na4  1  0.01022393  0.00509939  0.00378901  1
  Na  Na5  1  0.67485130  0.34193209  0.83858619  1
  Na  Na6  1  0.66561070  0.33259957  0.33779179  1
  Na  Na7  1  0.32457166  0.66608506  0.17207038  1
  Na  Na8  1  0.32927439  0.65323927  0.67122777  1
  Sc  Sc0  1  0.00266671  0.99899984  0.64726146  1
  Sc  Sc1  1  0.00647899  0.00295151  0.14738588  1
  Sc  Sc2  1  0.66943959  0.33594697  0.98044489  1
  Sc  Sc3  1  0.66094035  0.33093451  0.47958923  1
  Sc  Sc4  1  0.33365841  0.66699523  0.31342349  1
  Sc  Sc5  1  0.33725065  0.66484408  0.81404681  1
  Ta  Ta0  1  0.00039930  0.00008963  0.35370829  1
  Ta  Ta1  1  0.99479953  0.99980892  0.85415209  1
  Ta  Ta2  1  0.66892357  0.33321400  0.68658246  1
  Ta  Ta3  1  0.67090938  0.33418587  0.18781723  1
  Ta  Ta4  1  0.32668416  0.66655232  0.01982457  1
  Ta  Ta5  1  0.32985335  0.66604180  0.51950563  1
  Si  Si0  1  0.70856228  0.99889247  0.74742545  1
  Si  Si1  1  0.37092117  0.04326377  0.58180687  1
  Si  Si2  1  0.95768003  0.62415979  0.08265798  1
  P  P0  1  0.29093894  0.00118814  0.24954210  1
  P  P1  1  0.70988329  0.70948276  0.24852157  1
  P  P2  1  -0.00085598  0.28925981  0.24939897  1
  P  P3  1  0.28887975  0.29014664  0.74947996  1
  P  P4  1  0.99661394  0.70845013  0.75047690  1
  P  P5  1  0.95763750  0.33679826  0.58206606  1
  P  P6  1  0.66528733  0.62139699  0.58179529  1
  P  P7  1  0.66561754  0.04424747  0.08277699  1
  P  P8  1  0.37737267  0.33229594  0.08232998  1
  P  P9  1  0.62438430  0.66681174  0.91656185  1
  P  P10  1  0.04402893  0.37627835  0.91525586  1
  P  P11  1  0.33231101  0.95818564  0.91462823  1
  P  P12  1  0.62450952  0.95611507  0.41552331  1
  P  P13  1  0.33223947  0.37652558  0.41495526  1
  P  P14  1  0.04318368  0.66670153  0.41493821  1
  O  O0  1  0.19849094  0.02837671  0.30510978  1
  O  O1  1  0.83119183  0.80279167  0.30351472  1
  O  O2  1  0.97181002  0.17056337  0.30515152  1
  O  O3  1  0.20402208  0.16760778  0.80488776  1
  O  O4  1  0.97112022  0.80018327  0.80605144  1
  O  O5  1  0.83671553  0.02764295  0.80578438  1
  O  O6  1  0.78983964  0.97342525  0.68858107  1
  O  O7  1  0.18194858  0.20439757  0.69536741  1
  O  O8  1  0.03257664  0.82376402  0.69708035  1
  O  O9  1  0.79053137  0.81339124  0.19300411  1
  O  O10  1  0.02167548  0.20482929  0.19535522  1
  O  O11  1  0.18175332  0.97610154  0.19561329  1
  O  O12  1  0.87014151  0.36797325  0.63831495  1
  O  O13  1  0.50073965  0.13358058  0.64156048  1
  O  O14  1  0.63820856  0.50633873  0.63799702  1
  O  O15  1  0.86138215  0.49644375  0.14135793  1
  O  O16  1  0.63360165  0.13009601  0.13869154  1
  O  O17  1  0.49880441  0.36643657  0.13779393  1
  O  O18  1  0.45967146  0.30610672  0.02804482  1
  O  O19  1  0.83450479  0.53672524  0.02724872  1
  O  O20  1  0.69002705  0.15195911  0.02859222  1
  O  O21  1  0.46985807  0.15782692  0.52622033  1
  O  O22  1  0.69301172  0.53938099  0.52802843  1
  O  O23  1  0.84451617  0.30740036  0.52894139  1
  O  O24  1  0.54008499  0.69622072  0.97347240  1
  O  O25  1  0.16348299  0.46778854  0.97127688  1
  O  O26  1  0.30660636  0.83562661  0.96977660  1
  O  O27  1  0.53769330  0.83963780  0.47255688  1
  O  O28  1  0.30321354  0.46538876  0.47097481  1
  O  O29  1  0.16332182  0.69633173  0.47110204  1
  O  O30  1  0.13044761  0.64467927  0.36158244  1
  O  O31  1  0.51320465  0.86782769  0.36254218  1
  O  O32  1  0.35353744  0.48503261  0.36129246  1
  O  O33  1  0.12884997  0.48485949  0.86171994  1
  O  O34  1  0.35391414  0.87541891  0.85943666  1
  O  O35  1  0.51578572  0.64742530  0.86308223  1
  O  O36  1  0.03193703  0.83877694  0.40892134  1
  O  O37  1  0.80748144  0.96696915  0.40866407  1
  O  O38  1  0.16140243  0.19215318  0.40865073  1
  O  O39  1  0.03466874  0.19388592  0.91003991  1
  O  O40  1  0.16165401  0.96887390  0.91036189  1
  O  O41  1  0.80889931  0.83755508  0.91001487  1
  O  O42  1  0.97570707  0.17650940  0.59029630  1
  O  O43  1  0.17971260  0.01217632  0.58841028  1
  O  O44  1  0.81482563  0.80732925  0.58887131  1
  O  O45  1  0.97726725  0.81330195  0.09035926  1
  O  O46  1  0.81763463  0.01244750  0.09088004  1
  O  O47  1  0.19524568  0.18230959  0.09048018  1
  O  O48  1  0.69463530  0.18103743  0.74290153  1
  O  O49  1  0.47218663  0.30136453  0.74331365  1
  O  O50  1  0.82778148  0.52915734  0.74352500  1
  O  O51  1  0.69627429  0.52496999  0.24339799  1
  O  O52  1  0.82595083  0.29877260  0.24399249  1
  O  O53  1  0.47269017  0.17150394  0.24351850  1
  O  O54  1  0.64871465  0.50966553  0.92191876  1
  O  O55  1  0.86225964  0.34782626  0.92330463  1
  O  O56  1  0.48892980  0.13754900  0.92309373  1
  O  O57  1  0.65351901  0.13854624  0.42258234  1
  O  O58  1  0.48795585  0.35132927  0.42171797  1
  O  O59  1  0.86309690  0.51264000  0.42324536  1
  O  O60  1  0.37282464  0.50889607  0.07567262  1
  O  O61  1  0.15053238  0.63853652  0.07487302  1
  O  O62  1  0.49828876  0.85702918  0.07561282  1
  O  O63  1  0.36709959  0.85135341  0.57484642  1
  O  O64  1  0.49458273  0.63528209  0.57523774  1
  O  O65  1  0.14068356  0.50334792  0.57554771  1
  O  O66  1  0.31609123  0.84507670  0.25727429  1
  O  O67  1  0.52920683  0.68457754  0.25679577  1
  O  O68  1  0.15294240  0.47141172  0.25707370  1
  O  O69  1  0.31386433  0.47034316  0.75709889  1
  O  O70  1  0.15462221  0.68604871  0.75866029  1
  O  O71  1  0.51142834  0.84206418  0.75566970  1
loop_
_geom_bond_atom_site_label_1
_geom_bond_atom_site_label_2
_geom_bond_distance
_geom_bond_site_symmetry_2
Na0 O71 2.322140 1_555
Na0 O70 2.405981 1_555
Na0 O49 2.412045 1_565
Na0 O48 2.592317 1_565
Na0 O34 2.658602 1_555
Na0 O13 2.800144 1_565
Na0 O8 2.808735 1_555
Na0 O3 2.824218 1_565
Na1 O44 2.373336 1_555
Na1 O42 2.377080 1_565
Na1 O63 2.386099 1_555
Na1 O6 2.546768 1_555
Na1 O64 2.616065 1_555
Na1 O13 2.846145 1_565
Na1 O27 2.857242 1_555
Na1 O23 2.880831 1_565
Na2 O45 2.342364 1_555
Na2 O60 2.373377 1_555
Na2 O46 2.411356 1_565
Na2 O62 2.588049 1_555
Na2 O9 2.692722 1_555
Na2 O24 2.774702 1_554
Na2 O19 2.780199 1_555
Na2 O17 2.850524 1_555
Na3 O43 2.389721 1_555
Na3 O44 2.604449 1_445
Na3 O42 2.635723 1_455
Na3 O36 2.647559 1_545
Na3 O38 2.664915 1_555
Na3 O37 2.763165 1_445
Na4 O45 2.524037 1_445
Na4 O47 2.547672 1_555
Na4 O40 2.622849 1_544
Na4 O46 2.643035 1_455
Na4 O39 2.654726 1_554
Na4 O41 2.704453 1_444
Na5 O54 2.493696 1_555
Na5 O55 2.531799 1_555
Na5 O56 2.594997 1_555
Na5 O50 2.653704 1_555
Na5 O48 2.659147 1_555
Na5 O49 2.726051 1_555
Na6 O58 2.538018 1_555
Na6 O57 2.553315 1_555
Na6 O59 2.572594 1_555
Na6 O52 2.667791 1_555
Na6 O53 2.672662 1_555
Na6 O51 2.672844 1_555
Na7 O66 2.532812 1_555
Na7 O68 2.535720 1_555
Na7 O67 2.599450 1_555
Na7 O61 2.640468 1_555
Na7 O62 2.733354 1_555
Na7 O60 2.747688 1_555
Na8 O69 2.500832 1_555
Na8 O71 2.532997 1_555
Na8 O70 2.629874 1_555
Na8 O65 2.664249 1_555
Na8 O64 2.683767 1_555
Na8 O63 2.725912 1_555
O0 P0 1.592098 1_555
O0 Ta0 1.987447 1_555
O1 P1 1.588790 1_555
O1 Ta0 2.000777 1_665
O2 P2 1.588969 1_655
O2 Ta0 1.989543 1_655
O3 P3 1.589092 1_555
O3 Ta1 2.042367 1_445
O4 P4 1.581479 1_555
O4 Ta1 2.002542 1_555
O5 Si0 1.684493 1_545
O5 Ta1 1.895714 1_545
O6 Si0 1.591769 1_555
O6 Sc0 2.022338 1_655
O7 P3 1.509327 1_555
O7 Sc0 2.039581 1_545
O8 P4 1.517012 1_455
O8 Sc0 2.046285 1_555
O9 P1 1.517680 1_555
O9 Sc1 2.090644 1_665
O10 P2 1.505669 1_555
O10 Sc1 2.044398 1_555
O11 P0 1.510982 1_565
O11 Sc1 2.014742 1_565
O12 P5 1.593433 1_555
O12 Ta2 1.988600 1_555
O13 Si1 1.703238 1_555
O13 Ta2 1.943833 1_555
O14 P6 1.578930 1_555
O14 Ta2 2.018989 1_555
O15 Si2 1.684142 1_555
O15 Ta3 1.904323 1_555
O16 P7 1.581286 1_555
O16 Ta3 2.010444 1_555
O17 P8 1.588897 1_555
O17 Ta3 2.038452 1_555
O18 P8 1.512928 1_555
O18 Sc2 2.057172 1_554
O19 Si2 1.594918 1_555
O19 Sc2 1.962519 1_554
O20 P7 1.508690 1_555
O20 Sc2 2.048973 1_554
O21 Si1 1.586700 1_555
O21 Sc3 1.941250 1_555
O22 P6 1.506604 1_555
O22 Sc3 2.047726 1_555
O23 P5 1.509913 1_555
O23 Sc3 2.075532 1_555
O24 P9 1.583172 1_555
O24 Ta4 2.070300 1_556
O25 P10 1.597667 1_555
O25 Ta4 1.970119 1_556
O26 P11 1.601241 1_555
O26 Ta4 1.961630 1_556
O27 P12 1.598491 1_555
O27 Ta5 2.022171 1_555
O28 P13 1.587531 1_555
O28 Ta5 2.006776 1_555
O29 P14 1.601224 1_555
O29 Ta5 1.968267 1_555
O30 P14 1.506450 1_555
O30 Sc4 2.037320 1_555
O31 P12 1.507845 1_555
O31 Sc4 2.032903 1_555
O32 P13 1.508066 1_555
O32 Sc4 2.027412 1_555
O33 P10 1.502873 1_555
O33 Sc5 2.051458 1_555
O34 P11 1.515893 1_555
O34 Sc5 2.075086 1_555
O35 P9 1.509267 1_555
O35 Sc5 2.008104 1_555
O36 P14 1.585001 1_555
O36 Ta0 2.026814 1_565
O37 P12 1.588414 1_555
O37 Ta0 2.023177 1_665
O38 P13 1.588051 1_555
O38 Ta0 2.020254 1_555
O39 P10 1.582939 1_555
O39 Ta1 2.025399 1_445
O40 P11 1.569482 1_555
O40 Ta1 2.078024 1_455
O41 P9 1.589458 1_555
O41 Ta1 2.012019 1_555
O42 P5 1.520405 1_555
O42 Sc0 2.144056 1_645
O43 Si1 1.587398 1_555
O43 Sc0 2.026352 1_545
O44 P6 1.524629 1_555
O44 Sc0 2.147406 1_655
O45 Si2 1.608060 1_555
O45 Sc1 2.037221 1_665
O46 P7 1.523214 1_555
O46 Sc1 2.149369 1_655
O47 P8 1.508390 1_555
O47 Sc1 2.088811 1_555
O48 Si0 1.684519 1_545
O48 Ta2 1.956453 1_555
O49 P3 1.588437 1_555
O49 Ta2 2.077758 1_555
O50 P4 1.556845 1_555
O50 Ta2 2.060514 1_555
O51 P1 1.584563 1_555
O51 Ta3 2.034317 1_555
O52 P2 1.588106 1_655
O52 Ta3 2.016219 1_555
O53 P0 1.573138 1_555
O53 Ta3 2.063926 1_555
O54 P9 1.518846 1_555
O54 Sc2 2.113975 1_555
O55 P10 1.516957 1_655
O55 Sc2 2.113084 1_555
O56 P11 1.515046 1_545
O56 Sc2 2.134804 1_555
O57 P12 1.515167 1_545
O57 Sc3 2.119586 1_555
O58 P13 1.516079 1_555
O58 Sc3 2.099937 1_555
O59 P14 1.510638 1_655
O59 Sc3 2.141051 1_555
O60 P8 1.594712 1_555
O60 Ta4 2.077118 1_555
O61 Si2 1.663916 1_455
O61 Ta4 1.923372 1_555
O62 P7 1.590863 1_565
O62 Ta4 2.054687 1_555
O63 Si1 1.693568 1_565
O63 Ta5 1.964353 1_555
O64 P6 1.589504 1_555
O64 Ta5 2.055849 1_555
O65 P5 1.566006 1_455
O65 Ta5 2.029408 1_555
O66 P0 1.519469 1_565
O66 Sc4 2.098019 1_555
O67 P1 1.519805 1_555
O67 Sc4 2.107469 1_555
O68 P2 1.518229 1_555
O68 Sc4 2.110394 1_555
O69 P3 1.510388 1_555
O69 Sc5 2.084784 1_555
O70 P4 1.524976 1_455
O70 Sc5 2.136474 1_555
O71 Si0 1.614791 1_555
O71 Sc5 2.051333 1_555
