# generated using pymatgen
data_Na6Ta6Ga2Si9(SO16)3
_symmetry_space_group_name_H-M   'P 1'
_cell_length_a   17.75485543
_cell_length_b   8.87187440
_cell_length_c   22.70406986
_cell_angle_alpha   90.07119843
_cell_angle_beta   90.07890763
_cell_angle_gamma   119.98385969
_symmetry_Int_Tables_number   1
_chemical_formula_structural   Na6Ta6Ga2Si9(SO16)3
_chemical_formula_sum   'Na18 Ta18 Ga6 Si27 S9 O144'
_cell_volume   3097.67600111
_cell_formula_units_Z   3
loop_
 _symmetry_equiv_pos_site_id
 _symmetry_equiv_pos_as_xyz
  1  'x, y, z'
loop_
 _atom_site_type_symbol
 _atom_site_label
 _atom_site_symmetry_multiplicity
 _atom_site_fract_x
 _atom_site_fract_y
 _atom_site_fract_z
 _atom_site_occupancy
  Na  Na0  1  0.32113153  0.01414560  0.25038391  1
  Na  Na1  1  0.68414616  0.36695597  0.24611218  1
  Na  Na2  1  0.49339021  0.61927824  0.24959048  1
  Na  Na3  1  0.82062534  0.62836418  0.74857585  1
  Na  Na4  1  0.99370684  0.36707893  0.74755236  1
  Na  Na5  1  0.18632203  0.00684984  0.74314875  1
  Na  Na6  1  0.00324783  0.00997242  0.49934384  1
  Na  Na7  1  0.50474024  0.99898641  0.49530821  1
  Na  Na8  1  0.00500338  0.01495086  0.99263513  1
  Na  Na9  1  0.50336335  0.99662261  0.99780481  1
  Na  Na10  1  0.33911480  0.33423882  0.83037904  1
  Na  Na11  1  0.83034857  0.32274307  0.82609786  1
  Na  Na12  1  0.33000391  0.34085208  0.33108168  1
  Na  Na13  1  0.83852048  0.34276405  0.33494423  1
  Na  Na14  1  0.16742868  0.65699212  0.16647406  1
  Na  Na15  1  0.67172429  0.66991255  0.16468701  1
  Na  Na16  1  0.17352091  0.67398330  0.66322209  1
  Na  Na17  1  0.66062148  0.66926308  0.66168790  1
  Ta  Ta0  1  0.00199416  0.98628429  0.35772522  1
  Ta  Ta1  1  0.50231286  0.01753720  0.85594457  1
  Ta  Ta2  1  0.99788953  0.99241342  0.64369233  1
  Ta  Ta3  1  0.49896091  0.01271933  0.63955506  1
  Ta  Ta4  1  0.99993413  0.99790568  0.14424906  1
  Ta  Ta5  1  0.49792056  0.00289248  0.14392195  1
  Ta  Ta6  1  0.32953823  0.34137670  0.97575525  1
  Ta  Ta7  1  0.82935208  0.31363811  0.97689599  1
  Ta  Ta8  1  0.33482439  0.34607712  0.48092686  1
  Ta  Ta9  1  0.82904389  0.31597711  0.47630277  1
  Ta  Ta10  1  0.16638345  0.65523953  0.01499723  1
  Ta  Ta11  1  0.66000050  0.66585804  0.02666920  1
  Ta  Ta12  1  0.16018866  0.65263104  0.52681658  1
  Ta  Ta13  1  0.66017256  0.66946120  0.51737516  1
  Ta  Ta14  1  0.16462998  0.66106711  0.31255714  1
  Ta  Ta15  1  0.66901608  0.65835188  0.31600463  1
  Ta  Ta16  1  0.16890332  0.67955517  0.81449932  1
  Ta  Ta17  1  0.66185535  0.66606242  0.80971519  1
  Ga  Ga0  1  0.49684679  0.99940279  0.35552820  1
  Ga  Ga1  1  0.99807626  0.99695790  0.85414508  1
  Ga  Ga2  1  0.33647954  0.31973396  0.67481685  1
  Ga  Ga3  1  0.83127414  0.30863820  0.69106829  1
  Ga  Ga4  1  0.33091247  0.35416134  0.19156773  1
  Ga  Ga5  1  0.82938110  0.34031938  0.18010403  1
  Si  Si0  1  0.14656782  0.00548954  0.24900327  1
  Si  Si1  1  0.35777256  0.71567330  0.25324902  1
  Si  Si2  1  0.85668609  0.70279977  0.24828077  1
  Si  Si3  1  0.49836520  0.28645966  0.25190428  1
  Si  Si4  1  0.64668512  0.28506239  0.74824176  1
  Si  Si5  1  0.99820726  0.71152224  0.75209232  1
  Si  Si6  1  0.35710166  0.01066393  0.74791449  1
  Si  Si7  1  0.85824088  0.00035113  0.75346790  1
  Si  Si8  1  0.47849701  0.34137292  0.58312734  1
  Si  Si9  1  0.97047526  0.32828868  0.58777675  1
  Si  Si10  1  0.19003570  0.04672706  0.58399147  1
  Si  Si11  1  0.69195353  0.04729426  0.58647265  1
  Si  Si12  1  0.33304408  0.61569424  0.58896670  1
  Si  Si13  1  0.47048012  0.61261581  0.08765097  1
  Si  Si14  1  0.83370587  0.05042873  0.08762469  1
  Si  Si15  1  0.19123123  0.33630199  0.08600436  1
  Si  Si16  1  0.69013706  0.33426210  0.08429966  1
  Si  Si17  1  0.31319137  0.67157268  0.91409013  1
  Si  Si18  1  0.01946923  0.36638188  0.91261247  1
  Si  Si19  1  0.52300271  0.38426342  0.91849559  1
  Si  Si20  1  0.16067761  0.95674036  0.91857059  1
  Si  Si21  1  0.66398764  0.94813430  0.91593090  1
  Si  Si22  1  0.81118667  0.95006465  0.41652674  1
  Si  Si23  1  0.16773725  0.37745785  0.41654814  1
  Si  Si24  1  0.66154086  0.36477147  0.41858716  1
  Si  Si25  1  0.02270550  0.65963978  0.41886528  1
  Si  Si26  1  0.51786667  0.67163640  0.41251700  1
  S  S0  1  0.64632066  0.00222502  0.24945259  1
  S  S1  1  0.99739396  0.28538414  0.24999163  1
  S  S2  1  0.14581024  0.28983930  0.75043200  1
  S  S3  1  0.49643348  0.71120173  0.75054300  1
  S  S4  1  0.83170281  0.61890058  0.58396541  1
  S  S5  1  0.97815988  0.62143052  0.08344804  1
  S  S6  1  0.33101389  0.04316910  0.08357900  1
  S  S7  1  0.80956079  0.66635494  0.91798726  1
  S  S8  1  0.30923348  0.95269640  0.41751484  1
  O  O0  1  0.09707218  0.03027429  0.30586300  1
  O  O1  1  0.60836206  0.03293100  0.30221605  1
  O  O2  1  0.42169020  0.80688835  0.30821280  1
  O  O3  1  0.91679207  0.80548632  0.30567639  1
  O  O4  1  0.48369520  0.16158853  0.30711906  1
  O  O5  1  0.98701012  0.18286751  0.30290711  1
  O  O6  1  0.10679538  0.18319893  0.80315497  1
  O  O7  1  0.59856140  0.16595418  0.80698277  1
  O  O8  1  0.48974590  0.79708801  0.80482032  1
  O  O9  1  0.98358582  0.80470548  0.80813945  1
  O  O10  1  0.41650290  0.02568458  0.80649004  1
  O  O11  1  0.92126214  0.03821300  0.80917734  1
  O  O12  1  0.40246200  0.97326104  0.69193350  1
  O  O13  1  0.90319047  0.96381565  0.69449581  1
  O  O14  1  0.08906897  0.20796797  0.69666957  1
  O  O15  1  0.58201690  0.19170990  0.69282459  1
  O  O16  1  0.02007405  0.84213090  0.69401464  1
  O  O17  1  0.51368530  0.81675422  0.69769574  1
  O  O18  1  0.40347666  0.84193678  0.19388118  1
  O  O19  1  0.90302873  0.82941791  0.19109333  1
  O  O20  1  0.01318053  0.20713531  0.19618228  1
  O  O21  1  0.51988444  0.19806172  0.19338844  1
  O  O22  1  0.08194952  0.97263709  0.19253507  1
  O  O23  1  0.59020253  0.97261711  0.19563801  1
  O  O24  1  0.44252131  0.37724224  0.64317324  1
  O  O25  1  0.93628834  0.36953077  0.64763128  1
  O  O26  1  0.24029993  0.11462723  0.64653391  1
  O  O27  1  0.75075718  0.13357763  0.64316592  1
  O  O28  1  0.31373103  0.49298438  0.64545305  1
  O  O29  1  0.82148421  0.52584153  0.63896518  1
  O  O30  1  0.43549552  0.50217681  0.14721971  1
  O  O31  1  0.94154731  0.52061484  0.13751870  1
  O  O32  1  0.31977423  0.11437414  0.13877935  1
  O  O33  1  0.82067739  0.14378615  0.14429628  1
  O  O34  1  0.24960818  0.36875838  0.14296330  1
  O  O35  1  0.74258386  0.36903136  0.14581659  1
  O  O36  1  0.23400053  0.30458887  0.02613617  1
  O  O37  1  0.74137235  0.31133635  0.02756153  1
  O  O38  1  0.41376948  0.52169112  0.02798514  1
  O  O39  1  0.92524699  0.54222580  0.03049499  1
  O  O40  1  0.34521359  0.14900795  0.03117238  1
  O  O41  1  0.84941878  0.17022646  0.02734950  1
  O  O42  1  0.23685083  0.17031467  0.52669104  1
  O  O43  1  0.73474743  0.16728512  0.52651450  1
  O  O44  1  0.34880486  0.53143445  0.52772853  1
  O  O45  1  0.84660094  0.54090136  0.53121132  1
  O  O46  1  0.41695654  0.30662195  0.52511532  1
  O  O47  1  0.91432614  0.30616687  0.52783469  1
  O  O48  1  0.26635028  0.69618913  0.97303216  1
  O  O49  1  0.76663789  0.68802941  0.96968850  1
  O  O50  1  0.08236506  0.46966646  0.97106912  1
  O  O51  1  0.58525344  0.47456196  0.97487060  1
  O  O52  1  0.15203700  0.83170673  0.97516166  1
  O  O53  1  0.65592686  0.83460041  0.97367129  1
  O  O54  1  0.26661124  0.84495065  0.46886195  1
  O  O55  1  0.76642413  0.83272504  0.47416166  1
  O  O56  1  0.15567059  0.47688726  0.47282723  1
  O  O57  1  0.65255212  0.47267276  0.47361092  1
  O  O58  1  0.08562114  0.69612906  0.47453975  1
  O  O59  1  0.58063553  0.69534133  0.47043215  1
  O  O60  1  0.06983453  0.63856690  0.35931771  1
  O  O61  1  0.56761492  0.64164834  0.35497530  1
  O  O62  1  0.25638431  0.86984627  0.36133211  1
  O  O63  1  0.75004602  0.86228288  0.35796783  1
  O  O64  1  0.18112378  0.50089428  0.35822051  1
  O  O65  1  0.68110555  0.49108112  0.35833702  1
  O  O66  1  0.06684382  0.49361488  0.85557024  1
  O  O67  1  0.57011211  0.50226620  0.86002589  1
  O  O68  1  0.18036646  0.86781282  0.85959063  1
  O  O69  1  0.68196583  0.86116094  0.85815977  1
  O  O70  1  0.24937187  0.63576732  0.85810831  1
  O  O71  1  0.75710605  0.63717268  0.86251795  1
  O  O72  1  0.01419865  0.83536516  0.41110542  1
  O  O73  1  0.51003761  0.84351181  0.40916063  1
  O  O74  1  0.39570258  0.96916348  0.41195585  1
  O  O75  1  0.90764030  0.97782718  0.40665087  1
  O  O76  1  0.07949853  0.18963774  0.40711510  1
  O  O77  1  0.57620093  0.17906102  0.40906226  1
  O  O78  1  0.00910476  0.17720899  0.91028294  1
  O  O79  1  0.51422612  0.19181559  0.91108274  1
  O  O80  1  0.07561624  0.97285367  0.91021534  1
  O  O81  1  0.57934257  0.96988930  0.90869166  1
  O  O82  1  0.40855406  0.83853492  0.90837242  1
  O  O83  1  0.89619742  0.82129860  0.91312727  1
  O  O84  1  0.48697226  0.16396451  0.58661499  1
  O  O85  1  0.98525627  0.15849824  0.59307496  1
  O  O86  1  0.09162530  0.02400614  0.59053989  1
  O  O87  1  0.59341827  0.01921438  0.59262576  1
  O  O88  1  0.42001650  0.80785360  0.59345250  1
  O  O89  1  0.91378024  0.79979764  0.58793237  1
  O  O90  1  0.48560517  0.81236142  0.09274814  1
  O  O91  1  0.98669743  0.79889290  0.08825839  1
  O  O92  1  0.41190913  0.02367836  0.08757784  1
  O  O93  1  0.92012271  0.02838274  0.09260654  1
  O  O94  1  0.09247624  0.16388940  0.09233998  1
  O  O95  1  0.59262580  0.15925531  0.08976811  1
  O  O96  1  0.34021781  0.17570862  0.74467742  1
  O  O97  1  0.84838161  0.17096511  0.74846141  1
  O  O98  1  0.23235352  0.31192193  0.74416830  1
  O  O99  1  0.74568270  0.32621910  0.74296543  1
  O  O100  1  0.42111361  0.53634704  0.74767140  1
  O  O101  1  0.91389089  0.52046609  0.74395343  1
  O  O102  1  0.34821823  0.52573703  0.24829115  1
  O  O103  1  0.84319404  0.50558496  0.24266388  1
  O  O104  1  0.41354457  0.30674393  0.24317078  1
  O  O105  1  0.92245300  0.31005778  0.24308885  1
  O  O106  1  0.24485632  0.16388218  0.24190736  1
  O  O107  1  0.73358752  0.15630329  0.24289948  1
  O  O108  1  0.31934886  0.49533294  0.92139634  1
  O  O109  1  0.81845293  0.50753914  0.92395523  1
  O  O110  1  0.42596728  0.35594189  0.92582033  1
  O  O111  1  0.92851442  0.36913605  0.92545331  1
  O  O112  1  0.25176253  0.14085493  0.92646093  1
  O  O113  1  0.75103960  0.14478496  0.92257825  1
  O  O114  1  0.31551860  0.12487414  0.42013266  1
  O  O115  1  0.81944220  0.14218851  0.42163143  1
  O  O116  1  0.25228046  0.35299000  0.42170823  1
  O  O117  1  0.75253035  0.36138178  0.42503581  1
  O  O118  1  0.42616646  0.48915647  0.42141201  1
  O  O119  1  0.92571428  0.49438933  0.42484289  1
  O  O120  1  0.17644680  0.50709657  0.07595661  1
  O  O121  1  0.67982570  0.50529896  0.07427839  1
  O  O122  1  0.06760048  0.64649179  0.07751747  1
  O  O123  1  0.57017344  0.64381964  0.07741905  1
  O  O124  1  0.25413435  0.86367041  0.07666851  1
  O  O125  1  0.75048705  0.85721507  0.07562780  1
  O  O126  1  0.17928797  0.85382906  0.57376095  1
  O  O127  1  0.68137568  0.85345370  0.57515386  1
  O  O128  1  0.25033890  0.64541233  0.57517839  1
  O  O129  1  0.75632044  0.64597576  0.57698976  1
  O  O130  1  0.07018359  0.49619299  0.57764556  1
  O  O131  1  0.57764830  0.50591402  0.57535078  1
  O  O132  1  0.15432421  0.82762278  0.25830157  1
  O  O133  1  0.65103107  0.83838155  0.25275005  1
  O  O134  1  0.26160760  0.70447101  0.25724855  1
  O  O135  1  0.75867862  0.68200014  0.25552657  1
  O  O136  1  0.07951543  0.46288767  0.25454359  1
  O  O137  1  0.58680158  0.48406754  0.25519468  1
  O  O138  1  0.14924897  0.46317218  0.75415584  1
  O  O139  1  0.65473809  0.47894636  0.75970135  1
  O  O140  1  0.08672557  0.69049851  0.75593850  1
  O  O141  1  0.57900847  0.69401759  0.75664481  1
  O  O142  1  0.25901987  0.83287324  0.75705009  1
  O  O143  1  0.76205585  0.81888702  0.75862642  1
loop_
_geom_bond_atom_site_label_1
_geom_bond_atom_site_label_2
_geom_bond_distance
_geom_bond_site_symmetry_2
Na0 O104 2.280841 1_555
Na0 O106 2.331073 1_555
Na0 O134 2.405983 1_545
Na0 O132 2.577919 1_545
Na0 O32 2.690478 1_555
Na0 O62 2.801911 1_545
Na0 O4 2.812992 1_555
Na0 O18 2.889694 1_545
Na1 O137 2.429920 1_555
Na1 O107 2.430681 1_555
Na1 O135 2.431026 1_555
Na1 O103 2.454078 1_555
Na1 O35 2.499928 1_555
Na1 O65 2.785774 1_555
Na1 O21 2.793173 1_555
Na1 O1 2.871158 1_555
Na2 O102 2.279224 1_555
Na2 O104 2.405979 1_555
Na2 O133 2.485684 1_555
Na2 O137 2.488800 1_555
Na2 O30 2.541265 1_555
Na2 O61 2.688805 1_555
Na2 O2 2.877408 1_555
Na2 O23 2.985218 1_555
Na3 O101 2.292163 1_555
Na3 O99 2.325065 1_555
Na3 O143 2.397312 1_555
Na3 O139 2.568331 1_555
Na3 O29 2.651237 1_555
Na3 O71 2.840056 1_555
Na3 O9 2.847354 1_555
Na3 O13 2.857804 1_555
Na4 O97 2.279987 1_555
Na4 O101 2.407125 1_555
Na4 O138 2.453813 1_655
Na4 O25 2.490441 1_555
Na4 O140 2.501639 1_655
Na4 O66 2.736474 1_655
Na4 O11 2.896351 1_555
Na4 O14 2.929880 1_655
Na5 O96 2.370592 1_555
Na5 O26 2.395725 1_555
Na5 O98 2.404747 1_555
Na5 O140 2.476144 1_545
Na5 O142 2.477778 1_545
Na5 O16 2.787126 1_545
Na5 O68 2.898349 1_545
Na5 O6 2.916443 1_555
Na6 O86 2.561224 1_555
Na6 O76 2.572445 1_555
Na6 O72 2.597190 1_545
Na6 O85 2.604365 1_455
Na6 O75 2.626134 1_445
Na6 O89 2.665182 1_445
Na7 O73 2.420842 1_555
Na7 O77 2.446429 1_565
Na7 O74 2.622196 1_555
Na7 O84 2.644822 1_565
Na7 O87 2.664597 1_565
Na7 O88 2.751819 1_555
Na8 O78 2.340030 1_555
Na8 O80 2.384465 1_545
Na8 O83 2.570522 1_445
Na8 O94 2.685908 1_556
Na8 O93 2.761419 1_456
Na8 O91 2.807649 1_446
Na9 O81 2.509110 1_555
Na9 O82 2.558763 1_555
Na9 O79 2.566809 1_565
Na9 O95 2.578929 1_566
Na9 O90 2.629422 1_556
Na9 O92 2.691836 1_566
Na10 O96 2.405284 1_555
Na10 O100 2.503500 1_555
Na10 O110 2.608346 1_555
Na10 O108 2.632877 1_555
Na10 O98 2.660281 1_555
Na10 O112 2.732522 1_555
Na11 O97 2.334370 1_555
Na11 O99 2.421108 1_555
Na11 O101 2.484071 1_555
Na11 O113 2.658715 1_555
Na11 O111 2.750551 1_555
Na11 O109 2.829680 1_555
Na12 O102 2.409862 1_555
Na12 O116 2.511054 1_555
Na12 O106 2.541828 1_555
Na12 O118 2.567214 1_555
Na12 O104 2.594347 1_555
Na12 O114 2.709973 1_555
Na13 O119 2.505022 1_555
Na13 O103 2.524153 1_555
Na13 O115 2.561832 1_555
Na13 O117 2.608043 1_555
Na13 O105 2.663353 1_555
Na13 O107 2.734046 1_555
Na14 O120 2.494912 1_555
Na14 O134 2.550554 1_555
Na14 O136 2.594330 1_555
Na14 O132 2.652911 1_555
Na14 O122 2.655925 1_555
Na14 O124 2.661944 1_555
Na15 O135 2.544369 1_555
Na15 O125 2.549295 1_555
Na15 O121 2.563245 1_555
Na15 O137 2.597435 1_555
Na15 O123 2.608066 1_555
Na15 O133 2.628678 1_555
Na16 O128 2.504407 1_555
Na16 O126 2.554829 1_555
Na16 O142 2.583482 1_555
Na16 O130 2.592147 1_555
Na16 O140 2.657313 1_555
Na16 O138 2.674431 1_555
Na17 O131 2.442120 1_555
Na17 O127 2.464585 1_555
Na17 O129 2.643195 1_555
Na17 O141 2.668588 1_555
Na17 O143 2.727970 1_555
Na17 O139 2.765411 1_555
Ga0 O2 1.888193 1_555
Ga0 O4 1.916238 1_565
Ga0 O77 1.936173 1_565
Ga0 O73 1.943591 1_555
Ga0 O74 2.112779 1_555
Ga0 O1 2.211909 1_565
Ga1 O11 1.879452 1_565
Ga1 O9 1.903322 1_555
Ga1 O80 1.962592 1_655
Ga1 O78 1.975205 1_665
Ga1 O6 2.149281 1_665
Ga1 O83 2.165220 1_555
Ga2 O24 1.834597 1_555
Ga2 O26 1.878263 1_555
Ga2 O28 1.895375 1_555
Ga2 O96 2.059709 1_555
Ga2 O98 2.404602 1_555
Ga2 O100 2.405432 1_555
Ga3 O27 1.846883 1_555
Ga3 O97 1.912004 1_555
Ga3 O25 1.934025 1_555
Ga3 O99 1.990837 1_555
Ga3 O101 2.087911 1_555
Ga3 O29 2.341539 1_555
Ga4 O34 1.871141 1_555
Ga4 O102 1.896474 1_555
Ga4 O30 1.938402 1_555
Ga4 O106 1.980432 1_555
Ga4 O104 2.077364 1_555
Ga4 O32 2.360873 1_555
Ga5 O35 1.853470 1_555
Ga5 O33 1.857913 1_555
Ga5 O103 1.965152 1_555
Ga5 O31 2.069939 1_555
Ga5 O107 2.197226 1_555
Ga5 O105 2.299039 1_555
O0 Si0 1.637902 1_555
O0 Ta0 1.933021 1_545
O1 S0 1.465747 1_555
O2 Si1 1.604894 1_555
O3 Si2 1.639635 1_555
O3 Ta0 1.955203 1_655
O4 Si3 1.607049 1_555
O5 S1 1.462972 1_555
O5 Ta0 2.264904 1_645
O6 S2 1.468968 1_555
O7 Si4 1.652131 1_555
O7 Ta1 1.910396 1_555
O8 S3 1.483847 1_555
O8 Ta1 2.186250 1_565
O9 Si5 1.607140 1_555
O10 Si6 1.659497 1_555
O10 Ta1 1.921638 1_555
O11 Si7 1.607487 1_555
O12 Si6 1.625746 1_565
O12 Ta3 1.969617 1_565
O13 Si7 1.671850 1_565
O13 Ta2 1.949742 1_555
O14 S2 1.515075 1_555
O14 Ta2 2.149231 1_445
O15 Si4 1.621807 1_555
O15 Ta3 1.951601 1_555
O16 Si5 1.669634 1_455
O16 Ta2 1.940516 1_455
O17 S3 1.458595 1_555
O17 Ta3 2.300549 1_565
O18 Si1 1.681765 1_555
O18 Ta5 1.937379 1_565
O19 Si2 1.645430 1_555
O19 Ta4 1.940161 1_555
O20 S1 1.498781 1_455
O20 Ta4 2.109198 1_445
O21 Si3 1.680588 1_555
O21 Ta5 1.931480 1_555
O22 Si0 1.644897 1_565
O22 Ta4 1.922249 1_455
O23 S0 1.512886 1_565
O23 Ta5 2.137918 1_565
O24 Si8 1.603839 1_555
O25 Si9 1.603761 1_555
O26 Si10 1.622553 1_555
O27 Si11 1.589921 1_555
O28 Si12 1.605946 1_555
O29 S4 1.458531 1_555
O30 Si13 1.603828 1_555
O31 S5 1.467450 1_555
O32 S6 1.460929 1_555
O33 Si14 1.607706 1_555
O34 Si15 1.589539 1_555
O35 Si16 1.619022 1_555
O36 Si15 1.648877 1_555
O36 Ta6 1.935235 1_554
O37 Si16 1.647972 1_555
O37 Ta7 1.933085 1_554
O38 Si13 1.637479 1_555
O38 Ta6 1.949625 1_554
O39 S5 1.468580 1_555
O39 Ta7 2.242652 1_554
O40 S6 1.458758 1_555
O40 Ta6 2.247748 1_554
O41 Si14 1.669884 1_555
O41 Ta7 1.874437 1_554
O42 Si10 1.637430 1_555
O42 Ta8 1.958281 1_555
O43 Si11 1.661829 1_555
O43 Ta9 1.909017 1_555
O44 Si12 1.666669 1_555
O44 Ta8 1.865990 1_555
O45 S4 1.471449 1_555
O45 Ta9 2.237036 1_555
O46 Si8 1.637687 1_555
O46 Ta8 1.939735 1_555
O47 Si9 1.638454 1_555
O47 Ta9 1.948399 1_555
O48 Si17 1.647444 1_555
O48 Ta10 1.884421 1_556
O49 S7 1.464243 1_555
O49 Ta11 2.220851 1_556
O50 Si18 1.678775 1_555
O50 Ta10 1.862149 1_556
O51 Si19 1.615603 1_555
O51 Ta11 1.940145 1_556
O52 Si20 1.654952 1_555
O52 Ta10 1.932728 1_556
O53 Si21 1.616581 1_555
O53 Ta11 1.951087 1_556
O54 S8 1.458651 1_555
O54 Ta12 2.236716 1_555
O55 Si22 1.614606 1_555
O55 Ta13 1.974061 1_555
O56 Si23 1.625907 1_555
O56 Ta12 1.951913 1_555
O57 Si24 1.628744 1_555
O57 Ta13 1.952670 1_555
O58 Si25 1.607500 1_555
O58 Ta12 1.953954 1_555
O59 Si26 1.666203 1_555
O59 Ta13 1.871739 1_555
O60 Si25 1.649792 1_555
O60 Ta14 1.915556 1_555
O61 Si26 1.671799 1_555
O61 Ta15 1.945294 1_555
O62 S8 1.533897 1_555
O62 Ta14 2.070029 1_555
O63 Si22 1.643475 1_555
O63 Ta15 1.908184 1_555
O64 Si23 1.659452 1_555
O64 Ta14 1.897023 1_555
O65 Si24 1.692240 1_555
O65 Ta15 1.869077 1_555
O66 Si18 1.648202 1_555
O66 Ta16 1.973590 1_555
O67 Si19 1.639864 1_555
O67 Ta17 1.926940 1_555
O68 Si20 1.676939 1_555
O68 Ta16 1.880020 1_555
O69 Si21 1.631716 1_555
O69 Ta17 1.926054 1_555
O70 Si17 1.623447 1_555
O70 Ta16 1.929828 1_555
O71 S7 1.508439 1_555
O71 Ta17 2.188917 1_555
O72 Si25 1.649345 1_555
O72 Ta0 1.897846 1_555
O73 Si26 1.600761 1_555
O74 S8 1.473314 1_555
O75 Si22 1.619650 1_555
O75 Ta0 1.981327 1_655
O76 Si23 1.632734 1_555
O76 Ta0 1.978688 1_545
O77 Si24 1.600052 1_555
O78 Si18 1.595140 1_555
O79 Si19 1.643478 1_555
O79 Ta1 1.915759 1_555
O80 Si20 1.597609 1_555
O81 Si21 1.616223 1_555
O81 Ta1 2.014437 1_565
O82 Si17 1.603765 1_555
O82 Ta1 2.019364 1_565
O83 S7 1.468098 1_555
O84 Si8 1.656267 1_555
O84 Ta3 1.891901 1_555
O85 Si9 1.657695 1_555
O85 Ta2 1.968760 1_545
O86 Si10 1.662654 1_555
O86 Ta2 1.960810 1_445
O87 Si11 1.645416 1_555
O87 Ta3 1.964599 1_555
O88 Si12 1.633750 1_555
O88 Ta3 1.951566 1_565
O89 S4 1.539187 1_555
O89 Ta2 2.047373 1_555
O90 Si13 1.658209 1_555
O90 Ta5 1.969783 1_565
O91 S5 1.508212 1_555
O91 Ta4 2.089851 1_555
O92 S6 1.532636 1_555
O92 Ta5 2.068633 1_555
O93 Si14 1.644600 1_555
O93 Ta4 1.958324 1_545
O94 Si15 1.659916 1_555
O94 Ta4 1.961742 1_445
O95 Si16 1.654629 1_555
O95 Ta5 1.985435 1_555
O96 Si6 1.636533 1_555
O97 Si7 1.612438 1_555
O98 S2 1.455822 1_555
O99 Si4 1.611318 1_555
O100 S3 1.457770 1_555
O101 Si5 1.615718 1_555
O102 Si1 1.610820 1_555
O103 Si2 1.647850 1_555
O104 Si3 1.615494 1_555
O105 S1 1.460656 1_555
O106 Si0 1.611296 1_555
O107 S0 1.474986 1_555
O108 Si17 1.629629 1_555
O108 Ta6 1.916269 1_555
O109 S7 1.500435 1_555
O109 Ta7 2.186029 1_555
O110 Si19 1.620869 1_555
O110 Ta6 2.004456 1_555
O111 Si18 1.653535 1_655
O111 Ta7 1.961366 1_555
O112 Si20 1.635151 1_545
O112 Ta6 1.964605 1_555
O113 Si21 1.661012 1_545
O113 Ta7 1.899229 1_555
O114 S8 1.476056 1_545
O114 Ta8 2.278949 1_555
O115 Si22 1.640115 1_545
O115 Ta9 1.918066 1_555
O116 Si23 1.624582 1_555
O116 Ta8 2.010950 1_555
O117 Si24 1.637106 1_555
O117 Ta9 1.976449 1_555
O118 Si26 1.636981 1_555
O118 Ta8 2.004978 1_555
O119 Si25 1.615860 1_655
O119 Ta9 2.027577 1_555
O120 Si15 1.677866 1_555
O120 Ta10 1.978234 1_555
O121 Si16 1.632866 1_555
O121 Ta11 1.955841 1_555
O122 S5 1.495688 1_455
O122 Ta10 2.228916 1_555
O123 Si13 1.665883 1_555
O123 Ta11 1.898262 1_555
O124 S6 1.499983 1_565
O124 Ta10 2.217045 1_555
O125 Si14 1.631532 1_565
O125 Ta11 1.990745 1_555
O126 Si10 1.640616 1_565
O126 Ta12 1.956141 1_555
O127 Si11 1.653701 1_565
O127 Ta13 1.976428 1_555
O128 Si12 1.646109 1_555
O128 Ta12 1.967093 1_555
O129 S4 1.481538 1_555
O129 Ta13 2.267019 1_555
O130 Si9 1.664946 1_455
O130 Ta12 1.898412 1_555
O131 Si8 1.641383 1_555
O131 Ta13 1.967198 1_555
O132 Si0 1.664815 1_565
O132 Ta14 2.002123 1_555
O133 S0 1.499103 1_565
O133 Ta15 2.286856 1_555
O134 Si1 1.662577 1_555
O134 Ta14 2.008549 1_555
O135 Si2 1.664034 1_555
O135 Ta15 2.033866 1_555
O136 S1 1.523397 1_455
O136 Ta14 2.107835 1_555
O137 Si3 1.671081 1_555
O137 Ta15 2.039833 1_555
O138 S2 1.510459 1_555
O138 Ta16 2.237564 1_555
O139 Si4 1.673288 1_555
O139 Ta17 1.961236 1_555
O140 Si5 1.674842 1_455
O140 Ta16 2.010618 1_555
O141 S3 1.553964 1_555
O141 Ta17 2.009346 1_555
O142 Si6 1.679260 1_565
O142 Ta16 1.986544 1_555
O143 Si7 1.665834 1_565
O143 Ta17 1.986805 1_555
