# generated using pymatgen
data_Ag2PbO2
_symmetry_space_group_name_H-M   'P 1'
_cell_length_a   6.19365430
_cell_length_b   6.19365430
_cell_length_c   6.08605759
_cell_angle_alpha   62.70234065
_cell_angle_beta   62.70234065
_cell_angle_gamma   91.25926155
_symmetry_Int_Tables_number   1
_chemical_formula_structural   Ag2PbO2
_chemical_formula_sum   'Ag4 Pb2 O4'
_cell_volume   176.20682526
_cell_formula_units_Z   2
loop_
 _symmetry_equiv_pos_site_id
 _symmetry_equiv_pos_as_xyz
  1  'x, y, z'
loop_
 _atom_site_type_symbol
 _atom_site_label
 _atom_site_symmetry_multiplicity
 _atom_site_fract_x
 _atom_site_fract_y
 _atom_site_fract_z
 _atom_site_occupancy
  Ag  Ag0  1  0.50000000  0.50000000  0.00000000  1
  Ag  Ag1  1  0.50000000  0.00000000  0.00000000  1
  Ag  Ag2  1  0.50000000  0.50000000  0.50000000  1
  Ag  Ag3  1  -0.00000000  0.50000000  0.50000000  1
  Pb  Pb0  1  0.87984728  0.12015272  0.25000000  1
  Pb  Pb1  1  0.12015272  0.87984728  0.75000000  1
  O  O0  1  0.86308623  0.75309902  0.26058390  1
  O  O1  1  0.13691377  0.24690098  0.73941610  1
  O  O2  1  0.24690098  0.13691377  0.23941610  1
  O  O3  1  0.75309902  0.86308623  0.76058390  1
loop_
_geom_bond_atom_site_label_1
_geom_bond_atom_site_label_2
_geom_bond_distance
_geom_bond_site_symmetry_2
Ag0 O2 2.093369 1_555
Ag0 O3 2.093369 1_554
Ag1 O2 2.096737 1_555
Ag1 O3 2.096737 1_544
Ag2 O1 2.093369 1_555
Ag2 O0 2.093369 1_555
Ag3 O1 2.096737 1_555
Ag3 O0 2.096737 1_455
O0 Pb0 2.243316 1_565
O0 Pb1 2.444785 1_654
O1 Pb1 2.243316 1_545
O1 Pb0 2.444785 1_456
O2 Pb0 2.243316 1_455
O2 Pb1 2.444785 1_545
O3 Pb1 2.243316 1_655
O3 Pb0 2.444785 1_565
