# generated using pymatgen
data_LiMoP2O7
_symmetry_space_group_name_H-M   'P 1'
_cell_length_a   8.45697700
_cell_length_b   6.90009500
_cell_length_c   9.51776094
_cell_angle_alpha   73.69096587
_cell_angle_beta   90.00000000
_cell_angle_gamma   90.00000000
_symmetry_Int_Tables_number   1
_chemical_formula_structural   LiMoP2O7
_chemical_formula_sum   'Li4 Mo4 P8 O28'
_cell_volume   533.05021367
_cell_formula_units_Z   4
loop_
 _symmetry_equiv_pos_site_id
 _symmetry_equiv_pos_as_xyz
  1  'x, y, z'
loop_
 _atom_site_type_symbol
 _atom_site_label
 _atom_site_symmetry_multiplicity
 _atom_site_fract_x
 _atom_site_fract_y
 _atom_site_fract_z
 _atom_site_occupancy
  Li  Li0  1  0.89848600  0.76921000  0.56596200  1
  Li  Li1  1  0.60151400  0.76921000  0.06596200  1
  Li  Li2  1  0.39848600  0.23079000  0.93403800  1
  Li  Li3  1  0.10151400  0.23079000  0.43403800  1
  Mo  Mo0  1  0.22371600  0.71767700  0.99342100  1
  Mo  Mo1  1  0.27628400  0.71767700  0.49342100  1
  Mo  Mo2  1  0.72371600  0.28232300  0.50657900  1
  Mo  Mo3  1  0.77628400  0.28232300  0.00657900  1
  P  P0  1  0.53654000  0.05155100  0.28695900  1
  P  P1  1  0.96346000  0.05155100  0.78695900  1
  P  P2  1  0.41383900  0.45141900  0.29539700  1
  P  P3  1  0.91383900  0.54858100  0.20460300  1
  P  P4  1  0.46346000  0.94844900  0.71304100  1
  P  P5  1  0.03654000  0.94844900  0.21304100  1
  P  P6  1  0.58616100  0.54858100  0.70460300  1
  P  P7  1  0.08616100  0.45141900  0.79539700  1
  O  O0  1  0.58818900  0.08205500  0.12536600  1
  O  O1  1  0.94871800  0.14656200  0.15987500  1
  O  O2  1  0.67373000  0.07401800  0.38618200  1
  O  O3  1  0.40051900  0.22161200  0.28424100  1
  O  O4  1  0.41181100  0.91794500  0.87463400  1
  O  O5  1  0.05128200  0.85343800  0.84012500  1
  O  O6  1  0.32627000  0.92598200  0.61381800  1
  O  O7  1  0.59948100  0.77838800  0.71575900  1
  O  O8  1  0.08818900  0.91794500  0.37463400  1
  O  O9  1  0.44871800  0.85343800  0.34012500  1
  O  O10  1  0.17373000  0.92598200  0.11381800  1
  O  O11  1  0.90051900  0.77838800  0.21575900  1
  O  O12  1  0.08762900  0.59042500  0.63721000  1
  O  O13  1  0.23245100  0.47300400  0.88682000  1
  O  O14  1  0.92853100  0.47365800  0.86515800  1
  O  O15  1  0.42853100  0.52634200  0.63484200  1
  O  O16  1  0.73245100  0.52699600  0.61318000  1
  O  O17  1  0.58762900  0.40957500  0.86279000  1
  O  O18  1  0.41237100  0.59042500  0.13721000  1
  O  O19  1  0.26754900  0.47300400  0.38682000  1
  O  O20  1  0.57146900  0.47365800  0.36515800  1
  O  O21  1  0.07146900  0.52634200  0.13484200  1
  O  O22  1  0.76754900  0.52699600  0.11318000  1
  O  O23  1  0.91237100  0.40957500  0.36279000  1
  O  O24  1  0.09948100  0.22161200  0.78424100  1
  O  O25  1  0.82627000  0.07401800  0.88618200  1
  O  O26  1  0.55128200  0.14656200  0.65987500  1
  O  O27  1  0.91181100  0.08205500  0.62536600  1
loop_
_geom_bond_atom_site_label_1
_geom_bond_atom_site_label_2
_geom_bond_distance
_geom_bond_site_symmetry_2
Li0 O12 2.017551 1_655
Li0 O16 2.131904 1_555
Li0 O27 2.382783 1_565
Li0 O8 2.427663 1_655
Li1 O18 2.017551 1_555
Li1 O22 2.131904 1_555
Li1 O0 2.382783 1_565
Li1 O4 2.427663 1_554
Li2 O17 2.017551 1_555
Li2 O13 2.131904 1_555
Li2 O4 2.382783 1_545
Li2 O0 2.427663 1_556
Li3 O23 2.017551 1_455
Li3 O19 2.131904 1_555
Li3 O8 2.382783 1_545
Li3 O27 2.427663 1_455
Mo0 O21 2.052921 1_556
Mo0 O5 2.089314 1_555
Mo0 O10 2.117251 1_556
Mo0 O18 2.124728 1_556
Mo0 O4 2.200160 1_555
Mo0 O13 2.201626 1_555
Mo1 O15 2.052921 1_555
Mo1 O9 2.089314 1_555
Mo1 O6 2.117251 1_555
Mo1 O12 2.124728 1_555
Mo1 O8 2.200160 1_555
Mo1 O19 2.201626 1_555
Mo2 O20 2.052921 1_555
Mo2 O26 2.089314 1_555
Mo2 O2 2.117251 1_555
Mo2 O23 2.124728 1_555
Mo2 O27 2.200160 1_555
Mo2 O16 2.201626 1_555
Mo3 O14 2.052921 1_554
Mo3 O1 2.089314 1_555
Mo3 O25 2.117251 1_554
Mo3 O17 2.124728 1_554
Mo3 O0 2.200160 1_555
Mo3 O22 2.201626 1_555
O0 P0 1.555228 1_555
O1 P5 1.512567 1_645
O2 P0 1.531080 1_555
O3 P2 1.622633 1_555
O3 P0 1.638239 1_555
O4 P4 1.555228 1_555
O5 P1 1.512567 1_465
O6 P4 1.531080 1_555
O7 P6 1.622633 1_555
O7 P4 1.638239 1_555
O8 P5 1.555228 1_555
O9 P0 1.512567 1_565
O10 P5 1.531080 1_555
O11 P3 1.622633 1_555
O11 P5 1.638239 1_655
O12 P7 1.541385 1_555
O13 P7 1.543603 1_555
O14 P7 1.516149 1_655
O15 P6 1.516149 1_555
O16 P6 1.543603 1_555
O17 P6 1.541385 1_555
O18 P2 1.541385 1_555
O19 P2 1.543603 1_555
O20 P2 1.516149 1_555
O21 P3 1.516149 1_455
O22 P3 1.543603 1_555
O23 P3 1.541385 1_555
O24 P7 1.622633 1_555
O24 P1 1.638239 1_455
O25 P1 1.531080 1_555
O26 P4 1.512567 1_545
O27 P1 1.555228 1_555
