# generated using pymatgen
data_Na3AlZnP2SO12
_symmetry_space_group_name_H-M   'P 1'
_cell_length_a   8.80986949
_cell_length_b   8.78365247
_cell_length_c   21.72660490
_cell_angle_alpha   90.51524545
_cell_angle_beta   90.00000000
_cell_angle_gamma   120.09878398
_symmetry_Int_Tables_number   1
_chemical_formula_structural   Na3AlZnP2SO12
_chemical_formula_sum   'Na18 Al6 Zn6 P12 S6 O72'
_cell_volume   1454.48917207
_cell_formula_units_Z   6
loop_
 _symmetry_equiv_pos_site_id
 _symmetry_equiv_pos_as_xyz
  1  'x, y, z'
loop_
 _atom_site_type_symbol
 _atom_site_label
 _atom_site_symmetry_multiplicity
 _atom_site_fract_x
 _atom_site_fract_y
 _atom_site_fract_z
 _atom_site_occupancy
  Na  Na0  1  0.36207587  0.35643119  0.24710290  1
  Na  Na1  1  0.99418262  0.63019823  0.24584602  1
  Na  Na2  1  0.63601561  0.63019823  0.74584602  1
  Na  Na3  1  0.99435531  0.35643119  0.74710290  1
  Na  Na4  1  0.02874287  0.68976419  0.58043590  1
  Na  Na5  1  0.66084962  0.96353123  0.57917902  1
  Na  Na6  1  0.30268261  0.96353123  0.07917902  1
  Na  Na7  1  0.66102231  0.68976419  0.08043590  1
  Na  Na8  1  0.69540887  0.02309819  0.91376990  1
  Na  Na9  1  0.32751562  0.29686523  0.91251302  1
  Na  Na10  1  0.96934861  0.29686523  0.41251302  1
  Na  Na11  1  0.32768831  0.02309819  0.41376990  1
  Na  Na12  1  0.98564221  0.98843457  0.49675341  1
  Na  Na13  1  0.00279235  0.98843457  0.99675341  1
  Na  Na14  1  0.65230921  0.32176757  0.83008641  1
  Na  Na15  1  0.66945935  0.32176757  0.33008641  1
  Na  Na16  1  0.31897521  0.65510157  0.16342041  1
  Na  Na17  1  0.33612535  0.65510157  0.66342041  1
  Al  Al0  1  0.99338454  0.01203176  0.64879280  1
  Al  Al1  1  0.01864722  0.01203176  0.14879280  1
  Al  Al2  1  0.66005154  0.34536476  0.98212580  1
  Al  Al3  1  0.68531422  0.34536476  0.48212580  1
  Al  Al4  1  0.32671754  0.67869876  0.31545980  1
  Al  Al5  1  0.35198022  0.67869876  0.81545980  1
  Zn  Zn0  1  0.99179130  0.99572847  0.34901323  1
  Zn  Zn1  1  0.00393717  0.99572847  0.84901323  1
  Zn  Zn2  1  0.65845830  0.32906147  0.68234623  1
  Zn  Zn3  1  0.67060417  0.32906147  0.18234623  1
  Zn  Zn4  1  0.32512430  0.66239547  0.01568023  1
  Zn  Zn5  1  0.33727017  0.66239547  0.51568023  1
  P  P0  1  0.29428630  0.99671343  0.25113721  1
  P  P1  1  0.00534364  0.29468908  0.25203041  1
  P  P2  1  0.28934544  0.29468908  0.75203041  1
  P  P3  1  0.70242713  0.99671343  0.75113721  1
  P  P4  1  0.96095330  0.33004643  0.58447021  1
  P  P5  1  0.67201064  0.62802208  0.58536341  1
  P  P6  1  0.95601244  0.62802208  0.08536341  1
  P  P7  1  0.36909413  0.33004643  0.08447021  1
  P  P8  1  0.62761930  0.66338043  0.91780421  1
  P  P9  1  0.33867664  0.96135608  0.91869741  1
  P  P10  1  0.62267844  0.96135608  0.41869741  1
  P  P11  1  0.03576013  0.66338043  0.41780421  1
  S  S0  1  0.70134398  0.71316982  0.24909086  1
  S  S1  1  0.01182584  0.71316982  0.74909086  1
  S  S2  1  0.36801098  0.04650282  0.58242386  1
  S  S3  1  0.67849284  0.04650282  0.08242386  1
  S  S4  1  0.03467698  0.37983682  0.91575786  1
  S  S5  1  0.34515884  0.37983682  0.41575786  1
  O  O0  1  0.21656970  0.02959097  0.30933026  1
  O  O1  1  0.81132075  0.78787579  0.30364902  1
  O  O2  1  0.97953177  0.19598003  0.31198324  1
  O  O3  1  0.21644826  0.19598003  0.81198324  1
  O  O4  1  0.97655503  0.78787579  0.80364902  1
  O  O5  1  0.81302127  0.02959097  0.80933026  1
  O  O6  1  0.79038886  0.96131726  0.69377603  1
  O  O7  1  0.16294557  0.19801711  0.69673979  1
  O  O8  1  0.03329715  0.81851979  0.69276521  1
  O  O9  1  0.78522264  0.81851979  0.19276521  1
  O  O10  1  0.03507154  0.19801711  0.19673979  1
  O  O11  1  0.17092839  0.96131726  0.19377603  1
  O  O12  1  0.88323670  0.36292397  0.64266326  1
  O  O13  1  0.47798775  0.12120879  0.63698202  1
  O  O14  1  0.64619877  0.52931303  0.64531624  1
  O  O15  1  0.88311526  0.52931303  0.14531624  1
  O  O16  1  0.64322203  0.12120879  0.13698202  1
  O  O17  1  0.47968827  0.36292397  0.14266326  1
  O  O18  1  0.45705586  0.29465026  0.02710903  1
  O  O19  1  0.82961257  0.53135011  0.03007279  1
  O  O20  1  0.69996415  0.15185279  0.02609821  1
  O  O21  1  0.45188964  0.15185279  0.52609821  1
  O  O22  1  0.70173854  0.53135011  0.53007279  1
  O  O23  1  0.83759539  0.29465026  0.52710903  1
  O  O24  1  0.54990270  0.69625797  0.97599726  1
  O  O25  1  0.14465375  0.45454279  0.97031602  1
  O  O26  1  0.31286477  0.86264703  0.97865024  1
  O  O27  1  0.54978126  0.86264703  0.47865024  1
  O  O28  1  0.30988803  0.45454279  0.47031602  1
  O  O29  1  0.14635427  0.69625797  0.47599726  1
  O  O30  1  0.12372186  0.62798426  0.36044303  1
  O  O31  1  0.49627857  0.86468411  0.36340679  1
  O  O32  1  0.36663015  0.48518679  0.35943221  1
  O  O33  1  0.11855564  0.48518679  0.85943221  1
  O  O34  1  0.36840454  0.86468411  0.86340679  1
  O  O35  1  0.50426139  0.62798426  0.86044303  1
  O  O36  1  0.01768402  0.82699631  0.41037612  1
  O  O37  1  0.81103737  0.99605947  0.41211490  1
  O  O38  1  0.18917397  0.19842264  0.41106000  1
  O  O39  1  0.00924866  0.19842264  0.91106000  1
  O  O40  1  0.18502210  0.99605947  0.91211490  1
  O  O41  1  0.80931229  0.82699631  0.91037612  1
  O  O42  1  0.96880766  0.15599878  0.58998985  1
  O  O43  1  0.19061440  0.02844455  0.58854495  1
  O  O44  1  0.84845591  0.81538075  0.58990380  1
  O  O45  1  0.96692484  0.81538075  0.08990380  1
  O  O46  1  0.83783015  0.02844455  0.08854495  1
  O  O47  1  0.18719111  0.15599878  0.08998985  1
  O  O48  1  0.68435102  0.16032931  0.74370912  1
  O  O49  1  0.47770437  0.32939247  0.74544790  1
  O  O50  1  0.85584097  0.53175564  0.74439300  1
  O  O51  1  0.67591566  0.53175564  0.24439300  1
  O  O52  1  0.85168910  0.32939247  0.24544790  1
  O  O53  1  0.47597929  0.16032931  0.24370912  1
  O  O54  1  0.63547466  0.48933178  0.92332285  1
  O  O55  1  0.85728140  0.36177755  0.92187795  1
  O  O56  1  0.51512291  0.14871375  0.92323680  1
  O  O57  1  0.63359184  0.14871375  0.42323680  1
  O  O58  1  0.50449715  0.36177755  0.42187795  1
  O  O59  1  0.85385811  0.48933178  0.42332285  1
  O  O60  1  0.35101702  0.49366331  0.07704312  1
  O  O61  1  0.14437037  0.66272647  0.07878190  1
  O  O62  1  0.52250697  0.86508964  0.07772700  1
  O  O63  1  0.34258166  0.86508964  0.57772700  1
  O  O64  1  0.51835510  0.66272647  0.57878190  1
  O  O65  1  0.14264529  0.49366331  0.57704312  1
  O  O66  1  0.30214066  0.82266578  0.25665685  1
  O  O67  1  0.52394740  0.69511155  0.25521195  1
  O  O68  1  0.18178891  0.48204775  0.25657080  1
  O  O69  1  0.30025784  0.48204775  0.75657080  1
  O  O70  1  0.17116315  0.69511155  0.75521195  1
  O  O71  1  0.52052411  0.82266578  0.75665685  1
loop_
_geom_bond_atom_site_label_1
_geom_bond_atom_site_label_2
_geom_bond_distance
_geom_bond_site_symmetry_2
Na0 O68 2.352891 1_555
Na0 O53 2.389712 1_555
Na0 O51 2.398054 1_555
Na0 O17 2.483711 1_555
Na0 O67 2.578763 1_555
Na0 O32 2.672396 1_555
Na0 O10 2.717518 1_555
Na0 O0 2.844575 1_555
Na1 O52 2.286896 1_555
Na1 O15 2.368293 1_555
Na1 O66 2.380437 1_655
Na1 O51 2.485612 1_555
Na1 O68 2.577215 1_655
Na1 O30 2.743178 1_655
Na1 O11 2.771342 1_655
Na1 O1 2.880492 1_555
Na2 O49 2.286896 1_555
Na2 O14 2.368295 1_555
Na2 O71 2.380444 1_555
Na2 O50 2.485621 1_555
Na2 O69 2.577223 1_555
Na2 O35 2.743181 1_555
Na2 O6 2.771342 1_555
Na2 O4 2.880492 1_555
Na3 O69 2.352883 1_655
Na3 O48 2.389705 1_555
Na3 O50 2.398046 1_555
Na3 O12 2.483707 1_555
Na3 O70 2.578763 1_655
Na3 O33 2.672394 1_655
Na3 O7 2.717518 1_655
Na3 O5 2.844575 1_555
Na4 O44 2.352891 1_455
Na4 O65 2.389696 1_555
Na4 O63 2.398046 1_555
Na4 O29 2.483686 1_555
Na4 O43 2.578763 1_565
Na4 O8 2.672396 1_555
Na4 O22 2.717518 1_455
Na4 O12 2.844575 1_455
Na5 O64 2.286888 1_555
Na5 O27 2.368273 1_555
Na5 O42 2.380437 1_565
Na5 O63 2.485622 1_555
Na5 O44 2.577215 1_555
Na5 O6 2.743178 1_555
Na5 O23 2.771342 1_565
Na5 O13 2.880492 1_565
Na6 O61 2.286889 1_555
Na6 O26 2.368269 1_554
Na6 O47 2.380444 1_565
Na6 O62 2.485605 1_555
Na6 O45 2.577223 1_455
Na6 O11 2.743181 1_555
Na6 O18 2.771342 1_565
Na6 O16 2.880492 1_565
Na7 O45 2.352883 1_555
Na7 O60 2.389710 1_555
Na7 O62 2.398061 1_555
Na7 O24 2.483693 1_554
Na7 O46 2.578763 1_565
Na7 O9 2.672394 1_555
Na7 O19 2.717518 1_555
Na7 O17 2.844575 1_555
Na8 O56 2.352874 1_555
Na8 O41 2.389712 1_545
Na8 O39 2.398054 1_655
Na8 O5 2.483711 1_555
Na8 O55 2.578754 1_555
Na8 O20 2.672371 1_556
Na8 O34 2.717518 1_545
Na8 O24 2.844575 1_545
Na9 O40 2.286896 1_545
Na9 O3 2.368293 1_555
Na9 O54 2.380440 1_555
Na9 O39 2.485612 1_555
Na9 O56 2.577228 1_555
Na9 O18 2.743164 1_556
Na9 O35 2.771342 1_555
Na9 O25 2.880492 1_555
Na10 O37 2.286896 1_545
Na10 O2 2.368295 1_555
Na10 O59 2.380427 1_555
Na10 O38 2.485621 1_655
Na10 O57 2.577212 1_555
Na10 O23 2.743156 1_555
Na10 O30 2.771342 1_655
Na10 O28 2.880492 1_655
Na11 O57 2.352890 1_555
Na11 O36 2.389705 1_545
Na11 O38 2.398046 1_555
Na11 O0 2.483707 1_555
Na11 O58 2.578754 1_555
Na11 O21 2.672375 1_555
Na11 O31 2.717518 1_545
Na11 O29 2.844575 1_545
Na12 O37 2.420292 1_555
Na12 O36 2.442544 1_655
Na12 O44 2.465745 1_555
Na12 O42 2.541080 1_565
Na12 O43 2.590856 1_665
Na12 O38 2.613085 1_665
Na13 O40 2.420292 1_555
Na13 O41 2.442544 1_455
Na13 O45 2.465745 1_456
Na13 O47 2.541080 1_566
Na13 O46 2.590856 1_466
Na13 O39 2.613085 1_565
Na14 O49 2.420292 1_555
Na14 O48 2.442544 1_555
Na14 O56 2.465745 1_555
Na14 O54 2.541080 1_555
Na14 O55 2.590856 1_555
Na14 O50 2.613085 1_555
Na15 O52 2.420292 1_555
Na15 O53 2.442544 1_555
Na15 O57 2.465745 1_555
Na15 O59 2.541080 1_555
Na15 O58 2.590856 1_555
Na15 O51 2.613085 1_555
Na16 O61 2.420292 1_555
Na16 O60 2.442544 1_555
Na16 O68 2.465745 1_555
Na16 O66 2.541080 1_555
Na16 O67 2.590856 1_555
Na16 O62 2.613085 1_555
Na17 O64 2.420292 1_555
Na17 O65 2.442544 1_555
Na17 O69 2.465745 1_555
Na17 O71 2.541080 1_555
Na17 O70 2.590856 1_555
Na17 O63 2.613085 1_555
Al0 O7 1.872748 1_655
Al0 O6 1.886975 1_545
Al0 O42 1.892588 1_555
Al0 O44 1.999770 1_545
Al0 O43 2.122619 1_655
Al0 O8 2.134047 1_645
Al1 O10 1.872748 1_555
Al1 O11 1.886975 1_545
Al1 O47 1.892588 1_555
Al1 O45 1.999770 1_445
Al1 O46 2.122619 1_455
Al1 O9 2.134047 1_445
Al2 O19 1.872748 1_556
Al2 O18 1.886975 1_556
Al2 O54 1.892588 1_555
Al2 O56 1.999770 1_555
Al2 O55 2.122619 1_555
Al2 O20 2.134047 1_556
Al3 O22 1.872748 1_555
Al3 O23 1.886975 1_555
Al3 O59 1.892588 1_555
Al3 O57 1.999770 1_555
Al3 O58 2.122619 1_555
Al3 O21 2.134047 1_555
Al4 O31 1.872748 1_555
Al4 O30 1.886975 1_555
Al4 O66 1.892588 1_555
Al4 O68 1.999770 1_555
Al4 O67 2.122619 1_555
Al4 O32 2.134047 1_555
Al5 O34 1.872748 1_555
Al5 O35 1.886975 1_555
Al5 O71 1.892588 1_555
Al5 O69 1.999770 1_555
Al5 O70 2.122619 1_555
Al5 O33 2.134047 1_555
O0 P0 1.530513 1_545
O0 Zn0 2.041355 1_445
O1 S0 1.456965 1_555
O1 Zn0 1.971985 1_555
O2 P1 1.524040 1_655
O2 Zn0 1.992186 1_545
O3 P2 1.524040 1_555
O3 Zn1 1.992186 1_545
O4 S1 1.456965 1_655
O4 Zn1 1.971985 1_655
O5 P3 1.530513 1_545
O5 Zn1 2.041355 1_645
O6 P3 1.576400 1_555
O7 P2 1.561214 1_555
O8 S1 1.494815 1_555
O9 S0 1.494815 1_555
O10 P1 1.561214 1_555
O11 P0 1.576400 1_555
O12 P4 1.530513 1_555
O12 Zn2 2.041355 1_555
O13 S2 1.456965 1_555
O13 Zn2 1.971985 1_555
O14 P5 1.524040 1_555
O14 Zn2 1.992186 1_555
O15 P6 1.524040 1_555
O15 Zn3 1.992186 1_555
O16 S3 1.456965 1_555
O16 Zn3 1.971985 1_555
O17 P7 1.530513 1_555
O17 Zn3 2.041355 1_555
O18 P7 1.576400 1_555
O19 P6 1.561214 1_555
O20 S3 1.494815 1_555
O21 S2 1.494815 1_555
O22 P5 1.561214 1_555
O23 P4 1.576400 1_555
O24 P8 1.530513 1_555
O24 Zn4 2.041355 1_556
O25 S4 1.456965 1_555
O25 Zn4 1.971985 1_556
O26 P9 1.524040 1_555
O26 Zn4 1.992186 1_556
O27 P10 1.524040 1_555
O27 Zn5 1.992186 1_555
O28 S5 1.456965 1_555
O28 Zn5 1.971985 1_555
O29 P11 1.530513 1_555
O29 Zn5 2.041355 1_555
O30 P11 1.576400 1_555
O31 P10 1.561214 1_555
O32 S5 1.494815 1_555
O33 S4 1.494815 1_555
O34 P9 1.561214 1_555
O35 P8 1.576400 1_555
O36 P11 1.533137 1_555
O36 Zn0 2.097779 1_455
O37 P10 1.536386 1_555
O37 Zn0 2.102374 1_555
O38 S5 1.496264 1_555
O38 Zn0 2.205119 1_445
O39 S4 1.496268 1_555
O39 Zn1 2.205119 1_545
O40 P9 1.536378 1_555
O40 Zn1 2.102374 1_555
O41 P8 1.533142 1_555
O41 Zn1 2.097779 1_655
O42 P4 1.570260 1_555
O43 S2 1.495681 1_555
O44 P5 1.601769 1_555
O45 P6 1.601773 1_555
O46 S3 1.495673 1_555
O47 P7 1.570265 1_555
O48 P3 1.533137 1_545
O48 Zn2 2.097779 1_555
O49 P2 1.536386 1_555
O49 Zn2 2.102374 1_555
O50 S1 1.496264 1_655
O50 Zn2 2.205119 1_555
O51 S0 1.496268 1_555
O51 Zn3 2.205119 1_555
O52 P1 1.536378 1_655
O52 Zn3 2.102374 1_555
O53 P0 1.533142 1_545
O53 Zn3 2.097779 1_555
O54 P8 1.570272 1_555
O55 S4 1.495667 1_655
O56 P9 1.601767 1_545
O57 P10 1.601759 1_545
O58 S5 1.495684 1_555
O59 P11 1.570263 1_655
O60 P7 1.533148 1_555
O60 Zn4 2.097779 1_555
O61 P6 1.536373 1_455
O61 Zn4 2.102374 1_555
O62 S3 1.496261 1_565
O62 Zn4 2.205119 1_555
O63 S2 1.496254 1_565
O63 Zn5 2.205119 1_555
O64 P5 1.536390 1_555
O64 Zn5 2.102374 1_555
O65 P4 1.533138 1_455
O65 Zn5 2.097779 1_555
O66 P0 1.570260 1_555
O67 S0 1.495681 1_555
O68 P1 1.601769 1_555
O69 P2 1.601773 1_555
O70 S1 1.495673 1_555
O71 P3 1.570265 1_555
