# generated using pymatgen
data_Li2CeSb2
_symmetry_space_group_name_H-M   'P 1'
_cell_length_a   4.61568600
_cell_length_b   4.61568600
_cell_length_c   11.11295600
_cell_angle_alpha   90.00000000
_cell_angle_beta   90.00000000
_cell_angle_gamma   90.00000000
_symmetry_Int_Tables_number   1
_chemical_formula_structural   Li2CeSb2
_chemical_formula_sum   'Li4 Ce2 Sb4'
_cell_volume   236.75660733
_cell_formula_units_Z   2
loop_
 _symmetry_equiv_pos_site_id
 _symmetry_equiv_pos_as_xyz
  1  'x, y, z'
loop_
 _atom_site_type_symbol
 _atom_site_label
 _atom_site_symmetry_multiplicity
 _atom_site_fract_x
 _atom_site_fract_y
 _atom_site_fract_z
 _atom_site_occupancy
  Li  Li0  1  0.00000000  0.50000000  0.37808100  1
  Li  Li1  1  0.50000000  0.00000000  0.62191900  1
  Li  Li2  1  0.00000000  0.00000000  0.00000000  1
  Li  Li3  1  0.50000000  0.50000000  0.00000000  1
  Ce  Ce0  1  0.00000000  0.50000000  0.73086100  1
  Ce  Ce1  1  0.50000000  0.00000000  0.26913900  1
  Sb  Sb0  1  0.50000000  0.00000000  0.85186100  1
  Sb  Sb1  1  0.00000000  0.50000000  0.14813900  1
  Sb  Sb2  1  0.00000000  0.00000000  0.50000000  1
  Sb  Sb3  1  0.50000000  0.50000000  0.50000000  1
loop_
_geom_bond_atom_site_label_1
_geom_bond_atom_site_label_2
_geom_bond_distance
_geom_bond_site_symmetry_2
Li0 Sb1 2.555335 1_555
Li0 Sb2 2.676162 1_555
Li0 Sb3 2.676162 1_455
Li0 Sb3 2.676162 1_555
Li0 Sb2 2.676162 1_565
Li1 Sb0 2.555335 1_555
Li1 Sb2 2.676162 1_555
Li1 Sb3 2.676162 1_555
Li1 Sb2 2.676162 1_655
Li1 Sb3 2.676162 1_545
Li2 Sb0 2.834840 1_454
Li2 Sb0 2.834840 1_554
Li2 Sb1 2.834840 1_545
Li2 Sb1 2.834840 1_555
Li3 Sb1 2.834840 1_655
Li3 Sb0 2.834840 1_554
Li3 Sb1 2.834840 1_555
Li3 Sb0 2.834840 1_564
Ce0 Sb3 3.450823 1_555
Ce0 Sb2 3.450823 1_565
Ce0 Sb2 3.450823 1_555
Ce0 Sb3 3.450823 1_455
Ce0 Li1 3.481091 1_455
Ce0 Li1 3.481091 1_555
Ce0 Li1 3.481091 1_565
Ce0 Li1 3.481091 1_465
Ce0 Sb0 3.529931 1_555
Ce0 Sb0 3.529931 1_565
Ce0 Sb0 3.529931 1_455
Ce0 Sb0 3.529931 1_465
Ce0 Li2 3.777804 1_556
Ce0 Li3 3.777804 1_556
Ce0 Li2 3.777804 1_566
Ce0 Li3 3.777804 1_456
Ce1 Sb3 3.450823 1_555
Ce1 Sb2 3.450823 1_655
Ce1 Sb3 3.450823 1_545
Ce1 Sb2 3.450823 1_555
Ce1 Li0 3.481091 1_555
Ce1 Li0 3.481091 1_655
Ce1 Li0 3.481091 1_645
Ce1 Li0 3.481091 1_545
Ce1 Sb1 3.529931 1_545
Ce1 Sb1 3.529931 1_645
Ce1 Sb1 3.529931 1_555
Ce1 Sb1 3.529931 1_655
Ce1 Li2 3.777804 1_555
Ce1 Li3 3.777804 1_545
Ce1 Li2 3.777804 1_655
Ce1 Li3 3.777804 1_555
