# generated using pymatgen
data_MgTe4Mo2W2(SeS)2
_symmetry_space_group_name_H-M   'P 1'
_cell_length_a   6.77613803
_cell_length_b   6.77601625
_cell_length_c   77.48111800
_cell_angle_alpha   90.00003666
_cell_angle_beta   90.00000148
_cell_angle_gamma   120.01057257
_symmetry_Int_Tables_number   1
_chemical_formula_structural   MgTe4Mo2W2(SeS)2
_chemical_formula_sum   'Mg8 Te32 Mo16 W16 Se16 S16'
_cell_volume   3080.61137706
_cell_formula_units_Z   8
loop_
 _symmetry_equiv_pos_site_id
 _symmetry_equiv_pos_as_xyz
  1  'x, y, z'
loop_
 _atom_site_type_symbol
 _atom_site_label
 _atom_site_symmetry_multiplicity
 _atom_site_fract_x
 _atom_site_fract_y
 _atom_site_fract_z
 _atom_site_occupancy
  Mg  Mg0_0  1  0.29938600  0.12292600  0.43764600  1
  Mg  Mg0_1  1  0.29938600  0.12292600  0.93764600  1
  Mg  Mg0_2  1  0.29938600  0.62292600  0.43764600  1
  Mg  Mg0_3  1  0.29938600  0.62292600  0.93764600  1
  Mg  Mg0_4  1  0.79938600  0.12292600  0.43764600  1
  Mg  Mg0_5  1  0.79938600  0.12292600  0.93764600  1
  Mg  Mg0_6  1  0.79938600  0.62292600  0.43764600  1
  Mg  Mg0_7  1  0.79938600  0.62292600  0.93764600  1
  Te  Te0_0  1  0.16668350  0.33335200  0.35313650  1
  Te  Te0_1  1  0.16668350  0.33335200  0.85313650  1
  Te  Te0_2  1  0.16668350  0.83335200  0.35313650  1
  Te  Te0_3  1  0.16668350  0.83335200  0.85313650  1
  Te  Te0_4  1  0.66668350  0.33335200  0.35313650  1
  Te  Te0_5  1  0.66668350  0.33335200  0.85313650  1
  Te  Te0_6  1  0.66668350  0.83335200  0.35313650  1
  Te  Te0_7  1  0.66668350  0.83335200  0.85313650  1
  Te  Te1_0  1  0.33332600  0.16665000  0.02271300  1
  Te  Te1_1  1  0.33332600  0.16665000  0.52271300  1
  Te  Te1_2  1  0.33332600  0.66665000  0.02271300  1
  Te  Te1_3  1  0.33332600  0.66665000  0.52271300  1
  Te  Te1_4  1  0.83332600  0.16665000  0.02271300  1
  Te  Te1_5  1  0.83332600  0.16665000  0.52271300  1
  Te  Te1_6  1  0.83332600  0.66665000  0.02271300  1
  Te  Te1_7  1  0.83332600  0.66665000  0.52271300  1
  Te  Te2_0  1  0.33332700  0.16665250  0.07119700  1
  Te  Te2_1  1  0.33332700  0.16665250  0.57119700  1
  Te  Te2_2  1  0.33332700  0.66665250  0.07119700  1
  Te  Te2_3  1  0.33332700  0.66665250  0.57119700  1
  Te  Te2_4  1  0.83332700  0.16665250  0.07119700  1
  Te  Te2_5  1  0.83332700  0.16665250  0.57119700  1
  Te  Te2_6  1  0.83332700  0.66665250  0.07119700  1
  Te  Te2_7  1  0.83332700  0.66665250  0.57119700  1
  Te  Te3_0  1  0.16668350  0.33335500  0.30439050  1
  Te  Te3_1  1  0.16668350  0.33335500  0.80439050  1
  Te  Te3_2  1  0.16668350  0.83335500  0.30439050  1
  Te  Te3_3  1  0.16668350  0.83335500  0.80439050  1
  Te  Te3_4  1  0.66668350  0.33335500  0.30439050  1
  Te  Te3_5  1  0.66668350  0.33335500  0.80439050  1
  Te  Te3_6  1  0.66668350  0.83335500  0.30439050  1
  Te  Te3_7  1  0.66668350  0.83335500  0.80439050  1
  Mo  Mo0_0  1  0.16666450  0.33330750  0.04693300  1
  Mo  Mo0_1  1  0.16666450  0.33330750  0.54693300  1
  Mo  Mo0_2  1  0.16666450  0.83330750  0.04693300  1
  Mo  Mo0_3  1  0.16666450  0.83330750  0.54693300  1
  Mo  Mo0_4  1  0.66666450  0.33330750  0.04693300  1
  Mo  Mo0_5  1  0.66666450  0.33330750  0.54693300  1
  Mo  Mo0_6  1  0.66666450  0.83330750  0.04693300  1
  Mo  Mo0_7  1  0.66666450  0.83330750  0.54693300  1
  Mo  Mo1_0  1  0.33334850  0.16668100  0.14090900  1
  Mo  Mo1_1  1  0.33334850  0.16668100  0.64090900  1
  Mo  Mo1_2  1  0.33334850  0.66668100  0.14090900  1
  Mo  Mo1_3  1  0.33334850  0.66668100  0.64090900  1
  Mo  Mo1_4  1  0.83334850  0.16668100  0.14090900  1
  Mo  Mo1_5  1  0.83334850  0.16668100  0.64090900  1
  Mo  Mo1_6  1  0.83334850  0.66668100  0.14090900  1
  Mo  Mo1_7  1  0.83334850  0.66668100  0.64090900  1
  W  W0_0  1  0.16667350  0.33328650  0.23481800  1
  W  W0_1  1  0.16667350  0.33328650  0.73481800  1
  W  W0_2  1  0.16667350  0.83328650  0.23481800  1
  W  W0_3  1  0.16667350  0.83328650  0.73481800  1
  W  W0_4  1  0.66667350  0.33328650  0.23481800  1
  W  W0_5  1  0.66667350  0.33328650  0.73481800  1
  W  W0_6  1  0.66667350  0.83328650  0.23481800  1
  W  W0_7  1  0.66667350  0.83328650  0.73481800  1
  W  W1_0  1  0.33334650  0.16669750  0.32877900  1
  W  W1_1  1  0.33334650  0.16669750  0.82877900  1
  W  W1_2  1  0.33334650  0.66669750  0.32877900  1
  W  W1_3  1  0.33334650  0.66669750  0.82877900  1
  W  W1_4  1  0.83334650  0.16669750  0.32877900  1
  W  W1_5  1  0.83334650  0.16669750  0.82877900  1
  W  W1_6  1  0.83334650  0.66669750  0.32877900  1
  W  W1_7  1  0.83334650  0.66669750  0.82877900  1
  Se  Se0_0  1  0.16667500  0.33334950  0.16225700  1
  Se  Se0_1  1  0.16667500  0.33334950  0.66225700  1
  Se  Se0_2  1  0.16667500  0.83334950  0.16225700  1
  Se  Se0_3  1  0.16667500  0.83334950  0.66225700  1
  Se  Se0_4  1  0.66667500  0.33334950  0.16225700  1
  Se  Se0_5  1  0.66667500  0.33334950  0.66225700  1
  Se  Se0_6  1  0.66667500  0.83334950  0.16225700  1
  Se  Se0_7  1  0.66667500  0.83334950  0.66225700  1
  Se  Se1_0  1  0.16667550  0.33334900  0.11956800  1
  Se  Se1_1  1  0.16667550  0.33334900  0.61956800  1
  Se  Se1_2  1  0.16667550  0.83334900  0.11956800  1
  Se  Se1_3  1  0.16667550  0.83334900  0.61956800  1
  Se  Se1_4  1  0.66667550  0.33334900  0.11956800  1
  Se  Se1_5  1  0.66667550  0.33334900  0.61956800  1
  Se  Se1_6  1  0.66667550  0.83334900  0.11956800  1
  Se  Se1_7  1  0.66667550  0.83334900  0.61956800  1
  S  S0_0  1  0.33331150  0.16666150  0.21534950  1
  S  S0_1  1  0.33331150  0.16666150  0.71534950  1
  S  S0_2  1  0.33331150  0.66666150  0.21534950  1
  S  S0_3  1  0.33331150  0.66666150  0.71534950  1
  S  S0_4  1  0.83331150  0.16666150  0.21534950  1
  S  S0_5  1  0.83331150  0.16666150  0.71534950  1
  S  S0_6  1  0.83331150  0.66666150  0.21534950  1
  S  S0_7  1  0.83331150  0.66666150  0.71534950  1
  S  S1_0  1  0.33330950  0.16666150  0.25429750  1
  S  S1_1  1  0.33330950  0.16666150  0.75429750  1
  S  S1_2  1  0.33330950  0.66666150  0.25429750  1
  S  S1_3  1  0.33330950  0.66666150  0.75429750  1
  S  S1_4  1  0.83330950  0.16666150  0.25429750  1
  S  S1_5  1  0.83330950  0.16666150  0.75429750  1
  S  S1_6  1  0.83330950  0.66666150  0.25429750  1
  S  S1_7  1  0.83330950  0.66666150  0.75429750  1
loop_
_geom_bond_atom_site_label_1
_geom_bond_atom_site_label_2
_geom_bond_distance
_geom_bond_site_symmetry_2
Mg0_0 Mg0_6 3.387497 1_445
Mg0_0 Mg0_6 3.387497 1_555
Mg0_0 Mg0_2 3.388008 1_555
Mg0_0 Mg0_2 3.388008 1_545
Mg0_0 Mg0_4 3.388069 1_455
Mg0_0 Mg0_4 3.388069 1_555
Mg0_1 Mg0_7 3.387497 1_445
Mg0_1 Mg0_7 3.387497 1_555
Mg0_1 Mg0_3 3.388008 1_555
Mg0_1 Mg0_3 3.388008 1_545
Mg0_1 Mg0_5 3.388069 1_555
Mg0_1 Mg0_5 3.388069 1_455
Mg0_2 Mg0_4 3.387497 1_565
Mg0_2 Mg0_4 3.387497 1_455
Mg0_2 Mg0_6 3.388069 1_555
Mg0_2 Mg0_6 3.388069 1_455
Mg0_3 Mg0_5 3.387497 1_565
Mg0_3 Mg0_5 3.387497 1_455
Mg0_3 Mg0_7 3.388069 1_455
Mg0_3 Mg0_7 3.388069 1_555
Mg0_4 Mg0_6 3.388008 1_545
Mg0_4 Mg0_6 3.388008 1_555
Mg0_5 Mg0_7 3.388008 1_555
Mg0_5 Mg0_7 3.388008 1_545
Te0_0 W1_4 2.717959 1_455
Te0_0 W1_2 2.717971 1_555
Te0_0 W1_0 2.718089 1_555
Te0_1 W1_5 2.717959 1_455
Te0_1 W1_3 2.717971 1_555
Te0_1 W1_1 2.718089 1_555
Te0_2 W1_6 2.717959 1_455
Te0_2 W1_0 2.717971 1_565
Te0_2 W1_2 2.718089 1_555
Te0_3 W1_7 2.717959 1_455
Te0_3 W1_1 2.717971 1_565
Te0_3 W1_3 2.718089 1_555
Te0_4 W1_0 2.717959 1_555
Te0_4 W1_6 2.717971 1_555
Te0_4 W1_4 2.718089 1_555
Te0_5 W1_1 2.717959 1_555
Te0_5 W1_7 2.717971 1_555
Te0_5 W1_5 2.718089 1_555
Te0_6 W1_2 2.717959 1_555
Te0_6 W1_4 2.717971 1_565
Te0_6 W1_6 2.718089 1_555
Te0_7 W1_3 2.717959 1_555
Te0_7 W1_5 2.717971 1_565
Te0_7 W1_7 2.718089 1_555
Te3_0 W1_2 2.719625 1_555
Te3_0 W1_4 2.719629 1_455
Te3_0 W1_0 2.719771 1_555
Te3_1 W1_3 2.719625 1_555
Te3_1 W1_5 2.719629 1_455
Te3_1 W1_1 2.719771 1_555
Te3_2 W1_0 2.719625 1_565
Te3_2 W1_6 2.719629 1_455
Te3_2 W1_2 2.719771 1_555
Te3_3 W1_1 2.719625 1_565
Te3_3 W1_7 2.719629 1_455
Te3_3 W1_3 2.719771 1_555
Te3_4 W1_6 2.719625 1_555
Te3_4 W1_0 2.719629 1_555
Te3_4 W1_4 2.719771 1_555
Te3_5 W1_7 2.719625 1_555
Te3_5 W1_1 2.719629 1_555
Te3_5 W1_5 2.719771 1_555
Te3_6 W1_4 2.719625 1_565
Te3_6 W1_2 2.719629 1_555
Te3_6 W1_6 2.719771 1_555
Te3_7 W1_5 2.719625 1_565
Te3_7 W1_3 2.719629 1_555
Te3_7 W1_7 2.719771 1_555
Mo0_0 Te1_2 2.710572 1_555
Mo0_0 Te1_4 2.710579 1_455
Mo0_0 Te1_0 2.710709 1_555
Mo0_0 Te2_4 2.712937 1_455
Mo0_0 Te2_2 2.712942 1_555
Mo0_0 Te2_0 2.713065 1_555
Mo0_1 Te1_3 2.710572 1_555
Mo0_1 Te1_5 2.710579 1_455
Mo0_1 Te1_1 2.710709 1_555
Mo0_1 Te2_5 2.712937 1_455
Mo0_1 Te2_3 2.712942 1_555
Mo0_1 Te2_1 2.713065 1_555
Mo0_2 Te1_0 2.710572 1_565
Mo0_2 Te1_6 2.710579 1_455
Mo0_2 Te1_2 2.710709 1_555
Mo0_2 Te2_6 2.712937 1_455
Mo0_2 Te2_0 2.712942 1_565
Mo0_2 Te2_2 2.713065 1_555
Mo0_3 Te1_1 2.710572 1_565
Mo0_3 Te1_7 2.710579 1_455
Mo0_3 Te1_3 2.710709 1_555
Mo0_3 Te2_7 2.712937 1_455
Mo0_3 Te2_1 2.712942 1_565
Mo0_3 Te2_3 2.713065 1_555
Mo0_4 Te1_6 2.710572 1_555
Mo0_4 Te1_0 2.710579 1_555
Mo0_4 Te1_4 2.710709 1_555
Mo0_4 Te2_0 2.712937 1_555
Mo0_4 Te2_6 2.712942 1_555
Mo0_4 Te2_4 2.713065 1_555
Mo0_5 Te1_7 2.710572 1_555
Mo0_5 Te1_1 2.710579 1_555
Mo0_5 Te1_5 2.710709 1_555
Mo0_5 Te2_1 2.712937 1_555
Mo0_5 Te2_7 2.712942 1_555
Mo0_5 Te2_5 2.713065 1_555
Mo0_6 Te1_4 2.710572 1_565
Mo0_6 Te1_2 2.710579 1_555
Mo0_6 Te1_6 2.710709 1_555
Mo0_6 Te2_2 2.712937 1_555
Mo0_6 Te2_4 2.712942 1_565
Mo0_6 Te2_6 2.713065 1_555
Mo0_7 Te1_5 2.710572 1_565
Mo0_7 Te1_3 2.710579 1_555
Mo0_7 Te1_7 2.710709 1_555
Mo0_7 Te2_3 2.712937 1_555
Mo0_7 Te2_5 2.712942 1_565
Mo0_7 Te2_7 2.713065 1_555
Mo1_0 Se1_2 2.561151 1_545
Mo1_0 Se1_4 2.561156 1_555
Mo1_0 Se1_0 2.561444 1_555
Mo1_0 Se0_2 2.561500 1_545
Mo1_0 Se0_4 2.561503 1_555
Mo1_0 Se0_0 2.561798 1_555
Mo1_1 Se1_3 2.561151 1_545
Mo1_1 Se1_5 2.561156 1_555
Mo1_1 Se1_1 2.561444 1_555
Mo1_1 Se0_3 2.561500 1_545
Mo1_1 Se0_5 2.561503 1_555
Mo1_1 Se0_1 2.561798 1_555
Mo1_2 Se1_0 2.561151 1_555
Mo1_2 Se1_6 2.561156 1_555
Mo1_2 Se1_2 2.561444 1_555
Mo1_2 Se0_0 2.561500 1_555
Mo1_2 Se0_6 2.561503 1_555
Mo1_2 Se0_2 2.561798 1_555
Mo1_3 Se1_1 2.561151 1_555
Mo1_3 Se1_7 2.561156 1_555
Mo1_3 Se1_3 2.561444 1_555
Mo1_3 Se0_1 2.561500 1_555
Mo1_3 Se0_7 2.561503 1_555
Mo1_3 Se0_3 2.561798 1_555
Mo1_4 Se1_6 2.561151 1_545
Mo1_4 Se1_0 2.561156 1_655
Mo1_4 Se1_4 2.561444 1_555
Mo1_4 Se0_6 2.561500 1_545
Mo1_4 Se0_0 2.561503 1_655
Mo1_4 Se0_4 2.561798 1_555
Mo1_5 Se1_7 2.561151 1_545
Mo1_5 Se1_1 2.561156 1_655
Mo1_5 Se1_5 2.561444 1_555
Mo1_5 Se0_7 2.561500 1_545
Mo1_5 Se0_1 2.561503 1_655
Mo1_5 Se0_5 2.561798 1_555
Mo1_6 Se1_4 2.561151 1_555
Mo1_6 Se1_2 2.561156 1_655
Mo1_6 Se1_6 2.561444 1_555
Mo1_6 Se0_4 2.561500 1_555
Mo1_6 Se0_2 2.561503 1_655
Mo1_6 Se0_6 2.561798 1_555
Mo1_7 Se1_5 2.561151 1_555
Mo1_7 Se1_3 2.561156 1_655
Mo1_7 Se1_7 2.561444 1_555
Mo1_7 Se0_5 2.561500 1_555
Mo1_7 Se0_3 2.561503 1_655
Mo1_7 Se0_7 2.561798 1_555
S0_0 W0_0 2.469910 1_555
S0_0 W0_4 2.470136 1_555
S0_0 W0_2 2.470170 1_545
S0_1 W0_1 2.469910 1_555
S0_1 W0_5 2.470136 1_555
S0_1 W0_3 2.470170 1_545
S0_2 W0_2 2.469910 1_555
S0_2 W0_6 2.470136 1_555
S0_2 W0_0 2.470170 1_555
S0_3 W0_3 2.469910 1_555
S0_3 W0_7 2.470136 1_555
S0_3 W0_1 2.470170 1_555
S0_4 W0_4 2.469910 1_555
S0_4 W0_0 2.470136 1_655
S0_4 W0_6 2.470170 1_545
S0_5 W0_5 2.469910 1_555
S0_5 W0_1 2.470136 1_655
S0_5 W0_7 2.470170 1_545
S0_6 W0_6 2.469910 1_555
S0_6 W0_2 2.470136 1_655
S0_6 W0_4 2.470170 1_555
S0_7 W0_7 2.469910 1_555
S0_7 W0_3 2.470136 1_655
S0_7 W0_5 2.470170 1_555
S1_0 W0_0 2.470422 1_555
S1_0 W0_4 2.470667 1_555
S1_0 W0_2 2.470689 1_545
S1_1 W0_1 2.470422 1_555
S1_1 W0_5 2.470667 1_555
S1_1 W0_3 2.470689 1_545
S1_2 W0_2 2.470422 1_555
S1_2 W0_6 2.470667 1_555
S1_2 W0_0 2.470689 1_555
S1_3 W0_3 2.470422 1_555
S1_3 W0_7 2.470667 1_555
S1_3 W0_1 2.470689 1_555
S1_4 W0_4 2.470422 1_555
S1_4 W0_0 2.470667 1_655
S1_4 W0_6 2.470689 1_545
S1_5 W0_5 2.470422 1_555
S1_5 W0_1 2.470667 1_655
S1_5 W0_7 2.470689 1_545
S1_6 W0_6 2.470422 1_555
S1_6 W0_2 2.470667 1_655
S1_6 W0_4 2.470689 1_555
S1_7 W0_7 2.470422 1_555
S1_7 W0_3 2.470667 1_655
S1_7 W0_5 2.470689 1_555
