# generated using pymatgen
data_In2HgS4
_symmetry_space_group_name_H-M   'P 1'
_cell_length_a   7.74390160
_cell_length_b   7.74390243
_cell_length_c   7.74390137
_cell_angle_alpha   60.00000020
_cell_angle_beta   59.99999669
_cell_angle_gamma   60.00000133
_symmetry_Int_Tables_number   1
_chemical_formula_structural   In2HgS4
_chemical_formula_sum   'In4 Hg2 S8'
_cell_volume   328.37078227
_cell_formula_units_Z   2
loop_
 _symmetry_equiv_pos_site_id
 _symmetry_equiv_pos_as_xyz
  1  'x, y, z'
loop_
 _atom_site_type_symbol
 _atom_site_label
 _atom_site_symmetry_multiplicity
 _atom_site_fract_x
 _atom_site_fract_y
 _atom_site_fract_z
 _atom_site_occupancy
  In  In0  1  0.50000000  -0.00000000  0.50000000  1
  In  In1  1  -0.00000000  0.50000000  0.50000000  1
  In  In2  1  0.50000000  0.50000000  0.00000000  1
  In  In3  1  0.50000000  0.50000000  0.50000000  1
  Hg  Hg0  1  0.12500000  0.12500000  0.12500000  1
  Hg  Hg1  1  0.87500000  0.87500000  0.87500000  1
  S  S0  1  0.73987551  0.73987551  0.73987551  1
  S  S1  1  0.26012449  0.26012449  0.71962554  1
  S  S2  1  0.26012449  0.71962554  0.26012449  1
  S  S3  1  0.71962554  0.26012449  0.26012449  1
  S  S4  1  0.73987551  0.28037446  0.73987551  1
  S  S5  1  0.28037446  0.73987551  0.73987551  1
  S  S6  1  0.26012449  0.26012449  0.26012449  1
  S  S7  1  0.73987551  0.73987551  0.28037446  1
loop_
_geom_bond_atom_site_label_1
_geom_bond_atom_site_label_2
_geom_bond_distance
_geom_bond_site_symmetry_2
In0 S5 2.631675 1_545
In0 S3 2.631675 1_555
In0 S1 2.631675 1_555
In0 S7 2.631675 1_545
In0 S6 2.631680 1_555
In0 S0 2.631680 1_545
In1 S4 2.631675 1_455
In1 S2 2.631675 1_555
In1 S7 2.631675 1_455
In1 S1 2.631675 1_555
In1 S6 2.631680 1_555
In1 S0 2.631680 1_455
In2 S4 2.631675 1_554
In2 S2 2.631675 1_555
In2 S5 2.631675 1_554
In2 S3 2.631675 1_555
In2 S6 2.631680 1_555
In2 S0 2.631680 1_554
In3 S2 2.631680 1_555
In3 S4 2.631680 1_555
In3 S3 2.631680 1_555
In3 S5 2.631680 1_555
In3 S1 2.631680 1_555
In3 S7 2.631680 1_555
Hg0 S6 2.563123 1_555
Hg0 S1 2.563130 1_554
Hg0 S3 2.563130 1_455
Hg0 S2 2.563130 1_545
Hg1 S0 2.563123 1_555
Hg1 S7 2.563130 1_556
Hg1 S5 2.563130 1_655
Hg1 S4 2.563130 1_565
