# generated using pymatgen
data_Na6YTa3(SiO4)6
_symmetry_space_group_name_H-M   'P 1'
_cell_length_a   15.85226431
_cell_length_b   9.12418020
_cell_length_c   9.17494840
_cell_angle_alpha   90.05721159
_cell_angle_beta   125.03194002
_cell_angle_gamma   90.03748243
_symmetry_Int_Tables_number   1
_chemical_formula_structural   Na6YTa3(SiO4)6
_chemical_formula_sum   'Na12 Y2 Ta6 Si12 O48'
_cell_volume   1086.63323210
_cell_formula_units_Z   2
loop_
 _symmetry_equiv_pos_site_id
 _symmetry_equiv_pos_as_xyz
  1  'x, y, z'
loop_
 _atom_site_type_symbol
 _atom_site_label
 _atom_site_symmetry_multiplicity
 _atom_site_fract_x
 _atom_site_fract_y
 _atom_site_fract_z
 _atom_site_occupancy
  Na  Na0  1  0.25285237  0.74974080  0.00020850  1
  Na  Na1  1  0.74883363  0.74998199  0.49431852  1
  Na  Na2  1  0.75285237  0.24974080  0.00020850  1
  Na  Na3  1  0.24883363  0.24998199  0.49431852  1
  Na  Na4  1  0.50697938  0.10192361  0.76259319  1
  Na  Na5  1  0.50128967  0.88049601  0.24497034  1
  Na  Na6  1  0.00697938  0.60192361  0.76259319  1
  Na  Na7  1  0.00128967  0.38049601  0.24497034  1
  Na  Na8  1  0.80140740  0.93654055  0.22758790  1
  Na  Na9  1  0.18526570  0.06604259  0.78506100  1
  Na  Na10  1  0.30140740  0.43654055  0.22758790  1
  Na  Na11  1  0.68526570  0.56604259  0.78506100  1
  Y  Y0  1  0.10338860  0.23827230  0.06477146  1
  Y  Y1  1  0.60338860  0.73827230  0.06477146  1
  Ta  Ta0  1  0.10688487  0.74848926  0.56084777  1
  Ta  Ta1  1  0.89559293  0.75599636  0.93270175  1
  Ta  Ta2  1  0.89191408  0.25093583  0.43724326  1
  Ta  Ta3  1  0.60688487  0.24848926  0.56084777  1
  Ta  Ta4  1  0.39559293  0.25599636  0.93270175  1
  Ta  Ta5  1  0.39191408  0.75093583  0.43724326  1
  Si  Si0  1  0.99534218  0.95260509  0.73743693  1
  Si  Si1  1  0.99790998  0.03972459  0.25985810  1
  Si  Si2  1  0.49534218  0.45260509  0.73743693  1
  Si  Si3  1  0.49790998  0.53972459  0.25985810  1
  Si  Si4  1  0.35343208  0.89782203  0.75937552  1
  Si  Si5  1  0.64757957  0.89696190  0.74721392  1
  Si  Si6  1  0.64598882  0.11773608  0.24487074  1
  Si  Si7  1  0.35999662  0.09919827  0.25146037  1
  Si  Si8  1  0.85343208  0.39782203  0.75937552  1
  Si  Si9  1  0.14757957  0.39696190  0.74721392  1
  Si  Si10  1  0.14598882  0.61773608  0.24487074  1
  Si  Si11  1  0.85999662  0.59919827  0.25146037  1
  O  O0  1  0.15858590  0.57229311  0.71915855  1
  O  O1  1  0.85220277  0.58022601  0.75695407  1
  O  O2  1  0.85538484  0.41872587  0.26206135  1
  O  O3  1  0.15814028  0.44191558  0.25923545  1
  O  O4  1  0.65858590  0.07229311  0.71915855  1
  O  O5  1  0.35220277  0.08022601  0.75695407  1
  O  O6  1  0.35538484  0.91872587  0.26206135  1
  O  O7  1  0.65814028  0.94191558  0.25923545  1
  O  O8  1  0.42664460  0.55945535  0.55920661  1
  O  O9  1  0.58111218  0.55010654  0.90209672  1
  O  O10  1  0.55170744  0.43350779  0.43441144  1
  O  O11  1  0.43413853  0.42626407  0.08449514  1
  O  O12  1  0.92664460  0.05945535  0.55920661  1
  O  O13  1  0.08111218  0.05010654  0.90209672  1
  O  O14  1  0.05170744  0.93350779  0.43441144  1
  O  O15  1  0.93413853  0.92626407  0.08449514  1
  O  O16  1  0.24501923  0.84574609  0.73101916  1
  O  O17  1  0.74254293  0.80477007  0.76437735  1
  O  O18  1  0.74467290  0.19202807  0.25676822  1
  O  O19  1  0.27586200  0.18777891  0.26071693  1
  O  O20  1  0.74501923  0.34574609  0.73101916  1
  O  O21  1  0.24254293  0.30477007  0.76437735  1
  O  O22  1  0.24467290  0.69202807  0.25676822  1
  O  O23  1  0.77586200  0.68777891  0.26071693  1
  O  O24  1  0.36194833  0.84705220  0.59172716  1
  O  O25  1  0.64815234  0.88813148  0.92329599  1
  O  O26  1  0.64657994  0.18131239  0.41221209  1
  O  O27  1  0.35701323  0.13655853  0.07009263  1
  O  O28  1  0.86194833  0.34705220  0.59172716  1
  O  O29  1  0.14815234  0.38813148  0.92329599  1
  O  O30  1  0.14657994  0.68131239  0.41221209  1
  O  O31  1  0.85701323  0.63655853  0.07009263  1
  O  O32  1  0.44865748  0.83515289  0.94475950  1
  O  O33  1  0.53739939  0.82543446  0.57344228  1
  O  O34  1  0.53690328  0.17470160  0.06069099  1
  O  O35  1  0.47556959  0.14559946  0.41975759  1
  O  O36  1  0.94865748  0.33515289  0.94475950  1
  O  O37  1  0.03739939  0.32543446  0.57344228  1
  O  O38  1  0.03690328  0.67470160  0.06069099  1
  O  O39  1  0.97556959  0.64559946  0.41975759  1
  O  O40  1  0.06266190  0.82515233  0.71720520  1
  O  O41  1  0.91457871  0.86023989  0.76238475  1
  O  O42  1  0.90916642  0.13921864  0.25631572  1
  O  O43  1  0.08069791  0.14616143  0.26709584  1
  O  O44  1  0.56266190  0.32515233  0.71720520  1
  O  O45  1  0.41457871  0.36023989  0.76238475  1
  O  O46  1  0.40916642  0.63921864  0.25631572  1
  O  O47  1  0.58069791  0.64616143  0.26709584  1
loop_
_geom_bond_atom_site_label_1
_geom_bond_atom_site_label_2
_geom_bond_distance
_geom_bond_site_symmetry_2
Na0 O46 2.449856 1_555
Na0 O22 2.487538 1_555
Na0 O6 2.509438 1_555
Na0 O16 2.556368 1_554
Na0 O0 2.658630 1_554
Na0 O40 2.706307 1_554
Na1 O47 2.441513 1_555
Na1 O23 2.480227 1_555
Na1 O7 2.497333 1_555
Na1 O1 2.523534 1_555
Na1 O41 2.556795 1_555
Na1 O17 2.584662 1_555
Na2 O42 2.449856 1_555
Na2 O18 2.487538 1_555
Na2 O2 2.509438 1_555
Na2 O20 2.556368 1_554
Na2 O4 2.658630 1_554
Na2 O44 2.706307 1_554
Na3 O43 2.441513 1_555
Na3 O19 2.480227 1_555
Na3 O3 2.497333 1_555
Na3 O5 2.523534 1_555
Na3 O45 2.556795 1_555
Na3 O21 2.584662 1_555
Na4 O44 2.349975 1_555
Na4 O5 2.432166 1_555
Na4 O34 2.579309 1_556
Na4 O4 2.666078 1_555
Na4 O25 2.685253 1_545
Na4 O45 2.775235 1_555
Na4 O35 2.916429 1_555
Na4 O24 2.999854 1_545
Na5 O32 2.411014 1_554
Na5 O47 2.430704 1_555
Na5 O6 2.431708 1_555
Na5 O7 2.477492 1_555
Na5 O46 2.675946 1_555
Na5 O33 2.772253 1_555
Na6 O40 2.349975 1_555
Na6 O1 2.432166 1_455
Na6 O38 2.579309 1_556
Na6 O0 2.666078 1_555
Na6 O29 2.685253 1_555
Na6 O41 2.775235 1_455
Na6 O39 2.916429 1_455
Na6 O28 2.999854 1_455
Na7 O36 2.411014 1_454
Na7 O43 2.430704 1_555
Na7 O2 2.431708 1_455
Na7 O3 2.477492 1_555
Na7 O42 2.675946 1_455
Na7 O37 2.772253 1_555
Na8 O23 2.355761 1_555
Na8 O42 2.425961 1_565
Na8 O7 2.449869 1_555
Na8 O25 2.470011 1_554
Na8 O18 2.567601 1_565
Na8 O12 2.740791 1_565
Na9 O16 2.392279 1_545
Na9 O21 2.408529 1_555
Na9 O13 2.436315 1_555
Na9 O27 2.546685 1_556
Na9 O40 2.756514 1_545
Na9 O5 2.805247 1_555
Na9 O14 2.909312 1_545
Na10 O19 2.355761 1_555
Na10 O46 2.425961 1_555
Na10 O3 2.449869 1_555
Na10 O29 2.470011 1_554
Na10 O22 2.567601 1_555
Na10 O8 2.740791 1_555
Na11 O20 2.392279 1_555
Na11 O17 2.408529 1_555
Na11 O9 2.436315 1_555
Na11 O31 2.546685 1_556
Na11 O44 2.756514 1_555
Na11 O1 2.805247 1_555
Na11 O10 2.909312 1_555
O0 Si9 1.645579 1_555
O0 Ta0 2.001415 1_555
O1 Si8 1.664435 1_555
O1 Ta1 2.089329 1_555
O2 Si11 1.653671 1_555
O2 Ta2 2.049394 1_555
O3 Si10 1.612349 1_555
O3 Y0 2.366968 1_555
O4 Si5 1.645579 1_545
O4 Ta3 2.001415 1_555
O5 Si4 1.664435 1_545
O5 Ta4 2.089329 1_555
O6 Si7 1.653671 1_565
O6 Ta5 2.049394 1_555
O7 Si6 1.612349 1_565
O7 Y1 2.366968 1_555
O8 Si2 1.664499 1_555
O8 Ta5 1.976240 1_555
O9 Si2 1.599979 1_555
O9 Y1 2.165398 1_556
O10 Si3 1.633261 1_555
O10 Ta3 1.949753 1_555
O11 Si3 1.676405 1_555
O11 Ta4 1.934927 1_554
O12 Si0 1.664499 1_545
O12 Ta2 1.976240 1_555
O13 Si0 1.599979 1_445
O13 Y0 2.165398 1_556
O14 Si1 1.633261 1_465
O14 Ta0 1.949753 1_555
O15 Si1 1.676405 1_565
O15 Ta1 1.934927 1_554
O16 Si4 1.652986 1_555
O16 Ta0 2.022308 1_555
O17 Si5 1.651762 1_555
O17 Ta1 2.042198 1_555
O18 Si6 1.649563 1_555
O18 Ta2 2.009519 1_555
O19 Si7 1.603302 1_555
O19 Y0 2.297772 1_555
O20 Si8 1.652986 1_555
O20 Ta3 2.022308 1_555
O21 Si9 1.651762 1_555
O21 Ta4 2.042198 1_555
O22 Si10 1.649563 1_555
O22 Ta5 2.009519 1_555
O23 Si11 1.603302 1_555
O23 Y1 2.297772 1_555
O24 Si4 1.683990 1_555
O24 Ta5 1.942876 1_555
O25 Si5 1.612444 1_555
O25 Y1 2.262255 1_556
O26 Si6 1.635718 1_555
O26 Ta3 1.901427 1_555
O27 Si7 1.672802 1_555
O27 Ta4 2.009370 1_554
O28 Si8 1.683990 1_555
O28 Ta2 1.942876 1_555
O29 Si9 1.612444 1_555
O29 Y0 2.262255 1_556
O30 Si10 1.635718 1_555
O30 Ta0 1.901427 1_555
O31 Si11 1.672802 1_555
O31 Ta1 2.009370 1_554
O32 Si4 1.598135 1_555
O32 Y1 2.216816 1_556
O33 Si5 1.678664 1_555
O33 Ta5 2.007499 1_555
O34 Si6 1.662566 1_555
O34 Ta4 1.982689 1_554
O35 Si7 1.633998 1_555
O35 Ta3 1.947210 1_555
O36 Si8 1.598135 1_555
O36 Y0 2.216816 1_656
O37 Si9 1.678664 1_555
O37 Ta2 2.007499 1_455
O38 Si10 1.662566 1_555
O38 Ta1 1.982689 1_454
O39 Si11 1.633998 1_555
O39 Ta0 1.947210 1_655
O40 Si0 1.659598 1_455
O40 Ta0 2.047427 1_555
O41 Si0 1.654441 1_555
O41 Ta1 1.994907 1_555
O42 Si1 1.659351 1_555
O42 Ta2 2.094666 1_555
O43 Si1 1.602505 1_455
O43 Y0 2.247426 1_555
O44 Si2 1.659598 1_555
O44 Ta3 2.047427 1_555
O45 Si2 1.654441 1_555
O45 Ta4 1.994907 1_555
O46 Si3 1.659351 1_555
O46 Ta5 2.094666 1_555
O47 Si3 1.602505 1_555
O47 Y1 2.247426 1_555
