# generated using pymatgen
data_Li3Zr4F19
_symmetry_space_group_name_H-M   'P 1'
_cell_length_a   5.39835041
_cell_length_b   10.77417416
_cell_length_c   12.67888682
_cell_angle_alpha   107.20222906
_cell_angle_beta   92.43543218
_cell_angle_gamma   103.03013477
_symmetry_Int_Tables_number   1
_chemical_formula_structural   Li3Zr4F19
_chemical_formula_sum   'Li6 Zr8 F38'
_cell_volume   681.57426424
_cell_formula_units_Z   2
loop_
 _symmetry_equiv_pos_site_id
 _symmetry_equiv_pos_as_xyz
  1  'x, y, z'
loop_
 _atom_site_type_symbol
 _atom_site_label
 _atom_site_symmetry_multiplicity
 _atom_site_fract_x
 _atom_site_fract_y
 _atom_site_fract_z
 _atom_site_occupancy
  Li  Li0  1  0.71474952  0.74140843  0.48904306  1
  Li  Li1  1  0.40169587  0.50184468  0.20170679  1
  Li  Li2  1  0.59830413  0.49815532  0.79829321  1
  Li  Li3  1  0.47588218  0.16210308  0.05814689  1
  Li  Li4  1  0.52411782  0.83789692  0.94185311  1
  Li  Li5  1  0.28525048  0.25859157  0.51095694  1
  Zr  Zr0  1  0.86151779  0.38412531  0.36608783  1
  Zr  Zr1  1  0.13848221  0.61587469  0.63391217  1
  Zr  Zr2  1  0.89887969  0.05297403  0.20811494  1
  Zr  Zr3  1  0.10112031  0.94702597  0.79188506  1
  Zr  Zr4  1  0.93437887  0.66183030  0.05318754  1
  Zr  Zr5  1  0.06562113  0.33816970  0.94681246  1
  Zr  Zr6  1  0.66664143  0.12531900  0.62945000  1
  Zr  Zr7  1  0.33335857  0.87468100  0.37055000  1
  F  F0  1  0.83393192  0.24921388  0.78610082  1
  F  F1  1  0.16606808  0.75078612  0.21389918  1
  F  F2  1  0.63247342  0.45263409  0.28730553  1
  F  F3  1  0.34756863  0.41220554  0.87150506  1
  F  F4  1  0.65243137  0.58779446  0.12849494  1
  F  F5  1  0.30258493  0.32154741  0.06572563  1
  F  F6  1  0.69741507  0.67845259  0.93427437  1
  F  F7  1  0.36752658  0.54736591  0.71269447  1
  F  F8  1  0.36565856  0.06856080  0.49539125  1
  F  F9  1  0.63434144  0.93143920  0.50460875  1
  F  F10  1  0.50132360  0.27691919  0.65185290  1
  F  F11  1  0.49867640  0.72308081  0.34814710  1
  F  F12  1  0.86363000  0.56963971  0.48805612  1
  F  F13  1  0.13637000  0.43036029  0.51194388  1
  F  F14  1  0.66303151  0.00509265  0.07098867  1
  F  F15  1  0.33696849  0.99490735  0.92901133  1
  F  F16  1  0.95789250  0.78100246  0.64579032  1
  F  F17  1  0.04210750  0.21899754  0.35420968  1
  F  F18  1  0.24461347  0.75018059  0.99927075  1
  F  F19  1  0.75538653  0.24981941  0.00072925  1
  F  F20  1  0.14648893  0.46076182  0.29393054  1
  F  F21  1  0.85351107  0.53923818  0.70606946  1
  F  F22  1  0.87815459  0.48234177  0.91555177  1
  F  F23  1  0.12184541  0.51765823  0.08444823  1
  F  F24  1  0.41470499  0.70404334  0.56047440  1
  F  F25  1  0.58529501  0.29595666  0.43952560  1
  F  F26  1  0.60706208  0.98323971  0.29679044  1
  F  F27  1  0.39293792  0.01676029  0.70320956  1
  F  F28  1  0.72973989  0.21783589  0.21807520  1
  F  F29  1  0.27026011  0.78216411  0.78192480  1
  F  F30  1  0.11170656  0.98385677  0.31063353  1
  F  F31  1  0.88829344  0.01614323  0.68936647  1
  F  F32  1  0.20629361  0.10674537  0.14206263  1
  F  F33  1  0.79370639  0.89325463  0.85793737  1
  F  F34  1  0.95743577  0.19371861  0.55910742  1
  F  F35  1  0.04256423  0.80628139  0.44089258  1
  F  F36  1  0.13767312  0.15064847  0.87398956  1
  F  F37  1  0.86232688  0.84935153  0.12601044  1
loop_
_geom_bond_atom_site_label_1
_geom_bond_atom_site_label_2
_geom_bond_distance
_geom_bond_site_symmetry_2
F0 Zr6 2.068342 1_555
F0 Zr5 2.173165 1_655
F1 Zr7 2.068342 1_555
F1 Zr4 2.173165 1_455
F2 Li1 1.879987 1_555
F2 Zr0 1.952971 1_555
F3 Li2 1.897712 1_555
F3 Zr5 1.972595 1_555
F4 Li1 1.897712 1_555
F4 Zr4 1.972595 1_555
F5 Zr5 2.010146 1_554
F5 Li3 2.114293 1_555
F5 Li1 2.122315 1_555
F6 Zr4 2.010146 1_556
F6 Li4 2.114293 1_555
F6 Li2 2.122315 1_555
F7 Li2 1.879987 1_555
F7 Zr1 1.952971 1_555
F8 Li5 2.142042 1_555
F8 Zr6 2.146030 1_555
F8 Zr7 2.180800 1_545
F9 Li0 2.142042 1_555
F9 Zr7 2.146030 1_555
F9 Zr6 2.180800 1_565
F10 Zr6 1.987324 1_555
F10 Li5 2.025144 1_555
F10 Li2 2.477914 1_555
F11 Zr7 1.987324 1_555
F11 Li0 2.025144 1_555
F11 Li1 2.477914 1_555
F12 Zr0 2.132271 1_555
F12 Li0 2.174611 1_555
F12 Zr1 2.181322 1_655
F13 Zr1 2.132271 1_555
F13 Li5 2.174611 1_555
F13 Zr0 2.181322 1_455
F14 Zr2 1.973598 1_555
F14 Li4 2.007504 1_544
F14 Li3 2.197390 1_555
F15 Zr3 1.973598 1_555
F15 Li3 2.007504 1_566
F15 Li4 2.197390 1_555
F16 Zr3 2.126827 1_655
F16 Zr1 2.185048 1_655
F16 Li0 2.208813 1_555
F17 Zr2 2.126827 1_455
F17 Zr0 2.185048 1_455
F17 Li5 2.208813 1_555
F18 Li4 1.886023 1_555
F18 Zr4 1.985337 1_456
F19 Li3 1.886023 1_555
F19 Zr5 1.985337 1_654
F20 Li1 1.905068 1_555
F20 Zr0 1.969520 1_455
F21 Li2 1.905068 1_555
F21 Zr1 1.969520 1_655
F22 Zr4 2.138070 1_556
F22 Li2 2.143979 1_555
F22 Zr5 2.152448 1_655
F23 Zr5 2.138070 1_554
F23 Li1 2.143979 1_555
F23 Zr4 2.152448 1_455
F24 Li0 1.911067 1_555
F24 Zr1 1.998827 1_555
F25 Li5 1.911067 1_555
F25 Zr0 1.998827 1_555
F26 Zr7 2.100214 1_555
F26 Zr2 2.103971 1_565
F27 Zr6 2.100214 1_555
F27 Zr3 2.103971 1_545
F28 Zr0 2.135616 1_555
F28 Zr2 2.147831 1_555
F28 Li3 2.241160 1_555
F29 Zr1 2.135616 1_555
F29 Zr3 2.147831 1_555
F29 Li4 2.241160 1_555
F30 Zr2 2.096547 1_465
F30 Zr7 2.116235 1_555
F31 Zr3 2.096547 1_645
F31 Zr6 2.116235 1_555
F32 Li3 1.929059 1_555
F32 Zr2 1.939738 1_455
F33 Li4 1.929059 1_555
F33 Zr3 1.939738 1_655
F34 Li5 1.944064 1_655
F34 Zr6 1.946511 1_555
F35 Li0 1.944064 1_455
F35 Zr7 1.946511 1_555
F36 Zr5 2.089796 1_555
F36 Zr3 2.090965 1_545
F37 Zr4 2.089796 1_555
F37 Zr2 2.090965 1_565
