# generated using pymatgen
data_Na3Hf3MgP5SO24
_symmetry_space_group_name_H-M   'P 1'
_cell_length_a   8.85671016
_cell_length_b   8.84813492
_cell_length_c   22.90512142
_cell_angle_alpha   89.95361620
_cell_angle_beta   90.07543823
_cell_angle_gamma   119.94653623
_symmetry_Int_Tables_number   1
_chemical_formula_structural   Na3Hf3MgP5SO24
_chemical_formula_sum   'Na9 Hf9 Mg3 P15 S3 O72'
_cell_volume   1555.32350031
_cell_formula_units_Z   3
loop_
 _symmetry_equiv_pos_site_id
 _symmetry_equiv_pos_as_xyz
  1  'x, y, z'
loop_
 _atom_site_type_symbol
 _atom_site_label
 _atom_site_symmetry_multiplicity
 _atom_site_fract_x
 _atom_site_fract_y
 _atom_site_fract_z
 _atom_site_occupancy
  Na  Na0  1  0.99085066  0.36351514  0.74309467  1
  Na  Na1  1  0.31586883  0.97840144  0.08708244  1
  Na  Na2  1  0.32606650  0.03220589  0.40780078  1
  Na  Na3  1  0.97700611  0.99837765  0.49293733  1
  Na  Na4  1  0.98510454  0.00087055  0.99825659  1
  Na  Na5  1  0.65015874  0.33276535  0.82645052  1
  Na  Na6  1  0.66816409  0.33547965  0.32405634  1
  Na  Na7  1  0.33300815  0.65778282  0.16758387  1
  Na  Na8  1  0.34768651  0.67059773  0.66537752  1
  Hf  Hf0  1  0.00136206  0.99883134  0.85312002  1
  Hf  Hf1  1  0.99426543  0.99636731  0.64644168  1
  Hf  Hf2  1  0.00047215  0.99865485  0.14828740  1
  Hf  Hf3  1  0.66998999  0.33545699  0.98054004  1
  Hf  Hf4  1  0.67919371  0.34411889  0.48059708  1
  Hf  Hf5  1  0.33277152  0.66106124  0.01906668  1
  Hf  Hf6  1  0.33358084  0.65886962  0.51943940  1
  Hf  Hf7  1  0.33333832  0.67017134  0.31381121  1
  Hf  Hf8  1  0.33818397  0.67103074  0.81325946  1
  Mg  Mg0  1  0.99886813  0.00105245  0.35280963  1
  Mg  Mg1  1  0.66526743  0.34235113  0.68661501  1
  Mg  Mg2  1  0.66163886  0.32799749  0.18395419  1
  P  P0  1  0.29875134  0.00654501  0.25285518  1
  P  P1  1  0.29502056  0.28960099  0.74975912  1
  P  P2  1  0.99779962  0.70595918  0.74991323  1
  P  P3  1  0.70724150  0.00260094  0.74964695  1
  P  P4  1  0.95870305  0.33430393  0.58738048  1
  P  P5  1  0.66659222  0.62264645  0.58575280  1
  P  P6  1  0.95524206  0.62037163  0.08634823  1
  P  P7  1  0.66824911  0.04419165  0.08462001  1
  P  P8  1  0.37948278  0.33495259  0.08602042  1
  P  P9  1  0.62600413  0.66643153  0.91669217  1
  P  P10  1  0.04017572  0.37437092  0.91471097  1
  P  P11  1  0.33433214  0.95986975  0.91837843  1
  P  P12  1  0.62879950  0.95802566  0.41725869  1
  P  P13  1  0.33072621  0.37060609  0.41564318  1
  P  P14  1  0.04338115  0.66987001  0.41633931  1
  S  S0  1  0.71025912  0.70586616  0.25196221  1
  S  S1  1  0.99625843  0.29035051  0.25167480  1
  S  S2  1  0.37808860  0.04402155  0.58367996  1
  O  O0  1  0.20714111  0.01810972  0.30753941  1
  O  O1  1  0.81101395  0.79457944  0.30372112  1
  O  O2  1  0.97874102  0.18720546  0.30341191  1
  O  O3  1  0.19961673  0.18086233  0.80469865  1
  O  O4  1  0.98288322  0.80062666  0.80442156  1
  O  O5  1  0.82315241  0.02348716  0.80346837  1
  O  O6  1  0.79528083  0.97420156  0.69518743  1
  O  O7  1  0.17267825  0.20203507  0.69639776  1
  O  O8  1  0.02424651  0.82033456  0.69552414  1
  O  O9  1  0.79156111  0.81562895  0.19820046  1
  O  O10  1  0.01856279  0.20529350  0.19792710  1
  O  O11  1  0.18306069  0.98202558  0.19672871  1
  O  O12  1  0.88119521  0.35679454  0.64321821  1
  O  O13  1  0.48360106  0.12566775  0.63466863  1
  O  O14  1  0.63795541  0.51422461  0.63922954  1
  O  O15  1  0.87525719  0.51311165  0.14009445  1
  O  O16  1  0.62776427  0.12009762  0.13726890  1
  O  O17  1  0.48568323  0.36266144  0.14007584  1
  O  O18  1  0.46064918  0.30095905  0.03058862  1
  O  O19  1  0.84798154  0.53965202  0.02977615  1
  O  O20  1  0.69478670  0.15374701  0.02855567  1
  O  O21  1  0.45563551  0.14351109  0.52838888  1
  O  O22  1  0.68622837  0.53498399  0.52926609  1
  O  O23  1  0.84424548  0.31187162  0.53251656  1
  O  O24  1  0.53712499  0.68979074  0.97097066  1
  O  O25  1  0.15493372  0.46713659  0.96832241  1
  O  O26  1  0.31238183  0.85327438  0.97441682  1
  O  O27  1  0.53414601  0.84610694  0.47141284  1
  O  O28  1  0.31316860  0.46385527  0.47035044  1
  O  O29  1  0.15867645  0.69104765  0.47009063  1
  O  O30  1  0.13104354  0.64126410  0.36188141  1
  O  O31  1  0.50584973  0.87127551  0.36339515  1
  O  O32  1  0.35930547  0.48763147  0.36174793  1
  O  O33  1  0.12559715  0.48090582  0.85886174  1
  O  O34  1  0.35521951  0.86578239  0.86495748  1
  O  O35  1  0.51451623  0.64368196  0.86216095  1
  O  O36  1  0.02815658  0.83295542  0.41110158  1
  O  O37  1  0.80785727  0.98017064  0.41008180  1
  O  O38  1  0.17217618  0.18858864  0.41144760  1
  O  O39  1  0.02175156  0.19190288  0.91114993  1
  O  O40  1  0.17030779  0.97708449  0.91176464  1
  O  O41  1  0.80723174  0.83034931  0.91113542  1
  O  O42  1  0.98214810  0.17088603  0.58839489  1
  O  O43  1  0.20076563  0.02442008  0.58784142  1
  O  O44  1  0.83345153  0.80676968  0.58789161  1
  O  O45  1  0.98333398  0.81123362  0.09059329  1
  O  O46  1  0.82954492  0.02028248  0.09092367  1
  O  O47  1  0.19365257  0.16585327  0.09074805  1
  O  O48  1  0.69372652  0.16653311  0.74434284  1
  O  O49  1  0.47326374  0.30893787  0.74474862  1
  O  O50  1  0.84099897  0.52281395  0.74680096  1
  O  O51  1  0.69140057  0.53338493  0.24506921  1
  O  O52  1  0.84713214  0.31679796  0.24463557  1
  O  O53  1  0.48010614  0.16399359  0.24581541  1
  O  O54  1  0.64310446  0.50243937  0.92298620  1
  O  O55  1  0.85975469  0.35778896  0.92208080  1
  O  O56  1  0.49809839  0.14174663  0.92279549  1
  O  O57  1  0.63050702  0.13496805  0.42431356  1
  O  O58  1  0.49598226  0.35126189  0.42323034  1
  O  O59  1  0.86301708  0.50207614  0.42212161  1
  O  O60  1  0.34823183  0.49028627  0.07612850  1
  O  O61  1  0.14596026  0.65567499  0.07683657  1
  O  O62  1  0.50409963  0.85952860  0.07484398  1
  O  O63  1  0.35406931  0.86510861  0.57718583  1
  O  O64  1  0.50879937  0.65265569  0.57656025  1
  O  O65  1  0.14183802  0.49752767  0.57700544  1
  O  O66  1  0.30969620  0.83293629  0.25473067  1
  O  O67  1  0.53193697  0.68968960  0.25463024  1
  O  O68  1  0.16248105  0.46523301  0.25432578  1
  O  O69  1  0.29928567  0.46877202  0.75586293  1
  O  O70  1  0.16521558  0.68906619  0.75564431  1
  O  O71  1  0.52677749  0.83561277  0.75557038  1
loop_
_geom_bond_atom_site_label_1
_geom_bond_atom_site_label_2
_geom_bond_distance
_geom_bond_site_symmetry_2
Na0 O48 2.320468 1_555
Na0 O50 2.371386 1_555
Na0 O69 2.423534 1_655
Na0 O12 2.473245 1_555
Na0 O70 2.514729 1_655
Na0 O7 2.843078 1_655
Na0 O33 2.879747 1_655
Na0 O5 2.950830 1_555
Na1 O62 2.390910 1_555
Na1 O47 2.392185 1_565
Na1 O61 2.486693 1_555
Na1 O45 2.553327 1_455
Na1 O16 2.657109 1_565
Na1 O11 2.781651 1_555
Na1 O18 2.794426 1_565
Na1 O26 2.802961 1_554
Na2 O36 2.330606 1_545
Na2 O38 2.379626 1_555
Na2 O57 2.406290 1_555
Na2 O58 2.473442 1_555
Na2 O0 2.502362 1_555
Na2 O31 2.804951 1_545
Na2 O21 2.963720 1_555
Na2 O29 2.979296 1_545
Na3 O37 2.371503 1_555
Na3 O38 2.530479 1_665
Na3 O36 2.555360 1_655
Na3 O42 2.654860 1_565
Na3 O44 2.659027 1_555
Na3 O43 2.870442 1_665
Na4 O41 2.522674 1_545
Na4 O39 2.528178 1_655
Na4 O46 2.584078 1_556
Na4 O40 2.648308 1_645
Na4 O45 2.693869 1_546
Na4 O47 2.708043 1_656
Na5 O49 2.379974 1_555
Na5 O50 2.485643 1_555
Na5 O48 2.534223 1_555
Na5 O54 2.691918 1_555
Na5 O56 2.696212 1_555
Na5 O55 2.805828 1_555
Na6 O53 2.400317 1_555
Na6 O51 2.453157 1_555
Na6 O52 2.473602 1_555
Na6 O59 2.766206 1_555
Na6 O58 2.779819 1_555
Na6 O57 2.817267 1_555
Na7 O68 2.562151 1_555
Na7 O67 2.579568 1_555
Na7 O66 2.598933 1_555
Na7 O60 2.609223 1_555
Na7 O61 2.650547 1_555
Na7 O62 2.701245 1_555
Na8 O64 2.536597 1_555
Na8 O71 2.568980 1_555
Na8 O69 2.626867 1_555
Na8 O63 2.635022 1_555
Na8 O65 2.640851 1_555
Na8 O70 2.680731 1_555
Hf0 O4 2.015624 1_455
Hf0 O3 2.021408 1_565
Hf0 O5 2.042261 1_465
Hf0 O40 2.088550 1_555
Hf0 O41 2.094800 1_455
Hf0 O39 2.100655 1_565
Hf1 O6 2.012639 1_555
Hf1 O8 2.041988 1_655
Hf1 O7 2.060463 1_665
Hf1 O44 2.062652 1_555
Hf1 O42 2.079776 1_565
Hf1 O43 2.181938 1_665
Hf2 O11 2.024957 1_555
Hf2 O45 2.066674 1_455
Hf2 O47 2.080536 1_565
Hf2 O46 2.082870 1_465
Hf2 O9 2.089052 1_455
Hf2 O10 2.090881 1_565
Hf3 O19 2.043600 1_556
Hf3 O20 2.047397 1_556
Hf3 O18 2.070004 1_556
Hf3 O54 2.079610 1_555
Hf3 O55 2.081025 1_555
Hf3 O56 2.097148 1_555
Hf4 O22 1.999114 1_555
Hf4 O23 2.010936 1_555
Hf4 O59 2.031967 1_555
Hf4 O58 2.111920 1_555
Hf4 O57 2.116207 1_555
Hf4 O21 2.182446 1_555
Hf5 O25 2.018948 1_554
Hf5 O24 2.024707 1_554
Hf5 O60 2.052598 1_555
Hf5 O26 2.067450 1_554
Hf5 O62 2.087266 1_555
Hf5 O61 2.101813 1_555
Hf6 O28 1.991354 1_555
Hf6 O27 2.043102 1_555
Hf6 O29 2.047822 1_555
Hf6 O64 2.050078 1_555
Hf6 O65 2.059837 1_555
Hf6 O63 2.187491 1_555
Hf7 O30 2.008737 1_555
Hf7 O31 2.018649 1_555
Hf7 O32 2.057784 1_555
Hf7 O66 2.060672 1_555
Hf7 O67 2.159582 1_555
Hf7 O68 2.166449 1_555
Hf8 O35 2.030864 1_555
Hf8 O34 2.034113 1_555
Hf8 O71 2.056910 1_555
Hf8 O33 2.075112 1_555
Hf8 O70 2.086203 1_555
Hf8 O69 2.106381 1_555
Mg0 O0 2.056068 1_655
Mg0 O37 2.076139 1_545
Mg0 O2 2.077145 1_555
Mg0 O1 2.081753 1_545
Mg0 O38 2.090147 1_655
Mg0 O36 2.107906 1_645
Mg1 O14 1.978170 1_555
Mg1 O49 2.062913 1_555
Mg1 O50 2.095044 1_555
Mg1 O12 2.102972 1_555
Mg1 O13 2.144568 1_555
Mg1 O48 2.149247 1_555
Mg2 O17 2.001331 1_555
Mg2 O16 2.017097 1_555
Mg2 O15 2.044504 1_555
Mg2 O53 2.090884 1_555
Mg2 O52 2.190199 1_555
Mg2 O51 2.203750 1_555
O0 P0 1.524282 1_555
O1 S0 1.455114 1_555
O2 S1 1.455570 1_555
O3 P1 1.553195 1_555
O4 P2 1.546120 1_555
O5 P3 1.554164 1_555
O6 P3 1.557508 1_565
O7 P1 1.558253 1_555
O8 P2 1.546959 1_455
O9 S0 1.510071 1_555
O10 S1 1.507181 1_455
O11 P0 1.588938 1_565
O12 P4 1.511856 1_555
O13 S2 1.443485 1_555
O14 P5 1.496996 1_555
O15 P6 1.499077 1_555
O16 P7 1.508905 1_555
O17 P8 1.498336 1_555
O18 P8 1.561473 1_555
O19 P6 1.553222 1_555
O20 P7 1.554118 1_555
O21 S2 1.499130 1_555
O22 P5 1.562939 1_555
O23 P4 1.562816 1_555
O24 P9 1.540610 1_555
O25 P10 1.542763 1_555
O26 P11 1.546137 1_555
O27 P12 1.547241 1_555
O28 P13 1.550943 1_555
O29 P14 1.549086 1_555
O30 P14 1.556290 1_555
O31 P12 1.568628 1_555
O32 P13 1.548308 1_555
O33 P10 1.544658 1_555
O34 P11 1.542889 1_555
O35 P9 1.540890 1_555
O36 P14 1.519462 1_555
O37 P12 1.506910 1_555
O38 P13 1.522129 1_555
O39 P10 1.541768 1_555
O40 P11 1.541699 1_555
O41 P9 1.540160 1_555
O42 P4 1.560161 1_555
O43 S2 1.494676 1_555
O44 P5 1.561001 1_555
O45 P6 1.582410 1_555
O46 P7 1.551608 1_555
O47 P8 1.581404 1_555
O48 P3 1.518564 1_555
O49 P1 1.505110 1_555
O50 P2 1.520789 1_555
O51 S0 1.458681 1_555
O52 S1 1.460527 1_555
O53 P0 1.520851 1_555
O54 P9 1.538897 1_555
O55 P10 1.539489 1_655
O56 P11 1.540536 1_545
O57 P12 1.566602 1_545
O58 P13 1.565594 1_555
O59 P14 1.551122 1_655
O60 P8 1.547929 1_555
O61 P6 1.572354 1_455
O62 P7 1.568945 1_565
O63 S2 1.495825 1_565
O64 P5 1.561259 1_555
O65 P4 1.560388 1_455
O66 P0 1.587272 1_565
O67 S0 1.514302 1_555
O68 S1 1.513598 1_455
O69 P1 1.573149 1_555
O70 P2 1.568076 1_455
O71 P3 1.548751 1_565
