# generated using pymatgen
data_LiCoPO4
_symmetry_space_group_name_H-M   'P 1'
_cell_length_a   5.32105700
_cell_length_b   8.09355500
_cell_length_c   8.46785218
_cell_angle_alpha   75.26653755
_cell_angle_beta   90.00000000
_cell_angle_gamma   90.00000000
_symmetry_Int_Tables_number   1
_chemical_formula_structural   LiCoPO4
_chemical_formula_sum   'Li4 Co4 P4 O16'
_cell_volume   352.68792455
_cell_formula_units_Z   4
loop_
 _symmetry_equiv_pos_site_id
 _symmetry_equiv_pos_as_xyz
  1  'x, y, z'
loop_
 _atom_site_type_symbol
 _atom_site_label
 _atom_site_symmetry_multiplicity
 _atom_site_fract_x
 _atom_site_fract_y
 _atom_site_fract_z
 _atom_site_occupancy
  Li  Li0  1  0.84902300  0.03173000  0.07289800  1
  Li  Li1  1  0.66656600  0.50051100  0.77974200  1
  Li  Li2  1  0.15097700  0.03173000  0.57289800  1
  Li  Li3  1  0.33343400  0.50051100  0.27974200  1
  Co  Co0  1  0.33633500  0.13314100  0.20636700  1
  Co  Co1  1  0.66366500  0.13314100  0.70636700  1
  Co  Co2  1  0.82492200  0.63508200  0.38480100  1
  Co  Co3  1  0.17507800  0.63508200  0.88480100  1
  P  P0  1  0.82978000  0.25830200  0.33080900  1
  P  P1  1  0.67161800  0.75362200  0.00921200  1
  P  P2  1  0.32838200  0.75362200  0.50921200  1
  P  P3  1  0.17022000  0.25830200  0.83080900  1
  O  O0  1  0.79941400  0.78284200  0.16526700  1
  O  O1  1  0.20058600  0.78284200  0.66526700  1
  O  O2  1  0.59934700  0.68414100  0.55174700  1
  O  O3  1  0.68557100  0.42039100  0.34399600  1
  O  O4  1  0.29866500  0.18238300  0.69933900  1
  O  O5  1  0.70133500  0.18238300  0.19933900  1
  O  O6  1  0.68513200  0.93391300  0.89125900  1
  O  O7  1  0.31486800  0.93391300  0.39125900  1
  O  O8  1  0.40065300  0.68414100  0.05174700  1
  O  O9  1  0.31442900  0.42039100  0.84399600  1
  O  O10  1  0.81481300  0.62156500  0.93717100  1
  O  O11  1  0.17767200  0.12345900  0.99924500  1
  O  O12  1  0.88978200  0.30012000  0.78194700  1
  O  O13  1  0.18518700  0.62156500  0.43717100  1
  O  O14  1  0.82232800  0.12345900  0.49924500  1
  O  O15  1  0.11021800  0.30012000  0.28194700  1
loop_
_geom_bond_atom_site_label_1
_geom_bond_atom_site_label_2
_geom_bond_distance
_geom_bond_site_symmetry_2
Li0 O11 1.939794 1_654
Li0 O5 1.978563 1_555
Li0 O0 1.984392 1_545
Li0 O6 2.091024 1_544
Li1 O10 2.005901 1_555
Li1 O12 2.006530 1_555
Li1 O9 2.011959 1_555
Li1 O2 2.145840 1_555
Li2 O14 1.939794 1_455
Li2 O4 1.978563 1_555
Li2 O1 1.984392 1_545
Li2 O7 2.091024 1_545
Li3 O13 2.005901 1_555
Li3 O15 2.006530 1_555
Li3 O3 2.011959 1_555
Li3 O8 2.145840 1_555
Co0 O7 1.944277 1_545
Co0 O11 1.965936 1_554
Co0 O5 1.980505 1_555
Co0 O15 2.030669 1_555
Co1 O6 1.944277 1_545
Co1 O14 1.965936 1_555
Co1 O4 1.980505 1_555
Co1 O12 2.030669 1_555
Co2 O0 1.942580 1_555
Co2 O13 1.964384 1_655
Co2 O2 1.970370 1_555
Co2 O3 1.998474 1_555
Co3 O1 1.942580 1_555
Co3 O10 1.964384 1_455
Co3 O8 1.970370 1_556
Co3 O9 1.998474 1_555
O0 P1 1.556770 1_555
O1 P2 1.556770 1_555
O2 P2 1.556209 1_555
O3 P0 1.548166 1_555
O4 P3 1.559482 1_555
O5 P0 1.559482 1_555
O6 P1 1.546192 1_556
O7 P2 1.546192 1_555
O8 P1 1.556209 1_555
O9 P3 1.548166 1_555
O10 P1 1.557788 1_556
O11 P3 1.560509 1_555
O12 P3 1.562452 1_655
O13 P2 1.557788 1_555
O14 P0 1.560509 1_555
O15 P0 1.562452 1_455
