# generated using pymatgen
data_SnAsF7
_symmetry_space_group_name_H-M   'P 1'
_cell_length_a   7.86622503
_cell_length_b   7.86622503
_cell_length_c   7.86622522
_cell_angle_alpha   72.92053942
_cell_angle_beta   72.92053942
_cell_angle_gamma   72.92053892
_symmetry_Int_Tables_number   1
_chemical_formula_structural   SnAsF7
_chemical_formula_sum   'Sn3 As3 F21'
_cell_volume   433.14399378
_cell_formula_units_Z   3
loop_
 _symmetry_equiv_pos_site_id
 _symmetry_equiv_pos_as_xyz
  1  'x, y, z'
loop_
 _atom_site_type_symbol
 _atom_site_label
 _atom_site_symmetry_multiplicity
 _atom_site_fract_x
 _atom_site_fract_y
 _atom_site_fract_z
 _atom_site_occupancy
  Sn  Sn0  1  0.50000000  0.24150700  0.75849300  1
  Sn  Sn1  1  0.75849300  0.50000000  0.24150700  1
  Sn  Sn2  1  0.24150700  0.75849300  0.50000000  1
  As  As0  1  0.70093300  0.70093300  0.70093300  1
  As  As1  1  0.29906700  0.29906700  0.29906700  1
  As  As2  1  0.00000000  0.00000000  0.00000000  1
  F  F0  1  0.32074800  0.50000000  0.67925200  1
  F  F1  1  0.67925200  0.32074800  0.50000000  1
  F  F2  1  0.50000000  0.67925200  0.32074800  1
  F  F3  1  0.79842700  0.63602100  0.48646400  1
  F  F4  1  0.48646400  0.79842700  0.63602100  1
  F  F5  1  0.63602100  0.48646400  0.79842700  1
  F  F6  1  0.15001300  0.14895500  0.88103800  1
  F  F7  1  0.14895500  0.88103800  0.15001300  1
  F  F8  1  0.88103800  0.15001300  0.14895500  1
  F  F9  1  0.85104500  0.84998700  0.11896200  1
  F  F10  1  0.84998700  0.11896200  0.85104500  1
  F  F11  1  0.11896200  0.85104500  0.84998700  1
  F  F12  1  0.23911300  0.39721100  0.08635900  1
  F  F13  1  0.39721100  0.08635900  0.23911300  1
  F  F14  1  0.08635900  0.23911300  0.39721100  1
  F  F15  1  0.60278900  0.76088700  0.91364100  1
  F  F16  1  0.76088700  0.91364100  0.60278900  1
  F  F17  1  0.91364100  0.60278900  0.76088700  1
  F  F18  1  0.51353600  0.36397900  0.20157300  1
  F  F19  1  0.36397900  0.20157300  0.51353600  1
  F  F20  1  0.20157300  0.51353600  0.36397900  1
loop_
_geom_bond_atom_site_label_1
_geom_bond_atom_site_label_2
_geom_bond_distance
_geom_bond_site_symmetry_2
As0 F17 1.763219 1_555
As0 F16 1.763219 1_555
As0 F15 1.763219 1_555
As0 F4 1.791940 1_555
As0 F5 1.791940 1_555
As0 F3 1.791940 1_555
As1 F13 1.763219 1_555
As1 F14 1.763219 1_555
As1 F12 1.763219 1_555
As1 F20 1.791940 1_555
As1 F18 1.791940 1_555
As1 F19 1.791940 1_555
As2 F9 1.777797 1_445
As2 F6 1.777797 1_554
As2 F10 1.777797 1_454
As2 F8 1.777797 1_455
As2 F11 1.777797 1_544
As2 F7 1.777797 1_545
F0 Sn0 2.144517 1_555
F0 Sn2 2.144517 1_555
F1 Sn0 2.144517 1_555
F1 Sn1 2.144517 1_555
F2 Sn1 2.144517 1_555
F2 Sn2 2.144517 1_555
F3 Sn1 2.592379 1_555
F4 Sn2 2.592379 1_555
F5 Sn0 2.592379 1_555
F18 Sn1 2.592379 1_555
F19 Sn0 2.592379 1_555
F20 Sn2 2.592379 1_555
