# generated using pymatgen
data_Na2La3TaSi2(SO6)4
_symmetry_space_group_name_H-M   'P 1'
_cell_length_a   9.35640994
_cell_length_b   9.36297416
_cell_length_c   24.56680722
_cell_angle_alpha   90.68106292
_cell_angle_beta   89.76111022
_cell_angle_gamma   120.00781183
_symmetry_Int_Tables_number   1
_chemical_formula_structural   Na2La3TaSi2(SO6)4
_chemical_formula_sum   'Na6 La9 Ta3 Si6 S12 O72'
_cell_volume   1863.53102930
_cell_formula_units_Z   3
loop_
 _symmetry_equiv_pos_site_id
 _symmetry_equiv_pos_as_xyz
  1  'x, y, z'
loop_
 _atom_site_type_symbol
 _atom_site_label
 _atom_site_symmetry_multiplicity
 _atom_site_fract_x
 _atom_site_fract_y
 _atom_site_fract_z
 _atom_site_occupancy
  Na  Na0  1  0.00146800  0.97392033  0.49805779  1
  Na  Na1  1  0.99458316  0.95757634  0.99730128  1
  Na  Na2  1  0.64076383  0.32572977  0.83876172  1
  Na  Na3  1  0.70640825  0.34408094  0.32870386  1
  Na  Na4  1  0.29730724  0.65211168  0.15598792  1
  Na  Na5  1  0.32512721  0.64862629  0.67810618  1
  La  La0  1  0.99746514  0.99739555  0.34902915  1
  La  La1  1  0.01538315  0.00112376  0.85406975  1
  La  La2  1  0.01660614  0.02172670  0.66006121  1
  La  La3  1  0.99658444  0.99842136  0.14461594  1
  La  La4  1  0.65507839  0.33587306  0.68978036  1
  La  La5  1  0.68883800  0.34391981  0.18656674  1
  La  La6  1  0.68345104  0.34827763  0.47437506  1
  La  La7  1  0.32923488  0.67450660  0.01759617  1
  La  La8  1  0.32156181  0.66711444  0.51845091  1
  Ta  Ta0  1  0.66481204  0.34570168  0.97801179  1
  Ta  Ta1  1  0.31458665  0.65719390  0.31533681  1
  Ta  Ta2  1  0.34652334  0.66802075  0.82613607  1
  Si  Si0  1  0.00582293  0.30147984  0.25323487  1
  Si  Si1  1  0.30425982  0.32595988  0.75515518  1
  Si  Si2  1  0.95263529  0.62787999  0.07932189  1
  Si  Si3  1  0.62671654  0.65955091  0.92080853  1
  Si  Si4  1  0.35711735  0.97474276  0.91823055  1
  Si  Si5  1  0.03886014  0.66818094  0.41386853  1
  S  S0  1  0.30499759  0.98106638  0.25429079  1
  S  S1  1  0.67377490  0.69574344  0.25422829  1
  S  S2  1  0.02134331  0.69690845  0.75259802  1
  S  S3  1  0.67726904  0.97929287  0.75554410  1
  S  S4  1  0.96221544  0.32554229  0.58424858  1
  S  S5  1  0.36495728  0.03829406  0.58233961  1
  S  S6  1  0.67289762  0.64144832  0.58338538  1
  S  S7  1  0.67472654  0.05458151  0.07800110  1
  S  S8  1  0.38308988  0.32532864  0.07764924  1
  S  S9  1  0.02879805  0.38685530  0.91430379  1
  S  S10  1  0.61314804  0.95154433  0.41193889  1
  S  S11  1  0.34108505  0.38812026  0.41047140  1
  O  O0  1  0.22376598  0.00155648  0.30224799  1
  O  O1  1  0.78238343  0.77213986  0.30145081  1
  O  O2  1  0.99306366  0.19737278  0.30645681  1
  O  O3  1  0.20761682  0.19845809  0.80277824  1
  O  O4  1  0.98586479  0.77132520  0.79951979  1
  O  O5  1  0.78597685  0.00693611  0.80181639  1
  O  O6  1  0.74377657  0.94927197  0.70426079  1
  O  O7  1  0.20130045  0.25378814  0.69707041  1
  O  O8  1  0.04196066  0.79286655  0.70222289  1
  O  O9  1  0.74479117  0.79273882  0.20432055  1
  O  O10  1  0.03559019  0.22307384  0.19750326  1
  O  O11  1  0.20401252  0.94395066  0.20447376  1
  O  O12  1  0.87486997  0.33391907  0.63332051  1
  O  O13  1  0.45696650  0.12611381  0.63224768  1
  O  O14  1  0.66366844  0.54489767  0.63212751  1
  O  O15  1  0.85631698  0.53468971  0.13413548  1
  O  O16  1  0.66287455  0.12934812  0.12975805  1
  O  O17  1  0.47077628  0.32879130  0.12713443  1
  O  O18  1  0.48049242  0.31958077  0.02705470  1
  O  O19  1  0.83254528  0.50620292  0.02460771  1
  O  O20  1  0.67236131  0.15239307  0.03020017  1
  O  O21  1  0.45259521  0.12965299  0.53280667  1
  O  O22  1  0.68056077  0.55383874  0.53308732  1
  O  O23  1  0.87103551  0.32091033  0.53399245  1
  O  O24  1  0.53841497  0.67279285  0.97356021  1
  O  O25  1  0.11916254  0.44837318  0.96479285  1
  O  O26  1  0.32012653  0.86494924  0.97080822  1
  O  O27  1  0.53731909  0.86624105  0.46324726  1
  O  O28  1  0.33556101  0.46645486  0.46208981  1
  O  O29  1  0.13436582  0.67037003  0.46892211  1
  O  O30  1  0.15942726  0.66499028  0.36130640  1
  O  O31  1  0.51316477  0.84995961  0.36402322  1
  O  O32  1  0.34552653  0.49422522  0.36326184  1
  O  O33  1  0.12943640  0.50021620  0.86712869  1
  O  O34  1  0.37064646  0.86085188  0.86451786  1
  O  O35  1  0.49526592  0.63391099  0.86650816  1
  O  O36  1  0.02060870  0.83054026  0.41293648  1
  O  O37  1  0.78103849  0.97538899  0.40995205  1
  O  O38  1  0.19394087  0.22434237  0.40736313  1
  O  O39  1  0.99588159  0.21850377  0.90360365  1
  O  O40  1  0.21105248  0.01487927  0.90836645  1
  O  O41  1  0.80807125  0.80730375  0.90879848  1
  O  O42  1  0.97621754  0.17346227  0.58451962  1
  O  O43  1  0.19637578  0.01920782  0.58365548  1
  O  O44  1  0.82402240  0.80758977  0.58554164  1
  O  O45  1  0.96294025  0.80865884  0.07735888  1
  O  O46  1  0.83191648  0.05016034  0.07672712  1
  O  O47  1  0.21950970  0.17216792  0.07463577  1
  O  O48  1  0.64892085  0.12101253  0.74938392  1
  O  O49  1  0.49381585  0.35955895  0.74981936  1
  O  O50  1  0.88136283  0.52488985  0.74574453  1
  O  O51  1  0.63852993  0.52378179  0.24906162  1
  O  O52  1  0.85741815  0.34364225  0.25276542  1
  O  O53  1  0.47199806  0.12301688  0.24919061  1
  O  O54  1  0.63569713  0.48226377  0.92783597  1
  O  O55  1  0.86714621  0.38527593  0.91665253  1
  O  O56  1  0.53485594  0.15556716  0.92809613  1
  O  O57  1  0.61944884  0.11360089  0.41042098  1
  O  O58  1  0.49376491  0.37741300  0.40734065  1
  O  O59  1  0.86190906  0.49435334  0.40905127  1
  O  O60  1  0.36716783  0.47279987  0.07548683  1
  O  O61  1  0.13109083  0.63941773  0.08088190  1
  O  O62  1  0.53306602  0.88459238  0.07736814  1
  O  O63  1  0.34975527  0.87236536  0.58327291  1
  O  O64  1  0.52269150  0.65681053  0.58227504  1
  O  O65  1  0.13043584  0.47374329  0.58418385  1
  O  O66  1  0.32481285  0.82939517  0.26404424  1
  O  O67  1  0.51136531  0.68930604  0.26533472  1
  O  O68  1  0.17878473  0.49234299  0.26694083  1
  O  O69  1  0.31455396  0.50669581  0.76953117  1
  O  O70  1  0.17641068  0.68984941  0.76145419  1
  O  O71  1  0.51034080  0.82510655  0.76507597  1
loop_
_geom_bond_atom_site_label_1
_geom_bond_atom_site_label_2
_geom_bond_distance
_geom_bond_site_symmetry_2
Na0 O36 2.525439 1_555
Na0 O43 2.676716 1_565
Na0 O44 2.695263 1_455
Na0 O42 2.898468 1_465
Na0 O37 3.000843 1_455
Na0 O38 3.093912 1_565
Na1 O45 2.355278 1_556
Na1 O41 2.693556 1_555
Na1 O47 2.790798 1_666
Na1 O40 2.840352 1_665
Na1 O46 2.851293 1_566
Na2 O56 2.612028 1_555
Na2 O54 2.632720 1_555
Na2 O49 2.691123 1_555
Na2 O55 2.699283 1_555
Na2 O48 2.923336 1_555
Na3 O52 2.336730 1_555
Na3 O59 2.429613 1_555
Na3 O57 2.771678 1_555
Na3 O51 2.867024 1_555
Na3 O53 2.882549 1_555
Na3 O58 2.891811 1_555
Na4 O61 2.381390 1_555
Na4 O60 2.857445 1_555
Na4 O62 2.931909 1_555
Na4 O68 3.051184 1_555
Na4 O66 3.056478 1_555
Na5 O69 2.599606 1_555
Na5 O70 2.602383 1_555
Na5 O71 2.716828 1_555
Na5 O65 2.878397 1_555
Na5 O64 2.965077 1_555
Na5 O63 3.081883 1_555
La0 O2 2.173795 1_565
La0 O36 2.313432 1_655
La0 O1 2.362165 1_555
La0 O0 2.388266 1_665
La0 O37 2.438803 1_555
La0 O38 2.447594 1_665
La1 O40 2.219909 1_555
La1 O3 2.224641 1_555
La1 O41 2.319219 1_445
La1 O4 2.416967 1_445
La1 O39 2.442823 1_455
La1 O5 2.529710 1_455
La2 O7 2.178164 1_555
La2 O42 2.492139 1_455
La2 O8 2.506795 1_545
La2 O43 2.522949 1_555
La2 O6 2.533343 1_445
La2 O44 2.635307 1_445
La3 O45 2.315402 1_555
La3 O10 2.327404 1_665
La3 O46 2.485398 1_565
La3 O47 2.568110 1_665
La3 O9 2.628793 1_555
La3 O11 2.687161 1_655
La4 O49 2.193094 1_555
La4 O13 2.367553 1_555
La4 O50 2.392376 1_555
La4 O14 2.397983 1_555
La4 O48 2.479490 1_555
La4 O12 2.483240 1_555
La5 O15 2.131501 1_555
La5 O52 2.271191 1_555
La5 O16 2.343277 1_555
La5 O17 2.458744 1_555
La5 O51 2.477920 1_555
La5 O53 2.571642 1_555
La6 O59 2.231497 1_555
La6 O22 2.402340 1_555
La6 O23 2.402367 1_555
La6 O57 2.502954 1_555
La6 O58 2.540787 1_555
La6 O21 2.556903 1_555
La7 O26 2.170131 1_554
La7 O24 2.239302 1_554
La7 O61 2.311062 1_555
La7 O25 2.412951 1_554
La7 O62 2.421772 1_555
La7 O60 2.540434 1_555
La8 O29 2.149695 1_555
La8 O28 2.376315 1_555
La8 O27 2.379735 1_555
La8 O63 2.392152 1_555
La8 O65 2.427051 1_555
La8 O64 2.493783 1_555
O0 S0 1.461341 1_545
O1 S1 1.467374 1_555
O2 Si0 1.608270 1_655
O3 Si1 1.598817 1_555
O4 S2 1.460647 1_655
O5 S3 1.460504 1_545
O6 S3 1.487781 1_555
O7 Si1 1.660802 1_555
O8 S2 1.492334 1_555
O9 S1 1.478385 1_555
O10 Si0 1.633552 1_555
O11 S0 1.477303 1_555
O12 S4 1.476824 1_555
O13 S5 1.482328 1_555
O14 S6 1.485034 1_555
O15 Si2 1.618052 1_555
O16 S7 1.474578 1_555
O17 S8 1.460425 1_555
O18 S8 1.554468 1_555
O18 Ta0 2.013298 1_554
O19 Si2 1.750132 1_555
O19 Ta0 1.909647 1_554
O20 S7 1.504748 1_555
O20 Ta0 2.260191 1_554
O21 S5 1.483131 1_555
O22 S6 1.496284 1_555
O23 S4 1.491479 1_555
O24 Si3 1.570709 1_555
O25 S9 1.445596 1_555
O26 Si4 1.586481 1_555
O27 S10 1.476407 1_555
O28 S11 1.471037 1_555
O29 Si5 1.618411 1_555
O30 Si5 1.720902 1_555
O30 Ta1 1.865102 1_555
O31 S10 1.502671 1_555
O31 Ta1 2.180187 1_555
O32 S11 1.522987 1_555
O32 Ta1 2.070181 1_555
O33 S9 1.541695 1_555
O33 Ta2 2.106376 1_555
O34 Si4 1.730469 1_555
O34 Ta2 1.937388 1_555
O35 Si3 1.749446 1_555
O35 Ta2 1.867115 1_555
O36 Si5 1.612795 1_555
O37 S10 1.472629 1_555
O38 S11 1.462581 1_555
O39 S9 1.467594 1_655
O40 Si4 1.608194 1_545
O41 Si3 1.593005 1_555
O42 S4 1.493849 1_555
O43 S5 1.496223 1_555
O44 S6 1.490156 1_555
O45 Si2 1.647809 1_555
O46 S7 1.492056 1_555
O47 S8 1.485774 1_555
O48 S3 1.486978 1_545
O49 Si1 1.643973 1_555
O50 S2 1.491044 1_655
O51 S1 1.477027 1_555
O52 Si0 1.622505 1_655
O53 S0 1.465862 1_545
O54 Si3 1.714262 1_555
O54 Ta0 1.901896 1_555
O55 S9 1.506011 1_655
O55 Ta0 2.298111 1_555
O56 Si4 1.693554 1_545
O56 Ta0 1.986658 1_555
O57 S10 1.489636 1_545
O58 S11 1.482844 1_555
O59 Si5 1.644937 1_655
O60 S8 1.462565 1_555
O61 Si2 1.618971 1_455
O62 S7 1.476394 1_565
O63 S5 1.488011 1_565
O64 S6 1.482957 1_555
O65 S4 1.489376 1_455
O66 S0 1.542809 1_555
O66 Ta1 2.022263 1_555
O67 S1 1.514100 1_555
O67 Ta1 2.103657 1_555
O68 Si0 1.738789 1_555
O68 Ta1 1.848710 1_555
O69 Si1 1.679489 1_555
O69 Ta2 1.951003 1_555
O70 S2 1.501875 1_555
O70 Ta2 2.335444 1_555
O71 S3 1.525783 1_555
O71 Ta2 2.130981 1_555
