# generated using pymatgen
data_Na7Hf4Si5PO24
_symmetry_space_group_name_H-M   'P 1'
_cell_length_a   9.16911230
_cell_length_b   9.17200111
_cell_length_c   22.79479225
_cell_angle_alpha   89.93323482
_cell_angle_beta   90.02722393
_cell_angle_gamma   120.00720428
_symmetry_Int_Tables_number   1
_chemical_formula_structural   Na7Hf4Si5PO24
_chemical_formula_sum   'Na21 Hf12 Si15 P3 O72'
_cell_volume   1660.06781591
_cell_formula_units_Z   3
loop_
 _symmetry_equiv_pos_site_id
 _symmetry_equiv_pos_as_xyz
  1  'x, y, z'
loop_
 _atom_site_type_symbol
 _atom_site_label
 _atom_site_symmetry_multiplicity
 _atom_site_fract_x
 _atom_site_fract_y
 _atom_site_fract_z
 _atom_site_occupancy
  Na  Na0  1  0.63696993  0.00088252  0.25124143  1
  Na  Na1  1  0.36358474  0.36402800  0.24824958  1
  Na  Na2  1  0.00028181  0.63384969  0.25043635  1
  Na  Na3  1  0.63481676  0.63407887  0.74897016  1
  Na  Na4  1  0.99896936  0.36447574  0.75029411  1
  Na  Na5  1  0.36665396  0.00161564  0.75048940  1
  Na  Na6  1  0.30143074  0.33241012  0.58412075  1
  Na  Na7  1  0.03142015  0.69961319  0.58311737  1
  Na  Na8  1  0.66831286  0.96801873  0.58344033  1
  Na  Na9  1  0.29567536  0.96862783  0.08162632  1
  Na  Na10  1  0.03709768  0.33685315  0.08493235  1
  Na  Na11  1  0.97287699  0.66913983  0.91722813  1
  Na  Na12  1  0.32997967  0.29575849  0.91806948  1
  Na  Na13  1  0.33105634  0.02870946  0.41672031  1
  Na  Na14  1  0.70296502  0.66863605  0.41804472  1
  Na  Na15  1  0.99628992  0.00441304  0.49923101  1
  Na  Na16  1  0.98953188  0.99421872  0.00004253  1
  Na  Na17  1  0.66775818  0.32037273  0.83402007  1
  Na  Na18  1  0.67927022  0.33132184  0.33460035  1
  Na  Na19  1  0.33975161  0.66232663  0.16584946  1
  Na  Na20  1  0.33429892  0.66632472  0.66676846  1
  Hf  Hf0  1  0.99685042  0.00118195  0.35211612  1
  Hf  Hf1  1  0.99930667  0.00322441  0.85253471  1
  Hf  Hf2  1  -0.00007098  0.99922095  0.64827246  1
  Hf  Hf3  1  0.99869843  0.99531329  0.14769631  1
  Hf  Hf4  1  0.66700351  0.33336925  0.68521720  1
  Hf  Hf5  1  0.66782924  0.33927259  0.18528279  1
  Hf  Hf6  1  0.66633054  0.33068344  0.98103616  1
  Hf  Hf7  1  0.67436591  0.33228155  0.48106053  1
  Hf  Hf8  1  0.33211673  0.66355511  0.01881269  1
  Hf  Hf9  1  0.33351021  0.66968547  0.51837424  1
  Hf  Hf10  1  0.32922569  0.66798936  0.31458393  1
  Hf  Hf11  1  0.33122287  0.67000528  0.81500696  1
  Si  Si0  1  0.29362651  0.00075075  0.25048495  1
  Si  Si1  1  0.70751412  0.70804419  0.25088644  1
  Si  Si2  1  0.99978816  0.29132881  0.24841884  1
  Si  Si3  1  0.29381123  0.29366518  0.75035324  1
  Si  Si4  1  0.99914903  0.70656435  0.75084011  1
  Si  Si5  1  0.70709911  0.99954273  0.74947090  1
  Si  Si6  1  0.96137198  0.33286339  0.58443395  1
  Si  Si7  1  0.37402826  0.04143941  0.58248097  1
  Si  Si8  1  0.66598970  0.62570917  0.58270725  1
  Si  Si9  1  0.96015095  0.62876638  0.08212034  1
  Si  Si10  1  0.37267269  0.33512607  0.08328221  1
  Si  Si11  1  0.03774979  0.37125310  0.91671973  1
  Si  Si12  1  0.33468886  0.96238377  0.91699573  1
  Si  Si13  1  0.62830682  0.96191864  0.41643409  1
  Si  Si14  1  0.03662680  0.66629902  0.41627743  1
  P  P0  1  0.66682137  0.04244251  0.08400481  1
  P  P1  1  0.62483761  0.66716941  0.91677485  1
  P  P2  1  0.33247318  0.37401052  0.41697011  1
  O  O0  1  0.20820157  0.03468332  0.30801699  1
  O  O1  1  0.82642321  0.79099063  0.30906759  1
  O  O2  1  0.96588706  0.16604452  0.30403025  1
  O  O3  1  0.20543531  0.17243322  0.80758874  1
  O  O4  1  0.96751436  0.79401826  0.80813366  1
  O  O5  1  0.83341602  0.03331890  0.80452334  1
  O  O6  1  0.79005480  0.96606087  0.69072081  1
  O  O7  1  0.17410702  0.20811577  0.69245658  1
  O  O8  1  0.03303862  0.82575745  0.69280507  1
  O  O9  1  0.79756884  0.83423823  0.19550170  1
  O  O10  1  0.03326029  0.20864209  0.18991249  1
  O  O11  1  0.17258007  0.96722660  0.19308136  1
  O  O12  1  0.87851837  0.36875702  0.64261696  1
  O  O13  1  0.49335086  0.12678470  0.64043103  1
  O  O14  1  0.63395164  0.50735791  0.64091105  1
  O  O15  1  0.87415746  0.50730213  0.13995267  1
  O  O16  1  0.63703628  0.12212570  0.13987583  1
  O  O17  1  0.48577573  0.35484934  0.14177768  1
  O  O18  1  0.46217620  0.30268401  0.02625573  1
  O  O19  1  0.84576745  0.53431380  0.02448945  1
  O  O20  1  0.69438854  0.15910974  0.03070653  1
  O  O21  1  0.46071352  0.16132700  0.52506386  1
  O  O22  1  0.69707503  0.53733550  0.52542043  1
  O  O23  1  0.83442583  0.29868730  0.52912955  1
  O  O24  1  0.53527502  0.68978152  0.96996659  1
  O  O25  1  0.16003436  0.46281070  0.97394049  1
  O  O26  1  0.30763846  0.84306010  0.97435700  1
  O  O27  1  0.53918492  0.84164648  0.47429360  1
  O  O28  1  0.31036786  0.45948917  0.47216170  1
  O  O29  1  0.15641149  0.69380128  0.47375181  1
  O  O30  1  0.12692044  0.64132912  0.35810998  1
  O  O31  1  0.50902809  0.86898566  0.35877459  1
  O  O32  1  0.35825806  0.48547350  0.36208914  1
  O  O33  1  0.12902351  0.49087616  0.85890532  1
  O  O34  1  0.35948862  0.87263145  0.85847209  1
  O  O35  1  0.51607553  0.63856362  0.86071832  1
  O  O36  1  0.02759308  0.84140592  0.41223062  1
  O  O37  1  0.81123487  0.97213716  0.41182934  1
  O  O38  1  0.17842081  0.19516792  0.41160071  1
  O  O39  1  0.02864831  0.18887782  0.91219826  1
  O  O40  1  0.15993776  0.97258962  0.91246072  1
  O  O41  1  0.80447127  0.81991319  0.91156901  1
  O  O42  1  0.97930186  0.16423619  0.58867687  1
  O  O43  1  0.18650589  0.02142833  0.58830610  1
  O  O44  1  0.83483724  0.81267364  0.58819694  1
  O  O45  1  0.98686326  0.81856768  0.08719212  1
  O  O46  1  0.82907615  0.03176598  0.08901354  1
  O  O47  1  0.18373505  0.16545338  0.08778263  1
  O  O48  1  0.68711503  0.16725936  0.74477014  1
  O  O49  1  0.48008964  0.31033292  0.74496416  1
  O  O50  1  0.83110373  0.51949348  0.74517519  1
  O  O51  1  0.69055195  0.52123313  0.24406716  1
  O  O52  1  0.83124379  0.31035055  0.24353122  1
  O  O53  1  0.48223360  0.16632376  0.24369013  1
  O  O54  1  0.63907186  0.50469813  0.92299815  1
  O  O55  1  0.85657648  0.36505601  0.92229892  1
  O  O56  1  0.49518660  0.15446858  0.92166287  1
  O  O57  1  0.63123328  0.14182671  0.42122493  1
  O  O58  1  0.49469442  0.36004009  0.42172183  1
  O  O59  1  0.84462370  0.50573302  0.42067279  1
  O  O60  1  0.34889528  0.50033100  0.07862441  1
  O  O61  1  0.14971148  0.64782880  0.07723492  1
  O  O62  1  0.50586546  0.86903454  0.07644816  1
  O  O63  1  0.35593512  0.85387496  0.57701170  1
  O  O64  1  0.49627643  0.64246413  0.57739987  1
  O  O65  1  0.14833512  0.50004750  0.57697496  1
  O  O66  1  0.31106258  0.83077589  0.25545475  1
  O  O67  1  0.51822949  0.68362286  0.25697673  1
  O  O68  1  0.16897499  0.47783507  0.25566722  1
  O  O69  1  0.31468684  0.48144517  0.75683338  1
  O  O70  1  0.16883223  0.68845844  0.75572761  1
  O  O71  1  0.52089441  0.82993425  0.75599219  1
loop_
_geom_bond_atom_site_label_1
_geom_bond_atom_site_label_2
_geom_bond_distance
_geom_bond_site_symmetry_2
Na0 O52 2.490502 1_555
Na0 O53 2.549066 1_555
Na0 O67 2.549593 1_545
Na0 O66 2.590341 1_545
Na0 O31 2.724775 1_545
Na0 O16 2.770135 1_555
Na0 O2 2.875665 1_555
Na0 O9 2.894216 1_545
Na1 O68 2.483142 1_555
Na1 O53 2.540920 1_555
Na1 O67 2.546867 1_555
Na1 O51 2.598530 1_555
Na1 O17 2.692601 1_555
Na1 O32 2.835170 1_555
Na1 O10 2.942119 1_555
Na1 O0 2.949312 1_555
Na2 O51 2.493830 1_455
Na2 O66 2.499542 1_555
Na2 O52 2.575257 1_455
Na2 O68 2.582179 1_555
Na2 O30 2.700942 1_555
Na2 O15 2.772843 1_455
Na2 O1 2.951171 1_455
Na2 O11 2.952249 1_555
Na3 O71 2.494279 1_555
Na3 O50 2.498706 1_555
Na3 O69 2.549069 1_555
Na3 O49 2.573962 1_555
Na3 O14 2.723175 1_555
Na3 O35 2.779094 1_555
Na3 O6 2.952625 1_555
Na3 O4 2.966691 1_555
Na4 O48 2.508171 1_555
Na4 O69 2.539080 1_655
Na4 O50 2.567611 1_555
Na4 O70 2.577367 1_655
Na4 O12 2.699323 1_555
Na4 O33 2.741644 1_655
Na4 O5 2.905047 1_555
Na4 O7 2.946797 1_655
Na5 O49 2.483732 1_555
Na5 O70 2.518468 1_545
Na5 O48 2.548300 1_555
Na5 O71 2.592723 1_545
Na5 O34 2.716290 1_545
Na5 O13 2.761070 1_555
Na5 O3 2.942279 1_555
Na5 O8 2.958698 1_545
Na6 O64 2.494002 1_555
Na6 O43 2.499683 1_555
Na6 O65 2.553274 1_555
Na6 O42 2.560664 1_455
Na6 O7 2.725061 1_555
Na6 O28 2.788571 1_555
Na6 O14 2.941799 1_555
Na6 O21 2.950692 1_555
Na7 O44 2.491542 1_455
Na7 O65 2.546098 1_555
Na7 O43 2.559488 1_565
Na7 O63 2.581465 1_555
Na7 O8 2.753168 1_555
Na7 O29 2.755957 1_555
Na7 O12 2.958166 1_455
Na7 O22 2.963120 1_455
Na8 O42 2.500283 1_565
Na8 O63 2.514357 1_555
Na8 O44 2.559051 1_555
Na8 O64 2.590927 1_555
Na8 O6 2.691446 1_555
Na8 O27 2.750749 1_555
Na8 O23 2.902337 1_565
Na8 O13 2.953772 1_565
Na9 O45 2.455589 1_455
Na9 O47 2.487225 1_565
Na9 O62 2.514760 1_555
Na9 O61 2.553530 1_555
Na9 O26 2.729570 1_554
Na9 O11 2.777919 1_555
Na9 O18 2.936968 1_565
Na9 O16 3.022368 1_565
Na10 O46 2.477511 1_455
Na10 O60 2.480834 1_555
Na10 O61 2.507115 1_555
Na10 O47 2.529284 1_555
Na10 O10 2.657572 1_555
Na10 O25 2.774841 1_554
Na10 O15 2.931157 1_455
Na10 O20 2.989475 1_455
Na11 O40 2.434083 1_655
Na11 O55 2.440060 1_555
Na11 O41 2.539410 1_555
Na11 O54 2.653790 1_555
Na11 O19 2.723912 1_556
Na11 O4 2.747363 1_555
Na11 O26 2.960689 1_655
Na11 O33 2.973034 1_655
Na12 O39 2.429730 1_555
Na12 O56 2.437996 1_555
Na12 O54 2.507006 1_555
Na12 O40 2.571267 1_545
Na12 O18 2.734110 1_556
Na12 O3 2.763643 1_555
Na13 O57 2.409605 1_555
Na13 O36 2.433719 1_545
Na13 O38 2.537703 1_555
Na13 O58 2.634292 1_555
Na13 O0 2.733229 1_555
Na13 O21 2.747724 1_555
Na13 O29 2.960204 1_545
Na13 O31 2.991902 1_545
Na14 O59 2.421575 1_555
Na14 O37 2.447401 1_555
Na14 O58 2.501693 1_555
Na14 O36 2.582751 1_655
Na14 O22 2.715182 1_555
Na14 O1 2.727119 1_555
Na15 O37 2.536089 1_545
Na15 O42 2.562398 1_555
Na15 O36 2.585979 1_645
Na15 O44 2.605276 1_545
Na15 O38 2.629181 1_655
Na15 O43 2.629472 1_655
Na16 O45 2.548669 1_555
Na16 O39 2.584137 1_664
Na16 O40 2.603890 1_654
Na16 O41 2.606398 1_554
Na16 O47 2.616142 1_665
Na16 O46 2.628207 1_565
Na17 O56 2.529439 1_555
Na17 O48 2.529614 1_555
Na17 O55 2.550217 1_555
Na17 O49 2.632308 1_555
Na17 O50 2.634093 1_555
Na17 O54 2.737599 1_555
Na18 O59 2.507145 1_555
Na18 O57 2.518124 1_555
Na18 O52 2.561225 1_555
Na18 O51 2.667433 1_555
Na18 O53 2.667889 1_555
Na18 O58 2.706980 1_555
Na19 O60 2.509898 1_555
Na19 O67 2.590193 1_555
Na19 O68 2.617593 1_555
Na19 O61 2.626729 1_555
Na19 O66 2.653789 1_555
Na19 O62 2.678244 1_555
Na20 O64 2.594732 1_555
Na20 O71 2.598346 1_555
Na20 O70 2.601347 1_555
Na20 O69 2.609575 1_555
Na20 O65 2.612617 1_555
Na20 O63 2.614458 1_555
Hf0 O2 1.998448 1_555
Hf0 O1 2.027613 1_545
Hf0 O0 2.065407 1_655
Hf0 O37 2.090007 1_545
Hf0 O36 2.124358 1_645
Hf0 O38 2.194684 1_655
Hf1 O5 2.001309 1_555
Hf1 O3 2.023538 1_655
Hf1 O4 2.058169 1_545
Hf1 O39 2.090080 1_655
Hf1 O40 2.127277 1_645
Hf1 O41 2.195881 1_545
Hf2 O8 2.032972 1_555
Hf2 O6 2.036564 1_455
Hf2 O7 2.044099 1_565
Hf2 O42 2.110269 1_465
Hf2 O43 2.118879 1_565
Hf2 O44 2.123007 1_455
Hf3 O9 2.011004 1_555
Hf3 O11 2.021679 1_655
Hf3 O10 2.058847 1_665
Hf3 O45 2.090700 1_555
Hf3 O47 2.127908 1_665
Hf3 O46 2.199348 1_565
Hf4 O14 2.034251 1_555
Hf4 O13 2.037899 1_555
Hf4 O12 2.044758 1_555
Hf4 O48 2.115182 1_555
Hf4 O49 2.115668 1_555
Hf4 O50 2.116722 1_555
Hf5 O17 2.006728 1_555
Hf5 O15 2.025791 1_555
Hf5 O51 2.069171 1_555
Hf5 O52 2.115011 1_555
Hf5 O53 2.117077 1_555
Hf5 O16 2.135381 1_555
Hf6 O19 2.026216 1_556
Hf6 O18 2.037863 1_556
Hf6 O20 2.055501 1_556
Hf6 O56 2.091101 1_555
Hf6 O55 2.094304 1_555
Hf6 O54 2.180341 1_555
Hf7 O23 1.974694 1_555
Hf7 O22 2.053193 1_555
Hf7 O21 2.056266 1_555
Hf7 O59 2.091812 1_555
Hf7 O57 2.093386 1_555
Hf7 O58 2.241654 1_555
Hf8 O25 2.005739 1_554
Hf8 O26 2.038007 1_554
Hf8 O24 2.078634 1_554
Hf8 O60 2.085477 1_555
Hf8 O61 2.086121 1_555
Hf8 O62 2.194687 1_555
Hf9 O27 2.019102 1_555
Hf9 O29 2.019294 1_555
Hf9 O63 2.083372 1_555
Hf9 O65 2.107845 1_555
Hf9 O28 2.113505 1_555
Hf9 O64 2.114232 1_555
Hf10 O30 2.008124 1_555
Hf10 O31 2.023382 1_555
Hf10 O66 2.077857 1_555
Hf10 O68 2.108279 1_555
Hf10 O32 2.118277 1_555
Hf10 O67 2.121641 1_555
Hf11 O34 2.006256 1_555
Hf11 O33 2.022166 1_555
Hf11 O70 2.078757 1_555
Hf11 O71 2.105206 1_555
Hf11 O69 2.124938 1_555
Hf11 O35 2.127959 1_555
O0 Si0 1.635844 1_555
O1 Si1 1.642476 1_555
O2 Si2 1.632091 1_555
O3 Si3 1.640610 1_555
O4 Si4 1.633611 1_555
O5 Si5 1.628762 1_545
O6 Si5 1.643738 1_555
O7 Si3 1.643690 1_555
O8 Si4 1.642870 1_455
O9 Si1 1.630037 1_555
O10 Si2 1.638146 1_455
O11 Si0 1.642190 1_565
O12 Si6 1.642146 1_555
O13 Si7 1.642901 1_555
O14 Si8 1.644067 1_555
O15 Si9 1.649139 1_555
O16 P0 1.559760 1_555
O17 Si10 1.642481 1_555
O18 Si10 1.642547 1_555
O19 Si9 1.633646 1_555
O20 P0 1.552968 1_555
O21 Si7 1.636252 1_555
O22 Si8 1.636269 1_555
O23 Si6 1.636136 1_555
O24 P1 1.536043 1_555
O25 Si11 1.650169 1_555
O26 Si12 1.641472 1_555
O27 Si13 1.649287 1_555
O28 P2 1.549195 1_555
O29 Si14 1.645792 1_555
O30 Si14 1.639313 1_555
O31 Si13 1.648933 1_555
O32 P2 1.556154 1_555
O33 Si11 1.649313 1_555
O34 Si12 1.642895 1_555
O35 P1 1.560121 1_555
O36 Si14 1.651537 1_555
O37 Si13 1.635850 1_555
O38 P2 1.543926 1_555
O39 Si11 1.635981 1_555
O40 Si12 1.654296 1_555
O41 P1 1.543196 1_555
O42 Si6 1.637824 1_555
O43 Si7 1.640795 1_555
O44 Si8 1.642575 1_555
O45 Si9 1.636431 1_555
O46 P0 1.543212 1_555
O47 Si10 1.654320 1_555
O48 Si5 1.641020 1_545
O49 Si3 1.641565 1_555
O50 Si4 1.640371 1_555
O51 Si1 1.648712 1_555
O52 Si2 1.643348 1_555
O53 Si0 1.641279 1_555
O54 P1 1.565835 1_555
O55 Si11 1.638513 1_655
O56 Si12 1.639498 1_545
O57 Si13 1.640629 1_545
O58 P2 1.559177 1_555
O59 Si14 1.638543 1_655
O60 Si10 1.638550 1_555
O61 Si9 1.661370 1_455
O62 P0 1.545963 1_565
O63 Si7 1.648532 1_565
O64 Si8 1.642782 1_555
O65 Si6 1.639948 1_455
O66 Si0 1.648567 1_565
O67 Si1 1.641028 1_555
O68 Si2 1.645060 1_455
O69 Si3 1.641847 1_555
O70 Si4 1.648898 1_455
O71 Si5 1.643240 1_555
