# generated using pymatgen
data_NaCaTa3(PO4)6
_symmetry_space_group_name_H-M   'P 1'
_cell_length_a   8.84538483
_cell_length_b   8.84538454
_cell_length_c   23.04443415
_cell_angle_alpha   90.00000000
_cell_angle_beta   90.00000000
_cell_angle_gamma   120.00000113
_symmetry_Int_Tables_number   1
_chemical_formula_structural   NaCaTa3(PO4)6
_chemical_formula_sum   'Na3 Ca3 Ta9 P18 O72'
_cell_volume   1561.45734705
_cell_formula_units_Z   3
loop_
 _symmetry_equiv_pos_site_id
 _symmetry_equiv_pos_as_xyz
  1  'x, y, z'
loop_
 _atom_site_type_symbol
 _atom_site_label
 _atom_site_symmetry_multiplicity
 _atom_site_fract_x
 _atom_site_fract_y
 _atom_site_fract_z
 _atom_site_occupancy
  Na  Na0  1  0.00000000  0.00000000  0.98660998  1
  Na  Na1  1  0.66666700  0.33333300  0.84247746  1
  Na  Na2  1  0.66666700  0.33333300  0.34139535  1
  Ca  Ca0  1  0.00000000  0.00000000  0.85377882  1
  Ca  Ca1  1  0.66666700  0.33333300  0.97733616  1
  Ca  Ca2  1  0.66666700  0.33333300  0.47984194  1
  Ta  Ta0  1  0.00000000  0.00000000  0.35928930  1
  Ta  Ta1  1  0.00000000  0.00000000  0.65022696  1
  Ta  Ta2  1  0.00000000  0.00000000  0.14782178  1
  Ta  Ta3  1  0.66666700  0.33333300  0.68363482  1
  Ta  Ta4  1  0.66666700  0.33333300  0.18437616  1
  Ta  Ta5  1  0.33333300  0.66666700  0.02056274  1
  Ta  Ta6  1  0.33333300  0.66666700  0.52596551  1
  Ta  Ta7  1  0.33333300  0.66666700  0.30907001  1
  Ta  Ta8  1  0.33333300  0.66666700  0.80948132  1
  P  P0  1  0.28751569  0.00469688  0.25163453  1
  P  P1  1  0.71718119  0.71248431  0.25163453  1
  P  P2  1  0.99530312  0.28281881  0.25163453  1
  P  P3  1  0.29691993  0.29424267  0.74972999  1
  P  P4  1  0.99732274  0.70308007  0.74972999  1
  P  P5  1  0.70575733  0.00267726  0.74972999  1
  P  P6  1  0.95851982  0.32817104  0.58312496  1
  P  P7  1  0.36965222  0.04148018  0.58312496  1
  P  P8  1  0.67182896  0.63034778  0.58312496  1
  P  P9  1  0.96121868  0.62766380  0.08412775  1
  P  P10  1  0.66644612  0.03878132  0.08412775  1
  P  P11  1  0.37233620  0.33355388  0.08412775  1
  P  P12  1  0.61560820  0.66710368  0.91568591  1
  P  P13  1  0.05149448  0.38439180  0.91568591  1
  P  P14  1  0.33289632  0.94850552  0.91568591  1
  P  P15  1  0.61499634  0.94466532  0.41451163  1
  P  P16  1  0.32966798  0.38500366  0.41451163  1
  P  P17  1  0.05533468  0.67033202  0.41451163  1
  O  O0  1  0.19895051  0.03287993  0.30495846  1
  O  O1  1  0.83392942  0.80104949  0.30495846  1
  O  O2  1  0.96712007  0.16607058  0.30495846  1
  O  O3  1  0.23908467  0.18724200  0.80376866  1
  O  O4  1  0.94815734  0.76091533  0.80376866  1
  O  O5  1  0.81275800  0.05184266  0.80376866  1
  O  O6  1  0.80137453  0.97634031  0.69689153  1
  O  O7  1  0.17496578  0.19862547  0.69689153  1
  O  O8  1  0.02365969  0.82503422  0.69689153  1
  O  O9  1  0.80264105  0.82718314  0.19816910  1
  O  O10  1  0.02454209  0.19735895  0.19816910  1
  O  O11  1  0.17281686  0.97545791  0.19816910  1
  O  O12  1  0.86844981  0.36276962  0.63524818  1
  O  O13  1  0.49432081  0.13155019  0.63524818  1
  O  O14  1  0.63723038  0.50567919  0.63524818  1
  O  O15  1  0.86155332  0.50507569  0.13908886  1
  O  O16  1  0.64352337  0.13844668  0.13908886  1
  O  O17  1  0.49492431  0.35647663  0.13908886  1
  O  O18  1  0.43080048  0.28154993  0.03182000  1
  O  O19  1  0.85075045  0.56919952  0.03182000  1
  O  O20  1  0.71845007  0.14924955  0.03182000  1
  O  O21  1  0.42992367  0.14316812  0.52828842  1
  O  O22  1  0.71324545  0.57007633  0.52828842  1
  O  O23  1  0.85683188  0.28675455  0.52828842  1
  O  O24  1  0.51029432  0.66903183  0.97282966  1
  O  O25  1  0.15873651  0.48970568  0.97282966  1
  O  O26  1  0.33096817  0.84126349  0.97282966  1
  O  O27  1  0.53008350  0.83486848  0.46949039  1
  O  O28  1  0.30478399  0.46991650  0.46949039  1
  O  O29  1  0.16513152  0.69521601  0.46949039  1
  O  O30  1  0.15662215  0.66175542  0.35988687  1
  O  O31  1  0.50513227  0.84337785  0.35988687  1
  O  O32  1  0.33824458  0.49486773  0.35988687  1
  O  O33  1  0.15747241  0.49131557  0.86058017  1
  O  O34  1  0.33384217  0.84252759  0.86058017  1
  O  O35  1  0.50868443  0.66615783  0.86058017  1
  O  O36  1  0.04701388  0.84336049  0.40422922  1
  O  O37  1  0.79634661  0.95298612  0.40422922  1
  O  O38  1  0.15663951  0.20365339  0.40422922  1
  O  O39  1  0.05042459  0.21421927  0.92014382  1
  O  O40  1  0.16379469  0.94957541  0.92014382  1
  O  O41  1  0.78578073  0.83620531  0.92014382  1
  O  O42  1  0.99291426  0.17974524  0.60132567  1
  O  O43  1  0.18683098  0.00708574  0.60132567  1
  O  O44  1  0.82025476  0.81316902  0.60132567  1
  O  O45  1  0.99051964  0.81308498  0.10229995  1
  O  O46  1  0.82256534  0.00948036  0.10229995  1
  O  O47  1  0.18691502  0.17743466  0.10229995  1
  O  O48  1  0.67515230  0.15732530  0.73233714  1
  O  O49  1  0.48217400  0.32484770  0.73233714  1
  O  O50  1  0.84267470  0.51782600  0.73233714  1
  O  O51  1  0.69485752  0.52863032  0.24164653  1
  O  O52  1  0.83377379  0.30514248  0.24164653  1
  O  O53  1  0.47136968  0.16622621  0.24164653  1
  O  O54  1  0.61698855  0.49847373  0.91340004  1
  O  O55  1  0.88148617  0.38301145  0.91340004  1
  O  O56  1  0.50152627  0.11851383  0.91340004  1
  O  O57  1  0.63772258  0.12326361  0.41280256  1
  O  O58  1  0.48554204  0.36227742  0.41280256  1
  O  O59  1  0.87673639  0.51445796  0.41280256  1
  O  O60  1  0.35419752  0.49650756  0.07951486  1
  O  O61  1  0.14230904  0.64580248  0.07951486  1
  O  O62  1  0.50349244  0.85769096  0.07951486  1
  O  O63  1  0.35298970  0.85524603  0.57431020  1
  O  O64  1  0.50225533  0.64701030  0.57431020  1
  O  O65  1  0.14475397  0.49774467  0.57431020  1
  O  O66  1  0.30845360  0.84274179  0.26075814  1
  O  O67  1  0.53428719  0.69154640  0.26075814  1
  O  O68  1  0.15725821  0.46571281  0.26075814  1
  O  O69  1  0.31513899  0.47723759  0.75566273  1
  O  O70  1  0.16209760  0.68486101  0.75566273  1
  O  O71  1  0.52276241  0.83790240  0.75566273  1
loop_
_geom_bond_atom_site_label_1
_geom_bond_atom_site_label_2
_geom_bond_distance
_geom_bond_site_symmetry_2
Na0 O39 2.300061 1_555
Na0 O41 2.300061 1_445
Na0 O40 2.300061 1_545
Na1 O56 2.374844 1_555
Na1 O55 2.374844 1_555
Na1 O54 2.374845 1_555
Na2 O58 2.397982 1_555
Na2 O59 2.397982 1_555
Na2 O57 2.397982 1_555
Na2 O52 2.810591 1_555
Na2 O53 2.810591 1_555
Na2 O51 2.810591 1_555
Ca0 O5 2.245222 1_455
Ca0 O4 2.245222 1_445
Ca0 O3 2.245222 1_555
Ca0 O39 2.298509 1_555
Ca0 O41 2.298509 1_445
Ca0 O40 2.298509 1_545
Ca1 O56 2.267056 1_555
Ca1 O55 2.267056 1_555
Ca1 O54 2.267056 1_555
Ca1 O19 2.276698 1_556
Ca1 O20 2.276698 1_556
Ca1 O18 2.276698 1_556
Ca2 O22 2.222289 1_555
Ca2 O21 2.222289 1_555
Ca2 O23 2.222289 1_555
Ca2 O58 2.330062 1_555
Ca2 O59 2.330062 1_555
Ca2 O57 2.330062 1_555
O0 P0 1.543094 1_555
O0 Ta0 2.058449 1_555
O1 P1 1.543094 1_555
O1 Ta0 2.058449 1_665
O2 P2 1.543094 1_555
O2 Ta0 2.058449 1_655
O3 P3 1.491329 1_555
O4 P4 1.491329 1_555
O5 P5 1.491329 1_555
O6 P5 1.565011 1_565
O6 Ta1 1.979715 1_665
O7 P3 1.565011 1_555
O7 Ta1 1.979715 1_555
O8 P4 1.565011 1_455
O8 Ta1 1.979715 1_565
O9 P1 1.533571 1_555
O9 Ta2 2.015392 1_665
O10 P2 1.533571 1_455
O10 Ta2 2.015392 1_555
O11 P0 1.533571 1_565
O11 Ta2 2.015392 1_565
O12 P6 1.554020 1_555
O12 Ta3 2.007999 1_555
O13 P7 1.554020 1_555
O13 Ta3 2.007999 1_555
O14 P8 1.554020 1_555
O14 Ta3 2.007999 1_555
O15 P9 1.612819 1_555
O15 Ta4 1.936439 1_555
O16 P10 1.612819 1_555
O16 Ta4 1.936439 1_555
O17 P11 1.612819 1_555
O17 Ta4 1.936439 1_555
O18 P11 1.473060 1_555
O19 P9 1.473060 1_555
O20 P10 1.473060 1_555
O21 P7 1.486814 1_555
O22 P8 1.486814 1_555
O23 P6 1.486814 1_555
O24 P12 1.618033 1_555
O24 Ta5 1.904676 1_556
O25 P13 1.618033 1_555
O25 Ta5 1.904676 1_556
O26 P14 1.618033 1_555
O26 Ta5 1.904676 1_556
O27 P15 1.543721 1_555
O27 Ta6 2.084895 1_555
O28 P16 1.543721 1_555
O28 Ta6 2.084895 1_555
O29 P17 1.543721 1_555
O29 Ta6 2.084895 1_555
O30 P17 1.568750 1_555
O30 Ta7 1.936113 1_555
O31 P15 1.568750 1_555
O31 Ta7 1.936113 1_555
O32 P16 1.568750 1_555
O32 Ta7 1.936113 1_555
O33 P13 1.580904 1_555
O33 Ta8 1.949198 1_555
O34 P14 1.580904 1_555
O34 Ta8 1.949198 1_555
O35 P12 1.580904 1_555
O35 Ta8 1.949199 1_555
O36 P17 1.586395 1_555
O36 Ta0 1.934252 1_565
O37 P15 1.586404 1_555
O37 Ta0 1.934252 1_665
O38 P16 1.586400 1_555
O38 Ta0 1.934252 1_555
O39 P13 1.504045 1_555
O40 P14 1.504036 1_555
O41 P12 1.504040 1_555
O42 P6 1.546466 1_555
O42 Ta1 1.975176 1_655
O43 P7 1.546475 1_555
O43 Ta1 1.975176 1_555
O44 P8 1.546472 1_555
O44 Ta1 1.975176 1_665
O45 P9 1.583495 1_555
O45 Ta2 1.924151 1_665
O46 P10 1.583486 1_555
O46 Ta2 1.924151 1_655
O47 P11 1.583491 1_555
O47 Ta2 1.924151 1_555
O48 P5 1.573358 1_555
O48 Ta3 1.950867 1_555
O49 P3 1.573367 1_555
O49 Ta3 1.950867 1_555
O50 P4 1.573364 1_555
O50 Ta3 1.950867 1_555
O51 P1 1.554208 1_555
O51 Ta4 2.087435 1_555
O52 P2 1.554200 1_555
O52 Ta4 2.087434 1_555
O53 P0 1.554205 1_555
O53 Ta4 2.087434 1_555
O54 P12 1.498665 1_555
O55 P13 1.498647 1_655
O56 P14 1.498656 1_545
O57 P15 1.489989 1_545
O58 P16 1.490007 1_555
O59 P17 1.489996 1_655
O60 P11 1.531634 1_555
O60 Ta5 2.103049 1_555
O61 P9 1.531617 1_455
O61 Ta5 2.103049 1_555
O62 P10 1.531624 1_565
O62 Ta5 2.103049 1_555
O63 P7 1.591802 1_565
O63 Ta6 1.940045 1_555
O64 P8 1.591819 1_555
O64 Ta6 1.940045 1_555
O65 P6 1.591809 1_455
O65 Ta6 1.940045 1_555
O66 P0 1.547913 1_565
O66 Ta7 2.014027 1_555
O67 P1 1.547921 1_555
O67 Ta7 2.014027 1_555
O68 P2 1.547918 1_455
O68 Ta7 2.014027 1_555
O69 P3 1.550442 1_555
O69 Ta8 2.025325 1_555
O70 P4 1.550433 1_455
O70 Ta8 2.025325 1_555
O71 P5 1.550438 1_565
O71 Ta8 2.025325 1_555
