# generated using pymatgen
data_Na4Mg(CuO2)2
_symmetry_space_group_name_H-M   'P 1'
_cell_length_a   2.93672030
_cell_length_b   5.26516724
_cell_length_c   10.27831113
_cell_angle_alpha   98.20054401
_cell_angle_beta   90.00000000
_cell_angle_gamma   90.00000000
_symmetry_Int_Tables_number   1
_chemical_formula_structural   Na4Mg(CuO2)2
_chemical_formula_sum   'Na4 Mg1 Cu2 O4'
_cell_volume   157.30152814
_cell_formula_units_Z   1
loop_
 _symmetry_equiv_pos_site_id
 _symmetry_equiv_pos_as_xyz
  1  'x, y, z'
loop_
 _atom_site_type_symbol
 _atom_site_label
 _atom_site_symmetry_multiplicity
 _atom_site_fract_x
 _atom_site_fract_y
 _atom_site_fract_z
 _atom_site_occupancy
  Na  Na0  1  0.75000000  0.74144461  0.96512465  1
  Na  Na1  1  0.25000000  0.33142803  0.13643685  1
  Na  Na2  1  0.75000000  0.55443771  0.39497184  1
  Na  Na3  1  0.25000000  0.09594291  0.51526026  1
  Mg  Mg0  1  0.75000000  0.64072852  0.68476121  1
  Cu  Cu0  1  0.75000000  0.22685099  0.83626069  1
  Cu  Cu1  1  0.25000000  0.89258279  0.24703642  1
  O  O0  1  0.25000000  0.67242010  0.56009730  1
  O  O1  1  0.75000000  0.11477238  0.32680150  1
  O  O2  1  0.25000000  0.49507037  0.80655853  1
  O  O3  1  0.75000000  0.66289258  0.17512877  1
loop_
_geom_bond_atom_site_label_1
_geom_bond_atom_site_label_2
_geom_bond_distance
_geom_bond_site_symmetry_2
Na0 O3 2.254950 1_556
Na0 O2 2.427326 1_555
Na0 O2 2.427326 1_655
Na1 O3 2.272008 1_555
Na1 O3 2.272008 1_455
Na1 O1 2.814687 1_455
Na1 O1 2.814687 1_555
Na2 O0 2.263123 1_655
Na2 O0 2.263123 1_555
Na2 O1 2.321000 1_555
Na2 O3 2.408327 1_555
Na3 O0 2.340531 1_545
Na3 O1 2.443933 1_455
Na3 O1 2.443933 1_555
Mg0 O0 1.971481 1_555
Mg0 O0 1.971481 1_655
Mg0 O2 2.141333 1_655
Mg0 O2 2.141333 1_555
Cu0 O2 2.089651 1_555
Cu0 O2 2.089651 1_655
Cu1 O3 1.977345 1_555
Cu1 O3 1.977345 1_455
Cu1 O1 1.980709 1_465
Cu1 O1 1.980709 1_565
