# generated using pymatgen
data_Na6Ca2Si3Ge2(SO8)3
_symmetry_space_group_name_H-M   'P 1'
_cell_length_a   9.16131999
_cell_length_b   9.23290216
_cell_length_c   22.40590908
_cell_angle_alpha   90.77746923
_cell_angle_beta   91.16159103
_cell_angle_gamma   119.61384780
_symmetry_Int_Tables_number   1
_chemical_formula_structural   Na6Ca2Si3Ge2(SO8)3
_chemical_formula_sum   'Na18 Ca6 Si9 Ge6 S9 O72'
_cell_volume   1646.70971758
_cell_formula_units_Z   3
loop_
 _symmetry_equiv_pos_site_id
 _symmetry_equiv_pos_as_xyz
  1  'x, y, z'
loop_
 _atom_site_type_symbol
 _atom_site_label
 _atom_site_symmetry_multiplicity
 _atom_site_fract_x
 _atom_site_fract_y
 _atom_site_fract_z
 _atom_site_occupancy
  Na  Na0  1  0.36854072  0.34788635  0.24685005  1
  Na  Na1  1  0.00455918  0.63971020  0.24078091  1
  Na  Na2  1  0.98982088  0.35601544  0.74740830  1
  Na  Na3  1  0.37620416  0.02415365  0.74618865  1
  Na  Na4  1  0.30384340  0.34166454  0.57523628  1
  Na  Na5  1  0.65233585  0.97094069  0.58911130  1
  Na  Na6  1  0.31265752  0.96219702  0.07192483  1
  Na  Na7  1  0.65576940  0.68462630  0.08848342  1
  Na  Na8  1  0.98849177  0.67571671  0.92032494  1
  Na  Na9  1  0.32650547  0.28908765  0.91118027  1
  Na  Na10  1  0.98786173  0.30996146  0.42436675  1
  Na  Na11  1  0.32695475  0.03502834  0.41090151  1
  Na  Na12  1  0.00380978  0.98794571  0.50327768  1
  Na  Na13  1  0.00299626  0.01783453  0.99954319  1
  Na  Na14  1  0.65714909  0.31737397  0.83143409  1
  Na  Na15  1  0.65079546  0.32303531  0.33512983  1
  Na  Na16  1  0.31023617  0.64875093  0.16111414  1
  Na  Na17  1  0.30880321  0.66359858  0.66263106  1
  Ca  Ca0  1  0.00222506  0.00111751  0.35000145  1
  Ca  Ca1  1  0.00185657  0.00209623  0.84949285  1
  Ca  Ca2  1  0.67308580  0.35193763  0.68746551  1
  Ca  Ca3  1  0.66659398  0.32431126  0.18524388  1
  Ca  Ca4  1  0.32249948  0.65656055  0.01731708  1
  Ca  Ca5  1  0.32211475  0.66451761  0.51830771  1
  Si  Si0  1  0.30811608  0.98447227  0.25577481  1
  Si  Si1  1  0.30072284  0.32260409  0.75781302  1
  Si  Si2  1  0.70990971  0.99470495  0.74542980  1
  Si  Si3  1  0.94845587  0.32913103  0.58416127  1
  Si  Si4  1  0.34442127  0.03646744  0.58975639  1
  Si  Si5  1  0.95015940  0.62181636  0.08488115  1
  Si  Si6  1  0.36490880  0.32592240  0.08833370  1
  Si  Si7  1  0.35670052  0.97143893  0.91850085  1
  Si  Si8  1  0.35294153  0.37604428  0.42000106  1
  Ge  Ge0  1  0.01558724  0.06642090  0.64805954  1
  Ge  Ge1  1  0.04715670  0.98545576  0.14129618  1
  Ge  Ge2  1  0.63977446  0.30591348  0.99410170  1
  Ge  Ge3  1  0.62672265  0.32078093  0.49796130  1
  Ge  Ge4  1  0.35081835  0.66214417  0.31490126  1
  Ge  Ge5  1  0.38081391  0.70571533  0.80727707  1
  S  S0  1  0.68963657  0.70186844  0.24875252  1
  S  S1  1  0.01339717  0.30438948  0.25229741  1
  S  S2  1  0.01972496  0.71340602  0.75218514  1
  S  S3  1  0.68108920  0.63752521  0.58058038  1
  S  S4  1  0.68027306  0.04213384  0.08011757  1
  S  S5  1  0.62466874  0.65733984  0.91516209  1
  S  S6  1  0.02254060  0.36908549  0.91364955  1
  S  S7  1  0.62612625  0.96989269  0.41775541  1
  S  S8  1  0.02464934  0.65416801  0.41261329  1
  O  O0  1  0.21324594  0.00382604  0.31125065  1
  O  O1  1  0.78927024  0.79607749  0.30084203  1
  O  O2  1  0.99795980  0.21791641  0.30810413  1
  O  O3  1  0.22178853  0.20734076  0.81323448  1
  O  O4  1  0.00281343  0.78002684  0.80973166  1
  O  O5  1  0.81625460  0.02644899  0.80378978  1
  O  O6  1  0.81017487  0.97411069  0.68407357  1
  O  O7  1  0.16606075  0.23728305  0.69526365  1
  O  O8  1  0.03230428  0.81808282  0.70157723  1
  O  O9  1  0.75598386  0.78833162  0.19277057  1
  O  O10  1  0.02510491  0.21397533  0.19992665  1
  O  O11  1  0.18613795  0.94379833  0.19150796  1
  O  O12  1  0.88228195  0.34825025  0.64655311  1
  O  O13  1  0.46205196  0.12090653  0.65107429  1
  O  O14  1  0.65435485  0.53896066  0.63316534  1
  O  O15  1  0.87938876  0.53916597  0.14675998  1
  O  O16  1  0.65386554  0.11543228  0.13355708  1
  O  O17  1  0.45920136  0.34266097  0.15003165  1
  O  O18  1  0.45254848  0.28197876  0.02859775  1
  O  O19  1  0.80822855  0.50848734  0.02584459  1
  O  O20  1  0.69542407  0.14940534  0.02629562  1
  O  O21  1  0.43458226  0.16517421  0.53073227  1
  O  O22  1  0.69190534  0.53863715  0.52589358  1
  O  O23  1  0.80524792  0.29844624  0.52480565  1
  O  O24  1  0.55173688  0.67669359  0.96993530  1
  O  O25  1  0.13022209  0.45058021  0.96683075  1
  O  O26  1  0.32592208  0.86727830  0.97700056  1
  O  O27  1  0.55337656  0.88014308  0.47226261  1
  O  O28  1  0.32107632  0.45527262  0.47751411  1
  O  O29  1  0.13601466  0.68954537  0.46532440  1
  O  O30  1  0.10823624  0.63291705  0.35737543  1
  O  O31  1  0.51501552  0.87824894  0.36253535  1
  O  O32  1  0.37742841  0.49246771  0.35591922  1
  O  O33  1  0.10074166  0.46552533  0.85960086  1
  O  O34  1  0.37698930  0.86835916  0.85550225  1
  O  O35  1  0.51418240  0.64117665  0.86060814  1
  O  O36  1  0.99593470  0.79814824  0.40908876  1
  O  O37  1  0.79971283  0.00112801  0.41293544  1
  O  O38  1  0.19083585  0.18954294  0.41348015  1
  O  O39  1  0.00183134  0.19946055  0.91218122  1
  O  O40  1  0.19498065  0.99776602  0.91172399  1
  O  O41  1  0.79782340  0.79704651  0.91143540  1
  O  O42  1  0.94857868  0.14171515  0.58298131  1
  O  O43  1  0.16248092  0.03717102  0.59731300  1
  O  O44  1  0.83561237  0.79775079  0.58036791  1
  O  O45  1  0.95276345  0.80909133  0.08307306  1
  O  O46  1  0.83408772  0.03085930  0.08088411  1
  O  O47  1  0.18347571  0.14161610  0.08648824  1
  O  O48  1  0.67580343  0.14827328  0.74373051  1
  O  O49  1  0.48082924  0.33879615  0.74922200  1
  O  O50  1  0.88055790  0.54065241  0.74669640  1
  O  O51  1  0.67755301  0.53582331  0.24955305  1
  O  O52  1  0.87575881  0.34219001  0.24829034  1
  O  O53  1  0.48315754  0.15388369  0.25155952  1
  O  O54  1  0.62672259  0.49652778  0.91404989  1
  O  O55  1  0.85824536  0.36715282  0.91906444  1
  O  O56  1  0.52901563  0.17156180  0.92721367  1
  O  O57  1  0.63072458  0.13456425  0.41840909  1
  O  O58  1  0.52548885  0.34653014  0.42948655  1
  O  O59  1  0.86570680  0.49472576  0.41700723  1
  O  O60  1  0.35651794  0.49259044  0.07963665  1
  O  O61  1  0.14354364  0.67553913  0.07839592  1
  O  O62  1  0.53353515  0.87380339  0.07258314  1
  O  O63  1  0.34782297  0.86374794  0.58143995  1
  O  O64  1  0.53366039  0.66176061  0.57376604  1
  O  O65  1  0.14097080  0.46718798  0.57650147  1
  O  O66  1  0.30756210  0.79778685  0.25914896  1
  O  O67  1  0.51058966  0.67705502  0.25187793  1
  O  O68  1  0.18079558  0.47215769  0.25378746  1
  O  O69  1  0.29977810  0.50560157  0.76510018  1
  O  O70  1  0.18530474  0.70753420  0.75292552  1
  O  O71  1  0.51948955  0.82011622  0.74773109  1
loop_
_geom_bond_atom_site_label_1
_geom_bond_atom_site_label_2
_geom_bond_distance
_geom_bond_site_symmetry_2
Na0 O17 2.346885 1_555
Na0 O51 2.482800 1_555
Na0 O53 2.486288 1_555
Na0 O68 2.501088 1_555
Na0 O67 2.649304 1_555
Na0 O32 2.748948 1_555
Na0 O10 2.918802 1_555
Na1 O15 2.326269 1_455
Na1 O52 2.404924 1_455
Na1 O66 2.436905 1_555
Na1 O51 2.668821 1_455
Na1 O11 2.722407 1_555
Na1 O68 2.747104 1_555
Na1 O30 2.773711 1_555
Na2 O50 2.365359 1_555
Na2 O12 2.432646 1_555
Na2 O69 2.488288 1_655
Na2 O48 2.548439 1_555
Na2 O7 2.639072 1_655
Na2 O33 2.680676 1_655
Na2 O70 2.826978 1_655
Na2 O5 2.964315 1_555
Na3 O13 2.320239 1_555
Na3 O48 2.397717 1_555
Na3 O70 2.568481 1_545
Na3 O49 2.569591 1_555
Na3 O71 2.777978 1_545
Na3 O34 2.858880 1_545
Na3 O8 2.905459 1_545
Na4 O65 2.297890 1_555
Na4 O28 2.414955 1_555
Na4 O43 2.508189 1_555
Na4 O21 2.649050 1_555
Na4 O64 2.650323 1_555
Na4 O42 2.850371 1_455
Na5 O42 2.379589 1_565
Na5 O63 2.457423 1_555
Na5 O64 2.517949 1_555
Na5 O6 2.539828 1_555
Na5 O27 2.733538 1_555
Na6 O26 2.317650 1_554
Na6 O61 2.322341 1_555
Na6 O47 2.487938 1_565
Na6 O62 2.528285 1_555
Na6 O18 2.773229 1_565
Na6 O45 2.892793 1_455
Na6 O11 2.914623 1_555
Na6 O16 3.013488 1_565
Na7 O45 2.380199 1_555
Na7 O60 2.421451 1_555
Na7 O9 2.490611 1_555
Na7 O62 2.522998 1_555
Na7 O46 2.789570 1_565
Na7 O24 2.791432 1_554
Na7 O19 2.971161 1_555
Na8 O55 2.485523 1_555
Na8 O41 2.504325 1_555
Na8 O40 2.632171 1_655
Na8 O4 2.652925 1_655
Na8 O54 2.880461 1_555
Na8 O19 2.904881 1_556
Na8 O33 2.938087 1_655
Na8 O26 2.945042 1_655
Na9 O3 2.336708 1_555
Na9 O40 2.342042 1_545
Na9 O54 2.453647 1_555
Na9 O56 2.592617 1_555
Na9 O39 2.665182 1_555
Na9 O18 2.866262 1_556
Na10 O59 2.465079 1_555
Na10 O37 2.504425 1_555
Na10 O38 2.609154 1_655
Na10 O2 2.746644 1_555
Na10 O23 2.803202 1_555
Na10 O57 2.843454 1_555
Na10 O28 2.880708 1_655
Na11 O38 2.313562 1_555
Na11 O0 2.396889 1_555
Na11 O57 2.463085 1_555
Na11 O58 2.553468 1_555
Na11 O36 2.723821 1_445
Na11 O21 2.873856 1_555
Na11 O31 2.955662 1_545
Na11 O29 3.065814 1_545
Na12 O43 2.440440 1_565
Na12 O44 2.440812 1_455
Na12 O42 2.477636 1_465
Na12 O36 2.701537 1_455
Na12 O38 2.745527 1_565
Na12 O37 2.772451 1_465
Na13 O47 2.403422 1_556
Na13 O46 2.454152 1_456
Na13 O45 2.585590 1_446
Na13 O39 2.598010 1_555
Na13 O40 2.729843 1_545
Na13 O41 2.745779 1_445
Na14 O49 2.499298 1_555
Na14 O56 2.532693 1_555
Na14 O55 2.540166 1_555
Na14 O48 2.553903 1_555
Na14 O54 2.575616 1_555
Na14 O50 2.852621 1_555
Na15 O53 2.395295 1_555
Na15 O58 2.483262 1_555
Na15 O57 2.515838 1_555
Na15 O59 2.538686 1_555
Na15 O51 2.691056 1_555
Na15 O52 2.806484 1_555
Na16 O61 2.469668 1_555
Na16 O60 2.481023 1_555
Na16 O68 2.580128 1_555
Na16 O66 2.583102 1_555
Na16 O67 2.633107 1_555
Na16 O62 2.917642 1_555
Na17 O70 2.462076 1_555
Na17 O63 2.513327 1_555
Na17 O65 2.530988 1_555
Na17 O71 2.543400 1_555
Na17 O69 2.717619 1_555
Na17 O64 2.899699 1_555
Ca0 O0 2.124316 1_555
Ca0 O1 2.193037 1_445
Ca0 O38 2.213036 1_555
Ca0 O2 2.239714 1_455
Ca0 O36 2.287268 1_445
Ca0 O37 2.353012 1_455
Ca1 O5 2.074582 1_455
Ca1 O3 2.155306 1_555
Ca1 O4 2.228492 1_545
Ca1 O40 2.246668 1_545
Ca1 O39 2.285699 1_555
Ca1 O41 2.384002 1_445
Ca2 O12 2.156235 1_555
Ca2 O13 2.183085 1_555
Ca2 O14 2.198360 1_555
Ca2 O49 2.218963 1_555
Ca2 O50 2.229757 1_555
Ca2 O48 2.288053 1_555
Ca3 O17 2.126526 1_555
Ca3 O15 2.184429 1_555
Ca3 O16 2.187639 1_555
Ca3 O53 2.249270 1_555
Ca3 O52 2.294766 1_555
Ca3 O51 2.371495 1_555
Ca4 O25 2.132915 1_554
Ca4 O26 2.142580 1_554
Ca4 O60 2.201099 1_555
Ca4 O61 2.227065 1_555
Ca4 O24 2.298269 1_554
Ca4 O62 2.301607 1_555
Ca5 O28 2.121666 1_555
Ca5 O29 2.164302 1_555
Ca5 O63 2.219855 1_555
Ca5 O65 2.222064 1_555
Ca5 O64 2.291867 1_555
Ca5 O27 2.343574 1_555
Ge0 O7 1.803882 1_555
Ge0 O42 1.843717 1_455
Ge0 O6 1.847699 1_445
Ge0 O43 1.894639 1_555
Ge1 O11 1.863457 1_555
Ge1 O47 1.864721 1_565
Ge1 O45 1.898981 1_455
Ge2 O18 1.808880 1_556
Ge2 O19 1.858068 1_556
Ge2 O56 1.859659 1_555
Ge2 O20 1.899949 1_556
Ge3 O21 1.812018 1_555
Ge3 O23 1.837402 1_555
Ge3 O58 1.854902 1_555
Ge3 O22 1.886207 1_555
Ge4 O32 1.940557 1_555
Ge4 O66 1.949055 1_555
Ge4 O67 2.011307 1_555
Ge4 O31 2.072155 1_555
Ge4 O68 2.127487 1_555
Ge4 O30 2.327544 1_555
Ge5 O71 1.813974 1_555
Ge5 O69 1.851075 1_555
Ge5 O34 1.852916 1_555
Ge5 O35 1.988839 1_555
Ge5 O70 2.152504 1_555
O0 Si0 1.588587 1_545
O1 S0 1.447928 1_555
O2 S1 1.464107 1_655
O3 Si1 1.584036 1_555
O4 S2 1.464795 1_555
O5 Si2 1.549408 1_545
O6 Si2 1.728163 1_555
O7 Si1 1.745317 1_555
O8 S2 1.469039 1_555
O9 S0 1.469221 1_555
O10 S1 1.467066 1_555
O11 Si0 1.722964 1_555
O12 Si3 1.576823 1_555
O13 Si4 1.654469 1_555
O14 S3 1.448053 1_555
O15 Si5 1.581493 1_555
O16 S4 1.449748 1_555
O17 Si6 1.579551 1_555
O18 Si6 1.717979 1_555
O19 Si5 1.755949 1_555
O20 S4 1.535517 1_555
O21 Si4 1.720537 1_555
O22 S3 1.552026 1_555
O23 Si3 1.766891 1_555
O24 S5 1.459375 1_555
O25 S6 1.467517 1_555
O26 Si7 1.582281 1_555
O27 S7 1.461861 1_555
O28 Si8 1.575315 1_555
O29 S8 1.467579 1_555
O30 S8 1.528729 1_555
O31 S7 1.533693 1_555
O32 Si8 1.756124 1_555
O33 S6 1.485476 1_555
O34 Si7 1.755502 1_555
O35 S5 1.528566 1_555
O36 S8 1.479948 1_655
O37 S7 1.475933 1_545
O38 Si8 1.627574 1_555
O39 S6 1.481396 1_555
O40 Si7 1.620181 1_555
O41 S5 1.474200 1_555
O42 Si3 1.730792 1_555
O43 Si4 1.681990 1_555
O44 S3 1.457140 1_555
O45 Si5 1.718470 1_555
O46 S4 1.463168 1_555
O47 Si6 1.691194 1_555
O48 Si2 1.596339 1_545
O49 Si1 1.597439 1_555
O50 S2 1.470797 1_655
O51 S0 1.481892 1_555
O52 S1 1.466648 1_655
O53 Si0 1.599458 1_545
O54 S5 1.494028 1_555
O55 S6 1.503818 1_655
O56 Si7 1.743334 1_545
O57 S7 1.499888 1_545
O58 Si8 1.741236 1_555
O59 S8 1.479306 1_655
O60 Si6 1.592582 1_555
O61 Si5 1.596812 1_455
O62 S4 1.473078 1_565
O63 Si4 1.618659 1_565
O64 S3 1.479484 1_555
O65 Si3 1.600381 1_455
O66 Si0 1.723836 1_555
O67 S0 1.543272 1_555
O68 S1 1.549570 1_555
O69 Si1 1.699558 1_555
O70 S2 1.544205 1_555
O71 Si2 1.694427 1_555
