# generated using pymatgen
data_Na6PbO4
_symmetry_space_group_name_H-M   'P 1'
_cell_length_a   9.78566964
_cell_length_b   9.78566964
_cell_length_c   9.78566964
_cell_angle_alpha   109.47122063
_cell_angle_beta   109.47122063
_cell_angle_gamma   109.47122063
_symmetry_Int_Tables_number   1
_chemical_formula_structural   Na6PbO4
_chemical_formula_sum   'Na24 Pb4 O16'
_cell_volume   721.35618407
_cell_formula_units_Z   4
loop_
 _symmetry_equiv_pos_site_id
 _symmetry_equiv_pos_as_xyz
  1  'x, y, z'
loop_
 _atom_site_type_symbol
 _atom_site_label
 _atom_site_symmetry_multiplicity
 _atom_site_fract_x
 _atom_site_fract_y
 _atom_site_fract_z
 _atom_site_occupancy
  Na  Na0  1  0.46751900  0.74275800  0.46751900  1
  Na  Na1  1  0.72476100  0.72476100  0.25724200  1
  Na  Na2  1  0.23384000  0.45357400  0.45357400  1
  Na  Na3  1  0.25724200  0.72476100  0.72476100  1
  Na  Na4  1  0.78026600  0.00000000  0.54642600  1
  Na  Na5  1  0.53248100  0.00000000  0.27523900  1
  Na  Na6  1  0.45357400  0.45357400  0.23384000  1
  Na  Na7  1  0.76616000  0.21973400  0.21973400  1
  Na  Na8  1  0.54642600  0.00000000  0.78026600  1
  Na  Na9  1  0.45357400  0.23384000  0.45357400  1
  Na  Na10  1  0.72476100  0.25724200  0.72476100  1
  Na  Na11  1  0.00000000  0.78026600  0.54642600  1
  Na  Na12  1  0.74275800  0.46751900  0.46751900  1
  Na  Na13  1  0.46751900  0.46751900  0.74275800  1
  Na  Na14  1  0.00000000  0.27523900  0.53248100  1
  Na  Na15  1  0.53248100  0.27523900  0.00000000  1
  Na  Na16  1  0.27523900  0.53248100  0.00000000  1
  Na  Na17  1  0.54642600  0.78026600  0.00000000  1
  Na  Na18  1  0.21973400  0.76616000  0.21973400  1
  Na  Na19  1  0.27523900  0.00000000  0.53248100  1
  Na  Na20  1  0.21973400  0.21973400  0.76616000  1
  Na  Na21  1  0.00000000  0.54642600  0.78026600  1
  Na  Na22  1  0.78026600  0.54642600  0.00000000  1
  Na  Na23  1  0.00000000  0.53248100  0.27523900  1
  Pb  Pb0  1  0.00000000  0.00000000  0.25392900  1
  Pb  Pb1  1  0.00000000  0.25392900  0.00000000  1
  Pb  Pb2  1  0.74607100  0.74607100  0.74607100  1
  Pb  Pb3  1  0.25392900  0.00000000  0.00000000  1
  O  O0  1  0.00000000  0.76884100  0.28646900  1
  O  O1  1  0.50000000  0.50000000  0.00000000  1
  O  O2  1  0.00000000  0.28646900  0.76884100  1
  O  O3  1  0.23115900  0.23115900  0.51762800  1
  O  O4  1  0.71353100  0.71353100  0.48237200  1
  O  O5  1  0.76884100  0.28646900  0.00000000  1
  O  O6  1  0.76884100  0.00000000  0.28646900  1
  O  O7  1  0.23115900  0.51762800  0.23115900  1
  O  O8  1  0.00000000  0.50000000  0.50000000  1
  O  O9  1  0.51762800  0.23115900  0.23115900  1
  O  O10  1  0.48237200  0.71353100  0.71353100  1
  O  O11  1  0.28646900  0.76884100  0.00000000  1
  O  O12  1  0.28646900  0.00000000  0.76884100  1
  O  O13  1  0.00000000  0.00000000  0.00000000  1
  O  O14  1  0.71353100  0.48237200  0.71353100  1
  O  O15  1  0.50000000  0.00000000  0.50000000  1
loop_
_geom_bond_atom_site_label_1
_geom_bond_atom_site_label_2
_geom_bond_distance
_geom_bond_site_symmetry_2
Na0 O7 2.278667 1_555
Na0 O15 2.324781 1_565
Na0 O4 2.480307 1_555
Na0 O10 2.480307 1_555
Na1 O4 2.278667 1_555
Na1 O1 2.324781 1_555
Na1 O6 2.480307 1_565
Na1 O0 2.480307 1_655
Na2 O7 2.452149 1_555
Na2 O3 2.452149 1_555
Na2 O10 2.508802 1_555
Na2 O8 2.626317 1_555
Na3 O10 2.278667 1_555
Na3 O8 2.324781 1_555
Na3 O11 2.480307 1_556
Na3 O12 2.480307 1_565
Na4 O4 2.452149 1_545
Na4 O2 2.452149 1_655
Na4 O6 2.508802 1_555
Na4 O15 2.626317 1_555
Na5 O6 2.278667 1_555
Na5 O15 2.324781 1_555
Na5 O11 2.480307 1_545
Na5 O9 2.480307 1_555
Na6 O9 2.452149 1_555
Na6 O7 2.452149 1_555
Na6 O4 2.508802 1_555
Na6 O1 2.626317 1_555
Na7 O5 2.452149 1_555
Na7 O6 2.452149 1_555
Na7 O9 2.508802 1_555
Na7 O8 2.626317 1_655
Na8 O5 2.452149 1_556
Na8 O10 2.452149 1_545
Na8 O12 2.508802 1_555
Na8 O15 2.626317 1_555
Na9 O9 2.452149 1_555
Na9 O3 2.452149 1_555
Na9 O14 2.508802 1_555
Na9 O15 2.626317 1_555
Na10 O14 2.278667 1_555
Na10 O15 2.324781 1_555
Na10 O5 2.480307 1_556
Na10 O2 2.480307 1_655
Na11 O12 2.452149 1_565
Na11 O4 2.452149 1_455
Na11 O0 2.508802 1_555
Na11 O8 2.626317 1_555
Na12 O9 2.278667 1_555
Na12 O8 2.324781 1_655
Na12 O4 2.480307 1_555
Na12 O14 2.480307 1_555
Na13 O3 2.278667 1_555
Na13 O1 2.324781 1_556
Na13 O14 2.480307 1_555
Na13 O10 2.480307 1_555
Na14 O2 2.278667 1_555
Na14 O8 2.324781 1_555
Na14 O3 2.480307 1_555
Na14 O6 2.480307 1_455
Na15 O5 2.278667 1_555
Na15 O1 2.324781 1_555
Na15 O9 2.480307 1_555
Na15 O12 2.480307 1_554
Na16 O11 2.278667 1_555
Na16 O1 2.324781 1_555
Na16 O2 2.480307 1_554
Na16 O7 2.480307 1_555
Na17 O10 2.452149 1_554
Na17 O6 2.452149 1_565
Na17 O11 2.508802 1_555
Na17 O1 2.626317 1_555
Na18 O11 2.452149 1_555
Na18 O0 2.452149 1_555
Na18 O7 2.508802 1_555
Na18 O15 2.626317 1_565
Na19 O12 2.278667 1_555
Na19 O15 2.324781 1_555
Na19 O3 2.480307 1_555
Na19 O0 2.480307 1_545
Na20 O12 2.452149 1_555
Na20 O2 2.452149 1_555
Na20 O3 2.508802 1_555
Na20 O1 2.626317 1_556
Na21 O11 2.452149 1_556
Na21 O14 2.452149 1_455
Na21 O2 2.508802 1_555
Na21 O8 2.626317 1_555
Na22 O0 2.452149 1_655
Na22 O14 2.452149 1_554
Na22 O5 2.508802 1_555
Na22 O1 2.626317 1_555
Na23 O0 2.278667 1_555
Na23 O8 2.324781 1_555
Na23 O5 2.480307 1_455
Na23 O7 2.480307 1_555
O0 Pb0 2.387141 1_565
O2 Pb1 2.387141 1_556
O3 Pb0 2.387141 1_555
O4 Pb2 2.387141 1_555
O5 Pb1 2.387141 1_655
O6 Pb0 2.387141 1_655
O7 Pb1 2.387141 1_555
O9 Pb3 2.387141 1_555
O10 Pb2 2.387141 1_555
O11 Pb3 2.387141 1_565
O12 Pb3 2.387141 1_556
O13 Pb2 2.484865 1_444
O13 Pb1 2.484865 1_555
O13 Pb0 2.484865 1_555
O13 Pb3 2.484865 1_555
O14 Pb2 2.387141 1_555
