# generated using pymatgen
data_BaSrMg(FeO2)4
_symmetry_space_group_name_H-M   'P 1'
_cell_length_a   5.49558400
_cell_length_b   5.49558456
_cell_length_c   8.56995300
_cell_angle_alpha   90.00000000
_cell_angle_beta   90.00000000
_cell_angle_gamma   119.99999663
_symmetry_Int_Tables_number   1
_chemical_formula_structural   BaSrMg(FeO2)4
_chemical_formula_sum   'Ba1 Sr1 Mg1 Fe4 O8'
_cell_volume   224.14901348
_cell_formula_units_Z   1
loop_
 _symmetry_equiv_pos_site_id
 _symmetry_equiv_pos_as_xyz
  1  'x, y, z'
loop_
 _atom_site_type_symbol
 _atom_site_label
 _atom_site_symmetry_multiplicity
 _atom_site_fract_x
 _atom_site_fract_y
 _atom_site_fract_z
 _atom_site_occupancy
  Ba  Ba0  1  0.00000000  0.00000000  0.00000000  1
  Sr  Sr0  1  0.00000000  0.00000000  0.49999900  1
  Mg  Mg0  1  0.66666700  0.33333300  0.50000000  1
  Fe  Fe0  1  0.66666600  0.33333400  0.21128200  1
  Fe  Fe1  1  0.66666600  0.33333400  0.78871800  1
  Fe  Fe2  1  0.33333400  0.66666700  0.75968500  1
  Fe  Fe3  1  0.33333400  0.66666700  0.24031500  1
  O  O0  1  0.37495900  0.36574300  0.66819500  1
  O  O1  1  0.63425800  0.00921700  0.66819500  1
  O  O2  1  0.99078200  0.62503900  0.66819500  1
  O  O3  1  0.63425700  0.62503900  0.33180400  1
  O  O4  1  0.99078400  0.36574300  0.33180400  1
  O  O5  1  0.37496000  0.00921700  0.33180400  1
  O  O6  1  0.33333400  0.66666700  0.00000000  1
  O  O7  1  0.66666600  0.33333400  0.00000000  1
loop_
_geom_bond_atom_site_label_1
_geom_bond_atom_site_label_2
_geom_bond_distance
_geom_bond_site_symmetry_2
Ba0 O6 3.172874 1_445
Ba0 O7 3.172874 1_555
Ba0 O7 3.172874 1_445
Ba0 O6 3.172879 1_545
Ba0 O6 3.172879 1_555
Ba0 O7 3.172883 1_455
Mg0 O2 2.228196 1_555
Mg0 O1 2.228200 1_555
Mg0 O3 2.228204 1_555
Mg0 O5 2.228206 1_555
Mg0 O0 2.228207 1_555
Mg0 O4 2.228208 1_555
Fe0 O7 1.810677 1_555
Fe0 O3 1.988455 1_555
Fe0 O5 1.988465 1_555
Fe0 O4 1.988474 1_555
Fe1 O7 1.810677 1_556
Fe1 O2 1.988465 1_555
Fe1 O0 1.988469 1_555
Fe1 O1 1.988476 1_555
Fe2 O0 1.944296 1_555
Fe2 O1 1.944299 1_565
Fe2 O2 1.944305 1_455
Fe2 O6 2.059488 1_556
Fe3 O4 1.944296 1_455
Fe3 O5 1.944296 1_565
Fe3 O3 1.944297 1_555
Fe3 O6 2.059488 1_555
O0 Sr0 2.494409 1_555
O1 Sr0 2.494407 1_655
O2 Sr0 2.494414 1_665
O3 Sr0 2.494409 1_665
O4 Sr0 2.494404 1_655
O5 Sr0 2.494406 1_555
