# generated using pymatgen
data_Na14Mg6Ti2Si5S7O48
_symmetry_space_group_name_H-M   'P 1'
_cell_length_a   18.04965124
_cell_length_b   9.03612201
_cell_length_c   22.17720682
_cell_angle_alpha   89.95025918
_cell_angle_beta   90.05834076
_cell_angle_gamma   120.15849159
_symmetry_Int_Tables_number   1
_chemical_formula_structural   Na14Mg6Ti2Si5S7O48
_chemical_formula_sum   'Na42 Mg18 Ti6 Si15 S21 O144'
_cell_volume   3127.46387988
_cell_formula_units_Z   3
loop_
 _symmetry_equiv_pos_site_id
 _symmetry_equiv_pos_as_xyz
  1  'x, y, z'
loop_
 _atom_site_type_symbol
 _atom_site_label
 _atom_site_symmetry_multiplicity
 _atom_site_fract_x
 _atom_site_fract_y
 _atom_site_fract_z
 _atom_site_occupancy
  Na  Na0  1  0.81226880  0.00328696  0.24952061  1
  Na  Na1  1  0.68599822  0.35405475  0.24481475  1
  Na  Na2  1  0.50272114  0.64507167  0.24738263  1
  Na  Na3  1  0.30968065  0.61797820  0.74951644  1
  Na  Na4  1  0.00357446  0.37302514  0.74627983  1
  Na  Na5  1  0.17786038  0.00361572  0.74450843  1
  Na  Na6  1  0.15098119  0.32504806  0.57963432  1
  Na  Na7  1  0.66591044  0.35857238  0.58448628  1
  Na  Na8  1  0.01474128  0.69810849  0.57785374  1
  Na  Na9  1  0.52133546  0.68764181  0.58953678  1
  Na  Na10  1  0.32724380  0.98345337  0.58577682  1
  Na  Na11  1  0.82792020  0.95832357  0.58961001  1
  Na  Na12  1  0.16173249  0.96976189  0.08228960  1
  Na  Na13  1  0.65591753  0.98097663  0.07422185  1
  Na  Na14  1  0.32342582  0.69288411  0.08591259  1
  Na  Na15  1  0.82977125  0.67543770  0.08221909  1
  Na  Na16  1  0.02156201  0.35618841  0.08641588  1
  Na  Na17  1  0.51447852  0.33127825  0.07167396  1
  Na  Na18  1  0.48908680  0.66868255  0.91788701  1
  Na  Na19  1  0.98098051  0.66556310  0.91326344  1
  Na  Na20  1  0.35554740  0.04708300  0.92159397  1
  Na  Na21  1  0.84647042  0.03611996  0.91251806  1
  Na  Na22  1  0.16679810  0.29480847  0.91437425  1
  Na  Na23  1  0.66174512  0.28967203  0.92260183  1
  Na  Na24  1  0.48086621  0.30159493  0.42574857  1
  Na  Na25  1  0.98967541  0.31069650  0.42187761  1
  Na  Na26  1  0.16012216  0.03146259  0.42665057  1
  Na  Na27  1  0.66911987  0.04123543  0.41962751  1
  Na  Na28  1  0.34385152  0.65574179  0.41734779  1
  Na  Na29  1  0.85645179  0.66409637  0.42464049  1
  Na  Na30  1  0.00474014  0.99211816  0.50041654  1
  Na  Na31  1  0.50427816  0.01041512  0.50356795  1
  Na  Na32  1  0.00427944  0.99723320  0.99936344  1
  Na  Na33  1  0.50474601  0.01798357  0.99319993  1
  Na  Na34  1  0.33652809  0.33236435  0.82974978  1
  Na  Na35  1  0.82941773  0.33500718  0.82660608  1
  Na  Na36  1  0.32003974  0.32357366  0.33200498  1
  Na  Na37  1  0.83937166  0.34239320  0.33168627  1
  Na  Na38  1  0.16813469  0.67197087  0.16023477  1
  Na  Na39  1  0.66735671  0.66241097  0.16461144  1
  Na  Na40  1  0.16035477  0.67129196  0.66920283  1
  Na  Na41  1  0.67059564  0.66737554  0.66158321  1
  Mg  Mg0  1  0.00489801  0.00233513  0.35347713  1
  Mg  Mg1  1  0.50224986  0.00244167  0.34463105  1
  Mg  Mg2  1  0.00241641  0.99505569  0.83922897  1
  Mg  Mg3  1  0.50460116  0.00740121  0.85257518  1
  Mg  Mg4  1  0.33158266  0.32072057  0.68287816  1
  Mg  Mg5  1  0.82955633  0.33996954  0.68331456  1
  Mg  Mg6  1  0.32297577  0.31778115  0.18057690  1
  Mg  Mg7  1  0.83277199  0.34074858  0.18260524  1
  Mg  Mg8  1  0.33271533  0.31750854  0.98589074  1
  Mg  Mg9  1  0.82707650  0.33507399  0.98510366  1
  Mg  Mg10  1  0.32669916  0.32179091  0.48796714  1
  Mg  Mg11  1  0.83429285  0.34761630  0.48965165  1
  Mg  Mg12  1  0.16681520  0.66935508  0.02247016  1
  Mg  Mg13  1  0.66262917  0.65504840  0.01337665  1
  Mg  Mg14  1  0.16055542  0.66666993  0.51596440  1
  Mg  Mg15  1  0.66803579  0.66814327  0.52452853  1
  Mg  Mg16  1  0.66616966  0.67365133  0.31420139  1
  Mg  Mg17  1  0.16157374  0.65980444  0.80980913  1
  Ti  Ti0  1  0.00720190  0.98593334  0.65073595  1
  Ti  Ti1  1  0.50941868  0.02325439  0.64546042  1
  Ti  Ti2  1  0.00927971  0.99784865  0.14506730  1
  Ti  Ti3  1  0.50563547  0.00830317  0.14553933  1
  Ti  Ti4  1  0.15942662  0.64696795  0.31899205  1
  Ti  Ti5  1  0.66100674  0.67454348  0.81854048  1
  Si  Si0  1  0.65006584  0.00121047  0.25138915  1
  Si  Si1  1  0.15074493  0.29701451  0.75084883  1
  Si  Si2  1  0.99524920  0.69045766  0.75468834  1
  Si  Si3  1  0.47751821  0.33569583  0.58204814  1
  Si  Si4  1  0.18564272  0.03059566  0.58402466  1
  Si  Si5  1  0.69016817  0.04401927  0.58206586  1
  Si  Si6  1  0.83621253  0.63503793  0.58325842  1
  Si  Si7  1  0.97738957  0.61927458  0.08227398  1
  Si  Si8  1  0.33561365  0.03945764  0.08429256  1
  Si  Si9  1  0.18952195  0.33827722  0.08149028  1
  Si  Si10  1  0.68690329  0.34237921  0.08540740  1
  Si  Si11  1  0.51566653  0.36837908  0.91750346  1
  Si  Si12  1  0.66800484  0.96589575  0.92087905  1
  Si  Si13  1  0.16815310  0.37042413  0.42062448  1
  Si  Si14  1  0.01491137  0.66256130  0.41775338  1
  S  S0  1  0.14839530  0.99898801  0.25130535  1
  S  S1  1  0.35200977  0.70503103  0.25085293  1
  S  S2  1  0.85517918  0.71090132  0.25155147  1
  S  S3  1  0.00091543  0.29095266  0.25086239  1
  S  S4  1  0.49811156  0.29276383  0.25120562  1
  S  S5  1  0.64685205  0.29685123  0.75171731  1
  S  S6  1  0.50151815  0.71173530  0.75065242  1
  S  S7  1  0.35745389  0.00148798  0.75133140  1
  S  S8  1  0.85033895  0.99347041  0.75124925  1
  S  S9  1  0.98049880  0.33037488  0.58355768  1
  S  S10  1  0.33511416  0.63194076  0.58406587  1
  S  S11  1  0.48008611  0.62863420  0.08605495  1
  S  S12  1  0.83475681  0.03803390  0.08494794  1
  S  S13  1  0.31156637  0.66585612  0.91571482  1
  S  S14  1  0.81282795  0.67166590  0.91588840  1
  S  S15  1  0.01916446  0.37069482  0.91741996  1
  S  S16  1  0.16617803  0.95740844  0.91618500  1
  S  S17  1  0.31408833  0.95644894  0.41406095  1
  S  S18  1  0.81189907  0.95839458  0.41530547  1
  S  S19  1  0.66418256  0.37438369  0.41405360  1
  S  S20  1  0.51936433  0.66748584  0.41572946  1
  O  O0  1  0.10370954  0.01647060  0.30367120  1
  O  O1  1  0.60642495  0.03213880  0.31020687  1
  O  O2  1  0.40411758  0.78904700  0.30581845  1
  O  O3  1  0.90519335  0.80007896  0.30533991  1
  O  O4  1  0.48534282  0.18989200  0.30604663  1
  O  O5  1  0.98971795  0.18510526  0.30463245  1
  O  O6  1  0.10904317  0.18624770  0.81189004  1
  O  O7  1  0.60251116  0.19176853  0.80465370  1
  O  O8  1  0.49053195  0.79468490  0.80483400  1
  O  O9  1  0.98249724  0.77509938  0.81483414  1
  O  O10  1  0.40823310  0.01544773  0.80535294  1
  O  O11  1  0.90226524  0.01697970  0.80681711  1
  O  O12  1  0.39907081  0.97574896  0.69634008  1
  O  O13  1  0.89282127  0.97359685  0.69715314  1
  O  O14  1  0.08422348  0.19277952  0.69260695  1
  O  O15  1  0.59146515  0.20801189  0.69574685  1
  O  O16  1  0.00999519  0.82558172  0.69579070  1
  O  O17  1  0.51237038  0.81734269  0.69557506  1
  O  O18  1  0.39510905  0.81035338  0.19647420  1
  O  O19  1  0.89585739  0.82021306  0.19639353  1
  O  O20  1  0.01131017  0.20635594  0.19560392  1
  O  O21  1  0.51014571  0.20681670  0.19747190  1
  O  O22  1  0.09436005  0.97828958  0.19492595  1
  O  O23  1  0.58260141  0.97567517  0.19352788  1
  O  O24  1  0.43421651  0.37519177  0.63762457  1
  O  O25  1  0.94024317  0.35396569  0.63803954  1
  O  O26  1  0.24408346  0.11506458  0.64304390  1
  O  O27  1  0.75187714  0.12908952  0.63845148  1
  O  O28  1  0.32241280  0.52712071  0.63822148  1
  O  O29  1  0.81536950  0.50335970  0.63744669  1
  O  O30  1  0.44090953  0.52759584  0.14101565  1
  O  O31  1  0.93464572  0.49503624  0.13860928  1
  O  O32  1  0.31941031  0.12911885  0.14068981  1
  O  O33  1  0.82166907  0.11551053  0.13928641  1
  O  O34  1  0.24971173  0.37823162  0.13899263  1
  O  O35  1  0.74214163  0.36989271  0.14564672  1
  O  O36  1  0.21944716  0.27997358  0.02123461  1
  O  O37  1  0.71937962  0.28736113  0.02566399  1
  O  O38  1  0.42757565  0.54926696  0.03129306  1
  O  O39  1  0.91913694  0.56078343  0.02136445  1
  O  O40  1  0.36440687  0.15595216  0.02299976  1
  O  O41  1  0.85095612  0.14544844  0.03046702  1
  O  O42  1  0.22004757  0.14811470  0.52322698  1
  O  O43  1  0.71815381  0.15650705  0.51980077  1
  O  O44  1  0.35223711  0.55843921  0.52929135  1
  O  O45  1  0.86159031  0.57187642  0.52108668  1
  O  O46  1  0.42029913  0.28037437  0.52021885  1
  O  O47  1  0.92849475  0.30717969  0.52842578  1
  O  O48  1  0.27220159  0.69294644  0.97022950  1
  O  O49  1  0.77477570  0.69359586  0.97202268  1
  O  O50  1  0.07338073  0.45236092  0.97130559  1
  O  O51  1  0.57421362  0.44717176  0.97669017  1
  O  O52  1  0.15664064  0.85414914  0.97080498  1
  O  O53  1  0.65448441  0.84931466  0.97963881  1
  O  O54  1  0.27877987  0.85713886  0.47009779  1
  O  O55  1  0.77077499  0.84990140  0.46849998  1
  O  O56  1  0.15633578  0.46353330  0.47837079  1
  O  O57  1  0.65401125  0.45781612  0.46800788  1
  O  O58  1  0.07589179  0.70246968  0.47516244  1
  O  O59  1  0.57408197  0.69462350  0.46886155  1
  O  O60  1  0.07442728  0.64204130  0.35962552  1
  O  O61  1  0.55914672  0.64410084  0.36045598  1
  O  O62  1  0.25781607  0.86580008  0.36123983  1
  O  O63  1  0.75914445  0.87783318  0.36007043  1
  O  O64  1  0.18008699  0.50517111  0.36081698  1
  O  O65  1  0.67345838  0.47709006  0.35899368  1
  O  O66  1  0.05987413  0.47406717  0.86277497  1
  O  O67  1  0.57545170  0.50742427  0.86031687  1
  O  O68  1  0.17598181  0.87359518  0.86193838  1
  O  O69  1  0.67987626  0.85492185  0.86187161  1
  O  O70  1  0.25861524  0.64269243  0.86151055  1
  O  O71  1  0.75704231  0.64915350  0.86295429  1
  O  O72  1  0.00434701  0.82852680  0.40711210  1
  O  O73  1  0.50806017  0.82166697  0.41106746  1
  O  O74  1  0.40177620  0.97588123  0.40680651  1
  O  O75  1  0.89859103  0.97807806  0.40909882  1
  O  O76  1  0.08168699  0.18749988  0.40994578  1
  O  O77  1  0.58378810  0.19982327  0.41095188  1
  O  O78  1  0.00723650  0.19376161  0.91316611  1
  O  O79  1  0.50463711  0.18017162  0.90797354  1
  O  O80  1  0.08785700  0.97542715  0.91443965  1
  O  O81  1  0.58137127  0.97588050  0.91054578  1
  O  O82  1  0.39912256  0.81996568  0.91004619  1
  O  O83  1  0.89906022  0.82985008  0.91112010  1
  O  O84  1  0.48664483  0.15477068  0.59544042  1
  O  O85  1  0.98831047  0.17378618  0.58749814  1
  O  O86  1  0.08857729  0.01456960  0.59124038  1
  O  O87  1  0.58879903  0.02225610  0.59602286  1
  O  O88  1  0.41442947  0.80854685  0.59050377  1
  O  O89  1  0.92099252  0.83259600  0.59467447  1
  O  O90  1  0.48694429  0.80323243  0.08963762  1
  O  O91  1  0.98714661  0.81997900  0.09666405  1
  O  O92  1  0.42077952  0.01066345  0.09787443  1
  O  O93  1  0.91385005  0.01960531  0.09136515  1
  O  O94  1  0.08826866  0.15758091  0.09591988  1
  O  O95  1  0.58756053  0.16369980  0.09451200  1
  O  O96  1  0.34802150  0.15356428  0.74712123  1
  O  O97  1  0.84275120  0.14871716  0.74654947  1
  O  O98  1  0.24687891  0.31962790  0.74459468  1
  O  O99  1  0.72987556  0.30756971  0.74590865  1
  O  O100  1  0.42426924  0.54173722  0.74528372  1
  O  O101  1  0.91760609  0.49583034  0.74572559  1
  O  O102  1  0.34820304  0.53639353  0.24691502  1
  O  O103  1  0.84605294  0.54028273  0.24759039  1
  O  O104  1  0.42624015  0.32561352  0.24506996  1
  O  O105  1  0.92380595  0.30621501  0.24547081  1
  O  O106  1  0.23265626  0.15364376  0.24631678  1
  O  O107  1  0.74618898  0.16823277  0.24446496  1
  O  O108  1  0.32083239  0.51155352  0.92151774  1
  O  O109  1  0.82110024  0.51617483  0.91761450  1
  O  O110  1  0.42471428  0.36717892  0.91574153  1
  O  O111  1  0.93311708  0.35473089  0.92317041  1
  O  O112  1  0.24421291  0.13109060  0.91914315  1
  O  O113  1  0.75619302  0.15207737  0.91838590  1
  O  O114  1  0.32275525  0.12840667  0.41551666  1
  O  O115  1  0.82081984  0.13073104  0.42062944  1
  O  O116  1  0.25657753  0.36149339  0.41731260  1
  O  O117  1  0.74068623  0.35401305  0.41662073  1
  O  O118  1  0.43317634  0.51202416  0.42110601  1
  O  O119  1  0.92407465  0.48181225  0.41526161  1
  O  O120  1  0.16796233  0.49101837  0.07519803  1
  O  O121  1  0.67360914  0.50815783  0.08020659  1
  O  O122  1  0.07591201  0.66518306  0.07607635  1
  O  O123  1  0.56769521  0.65504400  0.08144625  1
  O  O124  1  0.25372078  0.84789742  0.07689887  1
  O  O125  1  0.75930557  0.86445527  0.07868157  1
  O  O126  1  0.17443540  0.83935403  0.57902610  1
  O  O127  1  0.66707354  0.84696475  0.57545602  1
  O  O128  1  0.25993891  0.65373108  0.57734522  1
  O  O129  1  0.75365330  0.66180299  0.57627224  1
  O  O130  1  0.06770520  0.48372394  0.57931423  1
  O  O131  1  0.57568129  0.48814281  0.57504562  1
  O  O132  1  0.15514281  0.84181450  0.25383915  1
  O  O133  1  0.65417130  0.82258816  0.25114791  1
  O  O134  1  0.26567537  0.68719944  0.25515288  1
  O  O135  1  0.76699193  0.69071796  0.25452976  1
  O  O136  1  0.08044742  0.46454840  0.25506805  1
  O  O137  1  0.58017474  0.46243246  0.25520464  1
  O  O138  1  0.15907820  0.48639180  0.75134464  1
  O  O139  1  0.65361039  0.46720860  0.75384472  1
  O  O140  1  0.08824957  0.69794736  0.75252602  1
  O  O141  1  0.58090051  0.69720569  0.75537488  1
  O  O142  1  0.27101530  0.84442431  0.75467792  1
  O  O143  1  0.76384229  0.83466602  0.75669514  1
loop_
_geom_bond_atom_site_label_1
_geom_bond_atom_site_label_2
_geom_bond_distance
_geom_bond_site_symmetry_2
Na0 O107 2.332875 1_555
Na0 O105 2.452890 1_555
Na0 O133 2.475649 1_545
Na0 O135 2.517519 1_545
Na0 O33 2.618639 1_555
Na0 O63 2.668905 1_545
Na1 O35 2.396342 1_555
Na1 O107 2.415115 1_555
Na1 O103 2.509297 1_555
Na1 O137 2.557607 1_555
Na1 O135 2.640083 1_555
Na1 O65 2.820997 1_555
Na1 O1 2.902847 1_555
Na1 O21 2.949522 1_555
Na2 O133 2.376248 1_555
Na2 O102 2.447645 1_555
Na2 O104 2.497446 1_555
Na2 O30 2.597131 1_555
Na2 O137 2.650555 1_555
Na2 O61 2.707285 1_555
Na2 O23 2.845901 1_555
Na2 O2 2.978875 1_555
Na3 O98 2.344044 1_555
Na3 O138 2.357374 1_555
Na3 O142 2.474371 1_555
Na3 O100 2.488663 1_555
Na3 O28 2.648239 1_555
Na3 O70 2.698281 1_555
Na4 O101 2.317195 1_455
Na4 O138 2.459796 1_555
Na4 O140 2.543001 1_555
Na4 O97 2.573471 1_455
Na4 O25 2.626008 1_455
Na4 O66 2.758155 1_555
Na4 O14 2.928781 1_555
Na5 O140 2.405737 1_545
Na5 O98 2.476211 1_555
Na5 O26 2.509654 1_555
Na5 O96 2.662847 1_555
Na5 O142 2.715904 1_545
Na5 O16 2.834499 1_545
Na5 O68 2.849307 1_545
Na5 O6 2.926960 1_555
Na6 O86 2.455619 1_555
Na6 O130 2.545710 1_555
Na6 O85 2.547119 1_455
Na6 O56 2.548071 1_555
Na6 O128 2.611952 1_555
Na6 O42 2.772072 1_555
Na6 O14 2.776944 1_555
Na6 O28 2.985922 1_555
Na7 O129 2.385083 1_555
Na7 O131 2.445771 1_555
Na7 O29 2.611239 1_555
Na7 O87 2.643388 1_555
Na7 O57 2.776952 1_555
Na7 O15 2.812268 1_555
Na7 O84 2.816664 1_555
Na7 O43 2.831659 1_555
Na8 O86 2.492566 1_565
Na8 O126 2.498286 1_555
Na8 O58 2.523419 1_555
Na8 O130 2.555060 1_555
Na8 O89 2.558821 1_455
Na8 O45 2.711948 1_455
Na8 O16 2.877476 1_555
Na9 O127 2.299018 1_555
Na9 O131 2.468528 1_555
Na9 O87 2.635651 1_565
Na9 O88 2.652510 1_555
Na9 O24 2.668058 1_555
Na9 O17 2.669465 1_555
Na9 O59 2.831465 1_555
Na9 O44 2.979567 1_555
Na10 O126 2.390845 1_555
Na10 O84 2.498866 1_565
Na10 O128 2.598339 1_555
Na10 O26 2.660916 1_565
Na10 O88 2.735648 1_555
Na10 O46 2.757476 1_565
Na10 O54 2.765274 1_555
Na10 O12 2.789584 1_555
Na11 O129 2.335646 1_555
Na11 O89 2.458156 1_555
Na11 O85 2.551568 1_565
Na11 O127 2.569655 1_555
Na11 O13 2.629071 1_555
Na11 O27 2.751761 1_565
Na11 O55 2.867274 1_555
Na12 O122 2.389499 1_555
Na12 O124 2.412762 1_555
Na12 O94 2.644406 1_565
Na12 O52 2.668375 1_554
Na12 O91 2.753083 1_455
Na12 O32 2.780060 1_565
Na12 O22 2.797354 1_555
Na12 O36 2.799687 1_565
Na13 O53 2.406089 1_554
Na13 O95 2.549568 1_565
Na13 O123 2.553973 1_555
Na13 O125 2.564072 1_555
Na13 O37 2.635792 1_565
Na13 O90 2.660384 1_555
Na13 O23 2.949129 1_555
Na13 O33 2.974967 1_565
Na14 O124 2.314017 1_555
Na14 O120 2.472676 1_555
Na14 O92 2.516749 1_565
Na14 O90 2.598989 1_555
Na14 O18 2.725972 1_555
Na14 O48 2.726256 1_554
Na14 O34 2.726957 1_555
Na15 O121 2.439383 1_555
Na15 O91 2.479598 1_555
Na15 O125 2.592946 1_555
Na15 O49 2.672581 1_554
Na15 O39 2.680032 1_555
Na15 O93 2.697074 1_565
Na15 O35 2.777251 1_555
Na15 O19 2.824410 1_555
Na16 O120 2.301062 1_555
Na16 O122 2.461302 1_555
Na16 O94 2.623896 1_555
Na16 O93 2.664681 1_455
Na16 O50 2.707626 1_554
Na16 O31 2.712758 1_455
Na16 O20 2.733932 1_555
Na16 O41 2.958488 1_455
Na17 O51 2.358539 1_554
Na17 O121 2.495381 1_555
Na17 O95 2.508761 1_555
Na17 O92 2.582071 1_555
Na17 O40 2.587955 1_555
Na17 O123 2.589545 1_555
Na18 O110 2.365208 1_555
Na18 O81 2.420829 1_555
Na18 O82 2.600998 1_555
Na18 O108 2.629276 1_555
Na18 O38 2.742191 1_556
Na18 O8 2.747438 1_555
Na18 O67 2.910849 1_555
Na18 O53 2.924295 1_555
Na19 O9 2.390514 1_555
Na19 O80 2.476825 1_655
Na19 O111 2.498943 1_555
Na19 O109 2.499092 1_555
Na19 O83 2.568600 1_555
Na19 O39 2.613323 1_556
Na20 O79 2.351250 1_555
Na20 O40 2.428153 1_556
Na20 O112 2.479907 1_555
Na20 O110 2.512558 1_555
Na20 O82 2.553263 1_545
Na20 O10 2.812655 1_555
Na21 O113 2.342272 1_555
Na21 O83 2.480709 1_545
Na21 O111 2.503334 1_555
Na21 O78 2.509238 1_655
Na21 O11 2.592236 1_555
Na21 O41 2.783612 1_556
Na21 O69 2.834363 1_545
Na22 O108 2.473693 1_555
Na22 O6 2.487213 1_555
Na22 O80 2.495446 1_545
Na22 O112 2.495732 1_555
Na22 O78 2.546884 1_555
Na22 O36 2.580727 1_556
Na23 O81 2.466430 1_545
Na23 O79 2.511000 1_555
Na23 O37 2.514684 1_556
Na23 O109 2.561150 1_555
Na23 O113 2.567294 1_555
Na23 O7 2.795689 1_555
Na23 O51 2.868197 1_555
Na24 O46 2.326932 1_555
Na24 O118 2.451772 1_555
Na24 O77 2.474425 1_555
Na24 O114 2.481289 1_555
Na24 O74 2.579921 1_545
Na24 O4 2.856496 1_555
Na24 O57 2.863831 1_555
Na25 O119 2.377648 1_555
Na25 O76 2.434446 1_655
Na25 O47 2.602667 1_555
Na25 O75 2.617686 1_545
Na25 O115 2.637072 1_555
Na25 O5 2.838096 1_555
Na25 O56 2.889120 1_655
Na25 O60 2.933532 1_655
Na26 O42 2.392053 1_555
Na26 O76 2.476543 1_555
Na26 O72 2.504849 1_545
Na26 O116 2.598128 1_555
Na26 O114 2.619666 1_555
Na26 O58 2.786217 1_545
Na26 O0 2.889620 1_555
Na27 O43 2.424320 1_555
Na27 O115 2.434510 1_555
Na27 O117 2.447962 1_555
Na27 O73 2.574431 1_545
Na27 O77 2.584461 1_555
Na27 O1 2.660304 1_555
Na28 O116 2.311397 1_555
Na28 O118 2.529080 1_555
Na28 O74 2.544899 1_555
Na28 O73 2.566607 1_555
Na28 O44 2.662407 1_555
Na28 O2 2.726852 1_555
Na28 O64 2.848625 1_555
Na28 O54 2.866019 1_555
Na29 O45 2.313459 1_555
Na29 O72 2.345328 1_655
Na29 O119 2.503460 1_555
Na29 O117 2.523096 1_555
Na29 O75 2.564651 1_555
Na29 O3 2.862996 1_555
Na29 O55 2.961621 1_555
Na30 O86 2.464578 1_565
Na30 O72 2.541984 1_555
Na30 O89 2.558184 1_455
Na30 O76 2.570459 1_565
Na30 O85 2.647292 1_465
Na30 O75 2.745288 1_455
Na31 O87 2.524465 1_555
Na31 O84 2.525309 1_555
Na31 O88 2.588906 1_545
Na31 O77 2.596064 1_555
Na31 O73 2.691684 1_545
Na31 O74 2.745577 1_545
Na32 O80 2.483290 1_555
Na32 O78 2.590340 1_565
Na32 O94 2.602821 1_566
Na32 O91 2.610567 1_456
Na32 O83 2.614505 1_455
Na32 O93 2.684593 1_466
Na33 O79 2.391304 1_555
Na33 O81 2.439815 1_545
Na33 O82 2.609214 1_545
Na33 O95 2.652727 1_556
Na33 O92 2.756144 1_556
Na33 O90 2.794756 1_546
Na34 O110 2.400241 1_555
Na34 O98 2.450528 1_555
Na34 O96 2.520720 1_555
Na34 O100 2.566268 1_555
Na34 O112 2.640071 1_555
Na34 O108 2.704008 1_555
Na35 O101 2.353714 1_555
Na35 O99 2.457451 1_555
Na35 O113 2.535069 1_555
Na35 O97 2.541029 1_555
Na35 O109 2.651295 1_555
Na35 O111 2.789017 1_555
Na36 O116 2.325650 1_555
Na36 O106 2.454019 1_555
Na36 O102 2.555579 1_555
Na36 O114 2.573641 1_555
Na36 O104 2.713637 1_555
Na36 O118 2.734601 1_555
Na37 O119 2.328704 1_555
Na37 O107 2.527092 1_555
Na37 O103 2.543285 1_555
Na37 O105 2.567666 1_555
Na37 O117 2.631903 1_555
Na37 O115 2.648069 1_555
Na38 O124 2.421243 1_555
Na38 O122 2.479787 1_555
Na38 O120 2.496068 1_555
Na38 O132 2.662294 1_555
Na38 O134 2.701702 1_555
Na38 O136 2.731378 1_555
Na39 O121 2.371169 1_555
Na39 O133 2.487269 1_555
Na39 O123 2.552480 1_555
Na39 O125 2.583623 1_555
Na39 O135 2.609131 1_555
Na39 O137 2.630791 1_555
Na40 O140 2.342464 1_555
Na40 O126 2.445047 1_555
Na40 O138 2.463059 1_555
Na40 O130 2.606592 1_555
Na40 O142 2.624501 1_555
Na40 O128 2.774997 1_555
Na41 O129 2.431321 1_555
Na41 O127 2.526628 1_555
Na41 O131 2.540071 1_555
Na41 O139 2.643808 1_555
Na41 O143 2.647442 1_555
Na41 O141 2.732503 1_555
Mg0 O72 1.965368 1_545
Mg0 O76 1.989673 1_555
Mg0 O0 2.047474 1_555
Mg0 O3 2.100763 1_445
Mg0 O5 2.104046 1_455
Mg0 O75 2.198457 1_445
Mg1 O1 1.919904 1_555
Mg1 O2 2.040690 1_545
Mg1 O4 2.052000 1_555
Mg1 O74 2.194294 1_545
Mg1 O77 2.207496 1_555
Mg1 O73 2.240044 1_545
Mg2 O9 1.912008 1_455
Mg2 O6 1.927690 1_565
Mg2 O11 2.044657 1_465
Mg2 O83 2.335459 1_455
Mg2 O80 2.336866 1_555
Mg2 O78 2.401674 1_565
Mg3 O79 1.987206 1_555
Mg3 O81 2.011554 1_545
Mg3 O7 2.017559 1_555
Mg3 O10 2.061751 1_555
Mg3 O8 2.095852 1_545
Mg3 O82 2.208830 1_545
Mg4 O24 1.941133 1_555
Mg4 O26 1.944001 1_555
Mg4 O98 2.049381 1_555
Mg4 O28 2.189354 1_555
Mg4 O96 2.201151 1_555
Mg4 O100 2.312078 1_555
Mg5 O29 1.912286 1_555
Mg5 O27 1.975538 1_555
Mg5 O101 2.043267 1_555
Mg5 O99 2.173694 1_555
Mg5 O25 2.183021 1_555
Mg5 O97 2.327799 1_555
Mg6 O32 1.893451 1_555
Mg6 O34 1.902637 1_555
Mg6 O106 2.134151 1_555
Mg6 O30 2.200291 1_555
Mg6 O102 2.318162 1_555
Mg6 O104 2.320985 1_555
Mg7 O31 1.924131 1_555
Mg7 O35 1.961354 1_555
Mg7 O107 2.075391 1_555
Mg7 O33 2.167630 1_555
Mg7 O103 2.225956 1_555
Mg7 O105 2.291457 1_555
Mg8 O40 1.992900 1_556
Mg8 O36 2.053112 1_556
Mg8 O110 2.152741 1_555
Mg8 O38 2.174494 1_556
Mg8 O112 2.208235 1_555
Mg8 O108 2.351904 1_555
Mg9 O37 1.983559 1_556
Mg9 O39 2.040193 1_556
Mg9 O113 2.105978 1_555
Mg9 O41 2.207282 1_556
Mg9 O109 2.258885 1_555
Mg9 O111 2.290149 1_555
Mg10 O42 1.935328 1_555
Mg10 O46 2.034268 1_555
Mg10 O116 2.153392 1_555
Mg10 O44 2.153412 1_555
Mg10 O114 2.349452 1_555
Mg10 O118 2.351395 1_555
Mg11 O45 1.957999 1_555
Mg11 O43 2.046225 1_555
Mg11 O47 2.093974 1_555
Mg11 O119 2.201307 1_555
Mg11 O117 2.360836 1_555
Mg11 O115 2.401800 1_555
Mg12 O124 1.994276 1_555
Mg12 O120 1.998718 1_555
Mg12 O122 2.012119 1_555
Mg12 O52 2.106950 1_554
Mg12 O48 2.145373 1_554
Mg12 O50 2.157242 1_554
Mg13 O51 1.930055 1_554
Mg13 O53 1.979824 1_554
Mg13 O121 2.063488 1_555
Mg13 O49 2.086772 1_554
Mg13 O123 2.284784 1_555
Mg13 O125 2.324842 1_555
Mg14 O58 1.937025 1_555
Mg14 O56 1.982992 1_555
Mg14 O126 2.015879 1_555
Mg14 O130 2.175389 1_555
Mg14 O54 2.204896 1_555
Mg14 O128 2.300005 1_555
Mg15 O129 1.947691 1_555
Mg15 O127 1.979470 1_555
Mg15 O131 1.988910 1_555
Mg15 O55 2.149680 1_555
Mg15 O57 2.183441 1_555
Mg15 O59 2.204571 1_555
Mg16 O133 2.025453 1_555
Mg16 O63 2.035638 1_555
Mg16 O61 2.083364 1_555
Mg16 O65 2.095295 1_555
Mg16 O137 2.188014 1_555
Mg16 O135 2.193011 1_555
Mg17 O140 1.984540 1_555
Mg17 O138 2.017685 1_555
Mg17 O66 2.114608 1_555
Mg17 O68 2.152817 1_555
Mg17 O70 2.162014 1_555
Mg17 O142 2.206864 1_555
O0 S0 1.467799 1_545
O1 Si0 1.619874 1_555
O2 S1 1.492878 1_555
O3 S2 1.468260 1_555
O4 S4 1.476394 1_555
O5 S3 1.477128 1_655
O6 Si1 1.625936 1_555
O7 S5 1.468600 1_555
O8 S6 1.482013 1_555
O9 Si2 1.611343 1_555
O10 S7 1.474159 1_555
O11 S8 1.496755 1_545
O12 S7 1.511147 1_565
O12 Ti1 2.137562 1_565
O13 S8 1.483275 1_555
O13 Ti0 2.259927 1_655
O14 Si1 1.691084 1_555
O14 Ti0 1.917801 1_545
O15 S5 1.541892 1_555
O15 Ti1 1.933821 1_555
O16 Si2 1.714409 1_455
O16 Ti0 1.780781 1_555
O17 S6 1.500545 1_555
O17 Ti1 2.189964 1_565
O18 S1 1.490399 1_555
O18 Ti3 2.207014 1_565
O19 S2 1.510665 1_555
O19 Ti2 2.182440 1_655
O20 S3 1.505839 1_555
O20 Ti2 2.177492 1_545
O21 S4 1.497341 1_555
O21 Ti3 2.099391 1_555
O22 S0 1.537596 1_555
O22 Ti2 1.970041 1_555
O23 Si0 1.702256 1_565
O23 Ti3 1.886119 1_565
O24 Si3 1.593853 1_555
O25 S9 1.480249 1_555
O26 Si4 1.611948 1_555
O27 Si5 1.591771 1_555
O28 S10 1.473952 1_555
O29 Si6 1.596919 1_555
O30 S11 1.473218 1_555
O31 Si7 1.595522 1_555
O32 Si8 1.595891 1_555
O33 S12 1.471853 1_555
O34 Si9 1.593968 1_555
O35 Si10 1.609167 1_555
O36 Si9 1.625926 1_555
O37 Si10 1.625358 1_555
O38 S11 1.484507 1_555
O39 Si7 1.627731 1_555
O40 Si8 1.635589 1_555
O41 S12 1.483555 1_555
O42 Si4 1.633369 1_555
O43 Si5 1.636523 1_555
O44 S10 1.490190 1_555
O45 Si6 1.643767 1_555
O46 Si3 1.635934 1_555
O47 S9 1.490086 1_555
O48 S13 1.484395 1_555
O49 S14 1.483141 1_555
O50 S15 1.484535 1_555
O51 Si11 1.609149 1_555
O52 S16 1.484791 1_555
O53 Si12 1.614740 1_555
O54 S17 1.476782 1_555
O55 S18 1.473898 1_555
O56 Si13 1.605046 1_555
O57 S19 1.474757 1_555
O58 Si14 1.600506 1_555
O59 S20 1.476069 1_555
O60 Si14 1.747445 1_555
O60 Ti4 1.761234 1_555
O61 S20 1.489152 1_555
O62 S17 1.496031 1_555
O62 Ti4 2.100742 1_555
O63 S18 1.496606 1_555
O64 Si13 1.738509 1_555
O64 Ti4 1.765920 1_555
O65 S19 1.490868 1_555
O66 S15 1.480296 1_555
O67 Si11 1.728936 1_555
O67 Ti5 1.783487 1_555
O68 S16 1.479480 1_555
O69 Si12 1.727050 1_555
O69 Ti5 1.772105 1_555
O70 S13 1.483038 1_555
O71 S14 1.491832 1_555
O71 Ti5 2.103150 1_555
O72 Si14 1.621029 1_555
O73 S20 1.509522 1_555
O74 S17 1.510957 1_555
O75 S18 1.489901 1_555
O76 Si13 1.622302 1_555
O77 S19 1.516106 1_555
O78 S15 1.505238 1_555
O79 Si11 1.623859 1_555
O80 S16 1.502536 1_555
O81 Si12 1.626906 1_555
O82 S13 1.497122 1_555
O83 S14 1.497171 1_555
O84 Si3 1.748651 1_555
O84 Ti1 1.816435 1_555
O85 S9 1.493263 1_555
O85 Ti0 2.353922 1_645
O86 Si4 1.691649 1_555
O86 Ti0 1.893866 1_545
O87 Si5 1.766836 1_555
O87 Ti1 1.808654 1_555
O88 S10 1.523487 1_555
O88 Ti1 2.201509 1_565
O89 Si6 1.687523 1_555
O89 Ti0 1.928620 1_655
O90 S11 1.521417 1_555
O90 Ti3 2.111762 1_565
O91 Si7 1.761231 1_555
O91 Ti2 1.803360 1_655
O92 Si8 1.709459 1_555
O92 Ti3 1.869013 1_555
O93 S12 1.524616 1_555
O93 Ti2 2.181656 1_645
O94 Si9 1.763638 1_555
O94 Ti2 1.799089 1_545
O95 Si10 1.718733 1_555
O95 Ti3 1.831194 1_555
O96 S7 1.469998 1_555
O97 S8 1.479970 1_545
O98 Si1 1.648041 1_555
O99 S5 1.458133 1_555
O100 S6 1.471683 1_555
O101 Si2 1.618653 1_555
O102 S1 1.493124 1_555
O103 S2 1.468609 1_555
O104 S4 1.475119 1_555
O105 S3 1.470687 1_655
O106 S0 1.463823 1_545
O107 Si0 1.637271 1_555
O108 S13 1.490823 1_555
O109 S14 1.486127 1_555
O110 Si11 1.636662 1_555
O111 S15 1.491485 1_655
O112 S16 1.493361 1_545
O113 Si12 1.635966 1_545
O114 S17 1.481805 1_545
O115 S18 1.487697 1_545
O116 Si13 1.639781 1_555
O117 S19 1.482945 1_555
O118 S20 1.487266 1_555
O119 Si14 1.633435 1_655
O120 Si9 1.617109 1_555
O121 Si10 1.635753 1_555
O122 Si7 1.616318 1_455
O123 S11 1.479548 1_555
O124 Si8 1.623932 1_565
O125 S12 1.479131 1_565
O126 Si4 1.639671 1_565
O127 Si5 1.618749 1_565
O128 S10 1.473131 1_555
O129 Si6 1.632385 1_555
O130 S9 1.488319 1_455
O131 Si3 1.615177 1_555
O132 S0 1.486175 1_555
O132 Ti4 2.307769 1_555
O133 Si0 1.652537 1_565
O134 S1 1.487064 1_555
O134 Ti4 2.262405 1_555
O135 S2 1.509898 1_555
O136 S3 1.505798 1_555
O136 Ti4 2.097120 1_555
O137 S4 1.506842 1_555
O138 Si1 1.640878 1_555
O139 S5 1.482633 1_555
O139 Ti5 2.310708 1_555
O140 Si2 1.646411 1_455
O141 S6 1.506612 1_555
O141 Ti5 2.094697 1_555
O142 S7 1.493022 1_565
O143 S8 1.503403 1_555
O143 Ti5 2.173287 1_555
