# generated using pymatgen
data_NaZnIn3(SO4)6
_symmetry_space_group_name_H-M   'P 1'
_cell_length_a   8.86039813
_cell_length_b   8.86039784
_cell_length_c   23.07076782
_cell_angle_alpha   90.00000000
_cell_angle_beta   90.00000000
_cell_angle_gamma   120.00000112
_symmetry_Int_Tables_number   1
_chemical_formula_structural   NaZnIn3(SO4)6
_chemical_formula_sum   'Na3 Zn3 In9 S18 O72'
_cell_volume   1568.55277217
_cell_formula_units_Z   3
loop_
 _symmetry_equiv_pos_site_id
 _symmetry_equiv_pos_as_xyz
  1  'x, y, z'
loop_
 _atom_site_type_symbol
 _atom_site_label
 _atom_site_symmetry_multiplicity
 _atom_site_fract_x
 _atom_site_fract_y
 _atom_site_fract_z
 _atom_site_occupancy
  Na  Na0  1  -0.00000000  0.00000000  0.99761211  1
  Na  Na1  1  0.66666700  0.33333300  0.83573766  1
  Na  Na2  1  0.66666700  0.33333300  0.33338886  1
  Zn  Zn0  1  -0.00000000  0.00000000  0.35372104  1
  Zn  Zn1  1  -0.00000000  0.00000000  0.85108071  1
  Zn  Zn2  1  0.66666700  0.33333300  0.98207018  1
  In  In0  1  -0.00000000  0.00000000  0.64777605  1
  In  In1  1  -0.00000000  0.00000000  0.14953720  1
  In  In2  1  0.66666700  0.33333300  0.68488085  1
  In  In3  1  0.66666700  0.33333300  0.18367466  1
  In  In4  1  0.66666700  0.33333300  0.48193962  1
  In  In5  1  0.33333300  0.66666700  0.01904283  1
  In  In6  1  0.33333300  0.66666700  0.51895511  1
  In  In7  1  0.33333300  0.66666700  0.31353624  1
  In  In8  1  0.33333300  0.66666700  0.81418037  1
  S  S0  1  0.29074187  0.00048772  0.25147514  1
  S  S1  1  0.70974584  0.70925813  0.25147514  1
  S  S2  1  0.99951228  0.29025416  0.25147514  1
  S  S3  1  0.29015293  0.29001597  0.75128064  1
  S  S4  1  0.99986304  0.70984707  0.75128064  1
  S  S5  1  0.70998403  0.00013696  0.75128064  1
  S  S6  1  0.95994506  0.33327544  0.58335496  1
  S  S7  1  0.37333138  0.04005494  0.58335496  1
  S  S8  1  0.66672456  0.62666862  0.58335496  1
  S  S9  1  0.95723321  0.62429485  0.08192314  1
  S  S10  1  0.66706265  0.04276679  0.08192314  1
  S  S11  1  0.37570515  0.33293735  0.08192314  1
  S  S12  1  0.62940384  0.66669124  0.91666856  1
  S  S13  1  0.03728640  0.37059616  0.91666856  1
  S  S14  1  0.33330876  0.96271360  0.91666856  1
  S  S15  1  0.62908138  0.95924048  0.41599777  1
  S  S16  1  0.33015810  0.37091862  0.41599777  1
  S  S17  1  0.04075952  0.66984190  0.41599777  1
  O  O0  1  0.21159769  0.03095042  0.30274721  1
  O  O1  1  0.81935274  0.78840231  0.30274721  1
  O  O2  1  0.96904958  0.18064726  0.30274721  1
  O  O3  1  0.21191158  0.18093133  0.80268023  1
  O  O4  1  0.96901975  0.78808842  0.80268023  1
  O  O5  1  0.81906867  0.03098025  0.80268023  1
  O  O6  1  0.78390599  0.97114103  0.69752208  1
  O  O7  1  0.18723505  0.21609401  0.69752208  1
  O  O8  1  0.02885897  0.81276495  0.69752208  1
  O  O9  1  0.78276750  0.81187421  0.19754541  1
  O  O10  1  0.02910671  0.21723250  0.19754541  1
  O  O11  1  0.18812579  0.97089329  0.19754541  1
  O  O12  1  0.88308359  0.36580026  0.63560985  1
  O  O13  1  0.48271767  0.11691641  0.63560985  1
  O  O14  1  0.63419974  0.51728233  0.63560985  1
  O  O15  1  0.88391252  0.52134526  0.13578105  1
  O  O16  1  0.63743374  0.11608748  0.13578105  1
  O  O17  1  0.47865474  0.36256626  0.13578105  1
  O  O18  1  0.45477943  0.30229722  0.03065191  1
  O  O19  1  0.84751879  0.54522057  0.03065191  1
  O  O20  1  0.69770278  0.15248121  0.03065191  1
  O  O21  1  0.45025621  0.14941867  0.53113272  1
  O  O22  1  0.69916346  0.54974379  0.53113272  1
  O  O23  1  0.85058133  0.30083654  0.53113272  1
  O  O24  1  0.55084055  0.69843708  0.96908875  1
  O  O25  1  0.14759553  0.44915945  0.96908875  1
  O  O26  1  0.30156292  0.85240447  0.96908875  1
  O  O27  1  0.54992846  0.85348995  0.46887454  1
  O  O28  1  0.30356049  0.45007154  0.46887454  1
  O  O29  1  0.14651005  0.69643951  0.46887454  1
  O  O30  1  0.11664966  0.63247845  0.36426442  1
  O  O31  1  0.51582779  0.88335034  0.36426442  1
  O  O32  1  0.36752155  0.48417221  0.36426442  1
  O  O33  1  0.11589521  0.48100668  0.86425953  1
  O  O34  1  0.36511048  0.88410479  0.86425953  1
  O  O35  1  0.51899332  0.63488953  0.86425953  1
  O  O36  1  0.02289061  0.82337688  0.40795600  1
  O  O37  1  0.80048627  0.97710939  0.40795600  1
  O  O38  1  0.17662312  0.19951373  0.40795600  1
  O  O39  1  0.02245080  0.19750868  0.90976245  1
  O  O40  1  0.17505789  0.97754920  0.90976245  1
  O  O41  1  0.80249132  0.82494211  0.90976245  1
  O  O42  1  0.97632358  0.17695034  0.59068643  1
  O  O43  1  0.20062676  0.02367642  0.59068643  1
  O  O44  1  0.82304966  0.79937324  0.59068643  1
  O  O45  1  0.97562668  0.80144373  0.08856787  1
  O  O46  1  0.82581705  0.02437332  0.08856787  1
  O  O47  1  0.19855627  0.17418295  0.08856787  1
  O  O48  1  0.69120168  0.15892312  0.74479969  1
  O  O49  1  0.46772244  0.30879832  0.74479969  1
  O  O50  1  0.84107688  0.53227756  0.74479969  1
  O  O51  1  0.69087409  0.53173016  0.24481454  1
  O  O52  1  0.84085707  0.30912591  0.24481454  1
  O  O53  1  0.46826984  0.15914293  0.24481454  1
  O  O54  1  0.64422229  0.50841332  0.92357877  1
  O  O55  1  0.86419203  0.35577771  0.92357877  1
  O  O56  1  0.49158668  0.13580797  0.92357877  1
  O  O57  1  0.64340086  0.13502266  0.42222693  1
  O  O58  1  0.49162280  0.35659914  0.42222693  1
  O  O59  1  0.86497734  0.50837720  0.42222693  1
  O  O60  1  0.35614964  0.48824484  0.07594347  1
  O  O61  1  0.13209420  0.64385036  0.07594347  1
  O  O62  1  0.51175516  0.86790580  0.07594347  1
  O  O63  1  0.35697003  0.86734867  0.57604985  1
  O  O64  1  0.51037763  0.64302997  0.57604985  1
  O  O65  1  0.13265133  0.48962237  0.57604985  1
  O  O66  1  0.31047875  0.84527615  0.25734858  1
  O  O67  1  0.53479640  0.68952125  0.25734858  1
  O  O68  1  0.15472385  0.46520360  0.25734858  1
  O  O69  1  0.31026042  0.46516620  0.75725168  1
  O  O70  1  0.15490479  0.68973958  0.75725168  1
  O  O71  1  0.53483380  0.84509521  0.75725168  1
loop_
_geom_bond_atom_site_label_1
_geom_bond_atom_site_label_2
_geom_bond_distance
_geom_bond_site_symmetry_2
Na0 O39 2.619490 1_555
Na0 O41 2.619490 1_445
Na0 O40 2.619490 1_545
Na0 O45 2.676782 1_446
Na0 O47 2.676782 1_556
Na0 O46 2.676782 1_456
Na1 O56 2.619442 1_555
Na1 O54 2.619442 1_555
Na1 O55 2.619442 1_555
Na1 O50 2.678230 1_555
Na1 O48 2.678230 1_555
Na1 O49 2.678230 1_555
Na2 O51 2.633420 1_555
Na2 O53 2.633420 1_555
Na2 O52 2.633420 1_555
Na2 O57 2.639775 1_555
Na2 O59 2.639775 1_555
Na2 O58 2.639775 1_555
In0 O7 2.135172 1_555
In0 O6 2.135172 1_445
In0 O8 2.135172 1_545
In0 O44 2.136780 1_445
In0 O42 2.136780 1_455
In0 O43 2.136780 1_555
In1 O10 2.121696 1_555
In1 O9 2.121696 1_445
In1 O11 2.121696 1_545
In1 O45 2.177234 1_445
In1 O47 2.177234 1_555
In1 O46 2.177234 1_455
In2 O13 2.121370 1_555
In2 O14 2.121370 1_555
In2 O12 2.121371 1_555
In2 O50 2.163846 1_555
In2 O48 2.163846 1_555
In2 O49 2.163846 1_555
In3 O16 2.120042 1_555
In3 O15 2.120042 1_555
In3 O17 2.120042 1_555
In3 O51 2.179159 1_555
In3 O53 2.179159 1_555
In3 O52 2.179159 1_555
In4 O22 2.120283 1_555
In4 O21 2.120283 1_555
In4 O23 2.120283 1_555
In4 O57 2.159985 1_555
In4 O59 2.159985 1_555
In4 O58 2.159985 1_555
In5 O25 2.139874 1_554
In5 O26 2.139874 1_554
In5 O24 2.139874 1_554
In5 O62 2.140789 1_555
In5 O60 2.140789 1_555
In5 O61 2.140789 1_555
In6 O64 2.137344 1_555
In6 O65 2.137344 1_555
In6 O63 2.137344 1_555
In6 O28 2.140398 1_555
In6 O27 2.140398 1_555
In6 O29 2.140398 1_555
In7 O68 2.132206 1_555
In7 O66 2.132206 1_555
In7 O67 2.132206 1_555
In7 O31 2.136794 1_555
In7 O32 2.136794 1_555
In7 O30 2.136794 1_555
In8 O34 2.140893 1_555
In8 O33 2.140893 1_555
In8 O35 2.140893 1_555
In8 O70 2.142280 1_555
In8 O71 2.142280 1_555
In8 O69 2.142280 1_555
O0 S0 1.467344 1_555
O0 Zn0 2.111652 1_555
O1 S1 1.467344 1_555
O1 Zn0 2.111652 1_665
O2 S2 1.467344 1_555
O2 Zn0 2.111652 1_655
O3 S3 1.466602 1_555
O3 Zn1 2.081414 1_555
O4 S4 1.466602 1_555
O4 Zn1 2.081414 1_665
O5 S5 1.466602 1_555
O5 Zn1 2.081414 1_655
O6 S5 1.483745 1_565
O7 S3 1.483745 1_555
O8 S4 1.483745 1_455
O9 S1 1.484944 1_555
O10 S2 1.484944 1_455
O11 S0 1.484944 1_565
O12 S6 1.482052 1_555
O13 S7 1.482052 1_555
O14 S8 1.482052 1_555
O15 S9 1.485068 1_555
O16 S10 1.485068 1_555
O17 S11 1.485068 1_555
O18 S11 1.467640 1_555
O18 Zn2 2.083326 1_554
O19 S9 1.467640 1_555
O19 Zn2 2.083326 1_554
O20 S10 1.467640 1_555
O20 Zn2 2.083326 1_554
O21 S7 1.481429 1_555
O22 S8 1.481429 1_555
O23 S6 1.481429 1_555
O24 S12 1.490658 1_555
O25 S13 1.490658 1_555
O26 S14 1.490658 1_555
O27 S15 1.483526 1_555
O28 S16 1.483526 1_555
O29 S17 1.483526 1_555
O30 S17 1.486223 1_555
O31 S15 1.486223 1_555
O32 S16 1.486223 1_555
O33 S13 1.490885 1_555
O34 S14 1.490885 1_555
O35 S12 1.490885 1_555
O36 S17 1.457912 1_555
O36 Zn0 2.091224 1_565
O37 S15 1.457921 1_555
O37 Zn0 2.091224 1_665
O38 S16 1.457917 1_555
O38 Zn0 2.091224 1_555
O39 S13 1.480903 1_555
O39 Zn1 2.141690 1_555
O40 S14 1.480894 1_555
O40 Zn1 2.141690 1_565
O41 S12 1.480899 1_555
O41 Zn1 2.141690 1_665
O42 S6 1.472815 1_555
O43 S7 1.472824 1_555
O44 S8 1.472820 1_555
O45 S9 1.502641 1_555
O46 S10 1.502632 1_555
O47 S11 1.502637 1_555
O48 S5 1.504520 1_555
O49 S3 1.504529 1_555
O50 S4 1.504525 1_555
O51 S1 1.504255 1_555
O52 S2 1.504247 1_555
O53 S0 1.504252 1_555
O54 S12 1.481056 1_555
O54 Zn2 2.139046 1_555
O55 S13 1.481039 1_655
O55 Zn2 2.139046 1_555
O56 S14 1.481046 1_545
O56 Zn2 2.139046 1_555
O57 S15 1.504974 1_545
O58 S16 1.504992 1_555
O59 S17 1.504982 1_655
O60 S11 1.476855 1_555
O61 S9 1.476838 1_455
O62 S10 1.476845 1_565
O63 S7 1.472833 1_565
O64 S8 1.472850 1_555
O65 S6 1.472840 1_455
O66 S0 1.476724 1_565
O67 S1 1.476733 1_555
O68 S2 1.476729 1_455
O69 S3 1.477372 1_555
O70 S4 1.477363 1_455
O71 S5 1.477368 1_565
