# generated using pymatgen
data_MnPO4
_symmetry_space_group_name_H-M   'P 1'
_cell_length_a   7.15456900
_cell_length_b   8.45894600
_cell_length_c   16.85135397
_cell_angle_alpha   60.71261949
_cell_angle_beta   90.00000000
_cell_angle_gamma   90.00000000
_symmetry_Int_Tables_number   1
_chemical_formula_structural   MnPO4
_chemical_formula_sum   'Mn12 P12 O48'
_cell_volume   889.48612750
_cell_formula_units_Z   12
loop_
 _symmetry_equiv_pos_site_id
 _symmetry_equiv_pos_as_xyz
  1  'x, y, z'
loop_
 _atom_site_type_symbol
 _atom_site_label
 _atom_site_symmetry_multiplicity
 _atom_site_fract_x
 _atom_site_fract_y
 _atom_site_fract_z
 _atom_site_occupancy
  Mn  Mn0  1  0.05335000  0.67195100  0.07753600  1
  Mn  Mn1  1  0.95359900  0.33520400  0.41348400  1
  Mn  Mn2  1  0.45359900  0.66479600  0.08651600  1
  Mn  Mn3  1  0.48410400  0.99922500  0.75099000  1
  Mn  Mn4  1  0.55335000  0.32804900  0.42246400  1
  Mn  Mn5  1  0.98410400  0.00077500  0.74901000  1
  Mn  Mn6  1  0.01589600  0.99922500  0.25099000  1
  Mn  Mn7  1  0.44665000  0.67195100  0.57753600  1
  Mn  Mn8  1  0.51589600  0.00077500  0.24901000  1
  Mn  Mn9  1  0.54640100  0.33520400  0.91348400  1
  Mn  Mn10  1  0.04640100  0.66479600  0.58651600  1
  Mn  Mn11  1  0.94665000  0.32804900  0.92246400  1
  P  P0  1  0.24839200  0.63490800  0.41260500  1
  P  P1  1  0.23335400  0.32441900  0.77171000  1
  P  P2  1  0.25830100  0.03572900  0.07100800  1
  P  P3  1  0.75830100  0.96427100  0.42899200  1
  P  P4  1  0.73335400  0.67558100  0.72829000  1
  P  P5  1  0.74839200  0.36509200  0.08739500  1
  P  P6  1  0.25160800  0.63490800  0.91260500  1
  P  P7  1  0.26664600  0.32441900  0.27171000  1
  P  P8  1  0.24169900  0.03572900  0.57100800  1
  P  P9  1  0.74169900  0.96427100  0.92899200  1
  P  P10  1  0.76664600  0.67558100  0.22829000  1
  P  P11  1  0.75160800  0.36509200  0.58739500  1
  O  O0  1  0.75205100  0.39008000  0.48700700  1
  O  O1  1  0.42585000  0.54732000  0.40133700  1
  O  O2  1  0.26367700  0.86142400  0.05763700  1
  O  O3  1  0.23736800  0.18201100  0.74076300  1
  O  O4  1  0.93967100  0.71020100  0.16785400  1
  O  O5  1  0.06886000  0.54862400  0.39924000  1
  O  O6  1  0.58339700  0.70197600  0.17342900  1
  O  O7  1  0.71628700  0.02770800  0.82766500  1
  O  O8  1  0.92895500  0.87182700  0.96344800  1
  O  O9  1  0.75648800  0.16373800  0.65605600  1
  O  O10  1  0.57338600  0.83783400  0.97845600  1
  O  O11  1  0.76908600  0.48019600  0.31263100  1
  O  O12  1  0.93114000  0.45137600  0.60076000  1
  O  O13  1  0.57415000  0.45268000  0.59866300  1
  O  O14  1  0.73632300  0.13857600  0.94236300  1
  O  O15  1  0.76263200  0.81798900  0.25923700  1
  O  O16  1  0.06032900  0.28979900  0.83214600  1
  O  O17  1  0.24794900  0.60992000  0.51299300  1
  O  O18  1  0.41660300  0.29802400  0.82657100  1
  O  O19  1  0.28371300  0.97229200  0.17233500  1
  O  O20  1  0.07104500  0.12817300  0.03655200  1
  O  O21  1  0.24351200  0.83626200  0.34394400  1
  O  O22  1  0.42661400  0.16216600  0.02154400  1
  O  O23  1  0.23091400  0.51980400  0.68736900  1
  O  O24  1  0.73091400  0.48019600  0.81263100  1
  O  O25  1  0.92661400  0.83783400  0.47845600  1
  O  O26  1  0.74351200  0.16373800  0.15605600  1
  O  O27  1  0.57104500  0.87182700  0.46344800  1
  O  O28  1  0.78371300  0.02770800  0.32766500  1
  O  O29  1  0.26908600  0.51980400  0.18736900  1
  O  O30  1  0.74794900  0.39008000  0.98700700  1
  O  O31  1  0.56032900  0.71020100  0.66785400  1
  O  O32  1  0.23632300  0.86142400  0.55763700  1
  O  O33  1  0.07415000  0.54732000  0.90133700  1
  O  O34  1  0.26263200  0.18201100  0.24076300  1
  O  O35  1  0.43114000  0.54862400  0.89924000  1
  O  O36  1  0.56886000  0.45137600  0.10076000  1
  O  O37  1  0.73736800  0.81798900  0.75923700  1
  O  O38  1  0.92585000  0.45268000  0.09866300  1
  O  O39  1  0.76367700  0.13857600  0.44236300  1
  O  O40  1  0.43967100  0.28979900  0.33214600  1
  O  O41  1  0.25205100  0.60992000  0.01299300  1
  O  O42  1  0.08339700  0.29802400  0.32657100  1
  O  O43  1  0.21628700  0.97229200  0.67233500  1
  O  O44  1  0.42895500  0.12817300  0.53655200  1
  O  O45  1  0.25648800  0.83626200  0.84394400  1
  O  O46  1  0.07338600  0.16216600  0.52154400  1
  O  O47  1  0.91660300  0.70197600  0.67342900  1
loop_
_geom_bond_atom_site_label_1
_geom_bond_atom_site_label_2
_geom_bond_distance
_geom_bond_site_symmetry_2
Mn0 O4 1.887964 1_455
Mn0 O38 1.937290 1_455
Mn0 O41 2.009390 1_555
Mn0 O8 2.041226 1_454
Mn0 O2 2.102338 1_555
Mn0 O29 2.265794 1_555
Mn1 O42 1.886007 1_655
Mn1 O5 1.890192 1_655
Mn1 O46 1.893437 1_655
Mn1 O39 2.014377 1_555
Mn1 O11 2.023840 1_555
Mn1 O0 2.095834 1_555
Mn2 O6 1.886007 1_555
Mn2 O36 1.890192 1_555
Mn2 O10 1.893437 1_554
Mn2 O2 2.014377 1_555
Mn2 O29 2.023840 1_555
Mn2 O41 2.095834 1_555
Mn3 O7 2.188967 1_565
Mn3 O45 2.212072 1_555
Mn3 O3 2.296934 1_565
Mn3 O37 2.333341 1_555
Mn3 O43 2.403257 1_555
Mn3 O9 2.472951 1_565
Mn4 O40 1.887964 1_555
Mn4 O1 1.937290 1_555
Mn4 O0 2.009390 1_555
Mn4 O44 2.041226 1_555
Mn4 O39 2.102338 1_555
Mn4 O11 2.265794 1_555
Mn5 O43 2.188967 1_645
Mn5 O9 2.212072 1_555
Mn5 O37 2.296934 1_545
Mn5 O3 2.333341 1_655
Mn5 O7 2.403257 1_555
Mn5 O45 2.472951 1_645
Mn6 O28 2.188967 1_465
Mn6 O21 2.212072 1_555
Mn6 O34 2.296934 1_565
Mn6 O15 2.333341 1_455
Mn6 O19 2.403257 1_555
Mn6 O26 2.472951 1_465
Mn7 O31 1.887964 1_555
Mn7 O13 1.937290 1_555
Mn7 O17 2.009390 1_555
Mn7 O27 2.041226 1_555
Mn7 O32 2.102338 1_555
Mn7 O23 2.265794 1_555
Mn8 O19 2.188967 1_545
Mn8 O26 2.212072 1_555
Mn8 O15 2.296934 1_545
Mn8 O34 2.333341 1_555
Mn8 O28 2.403257 1_555
Mn8 O21 2.472951 1_545
Mn9 O18 1.886007 1_555
Mn9 O35 1.890192 1_555
Mn9 O22 1.893437 1_556
Mn9 O14 2.014377 1_555
Mn9 O24 2.023840 1_555
Mn9 O30 2.095834 1_555
Mn10 O47 1.886007 1_455
Mn10 O12 1.890192 1_455
Mn10 O25 1.893437 1_455
Mn10 O32 2.014377 1_555
Mn10 O23 2.023840 1_555
Mn10 O17 2.095834 1_555
Mn11 O16 1.887964 1_655
Mn11 O33 1.937290 1_655
Mn11 O30 2.009390 1_555
Mn11 O20 2.041226 1_656
Mn11 O14 2.102338 1_555
Mn11 O24 2.265794 1_555
O0 P11 1.598939 1_555
O1 P0 1.527942 1_555
O2 P2 1.597263 1_565
O3 P1 1.529224 1_555
O4 P10 1.537402 1_555
O5 P0 1.547300 1_555
O6 P10 1.556106 1_555
O7 P9 1.529739 1_545
O8 P9 1.516341 1_555
O9 P11 1.520814 1_555
O10 P9 1.554530 1_555
O11 P10 1.566418 1_555
O12 P11 1.547300 1_555
O13 P11 1.527942 1_555
O14 P9 1.597263 1_545
O15 P10 1.529224 1_555
O16 P1 1.537402 1_555
O17 P0 1.598939 1_555
O18 P1 1.556106 1_555
O19 P2 1.529739 1_565
O20 P2 1.516341 1_555
O21 P0 1.520814 1_555
O22 P2 1.554530 1_555
O23 P1 1.566418 1_555
O24 P4 1.566418 1_555
O25 P3 1.554530 1_555
O26 P5 1.520814 1_555
O27 P3 1.516341 1_555
O28 P3 1.529739 1_545
O29 P7 1.566418 1_555
O30 P5 1.598939 1_556
O31 P4 1.537402 1_555
O32 P8 1.597263 1_565
O33 P6 1.527942 1_555
O34 P7 1.529224 1_555
O35 P6 1.547300 1_555
O36 P5 1.547300 1_555
O37 P4 1.529224 1_555
O38 P5 1.527942 1_555
O39 P3 1.597263 1_545
O40 P7 1.537402 1_555
O41 P6 1.598939 1_554
O42 P7 1.556106 1_555
O43 P8 1.529739 1_565
O44 P8 1.516341 1_555
O45 P6 1.520814 1_555
O46 P8 1.554530 1_555
O47 P4 1.556106 1_555
