# generated using pymatgen
data_Na4MgTi2(SiO5)2
_symmetry_space_group_name_H-M   'P 1'
_cell_length_a   5.81822525
_cell_length_b   6.45499618
_cell_length_c   6.45499618
_cell_angle_alpha   90.00000000
_cell_angle_beta   90.00000000
_cell_angle_gamma   90.00000000
_symmetry_Int_Tables_number   1
_chemical_formula_structural   Na4MgTi2(SiO5)2
_chemical_formula_sum   'Na4 Mg1 Ti2 Si2 O10'
_cell_volume   242.42785001
_cell_formula_units_Z   1
loop_
 _symmetry_equiv_pos_site_id
 _symmetry_equiv_pos_as_xyz
  1  'x, y, z'
loop_
 _atom_site_type_symbol
 _atom_site_label
 _atom_site_symmetry_multiplicity
 _atom_site_fract_x
 _atom_site_fract_y
 _atom_site_fract_z
 _atom_site_occupancy
  Na  Na0  1  0.48263241  0.02291988  0.47708012  1
  Na  Na1  1  0.48263241  0.02291988  0.02291988  1
  Na  Na2  1  0.48263241  0.47708012  0.47708012  1
  Na  Na3  1  0.48263241  0.47708012  0.02291988  1
  Mg  Mg0  1  0.68345425  0.75000000  0.75000000  1
  Ti  Ti0  1  0.02298559  0.25000000  0.25000000  1
  Ti  Ti1  1  0.06954675  0.75000000  0.75000000  1
  Si  Si0  1  0.97649567  0.75000000  0.25000000  1
  Si  Si1  1  0.97649567  0.25000000  0.75000000  1
  O  O0  1  0.71850252  0.25000000  0.25000000  1
  O  O1  1  0.37532989  0.75000000  0.75000000  1
  O  O2  1  0.14820371  0.25000000  0.54322989  1
  O  O3  1  0.14820371  0.25000000  0.95677011  1
  O  O4  1  0.14820371  0.54322989  0.25000000  1
  O  O5  1  0.14820371  0.95677011  0.25000000  1
  O  O6  1  0.81241955  0.04098045  0.75000000  1
  O  O7  1  0.81241955  0.75000000  0.04098045  1
  O  O8  1  0.81241955  0.45901955  0.75000000  1
  O  O9  1  0.81241955  0.75000000  0.45901955  1
loop_
_geom_bond_atom_site_label_1
_geom_bond_atom_site_label_2
_geom_bond_distance
_geom_bond_site_symmetry_2
Na0 O5 2.473250 1_545
Na0 O2 2.473250 1_555
Na0 O0 2.486057 1_555
Na0 O1 2.568446 1_545
Na0 O9 2.607464 1_545
Na0 O6 2.607464 1_555
Na1 O3 2.473250 1_554
Na1 O5 2.473250 1_545
Na1 O0 2.486057 1_555
Na1 O1 2.568446 1_544
Na1 O7 2.607464 1_545
Na1 O6 2.607464 1_554
Na2 O4 2.473250 1_555
Na2 O2 2.473250 1_555
Na2 O0 2.486057 1_555
Na2 O1 2.568446 1_555
Na2 O9 2.607464 1_555
Na2 O8 2.607464 1_555
Na3 O3 2.473250 1_554
Na3 O4 2.473250 1_555
Na3 O0 2.486057 1_555
Na3 O1 2.568446 1_554
Na3 O8 2.607464 1_554
Na3 O7 2.607464 1_555
Mg0 O1 1.792737 1_555
Mg0 O9 2.022610 1_555
Mg0 O7 2.022610 1_556
Mg0 O6 2.022610 1_565
Mg0 O8 2.022610 1_555
O0 Ti0 1.771551 1_655
O1 Ti1 1.779115 1_555
O2 Si1 1.667183 1_455
O2 Ti0 2.028168 1_555
O3 Si1 1.667183 1_455
O3 Ti0 2.028168 1_556
O4 Si0 1.667183 1_455
O4 Ti0 2.028168 1_555
O5 Si0 1.667183 1_455
O5 Ti0 2.028168 1_565
O6 Si1 1.652791 1_555
O6 Ti1 2.401253 1_645
O7 Si0 1.652791 1_555
O7 Ti1 2.401253 1_654
O8 Si1 1.652791 1_555
O8 Ti1 2.401253 1_655
O9 Si0 1.652791 1_555
O9 Ti1 2.401253 1_655
