# generated using pymatgen
data_MgSnBiO4
_symmetry_space_group_name_H-M   'P 1'
_cell_length_a   5.70997335
_cell_length_b   4.68628685
_cell_length_c   4.68628685
_cell_angle_alpha   89.99999261
_cell_angle_beta   65.77256165
_cell_angle_gamma   65.77256165
_symmetry_Int_Tables_number   1
_chemical_formula_structural   MgSnBiO4
_chemical_formula_sum   'Mg1 Sn1 Bi1 O4'
_cell_volume   102.12151815
_cell_formula_units_Z   1
loop_
 _symmetry_equiv_pos_site_id
 _symmetry_equiv_pos_as_xyz
  1  'x, y, z'
loop_
 _atom_site_type_symbol
 _atom_site_label
 _atom_site_symmetry_multiplicity
 _atom_site_fract_x
 _atom_site_fract_y
 _atom_site_fract_z
 _atom_site_occupancy
  Mg  Mg0  1  0.00000000  0.50000000  0.50000000  1
  Sn  Sn0  1  0.50000000  0.25000000  0.75000000  1
  Bi  Bi0  1  0.00000000  0.00000000  0.00000000  1
  O  O0  1  0.98024700  0.00987600  0.50987600  1
  O  O1  1  0.53678500  0.73160800  0.73160800  1
  O  O2  1  0.46321500  0.26839200  0.26839200  1
  O  O3  1  0.01975300  0.49012400  0.99012400  1
loop_
_geom_bond_atom_site_label_1
_geom_bond_atom_site_label_2
_geom_bond_distance
_geom_bond_site_symmetry_2
Mg0 O2 2.153982 1_555
Mg0 O1 2.153982 1_455
Mg0 O3 2.344941 1_554
Mg0 O0 2.344941 1_465
Mg0 O3 2.344945 1_555
Mg0 O0 2.344945 1_455
Bi0 O0 2.344941 1_455
Bi0 O3 2.344941 1_544
Bi0 O0 2.344945 1_454
Bi0 O3 2.344945 1_554
Bi0 O1 2.496088 1_544
Bi0 O2 2.496088 1_455
O0 Sn0 2.233182 1_555
O1 Sn0 2.349376 1_565
O1 Sn0 2.349381 1_555
O2 Sn0 2.349376 1_554
O2 Sn0 2.349381 1_555
O3 Sn0 2.233182 1_555
