# generated using pymatgen
data_Mg(MoO3)4
_symmetry_space_group_name_H-M   'P 1'
_cell_length_a   3.79751200
_cell_length_b   3.97602752
_cell_length_c   15.67388747
_cell_angle_alpha   89.93863659
_cell_angle_beta   90.00000000
_cell_angle_gamma   90.00000000
_symmetry_Int_Tables_number   1
_chemical_formula_structural   Mg(MoO3)4
_chemical_formula_sum   'Mg1 Mo4 O12'
_cell_volume   236.66008248
_cell_formula_units_Z   1
loop_
 _symmetry_equiv_pos_site_id
 _symmetry_equiv_pos_as_xyz
  1  'x, y, z'
loop_
 _atom_site_type_symbol
 _atom_site_label
 _atom_site_symmetry_multiplicity
 _atom_site_fract_x
 _atom_site_fract_y
 _atom_site_fract_z
 _atom_site_occupancy
  Mg  Mg0  1  0.25000000  0.52190900  0.23816900  1
  Mo  Mo0  1  0.25000100  0.42625800  0.59149700  1
  Mo  Mo1  1  0.75000000  0.58499300  0.41536700  1
  Mo  Mo2  1  0.75000000  0.93594300  0.90188300  1
  Mo  Mo3  1  0.25000100  0.02365000  0.08620900  1
  O  O0  1  0.25000100  0.47528100  0.69956500  1
  O  O1  1  0.75000000  0.52768100  0.29456100  1
  O  O2  1  0.75000000  0.97716500  0.79404200  1
  O  O3  1  0.25000100  0.02333500  0.20536800  1
  O  O4  1  0.25000100  0.49814100  0.44316300  1
  O  O5  1  0.75000000  0.49879700  0.55885500  1
  O  O6  1  0.75000000  0.01645800  0.05308700  1
  O  O7  1  0.25000100  0.00115100  0.93607000  1
  O  O8  1  0.25000100  0.98193600  0.58047200  1
  O  O9  1  0.75000000  0.48972100  0.91514200  1
  O  O10  1  0.75000000  0.02908200  0.42264100  1
  O  O11  1  0.25000100  0.52183000  0.10141000  1
loop_
_geom_bond_atom_site_label_1
_geom_bond_atom_site_label_2
_geom_bond_distance
_geom_bond_site_symmetry_2
Mg0 O3 2.048460 1_555
Mg0 O3 2.058372 1_565
Mg0 O1 2.094539 1_555
Mg0 O1 2.094539 1_455
Mg0 O11 2.143546 1_555
Mo0 O0 1.705231 1_555
Mo0 O8 1.775252 1_545
Mo0 O5 1.987433 1_555
Mo0 O5 1.987440 1_455
Mo0 O8 2.215954 1_555
Mo0 O4 2.342168 1_555
Mo1 O10 1.769509 1_565
Mo1 O1 1.907404 1_555
Mo1 O4 1.978382 1_555
Mo1 O4 1.978390 1_655
Mo1 O10 2.213134 1_555
Mo1 O5 2.274615 1_555
Mo2 O2 1.698041 1_555
Mo2 O9 1.786100 1_555
Mo2 O7 1.989951 1_565
Mo2 O7 1.989958 1_665
Mo2 O9 2.211844 1_565
Mo2 O6 2.391818 1_566
Mo3 O3 1.867684 1_555
Mo3 O6 1.968661 1_555
Mo3 O6 1.968668 1_455
Mo3 O11 1.995309 1_555
Mo3 O11 2.009172 1_545
Mo3 O7 2.355057 1_554
