# generated using pymatgen
data_MgV2Zn4O8
_symmetry_space_group_name_H-M   'P 1'
_cell_length_a   6.28508855
_cell_length_b   6.28508749
_cell_length_c   6.19467783
_cell_angle_alpha   60.47472117
_cell_angle_beta   60.47472671
_cell_angle_gamma   56.95855131
_symmetry_Int_Tables_number   1
_chemical_formula_structural   MgV2Zn4O8
_chemical_formula_sum   'Mg1 V2 Zn4 O8'
_cell_volume   169.85798285
_cell_formula_units_Z   1
loop_
 _symmetry_equiv_pos_site_id
 _symmetry_equiv_pos_as_xyz
  1  'x, y, z'
loop_
 _atom_site_type_symbol
 _atom_site_label
 _atom_site_symmetry_multiplicity
 _atom_site_fract_x
 _atom_site_fract_y
 _atom_site_fract_z
 _atom_site_occupancy
  Mg  Mg0  1  0.91061225  0.91061225  0.08938775  1
  V  V0  1  0.59432249  0.59432249  0.14988429  1
  V  V1  1  0.59432249  0.59432249  0.66147073  1
  Zn  Zn0  1  0.19641371  0.19641371  0.80358629  1
  Zn  Zn1  1  0.24440861  0.24440861  0.25559139  1
  Zn  Zn2  1  0.11040330  0.68033005  0.60463332  1
  Zn  Zn3  1  0.68033005  0.11040330  0.60463332  1
  O  O0  1  0.36269570  0.36269570  0.41356376  1
  O  O1  1  0.37794144  0.83849914  0.39177971  1
  O  O2  1  0.36269570  0.36269570  0.86104284  1
  O  O3  1  0.32403434  0.80728323  0.93434172  1
  O  O4  1  0.83849914  0.37794044  0.39177971  1
  O  O5  1  0.81190829  0.81190829  0.46609959  1
  O  O6  1  0.80728223  0.32403434  0.93434172  1
  O  O7  1  0.81190829  0.81190829  0.91008584  1
loop_
_geom_bond_atom_site_label_1
_geom_bond_atom_site_label_2
_geom_bond_distance
_geom_bond_site_symmetry_2
Mg0 O7 1.944567 1_554
Mg0 O5 1.944579 1_555
Mg0 O6 2.100176 1_564
Mg0 O3 2.100177 1_654
O0 Zn1 2.024821 1_555
O0 Zn0 2.058030 1_555
O0 V0 2.128478 1_555
O0 Zn2 2.219870 1_555
O0 Zn3 2.219871 1_555
O1 Zn2 1.974829 1_555
O1 Zn1 2.041144 1_565
O1 V0 2.105273 1_555
O1 V1 2.105273 1_555
O2 Zn1 2.024832 1_556
O2 Zn0 2.058021 1_555
O2 V1 2.128479 1_555
O2 Zn2 2.219863 1_555
O2 Zn3 2.219863 1_555
O3 Zn0 1.956935 1_565
O3 V0 2.110645 1_556
O3 V1 2.110649 1_555
O4 Zn3 1.974824 1_555
O4 Zn1 2.041145 1_655
O4 V0 2.105273 1_555
O4 V1 2.105277 1_555
O5 V1 1.995483 1_555
O5 Zn3 2.033584 1_565
O5 Zn2 2.033584 1_655
O6 Zn0 1.956941 1_655
O6 V0 2.110645 1_556
O6 V1 2.110645 1_555
O7 V0 1.995483 1_556
O7 Zn3 2.033593 1_565
O7 Zn2 2.033593 1_655
