# generated using pymatgen
data_Na15Ca2Nb10Si15(PO24)3
_symmetry_space_group_name_H-M   'P 1'
_cell_length_a   9.10577360
_cell_length_b   9.11372548
_cell_length_c   22.68893189
_cell_angle_alpha   90.13035216
_cell_angle_beta   89.95084487
_cell_angle_gamma   119.92330778
_symmetry_Int_Tables_number   1
_chemical_formula_structural   Na15Ca2Nb10Si15(PO24)3
_chemical_formula_sum   'Na15 Ca2 Nb10 Si15 P3 O72'
_cell_volume   1631.89207328
_cell_formula_units_Z   1
loop_
 _symmetry_equiv_pos_site_id
 _symmetry_equiv_pos_as_xyz
  1  'x, y, z'
loop_
 _atom_site_type_symbol
 _atom_site_label
 _atom_site_symmetry_multiplicity
 _atom_site_fract_x
 _atom_site_fract_y
 _atom_site_fract_z
 _atom_site_occupancy
  Na  Na0  1  0.63366658  0.01910347  0.24569216  1
  Na  Na1  1  0.38332847  0.36878304  0.24261403  1
  Na  Na2  1  0.98593449  0.61322832  0.24189106  1
  Na  Na3  1  0.63143632  0.61650504  0.74320179  1
  Na  Na4  1  0.98002435  0.36913842  0.74401914  1
  Na  Na5  1  0.38484190  0.01319478  0.74148626  1
  Na  Na6  1  0.02300826  0.68267259  0.58391878  1
  Na  Na7  1  0.65765243  0.97783104  0.58431042  1
  Na  Na8  1  0.02143844  0.34025595  0.08538868  1
  Na  Na9  1  0.01132245  0.01185583  0.49781085  1
  Na  Na10  1  0.99823741  0.98823701  0.99924178  1
  Na  Na11  1  0.67368333  0.33223553  0.83319124  1
  Na  Na12  1  0.66766322  0.32826466  0.33372713  1
  Na  Na13  1  0.34353798  0.67442870  0.16126363  1
  Na  Na14  1  0.33316324  0.65211175  0.66249937  1
  Ca  Ca0  1  0.66681446  0.33474096  0.68188327  1
  Ca  Ca1  1  0.66475826  0.33367128  0.18099566  1
  Nb  Nb0  1  0.00300067  0.00459835  0.35926592  1
  Nb  Nb1  1  0.99568487  0.99691423  0.85970682  1
  Nb  Nb2  1  0.99826013  0.99671918  0.64365167  1
  Nb  Nb3  1  0.00958332  0.00070225  0.14329807  1
  Nb  Nb4  1  0.66432869  0.33869938  0.97984995  1
  Nb  Nb5  1  0.66555308  0.33145409  0.48018811  1
  Nb  Nb6  1  0.33300802  0.66755417  0.01647331  1
  Nb  Nb7  1  0.33359690  0.66471968  0.51584689  1
  Nb  Nb8  1  0.32882523  0.66440081  0.31469407  1
  Nb  Nb9  1  0.33317669  0.67088001  0.81504139  1
  Si  Si0  1  0.28450535  0.99268286  0.25281348  1
  Si  Si1  1  0.00612001  0.28963330  0.25121678  1
  Si  Si2  1  0.00660056  0.71617241  0.75227849  1
  Si  Si3  1  0.70837542  0.99214458  0.75220784  1
  Si  Si4  1  0.96718917  0.33642968  0.58471150  1
  Si  Si5  1  0.37033891  0.03594287  0.58425278  1
  Si  Si6  1  0.66022092  0.62669501  0.58543986  1
  Si  Si7  1  0.96544759  0.63097636  0.08476697  1
  Si  Si8  1  0.37090967  0.33822523  0.08537755  1
  Si  Si9  1  0.62215597  0.66247246  0.91557874  1
  Si  Si10  1  0.03838162  0.37620160  0.91624725  1
  Si  Si11  1  0.33805117  0.96325885  0.91680581  1
  Si  Si12  1  0.62368283  0.96154170  0.41557152  1
  Si  Si13  1  0.33966991  0.37669844  0.41501711  1
  Si  Si14  1  0.03636824  0.66268554  0.41689119  1
  P  P0  1  0.71455259  0.72442088  0.25197805  1
  P  P1  1  0.27629431  0.28574654  0.75283761  1
  P  P2  1  0.66485025  0.03305276  0.08362881  1
  O  O0  1  0.17358270  0.99855381  0.30854748  1
  O  O1  1  0.81866790  0.81572916  0.30741171  1
  O  O2  1  0.99432889  0.16979541  0.30728439  1
  O  O3  1  0.18441310  0.18236718  0.80785964  1
  O  O4  1  0.00479965  0.83080977  0.80771157  1
  O  O5  1  0.82920721  0.00473956  0.80793016  1
  O  O6  1  0.80458959  0.97418352  0.69172546  1
  O  O7  1  0.16829687  0.19470415  0.69640532  1
  O  O8  1  0.02848173  0.82972559  0.69139009  1
  O  O9  1  0.80341155  0.83304377  0.19598934  1
  O  O10  1  0.02473274  0.19485517  0.19080045  1
  O  O11  1  0.16529690  0.97165411  0.19298231  1
  O  O12  1  0.91850086  0.39173225  0.64556777  1
  O  O13  1  0.47588489  0.08309957  0.64456565  1
  O  O14  1  0.62493428  0.53998026  0.64844228  1
  O  O15  1  0.91858054  0.52656312  0.14525177  1
  O  O16  1  0.63167351  0.08732685  0.14340281  1
  O  O17  1  0.45771650  0.37184333  0.14832411  1
  O  O18  1  0.47850769  0.31224109  0.03091593  1
  O  O19  1  0.83326500  0.51846016  0.03062657  1
  O  O20  1  0.69365711  0.16202485  0.03350806  1
  O  O21  1  0.47742650  0.16688216  0.52985052  1
  O  O22  1  0.69623894  0.52354353  0.53219506  1
  O  O23  1  0.82905909  0.30199116  0.53115833  1
  O  O24  1  0.52339972  0.68668283  0.97082817  1
  O  O25  1  0.15930192  0.47132203  0.97286530  1
  O  O26  1  0.31106452  0.83607959  0.97085576  1
  O  O27  1  0.52933304  0.84421867  0.47271912  1
  O  O28  1  0.31471022  0.47795000  0.46977775  1
  O  O29  1  0.15769082  0.69041515  0.47324583  1
  O  O30  1  0.13671616  0.63948748  0.35814397  1
  O  O31  1  0.50313745  0.86208769  0.35694523  1
  O  O32  1  0.36009772  0.49292074  0.35571603  1
  O  O33  1  0.13629977  0.49798718  0.85761319  1
  O  O34  1  0.36223868  0.86650465  0.85706459  1
  O  O35  1  0.50566803  0.63914066  0.85605190  1
  O  O36  1  0.01725041  0.83113675  0.41035092  1
  O  O37  1  0.81109622  0.97815249  0.41004359  1
  O  O38  1  0.16826696  0.18881902  0.41116052  1
  O  O39  1  0.02327589  0.18977147  0.90999581  1
  O  O40  1  0.16988750  0.98285930  0.91074019  1
  O  O41  1  0.81167971  0.83115101  0.91106880  1
  O  O42  1  0.97187334  0.15726409  0.58920658  1
  O  O43  1  0.18027293  0.01822670  0.58818744  1
  O  O44  1  0.84138810  0.81653393  0.58778850  1
  O  O45  1  0.97180600  0.81560851  0.08849283  1
  O  O46  1  0.83487340  0.02655783  0.08610037  1
  O  O47  1  0.17657767  0.16256801  0.08691412  1
  O  O48  1  0.68552319  0.15547803  0.75405128  1
  O  O49  1  0.45265480  0.30553596  0.75087942  1
  O  O50  1  0.83954638  0.53332037  0.75527850  1
  O  O51  1  0.69487650  0.54800283  0.25017178  1
  O  O52  1  0.84274561  0.31275106  0.25356246  1
  O  O53  1  0.46811741  0.15857037  0.25353766  1
  O  O54  1  0.64001030  0.49337734  0.92382179  1
  O  O55  1  0.85166166  0.35697203  0.92466821  1
  O  O56  1  0.50878425  0.14644672  0.92510903  1
  O  O57  1  0.64063197  0.14749902  0.42275926  1
  O  O58  1  0.50802211  0.36059525  0.42379474  1
  O  O59  1  0.85303560  0.49170657  0.42391619  1
  O  O60  1  0.33124309  0.49308893  0.07173307  1
  O  O61  1  0.15588890  0.66232333  0.06914147  1
  O  O62  1  0.51501365  0.85304301  0.07035202  1
  O  O63  1  0.33439694  0.84285791  0.56981718  1
  O  O64  1  0.51128254  0.67367000  0.57134795  1
  O  O65  1  0.15491743  0.49652789  0.56889577  1
  O  O66  1  0.29343652  0.81454393  0.25417877  1
  O  O67  1  0.53622633  0.71316687  0.25450500  1
  O  O68  1  0.18687829  0.47511559  0.25453119  1
  O  O69  1  0.28550508  0.46270100  0.75441924  1
  O  O70  1  0.18405593  0.70452368  0.75453271  1
  O  O71  1  0.52374287  0.81100442  0.75449825  1
loop_
_geom_bond_atom_site_label_1
_geom_bond_atom_site_label_2
_geom_bond_distance
_geom_bond_site_symmetry_2
Na0 O52 2.394530 1_555
Na0 O16 2.406471 1_555
Na0 O53 2.414506 1_555
Na0 O67 2.476990 1_545
Na0 O66 2.710895 1_545
Na0 O31 2.854207 1_545
Na1 O17 2.239486 1_555
Na1 O53 2.409583 1_555
Na1 O68 2.437138 1_555
Na1 O51 2.474236 1_555
Na1 O67 2.738478 1_555
Na1 O32 2.852111 1_555
Na2 O15 2.306255 1_555
Na2 O52 2.389517 1_555
Na2 O51 2.416742 1_555
Na2 O66 2.481494 1_655
Na2 O68 2.704617 1_655
Na2 O30 2.928327 1_655
Na3 O14 2.250461 1_555
Na3 O50 2.382439 1_555
Na3 O71 2.429248 1_555
Na3 O49 2.472108 1_555
Na3 O69 2.747185 1_555
Na3 O35 2.852761 1_555
Na4 O12 2.337786 1_555
Na4 O48 2.413733 1_555
Na4 O50 2.418209 1_555
Na4 O69 2.480745 1_655
Na4 O70 2.680162 1_655
Na4 O33 2.893424 1_655
Na5 O13 2.324904 1_555
Na5 O48 2.390942 1_555
Na5 O49 2.425195 1_555
Na5 O70 2.493112 1_545
Na5 O71 2.722282 1_545
Na5 O34 2.906349 1_545
Na6 O63 2.478726 1_555
Na6 O44 2.498649 1_455
Na6 O65 2.542942 1_555
Na6 O43 2.653686 1_565
Na6 O12 2.718451 1_455
Na6 O8 2.768241 1_555
Na6 O29 2.779131 1_555
Na6 O22 2.833203 1_455
Na7 O64 2.420334 1_555
Na7 O42 2.490936 1_565
Na7 O63 2.583185 1_555
Na7 O13 2.665204 1_565
Na7 O44 2.724108 1_555
Na7 O6 2.789487 1_555
Na7 O27 2.798223 1_555
Na7 O23 2.833896 1_565
Na8 O60 2.464642 1_555
Na8 O46 2.492883 1_455
Na8 O61 2.582496 1_555
Na8 O47 2.627159 1_555
Na8 O15 2.679364 1_455
Na8 O10 2.744311 1_555
Na8 O25 2.834267 1_554
Na8 O20 2.844808 1_455
Na9 O38 2.493734 1_555
Na9 O43 2.547670 1_555
Na9 O42 2.578077 1_455
Na9 O36 2.593642 1_545
Na9 O37 2.613166 1_445
Na9 O44 2.644596 1_445
Na10 O45 2.503940 1_556
Na10 O41 2.550293 1_555
Na10 O47 2.556436 1_666
Na10 O40 2.558921 1_655
Na10 O46 2.593978 1_566
Na10 O39 2.669101 1_665
Na11 O48 2.447580 1_555
Na11 O50 2.452199 1_555
Na11 O55 2.573744 1_555
Na11 O54 2.629383 1_555
Na11 O56 2.635366 1_555
Na11 O49 2.667114 1_555
Na12 O52 2.467512 1_555
Na12 O53 2.488556 1_555
Na12 O57 2.542632 1_555
Na12 O59 2.595937 1_555
Na12 O58 2.606813 1_555
Na12 O51 2.680915 1_555
Na13 O60 2.582789 1_555
Na13 O62 2.610839 1_555
Na13 O66 2.617324 1_555
Na13 O67 2.657758 1_555
Na13 O61 2.667872 1_555
Na13 O68 2.690667 1_555
Na14 O64 2.573816 1_555
Na14 O69 2.604849 1_555
Na14 O65 2.617523 1_555
Na14 O71 2.636451 1_555
Na14 O70 2.658868 1_555
Na14 O63 2.727878 1_555
Ca0 O14 2.222269 1_555
Ca0 O12 2.238780 1_555
Ca0 O13 2.239390 1_555
Ca0 O48 2.381098 1_555
Ca0 O50 2.381841 1_555
Ca0 O49 2.408970 1_555
Ca1 O17 2.209685 1_555
Ca1 O15 2.244908 1_555
Ca1 O16 2.275025 1_555
Ca1 O53 2.370203 1_555
Ca1 O52 2.384995 1_555
Ca1 O51 2.409684 1_555
Nb0 O2 1.946996 1_455
Nb0 O0 1.954981 1_545
Nb0 O38 1.985735 1_555
Nb0 O37 2.004137 1_445
Nb0 O36 2.018093 1_545
Nb0 O1 2.067871 1_445
Nb1 O5 1.947926 1_565
Nb1 O4 1.951246 1_655
Nb1 O41 1.981653 1_555
Nb1 O39 2.001284 1_665
Nb1 O40 2.019865 1_655
Nb1 O3 2.074009 1_665
Nb2 O6 1.994559 1_555
Nb2 O8 1.997762 1_655
Nb2 O44 1.999243 1_555
Nb2 O43 2.010560 1_665
Nb2 O42 2.020895 1_565
Nb2 O7 2.071661 1_665
Nb3 O11 1.931287 1_545
Nb3 O47 1.972894 1_555
Nb3 O45 1.980510 1_445
Nb3 O10 2.014861 1_555
Nb3 O9 2.104992 1_445
Nb3 O46 2.156269 1_455
Nb4 O18 1.963271 1_556
Nb4 O19 1.964111 1_556
Nb4 O54 1.993072 1_555
Nb4 O56 2.033683 1_555
Nb4 O55 2.054005 1_555
Nb4 O20 2.141169 1_556
Nb5 O21 1.973513 1_555
Nb5 O23 2.007335 1_555
Nb5 O22 2.009564 1_555
Nb5 O58 2.037172 1_555
Nb5 O57 2.042306 1_555
Nb5 O59 2.048118 1_555
Nb6 O26 1.945229 1_554
Nb6 O24 1.950574 1_554
Nb6 O25 1.962558 1_554
Nb6 O61 1.987876 1_555
Nb6 O60 2.020883 1_555
Nb6 O62 2.073094 1_555
Nb7 O28 1.928646 1_555
Nb7 O27 1.976290 1_555
Nb7 O29 1.983094 1_555
Nb7 O65 1.990570 1_555
Nb7 O64 2.020286 1_555
Nb7 O63 2.028412 1_555
Nb8 O30 1.919706 1_555
Nb8 O31 1.956023 1_555
Nb8 O32 1.959811 1_555
Nb8 O68 2.068247 1_555
Nb8 O66 2.076220 1_555
Nb8 O67 2.188609 1_555
Nb9 O34 1.918262 1_555
Nb9 O33 1.953295 1_555
Nb9 O35 1.968117 1_555
Nb9 O70 2.059875 1_555
Nb9 O71 2.078925 1_555
Nb9 O69 2.201697 1_555
O0 Si0 1.635093 1_555
O1 P0 1.543813 1_555
O2 Si1 1.646734 1_655
O3 P1 1.537293 1_555
O4 Si2 1.638521 1_555
O5 Si3 1.642525 1_545
O6 Si3 1.678542 1_555
O7 P1 1.574226 1_555
O8 Si2 1.679148 1_555
O9 P0 1.566284 1_555
O10 Si1 1.671573 1_555
O11 Si0 1.688675 1_555
O12 Si4 1.604932 1_555
O13 Si5 1.602648 1_555
O14 Si6 1.588133 1_555
O15 Si7 1.603352 1_555
O16 P2 1.523339 1_555
O17 Si8 1.586420 1_555
O18 Si8 1.664627 1_555
O19 Si7 1.665713 1_555
O20 P2 1.562551 1_555
O21 Si5 1.655952 1_555
O22 Si6 1.659076 1_555
O23 Si4 1.662509 1_555
O24 Si9 1.619720 1_555
O25 Si10 1.630686 1_555
O26 Si11 1.621583 1_555
O27 Si12 1.628042 1_555
O28 Si13 1.628012 1_555
O29 Si14 1.625302 1_555
O30 Si14 1.686905 1_555
O31 Si12 1.673371 1_555
O32 Si13 1.666235 1_555
O33 Si10 1.677521 1_555
O34 Si11 1.688537 1_555
O35 Si9 1.664504 1_555
O36 Si14 1.636134 1_555
O37 Si12 1.641009 1_555
O38 Si13 1.645850 1_555
O39 Si10 1.640628 1_555
O40 Si11 1.633702 1_555
O41 Si9 1.644856 1_555
O42 Si4 1.657927 1_555
O43 Si5 1.658422 1_555
O44 Si6 1.694055 1_555
O45 Si7 1.656531 1_555
O46 P2 1.579602 1_555
O47 Si8 1.693878 1_555
O48 Si3 1.603012 1_545
O49 P1 1.524587 1_555
O50 Si2 1.602160 1_655
O51 P0 1.526826 1_555
O52 Si1 1.604009 1_655
O53 Si0 1.599814 1_545
O54 Si9 1.639416 1_555
O55 Si10 1.631047 1_655
O56 Si11 1.627671 1_545
O57 Si12 1.631095 1_545
O58 Si13 1.623679 1_555
O59 Si14 1.626589 1_655
O60 Si8 1.651996 1_555
O61 Si7 1.649122 1_455
O62 P2 1.552099 1_565
O63 Si5 1.653478 1_565
O64 Si6 1.644816 1_555
O65 Si4 1.640954 1_455
O66 Si0 1.665928 1_555
O67 P0 1.576146 1_555
O68 Si1 1.672149 1_555
O69 P1 1.572884 1_555
O70 Si2 1.672194 1_555
O71 Si3 1.669061 1_555
