# generated using pymatgen
data_Na6Hf7MgSi6(SO8)6
_symmetry_space_group_name_H-M   'P 1'
_cell_length_a   17.94401364
_cell_length_b   8.95346715
_cell_length_c   23.18867303
_cell_angle_alpha   89.94150480
_cell_angle_beta   90.07634271
_cell_angle_gamma   119.91557492
_symmetry_Int_Tables_number   1
_chemical_formula_structural   Na6Hf7MgSi6(SO8)6
_chemical_formula_sum   'Na18 Hf21 Mg3 Si18 S18 O144'
_cell_volume   3229.13184661
_cell_formula_units_Z   3
loop_
 _symmetry_equiv_pos_site_id
 _symmetry_equiv_pos_as_xyz
  1  'x, y, z'
loop_
 _atom_site_type_symbol
 _atom_site_label
 _atom_site_symmetry_multiplicity
 _atom_site_fract_x
 _atom_site_fract_y
 _atom_site_fract_z
 _atom_site_occupancy
  Na  Na0  1  0.68725323  0.37898613  0.25172543  1
  Na  Na1  1  0.99521239  0.64962269  0.25264253  1
  Na  Na2  1  0.99695241  0.35407838  0.75275077  1
  Na  Na3  1  0.49303083  0.35765831  0.74727719  1
  Na  Na4  1  0.19326327  0.01804535  0.75306753  1
  Na  Na5  1  0.68429193  0.00906247  0.74914946  1
  Na  Na6  1  0.99741310  0.99839570  0.48988278  1
  Na  Na7  1  0.50833914  0.00203343  0.49771410  1
  Na  Na8  1  0.01354371  0.02021379  0.99808785  1
  Na  Na9  1  0.50334196  0.98583623  0.99718532  1
  Na  Na10  1  0.33023706  0.33342792  0.82396039  1
  Na  Na11  1  0.82721939  0.32411019  0.82730895  1
  Na  Na12  1  0.33365935  0.33087851  0.32936137  1
  Na  Na13  1  0.83366090  0.33472097  0.33656704  1
  Na  Na14  1  0.17221834  0.66647093  0.16529824  1
  Na  Na15  1  0.66219808  0.66304680  0.17275339  1
  Na  Na16  1  0.17967736  0.66760836  0.67069704  1
  Na  Na17  1  0.67070625  0.66327639  0.66789191  1
  Hf  Hf0  1  0.00027733  0.98771814  0.35623099  1
  Hf  Hf1  1  0.50306332  0.01003449  0.35603469  1
  Hf  Hf2  1  0.00667015  0.01790204  0.85544486  1
  Hf  Hf3  1  0.50339542  0.99899862  0.84871204  1
  Hf  Hf4  1  0.99731968  0.00493349  0.64836753  1
  Hf  Hf5  1  0.50005091  0.00158997  0.65250325  1
  Hf  Hf6  1  0.00436131  0.99627362  0.14986562  1
  Hf  Hf7  1  0.50025188  0.00193334  0.14608842  1
  Hf  Hf8  1  0.33379988  0.33728103  0.18691638  1
  Hf  Hf9  1  0.32576422  0.33203915  0.98296295  1
  Hf  Hf10  1  0.83280499  0.32462684  0.97583300  1
  Hf  Hf11  1  0.33458800  0.34352717  0.47740419  1
  Hf  Hf12  1  0.83164023  0.33082657  0.47431975  1
  Hf  Hf13  1  0.16094034  0.65702003  0.01804228  1
  Hf  Hf14  1  0.66065640  0.67354646  0.02072811  1
  Hf  Hf15  1  0.16229701  0.65640807  0.51772415  1
  Hf  Hf16  1  0.66613722  0.66959366  0.51372550  1
  Hf  Hf17  1  0.16339327  0.66136928  0.31580721  1
  Hf  Hf18  1  0.66737330  0.66321805  0.31614344  1
  Hf  Hf19  1  0.16993734  0.66919565  0.81580488  1
  Hf  Hf20  1  0.67045560  0.67900418  0.81028863  1
  Mg  Mg0  1  0.33326666  0.33817232  0.69064103  1
  Mg  Mg1  1  0.82811870  0.32956297  0.68677778  1
  Mg  Mg2  1  0.83418537  0.33714397  0.18541705  1
  Si  Si0  1  0.14883891  0.00187147  0.25153386  1
  Si  Si1  1  0.85252793  0.70664436  0.24788134  1
  Si  Si2  1  0.49869907  0.29290487  0.24985519  1
  Si  Si3  1  0.14733936  0.29551935  0.74865191  1
  Si  Si4  1  0.64949534  0.29590567  0.74975687  1
  Si  Si5  1  0.49687610  0.70366578  0.74970590  1
  Si  Si6  1  0.35267702  0.99637193  0.75020268  1
  Si  Si7  1  0.85618426  0.00412279  0.74987252  1
  Si  Si8  1  0.47726669  0.62353254  0.08321621  1
  Si  Si9  1  0.18459208  0.33525371  0.08543962  1
  Si  Si10  1  0.02038433  0.37631512  0.91508207  1
  Si  Si11  1  0.16837515  0.96087391  0.91672823  1
  Si  Si12  1  0.66209620  0.95800537  0.91612476  1
  Si  Si13  1  0.81232823  0.95499093  0.41564595  1
  Si  Si14  1  0.16591350  0.37257224  0.41567935  1
  Si  Si15  1  0.66535382  0.37642561  0.41692829  1
  Si  Si16  1  0.02118803  0.66579162  0.41730768  1
  Si  Si17  1  0.52130261  0.66713093  0.41536526  1
  S  S0  1  0.64501349  0.00040188  0.24865722  1
  S  S1  1  0.35567399  0.71304748  0.25028255  1
  S  S2  1  0.99904147  0.28962632  0.24919564  1
  S  S3  1  0.99851448  0.70971965  0.74953051  1
  S  S4  1  0.47859147  0.33274261  0.58438749  1
  S  S5  1  0.97857359  0.33484206  0.58513023  1
  S  S6  1  0.18843078  0.04121891  0.58460165  1
  S  S7  1  0.68760606  0.04137039  0.58469337  1
  S  S8  1  0.33423105  0.62505473  0.58403456  1
  S  S9  1  0.83328304  0.62155693  0.58487612  1
  S  S10  1  0.97689022  0.62174487  0.08426234  1
  S  S11  1  0.33358432  0.04370019  0.08338952  1
  S  S12  1  0.83334104  0.04530544  0.08422448  1
  S  S13  1  0.68931796  0.33405368  0.08407312  1
  S  S14  1  0.31295421  0.66862756  0.91816280  1
  S  S15  1  0.81065028  0.66543847  0.91846429  1
  S  S16  1  0.52114766  0.37604394  0.91734070  1
  S  S17  1  0.31046620  0.95486802  0.41782731  1
  O  O0  1  0.10126601  0.02639670  0.30683444  1
  O  O1  1  0.60383093  0.02630891  0.30022693  1
  O  O2  1  0.40726569  0.79377752  0.30219228  1
  O  O3  1  0.91716466  0.79865485  0.30286589  1
  O  O4  1  0.48825151  0.16795717  0.30500350  1
  O  O5  1  0.98742691  0.18903822  0.30135950  1
  O  O6  1  0.10090698  0.17073782  0.80498963  1
  O  O7  1  0.60306135  0.16840554  0.80557651  1
  O  O8  1  0.48556862  0.79690886  0.80667502  1
  O  O9  1  0.98600803  0.78747163  0.80158592  1
  O  O10  1  0.41372439  0.02786870  0.80698427  1
  O  O11  1  0.91632206  0.02598214  0.80530482  1
  O  O12  1  0.39841087  0.96344595  0.69363099  1
  O  O13  1  0.89923822  0.96879189  0.69225946  1
  O  O14  1  0.08152432  0.19793881  0.69314290  1
  O  O15  1  0.58487598  0.20851337  0.69335449  1
  O  O16  1  0.01390677  0.82134595  0.69767476  1
  O  O17  1  0.52089540  0.83548710  0.69428627  1
  O  O18  1  0.39820837  0.81813695  0.19780037  1
  O  O19  1  0.89995186  0.82621143  0.19052731  1
  O  O20  1  0.01334905  0.21057905  0.19714438  1
  O  O21  1  0.51299930  0.19225203  0.19376182  1
  O  O22  1  0.08505001  0.96109881  0.19451781  1
  O  O23  1  0.59026529  0.97658096  0.19648015  1
  O  O24  1  0.43838735  0.35100346  0.63687705  1
  O  O25  1  0.94131014  0.35774437  0.63804838  1
  O  O26  1  0.23805115  0.11947354  0.63704177  1
  O  O27  1  0.73668872  0.11953776  0.63772647  1
  O  O28  1  0.32141397  0.52081390  0.63502701  1
  O  O29  1  0.82476569  0.52028563  0.63655736  1
  O  O30  1  0.43362620  0.50698492  0.13999277  1
  O  O31  1  0.93934852  0.52081639  0.13694923  1
  O  O32  1  0.32121237  0.12260492  0.13530036  1
  O  O33  1  0.81920939  0.12366416  0.13530018  1
  O  O34  1  0.24498996  0.35637554  0.14069214  1
  O  O35  1  0.73824728  0.35478605  0.13703529  1
  O  O36  1  0.22989566  0.30583295  0.02771887  1
  O  O37  1  0.73126495  0.30940987  0.03287407  1
  O  O38  1  0.42075903  0.53160148  0.02537712  1
  O  O39  1  0.92332542  0.53402415  0.03291799  1
  O  O40  1  0.34798863  0.14939765  0.03136273  1
  O  O41  1  0.84264174  0.15101159  0.03173946  1
  O  O42  1  0.23022185  0.14686021  0.53260720  1
  O  O43  1  0.73183322  0.14784595  0.53353064  1
  O  O44  1  0.34281463  0.53925561  0.53106135  1
  O  O45  1  0.84379240  0.53940466  0.53244943  1
  O  O46  1  0.42486200  0.31371297  0.53256395  1
  O  O47  1  0.92671084  0.31550734  0.53379662  1
  O  O48  1  0.27022728  0.68700712  0.96987969  1
  O  O49  1  0.76889213  0.68760113  0.97026442  1
  O  O50  1  0.08054868  0.46735097  0.97120296  1
  O  O51  1  0.57740173  0.46310902  0.96885777  1
  O  O52  1  0.16004746  0.84259859  0.97319798  1
  O  O53  1  0.65487400  0.83897019  0.97201414  1
  O  O54  1  0.27068404  0.84934173  0.46970618  1
  O  O55  1  0.76733369  0.83805288  0.47317655  1
  O  O56  1  0.15871007  0.47439333  0.47283658  1
  O  O57  1  0.65039108  0.46439671  0.47329322  1
  O  O58  1  0.08290156  0.69190425  0.47269342  1
  O  O59  1  0.57955314  0.70038283  0.47342045  1
  O  O60  1  0.06474439  0.63834055  0.35886688  1
  O  O61  1  0.56412126  0.63646796  0.35865865  1
  O  O62  1  0.25802927  0.87855812  0.36555347  1
  O  O63  1  0.75207497  0.87097731  0.35923847  1
  O  O64  1  0.18582920  0.49978147  0.35993175  1
  O  O65  1  0.68088076  0.48298077  0.35734995  1
  O  O66  1  0.06239992  0.48560488  0.85631665  1
  O  O67  1  0.56244715  0.47828651  0.86482409  1
  O  O68  1  0.18020597  0.87072907  0.85764870  1
  O  O69  1  0.67917094  0.87358251  0.85906689  1
  O  O70  1  0.26018783  0.64208614  0.86568041  1
  O  O71  1  0.75718578  0.63442754  0.86646963  1
  O  O72  1  0.01307746  0.83554248  0.41399001  1
  O  O73  1  0.50424691  0.82889905  0.40750392  1
  O  O74  1  0.39618889  0.97091234  0.41133741  1
  O  O75  1  0.90686959  0.97905261  0.40882112  1
  O  O76  1  0.08035713  0.19051767  0.41007699  1
  O  O77  1  0.58014130  0.18396315  0.41151801  1
  O  O78  1  0.00715093  0.18333835  0.91248602  1
  O  O79  1  0.51233396  0.20312735  0.91416316  1
  O  O80  1  0.07933003  0.96889958  0.91139465  1
  O  O81  1  0.57685221  0.97727118  0.91433121  1
  O  O82  1  0.39760727  0.82491505  0.91341372  1
  O  O83  1  0.89668403  0.81640534  0.91178969  1
  O  O84  1  0.48724356  0.17415511  0.58604372  1
  O  O85  1  0.98890769  0.17802162  0.58798253  1
  O  O86  1  0.09945695  0.01701541  0.58856283  1
  O  O87  1  0.60011217  0.02426736  0.58670857  1
  O  O88  1  0.41272420  0.79874336  0.58632436  1
  O  O89  1  0.91311290  0.79765910  0.58885740  1
  O  O90  1  0.49034580  0.81901296  0.09053731  1
  O  O91  1  0.98490372  0.79552671  0.08725186  1
  O  O92  1  0.41183768  0.02462983  0.08979007  1
  O  O93  1  0.91105206  0.02920929  0.08794704  1
  O  O94  1  0.08777216  0.16533000  0.09023982  1
  O  O95  1  0.60116419  0.17784155  0.08818312  1
  O  O96  1  0.34339732  0.16524221  0.74252877  1
  O  O97  1  0.85018808  0.17797717  0.74268134  1
  O  O98  1  0.23758652  0.30532234  0.74158347  1
  O  O99  1  0.74123782  0.30837698  0.74343764  1
  O  O100  1  0.41966703  0.51219099  0.74317844  1
  O  O101  1  0.92573335  0.53562204  0.74110259  1
  O  O102  1  0.34653652  0.54052541  0.24488486  1
  O  O103  1  0.84280720  0.51298586  0.24204579  1
  O  O104  1  0.41378132  0.31121652  0.24387673  1
  O  O105  1  0.92471903  0.31655202  0.24098640  1
  O  O106  1  0.24289286  0.16940006  0.24297607  1
  O  O107  1  0.72917609  0.15823910  0.24147601  1
  O  O108  1  0.32235543  0.51352372  0.92278674  1
  O  O109  1  0.81928307  0.50897773  0.92656185  1
  O  O110  1  0.43638201  0.36235779  0.92435418  1
  O  O111  1  0.92673014  0.36366657  0.92498902  1
  O  O112  1  0.25486433  0.15241175  0.92302509  1
  O  O113  1  0.74800245  0.14913910  0.92577080  1
  O  O114  1  0.32043418  0.12800614  0.42559012  1
  O  O115  1  0.82105838  0.14391445  0.42641219  1
  O  O116  1  0.25064743  0.35042333  0.42626123  1
  O  O117  1  0.74871972  0.35276448  0.42551195  1
  O  O118  1  0.42688305  0.49231634  0.42631990  1
  O  O119  1  0.92832073  0.49519240  0.42559737  1
  O  O120  1  0.17844823  0.51219340  0.07903687  1
  O  O121  1  0.67980325  0.48865876  0.07578239  1
  O  O122  1  0.06475614  0.64480863  0.07771989  1
  O  O123  1  0.57478807  0.64469303  0.07692111  1
  O  O124  1  0.25777213  0.86947268  0.07725808  1
  O  O125  1  0.75665415  0.86867441  0.07581848  1
  O  O126  1  0.17977976  0.86578044  0.57765014  1
  O  O127  1  0.67757969  0.86546729  0.57953437  1
  O  O128  1  0.25745554  0.64964166  0.57699656  1
  O  O129  1  0.75654624  0.64452269  0.58008528  1
  O  O130  1  0.06777735  0.48951522  0.57900844  1
  O  O131  1  0.56589004  0.48786625  0.57870767  1
  O  O132  1  0.15414926  0.82144583  0.25663099  1
  O  O133  1  0.65245320  0.84528881  0.25288338  1
  O  O134  1  0.26983916  0.69870141  0.25421552  1
  O  O135  1  0.75641456  0.68418097  0.25280561  1
  O  O136  1  0.07832798  0.46753737  0.25385646  1
  O  O137  1  0.58768787  0.47836937  0.25362626  1
  O  O138  1  0.14718692  0.47806539  0.75470074  1
  O  O139  1  0.64996073  0.47706043  0.75931289  1
  O  O140  1  0.07954036  0.69911535  0.75410623  1
  O  O141  1  0.58649338  0.69345920  0.75792232  1
  O  O142  1  0.25480907  0.82737824  0.75512689  1
  O  O143  1  0.75956692  0.83667222  0.75500796  1
loop_
_geom_bond_atom_site_label_1
_geom_bond_atom_site_label_2
_geom_bond_distance
_geom_bond_site_symmetry_2
Na0 O137 2.360439 1_555
Na0 O135 2.371742 1_555
Na0 O103 2.437576 1_555
Na0 O107 2.452183 1_555
Na0 O65 2.643990 1_555
Na0 O35 2.857038 1_555
Na0 O1 2.959587 1_555
Na0 O21 3.026193 1_555
Na1 O103 2.386980 1_555
Na1 O132 2.476341 1_655
Na1 O105 2.608528 1_555
Na1 O3 2.640018 1_555
Na1 O136 2.703343 1_655
Na1 O22 2.776084 1_655
Na1 O60 2.784115 1_655
Na1 O31 2.894510 1_555
Na2 O97 2.309429 1_555
Na2 O138 2.348734 1_655
Na2 O101 2.533442 1_555
Na2 O66 2.674370 1_655
Na2 O140 2.678508 1_655
Na2 O11 2.822405 1_555
Na2 O25 2.845685 1_555
Na2 O14 2.879856 1_655
Na3 O100 2.339356 1_555
Na3 O96 2.361179 1_555
Na3 O139 2.479142 1_555
Na3 O141 2.623753 1_555
Na3 O24 2.730218 1_555
Na3 O15 2.875218 1_555
Na3 O10 2.909723 1_555
Na3 O67 2.966962 1_555
Na4 O98 2.297387 1_555
Na4 O96 2.348188 1_555
Na4 O142 2.452841 1_545
Na4 O140 2.550805 1_545
Na4 O68 2.713387 1_545
Na4 O26 2.825260 1_555
Na4 O6 2.886810 1_555
Na5 O99 2.347717 1_555
Na5 O141 2.481819 1_545
Na5 O143 2.510759 1_545
Na5 O97 2.584857 1_555
Na5 O27 2.758947 1_555
Na5 O69 2.803491 1_545
Na5 O7 2.820496 1_555
Na5 O17 2.842432 1_545
Na6 O72 2.391130 1_655
Na6 O75 2.432051 1_555
Na6 O76 2.458860 1_665
Na6 O85 2.835101 1_565
Na6 O89 2.841644 1_555
Na6 O86 2.881301 1_665
Na7 O77 2.493051 1_555
Na7 O87 2.583603 1_555
Na7 O73 2.583969 1_545
Na7 O84 2.702579 1_555
Na7 O88 2.713948 1_545
Na7 O74 2.751442 1_545
Na8 O80 2.488993 1_545
Na8 O78 2.499418 1_555
Na8 O94 2.510067 1_556
Na8 O91 2.747586 1_446
Na8 O93 2.808734 1_456
Na8 O83 2.812673 1_445
Na9 O81 2.354799 1_555
Na9 O90 2.572671 1_556
Na9 O82 2.591991 1_555
Na9 O79 2.682797 1_565
Na9 O95 2.734365 1_566
Na9 O92 2.829784 1_566
Na10 O98 2.459967 1_555
Na10 O100 2.466961 1_555
Na10 O96 2.500134 1_555
Na10 O112 2.747228 1_555
Na10 O108 2.847393 1_555
Na10 O110 2.934578 1_555
Na11 O99 2.441008 1_555
Na11 O97 2.505608 1_555
Na11 O101 2.714745 1_555
Na11 O113 2.732758 1_555
Na11 O111 2.793653 1_555
Na11 O109 2.881120 1_555
Na12 O104 2.507624 1_555
Na12 O106 2.530638 1_555
Na12 O102 2.641047 1_555
Na12 O118 2.743618 1_555
Na12 O116 2.751013 1_555
Na12 O114 2.810350 1_555
Na13 O119 2.602710 1_555
Na13 O117 2.618754 1_555
Na13 O115 2.630372 1_555
Na13 O103 2.666656 1_555
Na13 O105 2.807871 1_555
Na13 O107 2.813407 1_555
Na14 O120 2.466160 1_555
Na14 O134 2.624970 1_555
Na14 O132 2.640543 1_555
Na14 O124 2.654393 1_555
Na14 O136 2.690089 1_555
Na14 O122 2.738165 1_555
Na15 O137 2.415325 1_555
Na15 O135 2.452170 1_555
Na15 O133 2.537170 1_555
Na15 O123 2.675780 1_555
Na15 O121 2.845186 1_555
Na15 O125 2.864278 1_555
Na16 O142 2.402493 1_555
Na16 O138 2.454339 1_555
Na16 O128 2.632009 1_555
Na16 O140 2.750488 1_555
Na16 O126 2.791517 1_555
Na16 O130 2.810128 1_555
Na17 O143 2.561681 1_555
Na17 O139 2.605439 1_555
Na17 O129 2.610282 1_555
Na17 O141 2.670546 1_555
Na17 O127 2.694586 1_555
Na17 O131 2.707558 1_555
Hf0 O72 2.002657 1_555
Hf0 O0 2.023509 1_565
Hf0 O3 2.025400 1_455
Hf0 O75 2.044034 1_455
Hf0 O76 2.078030 1_565
Hf0 O5 2.308751 1_465
Hf1 O4 1.959798 1_555
Hf1 O77 1.960694 1_555
Hf1 O73 2.021247 1_545
Hf1 O1 2.169907 1_555
Hf1 O74 2.186465 1_545
Hf1 O2 2.223096 1_545
Hf2 O6 1.948026 1_555
Hf2 O78 1.983657 1_555
Hf2 O11 2.024146 1_455
Hf2 O80 2.034839 1_545
Hf2 O9 2.279231 1_445
Hf2 O83 2.303808 1_445
Hf3 O8 1.936987 1_555
Hf3 O7 1.948206 1_565
Hf3 O10 2.000589 1_565
Hf3 O81 2.083364 1_555
Hf3 O82 2.309865 1_555
Hf3 O79 2.319951 1_565
Hf4 O13 1.916813 1_545
Hf4 O14 1.934519 1_655
Hf4 O16 2.140334 1_645
Hf4 O85 2.147907 1_555
Hf4 O89 2.198679 1_545
Hf4 O86 2.258891 1_655
Hf5 O12 1.932671 1_545
Hf5 O15 1.957944 1_555
Hf5 O17 1.959934 1_545
Hf5 O84 2.272310 1_555
Hf5 O87 2.288191 1_555
Hf5 O88 2.295557 1_545
Hf6 O22 1.928162 1_555
Hf6 O19 1.968231 1_455
Hf6 O94 2.045610 1_565
Hf6 O20 2.145884 1_565
Hf6 O91 2.199685 1_455
Hf6 O93 2.331768 1_465
Hf7 O21 1.947425 1_555
Hf7 O90 2.021524 1_545
Hf7 O23 2.094270 1_545
Hf7 O18 2.120156 1_545
Hf7 O92 2.139649 1_555
Hf7 O95 2.172545 1_555
Hf8 O34 1.996136 1_555
Hf8 O30 1.997090 1_555
Hf8 O106 2.041114 1_555
Hf8 O104 2.046270 1_555
Hf8 O32 2.179219 1_555
Hf8 O102 2.181729 1_555
Hf9 O36 1.921749 1_556
Hf9 O38 2.006663 1_556
Hf9 O112 2.023830 1_555
Hf9 O108 2.164609 1_555
Hf9 O40 2.176766 1_556
Hf9 O110 2.308605 1_555
Hf10 O113 1.935494 1_555
Hf10 O111 1.941553 1_555
Hf10 O41 2.096925 1_556
Hf10 O109 2.117439 1_555
Hf10 O37 2.201449 1_556
Hf10 O39 2.206222 1_556
Hf11 O118 1.929273 1_555
Hf11 O116 1.940836 1_555
Hf11 O44 2.094498 1_555
Hf11 O114 2.178710 1_555
Hf11 O46 2.180917 1_555
Hf11 O42 2.226875 1_555
Hf12 O115 1.938324 1_555
Hf12 O117 1.954488 1_555
Hf12 O119 1.976649 1_555
Hf12 O43 2.202737 1_555
Hf12 O45 2.224913 1_555
Hf12 O47 2.248993 1_555
Hf13 O50 1.923704 1_554
Hf13 O52 1.966064 1_554
Hf13 O120 2.044998 1_555
Hf13 O48 2.155259 1_554
Hf13 O122 2.173396 1_555
Hf13 O124 2.285863 1_555
Hf14 O53 1.905270 1_554
Hf14 O123 1.935566 1_555
Hf14 O51 2.102571 1_554
Hf14 O125 2.156013 1_555
Hf14 O49 2.217933 1_554
Hf14 O121 2.247209 1_555
Hf15 O56 1.908414 1_555
Hf15 O58 1.915213 1_555
Hf15 O130 2.145503 1_555
Hf15 O54 2.158056 1_555
Hf15 O128 2.214765 1_555
Hf15 O126 2.227363 1_555
Hf16 O55 1.930346 1_555
Hf16 O59 1.945815 1_555
Hf16 O57 1.954302 1_555
Hf16 O127 2.256544 1_555
Hf16 O131 2.288374 1_555
Hf16 O129 2.325083 1_555
Hf17 O60 1.952742 1_555
Hf17 O64 1.969516 1_555
Hf17 O132 2.048703 1_555
Hf17 O62 2.168274 1_555
Hf17 O136 2.182303 1_555
Hf17 O134 2.273631 1_555
Hf18 O63 1.987117 1_555
Hf18 O65 1.990560 1_555
Hf18 O61 2.005937 1_555
Hf18 O135 2.109921 1_555
Hf18 O137 2.127020 1_555
Hf18 O133 2.304420 1_555
Hf19 O68 1.975562 1_555
Hf19 O66 2.036152 1_555
Hf19 O142 2.038432 1_555
Hf19 O70 2.098968 1_555
Hf19 O138 2.099856 1_555
Hf19 O140 2.275150 1_555
Hf20 O143 1.985736 1_555
Hf20 O141 1.987583 1_555
Hf20 O69 2.017607 1_555
Hf20 O139 2.035113 1_555
Hf20 O71 2.211697 1_555
Hf20 O67 2.261171 1_555
Mg0 O100 1.976068 1_555
Mg0 O98 1.982588 1_555
Mg0 O96 2.038239 1_555
Mg0 O28 2.173555 1_555
Mg0 O24 2.217070 1_555
Mg0 O26 2.227208 1_555
Mg1 O99 1.975517 1_555
Mg1 O97 2.051946 1_555
Mg1 O29 2.091414 1_555
Mg1 O27 2.107999 1_555
Mg1 O101 2.198710 1_555
Mg1 O25 2.227162 1_555
Mg2 O103 1.996930 1_555
Mg2 O31 2.105956 1_555
Mg2 O35 2.124374 1_555
Mg2 O33 2.137184 1_555
Mg2 O105 2.150869 1_555
Mg2 O107 2.190407 1_555
O0 Si0 1.616110 1_555
O1 S0 1.484523 1_555
O2 S1 1.469624 1_555
O3 Si1 1.641562 1_555
O4 Si2 1.646380 1_555
O5 S2 1.459083 1_555
O6 Si3 1.649396 1_555
O7 Si4 1.650444 1_555
O8 Si5 1.629481 1_555
O9 S3 1.466402 1_555
O10 Si6 1.643764 1_545
O11 Si7 1.625178 1_555
O12 Si6 1.651127 1_555
O13 Si7 1.652002 1_565
O14 Si3 1.668519 1_555
O15 Si4 1.661454 1_555
O16 S3 1.498061 1_455
O17 Si5 1.649623 1_555
O18 S1 1.494239 1_555
O19 Si1 1.652407 1_555
O20 S2 1.485758 1_455
O21 Si2 1.674465 1_555
O22 Si0 1.664820 1_565
O23 S0 1.504284 1_565
O24 S4 1.465969 1_555
O25 S5 1.460955 1_555
O26 S6 1.462531 1_555
O27 S7 1.470336 1_555
O28 S8 1.451387 1_555
O29 S9 1.463478 1_555
O30 Si8 1.618754 1_555
O31 S10 1.468262 1_555
O32 S11 1.468425 1_555
O33 S12 1.462607 1_555
O34 Si9 1.626118 1_555
O35 S13 1.465823 1_555
O36 Si9 1.654977 1_555
O37 S13 1.480995 1_555
O38 Si8 1.634211 1_555
O39 S10 1.484632 1_555
O40 S11 1.473906 1_555
O41 S12 1.498488 1_555
O42 S6 1.484337 1_555
O43 S7 1.480455 1_555
O44 S8 1.497737 1_555
O45 S9 1.481663 1_555
O46 S4 1.495384 1_555
O47 S5 1.466207 1_555
O48 S14 1.477088 1_555
O49 S15 1.481505 1_555
O50 Si10 1.626085 1_555
O51 S16 1.505831 1_555
O52 Si11 1.642646 1_555
O53 Si12 1.640779 1_555
O54 S17 1.475371 1_555
O55 Si13 1.638486 1_555
O56 Si14 1.650747 1_555
O57 Si15 1.617025 1_555
O58 Si16 1.633717 1_555
O59 Si17 1.637122 1_555
O60 Si16 1.644035 1_555
O61 Si17 1.615129 1_555
O62 S17 1.476113 1_555
O63 Si13 1.622567 1_555
O64 Si14 1.639601 1_555
O65 Si15 1.621628 1_555
O66 Si10 1.626962 1_555
O67 S16 1.481106 1_555
O68 Si11 1.657488 1_555
O69 Si12 1.627861 1_555
O70 S14 1.485648 1_555
O71 S15 1.477521 1_555
O72 Si16 1.599197 1_555
O73 Si17 1.632842 1_555
O74 S17 1.479710 1_555
O75 Si13 1.607952 1_555
O76 Si14 1.592043 1_555
O77 Si15 1.641636 1_555
O78 Si10 1.623662 1_555
O79 S16 1.477616 1_555
O80 Si11 1.639356 1_555
O81 Si12 1.623026 1_555
O82 S14 1.468876 1_555
O83 S15 1.467347 1_555
O84 S4 1.503819 1_555
O85 S5 1.506552 1_555
O86 S6 1.503202 1_555
O87 S7 1.500295 1_555
O88 S8 1.490045 1_555
O89 S9 1.514481 1_555
O90 Si8 1.654685 1_555
O91 S10 1.491137 1_555
O92 S11 1.503809 1_555
O93 S12 1.474045 1_555
O94 Si9 1.645944 1_555
O95 S13 1.503607 1_555
O96 Si6 1.611197 1_545
O97 Si7 1.621377 1_555
O98 Si3 1.586165 1_555
O99 Si4 1.600396 1_555
O100 Si5 1.585019 1_555
O101 S3 1.463891 1_555
O102 S1 1.475221 1_555
O103 Si1 1.659500 1_555
O104 Si2 1.617572 1_555
O105 S2 1.480838 1_555
O106 Si0 1.616437 1_555
O107 S0 1.475467 1_555
O108 S14 1.483850 1_555
O109 S15 1.495833 1_555
O110 S16 1.472999 1_555
O111 Si10 1.643451 1_655
O112 Si11 1.648055 1_545
O113 Si12 1.650289 1_545
O114 S17 1.480335 1_545
O115 Si13 1.638463 1_545
O116 Si14 1.646517 1_555
O117 Si15 1.624036 1_555
O118 Si17 1.655340 1_555
O119 Si16 1.615049 1_655
O120 Si9 1.648528 1_555
O121 S13 1.489082 1_555
O122 S10 1.492434 1_455
O123 Si8 1.670141 1_555
O124 S11 1.479020 1_565
O125 S12 1.503945 1_565
O126 S6 1.508202 1_565
O127 S7 1.498273 1_565
O128 S8 1.508269 1_555
O129 S9 1.494195 1_555
O130 S5 1.513044 1_455
O131 S4 1.493420 1_555
O132 Si0 1.669072 1_565
O133 S0 1.463150 1_565
O134 S1 1.483279 1_555
O135 Si1 1.637813 1_555
O136 S2 1.520742 1_455
O137 Si2 1.634013 1_555
O138 Si3 1.641931 1_555
O139 Si4 1.633143 1_555
O140 S3 1.507131 1_455
O141 Si5 1.666237 1_555
O142 Si6 1.654167 1_555
O143 Si7 1.635617 1_565
