# generated using pymatgen
data_Nd(FeGe)2
_symmetry_space_group_name_H-M   'P 1'
_cell_length_a   4.00780033
_cell_length_b   4.00780087
_cell_length_c   6.15267448
_cell_angle_alpha   109.00773437
_cell_angle_beta   109.00774960
_cell_angle_gamma   89.99998992
_symmetry_Int_Tables_number   1
_chemical_formula_structural   Nd(FeGe)2
_chemical_formula_sum   'Nd1 Fe2 Ge2'
_cell_volume   87.71954529
_cell_formula_units_Z   1
loop_
 _symmetry_equiv_pos_site_id
 _symmetry_equiv_pos_as_xyz
  1  'x, y, z'
loop_
 _atom_site_type_symbol
 _atom_site_label
 _atom_site_symmetry_multiplicity
 _atom_site_fract_x
 _atom_site_fract_y
 _atom_site_fract_z
 _atom_site_occupancy
  Nd  Nd0  1  -0.00000000  -0.00000000  -0.00000000  1
  Fe  Fe0  1  0.25000000  0.75000000  0.50000000  1
  Fe  Fe1  1  0.75000000  0.25000000  0.50000000  1
  Ge  Ge0  1  0.61788211  0.61788211  0.23576522  1
  Ge  Ge1  1  0.38211789  0.38211789  0.76423478  1
loop_
_geom_bond_atom_site_label_1
_geom_bond_atom_site_label_2
_geom_bond_distance
_geom_bond_site_symmetry_2
Fe0 Ge1 2.469399 1_555
Fe0 Ge0 2.469399 1_555
Fe0 Ge0 2.469402 1_455
Fe0 Ge1 2.469403 1_565
Fe0 Nd0 3.386983 1_666
Fe0 Nd0 3.386984 1_565
Fe0 Nd0 3.386984 1_555
Fe0 Nd0 3.386984 1_566
Fe1 Ge0 2.469399 1_555
Fe1 Ge1 2.469399 1_555
Fe1 Ge1 2.469402 1_655
Fe1 Ge0 2.469403 1_545
Fe1 Nd0 3.386983 1_555
Fe1 Nd0 3.386984 1_656
Fe1 Nd0 3.386984 1_666
Fe1 Nd0 3.386984 1_655
Ge0 Ge1 2.575099 1_554
Ge0 Nd0 3.112716 1_555
Ge0 Nd0 3.112718 1_565
Ge0 Nd0 3.112719 1_655
Ge0 Nd0 3.112721 1_665
Ge1 Nd0 3.112716 1_666
Ge1 Nd0 3.112718 1_656
Ge1 Nd0 3.112719 1_566
Ge1 Nd0 3.112721 1_556
