# generated using pymatgen
data_Na14Mg4Ta4Si9(SO16)3
_symmetry_space_group_name_H-M   'P 1'
_cell_length_a   18.18750547
_cell_length_b   9.07374638
_cell_length_c   22.36825305
_cell_angle_alpha   90.03174424
_cell_angle_beta   90.00228407
_cell_angle_gamma   119.97396080
_symmetry_Int_Tables_number   1
_chemical_formula_structural   Na14Mg4Ta4Si9(SO16)3
_chemical_formula_sum   'Na42 Mg12 Ta12 Si27 S9 O144'
_cell_volume   3197.68934825
_cell_formula_units_Z   3
loop_
 _symmetry_equiv_pos_site_id
 _symmetry_equiv_pos_as_xyz
  1  'x, y, z'
loop_
 _atom_site_type_symbol
 _atom_site_label
 _atom_site_symmetry_multiplicity
 _atom_site_fract_x
 _atom_site_fract_y
 _atom_site_fract_z
 _atom_site_occupancy
  Na  Na0  1  0.81820076  0.99838178  0.25586010  1
  Na  Na1  1  0.17401193  0.34794077  0.24934998  1
  Na  Na2  1  0.66904262  0.35532119  0.25080239  1
  Na  Na3  1  0.00640770  0.64987285  0.24643885  1
  Na  Na4  1  0.50986726  0.64291880  0.25174753  1
  Na  Na5  1  0.31861853  0.63786068  0.75856567  1
  Na  Na6  1  0.01038634  0.37596368  0.75678061  1
  Na  Na7  1  0.50544129  0.36720685  0.74889328  1
  Na  Na8  1  0.17097656  0.98361318  0.75481392  1
  Na  Na9  1  0.67037194  0.99232345  0.75315038  1
  Na  Na10  1  0.14631077  0.31371441  0.58579468  1
  Na  Na11  1  0.64279241  0.31335167  0.58745195  1
  Na  Na12  1  0.33875265  0.98708441  0.58142453  1
  Na  Na13  1  0.83706885  0.97137301  0.59192977  1
  Na  Na14  1  0.14505167  0.97648269  0.08770647  1
  Na  Na15  1  0.63881495  0.96904346  0.08582706  1
  Na  Na16  1  0.34299883  0.70062020  0.08920403  1
  Na  Na17  1  0.83791160  0.69305350  0.07885003  1
  Na  Na18  1  0.48040467  0.66501662  0.91920072  1
  Na  Na19  1  0.97775437  0.64811648  0.92035941  1
  Na  Na20  1  0.35169815  0.04637426  0.91614702  1
  Na  Na21  1  0.84859167  0.04234677  0.91848610  1
  Na  Na22  1  0.17021901  0.29469993  0.92473516  1
  Na  Na23  1  0.66643709  0.28322771  0.91803689  1
  Na  Na24  1  0.47807842  0.30871453  0.41824305  1
  Na  Na25  1  0.98338709  0.29841138  0.40850475  1
  Na  Na26  1  0.16765363  0.05133083  0.41403033  1
  Na  Na27  1  0.66866188  0.04326163  0.42144895  1
  Na  Na28  1  0.34978867  0.65357111  0.41491783  1
  Na  Na29  1  0.85035859  0.65811889  0.41274973  1
  Na  Na30  1  0.01142362  0.99381981  0.49869303  1
  Na  Na31  1  0.50623438  0.00249170  0.50470715  1
  Na  Na32  1  0.00668297  0.01152156  0.00704937  1
  Na  Na33  1  0.50921482  0.01369511  0.00423768  1
  Na  Na34  1  0.33309228  0.33243796  0.84211334  1
  Na  Na35  1  0.83266620  0.33884819  0.84360800  1
  Na  Na36  1  0.33189235  0.32311920  0.33810062  1
  Na  Na37  1  0.83290621  0.33377086  0.33826250  1
  Na  Na38  1  0.16759987  0.66554548  0.16861149  1
  Na  Na39  1  0.65147616  0.64576682  0.17005639  1
  Na  Na40  1  0.15577940  0.66177044  0.67373892  1
  Na  Na41  1  0.66484848  0.66763386  0.67073814  1
  Mg  Mg0  1  0.01108465  0.01983537  0.35108101  1
  Mg  Mg1  1  0.51065322  0.99978101  0.85312141  1
  Mg  Mg2  1  0.00524466  0.00021403  0.65333651  1
  Mg  Mg3  1  0.51293997  0.00787695  0.64850486  1
  Mg  Mg4  1  0.01321804  0.01701257  0.14906043  1
  Mg  Mg5  1  0.50402199  0.00095616  0.14960370  1
  Mg  Mg6  1  0.33407196  0.33423039  0.98278949  1
  Mg  Mg7  1  0.83157990  0.34002206  0.97865659  1
  Mg  Mg8  1  0.33113300  0.32247515  0.47824257  1
  Mg  Mg9  1  0.83123640  0.33700766  0.47980919  1
  Mg  Mg10  1  0.65814457  0.65471426  0.31495385  1
  Mg  Mg11  1  0.15912851  0.66144315  0.81667693  1
  Ta  Ta0  1  0.50213404  0.00749584  0.35121913  1
  Ta  Ta1  1  0.00140197  0.99478691  0.85238291  1
  Ta  Ta2  1  0.33359102  0.32749983  0.68518426  1
  Ta  Ta3  1  0.83080509  0.32672993  0.69198751  1
  Ta  Ta4  1  0.33680322  0.34577493  0.18888134  1
  Ta  Ta5  1  0.83409633  0.33849247  0.18422368  1
  Ta  Ta6  1  0.15582719  0.65182081  0.02077202  1
  Ta  Ta7  1  0.65870659  0.64798990  0.01927507  1
  Ta  Ta8  1  0.16552624  0.67982381  0.51620917  1
  Ta  Ta9  1  0.65474794  0.65936631  0.52048744  1
  Ta  Ta10  1  0.16683563  0.66606930  0.31222116  1
  Ta  Ta11  1  0.66720535  0.66762757  0.81389601  1
  Si  Si0  1  0.14785349  0.00030862  0.24960302  1
  Si  Si1  1  0.64900316  0.99673005  0.24811691  1
  Si  Si2  1  0.35504791  0.71590195  0.24710689  1
  Si  Si3  1  0.99674378  0.28511717  0.25181532  1
  Si  Si4  1  0.50037672  0.29166738  0.24630421  1
  Si  Si5  1  0.14750147  0.29962558  0.74723401  1
  Si  Si6  1  0.64458130  0.29446300  0.74969735  1
  Si  Si7  1  0.00222162  0.70935220  0.74704699  1
  Si  Si8  1  0.49714188  0.70925591  0.75132073  1
  Si  Si9  1  0.85540240  0.99302406  0.74630093  1
  Si  Si10  1  0.47714314  0.32454835  0.57992894  1
  Si  Si11  1  0.18216059  0.03691183  0.58026446  1
  Si  Si12  1  0.68860330  0.04138060  0.57938681  1
  Si  Si13  1  0.47909112  0.62689194  0.07941255  1
  Si  Si14  1  0.97747192  0.63019727  0.07991001  1
  Si  Si15  1  0.18792761  0.33429744  0.07976614  1
  Si  Si16  1  0.68422973  0.32984926  0.07924867  1
  Si  Si17  1  0.81230245  0.66908198  0.91773144  1
  Si  Si18  1  0.01731289  0.36724990  0.91322884  1
  Si  Si19  1  0.51607114  0.36445996  0.91361493  1
  Si  Si20  1  0.17066521  0.96089045  0.91337272  1
  Si  Si21  1  0.66561255  0.95787916  0.91862246  1
  Si  Si22  1  0.31393236  0.96040360  0.41491090  1
  Si  Si23  1  0.16505845  0.37244330  0.41922463  1
  Si  Si24  1  0.67007416  0.38038204  0.41333989  1
  Si  Si25  1  0.01597246  0.66538449  0.41394127  1
  Si  Si26  1  0.51663123  0.66694295  0.41314199  1
  S  S0  1  0.85482815  0.70992950  0.24899295  1
  S  S1  1  0.35495634  0.99955298  0.74817046  1
  S  S2  1  0.97935534  0.33773385  0.58170118  1
  S  S3  1  0.33259211  0.62481979  0.58357287  1
  S  S4  1  0.83516635  0.62505872  0.58143454  1
  S  S5  1  0.33379316  0.04376471  0.08110891  1
  S  S6  1  0.83374214  0.04176605  0.08335875  1
  S  S7  1  0.31044225  0.67068316  0.91599613  1
  S  S8  1  0.81156670  0.95253963  0.41773620  1
  O  O0  1  0.11309565  0.04719053  0.30906439  1
  O  O1  1  0.60182453  0.03492970  0.30775962  1
  O  O2  1  0.41760409  0.80600648  0.30674888  1
  O  O3  1  0.90633875  0.78138807  0.30352492  1
  O  O4  1  0.48641121  0.17416820  0.31010039  1
  O  O5  1  0.97175741  0.17359269  0.31276656  1
  O  O6  1  0.10007374  0.16610660  0.80569238  1
  O  O7  1  0.61216359  0.17598688  0.80804064  1
  O  O8  1  0.47130848  0.77098805  0.81154990  1
  O  O9  1  0.98535138  0.79557992  0.80912650  1
  O  O10  1  0.40652416  0.03215432  0.80242344  1
  O  O11  1  0.91816237  0.03017814  0.80502997  1
  O  O12  1  0.39425970  0.98078250  0.69384583  1
  O  O13  1  0.89367397  0.97359092  0.68512679  1
  O  O14  1  0.08975293  0.22537831  0.68866382  1
  O  O15  1  0.58916822  0.22624567  0.68992915  1
  O  O16  1  0.01992241  0.83297469  0.69284476  1
  O  O17  1  0.51614446  0.82872454  0.69465907  1
  O  O18  1  0.39131569  0.81526091  0.18687618  1
  O  O19  1  0.89449407  0.80894758  0.19491844  1
  O  O20  1  0.01552885  0.20130109  0.19598004  1
  O  O21  1  0.51801638  0.19732357  0.19418211  1
  O  O22  1  0.08798756  0.94782507  0.19149264  1
  O  O23  1  0.59051965  0.95655873  0.19073471  1
  O  O24  1  0.43050016  0.35464191  0.64060188  1
  O  O25  1  0.93953076  0.36077949  0.63697479  1
  O  O26  1  0.24892491  0.13521240  0.63983020  1
  O  O27  1  0.75281133  0.14011561  0.63946519  1
  O  O28  1  0.31968885  0.51133686  0.63793901  1
  O  O29  1  0.82310973  0.51319580  0.63429572  1
  O  O30  1  0.43190266  0.50386748  0.14010595  1
  O  O31  1  0.93167853  0.50678403  0.14086567  1
  O  O32  1  0.31861692  0.12659528  0.13388263  1
  O  O33  1  0.82181504  0.13171636  0.13823794  1
  O  O34  1  0.25122331  0.36573423  0.13968034  1
  O  O35  1  0.75099573  0.36286226  0.13981923  1
  O  O36  1  0.23075243  0.30969672  0.02112662  1
  O  O37  1  0.73096151  0.30591549  0.02279577  1
  O  O38  1  0.42420951  0.53793774  0.02118220  1
  O  O39  1  0.92348052  0.54062106  0.02178462  1
  O  O40  1  0.34217713  0.13739794  0.02564449  1
  O  O41  1  0.84461068  0.14221949  0.02932980  1
  O  O42  1  0.22941455  0.15068803  0.52315232  1
  O  O43  1  0.73602628  0.15364276  0.52211028  1
  O  O44  1  0.34287294  0.54622373  0.52940288  1
  O  O45  1  0.84483834  0.54827469  0.52641329  1
  O  O46  1  0.42257257  0.30512430  0.52206924  1
  O  O47  1  0.92947460  0.32306476  0.52833218  1
  O  O48  1  0.26636654  0.68956353  0.97070599  1
  O  O49  1  0.76846977  0.70229403  0.97745278  1
  O  O50  1  0.08314452  0.46745759  0.97309048  1
  O  O51  1  0.58268402  0.46697568  0.97190964  1
  O  O52  1  0.15538704  0.83196699  0.97306731  1
  O  O53  1  0.65702205  0.83146093  0.97605490  1
  O  O54  1  0.26720961  0.83714495  0.47621981  1
  O  O55  1  0.76714892  0.84450383  0.47248720  1
  O  O56  1  0.15533862  0.47896405  0.47895257  1
  O  O57  1  0.65608004  0.48008147  0.47387493  1
  O  O58  1  0.08466684  0.69991120  0.47230420  1
  O  O59  1  0.58241312  0.69887528  0.47403398  1
  O  O60  1  0.06645439  0.64000198  0.35760016  1
  O  O61  1  0.56123235  0.63892261  0.35699496  1
  O  O62  1  0.24869197  0.84925237  0.36167231  1
  O  O63  1  0.75972114  0.87696027  0.36404339  1
  O  O64  1  0.17403514  0.49402451  0.36145836  1
  O  O65  1  0.68770821  0.49856323  0.35621378  1
  O  O66  1  0.05990747  0.48139080  0.85589815  1
  O  O67  1  0.56865591  0.49268234  0.85705282  1
  O  O68  1  0.18686287  0.87887242  0.85512823  1
  O  O69  1  0.67524710  0.85829224  0.85887642  1
  O  O70  1  0.25918025  0.64730583  0.86207699  1
  O  O71  1  0.74931201  0.65005663  0.86169240  1
  O  O72  1  0.00628722  0.83186265  0.41173936  1
  O  O73  1  0.51554876  0.84878162  0.41273665  1
  O  O74  1  0.40521620  0.96552410  0.41109514  1
  O  O75  1  0.89484644  0.96104559  0.41580373  1
  O  O76  1  0.07743462  0.19241531  0.41836537  1
  O  O77  1  0.57948302  0.19309066  0.41197749  1
  O  O78  1  0.01568012  0.18228080  0.91150173  1
  O  O79  1  0.50772307  0.17985010  0.91043429  1
  O  O80  1  0.07946786  0.96695164  0.91055144  1
  O  O81  1  0.57834732  0.96302401  0.91764802  1
  O  O82  1  0.39417557  0.82774512  0.91418559  1
  O  O83  1  0.90542627  0.84525931  0.90951223  1
  O  O84  1  0.48738254  0.15908976  0.58853214  1
  O  O85  1  0.98753812  0.18378190  0.58566912  1
  O  O86  1  0.09070244  0.02073452  0.58755201  1
  O  O87  1  0.59623609  0.02034240  0.58606861  1
  O  O88  1  0.40235083  0.79690901  0.59225162  1
  O  O89  1  0.90643227  0.79909355  0.58763684  1
  O  O90  1  0.49019438  0.81401475  0.08648826  1
  O  O91  1  0.98694703  0.81528061  0.08882794  1
  O  O92  1  0.40536537  0.01489289  0.08782873  1
  O  O93  1  0.90427763  0.01175256  0.09245203  1
  O  O94  1  0.09486074  0.17201503  0.08738688  1
  O  O95  1  0.59264064  0.16850752  0.08816399  1
  O  O96  1  0.34550190  0.16088086  0.74326974  1
  O  O97  1  0.84701816  0.17320338  0.74284729  1
  O  O98  1  0.24219497  0.30489317  0.74139834  1
  O  O99  1  0.74221750  0.31655534  0.73791838  1
  O  O100  1  0.41296565  0.50783101  0.74000579  1
  O  O101  1  0.91625174  0.51491581  0.73903107  1
  O  O102  1  0.34619401  0.52089538  0.24543562  1
  O  O103  1  0.84599742  0.53107906  0.24397763  1
  O  O104  1  0.41398906  0.31155557  0.24224523  1
  O  O105  1  0.91378235  0.32001308  0.24145320  1
  O  O106  1  0.24255919  0.17039831  0.23702213  1
  O  O107  1  0.74357772  0.18126164  0.24305665  1
  O  O108  1  0.32004679  0.51834787  0.92108282  1
  O  O109  1  0.82181595  0.50369081  0.91754819  1
  O  O110  1  0.42651989  0.35970431  0.91762203  1
  O  O111  1  0.92425501  0.33997422  0.92379535  1
  O  O112  1  0.24972429  0.15153723  0.92174646  1
  O  O113  1  0.75135758  0.13958306  0.91982085  1
  O  O114  1  0.32194386  0.14284413  0.41701206  1
  O  O115  1  0.82383790  0.12635612  0.42470763  1
  O  O116  1  0.25071897  0.36288229  0.42143980  1
  O  O117  1  0.74955062  0.34793525  0.42132652  1
  O  O118  1  0.42378109  0.50781957  0.42402302  1
  O  O119  1  0.92744402  0.48873495  0.42183709  1
  O  O120  1  0.18787266  0.52270806  0.07610290  1
  O  O121  1  0.68697169  0.51881894  0.07862900  1
  O  O122  1  0.07579995  0.65072449  0.07761265  1
  O  O123  1  0.57761584  0.64852003  0.07749424  1
  O  O124  1  0.25233788  0.86846050  0.07786600  1
  O  O125  1  0.75212001  0.87426970  0.08276543  1
  O  O126  1  0.18192903  0.84784410  0.57956865  1
  O  O127  1  0.68838298  0.85333582  0.57714291  1
  O  O128  1  0.25001517  0.63003770  0.58241543  1
  O  O129  1  0.75350017  0.63392362  0.57911565  1
  O  O130  1  0.06791285  0.49191995  0.57918446  1
  O  O131  1  0.57565427  0.50106149  0.57791729  1
  O  O132  1  0.15899090  0.82953780  0.25897288  1
  O  O133  1  0.67099823  0.84700534  0.25924649  1
  O  O134  1  0.25628362  0.67101276  0.25948885  1
  O  O135  1  0.76823985  0.68394704  0.25423880  1
  O  O136  1  0.08120719  0.48161444  0.25836247  1
  O  O137  1  0.58171419  0.48223746  0.25375911  1
  O  O138  1  0.17011445  0.49403896  0.75784524  1
  O  O139  1  0.65856178  0.48813327  0.75765201  1
  O  O140  1  0.08235293  0.67954265  0.75453314  1
  O  O141  1  0.58088389  0.67997997  0.75777147  1
  O  O142  1  0.26819173  0.85256034  0.75310078  1
  O  O143  1  0.75678767  0.84136651  0.75725589  1
loop_
_geom_bond_atom_site_label_1
_geom_bond_atom_site_label_2
_geom_bond_distance
_geom_bond_site_symmetry_2
Na0 O133 2.320716 1_555
Na0 O135 2.525190 1_555
Na0 O105 2.564113 1_565
Na0 O107 2.632211 1_565
Na0 O63 2.652005 1_555
Na0 O5 2.740164 1_565
Na0 O33 2.883451 1_565
Na1 O106 2.496380 1_555
Na1 O136 2.531047 1_555
Na1 O134 2.549551 1_555
Na1 O102 2.714173 1_555
Na1 O0 2.727961 1_555
Na1 O20 2.769402 1_555
Na1 O34 2.791063 1_555
Na1 O64 2.835698 1_555
Na2 O137 2.383440 1_555
Na2 O107 2.549734 1_555
Na2 O135 2.603197 1_555
Na2 O65 2.630546 1_555
Na2 O21 2.695755 1_555
Na2 O103 2.792181 1_555
Na2 O1 2.832352 1_555
Na2 O35 2.878839 1_555
Na3 O132 2.432367 1_555
Na3 O136 2.515664 1_555
Na3 O103 2.556198 1_455
Na3 O105 2.601965 1_455
Na3 O22 2.648929 1_555
Na3 O31 2.709740 1_455
Na3 O60 2.735155 1_555
Na3 O3 2.921582 1_455
Na4 O137 2.395617 1_555
Na4 O61 2.539701 1_555
Na4 O133 2.573446 1_555
Na4 O102 2.610301 1_555
Na4 O104 2.624230 1_555
Na4 O23 2.818960 1_555
Na4 O30 2.836774 1_555
Na5 O138 2.340149 1_555
Na5 O142 2.537094 1_555
Na5 O100 2.555648 1_555
Na5 O70 2.574774 1_555
Na5 O98 2.647644 1_555
Na5 O8 2.687380 1_555
Na5 O28 2.935577 1_555
Na6 O140 2.387690 1_555
Na6 O66 2.403823 1_555
Na6 O138 2.545146 1_555
Na6 O101 2.614554 1_455
Na6 O97 2.616763 1_455
Na6 O14 2.870676 1_555
Na6 O11 2.927092 1_455
Na6 O25 2.946723 1_455
Na7 O139 2.438095 1_555
Na7 O141 2.466747 1_555
Na7 O96 2.557452 1_555
Na7 O100 2.577035 1_555
Na7 O67 2.675832 1_555
Na7 O24 2.753614 1_555
Na7 O15 2.763849 1_555
Na7 O10 2.907245 1_555
Na8 O140 2.401415 1_555
Na8 O68 2.509643 1_555
Na8 O98 2.548376 1_565
Na8 O142 2.577310 1_555
Na8 O16 2.753675 1_555
Na8 O96 2.761928 1_565
Na8 O6 2.798539 1_565
Na8 O26 2.927927 1_565
Na9 O141 2.466407 1_555
Na9 O143 2.550701 1_555
Na9 O99 2.576581 1_565
Na9 O7 2.676988 1_565
Na9 O69 2.681534 1_555
Na9 O17 2.760507 1_555
Na9 O97 2.792902 1_565
Na9 O27 2.916842 1_565
Na10 O86 2.324913 1_555
Na10 O14 2.484668 1_555
Na10 O85 2.515323 1_455
Na10 O128 2.528306 1_555
Na10 O130 2.640767 1_555
Na10 O56 2.782938 1_555
Na10 O42 2.944146 1_555
Na10 O28 2.977701 1_555
Na11 O87 2.353088 1_555
Na11 O84 2.448638 1_555
Na11 O15 2.462149 1_555
Na11 O131 2.552651 1_555
Na11 O129 2.588126 1_555
Na11 O57 2.905234 1_555
Na12 O84 2.356378 1_565
Na12 O126 2.476363 1_555
Na12 O88 2.523719 1_555
Na12 O54 2.703548 1_555
Na12 O12 2.720960 1_555
Na12 O128 2.806549 1_555
Na12 O46 2.832522 1_565
Na12 O26 2.893923 1_565
Na13 O13 2.320593 1_555
Na13 O127 2.382193 1_555
Na13 O85 2.439995 1_565
Na13 O89 2.452498 1_555
Na13 O129 2.667676 1_555
Na13 O27 2.857641 1_565
Na13 O55 2.934963 1_555
Na14 O94 2.366324 1_565
Na14 O91 2.491206 1_455
Na14 O22 2.503076 1_555
Na14 O122 2.579462 1_555
Na14 O124 2.593739 1_555
Na15 O90 2.342241 1_555
Na15 O95 2.345701 1_565
Na15 O23 2.488360 1_555
Na15 O123 2.548902 1_555
Na15 O125 2.600294 1_555
Na15 O53 2.847264 1_554
Na16 O90 2.340310 1_555
Na16 O18 2.389849 1_555
Na16 O120 2.469897 1_555
Na16 O92 2.487454 1_565
Na16 O124 2.759006 1_555
Na17 O91 2.371272 1_555
Na17 O121 2.387262 1_555
Na17 O93 2.534408 1_565
Na17 O49 2.617654 1_554
Na17 O125 2.776612 1_555
Na17 O19 2.796571 1_555
Na17 O39 2.848416 1_555
Na17 O35 2.933852 1_555
Na18 O81 2.381870 1_555
Na18 O110 2.433811 1_555
Na18 O108 2.529952 1_555
Na18 O38 2.530482 1_556
Na18 O8 2.629016 1_555
Na18 O82 2.639387 1_555
Na19 O109 2.459894 1_555
Na19 O111 2.460109 1_555
Na19 O39 2.472520 1_556
Na19 O80 2.548142 1_655
Na19 O83 2.709421 1_555
Na19 O9 2.796250 1_555
Na20 O82 2.462817 1_545
Na20 O110 2.463743 1_555
Na20 O79 2.470184 1_555
Na20 O112 2.476731 1_555
Na20 O40 2.617584 1_556
Na20 O10 2.758670 1_555
Na21 O113 2.337901 1_555
Na21 O111 2.342486 1_555
Na21 O83 2.480644 1_545
Na21 O78 2.648840 1_655
Na21 O41 2.652713 1_556
Na21 O11 2.862389 1_555
Na22 O112 2.379007 1_555
Na22 O36 2.393576 1_556
Na22 O108 2.454604 1_555
Na22 O78 2.482507 1_555
Na22 O80 2.600630 1_545
Na22 O6 2.930583 1_555
Na22 O50 2.934954 1_555
Na23 O113 2.469299 1_555
Na23 O109 2.517778 1_555
Na23 O81 2.521359 1_545
Na23 O79 2.556471 1_555
Na23 O37 2.582315 1_556
Na23 O7 2.648078 1_555
Na24 O118 2.457294 1_555
Na24 O114 2.461554 1_555
Na24 O46 2.526099 1_555
Na24 O77 2.540676 1_555
Na24 O74 2.711981 1_545
Na24 O4 2.747076 1_555
Na24 O61 2.935718 1_555
Na25 O76 2.354459 1_655
Na25 O5 2.381465 1_555
Na25 O119 2.421094 1_555
Na25 O115 2.542270 1_555
Na25 O75 2.658110 1_545
Na25 O47 2.900754 1_555
Na25 O60 2.917357 1_655
Na26 O116 2.456307 1_555
Na26 O114 2.498015 1_555
Na26 O76 2.537604 1_555
Na26 O0 2.541878 1_555
Na26 O72 2.596472 1_545
Na26 O42 2.649118 1_555
Na27 O117 2.396476 1_555
Na27 O73 2.448699 1_545
Na27 O43 2.518958 1_555
Na27 O115 2.532320 1_555
Na27 O77 2.593732 1_555
Na27 O1 2.803236 1_555
Na27 O59 2.952165 1_545
Na27 O63 3.027170 1_545
Na28 O118 2.319517 1_555
Na28 O116 2.340217 1_555
Na28 O74 2.486925 1_555
Na28 O73 2.625440 1_555
Na28 O44 2.720810 1_555
Na28 O2 2.754619 1_555
Na29 O75 2.447878 1_555
Na29 O72 2.461946 1_655
Na29 O117 2.482801 1_555
Na29 O119 2.553922 1_555
Na29 O3 2.668721 1_555
Na29 O45 2.714849 1_555
Na29 O65 2.857358 1_555
Na30 O86 2.395137 1_565
Na30 O76 2.399808 1_565
Na30 O72 2.410602 1_555
Na30 O89 2.712807 1_455
Na30 O75 2.718562 1_455
Na30 O85 2.772956 1_465
Na31 O87 2.398394 1_555
Na31 O84 2.477137 1_555
Na31 O73 2.537528 1_545
Na31 O77 2.601942 1_555
Na31 O74 2.693652 1_545
Na31 O88 2.714179 1_545
Na32 O94 2.363298 1_555
Na32 O91 2.451666 1_445
Na32 O78 2.597233 1_554
Na32 O80 2.666310 1_544
Na32 O93 2.668775 1_455
Na32 O83 2.765385 1_444
Na33 O95 2.380506 1_555
Na33 O81 2.473983 1_544
Na33 O90 2.482901 1_545
Na33 O79 2.592418 1_554
Na33 O92 2.661656 1_555
Na33 O82 2.783949 1_544
Na34 O110 2.319589 1_555
Na34 O112 2.383864 1_555
Na34 O108 2.533532 1_555
Na34 O98 2.730738 1_555
Na34 O100 2.748419 1_555
Na34 O96 2.776648 1_555
Na35 O109 2.303004 1_555
Na35 O113 2.386233 1_555
Na35 O111 2.444344 1_555
Na35 O97 2.792009 1_555
Na35 O101 2.812984 1_555
Na35 O99 2.828897 1_555
Na36 O114 2.351932 1_555
Na36 O116 2.513273 1_555
Na36 O118 2.548153 1_555
Na36 O104 2.644665 1_555
Na36 O102 2.668744 1_555
Na36 O106 2.723695 1_555
Na37 O117 2.441654 1_555
Na37 O119 2.451384 1_555
Na37 O107 2.615269 1_555
Na37 O115 2.646138 1_555
Na37 O105 2.655534 1_555
Na37 O103 2.699643 1_555
Na38 O132 2.559998 1_555
Na38 O120 2.563621 1_555
Na38 O134 2.579892 1_555
Na38 O136 2.582300 1_555
Na38 O122 2.593059 1_555
Na38 O124 2.656014 1_555
Na39 O137 2.332188 1_555
Na39 O123 2.474938 1_555
Na39 O121 2.581953 1_555
Na39 O133 2.605478 1_555
Na39 O135 2.727533 1_555
Na39 O125 2.770278 1_555
Na40 O140 2.300116 1_555
Na40 O138 2.514611 1_555
Na40 O126 2.591433 1_555
Na40 O142 2.605368 1_555
Na40 O130 2.633916 1_555
Na40 O128 2.772356 1_555
Na41 O139 2.502577 1_555
Na41 O141 2.511077 1_555
Na41 O143 2.527603 1_555
Na41 O127 2.586269 1_555
Na41 O131 2.602520 1_555
Na41 O129 2.717681 1_555
Mg0 O0 1.981762 1_555
Mg0 O5 2.047181 1_455
Mg0 O76 2.069439 1_555
Mg0 O72 2.147458 1_545
Mg0 O3 2.306677 1_445
Mg0 O75 2.392506 1_445
Mg1 O7 2.008508 1_565
Mg1 O81 2.030027 1_555
Mg1 O8 2.049384 1_555
Mg1 O79 2.097775 1_565
Mg1 O82 2.342756 1_555
Mg1 O10 2.348411 1_565
Mg2 O16 1.887129 1_545
Mg2 O14 2.005331 1_555
Mg2 O13 2.047469 1_445
Mg2 O86 2.080141 1_555
Mg2 O89 2.332275 1_445
Mg2 O85 2.389104 1_455
Mg3 O17 1.951478 1_545
Mg3 O15 1.989897 1_555
Mg3 O87 2.021745 1_555
Mg3 O84 2.130134 1_555
Mg3 O12 2.284373 1_545
Mg3 O88 2.333049 1_545
Mg4 O20 1.956343 1_555
Mg4 O22 1.999456 1_545
Mg4 O94 2.000405 1_555
Mg4 O91 2.125419 1_445
Mg4 O19 2.282094 1_445
Mg4 O93 2.331657 1_455
Mg5 O21 1.943889 1_555
Mg5 O23 2.029083 1_545
Mg5 O18 2.070397 1_545
Mg5 O95 2.086110 1_555
Mg5 O90 2.122436 1_545
Mg5 O92 2.317684 1_555
Mg6 O38 1.952410 1_556
Mg6 O36 1.974433 1_556
Mg6 O40 2.096523 1_556
Mg6 O112 2.102868 1_555
Mg6 O110 2.148858 1_555
Mg6 O108 2.278065 1_555
Mg7 O37 1.963173 1_556
Mg7 O39 1.998855 1_556
Mg7 O111 2.085138 1_555
Mg7 O109 2.090731 1_555
Mg7 O113 2.124680 1_555
Mg7 O41 2.233726 1_556
Mg8 O42 1.995447 1_555
Mg8 O46 2.003309 1_555
Mg8 O114 2.070209 1_555
Mg8 O118 2.075905 1_555
Mg8 O116 2.103323 1_555
Mg8 O44 2.245280 1_555
Mg9 O43 1.945545 1_555
Mg9 O117 2.018780 1_555
Mg9 O119 2.057599 1_555
Mg9 O45 2.084859 1_555
Mg9 O47 2.147611 1_555
Mg9 O115 2.220597 1_555
Mg10 O61 1.938945 1_555
Mg10 O65 1.977640 1_555
Mg10 O137 2.019639 1_555
Mg10 O133 2.060715 1_555
Mg10 O63 2.227144 1_555
Mg10 O135 2.322523 1_555
Mg11 O66 1.936783 1_555
Mg11 O68 1.972364 1_555
Mg11 O140 2.034271 1_555
Mg11 O138 2.092859 1_555
Mg11 O70 2.142955 1_555
Mg11 O142 2.351607 1_555
O0 Si0 1.617948 1_555
O1 Si1 1.712601 1_545
O1 Ta0 1.960563 1_555
O2 Si2 1.676869 1_555
O2 Ta0 1.971017 1_565
O3 S0 1.475819 1_555
O4 Si4 1.722988 1_555
O4 Ta0 1.910118 1_555
O5 Si3 1.622161 1_555
O6 Si5 1.696853 1_555
O6 Ta1 1.985508 1_545
O7 Si6 1.604589 1_555
O8 Si8 1.616077 1_555
O9 Si7 1.695066 1_655
O9 Ta1 1.938931 1_655
O10 S1 1.470415 1_545
O11 Si9 1.660468 1_545
O11 Ta1 2.000756 1_645
O12 S1 1.462213 1_555
O13 Si9 1.584441 1_555
O14 Si5 1.601650 1_555
O15 Si6 1.600569 1_555
O16 Si7 1.572430 1_555
O17 Si8 1.590008 1_555
O18 Si2 1.571688 1_555
O19 S0 1.464349 1_555
O20 Si3 1.585429 1_455
O21 Si4 1.571106 1_555
O22 Si0 1.607154 1_565
O23 Si1 1.588614 1_555
O24 Si10 1.693281 1_555
O24 Ta2 1.930888 1_555
O25 S2 1.499366 1_555
O25 Ta3 2.215882 1_555
O26 Si11 1.720935 1_555
O26 Ta2 1.938534 1_555
O27 Si12 1.710389 1_555
O27 Ta3 1.963986 1_555
O28 S3 1.534332 1_555
O28 Ta2 2.094431 1_555
O29 S4 1.501796 1_555
O29 Ta3 2.187826 1_555
O30 Si13 1.694183 1_555
O30 Ta4 1.939689 1_555
O31 Si14 1.696047 1_555
O31 Ta5 1.927701 1_555
O32 S5 1.496954 1_555
O32 Ta4 2.217671 1_555
O33 S6 1.547876 1_555
O33 Ta5 2.051169 1_555
O34 Si15 1.695292 1_555
O34 Ta4 1.987054 1_555
O35 Si16 1.742375 1_555
O35 Ta5 1.911496 1_555
O36 Si15 1.597003 1_555
O37 Si16 1.596343 1_555
O38 Si13 1.593126 1_555
O39 Si14 1.586360 1_555
O40 S5 1.468334 1_555
O41 S6 1.466849 1_555
O42 Si11 1.597316 1_555
O43 Si12 1.595806 1_555
O44 S3 1.464258 1_555
O45 S4 1.467169 1_555
O46 Si10 1.586186 1_555
O47 S2 1.464551 1_555
O48 S7 1.518757 1_555
O48 Ta6 2.173919 1_556
O49 Si17 1.658486 1_555
O49 Ta7 2.030022 1_556
O50 Si18 1.721611 1_555
O50 Ta6 1.863260 1_556
O51 Si19 1.704643 1_555
O51 Ta7 1.860306 1_556
O52 Si20 1.704575 1_555
O52 Ta6 1.955922 1_556
O53 Si21 1.677244 1_555
O53 Ta7 1.939012 1_556
O54 Si22 1.704633 1_555
O54 Ta8 1.903070 1_555
O55 S8 1.524318 1_555
O55 Ta9 2.173626 1_555
O56 Si23 1.708712 1_555
O56 Ta8 1.926498 1_555
O57 Si24 1.716214 1_555
O57 Ta9 1.942066 1_555
O58 Si25 1.723856 1_555
O58 Ta8 1.851587 1_555
O59 Si26 1.738842 1_555
O59 Ta9 1.846768 1_555
O60 Si25 1.641745 1_555
O60 Ta10 1.997078 1_555
O61 Si26 1.582966 1_555
O62 Si22 1.626663 1_555
O62 Ta10 1.930787 1_555
O63 S8 1.467899 1_555
O64 Si23 1.653761 1_555
O64 Ta10 1.968061 1_555
O65 Si24 1.594832 1_555
O66 Si18 1.586554 1_555
O67 Si19 1.660999 1_555
O67 Ta11 1.955298 1_555
O68 Si20 1.598756 1_555
O69 Si21 1.670373 1_555
O69 Ta11 1.942155 1_555
O70 S7 1.473387 1_555
O71 Si17 1.647898 1_555
O71 Ta11 1.906932 1_555
O72 Si25 1.606633 1_555
O73 Si26 1.659911 1_555
O73 Ta0 2.092905 1_565
O74 Si22 1.639735 1_555
O74 Ta0 2.091862 1_565
O75 S8 1.478239 1_555
O76 Si23 1.614701 1_555
O77 Si24 1.675049 1_555
O77 Ta0 2.071755 1_555
O78 Si18 1.664152 1_555
O78 Ta1 2.065550 1_545
O79 Si19 1.606182 1_555
O80 Si20 1.687981 1_555
O80 Ta1 2.032527 1_555
O81 Si21 1.611115 1_555
O82 S7 1.477607 1_555
O83 Si17 1.659168 1_555
O83 Ta1 2.038733 1_655
O84 Si10 1.614123 1_555
O85 S2 1.479623 1_555
O86 Si11 1.603458 1_555
O87 Si12 1.600173 1_555
O88 S3 1.451111 1_555
O89 S4 1.465436 1_555
O90 Si13 1.614250 1_555
O91 Si14 1.612550 1_555
O92 S5 1.458245 1_555
O93 S6 1.452726 1_555
O94 Si15 1.603819 1_555
O95 Si16 1.587897 1_555
O96 S1 1.560810 1_545
O96 Ta2 2.085703 1_555
O97 Si9 1.717955 1_545
O97 Ta3 1.932354 1_555
O98 Si5 1.703878 1_555
O98 Ta2 2.011475 1_555
O99 Si6 1.705089 1_555
O99 Ta3 1.873924 1_555
O100 Si8 1.718097 1_555
O100 Ta2 1.975476 1_555
O101 Si7 1.683090 1_655
O101 Ta3 1.945370 1_555
O102 Si2 1.695129 1_555
O102 Ta4 1.970010 1_555
O103 S0 1.552856 1_555
O103 Ta5 2.122843 1_555
O104 Si4 1.671144 1_555
O104 Ta4 1.981854 1_555
O105 Si3 1.705310 1_555
O105 Ta5 2.002545 1_555
O106 Si0 1.665006 1_555
O106 Ta4 1.976472 1_555
O107 Si1 1.702197 1_545
O107 Ta5 2.032957 1_555
O108 S7 1.481728 1_555
O109 Si17 1.594228 1_555
O110 Si19 1.610091 1_555
O111 Si18 1.600996 1_655
O112 Si20 1.615331 1_545
O113 Si21 1.606810 1_545
O114 Si22 1.588315 1_545
O115 S8 1.486468 1_545
O116 Si23 1.603822 1_555
O117 Si24 1.622737 1_555
O118 Si26 1.599931 1_555
O119 Si25 1.616916 1_655
O120 Si15 1.712097 1_555
O120 Ta6 1.981865 1_555
O121 Si16 1.690365 1_555
O121 Ta7 2.001091 1_555
O122 Si14 1.703727 1_455
O122 Ta6 1.928933 1_555
O123 Si13 1.702927 1_555
O123 Ta7 1.969338 1_555
O124 S5 1.541242 1_565
O124 Ta6 2.263943 1_555
O125 S6 1.503114 1_565
O125 Ta7 2.372762 1_555
O126 Si11 1.713514 1_565
O126 Ta8 1.991232 1_555
O127 Si12 1.704983 1_565
O127 Ta9 1.999894 1_555
O128 S3 1.526293 1_555
O128 Ta8 2.335091 1_555
O129 S4 1.527962 1_555
O129 Ta9 2.326666 1_555
O130 S2 1.517619 1_455
O130 Ta8 2.240854 1_555
O131 Si10 1.705898 1_555
O131 Ta9 1.928820 1_555
O132 Si0 1.673317 1_565
O132 Ta10 1.962780 1_555
O133 Si1 1.615894 1_555
O134 Si2 1.654785 1_555
O134 Ta10 1.991781 1_555
O135 S0 1.475969 1_555
O136 Si3 1.680225 1_455
O136 Ta10 2.017703 1_555
O137 Si4 1.627863 1_555
O138 Si5 1.616160 1_555
O139 Si6 1.654581 1_555
O139 Ta11 2.000493 1_555
O140 Si7 1.618365 1_555
O141 Si8 1.677912 1_555
O141 Ta11 2.056514 1_555
O142 S1 1.475939 1_555
O143 Si9 1.644622 1_555
O143 Ta11 2.044707 1_555
