# generated using pymatgen
data_Na10La4Zn4Si3(S3O16)3
_symmetry_space_group_name_H-M   'P 1'
_cell_length_a   18.90268048
_cell_length_b   9.43782327
_cell_length_c   23.69612698
_cell_angle_alpha   90.05183990
_cell_angle_beta   89.54425012
_cell_angle_gamma   120.28785303
_symmetry_Int_Tables_number   1
_chemical_formula_structural   Na10La4Zn4Si3(S3O16)3
_chemical_formula_sum   'Na30 La12 Zn12 Si9 S27 O144'
_cell_volume   3650.22510181
_cell_formula_units_Z   3
loop_
 _symmetry_equiv_pos_site_id
 _symmetry_equiv_pos_as_xyz
  1  'x, y, z'
loop_
 _atom_site_type_symbol
 _atom_site_label
 _atom_site_symmetry_multiplicity
 _atom_site_fract_x
 _atom_site_fract_y
 _atom_site_fract_z
 _atom_site_occupancy
  Na  Na0  1  0.19176015  0.36558898  0.24358241  1
  Na  Na1  1  0.69065756  0.36961218  0.24390355  1
  Na  Na2  1  0.99040162  0.63397531  0.25226015  1
  Na  Na3  1  0.49167372  0.62716646  0.25933183  1
  Na  Na4  1  0.32336524  0.64556152  0.74175096  1
  Na  Na5  1  0.82172929  0.64263085  0.74104473  1
  Na  Na6  1  0.99091173  0.34847700  0.75060161  1
  Na  Na7  1  0.19452785  0.01627460  0.73955824  1
  Na  Na8  1  0.69383479  0.01295929  0.74085170  1
  Na  Na9  1  0.52319203  0.70289916  0.57259792  1
  Na  Na10  1  0.32504196  0.96108772  0.58737960  1
  Na  Na11  1  0.82469540  0.95739258  0.58679211  1
  Na  Na12  1  0.15372063  0.97989395  0.07710739  1
  Na  Na13  1  0.65356059  0.97880764  0.07675056  1
  Na  Na14  1  0.32689414  0.68592603  0.09065977  1
  Na  Na15  1  0.82639005  0.68642474  0.09123943  1
  Na  Na16  1  0.65725675  0.01869531  0.42332274  1
  Na  Na17  1  0.35668173  0.67445014  0.41004467  1
  Na  Na18  1  0.01955993  0.00439381  0.49276996  1
  Na  Na19  1  0.51267458  0.01429830  0.49112412  1
  Na  Na20  1  0.01059788  0.02934613  0.99231607  1
  Na  Na21  1  0.51067848  0.02898740  0.99160750  1
  Na  Na22  1  0.34542198  0.32243995  0.82326004  1
  Na  Na23  1  0.83290196  0.31769618  0.82699688  1
  Na  Na24  1  0.34399729  0.33842602  0.32830666  1
  Na  Na25  1  0.83933182  0.34482139  0.32410606  1
  Na  Na26  1  0.17466095  0.65686574  0.15887697  1
  Na  Na27  1  0.67523571  0.65688674  0.16161066  1
  Na  Na28  1  0.16891091  0.67858598  0.65266572  1
  Na  Na29  1  0.66866745  0.66594903  0.65426302  1
  La  La0  1  0.00543735  0.99933694  0.64759787  1
  La  La1  1  0.50469699  0.01107210  0.65143635  1
  La  La2  1  0.99543045  0.00941077  0.15248256  1
  La  La3  1  0.49609343  0.00989520  0.15189591  1
  La  La4  1  0.33059517  0.33070964  0.98125592  1
  La  La5  1  0.83071451  0.33175562  0.98106705  1
  La  La6  1  0.32834911  0.32772079  0.48121164  1
  La  La7  1  0.83160423  0.34090739  0.48514448  1
  La  La8  1  0.17466518  0.67654299  0.31625872  1
  La  La9  1  0.67090945  0.66973274  0.32055163  1
  La  La10  1  0.17328085  0.68043596  0.82224776  1
  La  La11  1  0.66666300  0.67049944  0.81921504  1
  Zn  Zn0  1  0.98245725  0.96451602  0.34742877  1
  Zn  Zn1  1  0.49139402  0.95376642  0.34788573  1
  Zn  Zn2  1  0.98557177  0.00942414  0.84971153  1
  Zn  Zn3  1  0.48811932  0.01568429  0.84842099  1
  Zn  Zn4  1  0.33434813  0.26663801  0.67617912  1
  Zn  Zn5  1  0.83152016  0.27905531  0.67475529  1
  Zn  Zn6  1  0.32961188  0.37304656  0.17954333  1
  Zn  Zn7  1  0.82791167  0.37198357  0.17951160  1
  Zn  Zn8  1  0.16019229  0.61507135  0.01591765  1
  Zn  Zn9  1  0.65942670  0.61523830  0.01642674  1
  Zn  Zn10  1  0.15479317  0.69149789  0.51686375  1
  Zn  Zn11  1  0.66198474  0.70218738  0.51054923  1
  Si  Si0  1  0.35042679  0.68736000  0.24843805  1
  Si  Si1  1  0.85075799  0.68983107  0.24750778  1
  Si  Si2  1  0.35268044  0.00819917  0.74936668  1
  Si  Si3  1  0.85377521  0.00906580  0.74823108  1
  Si  Si4  1  0.18325487  0.01861595  0.58424352  1
  Si  Si5  1  0.68256000  0.01909739  0.58242880  1
  Si  Si6  1  0.18394890  0.33909774  0.08533828  1
  Si  Si7  1  0.68389438  0.33951822  0.08488758  1
  Si  Si8  1  0.51668934  0.67812274  0.41490834  1
  S  S0  1  0.14931142  0.01046106  0.25074935  1
  S  S1  1  0.65212029  0.01052841  0.25083442  1
  S  S2  1  0.99478206  0.29839022  0.25516266  1
  S  S3  1  0.49549860  0.29845956  0.25439986  1
  S  S4  1  0.15032534  0.29346004  0.75501542  1
  S  S5  1  0.65497552  0.29560089  0.75479363  1
  S  S6  1  0.99513022  0.69625112  0.75489040  1
  S  S7  1  0.49473482  0.69958189  0.75253352  1
  S  S8  1  0.48429770  0.34689583  0.58478455  1
  S  S9  1  0.98648380  0.34821402  0.58590543  1
  S  S10  1  0.32887602  0.63093089  0.58651338  1
  S  S11  1  0.82594593  0.63017441  0.58822110  1
  S  S12  1  0.48766258  0.62910159  0.08552926  1
  S  S13  1  0.98796685  0.62958682  0.08551148  1
  S  S14  1  0.32536301  0.02741339  0.08463464  1
  S  S15  1  0.82573250  0.02833788  0.08447058  1
  S  S16  1  0.32428675  0.68531644  0.91857988  1
  S  S17  1  0.82295536  0.68519938  0.91721676  1
  S  S18  1  0.01985957  0.35711773  0.91577449  1
  S  S19  1  0.51981701  0.35571155  0.91809301  1
  S  S20  1  0.15637700  0.96346348  0.91895126  1
  S  S21  1  0.65738843  0.96230651  0.91834487  1
  S  S22  1  0.32142928  0.95922585  0.42076664  1
  S  S23  1  0.82436471  0.96783725  0.42022696  1
  S  S24  1  0.15737549  0.36222873  0.41782667  1
  S  S25  1  0.66067034  0.35734001  0.41752399  1
  S  S26  1  0.02031595  0.68286375  0.41534490  1
  O  O0  1  0.10479911  0.03044050  0.29869534  1
  O  O1  1  0.60917198  0.02881238  0.30102339  1
  O  O2  1  0.40544200  0.78058777  0.30424611  1
  O  O3  1  0.91479183  0.78847099  0.29866813  1
  O  O4  1  0.49066558  0.19777686  0.30275664  1
  O  O5  1  0.99002300  0.19720171  0.30353707  1
  O  O6  1  0.10734314  0.18651125  0.80374232  1
  O  O7  1  0.60892751  0.19139720  0.80318162  1
  O  O8  1  0.48907322  0.79308993  0.80044361  1
  O  O9  1  0.98860251  0.78457551  0.80384484  1
  O  O10  1  0.40806900  0.02074186  0.80293691  1
  O  O11  1  0.91605978  0.04478038  0.80071040  1
  O  O12  1  0.38637610  0.97409350  0.68962362  1
  O  O13  1  0.88765081  0.97087035  0.68991034  1
  O  O14  1  0.10232230  0.22380546  0.70254736  1
  O  O15  1  0.61021848  0.22887067  0.70138668  1
  O  O16  1  0.01309832  0.79624225  0.70269728  1
  O  O17  1  0.50972352  0.79394941  0.69847803  1
  O  O18  1  0.38829977  0.78476011  0.18893034  1
  O  O19  1  0.88643180  0.78083549  0.18629427  1
  O  O20  1  0.01291479  0.23599457  0.20210545  1
  O  O21  1  0.51039128  0.23190333  0.20099207  1
  O  O22  1  0.10389061  0.98747761  0.19660794  1
  O  O23  1  0.60383094  0.99000326  0.19855173  1
  O  O24  1  0.44251714  0.36693041  0.63561814  1
  O  O25  1  0.94777093  0.36628358  0.63941684  1
  O  O26  1  0.23456005  0.09705971  0.64372026  1
  O  O27  1  0.73623320  0.10554826  0.64005830  1
  O  O28  1  0.32499214  0.53846633  0.63765178  1
  O  O29  1  0.82469090  0.54169639  0.64041618  1
  O  O30  1  0.44850272  0.53303500  0.13776665  1
  O  O31  1  0.94906314  0.53422035  0.13799745  1
  O  O32  1  0.32343360  0.11791036  0.13449154  1
  O  O33  1  0.82391909  0.11872973  0.13443199  1
  O  O34  1  0.23719038  0.37024597  0.14370863  1
  O  O35  1  0.73672459  0.37015983  0.14331102  1
  O  O36  1  0.23187008  0.31236925  0.03262789  1
  O  O37  1  0.73193528  0.31255345  0.03219943  1
  O  O38  1  0.43605440  0.54782795  0.03584493  1
  O  O39  1  0.93610174  0.54718608  0.03599812  1
  O  O40  1  0.33829353  0.12333357  0.03215701  1
  O  O41  1  0.83854566  0.12469825  0.03204566  1
  O  O42  1  0.23211177  0.13360336  0.53075985  1
  O  O43  1  0.72606290  0.12534007  0.52528085  1
  O  O44  1  0.34147111  0.55590415  0.53475021  1
  O  O45  1  0.83677681  0.55010448  0.53773693  1
  O  O46  1  0.43604651  0.32701399  0.53362661  1
  O  O47  1  0.93386991  0.32835336  0.53704710  1
  O  O48  1  0.27653763  0.69220820  0.96786008  1
  O  O49  1  0.77723077  0.69261170  0.96746564  1
  O  O50  1  0.07159185  0.45356909  0.96405797  1
  O  O51  1  0.56902959  0.44619018  0.96814269  1
  O  O52  1  0.15328669  0.86487774  0.96857557  1
  O  O53  1  0.65436420  0.86595904  0.96862795  1
  O  O54  1  0.27648935  0.85950583  0.47107877  1
  O  O55  1  0.78289639  0.86875397  0.47173558  1
  O  O56  1  0.15233945  0.45565805  0.46599942  1
  O  O57  1  0.65999866  0.45476104  0.46548104  1
  O  O58  1  0.07070741  0.69106294  0.46429701  1
  O  O59  1  0.57317087  0.70152401  0.47120531  1
  O  O60  1  0.05635046  0.66469409  0.36165576  1
  O  O61  1  0.55833501  0.66091413  0.35653670  1
  O  O62  1  0.27310978  0.88155825  0.36898074  1
  O  O63  1  0.77279895  0.89086621  0.36975719  1
  O  O64  1  0.16762104  0.45359829  0.36335213  1
  O  O65  1  0.67155700  0.44386868  0.36267037  1
  O  O66  1  0.05478493  0.44457805  0.86140734  1
  O  O67  1  0.55742639  0.44981284  0.86567763  1
  O  O68  1  0.16436485  0.88695364  0.86532988  1
  O  O69  1  0.66551898  0.88381194  0.86534876  1
  O  O70  1  0.27799648  0.66226946  0.86511165  1
  O  O71  1  0.77607542  0.66504263  0.86435998  1
  O  O72  1  0.01472130  0.83489008  0.41385090  1
  O  O73  1  0.51418036  0.85319512  0.41340669  1
  O  O74  1  0.40118050  0.96351503  0.41649056  1
  O  O75  1  0.90612450  0.98380465  0.41348989  1
  O  O76  1  0.08589066  0.19478797  0.41447393  1
  O  O77  1  0.58625960  0.19188403  0.41616979  1
  O  O78  1  0.01448768  0.19434828  0.91515858  1
  O  O79  1  0.51492256  0.19344003  0.91546774  1
  O  O80  1  0.08250249  0.97884323  0.91608778  1
  O  O81  1  0.58371859  0.97826751  0.91514133  1
  O  O82  1  0.40527254  0.83765407  0.91559131  1
  O  O83  1  0.90467404  0.83764204  0.91389421  1
  O  O84  1  0.48941226  0.19468990  0.58871464  1
  O  O85  1  0.98946858  0.19340288  0.58843247  1
  O  O86  1  0.09084786  0.99217298  0.58424046  1
  O  O87  1  0.58785347  0.98316165  0.58511961  1
  O  O88  1  0.40410957  0.80221222  0.58739360  1
  O  O89  1  0.89767748  0.80269623  0.58690416  1
  O  O90  1  0.49535862  0.79627268  0.08835570  1
  O  O91  1  0.99582967  0.79679716  0.08800958  1
  O  O92  1  0.39386886  0.98902876  0.08574273  1
  O  O93  1  0.89444397  0.99064303  0.08542108  1
  O  O94  1  0.09426256  0.16880176  0.08598125  1
  O  O95  1  0.59452383  0.16867424  0.08549478  1
  O  O96  1  0.33943524  0.16878607  0.74730409  1
  O  O97  1  0.84615507  0.17843463  0.74424365  1
  O  O98  1  0.23394590  0.31728903  0.74942650  1
  O  O99  1  0.73715587  0.30853666  0.75122866  1
  O  O100  1  0.41820941  0.53878454  0.74823086  1
  O  O101  1  0.91767552  0.53455217  0.74881242  1
  O  O102  1  0.34703310  0.50679558  0.24782106  1
  O  O103  1  0.84669730  0.50766743  0.24722434  1
  O  O104  1  0.42232763  0.31633421  0.24937383  1
  O  O105  1  0.92086344  0.31281589  0.24958212  1
  O  O106  1  0.23254981  0.15639039  0.24673298  1
  O  O107  1  0.73409098  0.16028675  0.24662037  1
  O  O108  1  0.33470222  0.53931173  0.92188185  1
  O  O109  1  0.83352959  0.53889206  0.91976157  1
  O  O110  1  0.43674027  0.33476564  0.92175549  1
  O  O111  1  0.93705900  0.33752653  0.92061776  1
  O  O112  1  0.23277861  0.12896896  0.91926464  1
  O  O113  1  0.73400478  0.12869600  0.91812083  1
  O  O114  1  0.33428595  0.12733561  0.42150438  1
  O  O115  1  0.83117708  0.13279725  0.42352157  1
  O  O116  1  0.23589849  0.35681976  0.42015072  1
  O  O117  1  0.73344408  0.32924750  0.41935038  1
  O  O118  1  0.42158450  0.52571196  0.41774519  1
  O  O119  1  0.93690379  0.53471232  0.41995738  1
  O  O120  1  0.18274517  0.51350562  0.07804369  1
  O  O121  1  0.68300338  0.51408144  0.07798921  1
  O  O122  1  0.07214963  0.65498322  0.07870972  1
  O  O123  1  0.57199282  0.65540769  0.07883384  1
  O  O124  1  0.24643320  0.86621571  0.08111395  1
  O  O125  1  0.74686500  0.86713086  0.08097197  1
  O  O126  1  0.18281395  0.84223042  0.57876584  1
  O  O127  1  0.67930732  0.83888983  0.57903016  1
  O  O128  1  0.25565875  0.64903953  0.58170668  1
  O  O129  1  0.75037004  0.64038937  0.58377924  1
  O  O130  1  0.06898086  0.49286273  0.57976352  1
  O  O131  1  0.56631326  0.49552985  0.58145228  1
  O  O132  1  0.15320103  0.85578125  0.25583018  1
  O  O133  1  0.65814116  0.85923653  0.25434266  1
  O  O134  1  0.25452408  0.64857225  0.25139937  1
  O  O135  1  0.75585847  0.65284703  0.25281162  1
  O  O136  1  0.06749336  0.47165242  0.25888100  1
  O  O137  1  0.57018671  0.46964366  0.25638617  1
  O  O138  1  0.15825008  0.46089300  0.75971054  1
  O  O139  1  0.67007025  0.46806407  0.75845316  1
  O  O140  1  0.06500284  0.66224024  0.75936561  1
  O  O141  1  0.56841092  0.67870241  0.75698231  1
  O  O142  1  0.25777537  0.84217411  0.75390775  1
  O  O143  1  0.75940165  0.84903560  0.75568818  1
loop_
_geom_bond_atom_site_label_1
_geom_bond_atom_site_label_2
_geom_bond_distance
_geom_bond_site_symmetry_2
Na0 O134 2.319749 1_555
Na0 O106 2.456616 1_555
Na0 O34 2.504011 1_555
Na0 O102 2.541600 1_555
Na1 O135 2.321435 1_555
Na1 O107 2.493638 1_555
Na1 O35 2.530330 1_555
Na1 O103 2.555544 1_555
Na1 O137 2.884763 1_555
Na1 O65 2.962662 1_555
Na2 O103 2.356419 1_555
Na2 O136 2.598276 1_655
Na2 O105 2.627022 1_555
Na2 O132 2.713895 1_655
Na2 O3 2.729878 1_555
Na2 O60 2.836081 1_655
Na2 O31 2.848676 1_555
Na3 O102 2.391346 1_555
Na3 O104 2.550427 1_555
Na3 O61 2.575813 1_555
Na3 O137 2.577082 1_555
Na3 O133 2.784852 1_555
Na3 O2 2.869943 1_555
Na3 O30 3.009098 1_555
Na4 O100 2.465833 1_555
Na4 O28 2.670773 1_555
Na4 O98 2.683778 1_555
Na4 O142 2.716125 1_555
Na4 O138 2.730079 1_555
Na4 O12 2.969286 1_555
Na5 O101 2.497062 1_555
Na5 O139 2.514189 1_555
Na5 O29 2.577599 1_555
Na5 O99 2.732544 1_555
Na5 O143 2.758713 1_555
Na5 O13 2.950713 1_555
Na6 O97 2.379525 1_555
Na6 O140 2.567827 1_655
Na6 O101 2.730499 1_555
Na6 O11 2.741511 1_555
Na6 O138 2.793388 1_655
Na6 O25 2.794250 1_555
Na6 O66 2.848866 1_655
Na7 O96 2.374654 1_555
Na7 O26 2.388546 1_555
Na7 O142 2.496761 1_545
Na7 O98 2.558727 1_555
Na8 O143 2.448503 1_545
Na8 O97 2.490655 1_555
Na8 O99 2.492126 1_555
Na8 O27 2.525338 1_555
Na8 O141 2.857000 1_545
Na9 O87 2.306867 1_555
Na9 O131 2.480182 1_555
Na9 O127 2.562283 1_555
Na9 O59 2.577099 1_555
Na9 O88 2.860660 1_555
Na10 O126 2.343984 1_555
Na10 O128 2.552946 1_555
Na10 O88 2.596660 1_555
Na10 O12 2.670155 1_555
Na10 O84 2.758118 1_565
Na10 O54 2.916203 1_555
Na10 O26 2.920442 1_565
Na11 O127 2.396816 1_555
Na11 O89 2.463025 1_555
Na11 O129 2.586754 1_555
Na11 O13 2.701121 1_555
Na11 O85 2.769085 1_565
Na11 O55 2.849694 1_555
Na11 O27 2.943834 1_565
Na12 O124 2.476043 1_555
Na12 O94 2.550067 1_565
Na12 O91 2.597452 1_455
Na12 O122 2.648027 1_555
Na12 O52 2.789042 1_554
Na12 O36 2.905992 1_565
Na12 O22 2.989326 1_555
Na13 O125 2.471763 1_555
Na13 O95 2.551866 1_565
Na13 O90 2.603354 1_555
Na13 O123 2.635861 1_555
Na13 O53 2.776617 1_554
Na13 O37 2.916314 1_565
Na13 O23 3.046560 1_555
Na14 O120 2.387779 1_555
Na14 O92 2.478864 1_555
Na14 O18 2.566487 1_555
Na14 O124 2.806459 1_555
Na14 O90 2.807189 1_555
Na14 O34 2.865117 1_555
Na15 O121 2.378275 1_555
Na15 O19 2.484446 1_555
Na15 O93 2.487916 1_555
Na15 O125 2.796449 1_555
Na15 O91 2.824923 1_555
Na15 O35 2.859186 1_555
Na16 O73 2.357493 1_545
Na16 O117 2.532580 1_555
Na16 O77 2.591956 1_555
Na16 O43 2.695720 1_555
Na16 O59 2.820012 1_545
Na16 O115 2.897744 1_555
Na17 O118 2.291322 1_555
Na17 O74 2.420786 1_555
Na17 O73 2.579369 1_555
Na17 O2 2.678538 1_555
Na17 O116 2.710234 1_555
Na18 O72 2.431966 1_545
Na18 O76 2.437125 1_555
Na18 O86 2.594394 1_545
Na18 O75 2.794260 1_445
Na19 O77 2.347976 1_555
Na19 O73 2.396220 1_545
Na19 O74 2.614954 1_545
Na19 O87 2.745832 1_545
Na20 O78 2.379241 1_555
Na20 O80 2.439305 1_545
Na20 O94 2.666560 1_556
Na20 O83 2.671091 1_445
Na20 O93 2.989489 1_446
Na21 O79 2.355364 1_555
Na21 O81 2.458412 1_545
Na21 O82 2.626282 1_545
Na21 O95 2.672584 1_556
Na22 O96 2.277773 1_555
Na22 O100 2.521300 1_555
Na22 O98 2.731080 1_555
Na22 O110 2.881248 1_555
Na22 O112 3.008642 1_555
Na23 O97 2.440309 1_555
Na23 O99 2.529855 1_555
Na23 O101 2.615431 1_555
Na23 O113 2.813931 1_555
Na23 O111 2.920611 1_555
Na23 O109 3.026103 1_555
Na24 O104 2.449662 1_555
Na24 O102 2.465261 1_555
Na24 O118 2.682291 1_555
Na24 O106 2.744823 1_555
Na24 O114 2.917611 1_555
Na24 O116 3.037813 1_555
Na25 O103 2.342142 1_555
Na25 O105 2.451581 1_555
Na25 O107 2.630499 1_555
Na25 O119 2.915049 1_555
Na25 O117 2.958637 1_555
Na25 O115 3.044533 1_555
Na26 O120 2.392088 1_555
Na26 O124 2.530389 1_555
Na26 O134 2.695175 1_555
Na26 O122 2.718014 1_555
Na27 O121 2.440196 1_555
Na27 O125 2.584082 1_555
Na27 O135 2.665621 1_555
Na27 O123 2.773017 1_555
Na27 O137 2.916549 1_555
Na27 O133 3.030449 1_555
Na28 O126 2.260318 1_555
Na28 O128 2.451612 1_555
Na28 O130 2.516234 1_555
Na28 O142 2.898651 1_555
Na29 O127 2.356063 1_555
Na29 O129 2.359433 1_555
Na29 O131 2.493230 1_555
Na29 O143 2.961815 1_555
La0 O86 2.221820 1_555
La0 O13 2.322992 1_455
La0 O14 2.378420 1_565
La0 O16 2.384787 1_555
La0 O89 2.427025 1_455
La0 O85 2.445475 1_465
La1 O12 2.263616 1_545
La1 O87 2.321047 1_545
La1 O15 2.345695 1_555
La1 O17 2.377580 1_545
La1 O84 2.410831 1_555
La1 O88 2.462469 1_545
La2 O19 2.243724 1_545
La2 O20 2.313792 1_655
La2 O94 2.314951 1_655
La2 O22 2.408729 1_645
La2 O93 2.430484 1_545
La2 O91 2.523912 1_545
La3 O18 2.245993 1_545
La3 O21 2.290431 1_555
La3 O95 2.308347 1_555
La3 O23 2.413878 1_545
La3 O92 2.427696 1_545
La3 O90 2.509696 1_545
La4 O36 2.152399 1_556
La4 O40 2.366620 1_556
La4 O112 2.385137 1_555
La4 O108 2.389681 1_555
La4 O38 2.400406 1_556
La4 O110 2.427496 1_555
La5 O37 2.147184 1_556
La5 O41 2.366190 1_556
La5 O113 2.396619 1_555
La5 O39 2.397413 1_556
La5 O109 2.415338 1_555
La5 O111 2.437122 1_555
La6 O42 2.156940 1_555
La6 O118 2.345326 1_555
La6 O46 2.396035 1_555
La6 O116 2.397498 1_555
La6 O44 2.402095 1_555
La6 O114 2.407839 1_555
La7 O43 2.214268 1_555
La7 O45 2.294243 1_555
La7 O47 2.352157 1_555
La7 O117 2.392778 1_555
La7 O115 2.443161 1_555
La7 O119 2.444863 1_555
La8 O134 2.252741 1_555
La8 O62 2.273359 1_555
La8 O64 2.325856 1_555
La8 O136 2.404059 1_555
La8 O132 2.404688 1_555
La8 O60 2.425110 1_555
La9 O61 2.248302 1_555
La9 O135 2.323171 1_555
La9 O63 2.324092 1_555
La9 O65 2.360215 1_555
La9 O137 2.432506 1_555
La9 O133 2.482931 1_555
La10 O142 2.237765 1_555
La10 O68 2.279146 1_555
La10 O70 2.313813 1_555
La10 O66 2.403031 1_555
La10 O138 2.444844 1_555
La10 O140 2.476380 1_555
La11 O143 2.271877 1_555
La11 O69 2.299584 1_555
La11 O67 2.333196 1_555
La11 O71 2.359486 1_555
La11 O141 2.412211 1_555
La11 O139 2.417664 1_555
O0 S0 1.476060 1_555
O0 Zn0 2.361395 1_445
O1 S1 1.492928 1_555
O1 Zn1 2.250069 1_545
O2 Si0 1.643558 1_555
O2 Zn1 1.930163 1_555
O3 Si1 1.638937 1_555
O3 Zn0 1.899471 1_555
O4 S3 1.461858 1_555
O4 Zn1 2.546355 1_545
O5 S2 1.465528 1_555
O5 Zn0 2.368497 1_545
O6 S4 1.473805 1_555
O6 Zn2 2.315405 1_455
O7 S5 1.470456 1_555
O7 Zn3 2.293139 1_555
O8 S7 1.473320 1_555
O8 Zn3 2.395781 1_565
O9 S6 1.468160 1_555
O9 Zn2 2.409408 1_565
O10 Si2 1.617855 1_555
O10 Zn3 1.884804 1_555
O11 Si3 1.633533 1_555
O11 Zn2 1.911365 1_555
O12 Si2 1.644712 1_565
O13 Si3 1.633308 1_565
O14 S4 1.488643 1_555
O15 S5 1.480583 1_555
O16 S6 1.485819 1_455
O17 S7 1.501987 1_555
O18 Si0 1.633522 1_555
O19 Si1 1.642836 1_555
O20 S2 1.496777 1_455
O21 S3 1.498904 1_555
O22 S0 1.503099 1_565
O23 S1 1.498263 1_565
O24 S8 1.498508 1_555
O24 Zn4 2.004657 1_555
O25 S9 1.511014 1_555
O25 Zn5 2.086852 1_555
O26 Si4 1.664505 1_555
O26 Zn4 1.920096 1_555
O27 Si5 1.656787 1_555
O27 Zn5 1.909907 1_555
O28 S10 1.473507 1_555
O29 S11 1.486271 1_555
O30 S12 1.487503 1_555
O30 Zn6 2.203401 1_555
O31 S13 1.489144 1_555
O31 Zn7 2.233069 1_555
O32 S14 1.468148 1_555
O33 S15 1.468871 1_555
O33 Zn7 2.583480 1_555
O34 Si6 1.653894 1_555
O34 Zn6 1.936694 1_555
O35 Si7 1.651500 1_555
O35 Zn7 1.923742 1_555
O36 Si6 1.629780 1_555
O37 Si7 1.631771 1_555
O38 S12 1.479181 1_555
O39 S13 1.479905 1_555
O40 S14 1.483109 1_555
O41 S15 1.484599 1_555
O42 Si4 1.615469 1_555
O43 Si5 1.633546 1_555
O44 S10 1.492118 1_555
O45 S11 1.481414 1_555
O46 S8 1.476881 1_555
O47 S9 1.481395 1_555
O48 S16 1.491591 1_555
O48 Zn8 2.238336 1_556
O49 S17 1.488012 1_555
O49 Zn9 2.271163 1_556
O50 S18 1.487259 1_555
O50 Zn8 2.023049 1_556
O51 S19 1.488476 1_555
O51 Zn9 2.013015 1_556
O52 S20 1.482543 1_555
O53 S21 1.482654 1_555
O54 S22 1.486003 1_555
O54 Zn10 2.295041 1_555
O55 S23 1.492021 1_555
O55 Zn11 2.210416 1_555
O56 S24 1.473342 1_555
O56 Zn10 2.510183 1_555
O57 S25 1.465124 1_555
O58 S26 1.483886 1_555
O58 Zn10 2.025550 1_555
O59 Si8 1.659080 1_555
O59 Zn11 1.924044 1_555
O60 S26 1.488477 1_555
O61 Si8 1.634170 1_555
O62 S22 1.489383 1_555
O63 S23 1.486883 1_555
O64 S24 1.508959 1_555
O65 S25 1.492291 1_555
O66 S18 1.488489 1_555
O67 S19 1.479156 1_555
O68 S20 1.504641 1_555
O69 S21 1.503184 1_555
O70 S16 1.497790 1_555
O71 S17 1.495795 1_555
O72 S26 1.491404 1_555
O72 Zn0 2.262142 1_455
O73 Si8 1.677139 1_555
O73 Zn1 1.980578 1_555
O74 S22 1.490141 1_555
O74 Zn1 2.381831 1_555
O75 S23 1.482530 1_555
O75 Zn0 2.189529 1_555
O76 S24 1.475481 1_555
O77 S25 1.484251 1_555
O78 S18 1.487629 1_555
O78 Zn2 2.190028 1_455
O79 S19 1.488250 1_555
O79 Zn3 2.178503 1_555
O80 S20 1.477044 1_555
O80 Zn2 2.548414 1_465
O81 S21 1.476809 1_555
O81 Zn3 2.565151 1_565
O82 S16 1.481208 1_555
O82 Zn3 2.262755 1_565
O83 S17 1.489561 1_555
O83 Zn2 2.178684 1_565
O84 S8 1.490638 1_555
O85 S9 1.491606 1_555
O86 Si4 1.635137 1_565
O87 Si5 1.646124 1_565
O88 S10 1.522349 1_555
O89 S11 1.504364 1_555
O90 S12 1.511070 1_555
O91 S13 1.509762 1_555
O92 S14 1.510814 1_565
O93 S15 1.510164 1_565
O94 Si6 1.645811 1_555
O95 Si7 1.644994 1_555
O96 Si2 1.656856 1_555
O96 Zn4 1.948747 1_555
O97 Si3 1.678549 1_555
O97 Zn5 1.991160 1_555
O98 S4 1.484835 1_555
O99 S5 1.497269 1_555
O100 S7 1.481102 1_555
O101 S6 1.497489 1_555
O102 Si0 1.672754 1_555
O102 Zn6 1.976104 1_555
O103 Si1 1.681832 1_555
O103 Zn7 1.971577 1_555
O104 S3 1.481114 1_555
O105 S2 1.477571 1_555
O106 S0 1.481074 1_555
O106 Zn6 2.501484 1_555
O107 S1 1.482314 1_555
O107 Zn7 2.460201 1_555
O108 S16 1.489217 1_555
O109 S17 1.492984 1_555
O110 S19 1.482367 1_555
O111 S18 1.484026 1_655
O112 S20 1.500111 1_545
O113 S21 1.506433 1_545
O114 S22 1.479095 1_545
O115 S23 1.498071 1_545
O116 S24 1.512120 1_555
O117 S25 1.527532 1_555
O118 Si8 1.641742 1_555
O119 S26 1.492242 1_655
O120 Si6 1.666784 1_555
O120 Zn8 1.921594 1_555
O121 Si7 1.664263 1_555
O121 Zn9 1.918379 1_555
O122 S13 1.492269 1_455
O122 Zn8 2.391119 1_555
O123 S12 1.491546 1_555
O123 Zn9 2.377866 1_555
O124 S14 1.503226 1_565
O125 S15 1.502671 1_565
O126 Si4 1.665461 1_565
O126 Zn10 1.924697 1_555
O127 Si5 1.672491 1_565
O127 Zn11 1.995887 1_555
O128 S10 1.482828 1_555
O129 S11 1.484105 1_555
O130 S9 1.471744 1_455
O130 Zn10 2.294865 1_555
O131 S8 1.477196 1_555
O131 Zn11 2.509405 1_555
O132 S0 1.503250 1_565
O133 S1 1.490956 1_565
O134 Si0 1.659481 1_555
O135 Si1 1.649381 1_555
O136 S2 1.518359 1_455
O137 S3 1.518476 1_555
O138 S4 1.514277 1_555
O139 S5 1.506633 1_555
O140 S6 1.512834 1_455
O141 S7 1.506215 1_555
O142 Si2 1.687282 1_565
O143 Si3 1.665063 1_565
