# generated using pymatgen
data_Na3InSi3Sn3(SO8)3
_symmetry_space_group_name_H-M   'P 1'
_cell_length_a   8.90745048
_cell_length_b   8.94073959
_cell_length_c   23.08198698
_cell_angle_alpha   89.72565267
_cell_angle_beta   90.25163415
_cell_angle_gamma   120.13242099
_symmetry_Int_Tables_number   1
_chemical_formula_structural   Na3InSi3Sn3(SO8)3
_chemical_formula_sum   'Na9 In3 Si9 Sn9 S9 O72'
_cell_volume   1589.80370888
_cell_formula_units_Z   3
loop_
 _symmetry_equiv_pos_site_id
 _symmetry_equiv_pos_as_xyz
  1  'x, y, z'
loop_
 _atom_site_type_symbol
 _atom_site_label
 _atom_site_symmetry_multiplicity
 _atom_site_fract_x
 _atom_site_fract_y
 _atom_site_fract_z
 _atom_site_occupancy
  Na  Na0  1  0.35830178  0.36067519  0.24512301  1
  Na  Na1  1  0.63475572  0.62374526  0.75424258  1
  Na  Na2  1  0.96707250  0.28729018  0.41665295  1
  Na  Na3  1  0.99639900  0.00753937  0.49776591  1
  Na  Na4  1  0.00001718  0.99137813  0.00343711  1
  Na  Na5  1  0.66443981  0.34160384  0.83156888  1
  Na  Na6  1  0.66763204  0.32141872  0.33198703  1
  Na  Na7  1  0.31392204  0.65513696  0.16248048  1
  Na  Na8  1  0.30382525  0.64820943  0.66727905  1
  In  In0  1  0.99414416  0.00772930  0.35373495  1
  In  In1  1  0.67662964  0.33865840  0.68648675  1
  In  In2  1  0.68626319  0.34620121  0.18003953  1
  Si  Si0  1  0.99496664  0.29639026  0.25091819  1
  Si  Si1  1  0.29122461  0.28916142  0.75163755  1
  Si  Si2  1  0.00538707  0.71410892  0.74946570  1
  Si  Si3  1  0.96178545  0.33284248  0.58269497  1
  Si  Si4  1  0.96974471  0.63643115  0.08263658  1
  Si  Si5  1  0.37402393  0.33208615  0.08575468  1
  Si  Si6  1  0.62695686  0.67265311  0.91525417  1
  Si  Si7  1  0.61697854  0.95062568  0.41760597  1
  Si  Si8  1  0.34011785  0.37231054  0.41704601  1
  Sn  Sn0  1  0.00192167  0.99095209  0.85209051  1
  Sn  Sn1  1  0.01216499  0.01438869  0.64845823  1
  Sn  Sn2  1  0.01070581  0.01029351  0.14527943  1
  Sn  Sn3  1  0.66347978  0.35755073  0.98407552  1
  Sn  Sn4  1  0.66060509  0.31773128  0.48071532  1
  Sn  Sn5  1  0.33862106  0.65904057  0.02097553  1
  Sn  Sn6  1  0.33088087  0.65414508  0.51760456  1
  Sn  Sn7  1  0.33666135  0.66137203  0.31638924  1
  Sn  Sn8  1  0.32311475  0.65460585  0.81379886  1
  S  S0  1  0.29156127  0.99380598  0.25117236  1
  S  S1  1  0.70936002  0.71102224  0.25025169  1
  S  S2  1  0.70801439  0.99884284  0.75095855  1
  S  S3  1  0.37004027  0.03427372  0.58352125  1
  S  S4  1  0.66942767  0.63052698  0.58322035  1
  S  S5  1  0.66607428  0.04212289  0.08114283  1
  S  S6  1  0.03287240  0.36795338  0.91721758  1
  S  S7  1  0.33925157  0.95992060  0.91745355  1
  S  S8  1  0.04113702  0.66789675  0.41706821  1
  O  O0  1  0.20958631  0.01781524  0.30300005  1
  O  O1  1  0.81354085  0.78620568  0.30276424  1
  O  O2  1  0.97353045  0.19554320  0.31124949  1
  O  O3  1  0.20196085  0.17752538  0.81066045  1
  O  O4  1  0.95684709  0.78988854  0.80603431  1
  O  O5  1  0.81548557  0.02799847  0.80364529  1
  O  O6  1  0.78271261  0.96414643  0.69861003  1
  O  O7  1  0.17335193  0.21679775  0.69352004  1
  O  O8  1  0.03135889  0.82921044  0.69041708  1
  O  O9  1  0.79114395  0.81514007  0.19741491  1
  O  O10  1  0.04177817  0.20601433  0.19597178  1
  O  O11  1  0.18381429  0.96324556  0.19801866  1
  O  O12  1  0.87716136  0.36315799  0.63899693  1
  O  O13  1  0.47308820  0.11300802  0.63570849  1
  O  O14  1  0.63659709  0.52767545  0.63687651  1
  O  O15  1  0.90470821  0.52101524  0.13993005  1
  O  O16  1  0.63501510  0.11156271  0.13446685  1
  O  O17  1  0.47744696  0.35806729  0.14654849  1
  O  O18  1  0.45163323  0.28862640  0.02761402  1
  O  O19  1  0.85417482  0.55381789  0.02340320  1
  O  O20  1  0.69568184  0.15070189  0.02878674  1
  O  O21  1  0.44658812  0.14469770  0.53079168  1
  O  O22  1  0.69226575  0.54594237  0.53169404  1
  O  O23  1  0.85003511  0.30630372  0.52189786  1
  O  O24  1  0.53583829  0.70327199  0.97127470  1
  O  O25  1  0.14317598  0.44962907  0.96875567  1
  O  O26  1  0.30734071  0.85002878  0.96916243  1
  O  O27  1  0.52695309  0.84160678  0.47667424  1
  O  O28  1  0.28718867  0.45354707  0.47102276  1
  O  O29  1  0.14707368  0.69769092  0.47001067  1
  O  O30  1  0.11606928  0.63135845  0.36499537  1
  O  O31  1  0.49693604  0.87220908  0.35923319  1
  O  O32  1  0.37332128  0.48290932  0.35642860  1
  O  O33  1  0.10662199  0.47770343  0.86436564  1
  O  O34  1  0.35982463  0.87955850  0.86401271  1
  O  O35  1  0.51230753  0.64321126  0.85566819  1
  O  O36  1  0.02179615  0.81876004  0.40999051  1
  O  O37  1  0.80826576  0.97074825  0.41611787  1
  O  O38  1  0.16985202  0.18149575  0.41427135  1
  O  O39  1  0.02218560  0.19875216  0.91067414  1
  O  O40  1  0.18316894  0.98125870  0.91317319  1
  O  O41  1  0.82112893  0.84977015  0.91152555  1
  O  O42  1  0.97643052  0.15405105  0.58657475  1
  O  O43  1  0.19418571  0.01482385  0.58624451  1
  O  O44  1  0.82712426  0.80318207  0.58785655  1
  O  O45  1  0.97303426  0.82149582  0.09034915  1
  O  O46  1  0.82112258  0.02187568  0.08687779  1
  O  O47  1  0.17909162  0.16389532  0.08621477  1
  O  O48  1  0.68614065  0.14892084  0.74587954  1
  O  O49  1  0.48364768  0.31247449  0.74574085  1
  O  O50  1  0.83261033  0.52501383  0.74715625  1
  O  O51  1  0.67752634  0.53279374  0.24681635  1
  O  O52  1  0.82282820  0.31318803  0.24616723  1
  O  O53  1  0.46152216  0.15326708  0.24556944  1
  O  O54  1  0.64298070  0.49586638  0.91831633  1
  O  O55  1  0.85731065  0.34476748  0.92344934  1
  O  O56  1  0.49874103  0.13127570  0.92239697  1
  O  O57  1  0.65019479  0.15061096  0.42037832  1
  O  O58  1  0.52147123  0.36998938  0.42593858  1
  O  O59  1  0.86975813  0.50725637  0.42299193  1
  O  O60  1  0.36234639  0.50800413  0.07901559  1
  O  O61  1  0.16593797  0.66613397  0.07237562  1
  O  O62  1  0.51032394  0.86863147  0.07496091  1
  O  O63  1  0.35412003  0.86287973  0.57678453  1
  O  O64  1  0.51405938  0.65169363  0.57789465  1
  O  O65  1  0.15596645  0.51101581  0.57730245  1
  O  O66  1  0.31054528  0.83816433  0.25561820  1
  O  O67  1  0.53485323  0.69859728  0.25320558  1
  O  O68  1  0.18268151  0.49025792  0.25460196  1
  O  O69  1  0.32142146  0.48773141  0.75549451  1
  O  O70  1  0.18419242  0.70481759  0.75732742  1
  O  O71  1  0.53682659  0.83843326  0.75658335  1
loop_
_geom_bond_atom_site_label_1
_geom_bond_atom_site_label_2
_geom_bond_distance
_geom_bond_site_symmetry_2
Na0 O68 2.379565 1_555
Na0 O53 2.448616 1_555
Na0 O51 2.461984 1_555
Na0 O17 2.519998 1_555
Na0 O67 2.620788 1_555
Na0 O10 2.687193 1_555
Na0 O32 2.773063 1_555
Na1 O50 2.340470 1_555
Na1 O49 2.416047 1_555
Na1 O69 2.421183 1_555
Na1 O71 2.476014 1_555
Na1 O35 2.630134 1_555
Na1 O4 2.752266 1_555
Na1 O14 2.848467 1_555
Na1 O6 2.932363 1_555
Na2 O38 2.424241 1_655
Na2 O37 2.447754 1_545
Na2 O57 2.450660 1_555
Na2 O59 2.521107 1_555
Na2 O2 2.581279 1_555
Na2 O23 2.687221 1_555
Na2 O28 2.765148 1_655
Na2 O30 2.919936 1_655
Na3 O37 2.427537 1_545
Na3 O38 2.470849 1_655
Na3 O42 2.492470 1_555
Na3 O43 2.670842 1_655
Na3 O44 2.676043 1_545
Na3 O36 2.724860 1_645
Na4 O45 2.449026 1_455
Na4 O47 2.470907 1_565
Na4 O41 2.571636 1_454
Na4 O46 2.605990 1_465
Na4 O40 2.681493 1_554
Na4 O39 2.767535 1_564
Na5 O49 2.478250 1_555
Na5 O54 2.498500 1_555
Na5 O50 2.501608 1_555
Na5 O48 2.699535 1_555
Na5 O56 2.704213 1_555
Na5 O55 2.714735 1_555
Na6 O52 2.442942 1_555
Na6 O57 2.500742 1_555
Na6 O53 2.614378 1_555
Na6 O58 2.681007 1_555
Na6 O51 2.691247 1_555
Na6 O59 2.722389 1_555
Na7 O61 2.485330 1_555
Na7 O60 2.495861 1_555
Na7 O68 2.514492 1_555
Na7 O66 2.717359 1_555
Na7 O62 2.725140 1_555
Na7 O67 2.759153 1_555
Na8 O65 2.435333 1_555
Na8 O70 2.506566 1_555
Na8 O69 2.534613 1_555
Na8 O63 2.711836 1_555
Na8 O64 2.781943 1_555
Na8 O71 2.810894 1_555
In0 O2 2.026645 1_555
In0 O38 2.091886 1_655
In0 O37 2.095424 1_545
In0 O1 2.168316 1_545
In0 O0 2.215224 1_655
In0 O36 2.235001 1_645
In1 O12 2.015495 1_555
In1 O50 2.085324 1_555
In1 O49 2.119871 1_555
In1 O14 2.208453 1_555
In1 O48 2.210273 1_555
In1 O13 2.250032 1_555
In2 O15 2.008649 1_555
In2 O52 2.058275 1_555
In2 O17 2.062336 1_555
In2 O16 2.184325 1_555
In2 O51 2.306721 1_555
In2 O53 2.409456 1_555
O0 S0 1.475756 1_545
O1 S1 1.467588 1_555
O2 Si0 1.614351 1_555
O3 Si1 1.638345 1_555
O3 Sn0 1.971678 1_545
O4 Si2 1.630466 1_655
O4 Sn0 1.952637 1_655
O5 S2 1.485116 1_545
O5 Sn0 2.156461 1_645
O6 S2 1.488906 1_555
O6 Sn1 2.193884 1_665
O7 Si1 1.623094 1_555
O7 Sn1 1.953064 1_555
O8 Si2 1.649400 1_555
O8 Sn1 1.993917 1_565
O9 S1 1.483475 1_555
O9 Sn2 2.211775 1_665
O10 Si0 1.669736 1_455
O10 Sn2 2.009553 1_555
O11 S0 1.493528 1_555
O11 Sn2 2.160154 1_565
O12 Si3 1.596126 1_555
O13 S3 1.462453 1_555
O14 S4 1.478942 1_555
O15 Si4 1.594606 1_555
O16 S5 1.469582 1_555
O17 Si5 1.627464 1_555
O18 Si5 1.647021 1_555
O18 Sn3 1.947750 1_554
O19 Si4 1.645753 1_555
O19 Sn3 1.948754 1_554
O20 S5 1.485567 1_555
O20 Sn3 2.253726 1_554
O21 S3 1.496958 1_555
O21 Sn4 2.098750 1_555
O22 S4 1.480877 1_555
O22 Sn4 2.251582 1_555
O23 Si3 1.664401 1_555
O23 Sn4 1.979700 1_555
O24 Si6 1.625237 1_555
O24 Sn5 1.968329 1_556
O25 S6 1.480358 1_555
O25 Sn5 2.172498 1_556
O26 S7 1.477171 1_555
O26 Sn5 2.208833 1_556
O27 Si7 1.632215 1_555
O27 Sn6 1.952527 1_555
O28 Si8 1.630853 1_555
O28 Sn6 1.959117 1_555
O29 S8 1.481666 1_555
O29 Sn6 2.158496 1_555
O30 S8 1.492183 1_555
O30 Sn7 2.163032 1_555
O31 Si7 1.641338 1_555
O31 Sn7 1.968000 1_555
O32 Si8 1.649153 1_555
O32 Sn7 2.003249 1_555
O33 S6 1.493656 1_555
O33 Sn8 2.126611 1_555
O34 S7 1.487972 1_555
O34 Sn8 2.203200 1_555
O35 Si6 1.650777 1_555
O35 Sn8 1.985313 1_555
O36 S8 1.451432 1_555
O37 Si7 1.621555 1_555
O38 Si8 1.617785 1_555
O39 S6 1.475761 1_555
O39 Sn0 2.235635 1_545
O40 S7 1.497999 1_555
O40 Sn0 2.172814 1_555
O41 Si6 1.660319 1_555
O41 Sn0 2.007661 1_655
O42 Si3 1.669795 1_555
O42 Sn1 2.019608 1_655
O43 S3 1.488330 1_555
O43 Sn1 2.169094 1_555
O44 S4 1.480102 1_555
O44 Sn1 2.262598 1_665
O45 Si4 1.650575 1_555
O45 Sn2 2.004385 1_665
O46 S5 1.485552 1_555
O46 Sn2 2.198603 1_655
O47 Si5 1.629361 1_555
O47 Sn2 1.981489 1_555
O48 S2 1.453593 1_545
O49 Si1 1.625685 1_555
O50 Si2 1.617864 1_655
O51 S1 1.474203 1_555
O52 Si0 1.617158 1_555
O53 S0 1.474524 1_545
O54 Si6 1.658018 1_555
O54 Sn3 2.018119 1_555
O55 S6 1.478301 1_655
O55 Sn3 2.274448 1_555
O56 S7 1.481033 1_545
O56 Sn3 2.302518 1_555
O57 Si7 1.660851 1_545
O57 Sn4 2.015059 1_555
O58 Si8 1.637917 1_555
O58 Sn4 1.978578 1_555
O59 S8 1.486785 1_655
O59 Sn4 2.224420 1_555
O60 Si5 1.634198 1_555
O60 Sn5 1.982330 1_555
O61 Si4 1.648557 1_455
O61 Sn5 1.972879 1_555
O62 S5 1.480177 1_565
O62 Sn5 2.128745 1_555
O63 S3 1.475269 1_565
O63 Sn6 2.241810 1_555
O64 S4 1.492460 1_555
O64 Sn6 2.148263 1_555
O65 Si3 1.666879 1_455
O65 Sn6 1.990982 1_555
O66 S0 1.486698 1_555
O66 Sn7 2.205736 1_555
O67 S1 1.503553 1_555
O67 Sn7 2.186859 1_555
O68 Si0 1.702283 1_455
O68 Sn7 2.037817 1_555
O69 Si1 1.659532 1_555
O69 Sn8 2.008436 1_555
O70 Si2 1.645198 1_555
O70 Sn8 1.992442 1_555
O71 S2 1.484314 1_555
O71 Sn8 2.220190 1_555
