# generated using pymatgen
data_Ba2Mg(WO4)2
_symmetry_space_group_name_H-M   'P 1'
_cell_length_a   4.00539016
_cell_length_b   5.90818376
_cell_length_c   9.49106719
_cell_angle_alpha   91.08740450
_cell_angle_beta   102.98516824
_cell_angle_gamma   89.56504697
_symmetry_Int_Tables_number   1
_chemical_formula_structural   Ba2Mg(WO4)2
_chemical_formula_sum   'Ba2 Mg1 W2 O8'
_cell_volume   218.81797231
_cell_formula_units_Z   1
loop_
 _symmetry_equiv_pos_site_id
 _symmetry_equiv_pos_as_xyz
  1  'x, y, z'
loop_
 _atom_site_type_symbol
 _atom_site_label
 _atom_site_symmetry_multiplicity
 _atom_site_fract_x
 _atom_site_fract_y
 _atom_site_fract_z
 _atom_site_occupancy
  Ba  Ba0  1  0.09556936  0.49434926  0.20332973  1
  Ba  Ba1  1  0.78993615  0.97454685  0.56515985  1
  Mg  Mg0  1  0.46938833  0.99238126  0.86581273  1
  W  W0  1  0.39948039  0.49019727  0.85385483  1
  W  W1  1  0.58189436  0.99234226  0.18393727  1
  O  O0  1  0.50224150  0.75241797  0.01294885  1
  O  O1  1  0.68208584  0.22342300  0.32594740  1
  O  O2  1  0.07952648  0.98510252  0.16598463  1
  O  O3  1  0.92933858  0.49504373  0.86867373  1
  O  O4  1  0.65427828  0.74808484  0.32441312  1
  O  O5  1  0.36961077  0.22928512  0.71670018  1
  O  O6  1  0.36226529  0.74713637  0.71661405  1
  O  O7  1  0.50105166  0.24067257  0.01329063  1
loop_
_geom_bond_atom_site_label_1
_geom_bond_atom_site_label_2
_geom_bond_distance
_geom_bond_site_symmetry_2
Ba0 O4 2.721360 1_555
Ba0 O4 2.738517 1_455
Ba0 O1 2.763430 1_455
Ba0 O1 2.867123 1_555
Ba0 O2 2.926188 1_555
Ba0 O2 3.022317 1_545
Ba0 O7 3.031735 1_455
Ba0 O7 3.051915 1_555
Ba0 O0 3.058968 1_455
Ba0 O3 3.095467 1_454
Ba0 O0 3.115756 1_555
Ba1 O4 2.577489 1_555
Ba1 O1 2.679486 1_565
Ba1 O6 2.769889 1_655
Ba1 O6 2.832078 1_555
Ba1 O5 2.852324 1_565
Ba1 O5 2.862659 1_665
Mg0 O5 1.983484 1_565
Mg0 O6 1.986778 1_555
Mg0 O0 1.991785 1_556
Mg0 O7 1.993080 1_566
O0 W1 2.105160 1_555
O0 W0 2.119242 1_554
O1 W1 1.880702 1_545
O2 W1 1.981585 1_555
O2 W1 2.038334 1_455
O3 W0 1.919564 1_655
O3 W0 2.095552 1_555
O4 W1 1.958879 1_555
O5 W0 1.985390 1_555
O6 W0 2.001924 1_555
O7 W0 2.104190 1_554
O7 W1 2.174381 1_545
