# generated using pymatgen
data_Pb
_symmetry_space_group_name_H-M   'P 1'
_cell_length_a   6.94318200
_cell_length_b   6.94317851
_cell_length_c   11.99477914
_cell_angle_alpha   90.00000000
_cell_angle_beta   90.00000000
_cell_angle_gamma   119.99999704
_symmetry_Int_Tables_number   1
_chemical_formula_structural   Pb
_chemical_formula_sum   Pb16
_cell_volume   500.77170362
_cell_formula_units_Z   16
loop_
 _symmetry_equiv_pos_site_id
 _symmetry_equiv_pos_as_xyz
  1  'x, y, z'
loop_
 _atom_site_type_symbol
 _atom_site_label
 _atom_site_symmetry_multiplicity
 _atom_site_fract_x
 _atom_site_fract_y
 _atom_site_fract_z
 _atom_site_occupancy
  Pb  Pb0_0  1  0.16666650  0.33333350  0.12500000  1
  Pb  Pb0_1  1  0.16666650  0.33333350  0.62500000  1
  Pb  Pb0_2  1  0.16666650  0.83333350  0.12500000  1
  Pb  Pb0_3  1  0.16666650  0.83333350  0.62500000  1
  Pb  Pb0_4  1  0.66666650  0.33333350  0.12500000  1
  Pb  Pb0_5  1  0.66666650  0.33333350  0.62500000  1
  Pb  Pb0_6  1  0.66666650  0.83333350  0.12500000  1
  Pb  Pb0_7  1  0.66666650  0.83333350  0.62500000  1
  Pb  Pb1_0  1  0.33333350  0.16666650  0.37500000  1
  Pb  Pb1_1  1  0.33333350  0.16666650  0.87500000  1
  Pb  Pb1_2  1  0.33333350  0.66666650  0.37500000  1
  Pb  Pb1_3  1  0.33333350  0.66666650  0.87500000  1
  Pb  Pb1_4  1  0.83333350  0.16666650  0.37500000  1
  Pb  Pb1_5  1  0.83333350  0.16666650  0.87500000  1
  Pb  Pb1_6  1  0.83333350  0.66666650  0.37500000  1
  Pb  Pb1_7  1  0.83333350  0.66666650  0.87500000  1
loop_
_geom_bond_atom_site_label_1
_geom_bond_atom_site_label_2
_geom_bond_distance
_geom_bond_site_symmetry_2
Pb0_0 Pb0_2 3.471589 1_545
Pb0_0 Pb0_2 3.471589 1_555
Pb0_0 Pb0_6 3.471590 1_445
Pb0_0 Pb0_6 3.471590 1_555
Pb0_0 Pb0_4 3.471591 1_555
Pb0_0 Pb0_4 3.471591 1_455
Pb0_0 Pb1_2 3.606865 1_555
Pb0_0 Pb1_3 3.606865 1_554
Pb0_0 Pb1_4 3.606865 1_455
Pb0_0 Pb1_5 3.606865 1_454
Pb0_0 Pb1_0 3.606868 1_555
Pb0_0 Pb1_1 3.606868 1_554
Pb0_1 Pb0_3 3.471589 1_545
Pb0_1 Pb0_3 3.471589 1_555
Pb0_1 Pb0_7 3.471590 1_445
Pb0_1 Pb0_7 3.471590 1_555
Pb0_1 Pb0_5 3.471591 1_555
Pb0_1 Pb0_5 3.471591 1_455
Pb0_1 Pb1_2 3.606865 1_555
Pb0_1 Pb1_3 3.606865 1_555
Pb0_1 Pb1_4 3.606865 1_455
Pb0_1 Pb1_5 3.606865 1_455
Pb0_1 Pb1_0 3.606868 1_555
Pb0_1 Pb1_1 3.606868 1_555
Pb0_2 Pb0_4 3.471590 1_455
Pb0_2 Pb0_4 3.471590 1_565
Pb0_2 Pb0_6 3.471591 1_455
Pb0_2 Pb0_6 3.471591 1_555
Pb0_2 Pb1_0 3.606865 1_565
Pb0_2 Pb1_1 3.606865 1_564
Pb0_2 Pb1_6 3.606865 1_455
Pb0_2 Pb1_7 3.606865 1_454
Pb0_2 Pb1_2 3.606868 1_555
Pb0_2 Pb1_3 3.606868 1_554
Pb0_3 Pb0_5 3.471590 1_455
Pb0_3 Pb0_5 3.471590 1_565
Pb0_3 Pb0_7 3.471591 1_455
Pb0_3 Pb0_7 3.471591 1_555
Pb0_3 Pb1_0 3.606865 1_565
Pb0_3 Pb1_1 3.606865 1_565
Pb0_3 Pb1_6 3.606865 1_455
Pb0_3 Pb1_7 3.606865 1_455
Pb0_3 Pb1_2 3.606868 1_555
Pb0_3 Pb1_3 3.606868 1_555
Pb0_4 Pb0_6 3.471589 1_545
Pb0_4 Pb0_6 3.471589 1_555
Pb0_4 Pb1_6 3.606865 1_555
Pb0_4 Pb1_7 3.606865 1_554
Pb0_4 Pb1_0 3.606865 1_555
Pb0_4 Pb1_1 3.606865 1_554
Pb0_4 Pb1_4 3.606868 1_555
Pb0_4 Pb1_5 3.606868 1_554
Pb0_5 Pb0_7 3.471589 1_545
Pb0_5 Pb0_7 3.471589 1_555
Pb0_5 Pb1_6 3.606865 1_555
Pb0_5 Pb1_7 3.606865 1_555
Pb0_5 Pb1_0 3.606865 1_555
Pb0_5 Pb1_1 3.606865 1_555
Pb0_5 Pb1_4 3.606868 1_555
Pb0_5 Pb1_5 3.606868 1_555
Pb0_6 Pb1_4 3.606865 1_565
Pb0_6 Pb1_5 3.606865 1_564
Pb0_6 Pb1_2 3.606865 1_555
Pb0_6 Pb1_3 3.606865 1_554
Pb0_6 Pb1_6 3.606868 1_555
Pb0_6 Pb1_7 3.606868 1_554
Pb0_7 Pb1_4 3.606865 1_565
Pb0_7 Pb1_5 3.606865 1_565
Pb0_7 Pb1_2 3.606865 1_555
Pb0_7 Pb1_3 3.606865 1_555
Pb0_7 Pb1_6 3.606868 1_555
Pb0_7 Pb1_7 3.606868 1_555
Pb1_0 Pb1_2 3.471589 1_545
Pb1_0 Pb1_2 3.471589 1_555
Pb1_0 Pb1_6 3.471590 1_555
Pb1_0 Pb1_6 3.471590 1_445
Pb1_0 Pb1_4 3.471591 1_455
Pb1_0 Pb1_4 3.471591 1_555
Pb1_1 Pb1_3 3.471589 1_545
Pb1_1 Pb1_3 3.471589 1_555
Pb1_1 Pb1_7 3.471590 1_555
Pb1_1 Pb1_7 3.471590 1_445
Pb1_1 Pb1_5 3.471591 1_455
Pb1_1 Pb1_5 3.471591 1_555
Pb1_2 Pb1_4 3.471590 1_455
Pb1_2 Pb1_4 3.471590 1_565
Pb1_2 Pb1_6 3.471591 1_555
Pb1_2 Pb1_6 3.471591 1_455
Pb1_3 Pb1_5 3.471590 1_455
Pb1_3 Pb1_5 3.471590 1_565
Pb1_3 Pb1_7 3.471591 1_555
Pb1_3 Pb1_7 3.471591 1_455
Pb1_4 Pb1_6 3.471589 1_545
Pb1_4 Pb1_6 3.471589 1_555
Pb1_5 Pb1_7 3.471589 1_545
Pb1_5 Pb1_7 3.471589 1_555
