# generated using pymatgen
data_Ba3MgNb2ZnO9
_symmetry_space_group_name_H-M   'P 1'
_cell_length_a   5.88262300
_cell_length_b   6.24566512
_cell_length_c   7.42332158
_cell_angle_alpha   94.92964505
_cell_angle_beta   90.00000000
_cell_angle_gamma   118.09510736
_symmetry_Int_Tables_number   1
_chemical_formula_structural   Ba3MgNb2ZnO9
_chemical_formula_sum   'Ba3 Mg1 Nb2 Zn1 O9'
_cell_volume   239.45754441
_cell_formula_units_Z   1
loop_
 _symmetry_equiv_pos_site_id
 _symmetry_equiv_pos_as_xyz
  1  'x, y, z'
loop_
 _atom_site_type_symbol
 _atom_site_label
 _atom_site_symmetry_multiplicity
 _atom_site_fract_x
 _atom_site_fract_y
 _atom_site_fract_z
 _atom_site_occupancy
  Ba  Ba0  1  0.61784200  0.23568300  0.38574500  1
  Ba  Ba1  1  0.32026300  0.64052700  0.65269300  1
  Ba  Ba2  1  0.05322700  0.10645300  0.98592100  1
  Mg  Mg0  1  0.83221700  0.66443500  0.17027900  1
  Nb  Nb0  1  0.34606600  0.69213300  0.15801000  1
  Nb  Nb1  1  0.65969100  0.31938200  0.83138100  1
  Zn  Zn0  1  0.96523600  0.93047300  0.53839400  1
  O  O0  1  0.82242400  0.14445900  0.67876300  1
  O  O1  1  0.80175500  0.60351000  0.65809900  1
  O  O2  1  0.32203500  0.14445900  0.67876300  1
  O  O3  1  0.68873700  0.84378200  0.31766200  1
  O  O4  1  0.20556500  0.41112900  0.30206100  1
  O  O5  1  0.15504500  0.84378200  0.31766200  1
  O  O6  1  0.51435600  0.02871300  0.00598300  1
  O  O7  1  0.00466200  0.52887500  0.99262600  1
  O  O8  1  0.52421300  0.52887500  0.99262600  1
loop_
_geom_bond_atom_site_label_1
_geom_bond_atom_site_label_2
_geom_bond_distance
_geom_bond_site_symmetry_2
Ba0 O3 2.677568 1_545
Ba0 O5 2.677571 1_545
Ba0 O0 2.713514 1_555
Ba0 O2 2.713517 1_555
Ba0 O1 2.719652 1_555
Ba0 O6 2.936220 1_555
Ba0 Mg0 2.979079 1_555
Ba0 O4 3.176262 1_655
Ba0 O4 3.176262 1_555
Ba1 O4 2.780543 1_555
Ba1 O1 2.948915 1_455
Ba1 O1 2.948921 1_555
Ba1 O7 3.063306 1_555
Ba1 O8 3.063309 1_555
Ba1 O0 3.125751 1_455
Ba1 O2 3.125754 1_555
Ba1 O2 3.131780 1_565
Ba1 O0 3.131782 1_565
Ba1 O6 3.218636 1_566
Ba1 O5 3.232065 1_555
Ba1 O3 3.232067 1_555
Ba2 O2 2.737760 1_555
Ba2 O0 2.737763 1_455
Ba2 O4 2.749176 1_556
Ba2 O8 2.780664 1_555
Ba2 O7 2.780668 1_555
Ba2 O6 2.978145 1_556
Ba2 O6 2.978157 1_456
Mg0 O3 1.960606 1_555
Mg0 O5 1.960610 1_655
Mg0 O8 2.025367 1_554
Mg0 O7 2.025371 1_654
Nb0 O4 1.965481 1_555
Nb0 O5 2.091389 1_555
Nb0 O3 2.091393 1_555
Nb0 O7 2.106295 1_554
Nb0 O8 2.106299 1_554
Nb0 O6 2.262824 1_565
Nb1 O2 2.041047 1_555
Nb1 O0 2.041047 1_555
Nb1 O7 2.119637 1_655
Nb1 O8 2.119637 1_555
Nb1 O1 2.120763 1_555
Nb1 O6 2.156192 1_556
O0 Zn0 2.096648 1_545
O1 Zn0 2.084900 1_555
O2 Zn0 2.096652 1_445
O3 Zn0 2.154465 1_555
O5 Zn0 2.154469 1_455
