# generated using pymatgen
data_Na3Ca3ZrPS5O24
_symmetry_space_group_name_H-M   'P 1'
_cell_length_a   9.23355439
_cell_length_b   9.22050326
_cell_length_c   23.92094961
_cell_angle_alpha   89.91446042
_cell_angle_beta   90.04213996
_cell_angle_gamma   120.37260708
_symmetry_Int_Tables_number   1
_chemical_formula_structural   Na3Ca3ZrPS5O24
_chemical_formula_sum   'Na9 Ca9 Zr3 P3 S15 O72'
_cell_volume   1757.07058425
_cell_formula_units_Z   3
loop_
 _symmetry_equiv_pos_site_id
 _symmetry_equiv_pos_as_xyz
  1  'x, y, z'
loop_
 _atom_site_type_symbol
 _atom_site_label
 _atom_site_symmetry_multiplicity
 _atom_site_fract_x
 _atom_site_fract_y
 _atom_site_fract_z
 _atom_site_occupancy
  Na  Na0  1  0.36070202  0.35942523  0.25247192  1
  Na  Na1  1  0.03058891  0.69942768  0.58504283  1
  Na  Na2  1  0.29721856  0.96205110  0.07564959  1
  Na  Na3  1  0.98543810  0.00095664  0.50141754  1
  Na  Na4  1  0.00058768  0.01431135  0.98848832  1
  Na  Na5  1  0.66458676  0.32591949  0.82690698  1
  Na  Na6  1  0.68383583  0.33019956  0.33215311  1
  Na  Na7  1  0.33170835  0.66561764  0.17001441  1
  Na  Na8  1  0.36827373  0.66317106  0.66567940  1
  Ca  Ca0  1  0.99375405  0.99253569  0.35125723  1
  Ca  Ca1  1  0.00458672  0.00361646  0.85097714  1
  Ca  Ca2  1  0.99254513  0.00415076  0.65172240  1
  Ca  Ca3  1  0.98613449  0.99515530  0.14774031  1
  Ca  Ca4  1  0.66019241  0.33236282  0.68605167  1
  Ca  Ca5  1  0.68031654  0.33831093  0.18446453  1
  Ca  Ca6  1  0.33035365  0.65730140  0.01488820  1
  Ca  Ca7  1  0.34627985  0.66554676  0.51641161  1
  Ca  Ca8  1  0.33434348  0.67764806  0.32104535  1
  Zr  Zr0  1  0.67152886  0.33131265  0.97472146  1
  Zr  Zr1  1  0.66207964  0.33798573  0.48432927  1
  Zr  Zr2  1  0.32417524  0.66807510  0.82091883  1
  P  P0  1  0.67194425  0.63168423  0.58409617  1
  P  P1  1  0.03400929  0.36925105  0.91823592  1
  P  P2  1  0.33452561  0.96352321  0.92148416  1
  S  S0  1  0.29793464  0.00028784  0.24709216  1
  S  S1  1  0.69160608  0.69428246  0.25028966  1
  S  S2  1  0.00615646  0.30162174  0.25100043  1
  S  S3  1  0.30091232  0.31124817  0.75291365  1
  S  S4  1  0.00773030  0.69981970  0.75073338  1
  S  S5  1  0.68996828  0.99134091  0.75340253  1
  S  S6  1  0.95595355  0.33333958  0.58145754  1
  S  S7  1  0.36834948  0.03747040  0.58187052  1
  S  S8  1  0.96165818  0.62960526  0.08036359  1
  S  S9  1  0.66640715  0.04393742  0.08014431  1
  S  S10  1  0.37846087  0.33140974  0.08295257  1
  S  S11  1  0.62574665  0.66032424  0.91720116  1
  S  S12  1  0.63814667  0.97984966  0.41869380  1
  S  S13  1  0.33800063  0.36179343  0.41596376  1
  S  S14  1  0.02562811  0.66071477  0.42120319  1
  O  O0  1  0.20701877  0.01533908  0.29580659  1
  O  O1  1  0.78862022  0.77875464  0.30093494  1
  O  O2  1  0.99188110  0.20300582  0.30152911  1
  O  O3  1  0.21634315  0.20764329  0.80161572  1
  O  O4  1  0.98922995  0.78899064  0.79797509  1
  O  O5  1  0.79397919  0.01038583  0.80180034  1
  O  O6  1  0.75923250  0.96607250  0.70072015  1
  O  O7  1  0.20501367  0.24015749  0.70048308  1
  O  O8  1  0.03335395  0.79058851  0.69686263  1
  O  O9  1  0.77441929  0.78910634  0.19902905  1
  O  O10  1  0.02093529  0.21864692  0.19988401  1
  O  O11  1  0.20703588  0.98601318  0.19402878  1
  O  O12  1  0.87571901  0.34707985  0.63236720  1
  O  O13  1  0.46520292  0.11465857  0.63252089  1
  O  O14  1  0.66254957  0.53288965  0.63612826  1
  O  O15  1  0.88162479  0.53883204  0.13195770  1
  O  O16  1  0.65140570  0.12468623  0.13117285  1
  O  O17  1  0.46543212  0.34292219  0.13618409  1
  O  O18  1  0.47853824  0.32247722  0.03430611  1
  O  O19  1  0.85940505  0.53346321  0.03045606  1
  O  O20  1  0.67672273  0.14932054  0.02987530  1
  O  O21  1  0.46446295  0.14045701  0.53110614  1
  O  O22  1  0.67654931  0.52306263  0.53103540  1
  O  O23  1  0.84880148  0.31889405  0.53099396  1
  O  O24  1  0.55351215  0.68203910  0.96851424  1
  O  O25  1  0.13286857  0.44705380  0.97094594  1
  O  O26  1  0.32064223  0.87520143  0.97683597  1
  O  O27  1  0.55270222  0.87643266  0.46800707  1
  O  O28  1  0.32044136  0.45066441  0.46405843  1
  O  O29  1  0.12162142  0.67738581  0.47261701  1
  O  O30  1  0.10271404  0.63663595  0.37088065  1
  O  O31  1  0.54142525  0.90766225  0.36686386  1
  O  O32  1  0.36486905  0.45546140  0.36294886  1
  O  O33  1  0.12830345  0.48649915  0.86606078  1
  O  O34  1  0.35839187  0.86547657  0.87081402  1
  O  O35  1  0.51642361  0.63676926  0.86742495  1
  O  O36  1  0.00121474  0.80670378  0.41608375  1
  O  O37  1  0.80886210  0.00356358  0.41512312  1
  O  O38  1  0.19192719  0.19003755  0.41312171  1
  O  O39  1  -0.00245021  0.19071940  0.91027288  1
  O  O40  1  0.18681478  0.98972151  0.91203848  1
  O  O41  1  0.79599481  0.80195594  0.90948692  1
  O  O42  1  0.97636169  0.18452517  0.58137118  1
  O  O43  1  0.20220357  0.02668916  0.58207004  1
  O  O44  1  0.84212582  0.79970241  0.58034229  1
  O  O45  1  0.97916524  0.79998312  0.07952637  1
  O  O46  1  0.81749345  0.02838695  0.08009265  1
  O  O47  1  0.21344163  0.16956807  0.08154376  1
  O  O48  1  0.66517990  0.13796745  0.74918581  1
  O  O49  1  0.47211474  0.33522485  0.74937694  1
  O  O50  1  0.86328638  0.52617477  0.74825643  1
  O  O51  1  0.66791821  0.52087401  0.24868180  1
  O  O52  1  0.85891013  0.32530892  0.24850230  1
  O  O53  1  0.46537073  0.15979312  0.24637600  1
  O  O54  1  0.63465166  0.49998464  0.92190515  1
  O  O55  1  0.85869596  0.36606882  0.92229220  1
  O  O56  1  0.50398068  0.14352195  0.92366341  1
  O  O57  1  0.65443250  0.15115484  0.42554404  1
  O  O58  1  0.49391313  0.34638621  0.42444912  1
  O  O59  1  0.85235487  0.50286099  0.42608967  1
  O  O60  1  0.35524767  0.47733533  0.07856033  1
  O  O61  1  0.13438949  0.65471509  0.07848631  1
  O  O62  1  0.51048906  0.87718524  0.07666690  1
  O  O63  1  0.33890135  0.86395920  0.57639105  1
  O  O64  1  0.51904680  0.65402137  0.57926231  1
  O  O65  1  0.12009756  0.49172250  0.57570171  1
  O  O66  1  0.32030676  0.85246340  0.25194744  1
  O  O67  1  0.51867633  0.67124989  0.25264143  1
  O  O68  1  0.16545092  0.46915151  0.25381348  1
  O  O69  1  0.31897313  0.48427440  0.76055362  1
  O  O70  1  0.16590165  0.68752330  0.75994796  1
  O  O71  1  0.51742900  0.83417312  0.76110160  1
loop_
_geom_bond_atom_site_label_1
_geom_bond_atom_site_label_2
_geom_bond_distance
_geom_bond_site_symmetry_2
Na0 O51 2.449653 1_555
Na0 O68 2.473791 1_555
Na0 O53 2.478611 1_555
Na0 O67 2.480591 1_555
Na0 O32 2.782429 1_555
Na0 O0 2.931473 1_555
Na0 O17 2.974940 1_555
Na0 O10 2.998453 1_555
Na1 O44 2.349931 1_455
Na1 O65 2.450096 1_555
Na1 O63 2.466022 1_555
Na1 O43 2.604924 1_565
Na1 O8 2.801220 1_555
Na1 O29 2.856231 1_555
Na2 O47 2.403572 1_565
Na2 O61 2.446746 1_555
Na2 O62 2.459466 1_555
Na2 O45 2.535420 1_455
Na2 O26 2.541015 1_554
Na3 O44 2.503793 1_545
Na3 O42 2.585181 1_555
Na3 O37 2.637138 1_555
Na3 O43 2.701843 1_655
Na3 O36 2.769705 1_645
Na3 O38 2.787347 1_655
Na4 O39 2.486783 1_555
Na4 O40 2.598591 1_545
Na4 O41 2.690576 1_445
Na4 O46 2.811551 1_456
Na4 O47 2.832837 1_556
Na4 O45 2.877409 1_446
Na5 O48 2.545405 1_555
Na5 O49 2.598883 1_555
Na5 O50 2.623757 1_555
Na5 O56 2.802838 1_555
Na5 O55 2.807341 1_555
Na5 O54 2.876937 1_555
Na6 O52 2.588062 1_555
Na6 O57 2.706753 1_555
Na6 O51 2.711056 1_555
Na6 O59 2.739610 1_555
Na6 O53 2.747085 1_555
Na6 O58 2.871128 1_555
Na7 O67 2.606593 1_555
Na7 O68 2.614953 1_555
Na7 O66 2.648440 1_555
Na7 O61 2.816530 1_555
Na7 O60 2.870653 1_555
Na7 O62 2.872732 1_555
Na8 O64 2.518335 1_555
Na8 O69 2.703643 1_555
Na8 O71 2.720889 1_555
Na8 O63 2.925427 1_555
Na8 O65 2.953383 1_555
Na8 O70 3.009840 1_555
Ca0 O1 2.269437 1_555
Ca0 O2 2.282195 1_565
Ca0 O0 2.294703 1_665
Ca0 O37 2.332106 1_565
Ca0 O36 2.335955 1_655
Ca0 O38 2.342844 1_665
Ca1 O3 2.243527 1_555
Ca1 O39 2.261231 1_555
Ca1 O40 2.279234 1_545
Ca1 O4 2.295062 1_445
Ca1 O5 2.299686 1_455
Ca1 O41 2.345333 1_445
Ca2 O6 2.318547 1_545
Ca2 O7 2.373137 1_655
Ca2 O44 2.399302 1_545
Ca2 O42 2.421365 1_555
Ca2 O8 2.434933 1_645
Ca2 O43 2.482701 1_655
Ca3 O9 2.275323 1_555
Ca3 O10 2.289771 1_665
Ca3 O11 2.358772 1_655
Ca3 O46 2.369492 1_565
Ca3 O45 2.407642 1_555
Ca3 O47 2.466343 1_665
Ca4 O14 2.190439 1_555
Ca4 O13 2.293527 1_555
Ca4 O12 2.314757 1_555
Ca4 O49 2.315495 1_555
Ca4 O50 2.353569 1_555
Ca4 O48 2.360292 1_555
Ca5 O15 2.229856 1_555
Ca5 O16 2.247540 1_555
Ca5 O52 2.296944 1_555
Ca5 O17 2.313929 1_555
Ca5 O51 2.325781 1_555
Ca5 O53 2.352705 1_555
Ca6 O25 2.148642 1_554
Ca6 O26 2.247192 1_554
Ca6 O24 2.248504 1_554
Ca6 O60 2.346028 1_555
Ca6 O61 2.355717 1_555
Ca6 O62 2.378266 1_555
Ca7 O64 2.232467 1_555
Ca7 O27 2.236788 1_555
Ca7 O28 2.253855 1_555
Ca7 O63 2.354602 1_555
Ca7 O65 2.356830 1_555
Ca7 O29 2.374441 1_555
Ca8 O31 2.293115 1_555
Ca8 O30 2.307154 1_555
Ca8 O66 2.355845 1_555
Ca8 O67 2.384073 1_555
Ca8 O68 2.384965 1_555
Ca8 O32 2.420462 1_555
O0 S0 1.483789 1_555
O1 S1 1.473921 1_555
O2 S2 1.476777 1_655
O3 S3 1.457132 1_555
O4 S4 1.458539 1_655
O5 S5 1.456686 1_545
O6 S5 1.484653 1_555
O7 S3 1.483446 1_555
O8 S4 1.487956 1_555
O9 S1 1.474727 1_555
O10 S2 1.485831 1_555
O11 S0 1.490030 1_565
O12 S6 1.464468 1_555
O13 S7 1.460013 1_555
O14 P0 1.517684 1_555
O15 S8 1.463770 1_555
O16 S9 1.473356 1_555
O17 S10 1.479958 1_555
O18 S10 1.514479 1_555
O18 Zr0 2.251721 1_554
O19 S8 1.502544 1_555
O19 Zr0 2.235021 1_554
O20 S9 1.517332 1_555
O20 Zr0 2.152556 1_554
O21 S7 1.519822 1_555
O21 Zr1 2.129547 1_555
O22 P0 1.631831 1_555
O22 Zr1 1.988258 1_555
O23 S6 1.522918 1_555
O23 Zr1 2.133793 1_555
O24 S11 1.458968 1_555
O25 P1 1.508803 1_555
O26 P2 1.524549 1_555
O27 S12 1.469852 1_555
O28 S13 1.469280 1_555
O29 S14 1.477504 1_555
O30 S14 1.472015 1_555
O31 S12 1.475634 1_555
O32 S13 1.481968 1_555
O33 P1 1.590671 1_555
O33 Zr2 2.043410 1_555
O34 P2 1.593773 1_555
O34 Zr2 2.064384 1_555
O35 S11 1.503727 1_555
O35 Zr2 2.233007 1_555
O36 S14 1.477868 1_555
O37 S12 1.480358 1_545
O38 S13 1.473770 1_555
O39 P1 1.516531 1_555
O40 P2 1.517290 1_555
O41 S11 1.460949 1_555
O42 S6 1.476406 1_555
O43 S7 1.486342 1_555
O44 P0 1.554149 1_555
O45 S8 1.495855 1_555
O46 S9 1.472767 1_555
O47 S10 1.500139 1_555
O48 S5 1.484207 1_545
O49 S3 1.483818 1_555
O50 S4 1.478709 1_655
O51 S1 1.500787 1_555
O52 S2 1.483217 1_655
O53 S0 1.501380 1_555
O54 S11 1.525629 1_555
O54 Zr0 2.158695 1_555
O55 P1 1.607130 1_655
O55 Zr0 2.025900 1_555
O56 P2 1.606095 1_545
O56 Zr0 2.044001 1_555
O57 S12 1.518187 1_545
O57 Zr1 2.198652 1_555
O58 S13 1.529773 1_555
O58 Zr1 2.141698 1_555
O59 S14 1.528657 1_655
O59 Zr1 2.152916 1_555
O60 S10 1.469202 1_555
O61 S8 1.491999 1_455
O62 S9 1.485051 1_565
O63 S7 1.487055 1_565
O64 P0 1.530575 1_555
O65 S6 1.486680 1_455
O66 S0 1.482631 1_565
O67 S1 1.501691 1_555
O68 S2 1.502213 1_555
O69 S3 1.529135 1_555
O69 Zr2 2.210076 1_555
O70 S4 1.536670 1_555
O70 Zr2 2.134524 1_555
O71 S5 1.528747 1_555
O71 Zr2 2.193339 1_555
