# generated using pymatgen
data_MgTi2(FeO3)2
_symmetry_space_group_name_H-M   'P 1'
_cell_length_a   5.90337945
_cell_length_b   5.94560416
_cell_length_c   5.99136981
_cell_angle_alpha   50.93168459
_cell_angle_beta   51.58524644
_cell_angle_gamma   51.73135939
_symmetry_Int_Tables_number   1
_chemical_formula_structural   MgTi2(FeO3)2
_chemical_formula_sum   'Mg1 Ti2 Fe2 O6'
_cell_volume   118.62390761
_cell_formula_units_Z   1
loop_
 _symmetry_equiv_pos_site_id
 _symmetry_equiv_pos_as_xyz
  1  'x, y, z'
loop_
 _atom_site_type_symbol
 _atom_site_label
 _atom_site_symmetry_multiplicity
 _atom_site_fract_x
 _atom_site_fract_y
 _atom_site_fract_z
 _atom_site_occupancy
  Mg  Mg0  1  0.99998800  0.99997700  0.99997400  1
  Ti  Ti0  1  0.64150800  0.65235800  0.66095600  1
  Ti  Ti1  1  0.35846500  0.34762300  0.33911800  1
  Fe  Fe0  1  0.83025600  0.83704300  0.82340700  1
  Fe  Fe1  1  0.16987900  0.16314400  0.17617300  1
  O  O0  1  0.06135900  0.74538200  0.40983100  1
  O  O1  1  0.76811000  0.40679900  0.05927800  1
  O  O2  1  0.42333800  0.05057100  0.75206600  1
  O  O3  1  0.93849600  0.25428800  0.59036700  1
  O  O4  1  0.57637800  0.94966400  0.24796600  1
  O  O5  1  0.23222400  0.59315100  0.94086300  1
loop_
_geom_bond_atom_site_label_1
_geom_bond_atom_site_label_2
_geom_bond_distance
_geom_bond_site_symmetry_2
Mg0 O3 2.047081 1_565
Mg0 O0 2.047799 1_656
Mg0 O5 2.055339 1_655
Mg0 O1 2.056255 1_566
Mg0 O2 2.073081 1_665
Mg0 O4 2.073589 1_556
Fe0 O2 2.092673 1_565
Fe0 O1 2.153338 1_556
Fe0 O5 2.180711 1_655
Fe0 O0 2.208706 1_655
Fe0 O3 2.236256 1_565
Fe0 O4 2.308940 1_556
Fe1 O4 2.091966 1_545
Fe1 O5 2.153353 1_554
Fe1 O1 2.178033 1_455
Fe1 O3 2.209877 1_455
Fe1 O0 2.239033 1_545
Fe1 O2 2.306920 1_554
O0 Ti1 2.012488 1_555
O0 Ti0 2.174333 1_455
O1 Ti1 2.013643 1_555
O1 Ti0 2.204197 1_554
O2 Ti1 2.054006 1_555
O2 Ti0 2.130858 1_545
O3 Ti0 2.013596 1_555
O3 Ti1 2.175775 1_655
O4 Ti0 2.054790 1_555
O4 Ti1 2.130017 1_565
O5 Ti0 2.012019 1_555
O5 Ti1 2.202607 1_556
