# generated using pymatgen
data_MgCr2(CoO3)4
_symmetry_space_group_name_H-M   'P 1'
_cell_length_a   5.04475610
_cell_length_b   5.04449131
_cell_length_c   10.22250092
_cell_angle_alpha   89.98000175
_cell_angle_beta   89.86620551
_cell_angle_gamma   119.93383761
_symmetry_Int_Tables_number   1
_chemical_formula_structural   MgCr2(CoO3)4
_chemical_formula_sum   'Mg1 Cr2 Co4 O12'
_cell_volume   225.44087013
_cell_formula_units_Z   1
loop_
 _symmetry_equiv_pos_site_id
 _symmetry_equiv_pos_as_xyz
  1  'x, y, z'
loop_
 _atom_site_type_symbol
 _atom_site_label
 _atom_site_symmetry_multiplicity
 _atom_site_fract_x
 _atom_site_fract_y
 _atom_site_fract_z
 _atom_site_occupancy
  Mg  Mg0  1  0.66281900  0.16119300  0.74959500  1
  Cr  Cr0  1  0.00201000  0.00106200  0.00065200  1
  Cr  Cr1  1  0.50079700  0.50247600  0.49820100  1
  Co  Co0  1  0.16873100  0.84271000  0.49574700  1
  Co  Co1  1  0.34419200  0.67113600  0.00522000  1
  Co  Co2  1  0.66906800  0.33451900  0.00891300  1
  Co  Co3  1  0.83338400  0.16819400  0.49094400  1
  O  O0  1  0.99981100  0.65315900  0.09314100  1
  O  O1  1  0.97139400  0.32393400  0.89740100  1
  O  O2  1  0.15339500  0.49949400  0.40730400  1
  O  O3  1  0.51511300  0.85673700  0.59967600  1
  O  O4  1  0.14948400  0.15494300  0.59248700  1
  O  O5  1  0.34055400  0.34296800  0.09453500  1
  O  O6  1  0.65487800  0.65120800  0.90755100  1
  O  O7  1  0.35855800  0.01539200  0.90064200  1
  O  O8  1  0.84317500  0.84333100  0.40495000  1
  O  O9  1  0.51229200  0.16199400  0.40274200  1
  O  O10  1  0.82430000  0.47202300  0.60167700  1
  O  O11  1  0.66271100  0.01019500  0.09862300  1
loop_
_geom_bond_atom_site_label_1
_geom_bond_atom_site_label_2
_geom_bond_distance
_geom_bond_site_symmetry_2
Mg0 O1 2.028949 1_555
Mg0 O10 2.031361 1_555
Mg0 O3 2.031639 1_545
Mg0 O7 2.035335 1_555
Cr0 O5 1.970200 1_555
Cr0 O0 1.988316 1_445
Cr0 O11 2.001430 1_455
Cr0 O6 2.002918 1_444
Cr0 O1 2.010289 1_454
Cr0 O7 2.036502 1_554
Cr1 O8 1.968682 1_555
Cr1 O2 1.978988 1_555
Cr1 O9 2.001480 1_555
Cr1 O4 2.008347 1_555
Cr1 O10 2.015952 1_555
Cr1 O3 2.036593 1_555
Co0 O8 1.889730 1_455
Co0 O4 1.903016 1_565
Co0 O2 1.920602 1_555
Co0 O9 1.925425 1_565
Co0 O3 2.018045 1_555
Co0 O10 2.106076 1_455
Co1 O5 1.882280 1_555
Co1 O6 1.900920 1_554
Co1 O0 1.915648 1_455
Co1 O11 1.919509 1_565
Co1 O7 2.009135 1_564
Co1 O1 2.131440 1_454
Co2 O0 1.854743 1_555
Co2 O11 1.861489 1_555
Co2 O5 1.891617 1_555
Co2 O1 1.923956 1_554
Co2 O6 1.934998 1_554
Co2 O7 1.939844 1_554
Co3 O9 1.842301 1_555
Co3 O2 1.852091 1_655
Co3 O8 1.882115 1_545
Co3 O10 1.924467 1_555
Co3 O4 1.933630 1_655
Co3 O3 1.937722 1_545
