# generated using pymatgen
data_Fe5(PO4)4
_symmetry_space_group_name_H-M   'P 1'
_cell_length_a   5.17883800
_cell_length_b   8.04848944
_cell_length_c   8.39167325
_cell_angle_alpha   112.00605451
_cell_angle_beta   91.57499238
_cell_angle_gamma   100.85236168
_symmetry_Int_Tables_number   1
_chemical_formula_structural   Fe5(PO4)4
_chemical_formula_sum   'Fe5 P4 O16'
_cell_volume   316.64559306
_cell_formula_units_Z   1
loop_
 _symmetry_equiv_pos_site_id
 _symmetry_equiv_pos_as_xyz
  1  'x, y, z'
loop_
 _atom_site_type_symbol
 _atom_site_label
 _atom_site_symmetry_multiplicity
 _atom_site_fract_x
 _atom_site_fract_y
 _atom_site_fract_z
 _atom_site_occupancy
  Fe  Fe0  1  0.35398100  0.58338500  0.33337500  1
  Fe  Fe1  1  0.64601900  0.41661500  0.66662500  1
  Fe  Fe2  1  0.10363900  0.24373900  0.77056800  1
  Fe  Fe3  1  0.00000000  0.00000000  0.00000000  1
  Fe  Fe4  1  0.89636100  0.75626100  0.22943200  1
  P  P0  1  0.36301400  0.69417500  0.97878100  1
  P  P1  1  0.63698600  0.30582500  0.02121900  1
  P  P2  1  0.86462800  0.79621400  0.56734300  1
  P  P3  1  0.13537200  0.20378600  0.43265700  1
  O  O0  1  0.33458400  0.18275000  0.56691600  1
  O  O1  1  0.73930600  0.64242700  0.62211600  1
  O  O2  1  0.78129200  0.33649000  0.86779800  1
  O  O3  1  0.23973100  0.82296000  0.92296300  1
  O  O4  1  0.90429600  0.24591200  0.54582000  1
  O  O5  1  0.09570400  0.75408800  0.45418000  1
  O  O6  1  0.94565500  0.97862600  0.72823200  1
  O  O7  1  0.67286100  0.49745300  0.17289200  1
  O  O8  1  0.26069400  0.35757300  0.37788400  1
  O  O9  1  0.05434500  0.02137400  0.27176800  1
  O  O10  1  0.66541600  0.81725000  0.43308400  1
  O  O11  1  0.21870800  0.66351000  0.13220200  1
  O  O12  1  0.76026900  0.17704000  0.07703700  1
  O  O13  1  0.32713900  0.50254700  0.82710800  1
  O  O14  1  0.66689600  0.76895100  0.03688200  1
  O  O15  1  0.33310400  0.23104900  0.96311800  1
loop_
_geom_bond_atom_site_label_1
_geom_bond_atom_site_label_2
_geom_bond_distance
_geom_bond_site_symmetry_2
Fe0 O8 1.965711 1_555
Fe0 O5 2.104085 1_555
Fe0 O10 2.108730 1_555
Fe0 O11 2.162771 1_555
Fe0 O7 2.207610 1_555
Fe1 O1 1.965711 1_555
Fe1 O4 2.104085 1_555
Fe1 O0 2.108730 1_555
Fe1 O2 2.162771 1_555
Fe1 O13 2.207610 1_555
Fe2 O15 2.024186 1_555
Fe2 O2 2.024234 1_455
Fe2 O6 2.026595 1_445
Fe2 O13 2.055497 1_555
Fe2 O0 2.072876 1_555
Fe2 O4 2.132513 1_455
Fe3 O3 2.002403 1_544
Fe3 O12 2.002403 1_455
Fe3 O6 2.227635 1_444
Fe3 O9 2.227635 1_555
Fe3 O14 2.404685 1_445
Fe3 O15 2.404685 1_554
Fe4 O14 2.024186 1_555
Fe4 O11 2.024234 1_655
Fe4 O9 2.026595 1_665
Fe4 O7 2.055497 1_555
Fe4 O10 2.072876 1_555
Fe4 O5 2.132513 1_655
O0 P3 1.583424 1_555
O1 P2 1.518150 1_555
O2 P1 1.580677 1_556
O3 P0 1.515926 1_555
O4 P3 1.556540 1_655
O5 P2 1.556540 1_455
O6 P2 1.551057 1_555
O7 P1 1.562443 1_555
O8 P3 1.518150 1_555
O9 P3 1.551057 1_555
O10 P2 1.583424 1_555
O11 P0 1.580677 1_554
O12 P1 1.515926 1_555
O13 P0 1.562443 1_555
O14 P0 1.567768 1_554
O15 P1 1.567768 1_556
