# generated using pymatgen
data_NaAlSi
_symmetry_space_group_name_H-M   'P 1'
_cell_length_a   4.11019207
_cell_length_b   4.11019207
_cell_length_c   7.28815514
_cell_angle_alpha   90.00000000
_cell_angle_beta   90.00000000
_cell_angle_gamma   90.00000000
_symmetry_Int_Tables_number   1
_chemical_formula_structural   NaAlSi
_chemical_formula_sum   'Na2 Al2 Si2'
_cell_volume   123.12375236
_cell_formula_units_Z   2
loop_
 _symmetry_equiv_pos_site_id
 _symmetry_equiv_pos_as_xyz
  1  'x, y, z'
loop_
 _atom_site_type_symbol
 _atom_site_label
 _atom_site_symmetry_multiplicity
 _atom_site_fract_x
 _atom_site_fract_y
 _atom_site_fract_z
 _atom_site_occupancy
  Na  Na0  1  0.25000000  0.25000000  0.63805598  1
  Na  Na1  1  0.75000000  0.75000000  0.36194402  1
  Al  Al0  1  0.75000000  0.25000000  -0.00000000  1
  Al  Al1  1  0.25000000  0.75000000  -0.00000000  1
  Si  Si0  1  0.25000000  0.25000000  0.20817344  1
  Si  Si1  1  0.75000000  0.75000000  0.79182656  1
loop_
_geom_bond_atom_site_label_1
_geom_bond_atom_site_label_2
_geom_bond_distance
_geom_bond_site_symmetry_2
Na0 Si1 3.114934 1_445
Na0 Si1 3.114934 1_455
Na0 Si1 3.114934 1_545
Na0 Si1 3.114934 1_555
Na0 Si0 3.133051 1_555
Na1 Si0 3.114934 1_665
Na1 Si0 3.114934 1_655
Na1 Si0 3.114934 1_565
Na1 Si0 3.114934 1_555
Na1 Si1 3.133051 1_555
Al0 Si1 2.554470 1_544
Al0 Si1 2.554470 1_554
Al0 Si0 2.554470 1_655
Al0 Si0 2.554470 1_555
Al1 Si1 2.554470 1_554
Al1 Si1 2.554470 1_454
Al1 Si0 2.554470 1_565
Al1 Si0 2.554470 1_555
