# generated using pymatgen
data_Na4ZrZnSi(PO6)2
_symmetry_space_group_name_H-M   'P 1'
_cell_length_a   9.16446527
_cell_length_b   9.20487608
_cell_length_c   22.37372290
_cell_angle_alpha   89.60078520
_cell_angle_beta   90.00000000
_cell_angle_gamma   119.85488092
_symmetry_Int_Tables_number   1
_chemical_formula_structural   Na4ZrZnSi(PO6)2
_chemical_formula_sum   'Na24 Zr6 Zn6 Si6 P12 O72'
_cell_volume   1636.86614940
_cell_formula_units_Z   6
loop_
 _symmetry_equiv_pos_site_id
 _symmetry_equiv_pos_as_xyz
  1  'x, y, z'
loop_
 _atom_site_type_symbol
 _atom_site_label
 _atom_site_symmetry_multiplicity
 _atom_site_fract_x
 _atom_site_fract_y
 _atom_site_fract_z
 _atom_site_occupancy
  Na  Na0  1  0.63890552  0.01987289  0.24707252  1
  Na  Na1  1  0.37454676  0.35453520  0.24834183  1
  Na  Na2  1  0.98532961  0.62395647  0.24242524  1
  Na  Na3  1  0.63862686  0.62395647  0.74242524  1
  Na  Na4  1  0.97998844  0.35453520  0.74834183  1
  Na  Na5  1  0.38096737  0.01987289  0.74707252  1
  Na  Na6  1  0.31191221  0.35344607  0.58185563  1
  Na  Na7  1  0.03808267  0.69186612  0.57862364  1
  Na  Na8  1  0.64577631  0.94862161  0.57761030  1
  Na  Na9  1  0.30284630  0.94862161  0.07761030  1
  Na  Na10  1  0.65378446  0.69186612  0.07862364  1
  Na  Na11  1  0.04153486  0.35344607  0.08185563  1
  Na  Na12  1  0.97995852  0.68915204  0.91620643  1
  Na  Na13  1  0.70705235  0.02728092  0.90962485  1
  Na  Na14  1  0.31493998  0.28505789  0.91217451  1
  Na  Na15  1  0.97011691  0.28505789  0.41217451  1
  Na  Na16  1  0.32022758  0.02728092  0.40962485  1
  Na  Na17  1  0.70919253  0.68915204  0.41620643  1
  Na  Na18  1  0.99252685  0.99554034  0.49210021  1
  Na  Na19  1  0.00301350  0.99554034  0.99210021  1
  Na  Na20  1  0.66328827  0.32498967  0.82564225  1
  Na  Na21  1  0.66170240  0.32498967  0.32564225  1
  Na  Na22  1  0.32663239  0.66758351  0.15930371  1
  Na  Na23  1  0.34095013  0.66758351  0.65930371  1
  Zr  Zr0  1  0.99245228  0.99515057  0.64903401  1
  Zr  Zr1  1  0.00269829  0.99515057  0.14903401  1
  Zr  Zr2  1  0.66689699  0.33413102  0.98262407  1
  Zr  Zr3  1  0.66723503  0.33413102  0.48262407  1
  Zr  Zr4  1  0.33657207  0.67520003  0.31600009  1
  Zr  Zr5  1  0.33862695  0.67520003  0.81600009  1
  Zn  Zn0  1  0.99966724  0.00090769  0.34553252  1
  Zn  Zn1  1  0.00124044  0.00090769  0.84553252  1
  Zn  Zn2  1  0.66451479  0.32955746  0.67917826  1
  Zn  Zn3  1  0.66504367  0.32955746  0.17917826  1
  Zn  Zn4  1  0.32018938  0.66948695  0.01244623  1
  Zn  Zn5  1  0.34929657  0.66948695  0.51244623  1
  Si  Si0  1  0.30037141  0.00475739  0.25316328  1
  Si  Si1  1  0.70438598  0.00475739  0.75316328  1
  Si  Si2  1  0.66418785  0.62705471  0.58641354  1
  Si  Si3  1  0.96286786  0.62705471  0.08641354  1
  Si  Si4  1  0.32943246  0.96712904  0.91855292  1
  Si  Si5  1  0.63769558  0.96712904  0.41855292  1
  P  P0  1  0.70369213  0.70322486  0.25268405  1
  P  P1  1  0.00054056  0.29519772  0.25183872  1
  P  P2  1  0.29465716  0.29519772  0.75183872  1
  P  P3  1  0.99953272  0.70322486  0.75268405  1
  P  P4  1  0.96480282  0.33574847  0.58537189  1
  P  P5  1  0.36954724  0.03653625  0.58576004  1
  P  P6  1  0.66699001  0.03653625  0.08576004  1
  P  P7  1  0.37094665  0.33574847  0.08537189  1
  P  P8  1  0.62599897  0.66561876  0.92006223  1
  P  P9  1  0.03919235  0.37126354  0.91906094  1
  P  P10  1  0.33207019  0.37126354  0.41906094  1
  P  P11  1  0.03961879  0.66561876  0.42006223  1
  O  O0  1  0.21455441  0.03247816  0.31163089  1
  O  O1  1  0.80889474  0.78516059  0.30815995  1
  O  O2  1  0.97444179  0.18903758  0.30788968  1
  O  O3  1  0.21459578  0.18903758  0.80788968  1
  O  O4  1  0.97626585  0.78516059  0.80815995  1
  O  O5  1  0.81792375  0.03247816  0.81163089  1
  O  O6  1  0.79484217  0.97206051  0.69398783  1
  O  O7  1  0.18353718  0.20832576  0.69568313  1
  O  O8  1  0.03070292  0.81795097  0.69624145  1
  O  O9  1  0.78724805  0.81795097  0.19624145  1
  O  O10  1  0.02478857  0.20832576  0.19568313  1
  O  O11  1  0.17721834  0.97206051  0.19398783  1
  O  O12  1  0.88329433  0.35823088  0.64141927  1
  O  O13  1  0.47676966  0.11411755  0.64130267  1
  O  O14  1  0.63911639  0.51406208  0.64493568  1
  O  O15  1  0.87494669  0.51406208  0.14493568  1
  O  O16  1  0.63734890  0.11411755  0.14130267  1
  O  O17  1  0.47493754  0.35823088  0.14141927  1
  O  O18  1  0.45500762  0.30384106  0.02962000  1
  O  O19  1  0.84292292  0.53891631  0.02669908  1
  O  O20  1  0.69138966  0.14993313  0.02958243  1
  O  O21  1  0.45854447  0.14993313  0.52958243  1
  O  O22  1  0.69599439  0.53891631  0.52669908  1
  O  O23  1  0.84883443  0.30384106  0.52962000  1
  O  O24  1  0.54092182  0.68597929  0.97547818  1
  O  O25  1  0.14590563  0.45072199  0.97466042  1
  O  O26  1  0.29938207  0.85433564  0.97754903  1
  O  O27  1  0.55495256  0.85433564  0.47754903  1
  O  O28  1  0.30481537  0.45072199  0.47466042  1
  O  O29  1  0.14505647  0.68597929  0.47547818  1
  O  O30  1  0.12418636  0.63812042  0.36340570  1
  O  O31  1  0.51185501  0.87474755  0.36001518  1
  O  O32  1  0.35874475  0.48308693  0.36259420  1
  O  O33  1  0.12434119  0.48308693  0.86259420  1
  O  O34  1  0.36289154  0.87474755  0.86001518  1
  O  O35  1  0.51393306  0.63812042  0.86340570  1
  O  O36  1  0.01574668  0.81845696  0.41367314  1
  O  O37  1  0.82451209  0.98928315  0.41122214  1
  O  O38  1  0.18101626  0.19370407  0.41408121  1
  O  O39  1  0.01268781  0.19370407  0.91408121  1
  O  O40  1  0.16477105  0.98928315  0.91122214  1
  O  O41  1  0.80271028  0.81845696  0.91367314  1
  O  O42  1  0.98236339  0.17443284  0.58848873  1
  O  O43  1  0.19618534  0.03125435  0.58834005  1
  O  O44  1  0.84084550  0.81477908  0.58772789  1
  O  O45  1  0.97393358  0.81477908  0.08772789  1
  O  O46  1  0.83506902  0.03125435  0.08834005  1
  O  O47  1  0.19206945  0.17443284  0.08848873  1
  O  O48  1  0.67802515  0.16627152  0.74570907  1
  O  O49  1  0.47275575  0.32006599  0.74670573  1
  O  O50  1  0.84605551  0.52763758  0.74658095  1
  O  O51  1  0.68158307  0.52763758  0.24658095  1
  O  O52  1  0.84731124  0.32006599  0.24670573  1
  O  O53  1  0.48824737  0.16627152  0.24570907  1
  O  O54  1  0.63947468  0.50194078  0.92189655  1
  O  O55  1  0.86287121  0.36131001  0.92224141  1
  O  O56  1  0.50506022  0.15304726  0.92058757  1
  O  O57  1  0.64798804  0.15304726  0.42058757  1
  O  O58  1  0.49843980  0.36131001  0.42224141  1
  O  O59  1  0.86246710  0.50194078  0.42189655  1
  O  O60  1  0.35127308  0.49077314  0.07767338  1
  O  O61  1  0.15078975  0.65062502  0.08166053  1
  O  O62  1  0.51822685  0.85790562  0.07943337  1
  O  O63  1  0.33967777  0.85790562  0.57943337  1
  O  O64  1  0.49983427  0.65062502  0.58166053  1
  O  O65  1  0.13949906  0.49077314  0.57767338  1
  O  O66  1  0.30837583  0.82696412  0.25426683  1
  O  O67  1  0.52502459  0.68742179  0.25532879  1
  O  O68  1  0.16624559  0.47015312  0.25482400  1
  O  O69  1  0.30390653  0.47015312  0.75482400  1
  O  O70  1  0.16239620  0.68742179  0.75532879  1
  O  O71  1  0.51858729  0.82696412  0.75426683  1
loop_
_geom_bond_atom_site_label_1
_geom_bond_atom_site_label_2
_geom_bond_distance
_geom_bond_site_symmetry_2
Na0 O53 2.361167 1_555
Na0 O52 2.455331 1_555
Na0 O16 2.517270 1_555
Na0 O66 2.644890 1_545
Na0 O67 2.701919 1_545
Na0 O31 2.816040 1_545
Na1 O53 2.427256 1_555
Na1 O51 2.448129 1_555
Na1 O17 2.556991 1_555
Na1 O68 2.612024 1_555
Na1 O67 2.667393 1_555
Na1 O32 2.858034 1_555
Na1 O0 2.925253 1_555
Na1 O10 3.033277 1_555
Na2 O15 2.411678 1_555
Na2 O52 2.430519 1_555
Na2 O51 2.466825 1_555
Na2 O66 2.612632 1_655
Na2 O68 2.676145 1_655
Na3 O14 2.411680 1_555
Na3 O49 2.430519 1_555
Na3 O50 2.466834 1_555
Na3 O71 2.612640 1_555
Na3 O69 2.676153 1_555
Na4 O48 2.427249 1_555
Na4 O50 2.448121 1_555
Na4 O12 2.556988 1_555
Na4 O69 2.612016 1_655
Na4 O70 2.667392 1_655
Na4 O33 2.858031 1_655
Na4 O5 2.925253 1_555
Na4 O7 3.033277 1_655
Na5 O48 2.361175 1_555
Na5 O49 2.455329 1_555
Na5 O13 2.517272 1_555
Na5 O71 2.644883 1_545
Na5 O70 2.701920 1_545
Na5 O34 2.816038 1_545
Na6 O64 2.399662 1_555
Na6 O65 2.467834 1_555
Na6 O28 2.566352 1_555
Na6 O43 2.608425 1_555
Na6 O42 2.626854 1_455
Na6 O7 2.835905 1_555
Na7 O63 2.402142 1_555
Na7 O65 2.450310 1_555
Na7 O29 2.518803 1_555
Na7 O44 2.574528 1_455
Na7 O43 2.721955 1_565
Na7 O8 2.897811 1_555
Na7 O22 2.964581 1_455
Na7 O12 3.003371 1_455
Na8 O64 2.380155 1_555
Na8 O27 2.401223 1_555
Na8 O63 2.497120 1_555
Na8 O44 2.637019 1_555
Na8 O42 2.741943 1_565
Na8 O6 2.899474 1_555
Na9 O61 2.380155 1_555
Na9 O26 2.401220 1_554
Na9 O62 2.497103 1_555
Na9 O45 2.637027 1_455
Na9 O47 2.741950 1_565
Na9 O11 2.899478 1_555
Na10 O62 2.402158 1_555
Na10 O60 2.450324 1_555
Na10 O24 2.518811 1_554
Na10 O45 2.574520 1_555
Na10 O46 2.721955 1_565
Na10 O9 2.897809 1_555
Na10 O19 2.964581 1_555
Na10 O17 3.003371 1_555
Na11 O61 2.399664 1_555
Na11 O60 2.467818 1_555
Na11 O25 2.566348 1_554
Na11 O46 2.608426 1_455
Na11 O47 2.626846 1_555
Na11 O10 2.835903 1_555
Na12 O40 2.418785 1_655
Na12 O41 2.445910 1_555
Na12 O4 2.574100 1_555
Na12 O55 2.654582 1_555
Na12 O54 2.714001 1_555
Na12 O19 2.797193 1_556
Na12 O26 2.891802 1_655
Na13 O5 2.406627 1_555
Na13 O39 2.435635 1_655
Na13 O41 2.479285 1_545
Na13 O56 2.639064 1_555
Na13 O55 2.685764 1_555
Na13 O20 2.949935 1_556
Na13 O34 2.960422 1_545
Na14 O40 2.361615 1_545
Na14 O39 2.462147 1_555
Na14 O3 2.508064 1_555
Na14 O56 2.579245 1_555
Na14 O54 2.640672 1_555
Na14 O18 2.892711 1_556
Na15 O37 2.361615 1_545
Na15 O38 2.462156 1_655
Na15 O2 2.508066 1_555
Na15 O57 2.579228 1_555
Na15 O59 2.640658 1_555
Na15 O23 2.892703 1_555
Na16 O0 2.406624 1_555
Na16 O38 2.435627 1_555
Na16 O36 2.479278 1_545
Na16 O57 2.639081 1_555
Na16 O58 2.685765 1_555
Na16 O21 2.949940 1_555
Na16 O31 2.960422 1_545
Na17 O37 2.418784 1_555
Na17 O36 2.445918 1_655
Na17 O1 2.574102 1_555
Na17 O58 2.654579 1_555
Na17 O59 2.714016 1_555
Na17 O22 2.797197 1_555
Na17 O27 2.891802 1_555
Na18 O37 2.358347 1_555
Na18 O36 2.483239 1_655
Na18 O38 2.485307 1_665
Na18 O44 2.631750 1_555
Na18 O42 2.751949 1_565
Na18 O43 2.761710 1_665
Na19 O40 2.358347 1_555
Na19 O41 2.483239 1_455
Na19 O39 2.485307 1_565
Na19 O45 2.631750 1_456
Na19 O47 2.751949 1_566
Na19 O46 2.761710 1_466
Na20 O48 2.363038 1_555
Na20 O49 2.468292 1_555
Na20 O50 2.501473 1_555
Na20 O56 2.605461 1_555
Na20 O55 2.744024 1_555
Na20 O54 2.782319 1_555
Na21 O53 2.363038 1_555
Na21 O52 2.468292 1_555
Na21 O51 2.501473 1_555
Na21 O57 2.605461 1_555
Na21 O58 2.744024 1_555
Na21 O59 2.782319 1_555
Na22 O61 2.322151 1_555
Na22 O62 2.497865 1_555
Na22 O60 2.538264 1_555
Na22 O66 2.642421 1_555
Na22 O68 2.704982 1_555
Na22 O67 2.762200 1_555
Na23 O64 2.322151 1_555
Na23 O63 2.497865 1_555
Na23 O65 2.538264 1_555
Na23 O71 2.642421 1_555
Na23 O69 2.704982 1_555
Na23 O70 2.762200 1_555
O0 Si0 1.612239 1_555
O0 Zn0 1.991275 1_455
O1 P0 1.525791 1_555
O1 Zn0 2.065443 1_565
O2 P1 1.528078 1_655
O2 Zn0 2.034660 1_555
O3 P2 1.528078 1_555
O3 Zn1 2.034660 1_555
O4 P3 1.525791 1_555
O4 Zn1 2.065443 1_665
O5 Si1 1.612239 1_555
O5 Zn1 1.991275 1_655
O6 Si1 1.668731 1_565
O6 Zr0 1.987527 1_555
O7 P2 1.567896 1_555
O7 Zr0 2.147973 1_445
O8 P3 1.572462 1_455
O8 Zr0 2.108128 1_455
O9 P0 1.572462 1_555
O9 Zr1 2.108128 1_655
O10 P1 1.567896 1_555
O10 Zr1 2.147973 1_545
O11 Si0 1.668731 1_565
O11 Zr1 1.987527 1_555
O12 P4 1.526702 1_555
O12 Zn2 2.067222 1_555
O13 P5 1.527600 1_555
O13 Zn2 2.058522 1_555
O14 Si2 1.609994 1_555
O14 Zn2 1.975082 1_555
O15 Si3 1.609994 1_555
O15 Zn3 1.975082 1_555
O16 P6 1.527600 1_555
O16 Zn3 2.058522 1_555
O17 P7 1.526702 1_555
O17 Zn3 2.067222 1_555
O18 P7 1.570370 1_555
O18 Zr2 2.100238 1_554
O19 Si3 1.666950 1_555
O19 Zr2 2.031373 1_554
O20 P6 1.571200 1_555
O20 Zr2 2.093581 1_554
O21 P5 1.571200 1_555
O21 Zr3 2.093581 1_555
O22 Si2 1.666950 1_555
O22 Zr3 2.031373 1_555
O23 P4 1.570370 1_555
O23 Zr3 2.100238 1_555
O24 P8 1.526111 1_555
O24 Zn4 2.119379 1_556
O25 P9 1.529497 1_555
O25 Zn4 2.035275 1_556
O26 Si4 1.610073 1_555
O26 Zn4 1.961029 1_556
O27 Si5 1.610073 1_555
O27 Zn5 1.961029 1_555
O28 P10 1.529497 1_555
O28 Zn5 2.035275 1_555
O29 P11 1.526111 1_555
O29 Zn5 2.119379 1_555
O30 P11 1.572054 1_555
O30 Zr4 2.088892 1_555
O31 Si5 1.675588 1_555
O31 Zr4 2.002913 1_555
O32 P10 1.564201 1_555
O32 Zr4 2.141796 1_555
O33 P9 1.564201 1_555
O33 Zr5 2.141796 1_555
O34 Si4 1.675588 1_555
O34 Zr5 2.002913 1_555
O35 P8 1.572054 1_555
O35 Zr5 2.088892 1_555
O36 P11 1.533354 1_555
O36 Zn0 2.318883 1_465
O37 Si5 1.628378 1_555
O37 Zn0 2.138927 1_565
O38 P10 1.532968 1_555
O38 Zn0 2.316294 1_455
O39 P9 1.532971 1_555
O39 Zn1 2.316294 1_555
O40 Si4 1.628369 1_555
O40 Zn1 2.138927 1_565
O41 P8 1.533359 1_555
O41 Zn1 2.318883 1_665
O42 P4 1.572303 1_555
O42 Zr0 2.165112 1_545
O43 P5 1.566186 1_555
O43 Zr0 2.194650 1_445
O44 Si2 1.680265 1_555
O44 Zr0 2.074481 1_555
O45 Si3 1.680269 1_555
O45 Zr1 2.074481 1_655
O46 P6 1.566177 1_555
O46 Zr1 2.194650 1_645
O47 P7 1.572309 1_555
O47 Zr1 2.165112 1_545
O48 Si1 1.628079 1_555
O48 Zn2 2.155059 1_555
O49 P2 1.535333 1_555
O49 Zn2 2.285589 1_555
O50 P3 1.532649 1_555
O50 Zn2 2.320514 1_555
O51 P0 1.532652 1_555
O51 Zn3 2.320514 1_555
O52 P1 1.535324 1_655
O52 Zn3 2.285589 1_555
O53 Si0 1.628084 1_555
O53 Zn3 2.155059 1_555
O54 P8 1.572029 1_555
O54 Zr2 2.156957 1_555
O55 P9 1.573869 1_655
O55 Zr2 2.159005 1_555
O56 Si4 1.667364 1_545
O56 Zr2 2.115547 1_555
O57 Si5 1.667355 1_545
O57 Zr3 2.115547 1_555
O58 P10 1.573888 1_555
O58 Zr3 2.159005 1_555
O59 P11 1.572018 1_655
O59 Zr3 2.156957 1_555
O60 P7 1.533357 1_555
O60 Zn4 2.313045 1_555
O61 Si3 1.628506 1_455
O61 Zn4 2.136883 1_555
O62 P6 1.534191 1_565
O62 Zn4 2.334632 1_555
O63 P5 1.534184 1_565
O63 Zn5 2.334632 1_555
O64 Si2 1.628525 1_555
O64 Zn5 2.136883 1_555
O65 P4 1.533346 1_455
O65 Zn5 2.313045 1_555
O66 Si0 1.674305 1_565
O66 Zr4 2.063620 1_555
O67 P0 1.571133 1_555
O67 Zr4 2.154645 1_555
O68 P1 1.571861 1_555
O68 Zr4 2.230505 1_555
O69 P2 1.571865 1_555
O69 Zr5 2.230505 1_555
O70 P3 1.571124 1_455
O70 Zr5 2.154645 1_555
O71 Si1 1.674310 1_565
O71 Zr5 2.063620 1_555
