# generated using pymatgen
data_Na4Mg2Al2SiS5O24
_symmetry_space_group_name_H-M   'P 1'
_cell_length_a   8.66499083
_cell_length_b   8.63185838
_cell_length_c   21.89031097
_cell_angle_alpha   89.97065979
_cell_angle_beta   90.14893330
_cell_angle_gamma   119.90022215
_symmetry_Int_Tables_number   1
_chemical_formula_structural   Na4Mg2Al2SiS5O24
_chemical_formula_sum   'Na12 Mg6 Al6 Si3 S15 O72'
_cell_volume   1419.34870578
_cell_formula_units_Z   3
loop_
 _symmetry_equiv_pos_site_id
 _symmetry_equiv_pos_as_xyz
  1  'x, y, z'
loop_
 _atom_site_type_symbol
 _atom_site_label
 _atom_site_symmetry_multiplicity
 _atom_site_fract_x
 _atom_site_fract_y
 _atom_site_fract_z
 _atom_site_occupancy
  Na  Na0  1  0.99826291  0.63387485  0.24101966  1
  Na  Na1  1  0.99492572  0.35702036  0.75713926  1
  Na  Na2  1  0.37445916  0.99652155  0.74885186  1
  Na  Na3  1  0.65857702  0.97626349  0.59083658  1
  Na  Na4  1  0.68003572  0.68347935  0.07858951  1
  Na  Na5  1  0.33613194  0.03641508  0.42253539  1
  Na  Na6  1  0.01666256  0.00373748  0.50389708  1
  Na  Na7  1  0.01405221  0.99328709  0.00323576  1
  Na  Na8  1  0.66568880  0.33402809  0.83971697  1
  Na  Na9  1  0.66653185  0.33392202  0.33097580  1
  Na  Na10  1  0.31683862  0.66195900  0.16069157  1
  Na  Na11  1  0.34697403  0.67251450  0.66613003  1
  Mg  Mg0  1  0.99642430  0.00110367  0.35386127  1
  Mg  Mg1  1  0.67379312  0.33480560  0.17835519  1
  Mg  Mg2  1  0.67533993  0.34356466  0.98625813  1
  Mg  Mg3  1  0.65598447  0.32827772  0.48453635  1
  Mg  Mg4  1  0.33614518  0.66473649  0.31140698  1
  Mg  Mg5  1  0.34945879  0.67577719  0.81394769  1
  Al  Al0  1  0.98622510  0.99981711  0.85489755  1
  Al  Al1  1  0.99987393  0.99515596  0.64793626  1
  Al  Al2  1  0.00425049  0.00226723  0.14685094  1
  Al  Al3  1  0.65909048  0.31585881  0.68222205  1
  Al  Al4  1  0.32267286  0.66845185  0.01714770  1
  Al  Al5  1  0.32895020  0.67027605  0.52030457  1
  Si  Si0  1  0.71630906  0.00162356  0.74682341  1
  Si  Si1  1  0.35786098  0.03158580  0.58215191  1
  Si  Si2  1  0.97490960  0.63887285  0.08519909  1
  S  S0  1  0.29486117  0.00790492  0.25131488  1
  S  S1  1  0.70711470  0.71127295  0.24884148  1
  S  S2  1  0.99666917  0.28368336  0.24916246  1
  S  S3  1  0.28986034  0.28349228  0.74950826  1
  S  S4  1  0.98623128  0.70930459  0.75078893  1
  S  S5  1  0.96485700  0.33867603  0.58377075  1
  S  S6  1  0.66623760  0.61924742  0.58459801  1
  S  S7  1  0.66567118  0.03374956  0.08233068  1
  S  S8  1  0.36408911  0.33181336  0.08217384  1
  S  S9  1  0.62828439  0.67091335  0.91693551  1
  S  S10  1  0.04684328  0.37186840  0.91444926  1
  S  S11  1  0.32574523  0.96077535  0.91382198  1
  S  S12  1  0.62547838  0.95322472  0.41896534  1
  S  S13  1  0.33448428  0.38458918  0.41888652  1
  S  S14  1  0.03978834  0.66049761  0.41646626  1
  O  O0  1  0.22044089  0.02604954  0.31025327  1
  O  O1  1  0.81875895  0.79465780  0.30342036  1
  O  O2  1  0.98709791  0.18849779  0.30561693  1
  O  O3  1  0.21602247  0.16808871  0.80453008  1
  O  O4  1  0.96861802  0.79408625  0.80696867  1
  O  O5  1  0.84942868  0.04348255  0.80561901  1
  O  O6  1  0.81383336  0.98612499  0.68547735  1
  O  O7  1  0.17756135  0.19797903  0.69515468  1
  O  O8  1  0.02663761  0.82735724  0.69704283  1
  O  O9  1  0.79748941  0.81723315  0.19297178  1
  O  O10  1  0.01101923  0.18984074  0.19462911  1
  O  O11  1  0.17300328  0.98550644  0.19983136  1
  O  O12  1  0.88846823  0.37211602  0.64059388  1
  O  O13  1  0.49988709  0.12779460  0.63983351  1
  O  O14  1  0.64646959  0.50856485  0.63940891  1
  O  O15  1  0.89833528  0.52485348  0.14760317  1
  O  O16  1  0.62280793  0.10280715  0.13687847  1
  O  O17  1  0.47846601  0.36874521  0.13648112  1
  O  O18  1  0.43309707  0.28538138  0.02836180  1
  O  O19  1  0.83059884  0.55393575  0.03062329  1
  O  O20  1  0.69295355  0.14084329  0.02755442  1
  O  O21  1  0.43579587  0.14175788  0.52001165  1
  O  O22  1  0.69838328  0.54720597  0.52932148  1
  O  O23  1  0.84891180  0.30706093  0.53117819  1
  O  O24  1  0.54093983  0.69291755  0.97256814  1
  O  O25  1  0.16360087  0.46769990  0.96706840  1
  O  O26  1  0.30488370  0.84358722  0.96651462  1
  O  O27  1  0.53764264  0.84927297  0.47618575  1
  O  O28  1  0.32094072  0.47774043  0.47450190  1
  O  O29  1  0.16035925  0.68530639  0.46950122  1
  O  O30  1  0.11765859  0.64315985  0.35881681  1
  O  O31  1  0.51180950  0.86788490  0.36546905  1
  O  O32  1  0.34459641  0.48125025  0.36317108  1
  O  O33  1  0.12363581  0.47116624  0.85695600  1
  O  O34  1  0.34767944  0.88465260  0.85607828  1
  O  O35  1  0.52526415  0.65282866  0.86192168  1
  O  O36  1  0.03041713  0.82901330  0.41561372  1
  O  O37  1  0.80086411  0.96578060  0.41564517  1
  O  O38  1  0.17472674  0.20110000  0.41845402  1
  O  O39  1  0.03850357  0.19314613  0.91152210  1
  O  O40  1  0.15756627  0.97171405  0.90961007  1
  O  O41  1  0.80931109  0.83742788  0.91256332  1
  O  O42  1  0.98085904  0.17526328  0.59025170  1
  O  O43  1  0.16178412  0.00576083  0.59581959  1
  O  O44  1  0.81887506  0.80525036  0.59163166  1
  O  O45  1  0.99622382  0.84067816  0.09511333  1
  O  O46  1  0.82893802  0.01769926  0.09201266  1
  O  O47  1  0.17957207  0.18625994  0.09384532  1
  O  O48  1  0.69778955  0.18794039  0.74166555  1
  O  O49  1  0.47200136  0.30905582  0.74135501  1
  O  O50  1  0.82238224  0.53344094  0.74255543  1
  O  O51  1  0.68542264  0.52949865  0.24474417  1
  O  O52  1  0.83510971  0.30164584  0.24629735  1
  O  O53  1  0.47248840  0.16362952  0.24338426  1
  O  O54  1  0.64881115  0.51232416  0.92147569  1
  O  O55  1  0.86643786  0.34523581  0.92160273  1
  O  O56  1  0.48097144  0.14031297  0.92203162  1
  O  O57  1  0.64628974  0.13487287  0.42278172  1
  O  O58  1  0.49581315  0.36555865  0.42105701  1
  O  O59  1  0.86306480  0.50369943  0.42413355  1
  O  O60  1  0.35832669  0.50115313  0.07116268  1
  O  O61  1  0.17062067  0.66180217  0.07097782  1
  O  O62  1  0.51674451  0.84460344  0.07254684  1
  O  O63  1  0.35191607  0.83527982  0.57586529  1
  O  O64  1  0.50170112  0.63532011  0.57993112  1
  O  O65  1  0.14547832  0.49489348  0.57605799  1
  O  O66  1  0.30281820  0.83850601  0.25214943  1
  O  O67  1  0.53204403  0.69976661  0.25229412  1
  O  O68  1  0.15644932  0.46729717  0.24976864  1
  O  O69  1  0.29988108  0.45832988  0.75582255  1
  O  O70  1  0.14044406  0.67773265  0.75532707  1
  O  O71  1  0.51557877  0.83399150  0.75061173  1
loop_
_geom_bond_atom_site_label_1
_geom_bond_atom_site_label_2
_geom_bond_distance
_geom_bond_site_symmetry_2
Na0 O15 2.235485 1_555
Na0 O66 2.343785 1_655
Na0 O51 2.394315 1_555
Na0 O68 2.438486 1_655
Na0 O52 2.488877 1_555
Na0 O30 2.762188 1_655
Na0 O11 2.782191 1_655
Na0 O1 2.894207 1_555
Na1 O48 2.263497 1_555
Na1 O69 2.333364 1_655
Na1 O70 2.403173 1_655
Na1 O33 2.425474 1_655
Na1 O5 2.577323 1_555
Na1 O50 2.631191 1_555
Na1 O12 2.735664 1_555
Na1 O7 2.899860 1_655
Na2 O71 2.274860 1_555
Na2 O49 2.397116 1_565
Na2 O48 2.447638 1_565
Na2 O70 2.478309 1_555
Na2 O34 2.504567 1_555
Na2 O13 2.634999 1_565
Na2 O3 2.756983 1_565
Na2 O8 2.845729 1_555
Na3 O63 2.328326 1_555
Na3 O42 2.442739 1_565
Na3 O6 2.445525 1_555
Na3 O44 2.480452 1_555
Na3 O13 2.560120 1_565
Na3 O64 2.564469 1_555
Na3 O27 2.728079 1_555
Na3 O23 2.809114 1_565
Na4 O19 2.348974 1_555
Na4 O45 2.401524 1_555
Na4 O60 2.428588 1_555
Na4 O62 2.431991 1_555
Na4 O46 2.522261 1_565
Na4 O24 2.632254 1_554
Na4 O17 2.704532 1_555
Na4 O9 2.730628 1_555
Na5 O21 2.309799 1_555
Na5 O36 2.348479 1_545
Na5 O57 2.380719 1_555
Na5 O38 2.442561 1_555
Na5 O58 2.463410 1_555
Na5 O0 2.636694 1_555
Na5 O29 2.822210 1_545
Na5 O31 2.865917 1_545
Na6 O43 2.365489 1_555
Na6 O38 2.441361 1_555
Na6 O36 2.491385 1_545
Na6 O42 2.515073 1_455
Na6 O44 2.578253 1_445
Na6 O37 2.589788 1_445
Na7 O45 2.366474 1_455
Na7 O40 2.454797 1_554
Na7 O47 2.524394 1_565
Na7 O41 2.549868 1_454
Na7 O39 2.585716 1_564
Na7 O46 2.597593 1_465
Na8 O54 2.412815 1_555
Na8 O56 2.438909 1_555
Na8 O55 2.462609 1_555
Na8 O48 2.574881 1_555
Na8 O50 2.647881 1_555
Na8 O49 2.668394 1_555
Na9 O52 2.463260 1_555
Na9 O51 2.482497 1_555
Na9 O53 2.487222 1_555
Na9 O58 2.563144 1_555
Na9 O59 2.589044 1_555
Na9 O57 2.592186 1_555
Na10 O61 2.333955 1_555
Na10 O68 2.497922 1_555
Na10 O60 2.529969 1_555
Na10 O62 2.549636 1_555
Na10 O66 2.556219 1_555
Na10 O67 2.641813 1_555
Na11 O71 2.335727 1_555
Na11 O63 2.411981 1_555
Na11 O64 2.429808 1_555
Na11 O65 2.569643 1_555
Na11 O69 2.586086 1_555
Na11 O70 2.667527 1_555
Mg0 O2 1.966335 1_555
Mg0 O1 2.005697 1_545
Mg0 O37 2.071218 1_545
Mg0 O0 2.078027 1_655
Mg0 O36 2.133718 1_645
Mg0 O38 2.167608 1_655
Mg1 O15 1.937368 1_555
Mg1 O16 2.036561 1_555
Mg1 O17 2.068003 1_555
Mg1 O52 2.153003 1_555
Mg1 O53 2.166421 1_555
Mg1 O51 2.186174 1_555
Mg2 O19 1.899986 1_556
Mg2 O20 2.041184 1_556
Mg2 O18 2.113339 1_556
Mg2 O54 2.125066 1_555
Mg2 O55 2.175680 1_555
Mg2 O56 2.221612 1_555
Mg3 O21 1.944041 1_555
Mg3 O22 1.993769 1_555
Mg3 O23 2.041271 1_555
Mg3 O58 2.096547 1_555
Mg3 O57 2.117413 1_555
Mg3 O59 2.135954 1_555
Mg4 O32 1.977681 1_555
Mg4 O31 2.030768 1_555
Mg4 O67 2.036305 1_555
Mg4 O30 2.086715 1_555
Mg4 O66 2.108032 1_555
Mg4 O68 2.120219 1_555
Mg5 O35 1.937784 1_555
Mg5 O71 1.976825 1_555
Mg5 O34 2.032492 1_555
Mg5 O33 2.096890 1_555
Mg5 O69 2.126554 1_555
Mg5 O70 2.223835 1_555
Al0 O5 1.774569 1_565
Al0 O39 1.942169 1_665
Al0 O41 1.942728 1_555
Al0 O4 2.002154 1_555
Al0 O40 2.011725 1_655
Al0 O3 2.101555 1_665
Al1 O43 1.777179 1_665
Al1 O6 1.778094 1_555
Al1 O8 1.907673 1_655
Al1 O7 1.951972 1_665
Al1 O44 2.023568 1_555
Al1 O42 2.071448 1_565
Al2 O45 1.771301 1_445
Al2 O10 1.904089 1_555
Al2 O11 1.925109 1_545
Al2 O47 1.943803 1_555
Al2 O9 1.983674 1_445
Al2 O46 1.989591 1_455
Al3 O13 1.778060 1_555
Al3 O48 1.841267 1_555
Al3 O14 1.958688 1_555
Al3 O12 2.015759 1_555
Al3 O49 2.054992 1_555
Al3 O50 2.148750 1_555
Al4 O61 1.749376 1_555
Al4 O25 1.928015 1_554
Al4 O26 1.940963 1_554
Al4 O60 2.005017 1_555
Al4 O62 2.013096 1_555
Al4 O24 2.045734 1_554
Al5 O63 1.807037 1_555
Al5 O29 1.888919 1_555
Al5 O28 1.912718 1_555
Al5 O27 1.952432 1_555
Al5 O65 1.979262 1_555
Al5 O64 2.115445 1_555
O0 S0 1.486658 1_555
O1 S1 1.477165 1_555
O2 S2 1.463121 1_555
O3 S3 1.489868 1_555
O4 S4 1.478004 1_555
O5 Si0 1.641590 1_555
O6 Si0 1.629151 1_565
O7 S3 1.478568 1_555
O8 S4 1.479994 1_455
O9 S1 1.495087 1_555
O10 S2 1.482850 1_455
O11 S0 1.487586 1_565
O12 S5 1.504593 1_555
O13 Si1 1.665106 1_555
O14 S6 1.489445 1_555
O15 Si2 1.620880 1_555
O16 S7 1.463843 1_555
O17 S8 1.475256 1_555
O18 S8 1.465898 1_555
O19 Si2 1.614786 1_555
O20 S7 1.459680 1_555
O21 Si1 1.604348 1_555
O22 S6 1.450395 1_555
O23 S5 1.459522 1_555
O24 S9 1.496765 1_555
O25 S10 1.481595 1_555
O26 S11 1.484576 1_555
O27 S12 1.508736 1_555
O28 S13 1.496087 1_555
O29 S14 1.502018 1_555
O30 S14 1.474967 1_555
O31 S12 1.468208 1_555
O32 S13 1.455322 1_555
O33 S10 1.481890 1_555
O34 S11 1.480625 1_555
O35 S9 1.458481 1_555
O36 S14 1.496842 1_555
O37 S12 1.470687 1_555
O38 S13 1.496329 1_555
O39 S10 1.509371 1_555
O40 S11 1.509147 1_555
O41 S9 1.512753 1_555
O42 S5 1.491210 1_555
O43 Si1 1.628128 1_555
O44 S6 1.494281 1_555
O45 Si2 1.671840 1_555
O46 S7 1.503105 1_555
O47 S8 1.482962 1_555
O48 Si0 1.697652 1_555
O49 S3 1.491857 1_555
O50 S4 1.484190 1_555
O51 S1 1.487050 1_555
O52 S2 1.484473 1_555
O53 S0 1.464389 1_555
O54 S9 1.469003 1_555
O55 S10 1.471039 1_655
O56 S11 1.471047 1_545
O57 S12 1.488677 1_545
O58 S13 1.487276 1_555
O59 S14 1.462779 1_655
O60 S8 1.506503 1_555
O61 Si2 1.637068 1_455
O62 S7 1.508365 1_565
O63 Si1 1.675127 1_565
O64 S6 1.502916 1_555
O65 S5 1.481005 1_455
O66 S0 1.497890 1_565
O67 S1 1.472140 1_555
O68 S2 1.497071 1_455
O69 S3 1.474366 1_555
O70 S4 1.494006 1_455
O71 Si0 1.617817 1_565
