# generated using pymatgen
data_Ta4FeP
_symmetry_space_group_name_H-M   'P 1'
_cell_length_a   6.10750900
_cell_length_b   6.10750900
_cell_length_c   5.09586200
_cell_angle_alpha   90.00000000
_cell_angle_beta   90.00000000
_cell_angle_gamma   90.00000000
_symmetry_Int_Tables_number   1
_chemical_formula_structural   Ta4FeP
_chemical_formula_sum   'Ta8 Fe2 P2'
_cell_volume   190.08414325
_cell_formula_units_Z   2
loop_
 _symmetry_equiv_pos_site_id
 _symmetry_equiv_pos_as_xyz
  1  'x, y, z'
loop_
 _atom_site_type_symbol
 _atom_site_label
 _atom_site_symmetry_multiplicity
 _atom_site_fract_x
 _atom_site_fract_y
 _atom_site_fract_z
 _atom_site_occupancy
  Ta  Ta0  1  0.33042000  0.15747900  0.50000000  1
  Ta  Ta1  1  0.66958000  0.84252100  0.50000000  1
  Ta  Ta2  1  0.15747900  0.66958000  0.50000000  1
  Ta  Ta3  1  0.84252100  0.33042000  0.50000000  1
  Ta  Ta4  1  0.33042000  0.84252100  0.00000000  1
  Ta  Ta5  1  0.84252100  0.66958000  0.00000000  1
  Ta  Ta6  1  0.15747900  0.33042000  0.00000000  1
  Ta  Ta7  1  0.66958000  0.15747900  0.00000000  1
  Fe  Fe0  1  0.00000000  0.00000000  0.75000000  1
  Fe  Fe1  1  0.00000000  0.00000000  0.25000000  1
  P  P0  1  0.50000000  0.50000000  0.75000000  1
  P  P1  1  0.50000000  0.50000000  0.25000000  1
loop_
_geom_bond_atom_site_label_1
_geom_bond_atom_site_label_2
_geom_bond_distance
_geom_bond_site_symmetry_2
Fe0 Fe1 2.547931 1_556
Fe0 Fe1 2.547931 1_555
Fe0 Ta4 2.573044 1_546
Fe0 Ta0 2.573044 1_555
Fe0 Ta6 2.573044 1_556
Fe0 Ta1 2.573044 1_445
Fe0 Ta2 2.573044 1_545
Fe0 Ta7 2.573044 1_456
Fe0 Ta3 2.573044 1_455
Fe0 Ta5 2.573044 1_446
Fe1 Ta4 2.573044 1_545
Fe1 Ta0 2.573044 1_555
Fe1 Ta6 2.573044 1_555
Fe1 Ta1 2.573044 1_445
Fe1 Ta2 2.573044 1_545
Fe1 Ta7 2.573044 1_455
Fe1 Ta3 2.573044 1_455
Fe1 Ta5 2.573044 1_445
P0 P1 2.547931 1_556
P0 P1 2.547931 1_555
P0 Ta3 2.659312 1_555
P0 Ta6 2.659312 1_556
P0 Ta0 2.659312 1_555
P0 Ta1 2.659312 1_555
P0 Ta7 2.659312 1_556
P0 Ta4 2.659312 1_556
P0 Ta2 2.659312 1_555
P0 Ta5 2.659312 1_556
P1 Ta6 2.659312 1_555
P1 Ta3 2.659312 1_555
P1 Ta0 2.659312 1_555
P1 Ta4 2.659312 1_555
P1 Ta1 2.659312 1_555
P1 Ta7 2.659312 1_555
P1 Ta5 2.659312 1_555
P1 Ta2 2.659312 1_555
