# generated using pymatgen
data_K5CuSb2
_symmetry_space_group_name_H-M   'P 1'
_cell_length_a   9.97342970
_cell_length_b   9.97343009
_cell_length_c   9.97343102
_cell_angle_alpha   34.70652321
_cell_angle_beta   34.70651759
_cell_angle_gamma   34.70652014
_symmetry_Int_Tables_number   1
_chemical_formula_structural   K5CuSb2
_chemical_formula_sum   'K5 Cu1 Sb2'
_cell_volume   287.01461191
_cell_formula_units_Z   1
loop_
 _symmetry_equiv_pos_site_id
 _symmetry_equiv_pos_as_xyz
  1  'x, y, z'
loop_
 _atom_site_type_symbol
 _atom_site_label
 _atom_site_symmetry_multiplicity
 _atom_site_fract_x
 _atom_site_fract_y
 _atom_site_fract_z
 _atom_site_occupancy
  K  K0  1  0.50000000  0.50000000  0.50000000  1
  K  K1  1  0.36467337  0.36467337  0.36467337  1
  K  K2  1  0.63532663  0.63532663  0.63532663  1
  K  K3  1  0.21678925  0.21678925  0.21678925  1
  K  K4  1  0.78321075  0.78321075  0.78321075  1
  Cu  Cu0  1  -0.00000000  0.00000000  0.00000000  1
  Sb  Sb0  1  0.08827792  0.08827792  0.08827792  1
  Sb  Sb1  1  0.91172208  0.91172208  0.91172208  1
loop_
_geom_bond_atom_site_label_1
_geom_bond_atom_site_label_2
_geom_bond_distance
_geom_bond_site_symmetry_2
K0 K3 3.712238 1_655
K0 K4 3.712238 1_455
K0 K3 3.712239 1_565
K0 K4 3.712239 1_545
K0 K3 3.712239 1_556
K0 K4 3.712239 1_554
K0 K1 3.801300 1_555
K0 K2 3.801300 1_555
K0 Sb0 4.080063 1_556
K0 Sb1 4.080063 1_554
K0 Sb0 4.080063 1_655
K0 Sb1 4.080063 1_455
K0 Sb1 4.080063 1_545
K0 Sb0 4.080063 1_565
K1 Sb0 3.788988 1_655
K1 Sb0 3.788989 1_565
K1 Sb0 3.788989 1_556
K2 Sb1 3.788988 1_455
K2 Sb1 3.788989 1_545
K2 Sb1 3.788989 1_554
K3 Sb1 3.525458 1_544
K3 Sb1 3.525459 1_454
K3 Sb1 3.525459 1_445
K3 Sb0 3.609860 1_555
K4 Sb0 3.525458 1_566
K4 Sb0 3.525459 1_656
K4 Sb0 3.525459 1_665
K4 Sb1 3.609860 1_555
Cu0 Sb1 2.479711 1_444
Cu0 Sb0 2.479711 1_555
Cu0 K1 3.545903 1_455
Cu0 K2 3.545903 1_544
Cu0 K2 3.545903 1_445
Cu0 K1 3.545903 1_554
Cu0 K2 3.545903 1_454
Cu0 K1 3.545903 1_545
