# generated using pymatgen
data_Na3YSiGe(PO6)2
_symmetry_space_group_name_H-M   'P 1'
_cell_length_a   9.11398045
_cell_length_b   9.11398012
_cell_length_c   22.12560459
_cell_angle_alpha   91.07218820
_cell_angle_beta   88.92781181
_cell_angle_gamma   120.23061363
_symmetry_Int_Tables_number   1
_chemical_formula_structural   Na3YSiGe(PO6)2
_chemical_formula_sum   'Na18 Y6 Si6 Ge6 P12 O72'
_cell_volume   1587.54799540
_cell_formula_units_Z   6
loop_
 _symmetry_equiv_pos_site_id
 _symmetry_equiv_pos_as_xyz
  1  'x, y, z'
loop_
 _atom_site_type_symbol
 _atom_site_label
 _atom_site_symmetry_multiplicity
 _atom_site_fract_x
 _atom_site_fract_y
 _atom_site_fract_z
 _atom_site_occupancy
  Na  Na0  1  0.99385803  0.98565663  0.50244727  1
  Na  Na1  1  0.01434337  0.00614197  0.00244727  1
  Na  Na2  1  0.67359769  0.32229596  0.83505133  1
  Na  Na3  1  0.67770404  0.32640231  0.33505133  1
  Na  Na4  1  0.36951114  0.69291709  0.16904666  1
  Na  Na5  1  0.30708291  0.63048886  0.66904666  1
  Na  Na6  1  0.35242157  0.34465535  0.24883978  1
  Na  Na7  1  0.99218571  0.63955797  0.24446009  1
  Na  Na8  1  0.65534465  0.64757843  0.74883978  1
  Na  Na9  1  0.36044203  0.00781429  0.74446009  1
  Na  Na10  1  0.03553001  0.69652700  0.58116418  1
  Na  Na11  1  0.64708505  0.97300807  0.58640679  1
  Na  Na12  1  0.30347300  0.96446999  0.08116418  1
  Na  Na13  1  0.02699193  0.35291495  0.08640679  1
  Na  Na14  1  0.98903841  0.68834085  0.91976992  1
  Na  Na15  1  0.69235746  0.02074248  0.91330365  1
  Na  Na16  1  0.97925752  0.30764254  0.41330365  1
  Na  Na17  1  0.31165915  0.01096159  0.41976992  1
  Y  Y0  1  0.98508653  0.98750740  0.35443575  1
  Y  Y1  1  0.01249260  0.01491347  0.85443575  1
  Y  Y2  1  0.67552706  0.33430805  0.68820404  1
  Y  Y3  1  0.66569195  0.32447294  0.18820404  1
  Y  Y4  1  0.33687107  0.66434708  0.02065630  1
  Y  Y5  1  0.33565292  0.66312893  0.52065630  1
  Si  Si0  1  0.01365647  0.30070676  0.25295827  1
  Si  Si1  1  0.69929324  0.98634353  0.75295827  1
  Si  Si2  1  0.36264970  0.05408893  0.58428211  1
  Si  Si3  1  0.94591107  0.63735030  0.08428211  1
  Si  Si4  1  0.35481126  0.97628697  0.92066511  1
  Si  Si5  1  0.02371303  0.64518874  0.42066511  1
  Ge  Ge0  1  0.00790492  0.01932589  0.64724563  1
  Ge  Ge1  1  0.98067411  0.99209508  0.14724563  1
  Ge  Ge2  1  0.66047638  0.34567303  0.97909009  1
  Ge  Ge3  1  0.65432697  0.33952362  0.47909009  1
  Ge  Ge4  1  0.32183733  0.65517055  0.31396199  1
  Ge  Ge5  1  0.34482945  0.67816267  0.81396199  1
  P  P0  1  0.28015401  0.97393912  0.25110297  1
  P  P1  1  0.68800071  0.71621283  0.24742506  1
  P  P2  1  0.28378717  0.31199929  0.74742506  1
  P  P3  1  0.02606088  0.71984599  0.75110297  1
  P  P4  1  0.95374853  0.31033620  0.57889422  1
  P  P5  1  0.68793826  0.63857445  0.58571544  1
  P  P6  1  0.68966380  0.04625147  0.07889422  1
  P  P7  1  0.36142555  0.31206174  0.08571544  1
  P  P8  1  0.61873867  0.64387612  0.91095775  1
  P  P9  1  0.03450310  0.39299857  0.91693338  1
  P  P10  1  0.60700143  0.96549690  0.41693338  1
  P  P11  1  0.35612388  0.38126133  0.41095775  1
  O  O0  1  0.20094190  0.98947700  0.31019720  1
  O  O1  1  0.80599305  0.78057894  0.30123632  1
  O  O2  1  0.00693503  0.21091814  0.31479637  1
  O  O3  1  0.21942106  0.19400695  0.80123632  1
  O  O4  1  0.01052300  0.79905810  0.81019720  1
  O  O5  1  0.78908186  0.99306497  0.81479637  1
  O  O6  1  0.80887110  0.96609832  0.69239674  1
  O  O7  1  0.17063507  0.22059307  0.69031581  1
  O  O8  1  0.05251991  0.83628412  0.69506483  1
  O  O9  1  0.77940693  0.82936493  0.19031581  1
  O  O10  1  0.03390168  0.19112890  0.19239674  1
  O  O11  1  0.16371588  0.94748009  0.19506483  1
  O  O12  1  0.87668186  0.34784900  0.63428857  1
  O  O13  1  0.46975618  0.12711674  0.64480624  1
  O  O14  1  0.67477548  0.55190949  0.64491868  1
  O  O15  1  0.87288326  0.53024382  0.14480624  1
  O  O16  1  0.65215100  0.12331814  0.13428857  1
  O  O17  1  0.44809051  0.32522452  0.14491868  1
  O  O18  1  0.46459213  0.29452182  0.02998827  1
  O  O19  1  0.82549359  0.53353656  0.02233288  1
  O  O20  1  0.71632898  0.15586034  0.02162994  1
  O  O21  1  0.46646344  0.17450641  0.52233288  1
  O  O22  1  0.70547818  0.53540787  0.52998827  1
  O  O23  1  0.84413966  0.28367102  0.52162994  1
  O  O24  1  0.53343798  0.67431300  0.96452066  1
  O  O25  1  0.11353478  0.45486344  0.97890027  1
  O  O26  1  0.33628600  0.87603318  0.98154312  1
  O  O27  1  0.54513656  0.88646522  0.47890027  1
  O  O28  1  0.32568700  0.46656202  0.46452066  1
  O  O29  1  0.12396682  0.66371400  0.48154312  1
  O  O30  1  0.12732541  0.61498305  0.36013127  1
  O  O31  1  0.48114783  0.85092252  0.36571332  1
  O  O32  1  0.37264963  0.47959128  0.35094587  1
  O  O33  1  0.14907748  0.51885217  0.86571332  1
  O  O34  1  0.38501695  0.87267459  0.86013127  1
  O  O35  1  0.52040872  0.62735037  0.85094587  1
  O  O36  1  0.00680056  0.81286899  0.41708833  1
  O  O37  1  0.78983240  0.00325143  0.40985186  1
  O  O38  1  0.20637693  0.19591994  0.41004559  1
  O  O39  1  0.99674857  0.21016760  0.90985186  1
  O  O40  1  0.18713101  0.99319944  0.91708833  1
  O  O41  1  0.80408006  0.79362307  0.91004559  1
  O  O42  1  0.94420131  0.13312010  0.58680807  1
  O  O43  1  0.17217006  0.03918477  0.58978145  1
  O  O44  1  0.85962492  0.81378850  0.58541814  1
  O  O45  1  0.96081523  0.82782994  0.08978145  1
  O  O46  1  0.86687990  0.05579869  0.08680807  1
  O  O47  1  0.18621150  0.14037508  0.08541814  1
  O  O48  1  0.65857272  0.14002638  0.75093055  1
  O  O49  1  0.46926260  0.35635550  0.73912052  1
  O  O50  1  0.86602493  0.54444588  0.74710752  1
  O  O51  1  0.64364450  0.53073740  0.23912052  1
  O  O52  1  0.85997362  0.34142728  0.25093055  1
  O  O53  1  0.45555412  0.13397507  0.24710752  1
  O  O54  1  0.62457197  0.47532404  0.91766185  1
  O  O55  1  0.86182030  0.39351802  0.91543061  1
  O  O56  1  0.53903653  0.16329930  0.92401731  1
  O  O57  1  0.60648198  0.13817970  0.41543061  1
  O  O58  1  0.52467596  0.37542803  0.41766185  1
  O  O59  1  0.83670070  0.46096347  0.42401731  1
  O  O60  1  0.32689053  0.45940369  0.08076629  1
  O  O61  1  0.13802517  0.66679700  0.07947145  1
  O  O62  1  0.54561563  0.86138216  0.07681327  1
  O  O63  1  0.33320300  0.86197483  0.57947145  1
  O  O64  1  0.54059631  0.67310947  0.58076629  1
  O  O65  1  0.13861784  0.45438437  0.57681327  1
  O  O66  1  0.29056009  0.80691265  0.25356946  1
  O  O67  1  0.52115723  0.72211776  0.25749230  1
  O  O68  1  0.19946821  0.48988765  0.25188129  1
  O  O69  1  0.27788224  0.47884277  0.75749230  1
  O  O70  1  0.19308735  0.70943991  0.75356946  1
  O  O71  1  0.51011235  0.80053179  0.75188129  1
loop_
_geom_bond_atom_site_label_1
_geom_bond_atom_site_label_2
_geom_bond_distance
_geom_bond_site_symmetry_2
Na0 O44 2.326864 1_555
Na0 O43 2.428336 1_665
Na0 O42 2.445819 1_565
Na0 O36 2.475509 1_655
Na0 O38 2.804369 1_665
Na0 O37 2.852336 1_565
Na1 O47 2.326864 1_555
Na1 O45 2.428336 1_445
Na1 O46 2.445820 1_455
Na1 O40 2.475509 1_544
Na1 O41 2.804369 1_444
Na1 O39 2.852336 1_454
Na2 O55 2.340231 1_555
Na2 O56 2.388614 1_555
Na2 O48 2.430485 1_555
Na2 O54 2.446886 1_555
Na2 O50 2.721283 1_555
Na2 O49 2.970584 1_555
Na3 O57 2.340231 1_555
Na3 O59 2.388614 1_555
Na3 O52 2.430485 1_555
Na3 O58 2.446886 1_555
Na3 O53 2.721283 1_555
Na3 O51 2.970584 1_555
Na4 O67 2.349868 1_555
Na4 O66 2.392540 1_555
Na4 O68 2.513517 1_555
Na4 O62 2.571230 1_555
Na4 O60 2.745151 1_555
Na4 O61 2.840561 1_555
Na5 O69 2.349868 1_555
Na5 O70 2.392540 1_555
Na5 O71 2.513517 1_555
Na5 O65 2.571230 1_555
Na5 O64 2.745152 1_555
Na5 O63 2.840561 1_555
Na6 O51 2.329554 1_555
Na6 O68 2.356060 1_555
Na6 O17 2.478647 1_555
Na6 O32 2.516647 1_555
Na6 O53 2.526893 1_555
Na6 O10 2.815103 1_555
Na7 O52 2.359364 1_555
Na7 O66 2.365254 1_655
Na7 O15 2.439904 1_555
Na7 O11 2.673435 1_655
Na7 O51 2.815241 1_555
Na7 O68 2.841057 1_655
Na7 O1 2.857558 1_555
Na7 O30 2.921360 1_655
Na8 O49 2.329554 1_555
Na8 O71 2.356060 1_555
Na8 O14 2.478647 1_555
Na8 O35 2.516647 1_555
Na8 O50 2.526893 1_555
Na8 O6 2.815103 1_555
Na9 O48 2.359364 1_555
Na9 O70 2.365254 1_545
Na9 O13 2.439904 1_555
Na9 O8 2.673436 1_545
Na9 O49 2.815241 1_555
Na9 O71 2.841057 1_545
Na9 O3 2.857558 1_555
Na9 O34 2.921360 1_545
Na10 O44 2.331768 1_455
Na10 O63 2.348269 1_555
Na10 O29 2.397717 1_555
Na10 O43 2.722235 1_565
Na10 O8 2.773675 1_555
Na10 O65 2.799803 1_555
Na10 O22 2.846803 1_455
Na10 O12 3.003267 1_455
Na11 O42 2.341721 1_565
Na11 O64 2.397673 1_555
Na11 O63 2.515320 1_555
Na11 O27 2.533366 1_555
Na11 O6 2.811771 1_555
Na11 O23 2.869039 1_565
Na11 O13 2.897249 1_565
Na11 O44 2.947250 1_555
Na12 O47 2.331767 1_565
Na12 O61 2.348269 1_555
Na12 O26 2.397717 1_554
Na12 O45 2.722235 1_455
Na12 O11 2.773675 1_555
Na12 O62 2.799803 1_555
Na12 O18 2.846803 1_565
Na12 O16 3.003267 1_565
Na13 O46 2.341721 1_455
Na13 O60 2.397673 1_555
Na13 O61 2.515320 1_555
Na13 O25 2.533366 1_554
Na13 O10 2.811771 1_555
Na13 O20 2.869039 1_455
Na13 O15 2.897249 1_455
Na13 O47 2.947250 1_555
Na14 O55 2.330434 1_555
Na14 O41 2.336382 1_555
Na14 O40 2.435959 1_655
Na14 O4 2.609393 1_655
Na14 O19 2.690259 1_556
Na15 O56 2.345454 1_555
Na15 O5 2.392186 1_545
Na15 O39 2.420086 1_555
Na15 O20 2.635721 1_556
Na15 O34 2.703495 1_545
Na15 O41 2.727784 1_545
Na16 O59 2.345454 1_555
Na16 O2 2.392186 1_655
Na16 O37 2.420086 1_555
Na16 O23 2.635721 1_555
Na16 O30 2.703495 1_655
Na16 O38 2.727784 1_655
Na17 O57 2.330434 1_555
Na17 O38 2.336382 1_555
Na17 O36 2.435959 1_545
Na17 O0 2.609393 1_545
Na17 O21 2.690259 1_555
Ge0 O43 1.885511 1_555
Ge0 O6 1.894224 1_445
Ge0 O7 1.928876 1_555
Ge0 O42 1.971839 1_455
Ge0 O44 2.151950 1_445
Ge0 O8 2.198410 1_545
Ge1 O45 1.885511 1_555
Ge1 O10 1.894224 1_665
Ge1 O9 1.928876 1_555
Ge1 O46 1.971839 1_565
Ge1 O47 2.151950 1_665
Ge1 O11 2.198410 1_655
Ge2 O19 1.873085 1_556
Ge2 O56 1.895979 1_555
Ge2 O18 1.943997 1_556
Ge2 O54 1.953640 1_555
Ge2 O55 2.159148 1_555
Ge2 O20 2.259060 1_556
Ge3 O21 1.873085 1_555
Ge3 O59 1.895979 1_555
Ge3 O22 1.943997 1_555
Ge3 O58 1.953640 1_555
Ge3 O57 2.159148 1_555
Ge3 O23 2.259060 1_555
Ge4 O30 1.900737 1_555
Ge4 O68 1.920390 1_555
Ge4 O31 1.994876 1_555
Ge4 O67 2.015154 1_555
Ge4 O32 2.062572 1_555
Ge4 O66 2.063917 1_555
Ge5 O34 1.900737 1_555
Ge5 O71 1.920390 1_555
Ge5 O33 1.994876 1_555
Ge5 O69 2.015154 1_555
Ge5 O35 2.062572 1_555
Ge5 O70 2.063917 1_555
O0 P0 1.520357 1_555
O0 Y0 2.172945 1_455
O1 P1 1.518109 1_555
O1 Y0 2.120277 1_555
O2 Si0 1.591757 1_555
O2 Y0 2.146353 1_445
O3 P2 1.518109 1_555
O3 Y1 2.120277 1_555
O4 P3 1.520357 1_555
O4 Y1 2.172945 1_565
O5 Si1 1.591757 1_555
O5 Y1 2.146353 1_665
O6 Si1 1.718471 1_555
O7 P2 1.580638 1_555
O8 P3 1.581767 1_555
O9 P1 1.580638 1_555
O10 Si0 1.718471 1_555
O11 P0 1.581767 1_555
O12 P4 1.518658 1_555
O12 Y2 2.120182 1_555
O13 Si2 1.597028 1_555
O13 Y2 2.106752 1_555
O14 P5 1.513789 1_555
O14 Y2 2.221579 1_555
O15 Si3 1.597028 1_555
O15 Y3 2.106752 1_555
O16 P6 1.518658 1_555
O16 Y3 2.120182 1_555
O17 P7 1.513789 1_555
O17 Y3 2.221579 1_555
O18 P7 1.590759 1_555
O19 Si3 1.714801 1_555
O20 P6 1.566427 1_555
O21 Si2 1.714801 1_555
O22 P5 1.590759 1_555
O23 P4 1.566427 1_555
O24 P8 1.502070 1_555
O24 Y4 2.125439 1_556
O25 P9 1.521709 1_555
O25 Y4 2.175545 1_556
O26 Si4 1.599965 1_555
O26 Y4 2.131707 1_556
O27 P10 1.521709 1_555
O27 Y5 2.175545 1_555
O28 P11 1.502070 1_555
O28 Y5 2.125439 1_555
O29 Si5 1.599965 1_555
O29 Y5 2.131707 1_555
O30 Si5 1.721054 1_555
O31 P10 1.577548 1_555
O32 P11 1.577973 1_555
O33 P9 1.577548 1_555
O34 Si4 1.721054 1_555
O35 P8 1.577973 1_555
O36 Si5 1.614840 1_555
O36 Y0 2.214535 1_455
O37 P10 1.527891 1_545
O37 Y0 2.204451 1_545
O38 P11 1.547498 1_555
O38 Y0 2.310261 1_445
O39 P9 1.527891 1_655
O39 Y1 2.204451 1_655
O40 Si4 1.614840 1_555
O40 Y1 2.214535 1_565
O41 P8 1.547498 1_555
O41 Y1 2.310261 1_665
O42 P4 1.586007 1_555
O43 Si2 1.674009 1_555
O44 P5 1.575572 1_555
O45 Si3 1.674008 1_555
O46 P6 1.586007 1_555
O47 P7 1.575572 1_555
O48 Si1 1.621117 1_545
O48 Y2 2.212187 1_555
O49 P2 1.535491 1_555
O49 Y2 2.266306 1_555
O50 P3 1.530482 1_655
O50 Y2 2.241389 1_555
O51 P1 1.535491 1_555
O51 Y3 2.266306 1_555
O52 Si0 1.621117 1_655
O52 Y3 2.212187 1_555
O53 P0 1.530482 1_545
O53 Y3 2.241389 1_555
O54 P8 1.573449 1_555
O55 P9 1.577190 1_655
O56 Si4 1.687579 1_545
O57 P10 1.577190 1_545
O58 P11 1.573449 1_555
O59 Si5 1.687579 1_655
O60 P7 1.531917 1_555
O60 Y4 2.276689 1_555
O61 Si3 1.634015 1_455
O61 Y4 2.220289 1_555
O62 P6 1.528565 1_565
O62 Y4 2.225496 1_555
O63 Si2 1.634015 1_565
O63 Y5 2.220289 1_555
O64 P5 1.531917 1_555
O64 Y5 2.276689 1_555
O65 P4 1.528565 1_455
O65 Y5 2.225496 1_555
O66 P0 1.574160 1_555
O67 P1 1.560141 1_555
O68 Si0 1.703261 1_555
O69 P2 1.560141 1_555
O70 P3 1.574160 1_555
O71 Si1 1.703261 1_555
