# generated using pymatgen
data_MgCu4(SO5)2
_symmetry_space_group_name_H-M   'P 1'
_cell_length_a   5.99624366
_cell_length_b   6.02979662
_cell_length_c   7.74760426
_cell_angle_alpha   97.37288435
_cell_angle_beta   107.04976633
_cell_angle_gamma   117.46928324
_symmetry_Int_Tables_number   1
_chemical_formula_structural   MgCu4(SO5)2
_chemical_formula_sum   'Mg1 Cu4 S2 O10'
_cell_volume   225.85671776
_cell_formula_units_Z   1
loop_
 _symmetry_equiv_pos_site_id
 _symmetry_equiv_pos_as_xyz
  1  'x, y, z'
loop_
 _atom_site_type_symbol
 _atom_site_label
 _atom_site_symmetry_multiplicity
 _atom_site_fract_x
 _atom_site_fract_y
 _atom_site_fract_z
 _atom_site_occupancy
  Mg  Mg0  1  0.92119388  0.34076166  0.25786907  1
  Cu  Cu0  1  0.21740664  0.02894369  0.24660546  1
  Cu  Cu1  1  0.88283452  0.94716102  0.82581235  1
  Cu  Cu2  1  0.43695816  0.96641997  0.92486092  1
  Cu  Cu3  1  0.95647738  0.48755083  0.92372181  1
  S  S0  1  0.73517483  0.63726640  0.37312872  1
  S  S1  1  0.27420150  0.38740520  0.66152749  1
  O  O0  1  0.41779458  0.67929523  0.70868003  1
  O  O1  1  0.97162853  0.70783663  0.30570401  1
  O  O2  1  0.59919741  0.33471350  0.30678279  1
  O  O3  1  0.02846750  0.29008766  0.70917394  1
  O  O4  1  0.82969856  0.16976186  0.99752021  1
  O  O5  1  0.12870144  0.85310261  0.98313103  1
  O  O6  1  0.45505852  0.29733797  0.74953733  1
  O  O7  1  0.55336068  0.72020832  0.27893135  1
  O  O8  1  0.85328600  0.73019769  0.58093886  1
  O  O9  1  0.16564287  0.27611678  0.44385263  1
loop_
_geom_bond_atom_site_label_1
_geom_bond_atom_site_label_2
_geom_bond_distance
_geom_bond_site_symmetry_2
Mg0 O4 1.930847 1_554
Mg0 O9 1.951776 1_655
Mg0 O1 2.057696 1_555
Mg0 O2 2.059240 1_555
Cu0 O5 1.965081 1_544
Cu0 O2 2.029086 1_555
Cu0 O1 2.030085 1_445
Cu0 O9 2.184807 1_555
Cu1 O4 1.964100 1_565
Cu1 O5 1.968709 1_655
Cu1 O8 2.072254 1_555
Cu1 O3 2.265256 1_665
Cu1 O0 2.278784 1_555
Cu2 O5 1.868304 1_555
Cu2 O4 1.935915 1_565
Cu2 O0 2.185231 1_555
Cu2 O6 2.533899 1_565
Cu3 O5 1.870225 1_655
Cu3 O4 1.941353 1_555
Cu3 O3 2.180369 1_655
Cu3 O6 2.493706 1_555
O0 S1 1.491650 1_555
O1 S0 1.548865 1_555
O2 S0 1.548709 1_555
O3 S1 1.492862 1_555
O6 S1 1.463115 1_555
O7 S0 1.449619 1_555
O8 S0 1.463371 1_555
O9 S1 1.543047 1_555
