# generated using pymatgen
data_MgNi2(SbO3)4
_symmetry_space_group_name_H-M   'P 1'
_cell_length_a   5.24246564
_cell_length_b   5.24174459
_cell_length_c   9.44495429
_cell_angle_alpha   91.63211710
_cell_angle_beta   91.63415776
_cell_angle_gamma   78.50452052
_symmetry_Int_Tables_number   1
_chemical_formula_structural   MgNi2(SbO3)4
_chemical_formula_sum   'Mg1 Ni2 Sb4 O12'
_cell_volume   254.16553169
_cell_formula_units_Z   1
loop_
 _symmetry_equiv_pos_site_id
 _symmetry_equiv_pos_as_xyz
  1  'x, y, z'
loop_
 _atom_site_type_symbol
 _atom_site_label
 _atom_site_symmetry_multiplicity
 _atom_site_fract_x
 _atom_site_fract_y
 _atom_site_fract_z
 _atom_site_occupancy
  Mg  Mg0  1  0.78469223  0.78416992  0.50274618  1
  Ni  Ni0  1  0.93433537  0.93360192  0.99268379  1
  Ni  Ni1  1  0.46029363  0.45961407  0.50631360  1
  Sb  Sb0  1  0.50876356  0.50802474  0.83322557  1
  Sb  Sb1  1  0.08345958  0.08259428  0.30325948  1
  Sb  Sb2  1  0.51387069  0.51309497  0.15980628  1
  Sb  Sb3  1  0.06532193  0.06458116  0.68338524  1
  O  O0  1  0.64486287  0.64437189  0.66913449  1
  O  O1  1  0.30465595  0.30377681  0.68069580  1
  O  O2  1  0.64672961  0.64626590  0.33751977  1
  O  O3  1  0.20888601  0.81586252  0.14849977  1
  O  O4  1  0.81681890  0.20826560  0.14851053  1
  O  O5  1  0.81094755  0.19258774  0.83530409  1
  O  O6  1  0.35551928  0.35454579  0.99075401  1
  O  O7  1  0.16365650  0.78229207  0.53610517  1
  O  O8  1  0.78312239  0.16314519  0.53608720  1
  O  O9  1  0.68117968  0.68057756  0.99721034  1
  O  O10  1  0.33134380  0.33030310  0.30345209  1
  O  O11  1  0.19320847  0.81010277  0.83530662  1
loop_
_geom_bond_atom_site_label_1
_geom_bond_atom_site_label_2
_geom_bond_distance
_geom_bond_site_symmetry_2
Mg0 O2 1.886987 1_555
Mg0 O0 1.972170 1_555
Mg0 O7 2.000763 1_655
Mg0 O8 2.000845 1_565
Ni0 O11 2.044601 1_655
Ni0 O5 2.044737 1_565
Ni0 O3 2.048226 1_656
Ni0 O4 2.048400 1_566
Ni0 O9 2.056763 1_555
Ni1 O8 2.075520 1_555
Ni1 O7 2.075528 1_555
Ni1 O0 2.107814 1_555
Ni1 O1 2.112971 1_555
Ni1 O10 2.149961 1_555
Ni1 O2 2.238975 1_555
O0 Sb0 1.936818 1_555
O1 Sb3 1.943604 1_555
O1 Sb0 2.155792 1_555
O2 Sb2 1.962170 1_555
O3 Sb2 2.018661 1_555
O3 Sb1 2.023782 1_565
O4 Sb2 2.018741 1_555
O4 Sb1 2.023732 1_655
O5 Sb3 1.996260 1_655
O5 Sb0 2.049378 1_555
O6 Sb0 1.974916 1_555
O6 Sb2 2.013221 1_556
O7 Sb3 2.002467 1_565
O8 Sb3 2.002503 1_655
O9 Sb0 2.049432 1_555
O9 Sb2 2.087818 1_556
O10 Sb1 2.011703 1_555
O10 Sb2 2.046444 1_555
O11 Sb3 1.996353 1_565
O11 Sb0 2.049460 1_555
