# generated using pymatgen
data_Ga(MoS2)4
_symmetry_space_group_name_H-M   'P 1'
_cell_length_a   6.95221165
_cell_length_b   6.95221165
_cell_length_c   6.95221165
_cell_angle_alpha   60.00000000
_cell_angle_beta   60.00000000
_cell_angle_gamma   60.00000000
_symmetry_Int_Tables_number   1
_chemical_formula_structural   Ga(MoS2)4
_chemical_formula_sum   'Ga1 Mo4 S8'
_cell_volume   237.60411455
_cell_formula_units_Z   1
loop_
 _symmetry_equiv_pos_site_id
 _symmetry_equiv_pos_as_xyz
  1  'x, y, z'
loop_
 _atom_site_type_symbol
 _atom_site_label
 _atom_site_symmetry_multiplicity
 _atom_site_fract_x
 _atom_site_fract_y
 _atom_site_fract_z
 _atom_site_occupancy
  Ga  Ga0  1  0.50000000  0.50000000  0.50000000  1
  Mo  Mo0  1  0.31057900  0.89647400  0.89647400  1
  Mo  Mo1  1  0.89647400  0.89647400  0.89647400  1
  Mo  Mo2  1  0.89647400  0.31057900  0.89647400  1
  Mo  Mo3  1  0.89647400  0.89647400  0.31057900  1
  S  S0  1  0.63547500  0.63547500  0.09357600  1
  S  S1  1  0.09357600  0.63547500  0.63547500  1
  S  S2  1  0.63547500  0.63547500  0.63547500  1
  S  S3  1  0.63547500  0.09357600  0.63547500  1
  S  S4  1  0.13354900  0.13354900  0.59935300  1
  S  S5  1  0.13354900  0.59935300  0.13354900  1
  S  S6  1  0.13354900  0.13354900  0.13354900  1
  S  S7  1  0.59935300  0.13354900  0.13354900  1
loop_
_geom_bond_atom_site_label_1
_geom_bond_atom_site_label_2
_geom_bond_distance
_geom_bond_site_symmetry_2
Ga0 S3 2.307048 1_555
Ga0 S0 2.307048 1_555
Ga0 S1 2.307048 1_555
Ga0 S2 2.307054 1_555
Mo0 S6 2.367986 1_566
Mo0 S4 2.367992 1_565
Mo0 S5 2.367992 1_556
Mo0 S2 2.604286 1_555
Mo0 S3 2.604286 1_565
Mo0 S0 2.604286 1_556
Mo1 S5 2.367987 1_656
Mo1 S4 2.367987 1_665
Mo1 S7 2.367987 1_566
Mo1 S3 2.604286 1_565
Mo1 S1 2.604286 1_655
Mo1 S0 2.604286 1_556
Mo2 S6 2.367986 1_656
Mo2 S7 2.367992 1_556
Mo2 S4 2.367992 1_655
Mo2 S2 2.604286 1_555
Mo2 S1 2.604286 1_655
Mo2 S0 2.604286 1_556
Mo3 S6 2.367986 1_665
Mo3 S7 2.367992 1_565
Mo3 S5 2.367992 1_655
Mo3 S2 2.604286 1_555
Mo3 S1 2.604286 1_655
Mo3 S3 2.604286 1_565
