# generated using pymatgen
data_NbInSe2
_symmetry_space_group_name_H-M   'P 1'
_cell_length_a   3.45981679
_cell_length_b   3.45981848
_cell_length_c   9.30756995
_cell_angle_alpha   90.00000000
_cell_angle_beta   90.00000000
_cell_angle_gamma   120.00000394
_symmetry_Int_Tables_number   1
_chemical_formula_structural   NbInSe2
_chemical_formula_sum   'Nb1 In1 Se2'
_cell_volume   96.48800781
_cell_formula_units_Z   1
loop_
 _symmetry_equiv_pos_site_id
 _symmetry_equiv_pos_as_xyz
  1  'x, y, z'
loop_
 _atom_site_type_symbol
 _atom_site_label
 _atom_site_symmetry_multiplicity
 _atom_site_fract_x
 _atom_site_fract_y
 _atom_site_fract_z
 _atom_site_occupancy
  Nb  Nb0  1  0.33333300  0.66666700  0.50000000  1
  In  In0  1  0.00000000  -0.00000000  0.00000000  1
  Se  Se0  1  0.00000000  -0.00000000  0.67902850  1
  Se  Se1  1  0.00000000  0.00000000  0.32097150  1
loop_
_geom_bond_atom_site_label_1
_geom_bond_atom_site_label_2
_geom_bond_distance
_geom_bond_site_symmetry_2
Nb0 Se0 2.601294 1_565
Nb0 Se1 2.601294 1_565
Nb0 Se0 2.601295 1_665
Nb0 Se1 2.601295 1_665
Nb0 Se0 2.601296 1_555
Nb0 Se1 2.601296 1_555
In0 Se1 2.987465 1_555
In0 Se0 2.987465 1_554
