# generated using pymatgen
data_DyCo5
_symmetry_space_group_name_H-M   'P 1'
_cell_length_a   5.05670500
_cell_length_b   4.92004461
_cell_length_c   3.87511366
_cell_angle_alpha   90.00000000
_cell_angle_beta   90.00000000
_cell_angle_gamma   120.92911807
_symmetry_Int_Tables_number   1
_chemical_formula_structural   DyCo5
_chemical_formula_sum   'Dy1 Co5'
_cell_volume   82.70067898
_cell_formula_units_Z   1
loop_
 _symmetry_equiv_pos_site_id
 _symmetry_equiv_pos_as_xyz
  1  'x, y, z'
loop_
 _atom_site_type_symbol
 _atom_site_label
 _atom_site_symmetry_multiplicity
 _atom_site_fract_x
 _atom_site_fract_y
 _atom_site_fract_z
 _atom_site_occupancy
  Dy  Dy0  1  -0.00000000  -0.00000000  0.00000000  1
  Co  Co0  1  -0.00000000  0.50000000  0.50000000  1
  Co  Co1  1  0.32722631  0.65441163  0.00000000  1
  Co  Co2  1  0.67277369  0.34558837  -0.00000000  1
  Co  Co3  1  0.50000000  -0.00000000  0.50000000  1
  Co  Co4  1  0.50000000  0.50000000  0.50000000  1
loop_
_geom_bond_atom_site_label_1
_geom_bond_atom_site_label_2
_geom_bond_distance
_geom_bond_site_symmetry_2
Co0 Co2 2.403550 1_455
Co0 Co2 2.403550 1_456
Co0 Co1 2.403550 1_556
Co0 Co1 2.403550 1_555
Co0 Co3 2.459797 1_565
Co0 Co3 2.459797 1_455
Co0 Co4 2.528353 1_555
Co0 Co4 2.528353 1_455
Co0 Dy0 3.131427 1_556
Co0 Dy0 3.131427 1_565
Co0 Dy0 3.131427 1_555
Co0 Dy0 3.131427 1_566
Co1 Co4 2.403512 1_554
Co1 Co4 2.403512 1_555
Co1 Co3 2.425169 1_564
Co1 Co3 2.425169 1_565
Co1 Dy0 2.761900 1_555
Co1 Co2 2.844463 1_555
Co1 Co2 2.844591 1_455
Co1 Co2 2.917065 1_565
Co1 Dy0 2.918663 1_665
Co1 Dy0 2.919105 1_565
Co2 Co4 2.403512 1_554
Co2 Co4 2.403512 1_555
Co2 Co3 2.425169 1_554
Co2 Co3 2.425169 1_555
Co2 Dy0 2.761900 1_665
Co2 Dy0 2.918663 1_555
Co2 Dy0 2.919105 1_655
Co3 Co4 2.460022 1_555
Co3 Co4 2.460022 1_545
Co3 Dy0 3.185387 1_655
Co3 Dy0 3.185387 1_656
Co3 Dy0 3.185387 1_555
Co3 Dy0 3.185387 1_556
Co4 Dy0 3.131250 1_556
Co4 Dy0 3.131250 1_666
Co4 Dy0 3.131250 1_665
Co4 Dy0 3.131250 1_555
