# generated using pymatgen
data_Na14Mg4In4Si5S7O48
_symmetry_space_group_name_H-M   'P 1'
_cell_length_a   18.36447638
_cell_length_b   9.14044934
_cell_length_c   22.46009842
_cell_angle_alpha   89.89642023
_cell_angle_beta   90.27727116
_cell_angle_gamma   119.80893393
_symmetry_Int_Tables_number   1
_chemical_formula_structural   Na14Mg4In4Si5S7O48
_chemical_formula_sum   'Na42 Mg12 In12 Si15 S21 O144'
_cell_volume   3271.26802969
_cell_formula_units_Z   3
loop_
 _symmetry_equiv_pos_site_id
 _symmetry_equiv_pos_as_xyz
  1  'x, y, z'
loop_
 _atom_site_type_symbol
 _atom_site_label
 _atom_site_symmetry_multiplicity
 _atom_site_fract_x
 _atom_site_fract_y
 _atom_site_fract_z
 _atom_site_occupancy
  Na  Na0  1  0.80746597  0.99449485  0.24978088  1
  Na  Na1  1  0.18524427  0.35765211  0.25227808  1
  Na  Na2  1  0.68187335  0.35162065  0.25162048  1
  Na  Na3  1  0.00454323  0.65083862  0.24507217  1
  Na  Na4  1  0.50973677  0.65154566  0.23919691  1
  Na  Na5  1  0.31798729  0.61928042  0.75236960  1
  Na  Na6  1  0.00935060  0.36690602  0.73965448  1
  Na  Na7  1  0.50352133  0.37444289  0.74443024  1
  Na  Na8  1  0.18542606  0.01799661  0.75082370  1
  Na  Na9  1  0.67163769  0.99405508  0.74956703  1
  Na  Na10  1  0.14706138  0.32534474  0.58452557  1
  Na  Na11  1  0.65101401  0.32463519  0.58224430  1
  Na  Na12  1  0.33003835  0.97675537  0.59148560  1
  Na  Na13  1  0.83153179  0.98780769  0.58545420  1
  Na  Na14  1  0.15471980  0.98361879  0.07473296  1
  Na  Na15  1  0.64486508  0.96568753  0.07811982  1
  Na  Na16  1  0.33368741  0.67768414  0.08026262  1
  Na  Na17  1  0.82774223  0.68096847  0.08463674  1
  Na  Na18  1  0.48574613  0.67925859  0.91722623  1
  Na  Na19  1  0.99262480  0.68155603  0.91542173  1
  Na  Na20  1  0.34200614  0.03222941  0.91107274  1
  Na  Na21  1  0.84083463  0.02731713  0.91153538  1
  Na  Na22  1  0.16880317  0.27953556  0.91312674  1
  Na  Na23  1  0.66419073  0.27932792  0.91544413  1
  Na  Na24  1  0.49326665  0.30490692  0.41993568  1
  Na  Na25  1  0.98673688  0.29807954  0.43265975  1
  Na  Na26  1  0.16811261  0.05502859  0.42273829  1
  Na  Na27  1  0.66821509  0.05761096  0.41929815  1
  Na  Na28  1  0.34416918  0.65459354  0.41753008  1
  Na  Na29  1  0.83966944  0.65099198  0.41690003  1
  Na  Na30  1  0.01168925  0.01673019  0.50671862  1
  Na  Na31  1  0.51307692  0.00794148  0.50188138  1
  Na  Na32  1  0.01418119  0.02123360  0.99664211  1
  Na  Na33  1  0.51208957  0.00579606  0.00142542  1
  Na  Na34  1  0.32790136  0.33452687  0.82726638  1
  Na  Na35  1  0.81894736  0.32540632  0.83080693  1
  Na  Na36  1  0.32244482  0.31424974  0.33271304  1
  Na  Na37  1  0.81592696  0.31902800  0.33535545  1
  Na  Na38  1  0.17032784  0.67036488  0.16410141  1
  Na  Na39  1  0.65180017  0.64838151  0.16258906  1
  Na  Na40  1  0.15460160  0.65462706  0.66569528  1
  Na  Na41  1  0.65935296  0.66919857  0.67089990  1
  Mg  Mg0  1  0.01171897  0.01826961  0.34966902  1
  Mg  Mg1  1  0.51333110  0.02117777  0.34864885  1
  Mg  Mg2  1  0.01142423  0.00368770  0.84802872  1
  Mg  Mg3  1  0.51262662  0.99161956  0.84481726  1
  Mg  Mg4  1  0.32742670  0.32958992  0.68593766  1
  Mg  Mg5  1  0.82066386  0.32141395  0.18095314  1
  Mg  Mg6  1  0.32711229  0.33065314  0.98617651  1
  Mg  Mg7  1  0.82425112  0.31720468  0.98458525  1
  Mg  Mg8  1  0.32396560  0.33317191  0.48690422  1
  Mg  Mg9  1  0.82703342  0.32643508  0.48816573  1
  Mg  Mg10  1  0.66536155  0.66394814  0.31803223  1
  Mg  Mg11  1  0.16840062  0.67122010  0.81687240  1
  In  In0  1  0.01035224  0.01703879  0.64932877  1
  In  In1  1  0.51345069  0.00398552  0.65467403  1
  In  In2  1  0.00981432  0.00902530  0.15038381  1
  In  In3  1  0.51073392  0.00446046  0.14815400  1
  In  In4  1  0.82685121  0.32042525  0.67969629  1
  In  In5  1  0.32773303  0.33167425  0.17868967  1
  In  In6  1  0.16194225  0.65859740  0.01330780  1
  In  In7  1  0.65263113  0.65217866  0.01982994  1
  In  In8  1  0.15485915  0.65517659  0.52229394  1
  In  In9  1  0.66147572  0.66353497  0.51492998  1
  In  In10  1  0.17232401  0.67756030  0.31896111  1
  In  In11  1  0.66647103  0.66796754  0.81609154  1
  Si  Si0  1  0.15197260  0.99742561  0.25120949  1
  Si  Si1  1  0.65331005  0.99564056  0.25361220  1
  Si  Si2  1  0.15130065  0.31102250  0.75383697  1
  Si  Si3  1  0.65342083  0.30704581  0.75106247  1
  Si  Si4  1  0.49472786  0.68837544  0.75278146  1
  Si  Si5  1  0.97732198  0.32997977  0.58330625  1
  Si  Si6  1  0.18820887  0.03744746  0.58271524  1
  Si  Si7  1  0.68078864  0.02549905  0.57938412  1
  Si  Si8  1  0.47731060  0.62428585  0.08386793  1
  Si  Si9  1  0.18085072  0.33730792  0.08148363  1
  Si  Si10  1  0.68655057  0.34058308  0.08263683  1
  Si  Si11  1  0.16711274  0.96411720  0.91640259  1
  Si  Si12  1  0.66933813  0.96783228  0.91725817  1
  Si  Si13  1  0.16779616  0.37150556  0.41527082  1
  Si  Si14  1  0.66755397  0.37111542  0.41527716  1
  S  S0  1  0.35439253  0.71243424  0.25195684  1
  S  S1  1  0.85564128  0.71067652  0.25072243  1
  S  S2  1  0.99709705  0.29565675  0.25119242  1
  S  S3  1  0.49795282  0.29446068  0.25312916  1
  S  S4  1  0.99849808  0.70164362  0.75316624  1
  S  S5  1  0.35336839  0.99735685  0.75080758  1
  S  S6  1  0.85657089  0.99854961  0.75208509  1
  S  S7  1  0.47652452  0.33060544  0.58287435  1
  S  S8  1  0.33731546  0.63295173  0.58266564  1
  S  S9  1  0.83406808  0.63228383  0.58108311  1
  S  S10  1  0.97662893  0.61957597  0.08498583  1
  S  S11  1  0.33336997  0.03484298  0.08183057  1
  S  S12  1  0.83842948  0.04422564  0.08487961  1
  S  S13  1  0.31650195  0.67067823  0.91530342  1
  S  S14  1  0.81920753  0.67008870  0.91844681  1
  S  S15  1  0.01441808  0.36432687  0.91471489  1
  S  S16  1  0.51212336  0.35612245  0.91544874  1
  S  S17  1  0.32056149  0.97161268  0.41811815  1
  S  S18  1  0.81785942  0.96380281  0.41260060  1
  S  S19  1  0.01370191  0.66800520  0.41341301  1
  S  S20  1  0.51473972  0.66543811  0.41344935  1
  O  O0  1  0.10722853  0.02889077  0.30797880  1
  O  O1  1  0.61072362  0.03304886  0.31071662  1
  O  O2  1  0.40248229  0.80385671  0.30549640  1
  O  O3  1  0.90858208  0.80105469  0.30298214  1
  O  O4  1  0.48843056  0.19348266  0.30735945  1
  O  O5  1  0.98378577  0.18961725  0.30470683  1
  O  O6  1  0.10699373  0.18950608  0.81109423  1
  O  O7  1  0.60911375  0.18649689  0.80834325  1
  O  O8  1  0.47601585  0.76726382  0.81188340  1
  O  O9  1  0.98829888  0.78225988  0.80743390  1
  O  O10  1  0.40669572  0.01684373  0.80339772  1
  O  O11  1  0.90613227  0.00564593  0.80515593  1
  O  O12  1  0.39110430  0.97184892  0.69512564  1
  O  O13  1  0.89472684  0.98069613  0.69608081  1
  O  O14  1  0.09021255  0.23661570  0.69366566  1
  O  O15  1  0.59580353  0.24029684  0.68896181  1
  O  O16  1  0.00733347  0.80418373  0.69921481  1
  O  O17  1  0.51490737  0.81123278  0.69479844  1
  O  O18  1  0.39274196  0.80705794  0.19636140  1
  O  O19  1  0.89270391  0.81555015  0.19527634  1
  O  O20  1  0.00933770  0.21458982  0.19763619  1
  O  O21  1  0.50722057  0.21055995  0.19925948  1
  O  O22  1  0.09222576  0.94843001  0.19026821  1
  O  O23  1  0.59349346  0.95247748  0.19347177  1
  O  O24  1  0.43562080  0.34597835  0.63653128  1
  O  O25  1  0.93668192  0.35442504  0.64504324  1
  O  O26  1  0.24560273  0.12365628  0.64157464  1
  O  O27  1  0.73488139  0.09595045  0.64179459  1
  O  O28  1  0.33026755  0.53108954  0.63537207  1
  O  O29  1  0.82039221  0.52617799  0.63434998  1
  O  O30  1  0.43885527  0.52188761  0.14734312  1
  O  O31  1  0.93611245  0.52342934  0.13974981  1
  O  O32  1  0.31859058  0.11054021  0.13590958  1
  O  O33  1  0.83291292  0.13221416  0.13871255  1
  O  O34  1  0.23216517  0.37175939  0.14548828  1
  O  O35  1  0.74126253  0.37446021  0.14407600  1
  O  O36  1  0.22579652  0.30507014  0.02544517  1
  O  O37  1  0.73012735  0.31118265  0.02446310  1
  O  O38  1  0.42143668  0.52880348  0.02588394  1
  O  O39  1  0.92976021  0.53267385  0.03040660  1
  O  O40  1  0.34227300  0.13303829  0.02783188  1
  O  O41  1  0.85025540  0.14391359  0.03009280  1
  O  O42  1  0.22647921  0.14515404  0.52142184  1
  O  O43  1  0.72523838  0.14126355  0.52138191  1
  O  O44  1  0.34806105  0.55718387  0.52682736  1
  O  O45  1  0.84371607  0.55367438  0.52626718  1
  O  O46  1  0.43054863  0.32574593  0.52738343  1
  O  O47  1  0.92464880  0.31799232  0.52329441  1
  O  O48  1  0.27838488  0.69260103  0.97166552  1
  O  O49  1  0.78164681  0.69887744  0.97282555  1
  O  O50  1  0.07002840  0.43142438  0.96861502  1
  O  O51  1  0.57109385  0.42963586  0.96718033  1
  O  O52  1  0.14652793  0.84608930  0.97869077  1
  O  O53  1  0.65490727  0.84971872  0.97646390  1
  O  O54  1  0.28091596  0.86308216  0.47076243  1
  O  O55  1  0.78135268  0.86297061  0.46811168  1
  O  O56  1  0.15247699  0.46717492  0.47139364  1
  O  O57  1  0.64847935  0.45321824  0.47587238  1
  O  O58  1  0.07284996  0.70941485  0.46423603  1
  O  O59  1  0.57055307  0.70786566  0.46684399  1
  O  O60  1  0.05110084  0.63748010  0.35865999  1
  O  O61  1  0.55590916  0.64049228  0.36087893  1
  O  O62  1  0.26285811  0.90259298  0.36524146  1
  O  O63  1  0.76161316  0.87798910  0.36108345  1
  O  O64  1  0.18516849  0.48728419  0.35398061  1
  O  O65  1  0.68124600  0.49239608  0.35823038  1
  O  O66  1  0.05601472  0.47234985  0.86252574  1
  O  O67  1  0.55086068  0.46356863  0.86175368  1
  O  O68  1  0.17951114  0.86507083  0.86095886  1
  O  O69  1  0.69068585  0.88397731  0.85968169  1
  O  O70  1  0.26006479  0.64446324  0.86423253  1
  O  O71  1  0.76086911  0.62910058  0.86691856  1
  O  O72  1  0.00042874  0.81473198  0.40662107  1
  O  O73  1  0.49850559  0.80879872  0.40677289  1
  O  O74  1  0.40161058  0.97557602  0.40819514  1
  O  O75  1  0.90144962  0.97620094  0.40544067  1
  O  O76  1  0.08179546  0.18603531  0.41278702  1
  O  O77  1  0.58176843  0.18323024  0.41377484  1
  O  O78  1  0.99763740  0.18823994  0.90834957  1
  O  O79  1  0.49862509  0.18324236  0.90812778  1
  O  O80  1  0.08110271  0.98047084  0.91388087  1
  O  O81  1  0.58353031  0.98129530  0.91382559  1
  O  O82  1  0.39868824  0.82735755  0.91031584  1
  O  O83  1  0.90106854  0.82753868  0.90891347  1
  O  O84  1  0.47938468  0.16786973  0.58370550  1
  O  O85  1  0.97840569  0.14806956  0.58417294  1
  O  O86  1  0.09344913  0.01699077  0.58619431  1
  O  O87  1  0.59041476  0.02296485  0.58264614  1
  O  O88  1  0.40791298  0.81029687  0.58626555  1
  O  O89  1  0.90716952  0.80342443  0.58732168  1
  O  O90  1  0.47950497  0.80977634  0.08490963  1
  O  O91  1  0.97818944  0.78781155  0.08546998  1
  O  O92  1  0.40664374  0.01023114  0.08863156  1
  O  O93  1  0.91047552  0.01009794  0.08938870  1
  O  O94  1  0.08841857  0.16033081  0.08398155  1
  O  O95  1  0.59263737  0.17025684  0.08495841  1
  O  O96  1  0.34613908  0.15203021  0.74632310  1
  O  O97  1  0.85362799  0.16021303  0.75182634  1
  O  O98  1  0.24237311  0.32074498  0.74607074  1
  O  O99  1  0.74347523  0.30615270  0.74486803  1
  O  O100  1  0.41565345  0.49800449  0.74355965  1
  O  O101  1  0.92575420  0.52831420  0.74942775  1
  O  O102  1  0.35035477  0.54394642  0.25222174  1
  O  O103  1  0.85303958  0.54524662  0.24620330  1
  O  O104  1  0.42484756  0.32149587  0.24971382  1
  O  O105  1  0.92386312  0.32073611  0.24432859  1
  O  O106  1  0.24347479  0.17255554  0.24477804  1
  O  O107  1  0.74731080  0.16654975  0.24624450  1
  O  O108  1  0.32686963  0.51955597  0.91924298  1
  O  O109  1  0.83488685  0.52556134  0.92447999  1
  O  O110  1  0.43094679  0.35019720  0.92432443  1
  O  O111  1  0.93342979  0.36217796  0.92389407  1
  O  O112  1  0.25271520  0.15016232  0.92179625  1
  O  O113  1  0.75474644  0.15524159  0.92032262  1
  O  O114  1  0.33621036  0.14684726  0.42478035  1
  O  O115  1  0.82824783  0.13555925  0.41673289  1
  O  O116  1  0.25369010  0.35691963  0.41939386  1
  O  O117  1  0.75347188  0.35622054  0.42105038  1
  O  O118  1  0.43338686  0.50646913  0.42224179  1
  O  O119  1  0.93174674  0.51278302  0.42188950  1
  O  O120  1  0.17718975  0.51518235  0.07719099  1
  O  O121  1  0.68378913  0.51983666  0.07797677  1
  O  O122  1  0.06526532  0.65548225  0.08413657  1
  O  O123  1  0.57607651  0.66984736  0.08518183  1
  O  O124  1  0.25575967  0.86223213  0.07845019  1
  O  O125  1  0.75996291  0.87759905  0.08211882  1
  O  O126  1  0.18597567  0.85238894  0.57904129  1
  O  O127  1  0.67749722  0.84015965  0.57589127  1
  O  O128  1  0.25722660  0.63977988  0.57938225  1
  O  O129  1  0.75629832  0.64841942  0.57729793  1
  O  O130  1  0.07640312  0.48152615  0.58549165  1
  O  O131  1  0.56551074  0.47382024  0.58170408  1
  O  O132  1  0.15564008  0.81910277  0.25555538  1
  O  O133  1  0.66278300  0.82515464  0.25892030  1
  O  O134  1  0.26584885  0.67993653  0.25205289  1
  O  O135  1  0.76966440  0.68530933  0.25495812  1
  O  O136  1  0.07528186  0.46391354  0.25545378  1
  O  O137  1  0.57668319  0.46368827  0.25652587  1
  O  O138  1  0.16236923  0.50123763  0.75895911  1
  O  O139  1  0.66293905  0.49445948  0.75628454  1
  O  O140  1  0.07749470  0.69137764  0.75661623  1
  O  O141  1  0.58364711  0.68221708  0.75510065  1
  O  O142  1  0.26792030  0.84735162  0.75551886  1
  O  O143  1  0.76930944  0.85541751  0.75302181  1
loop_
_geom_bond_atom_site_label_1
_geom_bond_atom_site_label_2
_geom_bond_distance
_geom_bond_site_symmetry_2
Na0 O133 2.326584 1_555
Na0 O107 2.329371 1_565
Na0 O135 2.555640 1_555
Na0 O105 2.672139 1_565
Na0 O63 2.685452 1_555
Na0 O33 2.727842 1_565
Na1 O106 2.415760 1_555
Na1 O34 2.533847 1_555
Na1 O134 2.556114 1_555
Na1 O64 2.575505 1_555
Na1 O102 2.638235 1_555
Na1 O136 2.641620 1_555
Na1 O0 2.893314 1_555
Na2 O107 2.518651 1_555
Na2 O137 2.600569 1_555
Na2 O35 2.620086 1_555
Na2 O135 2.649242 1_555
Na2 O65 2.723139 1_555
Na2 O103 2.738571 1_555
Na2 O1 2.858001 1_555
Na3 O132 2.423319 1_555
Na3 O103 2.450319 1_455
Na3 O105 2.618168 1_455
Na3 O136 2.619845 1_555
Na3 O31 2.656593 1_455
Na3 O22 2.675705 1_555
Na3 O60 2.708522 1_555
Na4 O30 2.409191 1_555
Na4 O133 2.483977 1_555
Na4 O137 2.589063 1_555
Na4 O102 2.601000 1_555
Na4 O23 2.604865 1_555
Na4 O104 2.629136 1_555
Na4 O61 2.874052 1_555
Na5 O98 2.372036 1_555
Na5 O138 2.508221 1_555
Na5 O100 2.542808 1_555
Na5 O142 2.665165 1_555
Na5 O70 2.787164 1_555
Na5 O28 2.792849 1_555
Na5 O8 2.846892 1_555
Na6 O25 2.476199 1_455
Na6 O138 2.480323 1_555
Na6 O97 2.540944 1_455
Na6 O14 2.543212 1_555
Na6 O140 2.610880 1_555
Na6 O101 2.614950 1_455
Na6 O66 2.905995 1_555
Na7 O100 2.385655 1_555
Na7 O141 2.453599 1_555
Na7 O139 2.577935 1_555
Na7 O96 2.578241 1_555
Na7 O24 2.673208 1_555
Na7 O67 2.764893 1_555
Na7 O15 2.831876 1_555
Na8 O98 2.426014 1_555
Na8 O96 2.574776 1_555
Na8 O140 2.641284 1_545
Na8 O142 2.662014 1_545
Na8 O26 2.670471 1_555
Na8 O68 2.814914 1_545
Na8 O6 2.938747 1_555
Na9 O99 2.479537 1_565
Na9 O141 2.484440 1_555
Na9 O27 2.649373 1_565
Na9 O143 2.662199 1_555
Na9 O69 2.753894 1_555
Na9 O17 2.789492 1_555
Na9 O7 2.861177 1_565
Na9 O97 2.903665 1_565
Na10 O130 2.358873 1_555
Na10 O86 2.481071 1_555
Na10 O128 2.566470 1_555
Na10 O14 2.632930 1_555
Na10 O85 2.688654 1_455
Na10 O56 2.830074 1_555
Na11 O87 2.406438 1_555
Na11 O131 2.540426 1_555
Na11 O15 2.570427 1_555
Na11 O129 2.611764 1_555
Na11 O57 2.671065 1_555
Na11 O84 2.738476 1_555
Na11 O29 2.951985 1_555
Na11 O43 2.972160 1_555
Na12 O126 2.318115 1_555
Na12 O84 2.417533 1_565
Na12 O88 2.557268 1_555
Na12 O12 2.588919 1_555
Na12 O128 2.693267 1_555
Na12 O26 2.750524 1_565
Na12 O54 2.880967 1_555
Na13 O85 2.343971 1_565
Na13 O127 2.463535 1_555
Na13 O89 2.664259 1_555
Na13 O129 2.702631 1_555
Na13 O27 2.738490 1_565
Na13 O13 2.751591 1_555
Na13 O55 2.835339 1_555
Na14 O52 2.464687 1_554
Na14 O94 2.468522 1_565
Na14 O124 2.593475 1_555
Na14 O122 2.615639 1_555
Na14 O36 2.784153 1_565
Na14 O22 2.795189 1_555
Na14 O91 2.829944 1_455
Na14 O32 2.963950 1_565
Na15 O123 2.353157 1_555
Na15 O95 2.495081 1_565
Na15 O53 2.564726 1_554
Na15 O125 2.610382 1_555
Na15 O90 2.641414 1_555
Na15 O23 2.743393 1_555
Na16 O90 2.328702 1_555
Na16 O120 2.495020 1_555
Na16 O92 2.649607 1_565
Na16 O48 2.666787 1_554
Na16 O124 2.700827 1_555
Na16 O18 2.843026 1_555
Na16 O38 2.854073 1_555
Na16 O34 2.875715 1_555
Na17 O121 2.303522 1_555
Na17 O91 2.429931 1_555
Na17 O93 2.612557 1_565
Na17 O125 2.646881 1_555
Na17 O49 2.676878 1_554
Na17 O19 2.763127 1_555
Na17 O35 2.781527 1_555
Na18 O81 2.433909 1_555
Na18 O8 2.531589 1_555
Na18 O108 2.532267 1_555
Na18 O82 2.561486 1_555
Na18 O110 2.659938 1_555
Na18 O38 2.764577 1_556
Na19 O80 2.385952 1_655
Na19 O109 2.522680 1_555
Na19 O111 2.566105 1_555
Na19 O9 2.607491 1_555
Na19 O83 2.618471 1_555
Na19 O52 2.830579 1_655
Na19 O39 2.882458 1_556
Na19 O66 2.942466 1_655
Na20 O112 2.381397 1_555
Na20 O79 2.497335 1_555
Na20 O110 2.546006 1_555
Na20 O82 2.555160 1_545
Na20 O10 2.734018 1_555
Na20 O40 2.780340 1_556
Na20 O68 2.819050 1_545
Na21 O113 2.397374 1_555
Na21 O78 2.500253 1_555
Na21 O83 2.563367 1_545
Na21 O69 2.656851 1_545
Na21 O111 2.675975 1_555
Na21 O11 2.729751 1_555
Na21 O41 2.842322 1_556
Na21 O49 2.973928 1_545
Na22 O112 2.370439 1_555
Na22 O80 2.385296 1_545
Na22 O6 2.504055 1_555
Na22 O108 2.631337 1_555
Na22 O36 2.692134 1_556
Na22 O78 2.824497 1_455
Na23 O81 2.367372 1_545
Na23 O113 2.436616 1_555
Na23 O7 2.580697 1_555
Na23 O37 2.677669 1_556
Na23 O79 2.717331 1_555
Na23 O109 2.813246 1_555
Na23 O51 2.919092 1_555
Na23 O71 2.987321 1_555
Na24 O77 2.386954 1_555
Na24 O114 2.505516 1_555
Na24 O118 2.573213 1_555
Na24 O74 2.631586 1_545
Na24 O4 2.712112 1_555
Na24 O46 2.726450 1_555
Na24 O57 2.769596 1_555
Na25 O47 2.388992 1_555
Na25 O76 2.466219 1_655
Na25 O115 2.549367 1_555
Na25 O119 2.626024 1_555
Na25 O75 2.626540 1_545
Na25 O56 2.777059 1_655
Na26 O116 2.403897 1_555
Na26 O42 2.417823 1_555
Na26 O76 2.424754 1_555
Na26 O114 2.767512 1_555
Na26 O0 2.767588 1_555
Na26 O72 2.775904 1_545
Na26 O58 2.901626 1_545
Na26 O62 3.012480 1_545
Na27 O117 2.377765 1_555
Na27 O77 2.379913 1_555
Na27 O43 2.474930 1_555
Na27 O1 2.618019 1_555
Na27 O115 2.658544 1_555
Na27 O73 2.812746 1_545
Na27 O59 2.980364 1_545
Na28 O116 2.381431 1_555
Na28 O73 2.472226 1_555
Na28 O74 2.586022 1_555
Na28 O118 2.594625 1_555
Na28 O44 2.622539 1_555
Na28 O2 2.810867 1_555
Na28 O64 2.903460 1_555
Na28 O54 2.938191 1_555
Na29 O117 2.352464 1_555
Na29 O119 2.566954 1_555
Na29 O72 2.573226 1_655
Na29 O75 2.614684 1_555
Na29 O45 2.624256 1_555
Na29 O65 2.842342 1_555
Na29 O55 2.882224 1_555
Na29 O3 2.884837 1_555
Na30 O86 2.326220 1_555
Na30 O85 2.364005 1_455
Na30 O76 2.556737 1_555
Na30 O89 2.657663 1_445
Na30 O72 2.852560 1_545
Na30 O75 2.936487 1_445
Na31 O87 2.260226 1_555
Na31 O77 2.465284 1_555
Na31 O84 2.610967 1_555
Na31 O88 2.672045 1_545
Na31 O73 2.733552 1_545
Na31 O74 2.839712 1_545
Na32 O94 2.362845 1_556
Na32 O80 2.363116 1_545
Na32 O78 2.607565 1_455
Na32 O91 2.750400 1_446
Na32 O83 2.765598 1_445
Na32 O93 2.796726 1_456
Na33 O95 2.395907 1_555
Na33 O81 2.441551 1_544
Na33 O90 2.452941 1_545
Na33 O79 2.732082 1_554
Na33 O92 2.775409 1_555
Na33 O82 2.788994 1_544
Na34 O98 2.363269 1_555
Na34 O100 2.447345 1_555
Na34 O96 2.602337 1_555
Na34 O112 2.637450 1_555
Na34 O108 2.678264 1_555
Na34 O110 2.836446 1_555
Na35 O99 2.326041 1_555
Na35 O113 2.457630 1_555
Na35 O97 2.609414 1_555
Na35 O101 2.652078 1_555
Na35 O109 2.708269 1_555
Na35 O111 2.856880 1_555
Na36 O106 2.407376 1_555
Na36 O116 2.460244 1_555
Na36 O102 2.619997 1_555
Na36 O104 2.631676 1_555
Na36 O114 2.655044 1_555
Na36 O118 2.774078 1_555
Na37 O117 2.355207 1_555
Na37 O107 2.403263 1_555
Na37 O115 2.562479 1_555
Na37 O103 2.710469 1_555
Na37 O119 2.768617 1_555
Na37 O105 2.849128 1_555
Na38 O120 2.455263 1_555
Na38 O124 2.553297 1_555
Na38 O132 2.553491 1_555
Na38 O122 2.583261 1_555
Na38 O134 2.607978 1_555
Na38 O136 2.750158 1_555
Na39 O123 2.289458 1_555
Na39 O121 2.458106 1_555
Na39 O137 2.627593 1_555
Na39 O133 2.648972 1_555
Na39 O125 2.735918 1_555
Na39 O135 2.887176 1_555
Na40 O130 2.353067 1_555
Na40 O126 2.519936 1_555
Na40 O138 2.561104 1_555
Na40 O140 2.606052 1_555
Na40 O128 2.760273 1_555
Na40 O142 2.798479 1_555
Na41 O141 2.390462 1_555
Na41 O139 2.515035 1_555
Na41 O127 2.565857 1_555
Na41 O143 2.633423 1_555
Na41 O131 2.663133 1_555
Na41 O129 2.828301 1_555
Mg0 O0 1.951649 1_555
Mg0 O76 2.011346 1_555
Mg0 O5 2.126962 1_455
Mg0 O72 2.179644 1_545
Mg0 O3 2.208728 1_445
Mg0 O75 2.250860 1_445
Mg1 O1 1.938565 1_555
Mg1 O77 2.013057 1_555
Mg1 O4 2.063059 1_555
Mg1 O2 2.235338 1_545
Mg1 O73 2.239554 1_545
Mg1 O74 2.312174 1_545
Mg2 O6 1.923159 1_555
Mg2 O80 2.029910 1_545
Mg2 O9 2.063103 1_445
Mg2 O11 2.163980 1_455
Mg2 O78 2.276276 1_455
Mg2 O83 2.311766 1_445
Mg3 O8 1.958184 1_555
Mg3 O7 1.963289 1_565
Mg3 O81 2.051535 1_555
Mg3 O10 2.265100 1_565
Mg3 O79 2.369855 1_565
Mg3 O82 2.386421 1_555
Mg4 O26 1.993511 1_555
Mg4 O98 2.040796 1_555
Mg4 O100 2.043766 1_555
Mg4 O28 2.140619 1_555
Mg4 O24 2.219576 1_555
Mg4 O96 2.265749 1_555
Mg5 O35 1.933170 1_555
Mg5 O107 2.021050 1_555
Mg5 O33 2.082349 1_555
Mg5 O31 2.209442 1_555
Mg5 O103 2.340963 1_555
Mg5 O105 2.367166 1_555
Mg6 O36 1.969012 1_556
Mg6 O38 1.986956 1_556
Mg6 O112 2.104235 1_555
Mg6 O40 2.169534 1_556
Mg6 O108 2.289012 1_555
Mg6 O110 2.298696 1_555
Mg7 O37 1.926986 1_556
Mg7 O113 2.003823 1_555
Mg7 O41 2.126771 1_556
Mg7 O39 2.210514 1_556
Mg7 O109 2.260755 1_555
Mg7 O111 2.291757 1_555
Mg8 O42 1.925959 1_555
Mg8 O116 2.066450 1_555
Mg8 O44 2.072285 1_555
Mg8 O46 2.185640 1_555
Mg8 O114 2.300077 1_555
Mg8 O118 2.347681 1_555
Mg9 O43 1.944005 1_555
Mg9 O47 1.991409 1_555
Mg9 O45 2.124059 1_555
Mg9 O117 2.125061 1_555
Mg9 O119 2.361578 1_555
Mg9 O115 2.380684 1_555
Mg10 O65 1.950940 1_555
Mg10 O133 1.999454 1_555
Mg10 O63 2.106920 1_555
Mg10 O61 2.145188 1_555
Mg10 O137 2.221424 1_555
Mg10 O135 2.316779 1_555
Mg11 O68 1.951055 1_555
Mg11 O138 1.988224 1_555
Mg11 O70 2.101443 1_555
Mg11 O66 2.213395 1_555
Mg11 O142 2.218558 1_555
Mg11 O140 2.221622 1_555
In0 O14 2.058475 1_555
In0 O86 2.088330 1_555
In0 O85 2.145726 1_455
In0 O16 2.220198 1_545
In0 O13 2.245177 1_445
In0 O89 2.376640 1_445
In1 O17 1.989438 1_545
In1 O15 2.071910 1_555
In1 O87 2.102920 1_555
In1 O12 2.307075 1_545
In1 O88 2.412674 1_545
In1 O84 2.467683 1_555
In2 O22 2.053835 1_545
In2 O94 2.061373 1_555
In2 O20 2.163454 1_555
In2 O19 2.236655 1_445
In2 O93 2.280024 1_455
In2 O91 2.320854 1_445
In3 O23 2.067104 1_545
In3 O95 2.078520 1_555
In3 O90 2.121292 1_545
In3 O21 2.236051 1_555
In3 O18 2.291673 1_545
In3 O92 2.349331 1_555
In4 O25 2.040022 1_555
In4 O99 2.080016 1_555
In4 O27 2.081872 1_555
In4 O29 2.191346 1_555
In4 O97 2.389671 1_555
In4 O101 2.431966 1_555
In5 O30 2.040822 1_555
In5 O34 2.096714 1_555
In5 O106 2.118933 1_555
In5 O32 2.169097 1_555
In5 O102 2.422464 1_555
In5 O104 2.423007 1_555
In6 O52 2.024102 1_554
In6 O120 2.051774 1_555
In6 O50 2.162159 1_554
In6 O48 2.213972 1_554
In6 O124 2.317475 1_555
In6 O122 2.379192 1_555
In7 O53 2.032152 1_554
In7 O121 2.042430 1_555
In7 O123 2.098483 1_555
In7 O51 2.177502 1_554
In7 O49 2.434636 1_554
In7 O125 2.456372 1_555
In8 O126 2.043907 1_555
In8 O56 2.047858 1_555
In8 O130 2.085184 1_555
In8 O58 2.221564 1_555
In8 O128 2.331746 1_555
In8 O54 2.440113 1_555
In9 O57 2.017423 1_555
In9 O127 2.024718 1_555
In9 O59 2.184563 1_555
In9 O129 2.286604 1_555
In9 O55 2.302360 1_555
In9 O131 2.310833 1_555
In10 O64 2.024913 1_555
In10 O132 2.044254 1_555
In10 O62 2.160218 1_555
In10 O60 2.256630 1_555
In10 O134 2.279578 1_555
In10 O136 2.355733 1_555
In11 O69 2.045597 1_555
In11 O139 2.056303 1_555
In11 O141 2.093593 1_555
In11 O71 2.241958 1_555
In11 O67 2.262841 1_555
In11 O143 2.304122 1_555
O0 Si0 1.621750 1_545
O1 Si1 1.628100 1_545
O2 S0 1.477797 1_555
O3 S1 1.483012 1_555
O4 S3 1.484444 1_555
O5 S2 1.485571 1_555
O6 Si2 1.629720 1_555
O7 Si3 1.626339 1_555
O8 Si4 1.629218 1_555
O9 S4 1.485378 1_555
O10 S5 1.483958 1_545
O11 S6 1.478007 1_545
O12 S5 1.506237 1_555
O13 S6 1.490908 1_555
O14 Si2 1.666615 1_555
O15 Si3 1.668600 1_555
O16 S4 1.489878 1_455
O17 Si4 1.637079 1_555
O18 S0 1.483999 1_555
O19 S1 1.512681 1_555
O20 S2 1.489281 1_455
O21 S3 1.488659 1_555
O22 Si0 1.666452 1_555
O23 Si1 1.656378 1_555
O24 S7 1.466522 1_555
O25 Si5 1.645170 1_555
O26 Si6 1.626052 1_555
O27 Si7 1.649294 1_555
O28 S8 1.470607 1_555
O29 S9 1.480392 1_555
O30 Si8 1.659826 1_555
O31 S10 1.481115 1_555
O32 S11 1.490181 1_555
O33 S12 1.484824 1_555
O34 Si9 1.657484 1_555
O35 Si10 1.639642 1_555
O36 Si9 1.614151 1_555
O37 Si10 1.626351 1_555
O38 Si8 1.615997 1_555
O39 S10 1.479216 1_555
O40 S11 1.468105 1_555
O41 S12 1.481012 1_555
O42 Si6 1.635511 1_555
O43 Si7 1.621624 1_555
O44 S8 1.494267 1_555
O45 S9 1.481667 1_555
O46 S7 1.490277 1_555
O47 Si5 1.626961 1_555
O48 S13 1.510498 1_555
O49 S14 1.492153 1_555
O50 S15 1.500886 1_555
O51 S16 1.497158 1_555
O52 Si11 1.690611 1_555
O53 Si12 1.648585 1_555
O54 S17 1.482651 1_555
O55 S18 1.497662 1_555
O56 Si13 1.638522 1_555
O57 Si14 1.675653 1_555
O58 S19 1.485579 1_555
O59 S20 1.494580 1_555
O60 S19 1.503928 1_555
O61 S20 1.482822 1_555
O62 S17 1.502412 1_555
O63 S18 1.485672 1_555
O64 Si13 1.667337 1_555
O65 Si14 1.629309 1_555
O66 S15 1.478863 1_555
O67 S16 1.494803 1_555
O68 Si11 1.622938 1_555
O69 Si12 1.649458 1_555
O70 S13 1.479844 1_555
O71 S14 1.489322 1_555
O72 S19 1.485021 1_555
O73 S20 1.488532 1_555
O74 S17 1.488611 1_555
O75 S18 1.491500 1_555
O76 Si13 1.645896 1_555
O77 Si14 1.655946 1_555
O78 S15 1.487687 1_655
O79 S16 1.482099 1_555
O80 Si11 1.659611 1_555
O81 Si12 1.641910 1_555
O82 S13 1.481070 1_555
O83 S14 1.492655 1_555
O84 S7 1.514353 1_555
O85 Si5 1.672801 1_555
O86 Si6 1.657457 1_555
O87 Si7 1.650259 1_555
O88 S8 1.491673 1_555
O89 S9 1.476477 1_555
O90 Si8 1.676002 1_555
O91 S10 1.523763 1_555
O92 S11 1.477676 1_555
O93 S12 1.505675 1_555
O94 Si9 1.664902 1_555
O95 Si10 1.652889 1_555
O96 S5 1.487456 1_545
O97 S6 1.505273 1_545
O98 Si2 1.640295 1_555
O99 Si3 1.664373 1_555
O100 Si4 1.632687 1_555
O101 S4 1.482184 1_555
O102 S0 1.504572 1_555
O103 S1 1.492555 1_555
O104 S3 1.482612 1_555
O105 S2 1.479683 1_555
O106 Si0 1.653536 1_545
O107 Si1 1.663879 1_545
O108 S13 1.487620 1_555
O109 S14 1.491172 1_555
O110 S16 1.479060 1_555
O111 S15 1.492944 1_655
O112 Si11 1.648897 1_545
O113 Si12 1.651470 1_545
O114 S17 1.487716 1_545
O115 S18 1.487371 1_545
O116 Si13 1.649897 1_555
O117 Si14 1.654222 1_555
O118 S20 1.491946 1_555
O119 S19 1.480951 1_655
O120 Si9 1.662907 1_555
O121 Si10 1.667336 1_555
O122 S10 1.492253 1_455
O123 Si8 1.647014 1_555
O124 S11 1.513310 1_565
O125 S12 1.489107 1_565
O126 Si6 1.673686 1_565
O127 Si7 1.666842 1_565
O128 S8 1.504246 1_555
O129 S9 1.508953 1_555
O130 Si5 1.650914 1_455
O131 S7 1.502761 1_555
O132 Si0 1.667126 1_555
O133 Si1 1.655743 1_555
O134 S0 1.500706 1_555
O135 S1 1.480943 1_555
O136 S2 1.496587 1_455
O137 S3 1.504911 1_555
O138 Si2 1.651239 1_555
O139 Si3 1.637577 1_555
O140 S4 1.501220 1_455
O141 Si4 1.662221 1_555
O142 S5 1.488465 1_555
O143 S6 1.481859 1_555
