# generated using pymatgen
data_NdMnO3
_symmetry_space_group_name_H-M   'P 1'
_cell_length_a   5.43900702
_cell_length_b   5.59497621
_cell_length_c   7.74393852
_cell_angle_alpha   90.00000000
_cell_angle_beta   90.00000000
_cell_angle_gamma   90.00000000
_symmetry_Int_Tables_number   1
_chemical_formula_structural   NdMnO3
_chemical_formula_sum   'Nd4 Mn4 O12'
_cell_volume   235.65668275
_cell_formula_units_Z   4
loop_
 _symmetry_equiv_pos_site_id
 _symmetry_equiv_pos_as_xyz
  1  'x, y, z'
loop_
 _atom_site_type_symbol
 _atom_site_label
 _atom_site_symmetry_multiplicity
 _atom_site_fract_x
 _atom_site_fract_y
 _atom_site_fract_z
 _atom_site_occupancy
  Nd  Nd0  1  0.51170687  0.44827683  0.25000000  1
  Nd  Nd1  1  0.98829313  0.94827683  0.25000000  1
  Nd  Nd2  1  0.48829313  0.55172317  0.75000000  1
  Nd  Nd3  1  0.01170687  0.05172317  0.75000000  1
  Mn  Mn0  1  -0.00000000  0.50000000  -0.00000000  1
  Mn  Mn1  1  0.50000000  -0.00000000  0.50000000  1
  Mn  Mn2  1  -0.00000000  0.50000000  0.50000000  1
  Mn  Mn3  1  0.50000000  -0.00000000  -0.00000000  1
  O  O0  1  0.41779098  0.01923065  0.25000000  1
  O  O1  1  0.08220902  0.51923065  0.25000000  1
  O  O2  1  0.58220902  0.98076935  0.75000000  1
  O  O3  1  0.91779098  0.48076935  0.75000000  1
  O  O4  1  0.78819187  0.20533944  0.04383581  1
  O  O5  1  0.71180813  0.70533944  0.45616419  1
  O  O6  1  0.21180813  0.79466056  0.54383581  1
  O  O7  1  0.28819187  0.29466056  0.95616419  1
  O  O8  1  0.21180813  0.79466056  0.95616419  1
  O  O9  1  0.28819187  0.29466056  0.54383581  1
  O  O10  1  0.78819187  0.20533944  0.45616419  1
  O  O11  1  0.71180813  0.70533944  0.04383581  1
loop_
_geom_bond_atom_site_label_1
_geom_bond_atom_site_label_2
_geom_bond_distance
_geom_bond_site_symmetry_2
Nd0 O1 2.369533 1_555
Nd0 O11 2.408731 1_555
Nd0 O5 2.408731 1_555
Nd0 O0 2.454250 1_555
Nd0 O4 2.580274 1_555
Nd0 O10 2.580274 1_555
Nd0 O9 2.719244 1_555
Nd0 O7 2.719244 1_554
Nd1 O0 2.369533 1_665
Nd1 O4 2.408731 1_565
Nd1 O10 2.408731 1_565
Nd1 O1 2.454250 1_655
Nd1 O5 2.580274 1_555
Nd1 O11 2.580274 1_555
Nd1 O6 2.719244 1_655
Nd1 O8 2.719244 1_654
Nd2 O3 2.369533 1_555
Nd2 O9 2.408731 1_555
Nd2 O7 2.408731 1_555
Nd2 O2 2.454250 1_555
Nd2 O8 2.580274 1_555
Nd2 O6 2.580274 1_555
Nd2 O5 2.719244 1_555
Nd2 O11 2.719244 1_556
Nd3 O2 2.369533 1_445
Nd3 O8 2.408731 1_545
Nd3 O6 2.408731 1_545
Nd3 O3 2.454250 1_455
Nd3 O7 2.580274 1_555
Nd3 O9 2.580274 1_555
Nd3 O10 2.719244 1_455
Nd3 O4 2.719244 1_456
Mn0 O7 1.972846 1_554
Mn0 O11 1.972846 1_455
Mn0 O3 1.989860 1_454
Mn0 O1 1.989860 1_555
Mn0 O4 2.039692 1_455
Mn0 O8 2.039692 1_554
Mn1 O6 1.972846 1_545
Mn1 O10 1.972846 1_555
Mn1 O2 1.989860 1_545
Mn1 O0 1.989860 1_555
Mn1 O9 2.039692 1_555
Mn1 O5 2.039692 1_545
Mn2 O9 1.972846 1_555
Mn2 O5 1.972846 1_455
Mn2 O3 1.989860 1_455
Mn2 O1 1.989860 1_555
Mn2 O10 2.039692 1_455
Mn2 O6 2.039692 1_555
Mn3 O8 1.972846 1_544
Mn3 O4 1.972846 1_555
Mn3 O2 1.989860 1_544
Mn3 O0 1.989860 1_555
Mn3 O11 2.039692 1_545
Mn3 O7 2.039692 1_554
