# generated using pymatgen
data_Na2TaInSi(PO6)2
_symmetry_space_group_name_H-M   'P 1'
_cell_length_a   8.98757328
_cell_length_b   8.98757297
_cell_length_c   22.49766274
_cell_angle_alpha   89.70321090
_cell_angle_beta   90.29678909
_cell_angle_gamma   119.58441644
_symmetry_Int_Tables_number   1
_chemical_formula_structural   Na2TaInSi(PO6)2
_chemical_formula_sum   'Na12 Ta6 In6 Si6 P12 O72'
_cell_volume   1580.33299988
_cell_formula_units_Z   6
loop_
 _symmetry_equiv_pos_site_id
 _symmetry_equiv_pos_as_xyz
  1  'x, y, z'
loop_
 _atom_site_type_symbol
 _atom_site_label
 _atom_site_symmetry_multiplicity
 _atom_site_fract_x
 _atom_site_fract_y
 _atom_site_fract_z
 _atom_site_occupancy
  Na  Na0  1  0.98842028  0.63617006  0.24265977  1
  Na  Na1  1  0.36382994  0.01157972  0.74265977  1
  Na  Na2  1  0.65012844  0.96402611  0.58329107  1
  Na  Na3  1  0.03597389  0.34987156  0.08329107  1
  Na  Na4  1  0.98888181  0.68379107  0.91688830  1
  Na  Na5  1  0.31620893  0.01111819  0.41688830  1
  Na  Na6  1  -0.00385874  0.98963716  0.49315022  1
  Na  Na7  1  0.01036284  0.00385874  0.99315022  1
  Na  Na8  1  0.67454770  0.32470944  0.82717931  1
  Na  Na9  1  0.67529056  0.32545230  0.32717931  1
  Na  Na10  1  0.35910082  0.68720684  0.15930807  1
  Na  Na11  1  0.31279316  0.64089918  0.65930807  1
  Ta  Ta0  1  0.00092920  0.00003021  0.64593467  1
  Ta  Ta1  1  -0.00003021  0.99907080  0.14593467  1
  Ta  Ta2  1  0.66185191  0.33083377  0.97924012  1
  Ta  Ta3  1  0.66916623  0.33814809  0.47924012  1
  Ta  Ta4  1  0.32787334  0.65858640  0.31231694  1
  Ta  Ta5  1  0.34141360  0.67212666  0.81231694  1
  In  In0  1  0.99213583  0.00103370  0.35146405  1
  In  In1  1  -0.00103370  0.00786417  0.85146405  1
  In  In2  1  0.67269514  0.33598527  0.68462029  1
  In  In3  1  0.66401473  0.32730486  0.18462029  1
  In  In4  1  0.33577181  0.67424469  0.01818360  1
  In  In5  1  0.32575531  0.66422819  0.51818360  1
  Si  Si0  1  0.00099619  0.29527560  0.24994592  1
  Si  Si1  1  0.70472440  -0.00099619  0.74994592  1
  Si  Si2  1  0.36924372  0.03815674  0.58452974  1
  Si  Si3  1  0.96184326  0.63075628  0.08452974  1
  Si  Si4  1  0.33408797  0.96522869  0.91554559  1
  Si  Si5  1  0.03477131  0.66591203  0.41554559  1
  P  P0  1  0.29402375  -0.00161880  0.25308506  1
  P  P1  1  0.70345834  0.71205263  0.24947883  1
  P  P2  1  0.28794737  0.29654166  0.74947883  1
  P  P3  1  0.00161880  0.70597625  0.75308506  1
  P  P4  1  0.96008225  0.32792105  0.58388185  1
  P  P5  1  0.67361966  0.62858227  0.58420380  1
  P  P6  1  0.67207895  0.03991775  0.08388185  1
  P  P7  1  0.37141773  0.32638034  0.08420380  1
  P  P8  1  0.62194442  0.65858511  0.91798118  1
  P  P9  1  0.03834697  0.37571895  0.91986876  1
  P  P10  1  0.62428105  0.96165303  0.41986876  1
  P  P11  1  0.34141489  0.37805558  0.41798118  1
  O  O0  1  0.22012151  0.01401755  0.31174559  1
  O  O1  1  0.82180672  0.78089421  0.30304939  1
  O  O2  1  0.97840406  0.18932190  0.30869764  1
  O  O3  1  0.21910579  0.17819328  0.80304939  1
  O  O4  1  0.98598245  0.77987849  0.81174559  1
  O  O5  1  0.81067810  0.02159594  0.80869764  1
  O  O6  1  0.80066480  0.97704186  0.68924214  1
  O  O7  1  0.16837082  0.19839867  0.69374860  1
  O  O8  1  0.02713410  0.83452468  0.69961830  1
  O  O9  1  0.80160133  0.83162918  0.19374860  1
  O  O10  1  0.02295814  0.19933520  0.18924214  1
  O  O11  1  0.16547532  0.97286590  0.19961830  1
  O  O12  1  0.88858713  0.35681828  0.64063915  1
  O  O13  1  0.47970053  0.11918382  0.64381795  1
  O  O14  1  0.65052973  0.52856089  0.64061789  1
  O  O15  1  0.88081618  0.52029947  0.14381795  1
  O  O16  1  0.64318172  0.11141287  0.14063915  1
  O  O17  1  0.47143911  0.34947027  0.14061789  1
  O  O18  1  0.46701330  0.30441907  0.02864072  1
  O  O19  1  0.83542608  0.52600285  0.02556085  1
  O  O20  1  0.69313141  0.16194087  0.02941477  1
  O  O21  1  0.47399715  0.16457392  0.52556085  1
  O  O22  1  0.69558093  0.53298670  0.52864072  1
  O  O23  1  0.83805913  0.30686859  0.52941477  1
  O  O24  1  0.54263196  0.68086180  0.97362225  1
  O  O25  1  0.12813653  0.44545682  0.97928046  1
  O  O26  1  0.28379992  0.83604362  0.97044776  1
  O  O27  1  0.55454318  0.87186347  0.47928046  1
  O  O28  1  0.31913820  0.45736804  0.47362225  1
  O  O29  1  0.16395638  0.71620008  0.47044776  1
  O  O30  1  0.13596911  0.64112173  0.35577616  1
  O  O31  1  0.50020259  0.85952651  0.36679356  1
  O  O32  1  0.36015887  0.49350056  0.36166641  1
  O  O33  1  0.14047349  0.49979741  0.86679356  1
  O  O34  1  0.35887827  0.86403089  0.85577616  1
  O  O35  1  0.50649944  0.63984113  0.86166641  1
  O  O36  1  0.00760602  0.82961467  0.41068653  1
  O  O37  1  0.80692434  0.99710094  0.41377660  1
  O  O38  1  0.19722097  0.19362936  0.41203649  1
  O  O39  1  0.00289906  0.19307566  0.91377660  1
  O  O40  1  0.17038533  0.99239398  0.91068653  1
  O  O41  1  0.80637064  0.80277903  0.91203649  1
  O  O42  1  0.95393654  0.14891830  0.58631562  1
  O  O43  1  0.17920297  0.02748130  0.59057209  1
  O  O44  1  0.84311248  0.80739338  0.58839287  1
  O  O45  1  0.97251870  0.82079703  0.09057209  1
  O  O46  1  0.85108170  0.04606346  0.08631562  1
  O  O47  1  0.19260662  0.15688752  0.08839287  1
  O  O48  1  0.65687505  0.15038635  0.74794579  1
  O  O49  1  0.47049617  0.33229737  0.74102089  1
  O  O50  1  0.85070734  0.52782968  0.74512999  1
  O  O51  1  0.66770263  0.52950383  0.24102089  1
  O  O52  1  0.84961365  0.34312495  0.24794579  1
  O  O53  1  0.47217032  0.14929266  0.24512999  1
  O  O54  1  0.62940128  0.48729174  0.92147918  1
  O  O55  1  0.86065307  0.37584199  0.92131117  1
  O  O56  1  0.51547723  0.14782076  0.92429989  1
  O  O57  1  0.62415801  0.13934693  0.42131117  1
  O  O58  1  0.51270826  0.37059872  0.42147918  1
  O  O59  1  0.85217924  0.48452277  0.42429989  1
  O  O60  1  0.33523780  0.47433318  0.07698411  1
  O  O61  1  0.15030483  0.65017631  0.08196576  1
  O  O62  1  0.53145552  0.85608838  0.07688232  1
  O  O63  1  0.34982369  0.84969517  0.58196576  1
  O  O64  1  0.52566682  0.66476220  0.57698411  1
  O  O65  1  0.14391162  0.46854448  0.57688232  1
  O  O66  1  0.29913530  0.82513991  0.25358020  1
  O  O67  1  0.53344280  0.71613690  0.25717289  1
  O  O68  1  0.18621817  0.48690471  0.25531091  1
  O  O69  1  0.28386310  0.46655720  0.75717289  1
  O  O70  1  0.17486009  0.70086470  0.75358020  1
  O  O71  1  0.51309529  0.81378183  0.75531091  1
loop_
_geom_bond_atom_site_label_1
_geom_bond_atom_site_label_2
_geom_bond_distance
_geom_bond_site_symmetry_2
Na0 O52 2.293718 1_555
Na0 O15 2.443753 1_555
Na0 O66 2.461178 1_655
Na0 O51 2.549465 1_555
Na0 O68 2.717843 1_655
Na0 O1 2.782574 1_555
Na0 O11 2.803192 1_655
Na0 O30 2.853902 1_655
Na1 O48 2.293719 1_555
Na1 O13 2.443753 1_555
Na1 O70 2.461178 1_545
Na1 O49 2.549465 1_555
Na1 O71 2.717843 1_545
Na1 O3 2.782574 1_555
Na1 O8 2.803192 1_545
Na1 O34 2.853902 1_545
Na2 O64 2.353122 1_555
Na2 O63 2.366946 1_555
Na2 O42 2.395958 1_565
Na2 O27 2.489243 1_555
Na2 O6 2.709091 1_555
Na2 O44 2.722219 1_555
Na2 O13 2.880183 1_565
Na2 O23 2.942809 1_565
Na3 O60 2.353122 1_555
Na3 O61 2.366946 1_555
Na3 O46 2.395958 1_455
Na3 O25 2.489243 1_554
Na3 O10 2.709091 1_555
Na3 O47 2.722219 1_555
Na3 O15 2.880183 1_455
Na3 O20 2.942809 1_455
Na4 O41 2.361206 1_555
Na4 O55 2.418082 1_555
Na4 O40 2.429846 1_655
Na4 O4 2.518395 1_555
Na4 O26 2.598596 1_655
Na4 O54 2.817017 1_555
Na4 O19 2.821075 1_556
Na4 O33 2.849710 1_655
Na5 O38 2.361206 1_555
Na5 O57 2.418082 1_555
Na5 O36 2.429846 1_545
Na5 O0 2.518396 1_555
Na5 O29 2.598596 1_545
Na5 O58 2.817017 1_555
Na5 O21 2.821075 1_555
Na5 O31 2.849710 1_545
Na6 O36 2.386827 1_555
Na6 O37 2.482999 1_455
Na6 O38 2.585613 1_565
Na6 O44 2.633541 1_455
Na6 O43 2.654105 1_565
Na6 O42 2.676182 1_465
Na7 O40 2.386827 1_545
Na7 O39 2.482999 1_555
Na7 O41 2.585613 1_445
Na7 O47 2.633541 1_556
Na7 O45 2.654105 1_446
Na7 O46 2.676182 1_456
Na8 O48 2.331896 1_555
Na8 O50 2.527487 1_555
Na8 O55 2.590009 1_555
Na8 O56 2.664145 1_555
Na8 O49 2.685236 1_555
Na8 O54 2.725279 1_555
Na9 O52 2.331896 1_555
Na9 O53 2.527487 1_555
Na9 O57 2.590009 1_555
Na9 O59 2.664145 1_555
Na9 O51 2.685236 1_555
Na9 O58 2.725280 1_555
Na10 O62 2.412701 1_555
Na10 O61 2.452639 1_555
Na10 O60 2.600787 1_555
Na10 O67 2.634072 1_555
Na10 O66 2.650338 1_555
Na10 O68 2.748186 1_555
Na11 O65 2.412701 1_555
Na11 O63 2.452639 1_555
Na11 O64 2.600787 1_555
Na11 O69 2.634072 1_555
Na11 O70 2.650339 1_555
Na11 O71 2.748186 1_555
In0 O2 1.998199 1_555
In0 O36 2.087208 1_645
In0 O1 2.111586 1_545
In0 O37 2.168640 1_545
In0 O0 2.189163 1_655
In0 O38 2.258050 1_655
In1 O5 1.998199 1_455
In1 O40 2.087208 1_545
In1 O3 2.111586 1_555
In1 O39 2.168640 1_555
In1 O4 2.189163 1_445
In1 O41 2.258050 1_445
In2 O13 2.076733 1_555
In2 O14 2.082301 1_555
In2 O12 2.106725 1_555
In2 O48 2.139091 1_555
In2 O50 2.159564 1_555
In2 O49 2.208537 1_555
In3 O15 2.076733 1_555
In3 O17 2.082301 1_555
In3 O16 2.106725 1_555
In3 O52 2.139091 1_555
In3 O53 2.159564 1_555
In3 O51 2.208537 1_555
In4 O26 2.033593 1_554
In4 O24 2.091561 1_554
In4 O61 2.133061 1_555
In4 O62 2.160610 1_555
In4 O25 2.165512 1_554
In4 O60 2.223769 1_555
In5 O29 2.033593 1_555
In5 O28 2.091561 1_555
In5 O63 2.133061 1_555
In5 O65 2.160610 1_555
In5 O27 2.165512 1_555
In5 O64 2.223769 1_555
O0 P0 1.518472 1_555
O1 P1 1.520313 1_555
O2 Si0 1.579225 1_655
O3 P2 1.520313 1_555
O4 P3 1.518472 1_655
O5 Si1 1.579225 1_555
O6 Si1 1.682450 1_565
O6 Ta0 1.969893 1_665
O7 P2 1.602035 1_555
O7 Ta0 1.988535 1_555
O8 P3 1.600363 1_555
O8 Ta0 2.012745 1_565
O9 P1 1.602035 1_555
O9 Ta1 1.988535 1_655
O10 Si0 1.682450 1_555
O10 Ta1 1.969893 1_545
O11 P0 1.600363 1_565
O11 Ta1 2.012745 1_555
O12 P4 1.512467 1_555
O13 Si2 1.605460 1_555
O14 P5 1.506224 1_555
O15 Si3 1.605460 1_555
O16 P6 1.512467 1_555
O17 P7 1.506224 1_555
O18 P7 1.587723 1_555
O18 Ta2 1.991218 1_554
O19 Si3 1.696593 1_555
O19 Ta2 1.973984 1_554
O20 P6 1.588610 1_555
O20 Ta2 2.014375 1_554
O21 Si2 1.696593 1_555
O21 Ta3 1.973984 1_555
O22 P5 1.587723 1_555
O22 Ta3 1.991218 1_555
O23 P4 1.588610 1_555
O23 Ta3 2.014375 1_555
O24 P8 1.505974 1_555
O25 P9 1.526013 1_555
O26 Si4 1.597108 1_555
O27 P10 1.526013 1_555
O28 P11 1.505974 1_555
O29 Si5 1.597108 1_555
O30 Si5 1.703199 1_555
O30 Ta4 1.924560 1_555
O31 P10 1.580742 1_555
O31 Ta4 2.098524 1_555
O32 P11 1.589370 1_555
O32 Ta4 1.980652 1_555
O33 P9 1.580742 1_555
O33 Ta5 2.098524 1_555
O34 Si4 1.703199 1_555
O34 Ta5 1.924560 1_555
O35 P8 1.589370 1_555
O35 Ta5 1.980652 1_555
O36 Si5 1.609038 1_555
O37 P10 1.516695 1_555
O38 P11 1.524559 1_555
O39 P9 1.516695 1_555
O40 Si4 1.609038 1_555
O41 P8 1.524559 1_555
O42 P4 1.582928 1_555
O42 Ta0 2.074042 1_655
O43 Si2 1.668959 1_555
O43 Ta0 1.951045 1_555
O44 P5 1.579527 1_555
O44 Ta0 2.065099 1_665
O45 Si3 1.668959 1_555
O45 Ta1 1.951045 1_655
O46 P6 1.582929 1_555
O46 Ta1 2.074042 1_645
O47 P7 1.579527 1_555
O47 Ta1 2.065099 1_545
O48 Si1 1.617097 1_555
O49 P2 1.520946 1_555
O50 P3 1.513725 1_655
O51 P1 1.520946 1_555
O52 Si0 1.617097 1_655
O53 P0 1.513725 1_555
O54 P8 1.575230 1_555
O54 Ta2 2.033016 1_555
O55 P9 1.598081 1_655
O55 Ta2 2.087959 1_555
O56 Si4 1.657693 1_545
O56 Ta2 1.957429 1_555
O57 P10 1.598081 1_545
O57 Ta3 2.087959 1_555
O58 P11 1.575230 1_555
O58 Ta3 2.033016 1_555
O59 Si5 1.657693 1_655
O59 Ta3 1.957430 1_555
O60 P7 1.524625 1_555
O61 Si3 1.616102 1_455
O62 P6 1.513486 1_565
O63 Si2 1.616102 1_565
O64 P5 1.524625 1_555
O65 P4 1.513486 1_455
O66 P0 1.580186 1_565
O66 Ta4 2.100332 1_555
O67 P1 1.557038 1_555
O67 Ta4 2.072116 1_555
O68 Si0 1.709130 1_555
O68 Ta4 1.926242 1_555
O69 P2 1.557038 1_555
O69 Ta5 2.072116 1_555
O70 P3 1.580186 1_555
O70 Ta5 2.100332 1_555
O71 Si1 1.709130 1_565
O71 Ta5 1.926242 1_555
