# generated using pymatgen
data_NaSbO3
_symmetry_space_group_name_H-M   'P 1'
_cell_length_a   7.34393749
_cell_length_b   7.34393749
_cell_length_c   7.34393749
_cell_angle_alpha   60.00000000
_cell_angle_beta   60.00000000
_cell_angle_gamma   60.00000000
_symmetry_Int_Tables_number   1
_chemical_formula_structural   NaSbO3
_chemical_formula_sum   'Na4 Sb4 O12'
_cell_volume   280.07343442
_cell_formula_units_Z   4
loop_
 _symmetry_equiv_pos_site_id
 _symmetry_equiv_pos_as_xyz
  1  'x, y, z'
loop_
 _atom_site_type_symbol
 _atom_site_label
 _atom_site_symmetry_multiplicity
 _atom_site_fract_x
 _atom_site_fract_y
 _atom_site_fract_z
 _atom_site_occupancy
  Na  Na0  1  0.12500000  0.62500000  0.62500000  1
  Na  Na1  1  0.62500000  0.12500000  0.62500000  1
  Na  Na2  1  0.62500000  0.62500000  0.12500000  1
  Na  Na3  1  0.62500000  0.62500000  0.62500000  1
  Sb  Sb0  1  0.62500000  0.12500000  0.12500000  1
  Sb  Sb1  1  0.12500000  0.62500000  0.12500000  1
  Sb  Sb2  1  0.12500000  0.12500000  0.62500000  1
  Sb  Sb3  1  0.12500000  0.12500000  0.12500000  1
  O  O0  1  0.79707500  0.79707500  0.20292500  1
  O  O1  1  0.20292500  0.20292500  0.79707500  1
  O  O2  1  0.79707500  0.20292500  0.79707500  1
  O  O3  1  0.20292500  0.79707500  0.20292500  1
  O  O4  1  0.20292500  0.79707500  0.79707500  1
  O  O5  1  0.79707500  0.20292500  0.20292500  1
  O  O6  1  0.45292500  0.45292500  0.04707500  1
  O  O7  1  0.04707500  0.04707500  0.45292500  1
  O  O8  1  0.45292500  0.04707500  0.45292500  1
  O  O9  1  0.04707500  0.45292500  0.04707500  1
  O  O10  1  0.04707500  0.45292500  0.45292500  1
  O  O11  1  0.45292500  0.04707500  0.04707500  1
loop_
_geom_bond_atom_site_label_1
_geom_bond_atom_site_label_2
_geom_bond_distance
_geom_bond_site_symmetry_2
Na0 O4 2.562178 1_555
Na0 O7 2.562178 1_565
Na0 O9 2.562178 1_556
Na0 O3 2.562178 1_555
Na0 O1 2.562178 1_555
Na0 O10 2.562178 1_555
Na1 O1 2.562178 1_555
Na1 O2 2.562178 1_555
Na1 O7 2.562178 1_655
Na1 O11 2.562178 1_556
Na1 O5 2.562178 1_555
Na1 O8 2.562178 1_555
Na2 O0 2.562178 1_555
Na2 O3 2.562178 1_555
Na2 O11 2.562178 1_565
Na2 O5 2.562178 1_555
Na2 O9 2.562178 1_655
Na2 O6 2.562178 1_555
Na3 O4 2.562178 1_555
Na3 O2 2.562178 1_555
Na3 O0 2.562178 1_555
Na3 O8 2.562178 1_565
Na3 O10 2.562178 1_655
Na3 O6 2.562178 1_556
O0 Sb1 2.006449 1_655
O0 Sb0 2.006449 1_565
O1 Sb2 2.006449 1_555
O1 Sb3 2.006449 1_556
O2 Sb2 2.006449 1_655
O2 Sb0 2.006449 1_556
O3 Sb1 2.006449 1_555
O3 Sb3 2.006449 1_565
O4 Sb2 2.006449 1_565
O4 Sb1 2.006449 1_556
O5 Sb3 2.006449 1_655
O5 Sb0 2.006449 1_555
O6 Sb0 2.006449 1_555
O6 Sb1 2.006449 1_555
O7 Sb3 2.006449 1_555
O7 Sb2 2.006449 1_555
O8 Sb2 2.006449 1_555
O8 Sb0 2.006449 1_555
O9 Sb3 2.006449 1_555
O9 Sb1 2.006449 1_555
O10 Sb2 2.006449 1_555
O10 Sb1 2.006449 1_555
O11 Sb3 2.006449 1_555
O11 Sb0 2.006449 1_555
