# generated using pymatgen
data_MgMn6(O2F)4
_symmetry_space_group_name_H-M   'P 1'
_cell_length_a   4.94612275
_cell_length_b   5.00952336
_cell_length_c   8.95415700
_cell_angle_alpha   88.89803239
_cell_angle_beta   89.32840271
_cell_angle_gamma   89.44100690
_symmetry_Int_Tables_number   1
_chemical_formula_structural   MgMn6(O2F)4
_chemical_formula_sum   'Mg1 Mn6 O8 F4'
_cell_volume   221.79722149
_cell_formula_units_Z   1
loop_
 _symmetry_equiv_pos_site_id
 _symmetry_equiv_pos_as_xyz
  1  'x, y, z'
loop_
 _atom_site_type_symbol
 _atom_site_label
 _atom_site_symmetry_multiplicity
 _atom_site_fract_x
 _atom_site_fract_y
 _atom_site_fract_z
 _atom_site_occupancy
  Mg  Mg0  1  0.48676000  0.96846500  0.16469500  1
  Mn  Mn0  1  0.99373200  0.00200300  0.99365100  1
  Mn  Mn1  1  0.96366000  0.97224200  0.35615600  1
  Mn  Mn2  1  0.03000800  0.03576100  0.66474500  1
  Mn  Mn3  1  0.46302300  0.52595000  0.84326800  1
  Mn  Mn4  1  0.55753800  0.46600400  0.16193100  1
  Mn  Mn5  1  0.49715900  0.51006400  0.50768500  1
  O  O0  1  0.17467700  0.80933000  0.50928000  1
  O  O1  1  0.16518300  0.82965500  0.83381800  1
  O  O2  1  0.35278400  0.26775900  0.01391200  1
  O  O3  1  0.33082500  0.33447400  0.67713400  1
  O  O4  1  0.65114600  0.72253900  0.00843600  1
  O  O5  1  0.64761600  0.69430000  0.32291100  1
  O  O6  1  0.83193300  0.16131000  0.17485100  1
  O  O7  1  0.82940900  0.21219200  0.50369800  1
  F  F0  1  0.16028900  0.76288800  0.18047200  1
  F  F1  1  0.34879800  0.23998200  0.31672800  1
  F  F2  1  0.66934700  0.73045500  0.68189500  1
  F  F3  1  0.83222300  0.24074000  0.82759200  1
loop_
_geom_bond_atom_site_label_1
_geom_bond_atom_site_label_2
_geom_bond_distance
_geom_bond_site_symmetry_2
Mg0 O6 1.973705 1_565
Mg0 O4 2.038774 1_555
Mg0 O2 2.105629 1_565
Mg0 O5 2.111067 1_555
Mn0 O1 1.875526 1_645
Mn0 O6 1.979070 1_556
Mn0 O4 2.209663 1_546
Mn0 O2 2.241016 1_656
Mn1 O0 1.899783 1_655
Mn1 O7 1.912093 1_565
Mn1 O6 1.977555 1_565
Mn1 O5 2.130766 1_555
Mn2 O1 1.937809 1_545
Mn2 O0 1.938568 1_545
Mn2 O7 1.952559 1_455
Mn2 O3 2.125800 1_555
Mn3 O3 1.910618 1_555
Mn3 O4 2.032014 1_556
Mn3 O2 2.055028 1_556
Mn3 O1 2.108623 1_555
Mn4 O5 1.916404 1_555
Mn4 O4 1.919290 1_555
Mn4 O2 1.967302 1_555
Mn4 O6 2.035100 1_555
Mn5 O3 1.919954 1_555
Mn5 O5 2.017119 1_555
Mn5 O0 2.178420 1_555
Mn5 O7 2.209377 1_555
F0 Mg0 1.926008 1_555
F0 Mn1 2.127934 1_455
F0 Mn0 2.201780 1_464
F0 Mn4 2.458639 1_555
F1 Mn4 2.048923 1_555
F1 Mg0 2.049451 1_545
F1 Mn5 2.330327 1_555
F1 Mn1 2.359716 1_445
F2 Mn3 2.026764 1_555
F2 Mn5 2.119740 1_555
F2 Mn2 2.362784 1_665
F3 Mn2 2.035239 1_655
F3 Mn0 2.054312 1_555
F3 Mn3 2.312259 1_555
