# generated using pymatgen
data_MgFe12(OF)12
_symmetry_space_group_name_H-M   'P 1'
_cell_length_a   9.85391155
_cell_length_b   14.52425566
_cell_length_c   3.10251900
_cell_angle_alpha   90.00000000
_cell_angle_beta   90.00000000
_cell_angle_gamma   92.33384377
_symmetry_Int_Tables_number   1
_chemical_formula_structural   MgFe12(OF)12
_chemical_formula_sum   'Mg1 Fe12 O12 F12'
_cell_volume   443.66646591
_cell_formula_units_Z   1
loop_
 _symmetry_equiv_pos_site_id
 _symmetry_equiv_pos_as_xyz
  1  'x, y, z'
loop_
 _atom_site_type_symbol
 _atom_site_label
 _atom_site_symmetry_multiplicity
 _atom_site_fract_x
 _atom_site_fract_y
 _atom_site_fract_z
 _atom_site_occupancy
  Mg  Mg0  1  0.49691600  0.17873900  0.00000000  1
  Fe  Fe0  1  0.01778100  0.99121800  0.00000000  1
  Fe  Fe1  1  0.00769900  0.34048000  0.00000000  1
  Fe  Fe2  1  0.01477300  0.67383500  0.00000000  1
  Fe  Fe3  1  0.19411700  0.17141600  0.50000000  1
  Fe  Fe4  1  0.23194800  0.49400200  0.50000000  1
  Fe  Fe5  1  0.26527700  0.85906100  0.50000000  1
  Fe  Fe6  1  0.48086300  0.39033500  0.00000000  1
  Fe  Fe7  1  0.54290700  0.97127400  0.00000000  1
  Fe  Fe8  1  0.51618000  0.66108100  0.00000000  1
  Fe  Fe9  1  0.77432500  0.13005500  0.50000000  1
  Fe  Fe10  1  0.73306400  0.50515300  0.50000000  1
  Fe  Fe11  1  0.74371000  0.81829600  0.50000000  1
  O  O0  1  0.07521400  0.27319400  0.50000000  1
  O  O1  1  0.10638500  0.92926500  0.50000000  1
  O  O2  1  0.14634500  0.10072700  0.00000000  1
  O  O3  1  0.12772700  0.44809500  0.00000000  1
  O  O4  1  0.36633500  0.91096700  0.00000000  1
  O  O5  1  0.36963500  0.40928500  0.50000000  1
  O  O6  1  0.62477400  0.92481300  0.50000000  1
  O  O7  1  0.59030600  0.59695200  0.50000000  1
  O  O8  1  0.65113500  0.09247300  0.00000000  1
  O  O9  1  0.66921700  0.43809100  0.00000000  1
  O  O10  1  0.66214700  0.75910800  0.00000000  1
  O  O11  1  0.91116100  0.04770000  0.50000000  1
  F  F0  1  0.11212700  0.61071700  0.50000000  1
  F  F1  1  0.18300800  0.77511700  0.00000000  1
  F  F2  1  0.31949000  0.23520200  0.00000000  1
  F  F3  1  0.33586300  0.57561800  0.00000000  1
  F  F4  1  0.41602400  0.09842600  0.50000000  1
  F  F5  1  0.41679400  0.73220100  0.50000000  1
  F  F6  1  0.57116800  0.25058300  0.50000000  1
  F  F7  1  0.83934900  0.21779400  0.00000000  1
  F  F8  1  0.85734000  0.88438700  0.00000000  1
  F  F9  1  0.85185400  0.57038300  0.00000000  1
  F  F10  1  0.89396100  0.39632600  0.50000000  1
  F  F11  1  0.91165200  0.73669900  0.50000000  1
loop_
_geom_bond_atom_site_label_1
_geom_bond_atom_site_label_2
_geom_bond_distance
_geom_bond_site_symmetry_2
Mg0 O8 2.008563 1_555
Fe0 O2 1.992644 1_565
Fe0 O1 2.010564 1_554
Fe0 O1 2.010564 1_555
Fe0 O11 2.062378 1_465
Fe0 O11 2.062378 1_464
Fe1 O3 1.921296 1_555
Fe1 O0 1.963935 1_554
Fe1 O0 1.963935 1_555
Fe3 O2 1.908603 1_555
Fe3 O2 1.908603 1_556
Fe3 O0 1.923297 1_555
Fe4 O5 1.868358 1_555
Fe4 O3 1.962119 1_555
Fe4 O3 1.962119 1_556
Fe5 O1 1.902938 1_555
Fe5 O4 1.976176 1_556
Fe5 O4 1.976176 1_555
Fe6 O5 1.925620 1_555
Fe6 O5 1.925620 1_554
Fe6 O9 1.954759 1_555
Fe7 O6 1.885973 1_554
Fe7 O6 1.885973 1_555
Fe7 O4 1.915840 1_555
Fe7 O8 2.020694 1_565
Fe8 O7 1.965426 1_554
Fe8 O7 1.965426 1_555
Fe8 O10 1.982214 1_555
Fe9 O11 1.838538 1_555
Fe9 O8 2.030752 1_555
Fe9 O8 2.030752 1_556
Fe10 O9 1.923810 1_556
Fe10 O9 1.923810 1_555
Fe10 O7 1.977208 1_555
Fe11 O10 1.932643 1_555
Fe11 O10 1.932643 1_556
Fe11 O6 1.978554 1_555
F0 Fe2 2.058820 1_555
F0 Fe2 2.058820 1_556
F0 Fe4 2.104941 1_555
F1 Fe5 2.114144 1_554
F1 Fe5 2.114144 1_555
F1 Fe2 2.171076 1_555
F2 Mg0 1.961123 1_555
F2 Fe3 2.167426 1_555
F2 Fe3 2.167426 1_554
F3 Fe8 2.125625 1_555
F3 Fe4 2.182031 1_555
F3 Fe4 2.182031 1_554
F4 Mg0 2.080082 1_555
F4 Mg0 2.080082 1_556
F4 Fe3 2.468625 1_555
F5 Fe8 2.124835 1_556
F5 Fe8 2.124835 1_555
F5 Fe5 2.418302 1_555
F6 Mg0 1.992090 1_555
F6 Mg0 1.992090 1_556
F7 Fe9 2.091508 1_555
F7 Fe9 2.091508 1_554
F7 Fe1 2.384631 1_655
F8 Fe11 2.119917 1_554
F8 Fe11 2.119917 1_555
F8 Fe0 2.169624 1_655
F9 Fe10 2.140996 1_555
F9 Fe10 2.140996 1_554
F9 Fe2 2.153721 1_655
F10 Fe1 2.096300 1_655
F10 Fe1 2.096300 1_656
F10 Fe10 2.283899 1_555
F11 Fe11 2.074350 1_555
F11 Fe2 2.085230 1_656
F11 Fe2 2.085230 1_655
