# generated using pymatgen
data_ZrMn2
_symmetry_space_group_name_H-M   'P 1'
_cell_length_a   5.29375420
_cell_length_b   5.29370626
_cell_length_c   5.10924551
_cell_angle_alpha   58.79952183
_cell_angle_beta   58.79979558
_cell_angle_gamma   60.00099953
_symmetry_Int_Tables_number   1
_chemical_formula_structural   ZrMn2
_chemical_formula_sum   'Zr2 Mn4'
_cell_volume   99.36788513
_cell_formula_units_Z   2
loop_
 _symmetry_equiv_pos_site_id
 _symmetry_equiv_pos_as_xyz
  1  'x, y, z'
loop_
 _atom_site_type_symbol
 _atom_site_label
 _atom_site_symmetry_multiplicity
 _atom_site_fract_x
 _atom_site_fract_y
 _atom_site_fract_z
 _atom_site_occupancy
  Zr  Zr0  1  0.37436080  0.37436080  0.37691698  1
  Zr  Zr1  1  0.62563920  0.62563920  0.62308302  1
  Mn  Mn0  1  -0.00000000  0.00000000  0.00000000  1
  Mn  Mn1  1  -0.00000000  0.00000000  0.50000000  1
  Mn  Mn2  1  0.50000000  0.00000000  0.00000000  1
  Mn  Mn3  1  -0.00000000  0.50000000  0.00000000  1
loop_
_geom_bond_atom_site_label_1
_geom_bond_atom_site_label_2
_geom_bond_distance
_geom_bond_site_symmetry_2
Zr0 Zr1 3.086478 1_554
Zr0 Zr1 3.218203 1_555
Zr0 Zr1 3.218257 1_545
Zr0 Zr1 3.218295 1_455
Mn0 Mn1 2.554623 1_555
Mn0 Mn1 2.554623 1_554
Mn0 Mn3 2.646853 1_555
Mn0 Mn3 2.646853 1_545
Mn0 Mn2 2.646877 1_555
Mn0 Mn2 2.646877 1_455
Mn0 Zr1 2.973843 1_445
Mn0 Zr0 2.973843 1_554
Mn0 Zr0 3.063925 1_545
Mn0 Zr1 3.063925 1_454
Mn0 Zr1 3.063944 1_544
Mn0 Zr0 3.063944 1_455
Mn1 Mn3 2.554669 1_555
Mn1 Mn3 2.554669 1_546
Mn1 Mn2 2.554692 1_456
Mn1 Mn2 2.554692 1_555
Mn1 Zr0 3.097600 1_555
Mn1 Zr1 3.097600 1_445
Mn1 Zr0 3.097620 1_545
Mn1 Zr1 3.097620 1_455
Mn1 Zr0 3.097641 1_455
Mn1 Zr1 3.097641 1_545
Mn2 Mn3 2.646905 1_645
Mn2 Mn3 2.646905 1_555
Mn2 Zr0 2.973805 1_554
Mn2 Zr1 2.973805 1_545
Mn2 Zr0 3.063865 1_555
Mn2 Zr1 3.063865 1_544
Mn2 Zr0 3.063914 1_545
Mn2 Zr1 3.063914 1_554
Mn3 Zr0 2.973814 1_554
Mn3 Zr1 2.973814 1_455
Mn3 Zr0 3.063876 1_555
Mn3 Zr1 3.063876 1_454
Mn3 Zr1 3.063944 1_554
Mn3 Zr0 3.063944 1_455
