# generated using pymatgen
data_Na5Y3NbSiP5O24
_symmetry_space_group_name_H-M   'P 1'
_cell_length_a   9.24537701
_cell_length_b   9.24881088
_cell_length_c   23.37872482
_cell_angle_alpha   90.02220410
_cell_angle_beta   89.96212836
_cell_angle_gamma   120.15019002
_symmetry_Int_Tables_number   1
_chemical_formula_structural   Na5Y3NbSiP5O24
_chemical_formula_sum   'Na15 Y9 Nb3 Si3 P15 O72'
_cell_volume   1728.63228895
_cell_formula_units_Z   3
loop_
 _symmetry_equiv_pos_site_id
 _symmetry_equiv_pos_as_xyz
  1  'x, y, z'
loop_
 _atom_site_type_symbol
 _atom_site_label
 _atom_site_symmetry_multiplicity
 _atom_site_fract_x
 _atom_site_fract_y
 _atom_site_fract_z
 _atom_site_occupancy
  Na  Na0  1  0.63795342  0.00006368  0.25190402  1
  Na  Na1  1  0.36129815  0.36052661  0.25081572  1
  Na  Na2  1  0.00125959  0.63908748  0.25125142  1
  Na  Na3  1  0.30905766  0.34177533  0.58719376  1
  Na  Na4  1  0.03193471  0.69877932  0.58402724  1
  Na  Na5  1  0.66363353  0.96180813  0.58403918  1
  Na  Na6  1  0.29689267  0.95843539  0.07804565  1
  Na  Na7  1  0.97616382  0.67700209  0.91518790  1
  Na  Na8  1  0.69622398  0.02052206  0.91281645  1
  Na  Na9  1  0.99567771  0.99585295  0.49703263  1
  Na  Na10  1  0.00888489  0.01837505  0.99670842  1
  Na  Na11  1  0.65404957  0.33195029  0.82607649  1
  Na  Na12  1  0.66632185  0.33073319  0.33809883  1
  Na  Na13  1  0.33257347  0.65465662  0.16226825  1
  Na  Na14  1  0.34169444  0.66525721  0.67222159  1
  Y  Y0  1  0.99966316  0.99974674  0.35430570  1
  Y  Y1  1  0.00899350  0.00903279  0.84911195  1
  Y  Y2  1  0.99751389  0.99796523  0.65436078  1
  Y  Y3  1  0.99235209  0.00038653  0.14385490  1
  Y  Y4  1  0.66585586  0.33494596  0.68814590  1
  Y  Y5  1  0.67097306  0.33736783  0.18162090  1
  Y  Y6  1  0.33115543  0.65551704  0.01720438  1
  Y  Y7  1  0.33553198  0.66683432  0.51330625  1
  Y  Y8  1  0.33400232  0.66731887  0.32386898  1
  Nb  Nb0  1  0.66510747  0.33277075  0.97846736  1
  Nb  Nb1  1  0.66755511  0.33854253  0.48113056  1
  Nb  Nb2  1  0.32868669  0.66595552  0.81641785  1
  Si  Si0  1  0.66772141  0.62815670  0.58283043  1
  Si  Si1  1  0.03524820  0.37157756  0.91717793  1
  Si  Si2  1  0.33524417  0.95968053  0.91953958  1
  P  P0  1  0.29538065  0.99768421  0.24819931  1
  P  P1  1  0.70177347  0.70437308  0.25032526  1
  P  P2  1  0.00264525  0.29792093  0.25025047  1
  P  P3  1  0.30161018  0.31185143  0.75036538  1
  P  P4  1  0.00836755  0.69988572  0.75282231  1
  P  P5  1  0.68954001  0.98999894  0.75285784  1
  P  P6  1  0.95392188  0.33225618  0.58121926  1
  P  P7  1  0.37815997  0.04606479  0.58130026  1
  P  P8  1  0.96037149  0.62828751  0.08091973  1
  P  P9  1  0.66769516  0.04455984  0.08055303  1
  P  P10  1  0.37716597  0.33132406  0.08236759  1
  P  P11  1  0.62124604  0.65913167  0.91585128  1
  P  P12  1  0.63764902  0.97952109  0.41868554  1
  P  P13  1  0.34042484  0.36260270  0.41876587  1
  P  P14  1  0.02315842  0.65973638  0.41892947  1
  O  O0  1  0.20852738  0.02499154  0.29962517  1
  O  O1  1  0.81228899  0.78649279  0.30275970  1
  O  O2  1  0.97347841  0.18699198  0.30263273  1
  O  O3  1  0.20900901  0.19805233  0.80060756  1
  O  O4  1  0.98723628  0.78427309  0.80573128  1
  O  O5  1  0.79548823  0.00916399  0.80560460  1
  O  O6  1  0.76750459  0.96479691  0.69696106  1
  O  O7  1  0.20280802  0.24070933  0.69343359  1
  O  O8  1  0.03659288  0.80349451  0.69711139  1
  O  O9  1  0.78342039  0.81323556  0.19675915  1
  O  O10  1  0.02918892  0.21648186  0.19656076  1
  O  O11  1  0.19237095  0.97227795  0.19286360  1
  O  O12  1  0.87586663  0.35948412  0.63437167  1
  O  O13  1  0.48646995  0.11929125  0.63426259  1
  O  O14  1  0.63326791  0.50622367  0.63590239  1
  O  O15  1  0.88179499  0.53576496  0.13710651  1
  O  O16  1  0.64975745  0.12325825  0.13618315  1
  O  O17  1  0.46687313  0.34391063  0.13900242  1
  O  O18  1  0.48638271  0.32245251  0.03077622  1
  O  O19  1  0.84607903  0.52403694  0.02847461  1
  O  O20  1  0.67888948  0.16100941  0.02777293  1
  O  O21  1  0.47654611  0.16065316  0.52842312  1
  O  O22  1  0.68509117  0.51852942  0.52660807  1
  O  O23  1  0.83844378  0.31250376  0.52821925  1
  O  O24  1  0.55271817  0.69833991  0.96896341  1
  O  O25  1  0.14352020  0.45231683  0.97279659  1
  O  O26  1  0.31217335  0.85737687  0.97732913  1
  O  O27  1  0.55076697  0.87152778  0.47147073  1
  O  O28  1  0.32038411  0.44863754  0.47177883  1
  O  O29  1  0.12791300  0.67948857  0.47218974  1
  O  O30  1  0.10001294  0.63226105  0.36376610  1
  O  O31  1  0.53315355  0.90184434  0.36342957  1
  O  O32  1  0.36958005  0.46752731  0.36368455  1
  O  O33  1  0.13743998  0.50280171  0.86238453  1
  O  O34  1  0.36944015  0.85916483  0.86505797  1
  O  O35  1  0.50497353  0.63219303  0.86351002  1
  O  O36  1  0.99723284  0.80995977  0.41439382  1
  O  O37  1  0.81277542  0.00183336  0.41437046  1
  O  O38  1  0.18933295  0.18646482  0.41435597  1
  O  O39  1  0.98243490  0.17816905  0.90991961  1
  O  O40  1  0.17047473  0.97389501  0.91040992  1
  O  O41  1  0.80022607  0.80621304  0.90695211  1
  O  O42  1  0.96667774  0.17110254  0.58403073  1
  O  O43  1  0.20743476  0.04021563  0.58459273  1
  O  O44  1  0.84267319  0.80909703  0.58399312  1
  O  O45  1  0.97617339  0.80334765  0.07993518  1
  O  O46  1  0.82736194  0.03316750  0.07946529  1
  O  O47  1  0.20998558  0.16249464  0.08010486  1
  O  O48  1  0.66396427  0.14092544  0.74840139  1
  O  O49  1  0.47765351  0.33515762  0.74819200  1
  O  O50  1  0.85949880  0.52173116  0.74824261  1
  O  O51  1  0.68047816  0.52635266  0.24569640  1
  O  O52  1  0.84601781  0.31956640  0.24565479  1
  O  O53  1  0.47488892  0.15420224  0.24514262  1
  O  O54  1  0.63880960  0.49853982  0.92524120  1
  O  O55  1  0.85033750  0.37101717  0.92527010  1
  O  O56  1  0.51321877  0.14808271  0.92615138  1
  O  O57  1  0.65073654  0.15470451  0.42668756  1
  O  O58  1  0.50312531  0.34823320  0.42671366  1
  O  O59  1  0.84682941  0.49459954  0.42634925  1
  O  O60  1  0.35695972  0.48455605  0.07888329  1
  O  O61  1  0.13794668  0.65265317  0.07861648  1
  O  O62  1  0.50595154  0.87448709  0.07670734  1
  O  O63  1  0.34828733  0.86679098  0.57384323  1
  O  O64  1  0.50521702  0.65292514  0.57675982  1
  O  O65  1  0.13025521  0.48771730  0.57434304  1
  O  O66  1  0.31297842  0.83884237  0.25527800  1
  O  O67  1  0.52424212  0.68476783  0.25600627  1
  O  O68  1  0.16125857  0.47532641  0.25606512  1
  O  O69  1  0.31514422  0.48756901  0.76102868  1
  O  O70  1  0.17440874  0.68939994  0.76134926  1
  O  O71  1  0.51325617  0.82517569  0.76096044  1
loop_
_geom_bond_atom_site_label_1
_geom_bond_atom_site_label_2
_geom_bond_distance
_geom_bond_site_symmetry_2
Na0 O53 2.547472 1_555
Na0 O67 2.557069 1_545
Na0 O52 2.596855 1_555
Na0 O66 2.599257 1_545
Na0 O31 2.770646 1_545
Na0 O16 2.916584 1_555
Na0 O2 2.938394 1_555
Na0 O9 2.964291 1_545
Na1 O51 2.554974 1_555
Na1 O68 2.556366 1_555
Na1 O67 2.595967 1_555
Na1 O53 2.602819 1_555
Na1 O32 2.805396 1_555
Na1 O17 2.820748 1_555
Na1 O0 2.919774 1_555
Na1 O10 2.950630 1_555
Na2 O66 2.525757 1_555
Na2 O52 2.559195 1_455
Na2 O68 2.597273 1_555
Na2 O51 2.606484 1_455
Na2 O30 2.796078 1_555
Na2 O15 2.862864 1_455
Na2 O1 2.957996 1_455
Na2 O11 3.002010 1_555
Na3 O43 2.456206 1_555
Na3 O64 2.527316 1_555
Na3 O65 2.624375 1_555
Na3 O7 2.661561 1_555
Na3 O42 2.738248 1_455
Na3 O14 2.831649 1_555
Na3 O28 2.857639 1_555
Na4 O44 2.428217 1_455
Na4 O63 2.541583 1_555
Na4 O65 2.543626 1_555
Na4 O43 2.730931 1_565
Na4 O29 2.794829 1_555
Na4 O8 2.808128 1_555
Na5 O64 2.476333 1_555
Na5 O42 2.479685 1_565
Na5 O63 2.599273 1_555
Na5 O44 2.661461 1_555
Na5 O27 2.799756 1_555
Na5 O6 2.805184 1_555
Na5 O13 2.928424 1_565
Na6 O47 2.394373 1_565
Na6 O62 2.418064 1_555
Na6 O61 2.446039 1_555
Na6 O26 2.562874 1_554
Na6 O45 2.564963 1_455
Na6 O11 2.876846 1_555
Na7 O40 2.413389 1_655
Na7 O41 2.462593 1_555
Na7 O55 2.472000 1_555
Na7 O54 2.708409 1_555
Na7 O4 2.728123 1_555
Na7 O19 2.958375 1_556
Na7 O33 2.958415 1_655
Na8 O39 2.292736 1_555
Na8 O56 2.521110 1_555
Na8 O41 2.605037 1_545
Na8 O5 2.688735 1_555
Na8 O55 2.825478 1_555
Na8 O34 2.841761 1_545
Na8 O24 2.896870 1_545
Na8 O20 3.023694 1_556
Na9 O44 2.581118 1_555
Na9 O37 2.587585 1_565
Na9 O36 2.590555 1_555
Na9 O38 2.622383 1_665
Na9 O42 2.696123 1_565
Na9 O43 2.718333 1_665
Na10 O47 2.558934 1_556
Na10 O39 2.593630 1_455
Na10 O46 2.608571 1_456
Na10 O40 2.661656 1_545
Na10 O45 2.688960 1_446
Na10 O41 2.859151 1_445
Na11 O49 2.455314 1_555
Na11 O48 2.566603 1_555
Na11 O50 2.578515 1_555
Na11 O56 2.799259 1_555
Na11 O54 2.825487 1_555
Na11 O55 2.854466 1_555
Na12 O57 2.593707 1_555
Na12 O59 2.607709 1_555
Na12 O58 2.614496 1_555
Na12 O52 2.758461 1_555
Na12 O53 2.760525 1_555
Na12 O51 2.778844 1_555
Na13 O60 2.584477 1_555
Na13 O61 2.652161 1_555
Na13 O68 2.725341 1_555
Na13 O62 2.725711 1_555
Na13 O67 2.743939 1_555
Na13 O66 2.823044 1_555
Na14 O71 2.579298 1_555
Na14 O69 2.582318 1_555
Na14 O70 2.669448 1_555
Na14 O64 2.729104 1_555
Na14 O65 2.921026 1_555
Na14 O63 2.942251 1_555
Nb0 O56 1.994174 1_555
Nb0 O55 1.998401 1_555
Nb0 O20 2.018296 1_556
Nb0 O18 2.018414 1_556
Nb0 O19 2.079261 1_556
Nb0 O54 2.081941 1_555
Nb1 O22 1.911948 1_555
Nb1 O59 2.016466 1_555
Nb1 O58 2.019181 1_555
Nb1 O21 2.031775 1_555
Nb1 O23 2.037357 1_555
Nb1 O57 2.065958 1_555
Nb2 O33 1.968950 1_555
Nb2 O34 1.987692 1_555
Nb2 O70 2.013039 1_555
Nb2 O69 2.050759 1_555
Nb2 O71 2.058072 1_555
Nb2 O35 2.116570 1_555
O0 P0 1.535008 1_545
O0 Y0 2.227476 1_445
O1 P1 1.531317 1_555
O1 Y0 2.216307 1_555
O2 P2 1.532206 1_655
O2 Y0 2.222670 1_545
O3 P3 1.521469 1_555
O3 Y1 2.124384 1_555
O4 P4 1.526256 1_655
O4 Y1 2.229095 1_665
O5 P5 1.529241 1_545
O5 Y1 2.221728 1_655
O6 P5 1.564899 1_555
O6 Y2 2.224912 1_555
O7 P3 1.560787 1_555
O7 Y2 2.279802 1_445
O8 P4 1.559505 1_555
O8 Y2 2.240347 1_455
O9 P1 1.545341 1_555
O9 Y3 2.212900 1_565
O10 P2 1.545192 1_555
O10 Y3 2.223439 1_455
O11 P0 1.553193 1_555
O11 Y3 2.299139 1_465
O12 P6 1.519693 1_555
O12 Y4 2.226265 1_555
O13 P7 1.521270 1_555
O13 Y4 2.234633 1_555
O14 Si0 1.597634 1_555
O14 Y4 2.138552 1_555
O15 P8 1.536435 1_555
O15 Y5 2.157586 1_555
O16 P9 1.539153 1_555
O16 Y5 2.167209 1_555
O17 P10 1.535862 1_555
O17 Y5 2.162022 1_555
O18 P10 1.600826 1_555
O19 P8 1.589619 1_555
O20 P9 1.606910 1_555
O21 P7 1.584273 1_555
O22 Si0 1.715735 1_555
O23 P6 1.585614 1_555
O24 P11 1.517930 1_555
O24 Y6 2.192533 1_556
O25 Si1 1.581295 1_555
O25 Y6 2.084485 1_556
O26 Si2 1.601239 1_555
O26 Y6 2.171660 1_556
O27 P12 1.536043 1_555
O27 Y7 2.171408 1_555
O28 P13 1.533162 1_555
O28 Y7 2.179335 1_555
O29 P14 1.531489 1_555
O29 Y7 2.202372 1_555
O30 P14 1.553243 1_555
O30 Y8 2.224419 1_555
O31 P12 1.556270 1_555
O31 Y8 2.222439 1_555
O32 P13 1.552541 1_555
O32 Y8 2.236392 1_555
O33 Si1 1.689475 1_555
O34 Si2 1.697156 1_555
O35 P11 1.564446 1_555
O36 P14 1.527671 1_655
O36 Y0 2.239925 1_555
O37 P12 1.529196 1_545
O37 Y0 2.233379 1_545
O38 P13 1.526404 1_555
O38 Y0 2.233283 1_445
O39 Si1 1.609190 1_655
O39 Y1 2.216299 1_655
O40 Si2 1.607820 1_555
O40 Y1 2.208798 1_565
O41 P11 1.539643 1_555
O41 Y1 2.331134 1_665
O42 P6 1.554483 1_555
O42 Y2 2.410440 1_545
O43 P7 1.553810 1_555
O43 Y2 2.411289 1_445
O44 Si0 1.642701 1_555
O44 Y2 2.301294 1_555
O45 P8 1.551052 1_555
O45 Y3 2.302369 1_565
O46 P9 1.532008 1_555
O46 Y3 2.269975 1_555
O47 P10 1.551008 1_555
O47 Y3 2.342025 1_455
O48 P5 1.531989 1_545
O48 Y4 2.274910 1_555
O49 P3 1.531522 1_555
O49 Y4 2.235723 1_555
O50 P4 1.530590 1_655
O50 Y4 2.249034 1_555
O51 P1 1.560646 1_555
O51 Y5 2.269512 1_555
O52 P2 1.562047 1_655
O52 Y5 2.271196 1_555
O53 P0 1.562549 1_545
O53 Y5 2.296756 1_555
O54 P11 1.588459 1_555
O55 Si1 1.717299 1_655
O56 Si2 1.699297 1_545
O57 P12 1.574061 1_545
O58 P13 1.586221 1_555
O59 P14 1.587166 1_655
O60 P10 1.521873 1_555
O60 Y6 2.239980 1_555
O61 P8 1.541838 1_455
O61 Y6 2.280784 1_555
O62 P9 1.534826 1_565
O62 Y6 2.315464 1_555
O63 P7 1.547803 1_565
O63 Y7 2.283893 1_555
O64 Si0 1.635820 1_555
O64 Y7 2.210047 1_555
O65 P6 1.547941 1_455
O65 Y7 2.285266 1_555
O66 P0 1.566025 1_555
O66 Y8 2.331948 1_555
O67 P1 1.563743 1_555
O67 Y8 2.312586 1_555
O68 P2 1.563385 1_555
O68 Y8 2.317089 1_555
O69 P3 1.585705 1_555
O70 P4 1.598653 1_555
O71 P5 1.587466 1_555
