# generated using pymatgen
data_LiAuC2
_symmetry_space_group_name_H-M   'P 1'
_cell_length_a   3.86792808
_cell_length_b   3.86792808
_cell_length_c   5.24486200
_cell_angle_alpha   90.00000000
_cell_angle_beta   90.00000000
_cell_angle_gamma   120.00000136
_symmetry_Int_Tables_number   1
_chemical_formula_structural   LiAuC2
_chemical_formula_sum   'Li1 Au1 C2'
_cell_volume   67.95500862
_cell_formula_units_Z   1
loop_
 _symmetry_equiv_pos_site_id
 _symmetry_equiv_pos_as_xyz
  1  'x, y, z'
loop_
 _atom_site_type_symbol
 _atom_site_label
 _atom_site_symmetry_multiplicity
 _atom_site_fract_x
 _atom_site_fract_y
 _atom_site_fract_z
 _atom_site_occupancy
  Li  Li0  1  0.00000000  0.00000000  0.50000000  1
  Au  Au0  1  0.66666700  0.33333300  0.00000000  1
  C  C0  1  0.66666700  0.33333300  0.61899700  1
  C  C1  1  0.66666700  0.33333300  0.38100300  1
loop_
_geom_bond_atom_site_label_1
_geom_bond_atom_site_label_2
_geom_bond_distance
_geom_bond_site_symmetry_2
Au0 C1 1.998308 1_555
Au0 C0 1.998308 1_554
C0 C1 1.248246 1_555
C0 Li0 2.318723 1_655
C0 Li0 2.318726 1_555
C0 Li0 2.318726 1_665
C1 Li0 2.318723 1_655
C1 Li0 2.318726 1_555
C1 Li0 2.318726 1_665
