# generated using pymatgen
data_Cu4P2O9
_symmetry_space_group_name_H-M   'P 1'
_cell_length_a   6.38098100
_cell_length_b   8.15510400
_cell_length_c   13.63420200
_cell_angle_alpha   90.00000000
_cell_angle_beta   90.00000000
_cell_angle_gamma   90.00000000
_symmetry_Int_Tables_number   1
_chemical_formula_structural   Cu4P2O9
_chemical_formula_sum   'Cu16 P8 O36'
_cell_volume   709.49065476
_cell_formula_units_Z   4
loop_
 _symmetry_equiv_pos_site_id
 _symmetry_equiv_pos_as_xyz
  1  'x, y, z'
loop_
 _atom_site_type_symbol
 _atom_site_label
 _atom_site_symmetry_multiplicity
 _atom_site_fract_x
 _atom_site_fract_y
 _atom_site_fract_z
 _atom_site_occupancy
  Cu  Cu0  1  0.25000000  0.64489800  0.55206500  1
  Cu  Cu1  1  0.75000000  0.35510200  0.44793500  1
  Cu  Cu2  1  0.25000000  0.14489800  0.94793500  1
  Cu  Cu3  1  0.75000000  0.85510200  0.05206500  1
  Cu  Cu4  1  0.25000000  0.93716900  0.41208200  1
  Cu  Cu5  1  0.75000000  0.06283100  0.58791800  1
  Cu  Cu6  1  0.25000000  0.43716900  0.08791800  1
  Cu  Cu7  1  0.75000000  0.56283100  0.91208200  1
  Cu  Cu8  1  0.50723300  0.14732600  0.15711600  1
  Cu  Cu9  1  0.00723300  0.85267400  0.84288400  1
  Cu  Cu10  1  0.99276700  0.64732600  0.34288400  1
  Cu  Cu11  1  0.49276700  0.35267400  0.65711600  1
  Cu  Cu12  1  0.49276700  0.85267400  0.84288400  1
  Cu  Cu13  1  0.99276700  0.14732600  0.15711600  1
  Cu  Cu14  1  0.00723300  0.35267400  0.65711600  1
  Cu  Cu15  1  0.50723300  0.64732600  0.34288400  1
  P  P0  1  0.75000000  0.14994300  0.91516400  1
  P  P1  1  0.25000000  0.85005700  0.08483600  1
  P  P2  1  0.75000000  0.64994300  0.58483600  1
  P  P3  1  0.25000000  0.35005700  0.41516400  1
  P  P4  1  0.75000000  0.99676400  0.34318200  1
  P  P5  1  0.25000000  0.00323600  0.65681800  1
  P  P6  1  0.75000000  0.49676400  0.15681800  1
  P  P7  1  0.25000000  0.50323600  0.84318200  1
  O  O0  1  0.25000000  0.70213500  0.40622600  1
  O  O1  1  0.75000000  0.29786500  0.59377400  1
  O  O2  1  0.25000000  0.20213500  0.09377400  1
  O  O3  1  0.75000000  0.79786500  0.90622600  1
  O  O4  1  0.94962200  0.38789600  0.15123600  1
  O  O5  1  0.44962200  0.61210400  0.84876400  1
  O  O6  1  0.55037800  0.88789600  0.34876400  1
  O  O7  1  0.05037800  0.11210400  0.65123600  1
  O  O8  1  0.05037800  0.61210400  0.84876400  1
  O  O9  1  0.55037800  0.38789600  0.15123600  1
  O  O10  1  0.44962200  0.11210400  0.65123600  1
  O  O11  1  0.94962200  0.88789600  0.34876400  1
  O  O12  1  0.25000000  0.40266700  0.74451400  1
  O  O13  1  0.75000000  0.59733300  0.25548600  1
  O  O14  1  0.04740400  0.41459100  0.36255500  1
  O  O15  1  0.25000000  0.90266700  0.75548600  1
  O  O16  1  0.25000000  0.38165000  0.93032200  1
  O  O17  1  0.75000000  0.61835000  0.06967800  1
  O  O18  1  0.25000000  0.88165000  0.56967800  1
  O  O19  1  0.75000000  0.11835000  0.43032200  1
  O  O20  1  0.95259600  0.58540900  0.63744500  1
  O  O21  1  0.45259600  0.41459100  0.36255500  1
  O  O22  1  0.54740400  0.08540900  0.86255500  1
  O  O23  1  0.04740400  0.91459100  0.13744500  1
  O  O24  1  0.75000000  0.33457000  0.91024800  1
  O  O25  1  0.25000000  0.66543000  0.08975200  1
  O  O26  1  0.75000000  0.83457000  0.58975200  1
  O  O27  1  0.25000000  0.16543000  0.41024800  1
  O  O28  1  0.75000000  0.09007700  0.02444200  1
  O  O29  1  0.25000000  0.90992300  0.97555800  1
  O  O30  1  0.75000000  0.59007700  0.47555800  1
  O  O31  1  0.25000000  0.40992300  0.52444200  1
  O  O32  1  0.95259600  0.08540900  0.86255500  1
  O  O33  1  0.45259600  0.91459100  0.13744500  1
  O  O34  1  0.54740400  0.58540900  0.63744500  1
  O  O35  1  0.75000000  0.09733300  0.24451400  1
loop_
_geom_bond_atom_site_label_1
_geom_bond_atom_site_label_2
_geom_bond_distance
_geom_bond_site_symmetry_2
Cu0 O18 1.945614 1_555
Cu0 O31 1.952905 1_555
Cu0 O0 2.042451 1_555
Cu0 O34 2.278560 1_555
Cu0 O20 2.278560 1_455
Cu1 O19 1.945614 1_555
Cu1 O30 1.952905 1_555
Cu1 O1 2.042451 1_555
Cu1 O14 2.278560 1_655
Cu1 O21 2.278560 1_555
Cu2 O16 1.945614 1_555
Cu2 O29 1.952905 1_545
Cu2 O2 2.042451 1_556
Cu2 O22 2.278560 1_555
Cu2 O32 2.278560 1_455
Cu3 O17 1.945614 1_555
Cu3 O28 1.952905 1_565
Cu3 O3 2.042451 1_554
Cu3 O23 2.278560 1_655
Cu3 O33 2.278560 1_555
Cu4 O27 1.861660 1_565
Cu4 O0 1.918389 1_555
Cu4 O6 2.140210 1_555
Cu4 O11 2.140210 1_455
Cu4 O18 2.195880 1_555
Cu5 O26 1.861660 1_545
Cu5 O1 1.918389 1_555
Cu5 O7 2.140210 1_655
Cu5 O10 2.140210 1_555
Cu5 O19 2.195880 1_555
Cu6 O25 1.861660 1_555
Cu6 O2 1.918389 1_555
Cu6 O9 2.140210 1_555
Cu6 O4 2.140210 1_455
Cu6 O16 2.195880 1_554
Cu7 O24 1.861660 1_555
Cu7 O3 1.918389 1_555
Cu7 O8 2.140210 1_655
Cu7 O5 2.140210 1_555
Cu7 O17 2.195880 1_556
Cu8 O2 1.907829 1_555
Cu8 O33 1.948281 1_545
Cu8 O9 1.982717 1_555
Cu8 O35 1.996451 1_555
Cu8 O28 2.426889 1_555
Cu9 O3 1.907829 1_455
Cu9 O32 1.948281 1_465
Cu9 O8 1.982717 1_555
Cu9 O15 1.996451 1_555
Cu9 O29 2.426889 1_555
Cu10 O0 1.907829 1_655
Cu10 O14 1.948281 1_655
Cu10 O11 1.982717 1_555
Cu10 O13 1.996451 1_555
Cu10 O30 2.426889 1_555
Cu11 O1 1.907829 1_555
Cu11 O34 1.948281 1_555
Cu11 O10 1.982717 1_555
Cu11 O12 1.996451 1_555
Cu11 O31 2.426889 1_555
Cu12 O3 1.907829 1_555
Cu12 O22 1.948281 1_565
Cu12 O5 1.982717 1_555
Cu12 O15 1.996451 1_555
Cu12 O29 2.426889 1_555
Cu13 O2 1.907829 1_655
Cu13 O23 1.948281 1_645
Cu13 O4 1.982717 1_555
Cu13 O35 1.996451 1_555
Cu13 O28 2.426889 1_555
Cu14 O1 1.907829 1_455
Cu14 O20 1.948281 1_455
Cu14 O7 1.982717 1_555
Cu14 O12 1.996451 1_555
Cu14 O31 2.426889 1_555
Cu15 O0 1.907829 1_555
Cu15 O21 1.948281 1_555
Cu15 O6 1.982717 1_555
Cu15 O13 1.996451 1_555
Cu15 O30 2.426889 1_555
O4 P6 1.554529 1_555
O5 P7 1.554529 1_555
O6 P4 1.554529 1_555
O7 P5 1.554529 1_555
O8 P7 1.554529 1_555
O9 P6 1.554529 1_555
O10 P5 1.554529 1_555
O11 P4 1.554529 1_555
O12 P7 1.575554 1_555
O13 P6 1.575554 1_555
O14 P3 1.569298 1_555
O15 P5 1.575554 1_565
O16 P7 1.547485 1_555
O17 P6 1.547485 1_555
O18 P5 1.547485 1_565
O19 P4 1.547485 1_545
O20 P2 1.569298 1_555
O21 P3 1.569298 1_555
O22 P0 1.569298 1_555
O23 P1 1.569298 1_555
O24 P0 1.507144 1_555
O25 P1 1.507144 1_555
O26 P2 1.507144 1_555
O27 P3 1.507144 1_555
O28 P0 1.567868 1_554
O29 P1 1.567868 1_556
O30 P2 1.567868 1_555
O31 P3 1.567868 1_555
O32 P0 1.569298 1_555
O33 P1 1.569298 1_555
O34 P2 1.569298 1_555
O35 P4 1.575554 1_545
