# generated using pymatgen
data_Eu(SiAg)2
_symmetry_space_group_name_H-M   'P 1'
_cell_length_a   4.29258501
_cell_length_b   4.29258515
_cell_length_c   6.08843334
_cell_angle_alpha   110.64150634
_cell_angle_beta   110.64150390
_cell_angle_gamma   90.00000548
_symmetry_Int_Tables_number   1
_chemical_formula_structural   Eu(SiAg)2
_chemical_formula_sum   'Eu1 Si2 Ag2'
_cell_volume   97.25148720
_cell_formula_units_Z   1
loop_
 _symmetry_equiv_pos_site_id
 _symmetry_equiv_pos_as_xyz
  1  'x, y, z'
loop_
 _atom_site_type_symbol
 _atom_site_label
 _atom_site_symmetry_multiplicity
 _atom_site_fract_x
 _atom_site_fract_y
 _atom_site_fract_z
 _atom_site_occupancy
  Eu  Eu0  1  0.00000000  -0.00000000  -0.00000000  1
  Si  Si0  1  0.60918685  0.60918685  0.21837269  1
  Si  Si1  1  0.39081315  0.39081315  0.78162731  1
  Ag  Ag0  1  0.25000000  0.75000000  0.50000000  1
  Ag  Ag1  1  0.75000000  0.25000000  0.50000000  1
loop_
_geom_bond_atom_site_label_1
_geom_bond_atom_site_label_2
_geom_bond_distance
_geom_bond_site_symmetry_2
Eu0 Si1 3.246764 1_554
Eu0 Si0 3.246764 1_445
Eu0 Si1 3.246767 1_544
Eu0 Si0 3.246767 1_455
Eu0 Si1 3.246767 1_454
Eu0 Si0 3.246767 1_545
Eu0 Si0 3.246770 1_555
Eu0 Si1 3.246770 1_444
Si0 Si1 2.305084 1_554
Ag0 Si0 2.610732 1_455
Ag0 Si1 2.610732 1_565
Ag0 Si0 2.610736 1_555
Ag0 Si1 2.610736 1_555
Ag0 Ag1 3.035316 1_455
Ag0 Ag1 3.035316 1_565
Ag0 Ag1 3.035316 1_465
Ag0 Ag1 3.035316 1_555
Ag0 Eu0 3.401550 1_566
Ag0 Eu0 3.401550 1_555
Ag0 Eu0 3.401550 1_666
Ag0 Eu0 3.401550 1_565
Ag1 Si1 2.610732 1_655
Ag1 Si0 2.610732 1_545
Ag1 Si1 2.610736 1_555
Ag1 Si0 2.610736 1_555
Ag1 Eu0 3.401550 1_655
Ag1 Eu0 3.401550 1_666
Ag1 Eu0 3.401550 1_555
Ag1 Eu0 3.401550 1_656
