# generated using pymatgen
data_CaMn7O12
_symmetry_space_group_name_H-M   'P 1'
_cell_length_a   6.37481646
_cell_length_b   6.37482039
_cell_length_c   6.37480911
_cell_angle_alpha   109.47121550
_cell_angle_beta   109.47140608
_cell_angle_gamma   109.47110744
_symmetry_Int_Tables_number   1
_chemical_formula_structural   CaMn7O12
_chemical_formula_sum   'Ca1 Mn7 O12'
_cell_volume   199.42544627
_cell_formula_units_Z   1
loop_
 _symmetry_equiv_pos_site_id
 _symmetry_equiv_pos_as_xyz
  1  'x, y, z'
loop_
 _atom_site_type_symbol
 _atom_site_label
 _atom_site_symmetry_multiplicity
 _atom_site_fract_x
 _atom_site_fract_y
 _atom_site_fract_z
 _atom_site_occupancy
  Ca  Ca0  1  0.00000030  0.00000017  0.00000016  1
  Mn  Mn0  1  0.50000030  -0.00000089  0.49999922  1
  Mn  Mn1  1  0.00000031  0.50000328  0.50000336  1
  Mn  Mn2  1  0.50000026  0.49999895  -0.00000095  1
  Mn  Mn3  1  -0.00000043  0.00000024  0.49999983  1
  Mn  Mn4  1  0.50000076  0.00000019  0.00000096  1
  Mn  Mn5  1  0.00000083  0.50000025  0.00000085  1
  Mn  Mn6  1  0.49999966  0.50000020  0.49999949  1
  O  O0  1  0.17877831  0.86983547  0.69105133  1
  O  O1  1  0.82121357  0.13015766  0.30894445  1
  O  O2  1  0.82121230  0.51227086  0.69105876  1
  O  O3  1  0.17879171  0.48773102  0.30893983  1
  O  O4  1  0.86983811  0.69105607  0.17878410  1
  O  O5  1  0.13016240  0.30894421  0.82121618  1
  O  O6  1  0.51227087  0.69105860  0.82121162  1
  O  O7  1  0.48772963  0.30894179  0.17878887  1
  O  O8  1  0.69105279  0.17878038  0.86984017  1
  O  O9  1  0.30894799  0.82122057  0.13016099  1
  O  O10  1  0.69105723  0.82121240  0.51227154  1
  O  O11  1  0.30894308  0.17878856  0.48772924  1
loop_
_geom_bond_atom_site_label_1
_geom_bond_atom_site_label_2
_geom_bond_distance
_geom_bond_site_symmetry_2
Ca0 O10 2.627466 1_444
Ca0 O11 2.627467 1_555
Ca0 O9 2.627472 1_545
Ca0 O8 2.627473 1_454
Ca0 O7 2.627476 1_555
Ca0 O6 2.627476 1_444
Ca0 O2 2.627476 1_444
Ca0 O3 2.627477 1_555
Ca0 O0 2.627478 1_544
Ca0 O5 2.627483 1_554
Ca0 O4 2.627483 1_445
Ca0 O1 2.627490 1_455
Mn0 O9 1.926068 1_545
Mn0 O8 1.926082 1_555
Mn0 O10 1.926101 1_545
Mn0 O11 1.926116 1_555
Mn1 O0 1.926043 1_555
Mn1 O2 1.926100 1_455
Mn1 O1 1.926113 1_455
Mn1 O3 1.926161 1_555
Mn2 O4 1.926070 1_555
Mn2 O5 1.926070 1_554
Mn2 O7 1.926118 1_555
Mn2 O6 1.926119 1_554
Mn3 O1 1.962024 1_455
Mn3 O0 1.962025 1_545
Mn3 O5 1.962032 1_555
Mn3 O4 1.962033 1_445
Mn3 O10 1.962036 1_445
Mn3 O11 1.962039 1_555
Mn4 O9 1.962014 1_545
Mn4 O8 1.962017 1_554
Mn4 O1 1.962022 1_555
Mn4 O6 1.962027 1_544
Mn4 O7 1.962029 1_555
Mn4 O0 1.962065 1_544
Mn5 O3 1.962007 1_555
Mn5 O2 1.962024 1_454
Mn5 O5 1.962048 1_554
Mn5 O4 1.962049 1_455
Mn5 O9 1.962065 1_555
Mn5 O8 1.962066 1_454
Mn6 O3 1.962006 1_555
Mn6 O7 1.962018 1_555
Mn6 O6 1.962022 1_555
Mn6 O10 1.962023 1_555
Mn6 O11 1.962024 1_555
Mn6 O2 1.962025 1_555
