# generated using pymatgen
data_GdCuSn
_symmetry_space_group_name_H-M   'P 1'
_cell_length_a   4.53089015
_cell_length_b   4.53089015
_cell_length_c   7.41590139
_cell_angle_alpha   90.00000000
_cell_angle_beta   90.00000000
_cell_angle_gamma   120.00000803
_symmetry_Int_Tables_number   1
_chemical_formula_structural   GdCuSn
_chemical_formula_sum   'Gd2 Cu2 Sn2'
_cell_volume   131.84437590
_cell_formula_units_Z   2
loop_
 _symmetry_equiv_pos_site_id
 _symmetry_equiv_pos_as_xyz
  1  'x, y, z'
loop_
 _atom_site_type_symbol
 _atom_site_label
 _atom_site_symmetry_multiplicity
 _atom_site_fract_x
 _atom_site_fract_y
 _atom_site_fract_z
 _atom_site_occupancy
  Gd  Gd0  1  0.00000000  0.00000000  0.49824789  1
  Gd  Gd1  1  0.00000000  0.00000000  0.99824403  1
  Cu  Cu0  1  0.66666700  0.33333300  0.31638281  1
  Cu  Cu1  1  0.33333300  0.66666700  0.81639133  1
  Sn  Sn0  1  0.33333300  0.66666700  0.22855277  1
  Sn  Sn1  1  0.66666700  0.33333300  0.72858018  1
loop_
_geom_bond_atom_site_label_1
_geom_bond_atom_site_label_2
_geom_bond_distance
_geom_bond_site_symmetry_2
Gd0 Sn1 3.124205 1_455
Gd0 Sn1 3.124208 1_445
Gd0 Sn1 3.124208 1_555
Gd0 Sn0 3.292887 1_545
Gd0 Sn0 3.292890 1_445
Gd0 Sn0 3.292890 1_555
Gd1 Sn0 3.124109 1_546
Gd1 Sn0 3.124112 1_556
Gd1 Sn0 3.124112 1_446
Gd1 Sn1 3.292746 1_455
Gd1 Sn1 3.292749 1_445
Gd1 Sn1 3.292749 1_555
Cu0 Sn0 2.695777 1_545
Cu0 Sn0 2.695777 1_655
Cu0 Sn0 2.695785 1_555
Cu0 Gd0 2.943119 1_655
Cu0 Gd0 2.943122 1_555
Cu0 Gd0 2.943122 1_665
Cu0 Sn1 3.056815 1_555
Cu0 Gd1 3.522670 1_654
Cu0 Gd1 3.522673 1_664
Cu0 Gd1 3.522673 1_554
Cu1 Sn1 2.695744 1_455
Cu1 Sn1 2.695744 1_565
Cu1 Sn1 2.695752 1_555
Cu1 Gd1 2.943077 1_565
Cu1 Gd1 2.943080 1_555
Cu1 Gd1 2.943080 1_665
Cu1 Sn0 3.056549 1_556
Cu1 Gd0 3.522693 1_565
Cu1 Gd0 3.522696 1_555
Cu1 Gd0 3.522696 1_665
