# generated using pymatgen
data_PbS2O3
_symmetry_space_group_name_H-M   'P 1'
_cell_length_a   7.07700200
_cell_length_b   7.32207000
_cell_length_c   16.43508500
_cell_angle_alpha   90.00000000
_cell_angle_beta   90.00000000
_cell_angle_gamma   90.00000000
_symmetry_Int_Tables_number   1
_chemical_formula_structural   PbS2O3
_chemical_formula_sum   'Pb8 S16 O24'
_cell_volume   851.63823136
_cell_formula_units_Z   8
loop_
 _symmetry_equiv_pos_site_id
 _symmetry_equiv_pos_as_xyz
  1  'x, y, z'
loop_
 _atom_site_type_symbol
 _atom_site_label
 _atom_site_symmetry_multiplicity
 _atom_site_fract_x
 _atom_site_fract_y
 _atom_site_fract_z
 _atom_site_occupancy
  Pb  Pb0  1  0.65446600  0.52845600  0.12303100  1
  Pb  Pb1  1  0.15446600  0.47154400  0.37696900  1
  Pb  Pb2  1  0.84553400  0.02845600  0.87696900  1
  Pb  Pb3  1  0.34553400  0.97154400  0.62303100  1
  Pb  Pb4  1  0.34553400  0.47154400  0.87696900  1
  Pb  Pb5  1  0.84553400  0.52845600  0.62303100  1
  Pb  Pb6  1  0.15446600  0.97154400  0.12303100  1
  Pb  Pb7  1  0.65446600  0.02845600  0.37696900  1
  S  S0  1  0.32900400  0.99917800  0.89315100  1
  S  S1  1  0.30397200  0.10772500  0.29170000  1
  S  S2  1  0.69602800  0.39227500  0.79170000  1
  S  S3  1  0.19602800  0.60772500  0.70830000  1
  S  S4  1  0.19602800  0.10772500  0.79170000  1
  S  S5  1  0.69602800  0.89227500  0.70830000  1
  S  S6  1  0.30397200  0.60772500  0.20830000  1
  S  S7  1  0.80397200  0.39227500  0.29170000  1
  S  S8  1  0.67099600  0.00082200  0.10684900  1
  S  S9  1  0.17099600  0.99917800  0.39315100  1
  S  S10  1  0.82900400  0.50082200  0.89315100  1
  S  S11  1  0.32900400  0.49917800  0.60684900  1
  S  S12  1  0.67099600  0.50082200  0.39315100  1
  S  S13  1  0.82900400  0.00082200  0.60684900  1
  S  S14  1  0.17099600  0.49917800  0.10684900  1
  S  S15  1  0.80397200  0.89227500  0.20830000  1
  O  O0  1  0.56574500  0.16713600  0.12925700  1
  O  O1  1  0.06574500  0.83286400  0.37074300  1
  O  O2  1  0.93425500  0.66713600  0.87074300  1
  O  O3  1  0.43425500  0.33286400  0.62925700  1
  O  O4  1  0.43425500  0.83286400  0.87074300  1
  O  O5  1  0.93425500  0.16713600  0.62925700  1
  O  O6  1  0.06574500  0.33286400  0.12925700  1
  O  O7  1  0.56574500  0.66713600  0.37074300  1
  O  O8  1  0.53958600  0.85763700  0.07661300  1
  O  O9  1  0.03958600  0.14236300  0.42338700  1
  O  O10  1  0.96041400  0.35763700  0.92338700  1
  O  O11  1  0.46041400  0.64236300  0.57661300  1
  O  O12  1  0.46041400  0.14236300  0.92338700  1
  O  O13  1  0.96041400  0.85763700  0.57661300  1
  O  O14  1  0.03958600  0.64236300  0.07661300  1
  O  O15  1  0.53958600  0.35763700  0.42338700  1
  O  O16  1  0.82592400  0.03636300  0.04775500  1
  O  O17  1  0.32592400  0.96363700  0.45224500  1
  O  O18  1  0.67407600  0.53636300  0.95224500  1
  O  O19  1  0.82592400  0.53636300  0.45224500  1
  O  O20  1  0.17407600  0.96363700  0.95224500  1
  O  O21  1  0.67407600  0.03636300  0.54775500  1
  O  O22  1  0.32592400  0.46363700  0.04775500  1
  O  O23  1  0.17407600  0.46363700  0.54775500  1
loop_
_geom_bond_atom_site_label_1
_geom_bond_atom_site_label_2
_geom_bond_distance
_geom_bond_site_symmetry_2
Pb0 S6 2.907478 1_555
Pb0 S7 3.130211 1_555
Pb0 S15 3.190583 1_555
Pb1 S7 2.907478 1_455
Pb1 S6 3.130211 1_555
Pb1 S1 3.190583 1_555
Pb2 S4 2.907478 1_655
Pb2 S5 3.130211 1_545
Pb2 S2 3.190583 1_555
Pb3 S5 2.907478 1_555
Pb3 S4 3.130211 1_565
Pb3 S3 3.190583 1_555
Pb4 S2 2.907478 1_555
Pb4 S3 3.130211 1_555
Pb4 S4 3.190583 1_555
Pb5 S3 2.907478 1_655
Pb5 S2 3.130211 1_555
Pb5 S5 3.190583 1_555
Pb6 S15 2.907478 1_455
Pb6 S1 3.130211 1_565
Pb6 S6 3.190583 1_555
Pb7 S1 2.907478 1_555
Pb7 S15 3.130211 1_545
Pb7 S7 3.190583 1_555
S0 S4 2.073012 1_565
S1 S9 2.073012 1_545
S10 S2 2.073012 1_555
S11 S3 2.073012 1_555
S12 S7 2.073012 1_555
S13 S5 2.073012 1_545
S14 S6 2.073012 1_555
S15 S8 2.073012 1_565
O0 S8 1.474243 1_555
O0 Pb0 2.721021 1_555
O1 S9 1.474243 1_555
O1 Pb1 2.721021 1_555
O2 S10 1.474243 1_555
O2 Pb2 2.721021 1_565
O3 S11 1.474243 1_555
O3 Pb3 2.721021 1_545
O4 S0 1.474243 1_555
O4 Pb4 2.721021 1_555
O5 S13 1.474243 1_555
O5 Pb5 2.721021 1_555
O6 S14 1.474243 1_555
O6 Pb6 2.721021 1_545
O7 S12 1.474243 1_555
O7 Pb7 2.721021 1_565
O8 S8 1.486938 1_565
O8 Pb0 2.655645 1_555
O9 S9 1.486938 1_545
O9 Pb1 2.655645 1_555
O10 S10 1.486938 1_555
O10 Pb2 2.655645 1_555
O11 S11 1.486938 1_555
O11 Pb3 2.655645 1_555
O12 S0 1.486938 1_545
O12 Pb4 2.655645 1_555
O13 S13 1.486938 1_565
O13 Pb5 2.655645 1_555
O14 S14 1.486938 1_555
O14 Pb6 2.655645 1_555
O15 S12 1.486938 1_555
O15 Pb7 2.655645 1_555
O16 S8 1.487659 1_555
O16 Pb6 2.676171 1_645
O17 S9 1.487659 1_555
O17 Pb7 2.676171 1_565
O18 S10 1.487659 1_555
O18 Pb4 2.676171 1_555
O19 S12 1.487659 1_555
O19 Pb1 2.676171 1_655
O20 S0 1.487659 1_555
O20 Pb2 2.676171 1_465
O21 S13 1.487659 1_555
O21 Pb3 2.676171 1_545
O22 S14 1.487659 1_555
O22 Pb0 2.676171 1_555
O23 S11 1.487659 1_555
O23 Pb5 2.676171 1_455
