# generated using pymatgen
data_LaMn2O5
_symmetry_space_group_name_H-M   'P 1'
_cell_length_a   5.84352800
_cell_length_b   7.74964200
_cell_length_c   8.79738000
_cell_angle_alpha   90.00000000
_cell_angle_beta   90.00000000
_cell_angle_gamma   90.00000000
_symmetry_Int_Tables_number   1
_chemical_formula_structural   LaMn2O5
_chemical_formula_sum   'La4 Mn8 O20'
_cell_volume   398.39155279
_cell_formula_units_Z   4
loop_
 _symmetry_equiv_pos_site_id
 _symmetry_equiv_pos_as_xyz
  1  'x, y, z'
loop_
 _atom_site_type_symbol
 _atom_site_label
 _atom_site_symmetry_multiplicity
 _atom_site_fract_x
 _atom_site_fract_y
 _atom_site_fract_z
 _atom_site_occupancy
  La  La0  1  0.00000000  0.35426400  0.67280000  1
  La  La1  1  0.00000000  0.64573600  0.32720000  1
  La  La2  1  0.00000000  0.85426400  0.82720000  1
  La  La3  1  0.00000000  0.14573600  0.17280000  1
  Mn  Mn0  1  0.50000000  0.08996200  0.85131300  1
  Mn  Mn1  1  0.50000000  0.91003800  0.14868700  1
  Mn  Mn2  1  0.50000000  0.58996200  0.64868700  1
  Mn  Mn3  1  0.50000000  0.41003800  0.35131300  1
  Mn  Mn4  1  0.25827300  0.50000000  0.00000000  1
  Mn  Mn5  1  0.74172700  0.00000000  0.50000000  1
  Mn  Mn6  1  0.74172700  0.50000000  0.00000000  1
  Mn  Mn7  1  0.25827300  0.00000000  0.50000000  1
  O  O0  1  0.24980300  0.90391000  0.29342100  1
  O  O1  1  0.24980300  0.09609000  0.70657900  1
  O  O2  1  0.75019700  0.40391000  0.20657900  1
  O  O3  1  0.75019700  0.59609000  0.79342100  1
  O  O4  1  0.75019700  0.09609000  0.70657900  1
  O  O5  1  0.75019700  0.90391000  0.29342100  1
  O  O6  1  0.24980300  0.59609000  0.79342100  1
  O  O7  1  0.24980300  0.40391000  0.20657900  1
  O  O8  1  0.50000000  0.34815100  0.93749300  1
  O  O9  1  0.50000000  0.65184900  0.06250700  1
  O  O10  1  0.50000000  0.84815100  0.56250700  1
  O  O11  1  0.50000000  0.15184900  0.43749300  1
  O  O12  1  0.27887500  0.00000000  0.00000000  1
  O  O13  1  0.72112500  0.50000000  0.50000000  1
  O  O14  1  0.72112500  0.00000000  0.00000000  1
  O  O15  1  0.27887500  0.50000000  0.50000000  1
  O  O16  1  0.00000000  0.15458400  0.44883800  1
  O  O17  1  0.00000000  0.84541600  0.55116200  1
  O  O18  1  0.00000000  0.65458400  0.05116200  1
  O  O19  1  0.00000000  0.34541600  0.94883800  1
loop_
_geom_bond_atom_site_label_1
_geom_bond_atom_site_label_2
_geom_bond_distance
_geom_bond_site_symmetry_2
La0 O19 2.429379 1_555
La0 O1 2.494423 1_555
La0 O4 2.494423 1_455
La0 O15 2.498431 1_555
La0 O13 2.498431 1_455
La0 O16 2.505313 1_555
La0 O6 2.601724 1_555
La0 O3 2.601724 1_455
La1 O18 2.429379 1_555
La1 O0 2.494423 1_555
La1 O5 2.494423 1_455
La1 O15 2.498431 1_555
La1 O13 2.498431 1_455
La1 O17 2.505313 1_555
La1 O2 2.601724 1_455
La1 O7 2.601724 1_555
La2 O17 2.429379 1_555
La2 O6 2.494423 1_555
La2 O3 2.494423 1_455
La2 O14 2.498431 1_466
La2 O12 2.498431 1_566
La2 O18 2.505313 1_556
La2 O1 2.601724 1_565
La2 O4 2.601724 1_465
La3 O16 2.429379 1_555
La3 O2 2.494423 1_455
La3 O7 2.494423 1_555
La3 O12 2.498431 1_555
La3 O14 2.498431 1_455
La3 O19 2.505313 1_554
La3 O5 2.601724 1_445
La3 O0 2.601724 1_545
Mn0 O1 1.939340 1_555
Mn0 O4 1.939340 1_555
Mn0 O14 1.966396 1_556
Mn0 O12 1.966396 1_556
Mn0 O8 2.139695 1_555
Mn1 O5 1.939340 1_555
Mn1 O0 1.939340 1_555
Mn1 O14 1.966396 1_565
Mn1 O12 1.966396 1_565
Mn1 O9 2.139695 1_555
Mn2 O3 1.939340 1_555
Mn2 O6 1.939340 1_555
Mn2 O13 1.966396 1_555
Mn2 O15 1.966396 1_555
Mn2 O10 2.139695 1_555
Mn3 O7 1.939340 1_555
Mn3 O2 1.939340 1_555
Mn3 O13 1.966396 1_555
Mn3 O15 1.966396 1_555
Mn3 O11 2.139695 1_555
Mn4 O9 1.918972 1_555
Mn4 O8 1.918972 1_554
Mn4 O6 1.964624 1_554
Mn4 O7 1.964624 1_555
Mn4 O19 1.978757 1_554
Mn4 O18 1.978757 1_555
Mn5 O10 1.918972 1_545
Mn5 O11 1.918972 1_555
Mn5 O4 1.964624 1_555
Mn5 O5 1.964624 1_545
Mn5 O16 1.978757 1_655
Mn5 O17 1.978757 1_645
Mn6 O9 1.918972 1_555
Mn6 O8 1.918972 1_554
Mn6 O3 1.964624 1_554
Mn6 O2 1.964624 1_555
Mn6 O19 1.978757 1_654
Mn6 O18 1.978757 1_655
Mn7 O10 1.918972 1_545
Mn7 O11 1.918972 1_555
Mn7 O1 1.964624 1_555
Mn7 O0 1.964624 1_545
Mn7 O16 1.978757 1_555
Mn7 O17 1.978757 1_545
