# generated using pymatgen
data_Ba2MgZrTiO6
_symmetry_space_group_name_H-M   'P 1'
_cell_length_a   6.09683246
_cell_length_b   6.09683271
_cell_length_c   6.81589328
_cell_angle_alpha   63.43254486
_cell_angle_beta   63.43254971
_cell_angle_gamma   59.99999882
_symmetry_Int_Tables_number   1
_chemical_formula_structural   Ba2MgZrTiO6
_chemical_formula_sum   'Ba2 Mg1 Zr1 Ti1 O6'
_cell_volume   187.88816379
_cell_formula_units_Z   1
loop_
 _symmetry_equiv_pos_site_id
 _symmetry_equiv_pos_as_xyz
  1  'x, y, z'
loop_
 _atom_site_type_symbol
 _atom_site_label
 _atom_site_symmetry_multiplicity
 _atom_site_fract_x
 _atom_site_fract_y
 _atom_site_fract_z
 _atom_site_occupancy
  Ba  Ba0  1  0.30295467  0.30295467  0.09113700  1
  Ba  Ba1  1  0.72482087  0.72482087  0.82553639  1
  Mg  Mg0  1  0.08149962  0.08149962  0.75550115  1
  Zr  Zr0  1  0.50572455  0.50572455  0.48282635  1
  Ti  Ti0  1  0.92179506  0.92179506  0.23461481  1
  O  O0  1  0.28107646  0.28107646  0.69102647  1
  O  O1  1  0.28107646  0.74681961  0.69102647  1
  O  O2  1  0.74681961  0.28107646  0.69102647  1
  O  O3  1  0.75197319  0.75197319  0.22076829  1
  O  O4  1  0.75197319  0.27528633  0.22076829  1
  O  O5  1  0.27528634  0.75197319  0.22076829  1
loop_
_geom_bond_atom_site_label_1
_geom_bond_atom_site_label_2
_geom_bond_distance
_geom_bond_site_symmetry_2
Ba0 O1 2.853288 1_554
Ba0 O2 2.853288 1_554
Ba0 O0 2.853293 1_554
Ba0 O4 3.141978 1_555
Ba0 O3 3.141979 1_545
Ba0 O5 3.141979 1_555
Ba0 O3 3.141979 1_455
Ba0 O4 3.141979 1_455
Ba0 O5 3.141979 1_545
Ba1 O4 2.852518 1_556
Ba1 O5 2.852518 1_556
Ba1 O3 2.852524 1_556
Ba1 O1 3.150196 1_555
Ba1 O0 3.150196 1_565
Ba1 O2 3.150196 1_555
Ba1 O0 3.150196 1_655
Ba1 O1 3.150196 1_655
Ba1 O2 3.150196 1_565
Ba1 Ti0 3.448975 1_555
Mg0 O0 1.917866 1_555
Mg0 O2 1.917871 1_455
Mg0 O1 1.917871 1_545
O0 Zr0 2.040680 1_555
O1 Zr0 2.040676 1_555
O2 Zr0 2.040676 1_555
O3 Ti0 1.843835 1_555
O3 Zr0 2.270454 1_555
O4 Ti0 1.843840 1_545
O4 Zr0 2.270450 1_555
O5 Ti0 1.843840 1_455
O5 Zr0 2.270449 1_555
