# generated using pymatgen
data_Na6Hf3MgSi2(PO6)4
_symmetry_space_group_name_H-M   'P 1'
_cell_length_a   9.06891616
_cell_length_b   9.06051642
_cell_length_c   22.45871924
_cell_angle_alpha   89.82940865
_cell_angle_beta   90.09731520
_cell_angle_gamma   119.86295731
_symmetry_Int_Tables_number   1
_chemical_formula_structural   Na6Hf3MgSi2(PO6)4
_chemical_formula_sum   'Na18 Hf9 Mg3 Si6 P12 O72'
_cell_volume   1600.36886868
_cell_formula_units_Z   3
loop_
 _symmetry_equiv_pos_site_id
 _symmetry_equiv_pos_as_xyz
  1  'x, y, z'
loop_
 _atom_site_type_symbol
 _atom_site_label
 _atom_site_symmetry_multiplicity
 _atom_site_fract_x
 _atom_site_fract_y
 _atom_site_fract_z
 _atom_site_occupancy
  Na  Na0  1  0.00005922  0.99249756  0.49801418  1
  Na  Na1  1  0.99905250  0.99514970  0.99791073  1
  Na  Na2  1  0.64693244  0.29827546  0.82994544  1
  Na  Na3  1  0.64923900  0.33025396  0.32152544  1
  Na  Na4  1  0.32590263  0.66527343  0.16233896  1
  Na  Na5  1  0.32334360  0.66315654  0.66504848  1
  Na  Na6  1  0.64491225  0.01498720  0.24248115  1
  Na  Na7  1  0.98483162  0.62114862  0.23771098  1
  Na  Na8  1  0.63304116  0.61626343  0.73991975  1
  Na  Na9  1  0.98946537  0.36618741  0.74492775  1
  Na  Na10  1  0.66622977  0.97305316  0.58753481  1
  Na  Na11  1  0.66590185  0.68327371  0.07946238  1
  Na  Na12  1  0.02188481  0.33962448  0.08637803  1
  Na  Na13  1  0.97121808  0.66810032  0.91972481  1
  Na  Na14  1  0.33620304  0.30721463  0.91753916  1
  Na  Na15  1  0.96238655  0.28121091  0.40842213  1
  Na  Na16  1  0.32762008  0.02957597  0.40862014  1
  Na  Na17  1  0.71489227  0.68763046  0.41462826  1
  Hf  Hf0  1  0.99617502  0.00059321  0.85414841  1
  Hf  Hf1  1  0.00632032  0.99653895  0.64446062  1
  Hf  Hf2  1  0.00836512  0.00202206  0.14916716  1
  Hf  Hf3  1  0.66793324  0.33137555  0.98068195  1
  Hf  Hf4  1  0.66811069  0.33850031  0.48401307  1
  Hf  Hf5  1  0.33272681  0.67411902  0.01805009  1
  Hf  Hf6  1  0.33647744  0.66486419  0.52196891  1
  Hf  Hf7  1  0.33743323  0.66720340  0.31251892  1
  Hf  Hf8  1  0.33708506  0.67472005  0.81403603  1
  Mg  Mg0  1  0.99943213  0.99957444  0.35019325  1
  Mg  Mg1  1  0.65713104  0.32988749  0.68313768  1
  Mg  Mg2  1  0.66188438  0.33328598  0.18300616  1
  Si  Si0  1  0.66756863  0.63052282  0.58743235  1
  Si  Si1  1  0.96307262  0.62818512  0.08726226  1
  Si  Si2  1  0.62679727  0.66706726  0.91737767  1
  Si  Si3  1  0.04112719  0.37511424  0.91634532  1
  Si  Si4  1  0.33619249  0.96389962  0.91496621  1
  Si  Si5  1  0.63057718  0.96562655  0.41656567  1
  P  P0  1  0.29657602  0.00129055  0.25549941  1
  P  P1  1  0.70636301  0.70483967  0.25248617  1
  P  P2  1  0.99897426  0.29598002  0.25306392  1
  P  P3  1  0.29435807  0.29328951  0.75076729  1
  P  P4  1  0.00120754  0.70385740  0.75051036  1
  P  P5  1  0.70648080  0.00002602  0.74630842  1
  P  P6  1  0.96047130  0.33474109  0.58717123  1
  P  P7  1  0.37659608  0.04254203  0.58273052  1
  P  P8  1  0.66633296  0.03855628  0.08945152  1
  P  P9  1  0.37384430  0.33434444  0.08427114  1
  P  P10  1  0.33494312  0.37416852  0.41711674  1
  P  P11  1  0.04124206  0.66369729  0.41574550  1
  O  O0  1  0.21683709  0.01363085  0.31356430  1
  O  O1  1  0.80814647  0.78849079  0.30908298  1
  O  O2  1  0.98699630  0.19375576  0.30899333  1
  O  O3  1  0.20333713  0.19727583  0.80878728  1
  O  O4  1  0.99255980  0.79708460  0.80711425  1
  O  O5  1  0.81971303  0.01308947  0.80045718  1
  O  O6  1  0.79595171  0.98187858  0.68975517  1
  O  O7  1  0.17774702  0.19477007  0.69743339  1
  O  O8  1  0.01192025  0.81441525  0.69579326  1
  O  O9  1  0.79923297  0.82267636  0.19733439  1
  O  O10  1  0.01402901  0.20542816  0.19600477  1
  O  O11  1  0.17671910  0.98151119  0.20208431  1
  O  O12  1  0.87960715  0.35298020  0.64374593  1
  O  O13  1  0.49659254  0.12278995  0.63480641  1
  O  O14  1  0.64758154  0.52562156  0.64671436  1
  O  O15  1  0.87933602  0.51346662  0.14560310  1
  O  O16  1  0.64458547  0.11181403  0.14727247  1
  O  O17  1  0.48757745  0.35654624  0.13648285  1
  O  O18  1  0.44723640  0.31055193  0.02484972  1
  O  O19  1  0.84202042  0.53686335  0.02837403  1
  O  O20  1  0.68621645  0.15465790  0.03568057  1
  O  O21  1  0.45754368  0.14451934  0.52390298  1
  O  O22  1  0.68312587  0.53672263  0.52611373  1
  O  O23  1  0.84306128  0.30769895  0.53147661  1
  O  O24  1  0.54033045  0.69126244  0.97732652  1
  O  O25  1  0.16118912  0.46486700  0.97474334  1
  O  O26  1  0.29823963  0.83845946  0.97206694  1
  O  O27  1  0.52923352  0.84433966  0.47380362  1
  O  O28  1  0.31040616  0.46224211  0.47172868  1
  O  O29  1  0.15422254  0.68055908  0.46917361  1
  O  O30  1  0.12215775  0.63433694  0.35890501  1
  O  O31  1  0.50715735  0.87030471  0.35797917  1
  O  O32  1  0.35899982  0.48797316  0.36162905  1
  O  O33  1  0.13120215  0.49546517  0.85766989  1
  O  O34  1  0.36307087  0.87397411  0.85658654  1
  O  O35  1  0.50702993  0.63848952  0.85883630  1
  O  O36  1  0.02260508  0.82255935  0.41235069  1
  O  O37  1  0.81792033  0.98389938  0.41347543  1
  O  O38  1  0.18126005  0.19479733  0.41229867  1
  O  O39  1  0.02671667  0.18911514  0.91083489  1
  O  O40  1  0.16464976  0.98065839  0.90977045  1
  O  O41  1  0.82010699  0.82736016  0.91098977  1
  O  O42  1  0.97773279  0.17156162  0.58788326  1
  O  O43  1  0.19971099  0.02819893  0.58806218  1
  O  O44  1  0.83552394  0.82680072  0.58593434  1
  O  O45  1  0.97629572  0.81767089  0.09125734  1
  O  O46  1  0.83593649  0.02916670  0.09041576  1
  O  O47  1  0.18744870  0.18086987  0.09068680  1
  O  O48  1  0.69116650  0.16007058  0.74506533  1
  O  O49  1  0.47261326  0.31589172  0.74849867  1
  O  O50  1  0.84185067  0.52600054  0.74934516  1
  O  O51  1  0.68410162  0.52735283  0.24534018  1
  O  O52  1  0.83884485  0.31477771  0.24983754  1
  O  O53  1  0.47818545  0.14824533  0.24740953  1
  O  O54  1  0.64237007  0.49486932  0.92280420  1
  O  O55  1  0.85587911  0.36037798  0.92399829  1
  O  O56  1  0.49659751  0.15388645  0.92269231  1
  O  O57  1  0.64507316  0.15435916  0.42046920  1
  O  O58  1  0.50269802  0.36671987  0.42135179  1
  O  O59  1  0.86221636  0.50130160  0.42195412  1
  O  O60  1  0.35432623  0.49636937  0.08041526  1
  O  O61  1  0.15204251  0.64682585  0.07993063  1
  O  O62  1  0.51917882  0.85294638  0.08106756  1
  O  O63  1  0.34755019  0.85912052  0.57518399  1
  O  O64  1  0.50297029  0.66368522  0.58108548  1
  O  O65  1  0.13791854  0.49154811  0.57727246  1
  O  O66  1  0.30061802  0.82775906  0.25347920  1
  O  O67  1  0.52920869  0.69849466  0.25370400  1
  O  O68  1  0.15897869  0.47947626  0.25353231  1
  O  O69  1  0.30411851  0.47170267  0.75056616  1
  O  O70  1  0.16241715  0.68407349  0.74974548  1
  O  O71  1  0.53340518  0.83039780  0.75016301  1
loop_
_geom_bond_atom_site_label_1
_geom_bond_atom_site_label_2
_geom_bond_distance
_geom_bond_site_symmetry_2
Na0 O44 2.478072 1_455
Na0 O37 2.490262 1_455
Na0 O36 2.538981 1_555
Na0 O38 2.599251 1_565
Na0 O43 2.623194 1_565
Na0 O42 2.663637 1_465
Na1 O41 2.511101 1_555
Na1 O40 2.529646 1_655
Na1 O39 2.553043 1_665
Na1 O45 2.583486 1_556
Na1 O46 2.658527 1_566
Na1 O47 2.690335 1_666
Na2 O48 2.424867 1_555
Na2 O49 2.471909 1_555
Na2 O56 2.475129 1_555
Na2 O50 2.648619 1_555
Na2 O55 2.702006 1_555
Na2 O54 2.760363 1_555
Na3 O53 2.314445 1_555
Na3 O51 2.374463 1_555
Na3 O52 2.412350 1_555
Na3 O58 2.711745 1_555
Na3 O57 2.720016 1_555
Na3 O59 2.871368 1_555
Na4 O61 2.380941 1_555
Na4 O60 2.490964 1_555
Na4 O62 2.513867 1_555
Na4 O66 2.601049 1_555
Na4 O68 2.602379 1_555
Na4 O67 2.671833 1_555
Na5 O70 2.463976 1_555
Na5 O64 2.492430 1_555
Na5 O69 2.531475 1_555
Na5 O65 2.556311 1_555
Na5 O71 2.590269 1_555
Na5 O63 2.620309 1_555
Na6 O16 2.309381 1_555
Na6 O53 2.361287 1_555
Na6 O52 2.396420 1_555
Na6 O67 2.527393 1_545
Na6 O66 2.722736 1_545
Na6 O31 2.892671 1_545
Na6 O9 2.909746 1_545
Na7 O15 2.285207 1_555
Na7 O52 2.422675 1_555
Na7 O51 2.425344 1_555
Na7 O68 2.506482 1_655
Na7 O66 2.548135 1_655
Na8 O14 2.278745 1_555
Na8 O49 2.369651 1_555
Na8 O50 2.416516 1_555
Na8 O71 2.526433 1_555
Na8 O69 2.603945 1_555
Na8 O35 2.953299 1_555
Na9 O48 2.403091 1_555
Na9 O50 2.414612 1_555
Na9 O12 2.458860 1_555
Na9 O70 2.503979 1_655
Na9 O69 2.521025 1_655
Na9 O33 2.818284 1_655
Na10 O64 2.436980 1_555
Na10 O44 2.478094 1_555
Na10 O42 2.481058 1_565
Na10 O63 2.554030 1_555
Na10 O6 2.561064 1_555
Na10 O13 2.725277 1_565
Na10 O27 2.826996 1_555
Na10 O23 2.914119 1_565
Na11 O45 2.462250 1_555
Na11 O60 2.467240 1_555
Na11 O62 2.484514 1_555
Na11 O24 2.576048 1_554
Na11 O46 2.729615 1_565
Na11 O19 2.784343 1_555
Na11 O17 2.869784 1_555
Na11 O9 2.924634 1_555
Na12 O61 2.426504 1_555
Na12 O46 2.457553 1_455
Na12 O47 2.546030 1_555
Na12 O60 2.619289 1_555
Na12 O10 2.727963 1_555
Na12 O25 2.781330 1_554
Na12 O15 2.822676 1_455
Na12 O20 2.879399 1_455
Na13 O41 2.442412 1_555
Na13 O55 2.443649 1_555
Na13 O40 2.489468 1_655
Na13 O54 2.588620 1_555
Na13 O19 2.710337 1_556
Na13 O4 2.749243 1_555
Na13 O26 2.828459 1_655
Na13 O33 2.962069 1_655
Na14 O54 2.431685 1_555
Na14 O39 2.460476 1_555
Na14 O56 2.463759 1_555
Na14 O40 2.573567 1_545
Na14 O18 2.604825 1_556
Na14 O3 2.686781 1_555
Na14 O25 2.913018 1_555
Na14 O35 2.915476 1_555
Na15 O37 2.338792 1_545
Na15 O2 2.419198 1_555
Na15 O38 2.471292 1_655
Na15 O57 2.526329 1_555
Na15 O59 2.588971 1_555
Na16 O0 2.331903 1_555
Na16 O38 2.447340 1_555
Na16 O36 2.451479 1_545
Na16 O57 2.528872 1_555
Na16 O58 2.666001 1_555
Na16 O21 2.821359 1_555
Na16 O31 2.895345 1_545
Na17 O37 2.362489 1_555
Na17 O36 2.426397 1_655
Na17 O1 2.528530 1_555
Na17 O58 2.570306 1_555
Na17 O59 2.627954 1_555
Na17 O22 2.794893 1_555
Hf0 O41 2.035193 1_545
Hf0 O39 2.038564 1_655
Hf0 O40 2.048059 1_645
Hf0 O5 2.049623 1_555
Hf0 O3 2.098755 1_655
Hf0 O4 2.113793 1_545
Hf1 O44 2.031002 1_455
Hf1 O8 2.031391 1_555
Hf1 O43 2.065670 1_565
Hf1 O7 2.069775 1_565
Hf1 O6 2.108468 1_455
Hf1 O42 2.143090 1_465
Hf2 O11 2.013235 1_545
Hf2 O45 2.023347 1_445
Hf2 O9 2.082117 1_445
Hf2 O47 2.088604 1_555
Hf2 O10 2.103037 1_555
Hf2 O46 2.149619 1_455
Hf3 O55 2.038193 1_555
Hf3 O19 2.045754 1_556
Hf3 O56 2.052769 1_555
Hf3 O54 2.065732 1_555
Hf3 O20 2.090170 1_556
Hf3 O18 2.157559 1_556
Hf4 O22 1.975928 1_555
Hf4 O23 2.040820 1_555
Hf4 O21 2.047520 1_555
Hf4 O57 2.128367 1_555
Hf4 O59 2.151141 1_555
Hf4 O58 2.160749 1_555
Hf5 O26 1.958317 1_554
Hf5 O25 2.007301 1_554
Hf5 O24 2.029557 1_554
Hf5 O61 2.068763 1_555
Hf5 O62 2.182811 1_555
Hf5 O60 2.212168 1_555
Hf6 O27 2.008827 1_555
Hf6 O64 2.012921 1_555
Hf6 O28 2.068473 1_555
Hf6 O63 2.091024 1_555
Hf6 O29 2.093914 1_555
Hf6 O65 2.105037 1_555
Hf7 O31 1.995758 1_555
Hf7 O32 2.048601 1_555
Hf7 O67 2.089141 1_555
Hf7 O30 2.100381 1_555
Hf7 O66 2.111048 1_555
Hf7 O68 2.128868 1_555
Hf8 O34 1.952909 1_555
Hf8 O35 1.998013 1_555
Hf8 O33 2.015234 1_555
Hf8 O71 2.170938 1_555
Hf8 O70 2.174024 1_555
Hf8 O69 2.229653 1_555
Mg0 O2 2.037615 1_565
Mg0 O1 2.054422 1_555
Mg0 O0 2.082089 1_665
Mg0 O37 2.126901 1_555
Mg0 O36 2.210559 1_655
Mg0 O38 2.212594 1_665
Mg1 O14 1.991447 1_555
Mg1 O13 2.026083 1_555
Mg1 O12 2.117024 1_555
Mg1 O49 2.183343 1_555
Mg1 O48 2.203582 1_555
Mg1 O50 2.284202 1_555
Mg2 O17 1.989932 1_555
Mg2 O15 2.012748 1_555
Mg2 O16 2.095465 1_555
Mg2 O51 2.180161 1_555
Mg2 O53 2.211477 1_555
Mg2 O52 2.261592 1_555
O0 P0 1.523356 1_555
O1 P1 1.532061 1_555
O2 P2 1.529964 1_555
O3 P3 1.554962 1_555
O4 P4 1.551911 1_655
O5 P5 1.556606 1_555
O6 P5 1.560835 1_565
O7 P3 1.553034 1_555
O8 P4 1.555365 1_555
O9 P1 1.575962 1_555
O10 P2 1.566001 1_455
O11 P0 1.567039 1_565
O12 P6 1.518100 1_555
O13 P7 1.514450 1_555
O14 Si0 1.590776 1_555
O15 Si1 1.607189 1_555
O16 P8 1.517286 1_555
O17 P9 1.506655 1_555
O18 P9 1.555012 1_555
O19 Si1 1.654075 1_555
O20 P8 1.549752 1_555
O21 P7 1.568031 1_555
O22 Si0 1.663053 1_555
O23 P6 1.579830 1_555
O24 Si2 1.628565 1_555
O25 Si3 1.639126 1_555
O26 Si4 1.630351 1_555
O27 Si5 1.641528 1_555
O28 P10 1.540856 1_555
O29 P11 1.534281 1_555
O30 P11 1.561562 1_555
O31 Si5 1.664052 1_555
O32 P10 1.559820 1_555
O33 Si3 1.643448 1_555
O34 Si4 1.627135 1_555
O35 Si2 1.640883 1_555
O36 P11 1.532235 1_555
O37 Si5 1.624511 1_555
O38 P10 1.529805 1_555
O39 Si3 1.629207 1_555
O40 Si4 1.640554 1_555
O41 Si2 1.633193 1_555
O42 P6 1.562381 1_555
O43 P7 1.548386 1_555
O44 Si0 1.669158 1_555
O45 Si1 1.663075 1_555
O46 P8 1.582311 1_555
O47 P9 1.571833 1_555
O48 P5 1.524180 1_555
O49 P3 1.525911 1_555
O50 P4 1.538508 1_655
O51 P1 1.526659 1_555
O52 P2 1.545646 1_555
O53 P0 1.527804 1_555
O54 Si2 1.639290 1_555
O55 Si3 1.627031 1_655
O56 Si4 1.617596 1_545
O57 Si5 1.651091 1_545
O58 P10 1.558795 1_555
O59 P11 1.562355 1_655
O60 P9 1.565857 1_555
O61 Si1 1.644729 1_455
O62 P8 1.552623 1_565
O63 P7 1.557426 1_565
O64 Si0 1.668688 1_555
O65 P6 1.542764 1_455
O66 P0 1.591637 1_565
O67 P1 1.579041 1_555
O68 P2 1.570796 1_455
O69 P3 1.574306 1_555
O70 P4 1.559148 1_555
O71 P5 1.559036 1_565
