# generated using pymatgen
data_Na3YBr6
_symmetry_space_group_name_H-M   'P 1'
_cell_length_a   7.66833998
_cell_length_b   7.17185549
_cell_length_c   12.84159720
_cell_angle_alpha   56.83916228
_cell_angle_beta   90.00000000
_cell_angle_gamma   90.00000000
_symmetry_Int_Tables_number   1
_chemical_formula_structural   Na3YBr6
_chemical_formula_sum   'Na6 Y2 Br12'
_cell_volume   591.22009660
_cell_formula_units_Z   2
loop_
 _symmetry_equiv_pos_site_id
 _symmetry_equiv_pos_as_xyz
  1  'x, y, z'
loop_
 _atom_site_type_symbol
 _atom_site_label
 _atom_site_symmetry_multiplicity
 _atom_site_fract_x
 _atom_site_fract_y
 _atom_site_fract_z
 _atom_site_occupancy
  Na  Na0  1  0.50000000  0.50000000  0.00000000  1
  Na  Na1  1  0.58565120  0.70649800  0.26370126  1
  Na  Na2  1  0.08565120  0.29350200  0.23629874  1
  Na  Na3  1  0.00000000  0.50000000  0.50000000  1
  Na  Na4  1  0.91434880  0.70649800  0.76370126  1
  Na  Na5  1  0.41434880  0.29350200  0.73629874  1
  Y  Y0  1  0.50000000  -0.00000000  0.50000000  1
  Y  Y1  1  0.00000000  -0.00000000  0.00000000  1
  Br  Br0  1  0.68059240  0.61552170  0.56541546  1
  Br  Br1  1  0.18059240  0.38447830  0.93458454  1
  Br  Br2  1  0.30763888  0.74991624  0.08097651  1
  Br  Br3  1  0.80763888  0.25008376  0.41902349  1
  Br  Br4  1  0.69236112  0.25008376  0.91902349  1
  Br  Br5  1  0.19236112  0.74991624  0.58097651  1
  Br  Br6  1  0.06293679  0.09651082  0.75937395  1
  Br  Br7  1  0.56293679  0.90348918  0.74062605  1
  Br  Br8  1  0.93706321  0.90348918  0.24062605  1
  Br  Br9  1  0.43706321  0.09651082  0.25937395  1
  Br  Br10  1  0.81940760  0.61552170  0.06541546  1
  Br  Br11  1  0.31940760  0.38447830  0.43458454  1
loop_
_geom_bond_atom_site_label_1
_geom_bond_atom_site_label_2
_geom_bond_distance
_geom_bond_site_symmetry_2
Br0 Y0 2.773590 1_565
Br0 Na3 2.855288 1_655
Br0 Na5 2.961961 1_555
Br0 Na4 3.455439 1_555
Br1 Y1 2.773590 1_556
Br1 Na0 2.855288 1_556
Br1 Na4 2.961961 1_455
Br1 Na5 3.455439 1_555
Br2 Y1 2.796981 1_565
Br2 Na0 2.916979 1_555
Br2 Na1 3.057540 1_555
Br2 Na2 3.232383 1_555
Br3 Y0 2.796981 1_555
Br3 Na3 2.916979 1_655
Br3 Na2 3.057540 1_655
Br3 Na1 3.232383 1_555
Br4 Y1 2.796981 1_656
Br4 Na0 2.916979 1_556
Br4 Na5 3.057540 1_555
Br4 Na4 3.232383 1_555
Br5 Y0 2.796981 1_565
Br5 Na3 2.916979 1_555
Br5 Na4 3.057540 1_455
Br5 Na5 3.232383 1_555
Br6 Y1 2.814329 1_556
Br6 Na5 2.981185 1_555
Br6 Na4 2.992522 1_445
Br6 Na3 3.025977 1_555
Br7 Y0 2.814329 1_565
Br7 Na4 2.981185 1_555
Br7 Na5 2.992522 1_565
Br7 Na0 3.025977 1_556
Br8 Y1 2.814329 1_665
Br8 Na1 2.981185 1_555
Br8 Na2 2.992522 1_665
Br8 Na3 3.025977 1_655
Br9 Y0 2.814329 1_555
Br9 Na2 2.981185 1_555
Br9 Na1 2.992522 1_545
Br9 Na0 3.025977 1_555
Br10 Y1 2.773590 1_665
Br10 Na0 2.855288 1_555
Br10 Na2 2.961961 1_655
Br10 Na1 3.455439 1_555
Br11 Y0 2.773590 1_555
Br11 Na3 2.855288 1_555
Br11 Na1 2.961961 1_555
Br11 Na2 3.455439 1_555
