# generated using pymatgen
data_Na5ScH4(C2O7)2
_symmetry_space_group_name_H-M   'P 1'
_cell_length_a   7.43453632
_cell_length_b   7.43453632
_cell_length_c   11.38504993
_cell_angle_alpha   90.00000000
_cell_angle_beta   90.00000000
_cell_angle_gamma   90.00000000
_symmetry_Int_Tables_number   1
_chemical_formula_structural   Na5ScH4(C2O7)2
_chemical_formula_sum   'Na10 Sc2 H8 C8 O28'
_cell_volume   629.27824014
_cell_formula_units_Z   2
loop_
 _symmetry_equiv_pos_site_id
 _symmetry_equiv_pos_as_xyz
  1  'x, y, z'
loop_
 _atom_site_type_symbol
 _atom_site_label
 _atom_site_symmetry_multiplicity
 _atom_site_fract_x
 _atom_site_fract_y
 _atom_site_fract_z
 _atom_site_occupancy
  Na  Na0  1  0.68001775  0.81833946  0.70936908  1
  Na  Na1  1  0.31998225  0.18166054  0.70936908  1
  Na  Na2  1  0.68166054  0.81998225  0.20936908  1
  Na  Na3  1  0.18166054  0.68001775  0.29063092  1
  Na  Na4  1  0.81833946  0.31998225  0.29063092  1
  Na  Na5  1  0.81998225  0.31833946  0.79063092  1
  Na  Na6  1  0.18001775  0.68166054  0.79063092  1
  Na  Na7  1  0.31833946  0.18001775  0.20936908  1
  Na  Na8  1  0.00000000  0.00000000  0.50000000  1
  Na  Na9  1  0.50000000  0.50000000  0.00000000  1
  Sc  Sc0  1  0.50000000  0.50000000  0.50000000  1
  Sc  Sc1  1  0.00000000  0.00000000  0.00000000  1
  H  H0  1  0.91384493  0.56085108  0.61560443  1
  H  H1  1  0.08615507  0.43914892  0.61560443  1
  H  H2  1  0.93914892  0.58615507  0.11560443  1
  H  H3  1  0.43914892  0.91384493  0.38439557  1
  H  H4  1  0.56085108  0.08615507  0.38439557  1
  H  H5  1  0.58615507  0.06085108  0.88439557  1
  H  H6  1  0.41384493  0.93914892  0.88439557  1
  H  H7  1  0.06085108  0.41384493  0.11560443  1
  C  C0  1  0.82299972  0.71751367  0.92158029  1
  C  C1  1  0.17700028  0.28248633  0.92158029  1
  C  C2  1  0.78248633  0.67700028  0.42158029  1
  C  C3  1  0.28248633  0.82299972  0.07841971  1
  C  C4  1  0.32299972  0.78248633  0.57841971  1
  C  C5  1  0.21751367  0.32299972  0.42158029  1
  C  C6  1  0.71751367  0.17700028  0.07841971  1
  C  C7  1  0.67700028  0.21751367  0.57841971  1
  O  O0  1  0.66015354  0.25299568  0.46589367  1
  O  O1  1  0.83984646  0.75299568  0.03410633  1
  O  O2  1  0.25299568  0.33984646  0.53410633  1
  O  O3  1  0.74700432  0.66015354  0.53410633  1
  O  O4  1  0.32949776  0.40734210  0.35266099  1
  O  O5  1  0.33984646  0.74700432  0.46589367  1
  O  O6  1  0.59265790  0.32949776  0.64733901  1
  O  O7  1  0.82949776  0.09265790  0.14733901  1
  O  O8  1  0.17050224  0.90734210  0.14733901  1
  O  O9  1  0.67050224  0.59265790  0.35266099  1
  O  O10  1  0.09265790  0.17050224  0.85266099  1
  O  O11  1  0.90734210  0.82949776  0.85266099  1
  O  O12  1  0.08793997  0.23158703  0.38257833  1
  O  O13  1  0.23158703  0.91206003  0.61742167  1
  O  O14  1  0.76841297  0.08793997  0.61742167  1
  O  O15  1  0.58793997  0.26841297  0.11742167  1
  O  O16  1  0.41206003  0.73158703  0.11742167  1
  O  O17  1  0.91206003  0.76841297  0.38257833  1
  O  O18  1  0.26841297  0.41206003  0.88257833  1
  O  O19  1  0.73158703  0.58793997  0.88257833  1
  O  O20  1  0.00000000  0.50000000  0.16775750  1
  O  O21  1  0.50000000  0.00000000  0.83224250  1
  O  O22  1  0.50000000  0.00000000  0.33224250  1
  O  O23  1  0.00000000  0.50000000  0.66775750  1
  O  O24  1  0.24700432  0.83984646  0.96589367  1
  O  O25  1  0.16015354  0.24700432  0.03410633  1
  O  O26  1  0.40734210  0.67050224  0.64733901  1
  O  O27  1  0.75299568  0.16015354  0.96589367  1
loop_
_geom_bond_atom_site_label_1
_geom_bond_atom_site_label_2
_geom_bond_distance
_geom_bond_site_symmetry_2
Na0 O11 2.350441 1_555
Na0 O14 2.354817 1_565
Na0 O21 2.360545 1_565
Na0 O3 2.369094 1_555
Na0 O26 2.411716 1_555
Na0 O19 2.640044 1_555
Na1 O10 2.350441 1_555
Na1 O13 2.354817 1_545
Na1 O21 2.360545 1_555
Na1 O2 2.369094 1_555
Na1 O6 2.411716 1_555
Na1 O18 2.640044 1_555
Na2 O9 2.350441 1_555
Na2 O16 2.354817 1_555
Na2 O22 2.360545 1_565
Na2 O1 2.369094 1_555
Na2 O7 2.411716 1_565
Na2 O17 2.640044 1_555
Na3 O8 2.350441 1_555
Na3 O17 2.354817 1_455
Na3 O20 2.360545 1_555
Na3 O5 2.369094 1_555
Na3 O4 2.411716 1_555
Na3 O16 2.640044 1_555
Na4 O7 2.350441 1_555
Na4 O12 2.354817 1_655
Na4 O20 2.360545 1_655
Na4 O0 2.369094 1_555
Na4 O9 2.411716 1_555
Na4 O15 2.640044 1_555
Na5 O6 2.350441 1_555
Na5 O19 2.354817 1_555
Na5 O23 2.360545 1_655
Na5 O27 2.369094 1_555
Na5 O10 2.411716 1_655
Na5 O14 2.640044 1_555
Na6 O26 2.350441 1_555
Na6 O18 2.354817 1_555
Na6 O23 2.360545 1_555
Na6 O24 2.369094 1_555
Na6 O11 2.411716 1_455
Na6 O13 2.640044 1_555
Na7 O4 2.350441 1_555
Na7 O15 2.354817 1_555
Na7 O22 2.360545 1_555
Na7 O25 2.369094 1_555
Na7 O8 2.411716 1_545
Na7 O12 2.640044 1_555
Na8 O12 2.275745 1_555
Na8 O17 2.275745 1_445
Na8 O13 2.275745 1_545
Na8 O14 2.275745 1_455
Na9 O15 2.275745 1_555
Na9 O18 2.275745 1_554
Na9 O19 2.275745 1_554
Na9 O16 2.275745 1_555
H0 O23 0.983612 1_655
H0 O3 1.715958 1_555
H1 O23 0.983612 1_555
H1 O2 1.715958 1_555
H2 O20 0.983612 1_655
H2 O1 1.715958 1_555
H3 O22 0.983612 1_565
H3 O5 1.715958 1_555
H4 O22 0.983612 1_555
H4 O0 1.715958 1_555
H5 O21 0.983612 1_555
H5 O27 1.715958 1_555
H6 O21 0.983612 1_565
H6 O24 1.715958 1_555
H7 O20 0.983612 1_555
H7 O25 1.715958 1_555
C0 O19 1.259773 1_555
C0 O11 1.304608 1_555
C0 O1 1.313974 1_556
C1 O18 1.259773 1_555
C1 O10 1.304608 1_555
C1 O25 1.313974 1_556
C2 O17 1.259773 1_555
C2 O9 1.304608 1_555
C2 O3 1.313974 1_555
C3 O16 1.259773 1_555
C3 O8 1.304608 1_555
C3 O24 1.313974 1_554
C4 O13 1.259773 1_555
C4 O26 1.304608 1_555
C4 O5 1.313974 1_555
C5 O12 1.259773 1_555
C5 O4 1.304608 1_555
C5 O2 1.313974 1_555
C6 O15 1.259773 1_555
C6 O7 1.304608 1_555
C6 O27 1.313974 1_554
C7 O14 1.259773 1_555
C7 O6 1.304608 1_555
C7 O0 1.313974 1_555
O0 Sc0 2.222767 1_555
O1 Sc1 2.222767 1_665
O2 Sc0 2.222767 1_555
O3 Sc0 2.222767 1_555
O4 Sc0 2.212519 1_555
O5 Sc0 2.222767 1_555
O6 Sc0 2.212519 1_555
O7 Sc1 2.212519 1_655
O8 Sc1 2.212519 1_565
O9 Sc0 2.212519 1_555
O10 Sc1 2.212519 1_556
O11 Sc1 2.212519 1_666
O24 Sc1 2.222767 1_566
O25 Sc1 2.222767 1_555
O26 Sc0 2.212519 1_555
O27 Sc1 2.222767 1_656
