# generated using pymatgen
data_Ca2FeSbO6
_symmetry_space_group_name_H-M   'P 1'
_cell_length_a   7.83209363
_cell_length_b   7.85648381
_cell_length_c   7.85648381
_cell_angle_alpha   88.58854209
_cell_angle_beta   89.88312437
_cell_angle_gamma   90.11687563
_symmetry_Int_Tables_number   1
_chemical_formula_structural   Ca2FeSbO6
_chemical_formula_sum   'Ca8 Fe4 Sb4 O24'
_cell_volume   483.28205134
_cell_formula_units_Z   4
loop_
 _symmetry_equiv_pos_site_id
 _symmetry_equiv_pos_as_xyz
  1  'x, y, z'
loop_
 _atom_site_type_symbol
 _atom_site_label
 _atom_site_symmetry_multiplicity
 _atom_site_fract_x
 _atom_site_fract_y
 _atom_site_fract_z
 _atom_site_occupancy
  Ca  Ca0  1  0.74938300  0.48098200  0.46873100  1
  Ca  Ca1  1  0.74938300  0.98098200  0.96873100  1
  Ca  Ca2  1  0.75061700  0.46873100  0.98098200  1
  Ca  Ca3  1  0.75061700  0.96873100  0.48098200  1
  Ca  Ca4  1  0.24938300  0.53126900  0.01901800  1
  Ca  Ca5  1  0.24938300  0.03126900  0.51901800  1
  Ca  Ca6  1  0.25061700  0.51901800  0.53126900  1
  Ca  Ca7  1  0.25061700  0.01901800  0.03126900  1
  Fe  Fe0  1  0.50000000  0.75000000  0.75000000  1
  Fe  Fe1  1  0.00000000  0.75000000  0.25000000  1
  Fe  Fe2  1  0.50000000  0.25000000  0.25000000  1
  Fe  Fe3  1  0.00000000  0.25000000  0.75000000  1
  Sb  Sb0  1  0.00000000  0.25000000  0.25000000  1
  Sb  Sb1  1  0.00000000  0.75000000  0.75000000  1
  Sb  Sb2  1  0.50000000  0.25000000  0.75000000  1
  Sb  Sb3  1  0.50000000  0.75000000  0.25000000  1
  O  O0  1  0.25208300  0.68866100  0.28096300  1
  O  O1  1  0.25208300  0.18866100  0.78096300  1
  O  O2  1  0.24791700  0.28096300  0.18866100  1
  O  O3  1  0.24791700  0.78096300  0.68866100  1
  O  O4  1  0.74791700  0.31133900  0.71903700  1
  O  O5  1  0.74791700  0.81133900  0.21903700  1
  O  O6  1  0.75208300  0.71903700  0.81133900  1
  O  O7  1  0.75208300  0.21903700  0.31133900  1
  O  O8  1  0.04904100  0.79677500  0.99623500  1
  O  O9  1  0.04904100  0.29677500  0.49623500  1
  O  O10  1  0.45095900  0.49623500  0.79677500  1
  O  O11  1  0.45095900  0.99623500  0.29677500  1
  O  O12  1  0.95095900  0.20322500  0.00376500  1
  O  O13  1  0.95095900  0.70322500  0.50376500  1
  O  O14  1  0.54904100  0.50376500  0.20322500  1
  O  O15  1  0.54904100  0.00376500  0.70322500  1
  O  O16  1  0.95246500  0.49885200  0.20352000  1
  O  O17  1  0.95246500  0.99885200  0.70352000  1
  O  O18  1  0.54753500  0.20352000  0.99885200  1
  O  O19  1  0.54753500  0.70352000  0.49885200  1
  O  O20  1  0.04753500  0.50114800  0.79648000  1
  O  O21  1  0.04753500  0.00114800  0.29648000  1
  O  O22  1  0.45246500  0.79648000  0.00114800  1
  O  O23  1  0.45246500  0.29648000  0.50114800  1
loop_
_geom_bond_atom_site_label_1
_geom_bond_atom_site_label_2
_geom_bond_distance
_geom_bond_site_symmetry_2
Ca0 O4 2.348282 1_555
Ca0 O13 2.373002 1_555
Ca0 O19 2.375319 1_555
Ca0 O7 2.426965 1_555
Ca0 O14 2.615601 1_555
Ca0 O16 2.619587 1_555
Ca0 O23 2.745827 1_555
Ca0 O9 2.765832 1_655
Ca1 O5 2.348282 1_556
Ca1 O12 2.373002 1_566
Ca1 O18 2.375319 1_565
Ca1 O6 2.426965 1_555
Ca1 O15 2.615601 1_565
Ca1 O17 2.619587 1_555
Ca1 O22 2.745827 1_556
Ca1 O8 2.765832 1_655
Ca2 O6 2.348282 1_555
Ca2 O14 2.373002 1_556
Ca2 O16 2.375319 1_556
Ca2 O4 2.426965 1_555
Ca2 O12 2.615601 1_556
Ca2 O18 2.619587 1_555
Ca2 O20 2.745827 1_655
Ca2 O10 2.765832 1_555
Ca3 O7 2.348282 1_565
Ca3 O15 2.373002 1_565
Ca3 O17 2.375319 1_555
Ca3 O5 2.426965 1_555
Ca3 O13 2.615601 1_555
Ca3 O19 2.619587 1_555
Ca3 O21 2.745827 1_665
Ca3 O11 2.765832 1_555
Ca4 O2 2.348282 1_555
Ca4 O10 2.373002 1_554
Ca4 O20 2.375319 1_554
Ca4 O0 2.426965 1_555
Ca4 O8 2.615601 1_554
Ca4 O22 2.619587 1_555
Ca4 O16 2.745827 1_455
Ca4 O14 2.765832 1_555
Ca5 O3 2.348282 1_545
Ca5 O11 2.373002 1_545
Ca5 O21 2.375319 1_555
Ca5 O1 2.426965 1_555
Ca5 O9 2.615601 1_555
Ca5 O23 2.619587 1_555
Ca5 O17 2.745827 1_445
Ca5 O15 2.765832 1_555
Ca6 O0 2.348282 1_555
Ca6 O9 2.373002 1_555
Ca6 O23 2.375319 1_555
Ca6 O3 2.426965 1_555
Ca6 O10 2.615601 1_555
Ca6 O20 2.619587 1_555
Ca6 O19 2.745827 1_555
Ca6 O13 2.765832 1_455
Ca7 O1 2.348282 1_554
Ca7 O8 2.373002 1_544
Ca7 O22 2.375319 1_545
Ca7 O2 2.426965 1_555
Ca7 O11 2.615601 1_545
Ca7 O21 2.619587 1_555
Ca7 O18 2.745827 1_554
Ca7 O12 2.765832 1_455
Fe0 O6 2.046824 1_555
Fe0 O3 2.046824 1_555
Fe0 O22 2.048973 1_556
Fe0 O19 2.048973 1_555
Fe0 O15 2.053685 1_565
Fe0 O10 2.053685 1_555
Fe1 O0 2.046824 1_555
Fe1 O5 2.046824 1_455
Fe1 O21 2.048973 1_565
Fe1 O16 2.048973 1_455
Fe1 O8 2.053685 1_554
Fe1 O13 2.053685 1_455
Fe2 O2 2.046824 1_555
Fe2 O7 2.046824 1_555
Fe2 O23 2.048973 1_555
Fe2 O18 2.048973 1_554
Fe2 O14 2.053685 1_555
Fe2 O11 2.053685 1_545
Fe3 O1 2.046824 1_555
Fe3 O4 2.046824 1_455
Fe3 O20 2.048973 1_555
Fe3 O17 2.048973 1_445
Fe3 O12 2.053685 1_456
Fe3 O9 2.053685 1_555
O0 Sb3 2.012493 1_555
O1 Sb2 2.012493 1_555
O2 Sb0 2.012493 1_555
O3 Sb1 2.012493 1_555
O4 Sb2 2.012493 1_555
O5 Sb3 2.012493 1_555
O6 Sb1 2.012493 1_655
O7 Sb0 2.012493 1_655
O8 Sb1 2.015565 1_555
O9 Sb0 2.015565 1_555
O10 Sb2 2.015565 1_555
O11 Sb3 2.015565 1_555
O12 Sb0 2.015565 1_655
O13 Sb1 2.015565 1_655
O14 Sb3 2.015565 1_555
O15 Sb2 2.015565 1_555
O16 Sb0 2.015621 1_655
O17 Sb1 2.015621 1_655
O18 Sb2 2.015621 1_555
O19 Sb3 2.015621 1_555
O20 Sb1 2.015621 1_555
O21 Sb0 2.015621 1_555
O22 Sb3 2.015621 1_555
O23 Sb2 2.015621 1_555
