# generated using pymatgen
data_MgFe12(OF)12
_symmetry_space_group_name_H-M   'P 1'
_cell_length_a   9.81905987
_cell_length_b   14.52629338
_cell_length_c   3.13082500
_cell_angle_alpha   90.00000000
_cell_angle_beta   90.00000000
_cell_angle_gamma   87.73130867
_symmetry_Int_Tables_number   1
_chemical_formula_structural   MgFe12(OF)12
_chemical_formula_sum   'Mg1 Fe12 O12 F12'
_cell_volume   446.21376970
_cell_formula_units_Z   1
loop_
 _symmetry_equiv_pos_site_id
 _symmetry_equiv_pos_as_xyz
  1  'x, y, z'
loop_
 _atom_site_type_symbol
 _atom_site_label
 _atom_site_symmetry_multiplicity
 _atom_site_fract_x
 _atom_site_fract_y
 _atom_site_fract_z
 _atom_site_occupancy
  Mg  Mg0  1  0.26109100  0.67601000  0.50000000  1
  Fe  Fe0  1  0.99988200  0.01395000  0.00000000  1
  Fe  Fe1  1  0.99669600  0.31471300  0.00000000  1
  Fe  Fe2  1  0.97409800  0.65231800  0.00000000  1
  Fe  Fe3  1  0.23176300  0.16135200  0.50000000  1
  Fe  Fe4  1  0.20833100  0.44840200  0.50000000  1
  Fe  Fe5  1  0.26895000  0.92016900  0.50000000  1
  Fe  Fe6  1  0.48557500  0.34172800  0.00000000  1
  Fe  Fe7  1  0.52972000  0.00344700  0.00000000  1
  Fe  Fe8  1  0.55636200  0.67052500  0.00000000  1
  Fe  Fe9  1  0.74079100  0.15064400  0.50000000  1
  Fe  Fe10  1  0.71733500  0.48207400  0.50000000  1
  Fe  Fe11  1  0.74064500  0.84061600  0.50000000  1
  O  O0  1  0.08777700  0.26348500  0.50000000  1
  O  O1  1  0.07899100  0.94324800  0.50000000  1
  O  O2  1  0.16249600  0.10083500  0.00000000  1
  O  O3  1  0.11270400  0.42338400  0.00000000  1
  O  O4  1  0.37784900  0.91947400  0.00000000  1
  O  O5  1  0.39098900  0.39769300  0.50000000  1
  O  O6  1  0.61819600  0.94621300  0.50000000  1
  O  O7  1  0.61535000  0.59981300  0.50000000  1
  O  O8  1  0.64603300  0.11100800  0.00000000  1
  O  O9  1  0.63961100  0.42693200  0.00000000  1
  O  O10  1  0.67165700  0.77200200  0.00000000  1
  O  O11  1  0.90135200  0.07428200  0.50000000  1
  F  F0  1  0.11039900  0.58553900  0.50000000  1
  F  F1  1  0.15576300  0.72921900  0.00000000  1
  F  F2  1  0.34099800  0.23687300  0.00000000  1
  F  F3  1  0.35021500  0.60483100  0.00000000  1
  F  F4  1  0.41270800  0.08113500  0.50000000  1
  F  F5  1  0.43377600  0.73597000  0.50000000  1
  F  F6  1  0.58347200  0.27024900  0.50000000  1
  F  F7  1  0.83047700  0.23783600  0.00000000  1
  F  F8  1  0.85112700  0.89563300  0.00000000  1
  F  F9  1  0.84487600  0.54729300  0.00000000  1
  F  F10  1  0.88309000  0.38886000  0.50000000  1
  F  F11  1  0.90314200  0.73131300  0.50000000  1
loop_
_geom_bond_atom_site_label_1
_geom_bond_atom_site_label_2
_geom_bond_distance
_geom_bond_site_symmetry_2
Fe0 O1 2.011354 1_644
Fe0 O1 2.011354 1_645
Fe0 O11 2.021748 1_554
Fe0 O11 2.021748 1_555
Fe0 O2 2.074125 1_655
Fe1 O0 1.936857 1_654
Fe1 O0 1.936857 1_655
Fe1 O3 1.982883 1_655
Fe3 O2 1.932158 1_555
Fe3 O2 1.932158 1_556
Fe3 O0 2.008456 1_555
Fe4 O3 1.868493 1_555
Fe4 O3 1.868493 1_556
Fe4 O5 1.911741 1_555
Fe5 O1 1.882001 1_555
Fe5 O4 1.895557 1_555
Fe5 O4 1.895557 1_556
Fe6 O5 1.978438 1_555
Fe6 O5 1.978438 1_554
Fe6 O9 1.991916 1_555
Fe7 O6 1.959409 1_544
Fe7 O6 1.959409 1_545
Fe7 O4 1.963603 1_545
Fe7 O8 1.971529 1_555
Fe8 O10 1.893851 1_555
Fe8 O7 1.947819 1_555
Fe8 O7 1.947819 1_554
Fe9 O11 1.891436 1_555
Fe9 O8 1.920974 1_555
Fe9 O8 1.920974 1_556
Fe10 O9 1.929500 1_556
Fe10 O9 1.929500 1_555
Fe10 O7 1.947399 1_555
Fe11 O6 1.911162 1_555
Fe11 O10 1.989036 1_556
Fe11 O10 1.989036 1_555
F0 Mg0 2.017541 1_555
F0 Fe4 2.177486 1_555
F0 Fe2 2.253864 1_456
F0 Fe2 2.253864 1_455
F1 Mg0 2.013520 1_554
F1 Mg0 2.013520 1_555
F1 Fe2 2.141848 1_455
F2 Fe6 2.122848 1_555
F2 Fe3 2.213055 1_555
F2 Fe3 2.213055 1_554
F3 Mg0 2.052752 1_555
F3 Mg0 2.052752 1_554
F3 Fe8 2.271754 1_555
F4 Fe3 2.085811 1_555
F4 Fe7 2.222948 1_556
F4 Fe7 2.222948 1_555
F5 Mg0 1.936656 1_555
F5 Fe8 2.170839 1_555
F5 Fe8 2.170839 1_556
F6 Fe6 2.091322 1_556
F6 Fe6 2.091322 1_555
F6 Fe9 2.278664 1_555
F7 Fe1 2.013753 1_555
F7 Fe9 2.217781 1_554
F7 Fe9 2.217781 1_555
F8 Fe11 2.081999 1_554
F8 Fe11 2.081999 1_555
F8 Fe0 2.299165 1_565
F9 Fe2 2.022557 1_555
F9 Fe10 2.238378 1_555
F9 Fe10 2.238378 1_554
F10 Fe10 2.075555 1_555
F10 Fe1 2.181707 1_555
F10 Fe1 2.181707 1_556
F11 Fe2 2.046804 1_555
F11 Fe2 2.046804 1_556
F11 Fe11 2.205962 1_555
