# generated using pymatgen
data_MgFe4(CoO6)2
_symmetry_space_group_name_H-M   'P 1'
_cell_length_a   4.83525030
_cell_length_b   4.75770618
_cell_length_c   8.72610685
_cell_angle_alpha   89.56906586
_cell_angle_beta   90.30244985
_cell_angle_gamma   92.03191772
_symmetry_Int_Tables_number   1
_chemical_formula_structural   MgFe4(CoO6)2
_chemical_formula_sum   'Mg1 Fe4 Co2 O12'
_cell_volume   200.60705463
_cell_formula_units_Z   1
loop_
 _symmetry_equiv_pos_site_id
 _symmetry_equiv_pos_as_xyz
  1  'x, y, z'
loop_
 _atom_site_type_symbol
 _atom_site_label
 _atom_site_symmetry_multiplicity
 _atom_site_fract_x
 _atom_site_fract_y
 _atom_site_fract_z
 _atom_site_occupancy
  Mg  Mg0  1  0.00513400  0.50143900  0.00378100  1
  Fe  Fe0  1  0.99974800  0.00070400  0.33749800  1
  Fe  Fe1  1  0.99990500  0.99577000  0.67124900  1
  Fe  Fe2  1  0.51333100  0.48448600  0.17976900  1
  Fe  Fe3  1  0.50015800  0.50040100  0.82921900  1
  Co  Co0  1  0.99951100  0.00014100  0.00362100  1
  Co  Co1  1  0.47144100  0.52735200  0.50452400  1
  O  O0  1  0.15699000  0.78972800  0.15967400  1
  O  O1  1  0.16127700  0.78044700  0.84358200  1
  O  O2  1  0.19064800  0.79275400  0.50617900  1
  O  O3  1  0.33132600  0.27963200  0.00364800  1
  O  O4  1  0.31979800  0.30565400  0.34798900  1
  O  O5  1  0.31984000  0.30625000  0.66353000  1
  O  O6  1  0.67447200  0.69958200  0.34661900  1
  O  O7  1  0.67471700  0.69954300  0.66337400  1
  O  O8  1  0.67146600  0.71479100  0.00305000  1
  O  O9  1  0.82804000  0.18604300  0.50825900  1
  O  O10  1  0.84081200  0.22310400  0.16303400  1
  O  O11  1  0.84138600  0.21217800  0.84711200  1
loop_
_geom_bond_atom_site_label_1
_geom_bond_atom_site_label_2
_geom_bond_distance
_geom_bond_site_symmetry_2
Mg0 O3 1.928557 1_555
Mg0 O8 1.936306 1_455
Mg0 O1 2.049006 1_554
Mg0 O0 2.053543 1_555
Mg0 O10 2.055580 1_455
Mg0 O11 2.080736 1_454
Fe0 O9 1.942149 1_555
Fe0 O2 2.006476 1_645
Fe0 O10 2.012199 1_555
Fe0 O0 2.020745 1_645
Fe0 O4 2.085544 1_655
Fe0 O6 2.091008 1_545
Fe1 O9 1.885319 1_565
Fe1 O1 1.985154 1_655
Fe1 O2 1.989094 1_655
Fe1 O11 2.023542 1_565
Fe1 O7 2.075217 1_555
Fe1 O5 2.101723 1_665
Fe2 O4 1.921874 1_555
Fe2 O6 1.930815 1_555
Fe2 O3 2.008413 1_555
Fe2 O8 2.022586 1_555
Fe2 O10 2.054251 1_555
Fe2 O0 2.297591 1_555
Fe3 O7 1.907871 1_555
Fe3 O5 1.911411 1_555
Fe3 O8 1.994368 1_556
Fe3 O3 2.003665 1_556
Fe3 O1 2.152988 1_555
Fe3 O11 2.186672 1_555
Co0 O0 1.859812 1_645
Co0 O11 1.868259 1_554
Co0 O10 1.933993 1_555
Co0 O1 1.935473 1_644
Co0 O3 2.047203 1_655
Co0 O8 2.050954 1_545
Co1 O4 1.863391 1_555
Co1 O6 1.863879 1_555
Co1 O5 1.871676 1_555
Co1 O7 1.871952 1_555
Co1 O2 1.886808 1_555
Co1 O9 2.410005 1_555
