# generated using pymatgen
data_TmMgIn
_symmetry_space_group_name_H-M   'P 1'
_cell_length_a   7.41450382
_cell_length_b   7.41450382
_cell_length_c   4.62519853
_cell_angle_alpha   90.00000000
_cell_angle_beta   90.00000000
_cell_angle_gamma   120.00000641
_symmetry_Int_Tables_number   1
_chemical_formula_structural   TmMgIn
_chemical_formula_sum   'Tm3 Mg3 In3'
_cell_volume   220.20398237
_cell_formula_units_Z   3
loop_
 _symmetry_equiv_pos_site_id
 _symmetry_equiv_pos_as_xyz
  1  'x, y, z'
loop_
 _atom_site_type_symbol
 _atom_site_label
 _atom_site_symmetry_multiplicity
 _atom_site_fract_x
 _atom_site_fract_y
 _atom_site_fract_z
 _atom_site_occupancy
  Tm  Tm0  1  0.00000000  0.56377733  0.00000000  1
  Tm  Tm1  1  0.43622267  0.43622267  -0.00000000  1
  Tm  Tm2  1  0.56377733  0.00000000  0.00000000  1
  Mg  Mg0  1  0.75827841  0.75827841  0.50000000  1
  Mg  Mg1  1  0.24172159  -0.00000000  0.50000000  1
  Mg  Mg2  1  -0.00000000  0.24172159  0.50000000  1
  In  In0  1  0.66666700  0.33333300  0.50000000  1
  In  In1  1  -0.00000000  -0.00000000  -0.00000000  1
  In  In2  1  0.33333300  0.66666700  0.50000000  1
loop_
_geom_bond_atom_site_label_1
_geom_bond_atom_site_label_2
_geom_bond_distance
_geom_bond_site_symmetry_2
Tm0 Tm2 3.796650 1_565
Tm0 Tm2 3.796650 1_455
Tm0 Tm1 3.796650 1_455
Tm0 Tm1 3.796651 1_555
Tm1 Tm2 3.796650 1_565
Tm1 Tm2 3.796651 1_555
Mg0 Mg1 3.104260 1_665
Mg0 Mg2 3.104260 1_665
Mg0 Tm1 3.324169 1_556
Mg0 Tm1 3.324169 1_555
Mg0 Tm0 3.636571 1_655
Mg0 Tm2 3.636571 1_566
Mg0 Tm0 3.636571 1_656
Mg0 Tm2 3.636571 1_565
Mg1 Mg2 3.104261 1_555
Mg1 Tm2 3.324170 1_556
Mg1 Tm2 3.324170 1_555
Mg1 Tm0 3.636570 1_545
Mg1 Tm0 3.636570 1_546
Mg1 Tm1 3.636570 1_555
Mg1 Tm1 3.636570 1_556
Mg2 Tm0 3.324170 1_555
Mg2 Tm0 3.324170 1_556
Mg2 Tm2 3.636570 1_455
Mg2 Tm2 3.636570 1_456
Mg2 Tm1 3.636570 1_555
Mg2 Tm1 3.636570 1_556
In0 Mg2 2.872014 1_655
In0 Mg1 2.872019 1_555
In0 Mg0 2.872021 1_555
In0 Tm2 3.186370 1_556
In0 Tm2 3.186370 1_555
In0 Tm0 3.186371 1_655
In0 Tm0 3.186371 1_656
In0 Tm1 3.186375 1_556
In0 Tm1 3.186375 1_555
In1 Mg0 2.925792 1_444
In1 Mg0 2.925792 1_445
In1 Mg1 2.925792 1_554
In1 Mg2 2.925792 1_555
In1 Mg2 2.925792 1_554
In1 Mg1 2.925792 1_555
In1 Tm1 3.234374 1_555
In1 Tm0 3.234375 1_545
In1 Tm2 3.234375 1_455
In2 Mg1 2.872014 1_565
In2 Mg2 2.872019 1_555
In2 Mg0 2.872021 1_555
In2 Tm0 3.186370 1_555
In2 Tm0 3.186370 1_556
In2 Tm2 3.186371 1_565
In2 Tm2 3.186371 1_566
In2 Tm1 3.186375 1_556
In2 Tm1 3.186375 1_555
