# generated using pymatgen
data_Ba2YMgTlCu2O7
_symmetry_space_group_name_H-M   'P 1'
_cell_length_a   3.76335858
_cell_length_b   4.02049401
_cell_length_c   15.05779559
_cell_angle_alpha   89.99903570
_cell_angle_beta   89.99717386
_cell_angle_gamma   89.98913387
_symmetry_Int_Tables_number   1
_chemical_formula_structural   Ba2YMgTlCu2O7
_chemical_formula_sum   'Ba2 Y1 Mg1 Tl1 Cu2 O7'
_cell_volume   227.83288485
_cell_formula_units_Z   1
loop_
 _symmetry_equiv_pos_site_id
 _symmetry_equiv_pos_as_xyz
  1  'x, y, z'
loop_
 _atom_site_type_symbol
 _atom_site_label
 _atom_site_symmetry_multiplicity
 _atom_site_fract_x
 _atom_site_fract_y
 _atom_site_fract_z
 _atom_site_occupancy
  Ba  Ba0  1  0.50004477  0.50000073  0.22831866  1
  Ba  Ba1  1  0.50007165  0.50001860  0.89589458  1
  Y  Y0  1  0.49995590  0.49999031  0.47862355  1
  Mg  Mg0  1  0.49997182  0.00002982  0.71450394  1
  Tl  Tl0  1  0.00005110  0.00001424  0.05112818  1
  Cu  Cu0  1  0.00003753  0.99999524  0.37023507  1
  Cu  Cu1  1  -0.00007950  0.99998185  0.57657276  1
  O  O0  1  0.00004525  0.00000080  0.19717354  1
  O  O1  1  0.00001743  0.49999565  0.37678366  1
  O  O2  1  0.50003088  0.99999608  0.39508657  1
  O  O3  1  0.49989795  0.99998499  0.58545748  1
  O  O4  1  0.50003770  0.49998769  0.04906209  1
  O  O5  1  -0.00007009  0.49998362  0.56832886  1
  O  O6  1  -0.00001541  0.00002139  0.77845704  1
loop_
_geom_bond_atom_site_label_1
_geom_bond_atom_site_label_2
_geom_bond_distance
_geom_bond_site_symmetry_2
Ba0 O4 2.699209 1_555
Ba0 O0 2.792895 1_655
Ba0 O0 2.792913 1_565
Ba0 O0 2.793398 1_665
Ba0 O0 2.793438 1_555
Ba0 O1 2.922054 1_555
Ba0 O1 2.922063 1_655
Ba0 O2 3.216661 1_545
Ba0 O2 3.216690 1_555
Ba1 O4 2.306365 1_556
Mg0 O3 1.943155 1_545
Mg0 O6 2.113696 1_555
Mg0 O6 2.113866 1_655
Cu0 O2 1.918521 1_555
Cu0 O2 1.918534 1_455
Cu0 O1 2.012661 1_555
Cu0 O1 2.012667 1_565
Cu0 O0 2.605925 1_565
Cu1 O3 1.886351 1_555
Cu1 O3 1.886507 1_455
Cu1 O5 2.014071 1_555
Cu1 O5 2.014081 1_565
O0 Tl0 2.199121 1_555
O1 Y0 2.427283 1_555
O1 Y0 2.427525 1_455
O2 Y0 2.371361 1_565
O2 Y0 2.371365 1_555
O3 Y0 2.574671 1_565
O3 Y0 2.574680 1_555
O4 Tl0 2.753381 1_655
O4 Tl0 2.753467 1_565
O4 Tl0 2.753831 1_555
O4 Tl0 2.754059 1_665
O5 Y0 2.316282 1_455
O5 Y0 2.316333 1_555
