# generated using pymatgen
data_Na3HfAlSi2SO12
_symmetry_space_group_name_H-M   'P 1'
_cell_length_a   8.95394170
_cell_length_b   8.95394139
_cell_length_c   22.16948100
_cell_angle_alpha   91.32196722
_cell_angle_beta   88.67803271
_cell_angle_gamma   120.21365337
_symmetry_Int_Tables_number   1
_chemical_formula_structural   Na3HfAlSi2SO12
_chemical_formula_sum   'Na18 Hf6 Al6 Si12 S6 O72'
_cell_volume   1535.40096965
_cell_formula_units_Z   6
loop_
 _symmetry_equiv_pos_site_id
 _symmetry_equiv_pos_as_xyz
  1  'x, y, z'
loop_
 _atom_site_type_symbol
 _atom_site_label
 _atom_site_symmetry_multiplicity
 _atom_site_fract_x
 _atom_site_fract_y
 _atom_site_fract_z
 _atom_site_occupancy
  Na  Na0  1  0.62398060  0.99895340  0.24012608  1
  Na  Na1  1  0.00379377  0.65142675  0.24316334  1
  Na  Na2  1  0.00104660  0.37601940  0.74012608  1
  Na  Na3  1  0.34857325  0.99620623  0.74316334  1
  Na  Na4  1  0.29064760  0.33228640  0.57345908  1
  Na  Na5  1  0.67046077  0.98475975  0.57649634  1
  Na  Na6  1  0.66771360  0.70935240  0.07345908  1
  Na  Na7  1  0.01524025  0.32953923  0.07649634  1
  Na  Na8  1  0.95731360  0.66562040  0.90679308  1
  Na  Na9  1  0.33712677  0.31809375  0.90983034  1
  Na  Na10  1  0.33437960  0.04268640  0.40679308  1
  Na  Na11  1  0.68190625  0.66287323  0.40983034  1
  Na  Na12  1  0.00457241  0.03159657  0.49340808  1
  Na  Na13  1  0.96840343  0.99542759  0.99340808  1
  Na  Na14  1  0.67123941  0.36492957  0.82674108  1
  Na  Na15  1  0.63507043  0.32876059  0.32674108  1
  Na  Na16  1  0.33790541  0.69826357  0.16007508  1
  Na  Na17  1  0.30173643  0.66209459  0.66007508  1
  Hf  Hf0  1  0.01367512  0.00132891  0.64600035  1
  Hf  Hf1  1  0.99867109  0.98632488  0.14600035  1
  Hf  Hf2  1  0.68034212  0.33466191  0.97933335  1
  Hf  Hf3  1  0.66533809  0.31965788  0.47933335  1
  Hf  Hf4  1  0.34700812  0.66799591  0.31266735  1
  Hf  Hf5  1  0.33200409  0.65299188  0.81266735  1
  Al  Al0  1  0.00358551  0.00813123  0.35258252  1
  Al  Al1  1  0.99186877  0.99641449  0.85258252  1
  Al  Al2  1  0.67025251  0.34146423  0.68591552  1
  Al  Al3  1  0.65853577  0.32974749  0.18591552  1
  Al  Al4  1  0.33691851  0.67479823  0.01924952  1
  Al  Al5  1  0.32520177  0.66308149  0.51924952  1
  Si  Si0  1  0.29587495  0.01221164  0.25427045  1
  Si  Si1  1  0.71455684  0.69865906  0.25158358  1
  Si  Si2  1  0.30134094  0.28544316  0.75158358  1
  Si  Si3  1  0.98778836  0.70412505  0.75427045  1
  Si  Si4  1  0.96254195  0.34554464  0.58760345  1
  Si  Si5  1  0.38122384  0.03199206  0.58491658  1
  Si  Si6  1  0.96800794  0.61877616  0.08491658  1
  Si  Si7  1  0.65445536  0.03745805  0.08760345  1
  Si  Si8  1  0.62920795  0.67887864  0.92093745  1
  Si  Si9  1  0.04788984  0.36532606  0.91825058  1
  Si  Si10  1  0.63467394  0.95211016  0.41825058  1
  Si  Si11  1  0.32112136  0.37079205  0.42093745  1
  S  S0  1  0.99653875  0.28611073  0.25255760  1
  S  S1  1  0.71388927  0.00346125  0.75255760  1
  S  S2  1  0.66320575  0.61944373  0.58589060  1
  S  S3  1  0.38055627  0.33679425  0.08589060  1
  S  S4  1  0.32987175  0.95277773  0.91922460  1
  S  S5  1  0.04722227  0.67012825  0.41922460  1
  O  O0  1  0.19839110  0.02559993  0.31544083  1
  O  O1  1  0.83872941  0.79848113  0.30950598  1
  O  O2  1  0.98355130  0.17669972  0.30312943  1
  O  O3  1  0.20151887  0.16127059  0.80950598  1
  O  O4  1  0.97440007  0.80160890  0.81544083  1
  O  O5  1  0.82330028  0.01644870  0.80312943  1
  O  O6  1  0.78200792  0.97720827  0.69410049  1
  O  O7  1  0.17824599  0.20541685  0.69171323  1
  O  O8  1  0.01788383  0.82749215  0.69663115  1
  O  O9  1  0.79458315  0.82175401  0.19171323  1
  O  O10  1  0.02279173  0.21799208  0.19410049  1
  O  O11  1  0.17250785  0.98211617  0.19663115  1
  O  O12  1  0.86505810  0.35893293  0.64877383  1
  O  O13  1  0.50539641  0.13181413  0.64283898  1
  O  O14  1  0.65021830  0.51003272  0.63646243  1
  O  O15  1  0.86818587  0.49460359  0.14283898  1
  O  O16  1  0.64106707  0.13494190  0.14877383  1
  O  O17  1  0.48996728  0.34978170  0.13646243  1
  O  O18  1  0.44867492  0.31054127  0.02743349  1
  O  O19  1  0.84491299  0.53874985  0.02504623  1
  O  O20  1  0.68455083  0.16082515  0.02996415  1
  O  O21  1  0.46125015  0.15508701  0.52504623  1
  O  O22  1  0.68945873  0.55132508  0.52743349  1
  O  O23  1  0.83917485  0.31544917  0.52996415  1
  O  O24  1  0.53172410  0.69226693  0.98210783  1
  O  O25  1  0.17206241  0.46514813  0.97617298  1
  O  O26  1  0.31688430  0.84336672  0.96979643  1
  O  O27  1  0.53485187  0.82793759  0.47617298  1
  O  O28  1  0.30773307  0.46827590  0.48210783  1
  O  O29  1  0.15663328  0.68311570  0.46979643  1
  O  O30  1  0.11534092  0.64387527  0.36076749  1
  O  O31  1  0.51157899  0.87208385  0.35838023  1
  O  O32  1  0.35121683  0.49415915  0.36329815  1
  O  O33  1  0.12791615  0.48842101  0.85838023  1
  O  O34  1  0.35612473  0.88465908  0.86076749  1
  O  O35  1  0.50584085  0.64878317  0.86329815  1
  O  O36  1  0.03653392  0.82978383  0.41909264  1
  O  O37  1  0.82157999  0.96393040  0.40781743  1
  O  O38  1  0.15831915  0.17514218  0.41196214  1
  O  O39  1  0.03606960  0.17842001  0.90781743  1
  O  O40  1  0.17021617  0.96346608  0.91909264  1
  O  O41  1  0.82485782  0.84168085  0.91196214  1
  O  O42  1  0.97270616  0.16316718  0.58852981  1
  O  O43  1  0.18817397  0.01273990  0.58733046  1
  O  O44  1  0.81128982  0.79991067  0.59105439  1
  O  O45  1  0.98726010  0.81182603  0.08733046  1
  O  O46  1  0.83683282  0.02729384  0.08852981  1
  O  O47  1  0.20008933  0.18871018  0.09105439  1
  O  O48  1  0.70320092  0.16311683  0.75242564  1
  O  O49  1  0.48824699  0.29726340  0.74115043  1
  O  O50  1  0.82498615  0.50847518  0.74529514  1
  O  O51  1  0.70273660  0.51175301  0.24115043  1
  O  O52  1  0.83688317  0.29679908  0.25242564  1
  O  O53  1  0.49152482  0.17501385  0.24529514  1
  O  O54  1  0.63937316  0.49650018  0.92186281  1
  O  O55  1  0.85484097  0.34607290  0.92066346  1
  O  O56  1  0.47795682  0.13324367  0.92438739  1
  O  O57  1  0.65392710  0.14515903  0.42066346  1
  O  O58  1  0.50349982  0.36062684  0.42186281  1
  O  O59  1  0.86675633  0.52204318  0.42438739  1
  O  O60  1  0.36986692  0.49645083  0.08575964  1
  O  O61  1  0.15491299  0.63059740  0.07448443  1
  O  O62  1  0.49165215  0.84180918  0.07862914  1
  O  O63  1  0.36940260  0.84508701  0.57448443  1
  O  O64  1  0.50354917  0.63013308  0.58575964  1
  O  O65  1  0.15819082  0.50834785  0.57862914  1
  O  O66  1  0.30603916  0.82983418  0.25519681  1
  O  O67  1  0.52150697  0.67940690  0.25399746  1
  O  O68  1  0.14462282  0.46657767  0.25772139  1
  O  O69  1  0.32059310  0.47849303  0.75399746  1
  O  O70  1  0.17016582  0.69396084  0.75519681  1
  O  O71  1  0.53342233  0.85537718  0.75772139  1
loop_
_geom_bond_atom_site_label_1
_geom_bond_atom_site_label_2
_geom_bond_distance
_geom_bond_site_symmetry_2
Na0 O16 2.349383 1_565
Na0 O52 2.386294 1_565
Na0 O53 2.402496 1_565
Na0 O66 2.479891 1_555
Na0 O67 2.551135 1_555
Na0 O31 2.835724 1_555
Na0 O9 2.878872 1_555
Na1 O51 2.332928 1_455
Na1 O66 2.368461 1_555
Na1 O68 2.564690 1_555
Na1 O15 2.580190 1_455
Na1 O52 2.756469 1_455
Na1 O11 2.771425 1_555
Na1 O1 2.801844 1_455
Na1 O30 2.827723 1_555
Na2 O12 2.349383 1_455
Na2 O48 2.386294 1_455
Na2 O50 2.402496 1_455
Na2 O70 2.479891 1_555
Na2 O69 2.551135 1_555
Na2 O33 2.835724 1_555
Na2 O7 2.878872 1_555
Na3 O49 2.332928 1_565
Na3 O70 2.368461 1_555
Na3 O71 2.564690 1_555
Na3 O13 2.580190 1_565
Na3 O48 2.756469 1_565
Na3 O8 2.771425 1_555
Na3 O3 2.801844 1_565
Na3 O34 2.827723 1_555
Na4 O28 2.349370 1_555
Na4 O64 2.386301 1_555
Na4 O65 2.402512 1_555
Na4 O42 2.479891 1_455
Na4 O43 2.551135 1_555
Na4 O7 2.835724 1_555
Na4 O21 2.878872 1_555
Na5 O63 2.332936 1_555
Na5 O42 2.368461 1_565
Na5 O44 2.564690 1_555
Na5 O27 2.580171 1_555
Na5 O64 2.756463 1_555
Na5 O23 2.771425 1_565
Na5 O13 2.801844 1_565
Na5 O6 2.827723 1_555
Na6 O24 2.349370 1_554
Na6 O60 2.386301 1_555
Na6 O62 2.402512 1_555
Na6 O46 2.479891 1_565
Na6 O45 2.551135 1_555
Na6 O9 2.835724 1_555
Na6 O19 2.878872 1_555
Na7 O61 2.332935 1_555
Na7 O46 2.368461 1_455
Na7 O47 2.564690 1_555
Na7 O25 2.580171 1_554
Na7 O60 2.756463 1_555
Na7 O20 2.771425 1_455
Na7 O15 2.801844 1_455
Na7 O10 2.827723 1_555
Na8 O4 2.349383 1_555
Na8 O40 2.386294 1_655
Na8 O41 2.402496 1_555
Na8 O54 2.479881 1_555
Na8 O55 2.551142 1_555
Na8 O19 2.835705 1_556
Na8 O33 2.878872 1_655
Na9 O39 2.332928 1_555
Na9 O54 2.368464 1_555
Na9 O56 2.564702 1_555
Na9 O3 2.580190 1_555
Na9 O40 2.756469 1_545
Na9 O35 2.771425 1_555
Na9 O25 2.801844 1_555
Na9 O18 2.827708 1_556
Na10 O0 2.349383 1_555
Na10 O36 2.386294 1_545
Na10 O38 2.402496 1_555
Na10 O58 2.479881 1_555
Na10 O57 2.551143 1_555
Na10 O21 2.835705 1_555
Na10 O31 2.878872 1_545
Na11 O37 2.332928 1_555
Na11 O58 2.368464 1_555
Na11 O59 2.564702 1_555
Na11 O1 2.580190 1_555
Na11 O36 2.756469 1_655
Na11 O32 2.771425 1_555
Na11 O27 2.801844 1_555
Na11 O22 2.827708 1_555
Na12 O38 2.240302 1_555
Na12 O37 2.396573 1_445
Na12 O42 2.472291 1_455
Na12 O36 2.534352 1_545
Na12 O43 2.742304 1_555
Na12 O44 2.899287 1_445
Na13 O41 2.240302 1_555
Na13 O39 2.396573 1_665
Na13 O46 2.472291 1_566
Na13 O40 2.534352 1_655
Na13 O45 2.742304 1_556
Na13 O47 2.899287 1_666
Na14 O50 2.240302 1_555
Na14 O49 2.396573 1_555
Na14 O54 2.472291 1_555
Na14 O48 2.534352 1_555
Na14 O55 2.742304 1_555
Na14 O56 2.899287 1_555
Na15 O53 2.240302 1_555
Na15 O51 2.396573 1_555
Na15 O58 2.472291 1_555
Na15 O52 2.534352 1_555
Na15 O57 2.742304 1_555
Na15 O59 2.899287 1_555
Na16 O62 2.240302 1_555
Na16 O61 2.396573 1_555
Na16 O66 2.472291 1_555
Na16 O60 2.534352 1_555
Na16 O67 2.742304 1_555
Na16 O68 2.899287 1_555
Na17 O65 2.240302 1_555
Na17 O63 2.396573 1_555
Na17 O70 2.472291 1_555
Na17 O64 2.534352 1_555
Na17 O69 2.742304 1_555
Na17 O71 2.899287 1_555
Hf0 O7 1.952201 1_555
Hf0 O8 1.955940 1_545
Hf0 O43 1.973616 1_555
Hf0 O42 2.121203 1_455
Hf0 O44 2.175197 1_445
Hf0 O6 2.223576 1_445
Hf1 O9 1.952201 1_555
Hf1 O11 1.955940 1_655
Hf1 O45 1.973616 1_555
Hf1 O46 2.121203 1_565
Hf1 O47 2.175197 1_665
Hf1 O10 2.223576 1_665
Hf2 O19 1.952201 1_556
Hf2 O20 1.955940 1_556
Hf2 O55 1.973616 1_555
Hf2 O54 2.121203 1_555
Hf2 O56 2.175197 1_555
Hf2 O18 2.223576 1_556
Hf3 O21 1.952201 1_555
Hf3 O23 1.955940 1_555
Hf3 O57 1.973616 1_555
Hf3 O58 2.121203 1_555
Hf3 O59 2.175197 1_555
Hf3 O22 2.223576 1_555
Hf4 O31 1.952201 1_555
Hf4 O32 1.955940 1_555
Hf4 O67 1.973616 1_555
Hf4 O66 2.121203 1_555
Hf4 O68 2.175197 1_555
Hf4 O30 2.223576 1_555
Hf5 O33 1.952201 1_555
Hf5 O35 1.955940 1_555
Hf5 O69 1.973616 1_555
Hf5 O70 2.121203 1_555
Hf5 O71 2.175197 1_555
Hf5 O34 2.223576 1_555
Al0 O0 1.846635 1_555
Al0 O37 1.895539 1_445
Al0 O38 1.948548 1_555
Al0 O1 1.951477 1_445
Al0 O2 1.967291 1_455
Al0 O36 2.326838 1_545
Al1 O4 1.846635 1_555
Al1 O39 1.895539 1_665
Al1 O41 1.948548 1_555
Al1 O3 1.951477 1_665
Al1 O5 1.967292 1_565
Al1 O40 2.326838 1_655
Al2 O12 1.846635 1_555
Al2 O49 1.895539 1_555
Al2 O50 1.948548 1_555
Al2 O13 1.951477 1_555
Al2 O14 1.967291 1_555
Al2 O48 2.326838 1_555
Al3 O16 1.846635 1_555
Al3 O51 1.895539 1_555
Al3 O53 1.948548 1_555
Al3 O15 1.951477 1_555
Al3 O17 1.967292 1_555
Al3 O52 2.326838 1_555
Al4 O24 1.846635 1_554
Al4 O61 1.895539 1_555
Al4 O62 1.948548 1_555
Al4 O25 1.951477 1_554
Al4 O26 1.967291 1_554
Al4 O60 2.326838 1_555
Al5 O28 1.846635 1_555
Al5 O63 1.895539 1_555
Al5 O65 1.948548 1_555
Al5 O27 1.951477 1_555
Al5 O29 1.967292 1_555
Al5 O64 2.326838 1_555
O0 Si0 1.630493 1_555
O1 Si1 1.642176 1_555
O2 S0 1.469776 1_555
O3 Si2 1.642176 1_555
O4 Si3 1.630493 1_555
O5 S1 1.469776 1_555
O6 S1 1.483430 1_565
O7 Si2 1.648854 1_555
O8 Si3 1.635640 1_455
O9 Si1 1.648854 1_555
O10 S0 1.483430 1_455
O11 Si0 1.635640 1_565
O12 Si4 1.630493 1_555
O13 Si5 1.642176 1_555
O14 S2 1.469776 1_555
O15 Si6 1.642176 1_555
O16 Si7 1.630493 1_555
O17 S3 1.469776 1_555
O18 S3 1.483430 1_555
O19 Si6 1.648854 1_555
O20 Si7 1.635640 1_555
O21 Si5 1.648854 1_555
O22 S2 1.483430 1_555
O23 Si4 1.635640 1_555
O24 Si8 1.630493 1_555
O25 Si9 1.642176 1_555
O26 S4 1.469776 1_555
O27 Si10 1.642176 1_555
O28 Si11 1.630493 1_555
O29 S5 1.469776 1_555
O30 S5 1.483430 1_555
O31 Si10 1.648854 1_555
O32 Si11 1.635640 1_555
O33 Si9 1.648854 1_555
O34 S4 1.483430 1_555
O35 Si8 1.635640 1_555
O36 S5 1.480092 1_555
O37 Si10 1.634154 1_555
O38 Si11 1.631138 1_555
O39 Si9 1.634153 1_555
O40 S4 1.480092 1_555
O41 Si8 1.631138 1_555
O42 Si4 1.681248 1_555
O43 Si5 1.648257 1_555
O44 S2 1.491439 1_555
O45 Si6 1.648257 1_555
O46 Si7 1.681248 1_555
O47 S3 1.491439 1_555
O48 S1 1.480092 1_555
O49 Si2 1.634154 1_555
O50 Si3 1.631138 1_555
O51 Si1 1.634153 1_555
O52 S0 1.480092 1_555
O53 Si0 1.631138 1_555
O54 Si8 1.681261 1_555
O55 Si9 1.648244 1_655
O56 S4 1.491435 1_545
O57 Si10 1.648244 1_545
O58 Si11 1.681261 1_555
O59 S5 1.491435 1_655
O60 S3 1.480105 1_555
O61 Si6 1.634138 1_455
O62 Si7 1.631133 1_565
O63 Si5 1.634138 1_565
O64 S2 1.480105 1_555
O65 Si4 1.631133 1_455
O66 Si0 1.681248 1_565
O67 Si1 1.648257 1_555
O68 S0 1.491439 1_455
O69 Si2 1.648257 1_555
O70 Si3 1.681248 1_455
O71 S1 1.491439 1_565
