# generated using pymatgen
data_EuI2
_symmetry_space_group_name_H-M   'P 1'
_cell_length_a   7.71293227
_cell_length_b   7.95186674
_cell_length_c   8.25182397
_cell_angle_alpha   90.00000000
_cell_angle_beta   90.00000000
_cell_angle_gamma   98.70105943
_symmetry_Int_Tables_number   1
_chemical_formula_structural   EuI2
_chemical_formula_sum   'Eu4 I8'
_cell_volume   500.27790783
_cell_formula_units_Z   4
loop_
 _symmetry_equiv_pos_site_id
 _symmetry_equiv_pos_as_xyz
  1  'x, y, z'
loop_
 _atom_site_type_symbol
 _atom_site_label
 _atom_site_symmetry_multiplicity
 _atom_site_fract_x
 _atom_site_fract_y
 _atom_site_fract_z
 _atom_site_occupancy
  Eu  Eu0  1  0.78667579  0.19241441  0.94675006  1
  Eu  Eu1  1  0.21332421  0.30758559  0.44675006  1
  Eu  Eu2  1  0.21332421  0.80758559  0.05324994  1
  Eu  Eu3  1  0.78667579  0.69241441  0.55324994  1
  I  I0  1  0.07400504  0.50539032  0.76931533  1
  I  I1  1  0.92599496  0.99460968  0.26931533  1
  I  I2  1  0.92599496  0.49460968  0.23068467  1
  I  I3  1  0.07400504  0.00539032  0.73068467  1
  I  I4  1  0.59328368  0.79048765  0.88575322  1
  I  I5  1  0.40671632  0.70951235  0.38575322  1
  I  I6  1  0.40671632  0.20951235  0.11424678  1
  I  I7  1  0.59328368  0.29048765  0.61424678  1
loop_
_geom_bond_atom_site_label_1
_geom_bond_atom_site_label_2
_geom_bond_distance
_geom_bond_site_symmetry_2
Eu0 I6 3.261566 1_556
Eu0 I7 3.273116 1_555
Eu0 I1 3.350381 1_546
Eu0 I4 3.354212 1_545
Eu0 I3 3.361413 1_655
Eu0 I0 3.402968 1_655
Eu0 I2 3.411371 1_556
Eu1 I7 3.261566 1_555
Eu1 I6 3.273116 1_555
Eu1 I0 3.350381 1_555
Eu1 I5 3.354212 1_555
Eu1 I2 3.361413 1_455
Eu1 I1 3.402968 1_445
Eu1 I3 3.411371 1_555
Eu2 I4 3.261566 1_554
Eu2 I5 3.273116 1_555
Eu2 I3 3.350381 1_564
Eu2 I6 3.354212 1_565
Eu2 I1 3.361413 1_455
Eu2 I2 3.402968 1_455
Eu2 I0 3.411371 1_554
Eu3 I5 3.261566 1_555
Eu3 I4 3.273116 1_555
Eu3 I2 3.350381 1_555
Eu3 I7 3.354212 1_555
Eu3 I0 3.361413 1_655
Eu3 I3 3.402968 1_665
Eu3 I1 3.411371 1_555
