# generated using pymatgen
data_BaIn2Ir
_symmetry_space_group_name_H-M   'P 1'
_cell_length_a   12.73767792
_cell_length_b   12.73767792
_cell_length_c   16.30596628
_cell_angle_alpha   90.00000000
_cell_angle_beta   90.00000000
_cell_angle_gamma   139.64736519
_symmetry_Int_Tables_number   1
_chemical_formula_structural   BaIn2Ir
_chemical_formula_sum   'Ba16 In32 Ir16'
_cell_volume   1713.01127130
_cell_formula_units_Z   16
loop_
 _symmetry_equiv_pos_site_id
 _symmetry_equiv_pos_as_xyz
  1  'x, y, z'
loop_
 _atom_site_type_symbol
 _atom_site_label
 _atom_site_symmetry_multiplicity
 _atom_site_fract_x
 _atom_site_fract_y
 _atom_site_fract_z
 _atom_site_occupancy
  Ba  Ba0_0  1  0.02595682  0.47404318  0.12500000  1
  Ba  Ba0_1  1  0.02595682  0.47404318  0.62500000  1
  Ba  Ba0_2  1  0.02595682  0.97404318  0.12500000  1
  Ba  Ba0_3  1  0.02595682  0.97404318  0.62500000  1
  Ba  Ba0_4  1  0.52595682  0.47404318  0.12500000  1
  Ba  Ba0_5  1  0.52595682  0.47404318  0.62500000  1
  Ba  Ba0_6  1  0.52595682  0.97404318  0.12500000  1
  Ba  Ba0_7  1  0.52595682  0.97404318  0.62500000  1
  Ba  Ba1_0  1  0.47404318  0.02595682  0.37500000  1
  Ba  Ba1_1  1  0.47404318  0.02595682  0.87500000  1
  Ba  Ba1_2  1  0.47404318  0.52595682  0.37500000  1
  Ba  Ba1_3  1  0.47404318  0.52595682  0.87500000  1
  Ba  Ba1_4  1  0.97404318  0.02595682  0.37500000  1
  Ba  Ba1_5  1  0.97404318  0.02595682  0.87500000  1
  Ba  Ba1_6  1  0.97404318  0.52595682  0.37500000  1
  Ba  Ba1_7  1  0.97404318  0.52595682  0.87500000  1
  In  In0_0  1  0.33373696  0.16626304  0.27778763  1
  In  In0_1  1  0.33373696  0.16626304  0.77778763  1
  In  In0_2  1  0.33373696  0.66626304  0.27778763  1
  In  In0_3  1  0.33373696  0.66626304  0.77778763  1
  In  In0_4  1  0.83373696  0.16626304  0.27778763  1
  In  In0_5  1  0.83373696  0.16626304  0.77778763  1
  In  In0_6  1  0.83373696  0.66626304  0.27778763  1
  In  In0_7  1  0.83373696  0.66626304  0.77778763  1
  In  In1_0  1  0.16626304  0.33373696  0.22221237  1
  In  In1_1  1  0.16626304  0.33373696  0.72221237  1
  In  In1_2  1  0.16626304  0.83373696  0.22221237  1
  In  In1_3  1  0.16626304  0.83373696  0.72221237  1
  In  In1_4  1  0.66626304  0.33373696  0.22221237  1
  In  In1_5  1  0.66626304  0.33373696  0.72221237  1
  In  In1_6  1  0.66626304  0.83373696  0.22221237  1
  In  In1_7  1  0.66626304  0.83373696  0.72221237  1
  In  In2_0  1  0.33373696  0.16626304  0.47221237  1
  In  In2_1  1  0.33373696  0.16626304  0.97221237  1
  In  In2_2  1  0.33373696  0.66626304  0.47221237  1
  In  In2_3  1  0.33373696  0.66626304  0.97221237  1
  In  In2_4  1  0.83373696  0.16626304  0.47221237  1
  In  In2_5  1  0.83373696  0.16626304  0.97221237  1
  In  In2_6  1  0.83373696  0.66626304  0.47221237  1
  In  In2_7  1  0.83373696  0.66626304  0.97221237  1
  In  In3_0  1  0.16626304  0.33373696  0.02778763  1
  In  In3_1  1  0.16626304  0.33373696  0.52778763  1
  In  In3_2  1  0.16626304  0.83373696  0.02778763  1
  In  In3_3  1  0.16626304  0.83373696  0.52778763  1
  In  In3_4  1  0.66626304  0.33373696  0.02778763  1
  In  In3_5  1  0.66626304  0.33373696  0.52778763  1
  In  In3_6  1  0.66626304  0.83373696  0.02778763  1
  In  In3_7  1  0.66626304  0.83373696  0.52778763  1
  Ir  Ir0_0  1  0.11058766  0.38941234  0.37500000  1
  Ir  Ir0_1  1  0.11058766  0.38941234  0.87500000  1
  Ir  Ir0_2  1  0.11058766  0.88941234  0.37500000  1
  Ir  Ir0_3  1  0.11058766  0.88941234  0.87500000  1
  Ir  Ir0_4  1  0.61058766  0.38941234  0.37500000  1
  Ir  Ir0_5  1  0.61058766  0.38941234  0.87500000  1
  Ir  Ir0_6  1  0.61058766  0.88941234  0.37500000  1
  Ir  Ir0_7  1  0.61058766  0.88941234  0.87500000  1
  Ir  Ir1_0  1  0.38941234  0.11058766  0.12500000  1
  Ir  Ir1_1  1  0.38941234  0.11058766  0.62500000  1
  Ir  Ir1_2  1  0.38941234  0.61058766  0.12500000  1
  Ir  Ir1_3  1  0.38941234  0.61058766  0.62500000  1
  Ir  Ir1_4  1  0.88941234  0.11058766  0.12500000  1
  Ir  Ir1_5  1  0.88941234  0.11058766  0.62500000  1
  Ir  Ir1_6  1  0.88941234  0.61058766  0.12500000  1
  Ir  Ir1_7  1  0.88941234  0.61058766  0.62500000  1
loop_
_geom_bond_atom_site_label_1
_geom_bond_atom_site_label_2
_geom_bond_distance
_geom_bond_site_symmetry_2
Ba0_0 Ir1_6 3.265062 1_455
Ba0_0 Ir1_2 3.490778 1_555
Ba0_0 Ir1_4 3.490778 1_455
Ba0_0 In2_5 3.597382 1_454
Ba0_0 In2_3 3.597382 1_554
Ba0_0 In0_4 3.597382 1_455
Ba0_0 In0_2 3.597382 1_555
Ba0_0 In1_0 3.710632 1_555
Ba0_0 In3_0 3.710632 1_555
Ba0_0 In1_4 3.770707 1_455
Ba0_0 In3_4 3.770707 1_455
Ba0_0 In1_2 3.770707 1_555
Ba0_0 In3_2 3.770707 1_555
Ba0_0 Ba1_7 4.261310 1_454
Ba0_0 Ba1_6 4.261310 1_455
Ba0_0 Ba0_6 4.393356 1_445
Ba0_0 Ba0_6 4.393356 1_555
Ba0_1 Ir1_7 3.265062 1_455
Ba0_1 Ir1_3 3.490778 1_555
Ba0_1 Ir1_5 3.490778 1_455
Ba0_1 In0_5 3.597382 1_455
Ba0_1 In0_3 3.597382 1_555
Ba0_1 In2_2 3.597382 1_555
Ba0_1 In2_4 3.597382 1_455
Ba0_1 In1_1 3.710632 1_555
Ba0_1 In3_1 3.710632 1_555
Ba0_1 In1_5 3.770707 1_455
Ba0_1 In1_3 3.770707 1_555
Ba0_1 In3_5 3.770707 1_455
Ba0_1 In3_3 3.770707 1_555
Ba0_1 Ba1_7 4.261310 1_455
Ba0_1 Ba1_6 4.261310 1_455
Ba0_1 Ba0_7 4.393356 1_555
Ba0_1 Ba0_7 4.393356 1_445
Ba0_2 Ir1_4 3.265062 1_465
Ba0_2 Ir1_0 3.490778 1_565
Ba0_2 Ir1_6 3.490778 1_455
Ba0_2 In2_7 3.597382 1_454
Ba0_2 In2_1 3.597382 1_564
Ba0_2 In0_6 3.597382 1_455
Ba0_2 In0_0 3.597382 1_565
Ba0_2 In1_2 3.710632 1_555
Ba0_2 In3_2 3.710632 1_555
Ba0_2 In3_6 3.770707 1_455
Ba0_2 In1_6 3.770707 1_455
Ba0_2 In3_0 3.770707 1_565
Ba0_2 In1_0 3.770707 1_565
Ba0_2 Ba1_5 4.261310 1_464
Ba0_2 Ba1_4 4.261310 1_465
Ba0_2 Ba0_4 4.393356 1_455
Ba0_2 Ba0_4 4.393356 1_565
Ba0_3 Ir1_5 3.265062 1_465
Ba0_3 Ir1_1 3.490778 1_565
Ba0_3 Ir1_7 3.490778 1_455
Ba0_3 In0_7 3.597382 1_455
Ba0_3 In0_1 3.597382 1_565
Ba0_3 In2_6 3.597382 1_455
Ba0_3 In2_0 3.597382 1_565
Ba0_3 In1_3 3.710632 1_555
Ba0_3 In3_3 3.710632 1_555
Ba0_3 In1_7 3.770707 1_455
Ba0_3 In1_1 3.770707 1_565
Ba0_3 In3_7 3.770707 1_455
Ba0_3 In3_1 3.770707 1_565
Ba0_3 Ba1_5 4.261310 1_465
Ba0_3 Ba1_4 4.261310 1_465
Ba0_3 Ba0_5 4.393356 1_565
Ba0_3 Ba0_5 4.393356 1_455
Ba0_4 Ir1_2 3.265062 1_555
Ba0_4 Ir1_0 3.490778 1_555
Ba0_4 Ir1_6 3.490778 1_555
Ba0_4 In2_7 3.597382 1_554
Ba0_4 In0_6 3.597382 1_555
Ba0_4 In2_1 3.597382 1_554
Ba0_4 In0_0 3.597382 1_555
Ba0_4 In1_4 3.710632 1_555
Ba0_4 In3_4 3.710632 1_555
Ba0_4 In1_6 3.770707 1_555
Ba0_4 In3_6 3.770707 1_555
Ba0_4 In3_0 3.770707 1_555
Ba0_4 In1_0 3.770707 1_555
Ba0_4 Ba1_3 4.261310 1_554
Ba0_4 Ba1_2 4.261310 1_555
Ba0_5 Ir1_3 3.265062 1_555
Ba0_5 Ir1_7 3.490778 1_555
Ba0_5 Ir1_1 3.490778 1_555
Ba0_5 In0_7 3.597382 1_555
Ba0_5 In0_1 3.597382 1_555
Ba0_5 In2_6 3.597382 1_555
Ba0_5 In2_0 3.597382 1_555
Ba0_5 In1_5 3.710632 1_555
Ba0_5 In3_5 3.710632 1_555
Ba0_5 In1_7 3.770707 1_555
Ba0_5 In1_1 3.770707 1_555
Ba0_5 In3_7 3.770707 1_555
Ba0_5 In3_1 3.770707 1_555
Ba0_5 Ba1_3 4.261310 1_555
Ba0_5 Ba1_2 4.261310 1_555
Ba0_6 Ir1_0 3.265062 1_565
Ba0_6 Ir1_4 3.490778 1_565
Ba0_6 Ir1_2 3.490778 1_555
Ba0_6 In2_3 3.597382 1_554
Ba0_6 In2_5 3.597382 1_564
Ba0_6 In0_2 3.597382 1_555
Ba0_6 In0_4 3.597382 1_565
Ba0_6 In1_6 3.710632 1_555
Ba0_6 In3_6 3.710632 1_555
Ba0_6 In1_4 3.770707 1_565
Ba0_6 In3_4 3.770707 1_565
Ba0_6 In1_2 3.770707 1_555
Ba0_6 In3_2 3.770707 1_555
Ba0_6 Ba1_1 4.261310 1_564
Ba0_6 Ba1_0 4.261310 1_565
Ba0_7 Ir1_1 3.265062 1_565
Ba0_7 Ir1_3 3.490778 1_555
Ba0_7 Ir1_5 3.490778 1_565
Ba0_7 In0_3 3.597382 1_555
Ba0_7 In0_5 3.597382 1_565
Ba0_7 In2_2 3.597382 1_555
Ba0_7 In2_4 3.597382 1_565
Ba0_7 In1_7 3.710632 1_555
Ba0_7 In3_7 3.710632 1_555
Ba0_7 In1_5 3.770707 1_565
Ba0_7 In1_3 3.770707 1_555
Ba0_7 In3_5 3.770707 1_565
Ba0_7 In3_3 3.770707 1_555
Ba0_7 Ba1_1 4.261310 1_565
Ba0_7 Ba1_0 4.261310 1_565
Ba1_0 Ir0_6 3.265062 1_545
Ba1_0 Ir0_2 3.490778 1_545
Ba1_0 Ir0_4 3.490778 1_555
Ba1_0 In1_4 3.597382 1_555
Ba1_0 In3_5 3.597382 1_555
Ba1_0 In1_2 3.597382 1_545
Ba1_0 In3_3 3.597382 1_545
Ba1_0 In0_0 3.710632 1_555
Ba1_0 In2_0 3.710632 1_555
Ba1_0 In0_2 3.770707 1_545
Ba1_0 In2_2 3.770707 1_545
Ba1_0 In0_4 3.770707 1_555
Ba1_0 In2_4 3.770707 1_555
Ba1_0 Ba1_6 4.393356 1_555
Ba1_0 Ba1_6 4.393356 1_445
Ba1_1 Ir0_7 3.265062 1_545
Ba1_1 Ir0_3 3.490778 1_545
Ba1_1 Ir0_5 3.490778 1_555
Ba1_1 In3_4 3.597382 1_556
Ba1_1 In1_5 3.597382 1_555
Ba1_1 In1_3 3.597382 1_545
Ba1_1 In3_2 3.597382 1_546
Ba1_1 In0_1 3.710632 1_555
Ba1_1 In2_1 3.710632 1_555
Ba1_1 In0_3 3.770707 1_545
Ba1_1 In2_3 3.770707 1_545
Ba1_1 In0_5 3.770707 1_555
Ba1_1 In2_5 3.770707 1_555
Ba1_1 Ba1_7 4.393356 1_445
Ba1_1 Ba1_7 4.393356 1_555
Ba1_2 Ir0_4 3.265062 1_555
Ba1_2 Ir0_0 3.490778 1_555
Ba1_2 Ir0_6 3.490778 1_555
Ba1_2 In3_7 3.597382 1_555
Ba1_2 In1_6 3.597382 1_555
Ba1_2 In1_0 3.597382 1_555
Ba1_2 In3_1 3.597382 1_555
Ba1_2 In2_2 3.710632 1_555
Ba1_2 In0_2 3.710632 1_555
Ba1_2 In2_6 3.770707 1_555
Ba1_2 In0_6 3.770707 1_555
Ba1_2 In2_0 3.770707 1_555
Ba1_2 In0_0 3.770707 1_555
Ba1_2 Ba1_4 4.393356 1_565
Ba1_2 Ba1_4 4.393356 1_455
Ba1_3 Ir0_5 3.265062 1_555
Ba1_3 Ir0_1 3.490778 1_555
Ba1_3 Ir0_7 3.490778 1_555
Ba1_3 In1_7 3.597382 1_555
Ba1_3 In3_6 3.597382 1_556
Ba1_3 In3_0 3.597382 1_556
Ba1_3 In1_1 3.597382 1_555
Ba1_3 In0_3 3.710632 1_555
Ba1_3 In2_3 3.710632 1_555
Ba1_3 In0_7 3.770707 1_555
Ba1_3 In2_7 3.770707 1_555
Ba1_3 In0_1 3.770707 1_555
Ba1_3 In2_1 3.770707 1_555
Ba1_3 Ba1_5 4.393356 1_565
Ba1_3 Ba1_5 4.393356 1_455
Ba1_4 Ir0_2 3.265062 1_645
Ba1_4 Ir0_6 3.490778 1_545
Ba1_4 Ir0_0 3.490778 1_655
Ba1_4 In3_7 3.597382 1_545
Ba1_4 In1_6 3.597382 1_545
Ba1_4 In1_0 3.597382 1_655
Ba1_4 In3_1 3.597382 1_655
Ba1_4 In2_4 3.710632 1_555
Ba1_4 In0_4 3.710632 1_555
Ba1_4 In0_0 3.770707 1_655
Ba1_4 In2_0 3.770707 1_655
Ba1_4 In0_6 3.770707 1_545
Ba1_4 In2_6 3.770707 1_545
Ba1_5 Ir0_3 3.265062 1_645
Ba1_5 Ir0_7 3.490778 1_545
Ba1_5 Ir0_1 3.490778 1_655
Ba1_5 In3_6 3.597382 1_546
Ba1_5 In1_7 3.597382 1_545
Ba1_5 In3_0 3.597382 1_656
Ba1_5 In1_1 3.597382 1_655
Ba1_5 In0_5 3.710632 1_555
Ba1_5 In2_5 3.710632 1_555
Ba1_5 In0_1 3.770707 1_655
Ba1_5 In0_7 3.770707 1_545
Ba1_5 In2_7 3.770707 1_545
Ba1_5 In2_1 3.770707 1_655
Ba1_6 Ir0_0 3.265062 1_655
Ba1_6 Ir0_4 3.490778 1_555
Ba1_6 Ir0_2 3.490778 1_655
Ba1_6 In1_4 3.597382 1_555
Ba1_6 In3_5 3.597382 1_555
Ba1_6 In3_3 3.597382 1_655
Ba1_6 In1_2 3.597382 1_655
Ba1_6 In0_6 3.710632 1_555
Ba1_6 In2_6 3.710632 1_555
Ba1_6 In0_2 3.770707 1_655
Ba1_6 In2_2 3.770707 1_655
Ba1_6 In0_4 3.770707 1_555
Ba1_6 In2_4 3.770707 1_555
Ba1_7 Ir0_1 3.265062 1_655
Ba1_7 Ir0_5 3.490778 1_555
Ba1_7 Ir0_3 3.490778 1_655
Ba1_7 In3_4 3.597382 1_556
Ba1_7 In1_5 3.597382 1_555
Ba1_7 In3_2 3.597382 1_656
Ba1_7 In1_3 3.597382 1_655
Ba1_7 In0_7 3.710632 1_555
Ba1_7 In2_7 3.710632 1_555
Ba1_7 In0_3 3.770707 1_655
Ba1_7 In2_3 3.770707 1_655
Ba1_7 In0_5 3.770707 1_555
Ba1_7 In2_5 3.770707 1_555
In0_0 Ir0_4 2.783937 1_555
In0_0 Ir0_2 2.783937 1_545
In0_0 Ir1_0 2.824752 1_555
In0_0 In1_2 3.088818 1_545
In0_0 In1_4 3.088818 1_555
In0_0 In2_0 3.170283 1_555
In0_1 Ir0_5 2.783937 1_555
In0_1 Ir0_3 2.783937 1_545
In0_1 Ir1_1 2.824752 1_555
In0_1 In1_3 3.088818 1_545
In0_1 In1_5 3.088818 1_555
In0_1 In2_1 3.170283 1_555
In0_2 Ir0_6 2.783937 1_555
In0_2 Ir0_0 2.783937 1_555
In0_2 Ir1_2 2.824752 1_555
In0_2 In1_0 3.088818 1_555
In0_2 In1_6 3.088818 1_555
In0_2 In2_2 3.170283 1_555
In0_3 Ir0_7 2.783937 1_555
In0_3 Ir0_1 2.783937 1_555
In0_3 Ir1_3 2.824752 1_555
In0_3 In1_1 3.088818 1_555
In0_3 In1_7 3.088818 1_555
In0_3 In2_3 3.170283 1_555
In0_4 Ir0_0 2.783937 1_655
In0_4 Ir0_6 2.783937 1_545
In0_4 Ir1_4 2.824752 1_555
In0_4 In1_0 3.088818 1_655
In0_4 In1_6 3.088818 1_545
In0_4 In2_4 3.170283 1_555
In0_5 Ir0_1 2.783937 1_655
In0_5 Ir0_7 2.783937 1_545
In0_5 Ir1_5 2.824752 1_555
In0_5 In1_1 3.088818 1_655
In0_5 In1_7 3.088818 1_545
In0_5 In2_5 3.170283 1_555
In0_6 Ir0_2 2.783937 1_655
In0_6 Ir0_4 2.783937 1_555
In0_6 Ir1_6 2.824752 1_555
In0_6 In1_4 3.088818 1_555
In0_6 In1_2 3.088818 1_655
In0_6 In2_6 3.170283 1_555
In0_7 Ir0_3 2.783937 1_655
In0_7 Ir0_5 2.783937 1_555
In0_7 Ir1_7 2.824752 1_555
In0_7 In1_5 3.088818 1_555
In0_7 In1_3 3.088818 1_655
In0_7 In2_7 3.170283 1_555
In1_0 Ir1_2 2.783937 1_555
In1_0 Ir1_4 2.783937 1_455
In1_0 Ir0_0 2.824752 1_555
In1_0 In3_0 3.170283 1_555
In1_1 Ir1_3 2.783937 1_555
In1_1 Ir1_5 2.783937 1_455
In1_1 Ir0_1 2.824752 1_555
In1_1 In3_1 3.170283 1_555
In1_2 Ir1_0 2.783937 1_565
In1_2 Ir1_6 2.783937 1_455
In1_2 Ir0_2 2.824752 1_555
In1_2 In3_2 3.170283 1_555
In1_3 Ir1_1 2.783937 1_565
In1_3 Ir1_7 2.783937 1_455
In1_3 Ir0_3 2.824752 1_555
In1_3 In3_3 3.170283 1_555
In1_4 Ir1_6 2.783937 1_555
In1_4 Ir1_0 2.783937 1_555
In1_4 Ir0_4 2.824752 1_555
In1_4 In3_4 3.170283 1_555
In1_5 Ir1_7 2.783937 1_555
In1_5 Ir1_1 2.783937 1_555
In1_5 Ir0_5 2.824752 1_555
In1_5 In3_5 3.170283 1_555
In1_6 Ir1_4 2.783937 1_565
In1_6 Ir1_2 2.783937 1_555
In1_6 Ir0_6 2.824752 1_555
In1_6 In3_6 3.170283 1_555
In1_7 Ir1_5 2.783937 1_565
In1_7 Ir1_3 2.783937 1_555
In1_7 Ir0_7 2.824752 1_555
In1_7 In3_7 3.170283 1_555
In2_0 Ir0_4 2.783937 1_555
In2_0 Ir0_2 2.783937 1_545
In2_0 Ir1_1 2.824752 1_555
In2_0 In3_3 3.088818 1_545
In2_0 In3_5 3.088818 1_555
In2_1 Ir0_5 2.783937 1_555
In2_1 Ir0_3 2.783937 1_545
In2_1 Ir1_0 2.824752 1_556
In2_1 In3_2 3.088818 1_546
In2_1 In3_4 3.088818 1_556
In2_2 Ir0_6 2.783937 1_555
In2_2 Ir0_0 2.783937 1_555
In2_2 Ir1_3 2.824752 1_555
In2_2 In3_1 3.088818 1_555
In2_2 In3_7 3.088818 1_555
In2_3 Ir0_7 2.783937 1_555
In2_3 Ir0_1 2.783937 1_555
In2_3 Ir1_2 2.824752 1_556
In2_3 In3_0 3.088818 1_556
In2_3 In3_6 3.088818 1_556
In2_4 Ir0_0 2.783937 1_655
In2_4 Ir0_6 2.783937 1_545
In2_4 Ir1_5 2.824752 1_555
In2_4 In3_1 3.088818 1_655
In2_4 In3_7 3.088818 1_545
In2_5 Ir0_1 2.783937 1_655
In2_5 Ir0_7 2.783937 1_545
In2_5 Ir1_4 2.824752 1_556
In2_5 In3_0 3.088818 1_656
In2_5 In3_6 3.088818 1_546
In2_6 Ir0_2 2.783937 1_655
In2_6 Ir0_4 2.783937 1_555
In2_6 Ir1_7 2.824752 1_555
In2_6 In3_5 3.088818 1_555
In2_6 In3_3 3.088818 1_655
In2_7 Ir0_5 2.783937 1_555
In2_7 Ir0_3 2.783937 1_655
In2_7 Ir1_6 2.824752 1_556
In2_7 In3_4 3.088818 1_556
In2_7 In3_2 3.088818 1_656
In3_0 Ir1_2 2.783937 1_555
In3_0 Ir1_4 2.783937 1_455
In3_0 Ir0_1 2.824752 1_554
In3_1 Ir1_3 2.783937 1_555
In3_1 Ir1_5 2.783937 1_455
In3_1 Ir0_0 2.824752 1_555
In3_2 Ir1_0 2.783937 1_565
In3_2 Ir1_6 2.783937 1_455
In3_2 Ir0_3 2.824752 1_554
In3_3 Ir1_1 2.783937 1_565
In3_3 Ir1_7 2.783937 1_455
In3_3 Ir0_2 2.824752 1_555
In3_4 Ir1_6 2.783937 1_555
In3_4 Ir1_0 2.783937 1_555
In3_4 Ir0_5 2.824752 1_554
In3_5 Ir1_7 2.783937 1_555
In3_5 Ir1_1 2.783937 1_555
In3_5 Ir0_4 2.824752 1_555
In3_6 Ir1_4 2.783937 1_565
In3_6 Ir1_2 2.783937 1_555
In3_6 Ir0_7 2.824752 1_554
In3_7 Ir1_5 2.783937 1_565
In3_7 Ir1_3 2.783937 1_555
In3_7 Ir0_6 2.824752 1_555
