# generated using pymatgen
data_MgCr3(SO4)6
_symmetry_space_group_name_H-M   'P 1'
_cell_length_a   8.99525564
_cell_length_b   9.00524688
_cell_length_c   9.09241055
_cell_angle_alpha   55.29005279
_cell_angle_beta   54.88836544
_cell_angle_gamma   55.39751785
_symmetry_Int_Tables_number   1
_chemical_formula_structural   MgCr3(SO4)6
_chemical_formula_sum   'Mg1 Cr3 S6 O24'
_cell_volume   462.56401807
_cell_formula_units_Z   1
loop_
 _symmetry_equiv_pos_site_id
 _symmetry_equiv_pos_as_xyz
  1  'x, y, z'
loop_
 _atom_site_type_symbol
 _atom_site_label
 _atom_site_symmetry_multiplicity
 _atom_site_fract_x
 _atom_site_fract_y
 _atom_site_fract_z
 _atom_site_occupancy
  Mg  Mg0  1  0.34383500  0.83621200  0.17762300  1
  Cr  Cr0  1  0.35468500  0.34847600  0.35385400  1
  Cr  Cr1  1  0.65065000  0.63740000  0.64552100  1
  Cr  Cr2  1  0.84361800  0.84778100  0.85265900  1
  S  S0  1  0.03946600  0.72999200  0.48054200  1
  S  S1  1  0.47974200  0.03601100  0.72507100  1
  S  S2  1  0.73100800  0.47849100  0.03813400  1
  S  S3  1  0.24741600  0.53981000  0.96741900  1
  S  S4  1  0.55783100  0.94805900  0.24988600  1
  S  S5  1  0.96192500  0.24505100  0.54340100  1
  O  O0  1  0.11821100  0.27472000  0.52805100  1
  O  O1  1  0.27331000  0.53117600  0.12179200  1
  O  O2  1  0.03530300  0.92349000  0.33622500  1
  O  O3  1  0.51506700  0.11206300  0.28453600  1
  O  O4  1  0.01321000  0.70326500  0.66978900  1
  O  O5  1  0.24918500  0.60006900  0.39416500  1
  O  O6  1  0.39532700  0.23225100  0.60008600  1
  O  O7  1  0.33518800  0.99856300  0.92271200  1
  O  O8  1  0.60246300  0.38828600  0.23485300  1
  O  O9  1  0.04480600  0.67457800  0.97975800  1
  O  O10  1  0.29062200  0.35031400  0.98357200  1
  O  O11  1  0.37803100  0.94273900  0.28718600  1
  O  O12  1  0.65666600  0.02720500  0.71469200  1
  O  O13  1  0.66886300  0.68248200  0.03420800  1
  O  O14  1  0.93287200  0.37133500  0.00187000  1
  O  O15  1  0.38170300  0.63152300  0.77196000  1
  O  O16  1  0.69165300  0.97654000  0.04430000  1
  O  O17  1  0.65816800  0.76088100  0.37486700  1
  O  O18  1  0.76668200  0.37111700  0.64515800  1
  O  O19  1  0.96644200  0.29794700  0.35716100  1
  O  O20  1  0.53236500  0.89808300  0.64812300  1
  O  O21  1  0.98279300  0.03976300  0.67186100  1
  O  O22  1  0.66327800  0.51305600  0.90127200  1
  O  O23  1  0.91139800  0.66077400  0.50291100  1
loop_
_geom_bond_atom_site_label_1
_geom_bond_atom_site_label_2
_geom_bond_distance
_geom_bond_site_symmetry_2
Mg0 O7 1.932530 1_554
Mg0 O11 1.945059 1_555
Mg0 O5 2.117377 1_555
Mg0 O2 2.146896 1_555
Mg0 O13 2.288701 1_555
Cr0 O8 1.989600 1_555
Cr0 O3 2.001197 1_555
Cr0 O0 2.001368 1_555
Cr0 O6 2.019870 1_555
Cr0 O1 2.037202 1_555
Cr0 O5 2.066817 1_555
Cr1 O20 1.959827 1_555
Cr1 O22 1.966775 1_555
Cr1 O23 1.994574 1_555
Cr1 O18 2.000495 1_555
Cr1 O15 2.013443 1_555
Cr1 O17 2.018575 1_555
Cr2 O16 2.002505 1_556
Cr2 O12 2.011154 1_565
Cr2 O4 2.019191 1_655
Cr2 O21 2.027984 1_565
Cr2 O9 2.047089 1_655
Cr2 O13 2.070274 1_556
O0 S5 1.491861 1_455
O1 S3 1.503891 1_554
O2 S0 1.462191 1_555
O3 S4 1.474346 1_545
O4 S0 1.483231 1_555
O5 S0 1.542662 1_555
O6 S1 1.473934 1_555
O7 S1 1.467557 1_565
O8 S2 1.493020 1_555
O9 S3 1.488215 1_555
O10 S3 1.453136 1_555
O11 S4 1.473649 1_555
O12 S1 1.496800 1_555
O13 S2 1.571708 1_555
O14 S2 1.421481 1_555
O15 S3 1.513823 1_555
O16 S4 1.491713 1_555
O17 S4 1.489201 1_555
O18 S5 1.513862 1_555
O19 S5 1.456115 1_555
O20 S1 1.482312 1_565
O21 S5 1.488650 1_555
O22 S2 1.494070 1_556
O23 S0 1.469239 1_655
