# generated using pymatgen
data_Na6Mg4Nb2P6(SO12)3
_symmetry_space_group_name_H-M   'P 1'
_cell_length_a   8.86421836
_cell_length_b   8.83738138
_cell_length_c   22.39563765
_cell_angle_alpha   90.24371240
_cell_angle_beta   90.00000000
_cell_angle_gamma   120.10050606
_symmetry_Int_Tables_number   1
_chemical_formula_structural   Na6Mg4Nb2P6(SO12)3
_chemical_formula_sum   'Na12 Mg8 Nb4 P12 S6 O72'
_cell_volume   1517.79154081
_cell_formula_units_Z   2
loop_
 _symmetry_equiv_pos_site_id
 _symmetry_equiv_pos_as_xyz
  1  'x, y, z'
loop_
 _atom_site_type_symbol
 _atom_site_label
 _atom_site_symmetry_multiplicity
 _atom_site_fract_x
 _atom_site_fract_y
 _atom_site_fract_z
 _atom_site_occupancy
  Na  Na0  1  0.99609015  0.63936714  0.24617151  1
  Na  Na1  1  0.64327699  0.63936714  0.74617151  1
  Na  Na2  1  0.30298187  0.33826414  0.58593269  1
  Na  Na3  1  0.66776721  0.95938916  0.58394760  1
  Na  Na4  1  0.29162295  0.95938916  0.08394760  1
  Na  Na5  1  0.03528327  0.33826414  0.08593269  1
  Na  Na6  1  0.99569405  0.98573681  0.49184781  1
  Na  Na7  1  0.99004276  0.98573681  0.99184781  1
  Na  Na8  1  0.65770239  0.31151796  0.82575840  1
  Na  Na9  1  0.65381657  0.31151796  0.32575840  1
  Na  Na10  1  0.34558014  0.66685341  0.16544484  1
  Na  Na11  1  0.32127227  0.66685341  0.66544484  1
  Mg  Mg0  1  0.00532527  0.00943568  0.35212524  1
  Mg  Mg1  1  0.00411041  0.00943568  0.85212524  1
  Mg  Mg2  1  0.99576499  0.99563074  0.65329312  1
  Mg  Mg3  1  0.99986575  0.99563074  0.15329312  1
  Mg  Mg4  1  0.66118502  0.32779473  0.68709323  1
  Mg  Mg5  1  0.66661072  0.32779473  0.18709323  1
  Mg  Mg6  1  0.33369225  0.66807031  0.01483381  1
  Mg  Mg7  1  0.33437705  0.66807031  0.51483381  1
  Nb  Nb0  1  0.67467479  0.34426591  0.97415502  1
  Nb  Nb1  1  0.66959212  0.34426591  0.47415502  1
  Nb  Nb2  1  0.33238223  0.66738781  0.31513312  1
  Nb  Nb3  1  0.33500457  0.66738781  0.81513312  1
  P  P0  1  0.29530967  0.00683965  0.24991868  1
  P  P1  1  0.99580571  0.28727333  0.24949233  1
  P  P2  1  0.29146762  0.28727333  0.74949233  1
  P  P3  1  0.71152998  0.00683965  0.74991868  1
  P  P4  1  0.66921128  0.62850836  0.58599211  1
  P  P5  1  0.95929808  0.62850836  0.08599211  1
  P  P6  1  0.62883100  0.67734847  0.91846689  1
  P  P7  1  0.04752081  0.37224199  0.92000233  1
  P  P8  1  0.32653605  0.95631183  0.92051289  1
  P  P9  1  0.62977478  0.95631183  0.42051289  1
  P  P10  1  0.32472018  0.37224199  0.42000233  1
  P  P11  1  0.04851647  0.67734847  0.41846689  1
  S  S0  1  0.70818244  0.70919024  0.25040745  1
  S  S1  1  0.00100780  0.70919024  0.75040745  1
  S  S2  1  0.95768389  0.33743240  0.58402046  1
  S  S3  1  0.37515983  0.04100055  0.58333143  1
  S  S4  1  0.66584172  0.04100055  0.08333143  1
  S  S5  1  0.37974951  0.33743240  0.08402046  1
  O  O0  1  0.20137994  0.01877303  0.30409235  1
  O  O1  1  0.81430739  0.78861440  0.30356041  1
  O  O2  1  0.97318131  0.17768750  0.30296175  1
  O  O3  1  0.20450619  0.17768750  0.80296175  1
  O  O4  1  0.97430700  0.78861440  0.80356041  1
  O  O5  1  0.81739309  0.01877303  0.80409235  1
  O  O6  1  0.77078081  0.95499005  0.69190764  1
  O  O7  1  0.19138906  0.22166974  0.68993461  1
  O  O8  1  0.03351215  0.81378992  0.69606661  1
  O  O9  1  0.78027777  0.81378992  0.19606661  1
  O  O10  1  0.03028068  0.22166974  0.18993461  1
  O  O11  1  0.18420924  0.95499005  0.19190764  1
  O  O12  1  0.87311335  0.35671881  0.63674853  1
  O  O13  1  0.48584135  0.12242748  0.63568134  1
  O  O14  1  0.64116245  0.51414148  0.64015523  1
  O  O15  1  0.87298004  0.51414148  0.14015523  1
  O  O16  1  0.63658714  0.12242748  0.13568134  1
  O  O17  1  0.48360646  0.35671881  0.13674853  1
  O  O18  1  0.46487552  0.31014365  0.02930732  1
  O  O19  1  0.83900692  0.52366371  0.02905191  1
  O  O20  1  0.69042146  0.15379868  0.02902030  1
  O  O21  1  0.46337822  0.15379868  0.52902030  1
  O  O22  1  0.68465779  0.52366371  0.52905191  1
  O  O23  1  0.84526913  0.31014365  0.52930732  1
  O  O24  1  0.53844882  0.69284054  0.97278431  1
  O  O25  1  0.14386954  0.45471288  0.97724344  1
  O  O26  1  0.30971548  0.85741619  0.97733549  1
  O  O27  1  0.54769971  0.85741619  0.47733549  1
  O  O28  1  0.31084233  0.45471288  0.47724344  1
  O  O29  1  0.15439071  0.69284054  0.47278431  1
  O  O30  1  0.12831345  0.63894232  0.36074288  1
  O  O31  1  0.50397444  0.86506556  0.36519335  1
  O  O32  1  0.35968005  0.49565663  0.36501405  1
  O  O33  1  0.13597558  0.49565663  0.86501405  1
  O  O34  1  0.36109012  0.86506556  0.86519335  1
  O  O35  1  0.51062786  0.63894232  0.86074288  1
  O  O36  1  0.01324758  0.82383636  0.40878097  1
  O  O37  1  0.80855021  0.98269826  0.40956466  1
  O  O38  1  0.17491882  0.18998542  0.41104443  1
  O  O39  1  0.01506660  0.18998542  0.91104443  1
  O  O40  1  0.17414804  0.98269826  0.90956466  1
  O  O41  1  0.81058877  0.82383636  0.90878097  1
  O  O42  1  0.97288262  0.17584452  0.58601773  1
  O  O43  1  0.20380190  0.03116089  0.58725799  1
  O  O44  1  0.83310971  0.81050192  0.58593417  1
  O  O45  1  0.97739221  0.81050192  0.08593417  1
  O  O46  1  0.82735899  0.03116089  0.08725799  1
  O  O47  1  0.20296190  0.17584452  0.08601773  1
  O  O48  1  0.68224236  0.16111544  0.74329842  1
  O  O49  1  0.48414037  0.33343676  0.74523541  1
  O  O50  1  0.84658553  0.53177381  0.74360111  1
  O  O51  1  0.68518929  0.53177381  0.24360111  1
  O  O52  1  0.84929740  0.33343676  0.24523541  1
  O  O53  1  0.47887408  0.16111544  0.24329842  1
  O  O54  1  0.63619048  0.49844600  0.92372884  1
  O  O55  1  0.86000873  0.36159929  0.92333211  1
  O  O56  1  0.50233875  0.14227502  0.92536186  1
  O  O57  1  0.63993727  0.14227502  0.42536186  1
  O  O58  1  0.50159156  0.36159929  0.42333211  1
  O  O59  1  0.86225652  0.49844600  0.42372884  1
  O  O60  1  0.35696206  0.49118164  0.07765373  1
  O  O61  1  0.14071103  0.64366163  0.07851153  1
  O  O62  1  0.50879692  0.86607097  0.07638807  1
  O  O63  1  0.35727306  0.86607097  0.57638807  1
  O  O64  1  0.50294959  0.64366163  0.57851153  1
  O  O65  1  0.13421858  0.49118164  0.57765373  1
  O  O66  1  0.31386491  0.83223243  0.25980641  1
  O  O67  1  0.52750814  0.68783147  0.25731421  1
  O  O68  1  0.16994655  0.48150099  0.25915190  1
  O  O69  1  0.31155344  0.48150099  0.75915190  1
  O  O70  1  0.16032233  0.68783147  0.75731421  1
  O  O71  1  0.51836652  0.83223243  0.75980641  1
loop_
_geom_bond_atom_site_label_1
_geom_bond_atom_site_label_2
_geom_bond_distance
_geom_bond_site_symmetry_2
Na0 O52 2.339662 1_555
Na0 O51 2.423534 1_555
Na0 O66 2.472395 1_655
Na0 O68 2.562397 1_655
Na0 O15 2.611361 1_555
Na0 O11 2.720502 1_655
Na0 O30 2.821713 1_655
Na0 O1 2.846994 1_555
Na1 O49 2.339662 1_555
Na1 O50 2.423543 1_555
Na1 O71 2.472402 1_555
Na1 O69 2.562404 1_555
Na1 O14 2.611363 1_555
Na1 O6 2.720502 1_555
Na1 O35 2.821716 1_555
Na1 O4 2.846994 1_555
Na2 O64 2.378871 1_555
Na2 O43 2.397280 1_555
Na2 O65 2.475561 1_555
Na2 O42 2.531691 1_455
Na2 O7 2.542319 1_555
Na2 O28 2.634094 1_555
Na2 O14 2.861327 1_555
Na2 O21 2.934405 1_555
Na3 O42 2.405438 1_565
Na3 O44 2.411661 1_555
Na3 O64 2.417193 1_555
Na3 O63 2.450715 1_555
Na3 O27 2.581738 1_555
Na3 O6 2.591844 1_555
Na3 O13 2.887098 1_565
Na3 O23 2.953271 1_565
Na4 O47 2.405445 1_565
Na4 O45 2.411669 1_455
Na4 O61 2.417193 1_555
Na4 O62 2.450698 1_555
Na4 O26 2.581734 1_554
Na4 O11 2.591847 1_555
Na4 O16 2.887098 1_565
Na4 O18 2.953271 1_565
Na5 O61 2.378874 1_555
Na5 O46 2.397282 1_455
Na5 O60 2.475546 1_555
Na5 O47 2.531684 1_555
Na5 O10 2.542317 1_555
Na5 O25 2.634091 1_554
Na5 O15 2.861327 1_455
Na5 O20 2.934405 1_455
Na6 O36 2.394334 1_655
Na6 O37 2.470499 1_555
Na6 O38 2.491647 1_665
Na6 O44 2.589274 1_555
Na6 O43 2.716586 1_665
Na6 O42 2.760785 1_565
Na7 O41 2.394334 1_555
Na7 O40 2.470499 1_655
Na7 O39 2.491647 1_665
Na7 O45 2.589274 1_556
Na7 O46 2.716586 1_566
Na7 O47 2.760785 1_666
Na8 O48 2.343840 1_555
Na8 O49 2.441002 1_555
Na8 O50 2.595983 1_555
Na8 O56 2.659306 1_555
Na8 O55 2.717103 1_555
Na8 O54 2.804383 1_555
Na9 O53 2.343840 1_555
Na9 O52 2.441002 1_555
Na9 O51 2.595983 1_555
Na9 O57 2.659306 1_555
Na9 O58 2.717103 1_555
Na9 O59 2.804383 1_555
Na10 O60 2.533221 1_555
Na10 O67 2.562241 1_555
Na10 O62 2.577928 1_555
Na10 O61 2.598784 1_555
Na10 O68 2.642444 1_555
Na10 O66 2.658365 1_555
Na11 O65 2.533221 1_555
Na11 O70 2.562241 1_555
Na11 O63 2.577928 1_555
Na11 O64 2.598784 1_555
Na11 O69 2.642444 1_555
Na11 O71 2.658365 1_555
Mg0 O2 1.985764 1_455
Mg0 O0 2.010251 1_555
Mg0 O38 2.030555 1_555
Mg0 O37 2.083808 1_445
Mg0 O36 2.106757 1_545
Mg0 O1 2.127408 1_445
Mg1 O3 1.985764 1_555
Mg1 O5 2.010251 1_455
Mg1 O39 2.030555 1_555
Mg1 O40 2.083808 1_545
Mg1 O41 2.106757 1_445
Mg1 O4 2.127408 1_445
Mg2 O6 2.034289 1_555
Mg2 O8 2.040704 1_655
Mg2 O7 2.045073 1_665
Mg2 O44 2.155033 1_555
Mg2 O43 2.260430 1_665
Mg2 O42 2.278613 1_565
Mg3 O11 2.034289 1_655
Mg3 O9 2.040704 1_555
Mg3 O10 2.045073 1_665
Mg3 O45 2.155033 1_555
Mg3 O46 2.260430 1_565
Mg3 O47 2.278613 1_665
Mg4 O48 2.020051 1_555
Mg4 O14 2.038735 1_555
Mg4 O13 2.046507 1_555
Mg4 O49 2.058850 1_555
Mg4 O12 2.094388 1_555
Mg4 O50 2.135656 1_555
Mg5 O53 2.020051 1_555
Mg5 O15 2.038735 1_555
Mg5 O16 2.046507 1_555
Mg5 O52 2.058850 1_555
Mg5 O17 2.094388 1_555
Mg5 O51 2.135656 1_555
Mg6 O24 1.957614 1_554
Mg6 O25 1.974687 1_554
Mg6 O26 1.979675 1_554
Mg6 O62 2.150971 1_555
Mg6 O61 2.153845 1_555
Mg6 O60 2.192652 1_555
Mg7 O29 1.957614 1_555
Mg7 O28 1.974687 1_555
Mg7 O27 1.979675 1_555
Mg7 O63 2.150971 1_555
Mg7 O64 2.153845 1_555
Mg7 O65 2.192652 1_555
Nb0 O54 1.930699 1_555
Nb0 O55 1.940871 1_555
Nb0 O19 1.952934 1_556
Nb0 O56 1.990586 1_555
Nb0 O18 2.125031 1_556
Nb0 O20 2.148445 1_556
Nb1 O59 1.930699 1_555
Nb1 O58 1.940871 1_555
Nb1 O22 1.952934 1_555
Nb1 O57 1.990586 1_555
Nb1 O23 2.125031 1_555
Nb1 O21 2.148445 1_555
Nb2 O30 1.981112 1_555
Nb2 O66 1.984870 1_555
Nb2 O31 1.985048 1_555
Nb2 O68 1.988380 1_555
Nb2 O32 1.998135 1_555
Nb2 O67 2.095134 1_555
Nb3 O35 1.981112 1_555
Nb3 O71 1.984870 1_555
Nb3 O34 1.985048 1_555
Nb3 O69 1.988380 1_555
Nb3 O33 1.998135 1_555
Nb3 O70 2.095134 1_555
O0 P0 1.504439 1_555
O1 S0 1.457823 1_555
O2 P1 1.492359 1_555
O3 P2 1.492359 1_555
O4 S1 1.457823 1_655
O5 P3 1.504439 1_555
O6 P3 1.552431 1_565
O7 P2 1.542646 1_555
O8 S1 1.470039 1_555
O9 S0 1.470039 1_555
O10 P1 1.542646 1_455
O11 P0 1.552431 1_565
O12 S2 1.453255 1_555
O13 S3 1.462741 1_555
O14 P4 1.520896 1_555
O15 P5 1.520896 1_555
O16 S4 1.462741 1_555
O17 S5 1.453255 1_555
O18 S5 1.519541 1_555
O19 P5 1.618830 1_555
O20 S4 1.520885 1_555
O21 S3 1.520885 1_555
O22 P4 1.618830 1_555
O23 S2 1.519541 1_555
O24 P6 1.499675 1_555
O25 P7 1.507216 1_555
O26 P8 1.511383 1_555
O27 P9 1.511383 1_555
O28 P10 1.507217 1_555
O29 P11 1.499675 1_555
O30 P11 1.588661 1_555
O31 P9 1.586889 1_555
O32 P10 1.573079 1_555
O33 P7 1.573079 1_555
O34 P8 1.586889 1_555
O35 P6 1.588661 1_555
O36 P11 1.492998 1_555
O37 P9 1.501871 1_555
O38 P10 1.499915 1_555
O39 P7 1.499918 1_555
O40 P8 1.501862 1_555
O41 P6 1.493004 1_555
O42 S2 1.500963 1_555
O43 S3 1.479898 1_555
O44 P4 1.534198 1_555
O45 P5 1.534202 1_555
O46 S4 1.479889 1_555
O47 S5 1.500968 1_555
O48 P3 1.518213 1_555
O49 P2 1.547217 1_555
O50 S1 1.483408 1_655
O51 S0 1.483412 1_555
O52 P1 1.547208 1_555
O53 P0 1.518219 1_555
O54 P6 1.619517 1_555
O55 P7 1.618764 1_655
O56 P8 1.603364 1_545
O57 P9 1.603356 1_545
O58 P10 1.618782 1_555
O59 P11 1.619508 1_655
O60 S5 1.477919 1_555
O61 P5 1.554389 1_455
O62 S4 1.480307 1_565
O63 S3 1.480300 1_565
O64 P4 1.554406 1_555
O65 S2 1.477909 1_455
O66 P0 1.647615 1_565
O67 S0 1.523649 1_555
O68 P1 1.647738 1_455
O69 P2 1.647742 1_555
O70 S1 1.523640 1_555
O71 P3 1.647620 1_565
