# generated using pymatgen
data_Na4Zr3Zn(PO4)6
_symmetry_space_group_name_H-M   'P 1'
_cell_length_a   8.97333854
_cell_length_b   8.99659873
_cell_length_c   23.10753680
_cell_angle_alpha   90.02825388
_cell_angle_beta   89.96219522
_cell_angle_gamma   120.00626417
_symmetry_Int_Tables_number   1
_chemical_formula_structural   Na4Zr3Zn(PO4)6
_chemical_formula_sum   'Na12 Zr9 Zn3 P18 O72'
_cell_volume   1615.43381371
_cell_formula_units_Z   3
loop_
 _symmetry_equiv_pos_site_id
 _symmetry_equiv_pos_as_xyz
  1  'x, y, z'
loop_
 _atom_site_type_symbol
 _atom_site_label
 _atom_site_symmetry_multiplicity
 _atom_site_fract_x
 _atom_site_fract_y
 _atom_site_fract_z
 _atom_site_occupancy
  Na  Na0  1  0.64202462  0.01405436  0.24601988  1
  Na  Na1  1  0.37186613  0.35763619  0.24592781  1
  Na  Na2  1  0.98564593  0.62713584  0.24566386  1
  Na  Na3  1  0.98593873  0.36187766  0.74394450  1
  Na  Na4  1  0.37457591  0.01104407  0.74405587  1
  Na  Na5  1  0.70836551  0.67739564  0.41447751  1
  Na  Na6  1  0.01081917  0.01131971  0.49397952  1
  Na  Na7  1  0.00008054  0.00021735  0.00117582  1
  Na  Na8  1  0.66591563  0.34385111  0.83050190  1
  Na  Na9  1  0.66575696  0.32363501  0.33152952  1
  Na  Na10  1  0.33326698  0.66665235  0.16194166  1
  Na  Na11  1  0.34374721  0.66576810  0.66197471  1
  Zr  Zr0  1  -0.00051126  0.99808090  0.85375095  1
  Zr  Zr1  1  0.99659808  0.99648595  0.64380861  1
  Zr  Zr2  1  0.00033871  0.00015749  0.14595926  1
  Zr  Zr3  1  0.66695590  0.33245262  0.98212237  1
  Zr  Zr4  1  0.66586745  0.32687372  0.48286079  1
  Zr  Zr5  1  0.33279487  0.66644721  0.02070359  1
  Zr  Zr6  1  0.33084578  0.66560856  0.52009400  1
  Zr  Zr7  1  0.33084692  0.66670222  0.31747517  1
  Zr  Zr8  1  0.33858923  0.66577343  0.81562187  1
  Zn  Zn0  1  0.00900057  0.01013381  0.35054547  1
  Zn  Zn1  1  0.66555783  0.34158678  0.67826656  1
  Zn  Zn2  1  0.66669676  0.33289573  0.17620032  1
  P  P0  1  0.29261309  0.00265787  0.25140284  1
  P  P1  1  0.70904745  0.70653974  0.25260689  1
  P  P2  1  0.99687611  0.28941841  0.25150903  1
  P  P3  1  0.29295863  0.29038494  0.74947460  1
  P  P4  1  0.99613986  0.70486320  0.75010069  1
  P  P5  1  0.70820300  0.00137641  0.74973729  1
  P  P6  1  0.95824018  0.33451507  0.58673905  1
  P  P7  1  0.37678995  0.04115366  0.58667643  1
  P  P8  1  0.66451189  0.62172770  0.58363767  1
  P  P9  1  0.95754936  0.62389999  0.08578213  1
  P  P10  1  0.66566966  0.04167161  0.08576356  1
  P  P11  1  0.37628541  0.33444280  0.08573048  1
  P  P12  1  0.62637081  0.66555337  0.91794839  1
  P  P13  1  0.04050409  0.37439530  0.91628431  1
  P  P14  1  0.33477985  0.95951476  0.91646185  1
  P  P15  1  0.63038969  0.96119441  0.41637035  1
  P  P16  1  0.32951569  0.36851398  0.41695671  1
  P  P17  1  0.03719071  0.66979274  0.41697349  1
  O  O0  1  0.21096569  0.03244435  0.30433084  1
  O  O1  1  0.81453209  0.78383799  0.30759553  1
  O  O2  1  0.96535962  0.17715604  0.30431446  1
  O  O3  1  0.20110193  0.17697671  0.80351675  1
  O  O4  1  0.97898553  0.79796401  0.80404299  1
  O  O5  1  0.82226049  0.02328497  0.80325235  1
  O  O6  1  0.79442673  0.97402425  0.69627408  1
  O  O7  1  0.17360616  0.20535177  0.69666730  1
  O  O8  1  0.03105182  0.82396958  0.69734800  1
  O  O9  1  0.79559360  0.82634505  0.19918643  1
  O  O10  1  0.03271039  0.20780831  0.19718079  1
  O  O11  1  0.17559221  0.96776056  0.19706010  1
  O  O12  1  0.88577752  0.36145510  0.64292263  1
  O  O13  1  0.47711679  0.11301114  0.64276546  1
  O  O14  1  0.63509683  0.51532476  0.63743094  1
  O  O15  1  0.88716691  0.52507849  0.14223873  1
  O  O16  1  0.63738602  0.11245252  0.14215924  1
  O  O17  1  0.47522842  0.36257447  0.14217724  1
  O  O18  1  0.46659678  0.31108271  0.03204718  1
  O  O19  1  0.84432836  0.53357726  0.03209546  1
  O  O20  1  0.68935394  0.15523110  0.03211786  1
  O  O21  1  0.46587257  0.15519475  0.53274067  1
  O  O22  1  0.69026310  0.54093115  0.52735392  1
  O  O23  1  0.84453814  0.31061650  0.53283264  1
  O  O24  1  0.53771958  0.69004603  0.97079633  1
  O  O25  1  0.15510146  0.46525729  0.96879439  1
  O  O26  1  0.31094732  0.84520370  0.96895747  1
  O  O27  1  0.53223337  0.84276615  0.46803835  1
  O  O28  1  0.31440741  0.46823290  0.46898238  1
  O  O29  1  0.15246176  0.68575964  0.46867060  1
  O  O30  1  0.12059704  0.64239893  0.36098075  1
  O  O31  1  0.51885508  0.87755541  0.36032563  1
  O  O32  1  0.36206912  0.48415576  0.36131744  1
  O  O33  1  0.12432364  0.48121923  0.86035841  1
  O  O34  1  0.35758415  0.87561526  0.86053728  1
  O  O35  1  0.51535861  0.64202477  0.86325870  1
  O  O36  1  0.01252510  0.82496682  0.41290183  1
  O  O37  1  0.80333096  0.96878805  0.41200690  1
  O  O38  1  0.17185910  0.19281118  0.41241086  1
  O  O39  1  0.02275370  0.19502264  0.91021253  1
  O  O40  1  0.17260078  0.97722762  0.91066058  1
  O  O41  1  0.80519395  0.82754917  0.91094726  1
  O  O42  1  0.97685710  0.17140218  0.58937247  1
  O  O43  1  0.19502082  0.02328308  0.58977172  1
  O  O44  1  0.82817112  0.80349163  0.58880601  1
  O  O45  1  0.97624933  0.80563434  0.08907731  1
  O  O46  1  0.82912253  0.02299490  0.08904701  1
  O  O47  1  0.19421684  0.17098096  0.08897621  1
  O  O48  1  0.68951223  0.16165475  0.74661222  1
  O  O49  1  0.46844845  0.30317283  0.74549671  1
  O  O50  1  0.84381293  0.52300826  0.74620834  1
  O  O51  1  0.68291706  0.52463293  0.24452806  1
  O  O52  1  0.84152790  0.31721376  0.24419546  1
  O  O53  1  0.47567692  0.15802861  0.24424328  1
  O  O54  1  0.64393922  0.50431853  0.92319079  1
  O  O55  1  0.86133364  0.35699100  0.92263696  1
  O  O56  1  0.49594561  0.13873441  0.92269754  1
  O  O57  1  0.64328832  0.13850212  0.42247924  1
  O  O58  1  0.50257299  0.36685946  0.42284731  1
  O  O59  1  0.85621729  0.50469432  0.42276083  1
  O  O60  1  0.35333050  0.49337995  0.07625161  1
  O  O61  1  0.13978523  0.64662659  0.07628701  1
  O  O62  1  0.50617042  0.86013179  0.07619953  1
  O  O63  1  0.35378866  0.85998760  0.57638379  1
  O  O64  1  0.50634465  0.64721313  0.57557367  1
  O  O65  1  0.13983012  0.49330773  0.57687219  1
  O  O66  1  0.30763602  0.83420209  0.25595565  1
  O  O67  1  0.52487855  0.69123603  0.25598940  1
  O  O68  1  0.16549284  0.47293738  0.25637369  1
  O  O69  1  0.30094150  0.46756699  0.75657966  1
  O  O70  1  0.16654389  0.69398421  0.75669397  1
  O  O71  1  0.52430700  0.84033957  0.75599279  1
loop_
_geom_bond_atom_site_label_1
_geom_bond_atom_site_label_2
_geom_bond_distance
_geom_bond_site_symmetry_2
Na0 O52 2.400380 1_555
Na0 O53 2.416924 1_555
Na0 O67 2.557276 1_545
Na0 O16 2.565990 1_555
Na0 O66 2.611080 1_545
Na0 O2 2.851451 1_555
Na0 O9 2.871549 1_545
Na0 O31 2.889295 1_545
Na1 O53 2.401489 1_555
Na1 O51 2.419617 1_555
Na1 O68 2.546402 1_555
Na1 O17 2.562385 1_555
Na1 O67 2.612466 1_555
Na1 O0 2.870821 1_555
Na1 O10 2.871897 1_555
Na1 O32 2.917129 1_555
Na2 O51 2.392681 1_555
Na2 O52 2.416888 1_555
Na2 O66 2.547956 1_655
Na2 O15 2.554340 1_555
Na2 O68 2.613478 1_655
Na2 O11 2.886889 1_655
Na2 O30 2.902315 1_655
Na2 O1 2.924611 1_555
Na3 O48 2.351894 1_555
Na3 O50 2.362121 1_555
Na3 O12 2.501286 1_555
Na3 O69 2.508344 1_655
Na3 O70 2.607113 1_655
Na3 O7 2.894872 1_655
Na3 O33 2.932427 1_655
Na3 O5 2.973406 1_555
Na4 O49 2.324567 1_555
Na4 O48 2.448695 1_555
Na4 O71 2.510895 1_545
Na4 O13 2.514258 1_555
Na4 O70 2.526030 1_545
Na5 O37 2.316809 1_555
Na5 O36 2.364074 1_655
Na5 O58 2.468327 1_555
Na5 O59 2.504651 1_555
Na5 O1 2.647864 1_555
Na5 O22 2.853071 1_555
Na5 O27 2.930987 1_555
Na5 O32 2.964309 1_555
Na6 O38 2.438527 1_555
Na6 O36 2.518647 1_545
Na6 O37 2.547992 1_445
Na6 O42 2.731471 1_455
Na6 O43 2.733132 1_555
Na6 O44 2.813861 1_445
Na7 O46 2.613067 1_455
Na7 O47 2.614566 1_555
Na7 O45 2.620020 1_445
Na7 O41 2.665132 1_444
Na7 O40 2.670133 1_544
Na7 O39 2.679089 1_554
Na8 O50 2.523036 1_555
Na8 O49 2.547020 1_555
Na8 O48 2.613967 1_555
Na8 O54 2.644153 1_555
Na8 O55 2.723778 1_555
Na8 O56 2.730339 1_555
Na9 O52 2.578858 1_555
Na9 O53 2.580127 1_555
Na9 O57 2.626520 1_555
Na9 O51 2.657065 1_555
Na9 O59 2.689871 1_555
Na9 O58 2.704202 1_555
Na10 O61 2.579845 1_555
Na10 O60 2.580774 1_555
Na10 O62 2.580849 1_555
Na10 O67 2.711493 1_555
Na10 O66 2.717979 1_555
Na10 O68 2.727725 1_555
Na11 O64 2.526297 1_555
Na11 O65 2.604776 1_555
Na11 O63 2.611246 1_555
Na11 O71 2.695882 1_555
Na11 O69 2.724661 1_555
Na11 O70 2.789622 1_555
O0 P0 1.516334 1_555
O0 Zn0 2.024592 1_555
O1 P1 1.528549 1_555
O1 Zn0 2.149862 1_665
O2 P2 1.517897 1_555
O2 Zn0 2.035479 1_655
O3 P3 1.561603 1_555
O3 Zr0 2.073055 1_545
O4 P4 1.551329 1_555
O4 Zr0 2.064334 1_655
O5 P5 1.554091 1_555
O5 Zr0 2.074994 1_645
O6 P5 1.540869 1_565
O6 Zr1 2.105336 1_555
O7 P3 1.550030 1_555
O7 Zr1 2.135603 1_445
O8 P4 1.548328 1_455
O8 Zr1 2.125413 1_455
O9 P1 1.565717 1_555
O9 Zr2 2.111612 1_665
O10 P2 1.566259 1_455
O10 Zr2 2.104944 1_555
O11 P0 1.565144 1_565
O11 Zr2 2.100858 1_565
O12 P6 1.524216 1_555
O12 Zn1 2.061234 1_555
O13 P7 1.525396 1_555
O13 Zn1 2.069613 1_555
O14 P8 1.509692 1_555
O14 Zn1 1.958917 1_555
O15 P9 1.526323 1_555
O15 Zn2 2.024164 1_555
O16 P10 1.525956 1_555
O16 Zn2 2.024395 1_555
O17 P11 1.526467 1_555
O17 Zn2 2.025368 1_555
O18 P11 1.551928 1_555
O18 Zr3 2.062042 1_554
O19 P9 1.551275 1_555
O19 Zr3 2.064138 1_554
O20 P10 1.552200 1_555
O20 Zr3 2.059069 1_554
O21 P7 1.557113 1_555
O21 Zr4 2.039946 1_555
O22 P8 1.562032 1_555
O22 Zr4 2.095309 1_555
O23 P6 1.555907 1_555
O23 Zr4 2.040200 1_555
O24 P12 1.531809 1_555
O24 Zr5 2.088872 1_556
O25 P13 1.535534 1_555
O25 Zr5 2.090732 1_556
O26 P14 1.534846 1_555
O26 Zr5 2.090944 1_556
O27 P15 1.548442 1_555
O27 Zr6 2.090719 1_555
O28 P16 1.545588 1_555
O28 Zr6 2.075090 1_555
O29 P17 1.539626 1_555
O29 Zr6 2.073658 1_555
O30 P17 1.574117 1_555
O30 Zr7 2.050122 1_555
O31 P15 1.578785 1_555
O31 Zr7 2.055366 1_555
O32 P16 1.586686 1_555
O32 Zr7 2.064994 1_555
O33 P13 1.560885 1_555
O33 Zr8 2.080446 1_555
O34 P14 1.560376 1_555
O34 Zr8 2.084884 1_555
O35 P12 1.557134 1_555
O35 Zr8 2.028526 1_555
O36 P17 1.521831 1_555
O36 Zn0 2.215278 1_565
O37 P15 1.522126 1_555
O37 Zn0 2.207230 1_665
O38 P16 1.508135 1_555
O38 Zn0 2.116252 1_555
O39 P13 1.546591 1_555
O39 Zr0 2.124431 1_545
O40 P14 1.547080 1_555
O40 Zr0 2.114707 1_555
O41 P12 1.544641 1_555
O41 Zr0 2.112792 1_655
O42 P6 1.558958 1_555
O42 Zr1 2.090716 1_545
O43 P7 1.558507 1_555
O43 Zr1 2.086991 1_445
O44 P8 1.563049 1_555
O44 Zr1 2.071228 1_555
O45 P9 1.559692 1_555
O45 Zr2 2.111109 1_665
O46 P10 1.559457 1_555
O46 Zr2 2.109699 1_655
O47 P11 1.560241 1_555
O47 Zr2 2.108817 1_555
O48 P5 1.534471 1_555
O48 Zn1 2.347727 1_555
O49 P3 1.523179 1_555
O49 Zn1 2.246508 1_555
O50 P4 1.521996 1_555
O50 Zn1 2.253196 1_555
O51 P1 1.544038 1_555
O51 Zn2 2.288259 1_555
O52 P2 1.543798 1_555
O52 Zn2 2.274778 1_555
O53 P0 1.543679 1_555
O53 Zn2 2.277494 1_555
O54 P12 1.540320 1_555
O54 Zr3 2.147015 1_555
O55 P13 1.542359 1_655
O55 Zr3 2.143001 1_555
O56 P14 1.542653 1_545
O56 Zr3 2.145520 1_555
O57 P15 1.546937 1_545
O57 Zr4 2.124726 1_555
O58 P16 1.566414 1_555
O58 Zr4 2.174859 1_555
O59 P17 1.564807 1_655
O59 Zr4 2.161359 1_555
O60 P11 1.558832 1_555
O60 Zr5 2.096446 1_555
O61 P9 1.558586 1_455
O61 Zr5 2.090331 1_555
O62 P10 1.557827 1_565
O62 Zr5 2.095277 1_555
O63 P7 1.555276 1_565
O63 Zr6 2.104851 1_555
O64 P8 1.558057 1_555
O64 Zr6 2.101068 1_555
O65 P6 1.555497 1_455
O65 Zr6 2.098510 1_555
O66 P0 1.590781 1_565
O66 Zr7 2.156730 1_555
O67 P1 1.590110 1_555
O67 Zr7 2.170596 1_555
O68 P2 1.590399 1_455
O68 Zr7 2.155735 1_555
O69 P3 1.567988 1_555
O69 Zr8 2.133291 1_555
O70 P4 1.587742 1_455
O70 Zr8 2.167252 1_555
O71 P5 1.565763 1_565
O71 Zr8 2.126884 1_555
