# generated using pymatgen
data_MgMn6(O5F)2
_symmetry_space_group_name_H-M   'P 1'
_cell_length_a   4.96120844
_cell_length_b   14.12276467
_cell_length_c   2.97632490
_cell_angle_alpha   91.20223427
_cell_angle_beta   90.67038412
_cell_angle_gamma   89.43717003
_symmetry_Int_Tables_number   1
_chemical_formula_structural   MgMn6(O5F)2
_chemical_formula_sum   'Mg1 Mn6 O10 F2'
_cell_volume   208.46937334
_cell_formula_units_Z   1
loop_
 _symmetry_equiv_pos_site_id
 _symmetry_equiv_pos_as_xyz
  1  'x, y, z'
loop_
 _atom_site_type_symbol
 _atom_site_label
 _atom_site_symmetry_multiplicity
 _atom_site_fract_x
 _atom_site_fract_y
 _atom_site_fract_z
 _atom_site_occupancy
  Mg  Mg0  1  0.43882000  0.99816200  0.56102800  1
  Mn  Mn0  1  0.94308500  0.00832000  0.05043600  1
  Mn  Mn1  1  0.05792500  0.35305600  0.98114400  1
  Mn  Mn2  1  0.04541100  0.64509500  0.00840500  1
  Mn  Mn3  1  0.48310300  0.18398200  0.48967100  1
  Mn  Mn4  1  0.55593000  0.49931600  0.49299400  1
  Mn  Mn5  1  0.46700900  0.81024900  0.53060600  1
  O  O0  1  0.18949700  0.27501700  0.47593200  1
  O  O1  1  0.22085600  0.58446700  0.50104400  1
  O  O2  1  0.09070500  0.93652600  0.54610100  1
  O  O3  1  0.30884600  0.09368300  0.07150900  1
  O  O4  1  0.31651400  0.74383000  0.02129400  1
  O  O5  1  0.38462200  0.43397900  0.98572600  1
  O  O6  1  0.71701500  0.56930300  0.00142500  1
  O  O7  1  0.58122700  0.90212800  0.04313500  1
  O  O8  1  0.76687400  0.07671200  0.54645600  1
  O  O9  1  0.86908800  0.41166400  0.48465900  1
  F  F0  1  0.68589100  0.25084900  0.95940000  1
  F  F1  1  0.84980200  0.72366100  0.51986700  1
loop_
_geom_bond_atom_site_label_1
_geom_bond_atom_site_label_2
_geom_bond_distance
_geom_bond_site_symmetry_2
Mg0 O2 1.941284 1_555
Mg0 O8 1.980042 1_565
Mg0 O3 2.098051 1_565
Mg0 O7 2.106345 1_556
Mg0 O3 2.112802 1_566
Mg0 O7 2.152560 1_555
Mn0 O2 1.940029 1_645
Mn0 O2 1.940332 1_644
Mn0 O8 1.957161 1_555
Mn0 O8 1.990161 1_554
Mn0 O3 2.187987 1_655
Mn0 O7 2.350148 1_545
Mn1 O9 1.936517 1_455
Mn1 O9 1.942742 1_456
Mn1 O0 1.959834 1_556
Mn1 O0 1.959873 1_555
Mn1 O5 1.992124 1_555
Mn2 O1 1.910195 1_555
Mn2 O1 1.932082 1_554
Mn2 O4 1.946348 1_555
Mn2 O6 1.957839 1_455
Mn3 O0 1.934019 1_555
Mn3 O3 1.962803 1_555
Mn3 O8 2.066142 1_555
Mn3 O3 2.349895 1_556
Mn4 O5 1.944265 1_554
Mn4 O5 1.955975 1_555
Mn4 O6 1.957048 1_556
Mn4 O6 1.964630 1_555
Mn4 O9 1.977022 1_555
Mn4 O1 2.042222 1_555
Mn5 O4 1.913855 1_555
Mn5 O4 1.914945 1_556
Mn5 O7 2.054883 1_555
Mn5 O7 2.059853 1_556
Mn5 O2 2.569265 1_555
F0 Mn3 1.946513 1_555
F0 Mn3 2.124439 1_556
F0 Mn1 2.353742 1_655
F1 Mn2 2.073816 1_656
F1 Mn2 2.105420 1_655
F1 Mn5 2.248824 1_555
