# generated using pymatgen
data_Na6Ca3ZrP4(SO12)2
_symmetry_space_group_name_H-M   'P 1'
_cell_length_a   9.33164928
_cell_length_b   9.33836072
_cell_length_c   23.31764311
_cell_angle_alpha   90.11567814
_cell_angle_beta   89.98858476
_cell_angle_gamma   119.92806678
_symmetry_Int_Tables_number   1
_chemical_formula_structural   Na6Ca3ZrP4(SO12)2
_chemical_formula_sum   'Na18 Ca9 Zr3 P12 S6 O72'
_cell_volume   1760.99289233
_cell_formula_units_Z   3
loop_
 _symmetry_equiv_pos_site_id
 _symmetry_equiv_pos_as_xyz
  1  'x, y, z'
loop_
 _atom_site_type_symbol
 _atom_site_label
 _atom_site_symmetry_multiplicity
 _atom_site_fract_x
 _atom_site_fract_y
 _atom_site_fract_z
 _atom_site_occupancy
  Na  Na0  1  0.36467148  0.36552786  0.25362830  1
  Na  Na1  1  0.64005309  0.64200355  0.74554870  1
  Na  Na2  1  0.99285715  0.34292799  0.74940666  1
  Na  Na3  1  0.29704462  0.34623938  0.58262478  1
  Na  Na4  1  0.02552299  0.68886240  0.57764529  1
  Na  Na5  1  0.67443802  0.95917265  0.58017523  1
  Na  Na6  1  0.28870059  0.96141134  0.07733827  1
  Na  Na7  1  0.65975008  0.68651923  0.07981720  1
  Na  Na8  1  0.04815799  0.34648273  0.08007174  1
  Na  Na9  1  0.31855346  0.29603367  0.91066413  1
  Na  Na10  1  0.98393699  0.30562783  0.41372891  1
  Na  Na11  1  0.68927071  0.67638310  0.41391977  1
  Na  Na12  1  0.00364881  0.99929588  0.49255574  1
  Na  Na13  1  0.99452501  0.98484251  0.98976322  1
  Na  Na14  1  0.65182781  0.30332457  0.82978222  1
  Na  Na15  1  0.66450103  0.31579785  0.33129079  1
  Na  Na16  1  0.32250568  0.66967808  0.17195500  1
  Na  Na17  1  0.33927284  0.66642203  0.66687255  1
  Ca  Ca0  1  0.00421416  0.99463774  0.34986462  1
  Ca  Ca1  1  0.99780318  0.99807670  0.85044604  1
  Ca  Ca2  1  0.99665436  0.00571618  0.65467806  1
  Ca  Ca3  1  0.99944745  0.99424011  0.15021075  1
  Ca  Ca4  1  0.65830395  0.32666477  0.68491857  1
  Ca  Ca5  1  0.67494770  0.33869509  0.18412991  1
  Ca  Ca6  1  0.33222626  0.66886546  0.01221681  1
  Ca  Ca7  1  0.33354499  0.66867620  0.51028750  1
  Ca  Ca8  1  0.33356442  0.67896193  0.32282418  1
  Zr  Zr0  1  0.67219979  0.34257540  0.97684285  1
  Zr  Zr1  1  0.66788147  0.33449396  0.48152647  1
  Zr  Zr2  1  0.33808373  0.67529129  0.82286968  1
  P  P0  1  0.30525128  0.31610414  0.75348270  1
  P  P1  1  0.69108208  0.99248671  0.75052425  1
  P  P2  1  0.96313143  0.33440435  0.58409324  1
  P  P3  1  0.66745193  0.63023466  0.58383472  1
  P  P4  1  0.96014864  0.62623445  0.08140765  1
  P  P5  1  0.37374122  0.33292112  0.08247951  1
  P  P6  1  0.63234533  0.66368561  0.91942239  1
  P  P7  1  0.03273562  0.37031598  0.91826866  1
  P  P8  1  0.33940976  0.97374267  0.92101880  1
  P  P9  1  0.64203857  0.97667153  0.42059151  1
  P  P10  1  0.33783903  0.36308368  0.41777247  1
  P  P11  1  0.02228512  0.66154527  0.42146844  1
  S  S0  1  0.30475421  0.00124118  0.24728255  1
  S  S1  1  0.68905622  0.69337860  0.24992944  1
  S  S2  1  0.00498773  0.30405956  0.25021566  1
  S  S3  1  0.00747409  0.69722637  0.74993629  1
  S  S4  1  0.36959623  0.03740896  0.58192035  1
  S  S5  1  0.66801486  0.04345437  0.08147627  1
  O  O0  1  0.21308583  0.01574203  0.29609228  1
  O  O1  1  0.78462273  0.77988267  0.30130946  1
  O  O2  1  0.99452743  0.20771119  0.30183202  1
  O  O3  1  0.22101867  0.21100896  0.80599390  1
  O  O4  1  0.98551677  0.78406917  0.79813765  1
  O  O5  1  0.81055467  0.01465725  0.79844317  1
  O  O6  1  0.74786302  0.95064924  0.69299460  1
  O  O7  1  0.20344396  0.24301675  0.69746053  1
  O  O8  1  0.03119612  0.78791451  0.69518887  1
  O  O9  1  0.77290248  0.78503130  0.19658590  1
  O  O10  1  0.01563894  0.21876570  0.19710101  1
  O  O11  1  0.21531904  0.98798284  0.19239749  1
  O  O12  1  0.88295892  0.34974044  0.63927806  1
  O  O13  1  0.46592150  0.11291906  0.63428629  1
  O  O14  1  0.64810198  0.53281562  0.63882417  1
  O  O15  1  0.88188742  0.52218123  0.13436193  1
  O  O16  1  0.64685605  0.11766544  0.13374219  1
  O  O17  1  0.47032826  0.34951985  0.13739930  1
  O  O18  1  0.47440549  0.32011408  0.02925572  1
  O  O19  1  0.84853450  0.52558521  0.02803278  1
  O  O20  1  0.68373835  0.14768310  0.03052280  1
  O  O21  1  0.45951779  0.14145676  0.53131663  1
  O  O22  1  0.67431541  0.52641750  0.53100317  1
  O  O23  1  0.84960087  0.32217453  0.53157466  1
  O  O24  1  0.55727856  0.68001128  0.97568861  1
  O  O25  1  0.12972275  0.44587729  0.97369095  1
  O  O26  1  0.32142407  0.88580392  0.97792445  1
  O  O27  1  0.57035732  0.87804950  0.47661015  1
  O  O28  1  0.31403695  0.44441004  0.47194274  1
  O  O29  1  0.11502322  0.68544801  0.47830881  1
  O  O30  1  0.10272521  0.62431045  0.37109954  1
  O  O31  1  0.53299569  0.89539974  0.36880568  1
  O  O32  1  0.37637789  0.47338413  0.36421010  1
  O  O33  1  0.12733968  0.48768990  0.86561697  1
  O  O34  1  0.35536098  0.87017808  0.87013195  1
  O  O35  1  0.51027713  0.64007272  0.86761902  1
  O  O36  1  0.98256183  0.80172220  0.41382862  1
  O  O37  1  0.81884177  0.00172023  0.41406770  1
  O  O38  1  0.18155549  0.19285594  0.41187274  1
  O  O39  1  0.01988728  0.20202118  0.91058608  1
  O  O40  1  0.19579167  0.00573902  0.91237151  1
  O  O41  1  0.80483083  0.80409620  0.91086267  1
  O  O42  1  0.97690140  0.17489030  0.58206316  1
  O  O43  1  0.20496699  0.02593286  0.58384953  1
  O  O44  1  0.83162013  0.79888448  0.58220878  1
  O  O45  1  0.96312165  0.79456506  0.08113496  1
  O  O46  1  0.82145350  0.03065135  0.08339631  1
  O  O47  1  0.20017920  0.17359892  0.08113825  1
  O  O48  1  0.67812194  0.15041371  0.74755835  1
  O  O49  1  0.48626522  0.35429754  0.74977610  1
  O  O50  1  0.85948795  0.52854533  0.74714225  1
  O  O51  1  0.66863346  0.52371897  0.24969765  1
  O  O52  1  0.85821536  0.32487737  0.24884221  1
  O  O53  1  0.46854900  0.15754182  0.24717369  1
  O  O54  1  0.62768166  0.49025729  0.92030630  1
  O  O55  1  0.85751725  0.35559342  0.92143923  1
  O  O56  1  0.50387882  0.14793410  0.92125316  1
  O  O57  1  0.66598170  0.15677387  0.42677352  1
  O  O58  1  0.49755975  0.34665945  0.42667079  1
  O  O59  1  0.84407983  0.49694186  0.42631200  1
  O  O60  1  0.35455473  0.48868294  0.07826006  1
  O  O61  1  0.13842392  0.65542300  0.07727313  1
  O  O62  1  0.52174786  0.87400715  0.07681218  1
  O  O63  1  0.34909181  0.86923907  0.57715534  1
  O  O64  1  0.51482800  0.65452827  0.57912420  1
  O  O65  1  0.13732118  0.49035891  0.57913174  1
  O  O66  1  0.32497706  0.85451012  0.25116669  1
  O  O67  1  0.51956796  0.67242961  0.25071983  1
  O  O68  1  0.16207963  0.46723992  0.25167813  1
  O  O69  1  0.31383403  0.49228923  0.76033601  1
  O  O70  1  0.15641692  0.67547355  0.75796499  1
  O  O71  1  0.51524545  0.83329860  0.76253880  1
loop_
_geom_bond_atom_site_label_1
_geom_bond_atom_site_label_2
_geom_bond_distance
_geom_bond_site_symmetry_2
Na0 O51 2.460812 1_555
Na0 O67 2.484915 1_555
Na0 O68 2.504046 1_555
Na0 O53 2.571381 1_555
Na0 O32 2.748622 1_555
Na0 O17 2.912718 1_555
Na1 O49 2.332662 1_555
Na1 O71 2.603365 1_555
Na1 O69 2.663690 1_555
Na1 O14 2.702656 1_555
Na1 O50 2.735326 1_555
Na1 O6 2.818079 1_555
Na2 O48 2.567288 1_555
Na2 O50 2.590215 1_555
Na2 O69 2.609998 1_655
Na2 O70 2.698375 1_655
Na2 O12 2.777928 1_555
Na2 O7 2.832549 1_655
Na2 O5 2.899743 1_555
Na2 O33 3.006472 1_655
Na3 O65 2.457954 1_555
Na3 O64 2.566674 1_555
Na3 O42 2.591433 1_455
Na3 O43 2.668678 1_555
Na3 O28 2.718580 1_555
Na3 O7 2.833994 1_555
Na4 O29 2.467643 1_555
Na4 O44 2.489071 1_455
Na4 O65 2.540816 1_555
Na4 O63 2.622881 1_555
Na4 O43 2.733446 1_565
Na4 O8 2.882977 1_555
Na5 O64 2.466585 1_555
Na5 O42 2.520449 1_565
Na5 O44 2.566163 1_555
Na5 O27 2.570660 1_555
Na5 O63 2.717227 1_555
Na5 O6 2.729885 1_555
Na6 O61 2.476505 1_555
Na6 O26 2.484666 1_554
Na6 O47 2.499800 1_565
Na6 O45 2.634966 1_455
Na6 O62 2.677098 1_555
Na6 O11 2.809735 1_555
Na7 O45 2.486575 1_555
Na7 O60 2.505014 1_555
Na7 O24 2.599183 1_554
Na7 O62 2.641787 1_555
Na7 O46 2.787762 1_565
Na7 O9 2.897667 1_555
Na8 O60 2.480277 1_555
Na8 O61 2.571553 1_555
Na8 O25 2.626325 1_554
Na8 O47 2.627735 1_555
Na8 O46 2.637256 1_455
Na8 O10 2.934761 1_555
Na9 O40 2.358907 1_555
Na9 O39 2.469189 1_555
Na9 O54 2.537615 1_555
Na9 O3 2.586044 1_555
Na9 O56 2.711563 1_555
Na10 O37 2.462748 1_555
Na10 O38 2.539533 1_655
Na10 O57 2.591159 1_555
Na10 O59 2.702861 1_555
Na10 O2 2.781019 1_555
Na10 O30 2.791609 1_655
Na11 O36 2.379938 1_555
Na11 O37 2.650781 1_565
Na11 O58 2.697523 1_555
Na11 O59 2.719551 1_555
Na11 O1 2.787819 1_555
Na11 O32 2.816364 1_555
Na12 O37 2.522787 1_465
Na12 O36 2.537106 1_455
Na12 O38 2.565339 1_565
Na12 O44 2.732472 1_455
Na12 O42 2.738884 1_465
Na12 O43 2.766930 1_565
Na13 O41 2.524798 1_555
Na13 O40 2.540954 1_665
Na13 O39 2.667155 1_665
Na13 O45 2.697774 1_556
Na13 O47 2.817924 1_666
Na13 O46 2.870953 1_566
Na14 O48 2.472546 1_555
Na14 O56 2.563834 1_555
Na14 O49 2.613878 1_555
Na14 O55 2.748225 1_555
Na14 O50 2.799981 1_555
Na14 O54 2.816198 1_555
Na15 O53 2.582261 1_555
Na15 O52 2.610985 1_555
Na15 O57 2.682596 1_555
Na15 O51 2.707651 1_555
Na15 O59 2.781486 1_555
Na15 O58 2.810742 1_555
Na16 O66 2.517668 1_555
Na16 O68 2.541610 1_555
Na16 O67 2.590254 1_555
Na16 O61 2.759503 1_555
Na16 O60 2.865055 1_555
Na16 O62 2.914613 1_555
Na17 O64 2.657417 1_555
Na17 O69 2.660655 1_555
Na17 O65 2.708631 1_555
Na17 O71 2.745009 1_555
Na17 O70 2.751754 1_555
Na17 O63 2.795487 1_555
Ca0 O0 2.242042 1_565
Ca0 O36 2.271199 1_455
Ca0 O38 2.277962 1_565
Ca0 O37 2.313140 1_465
Ca0 O1 2.322488 1_455
Ca0 O2 2.325989 1_465
Ca1 O5 2.195242 1_565
Ca1 O39 2.287757 1_665
Ca1 O3 2.289462 1_665
Ca1 O4 2.292670 1_555
Ca1 O41 2.294152 1_555
Ca1 O40 2.317830 1_665
Ca2 O6 2.294000 1_545
Ca2 O7 2.313975 1_655
Ca2 O42 2.387095 1_555
Ca2 O8 2.407288 1_645
Ca2 O44 2.444904 1_545
Ca2 O43 2.485118 1_655
Ca3 O11 2.268812 1_655
Ca3 O10 2.299814 1_665
Ca3 O9 2.311231 1_555
Ca3 O45 2.354459 1_555
Ca3 O47 2.405672 1_665
Ca3 O46 2.422477 1_565
Ca4 O13 2.239797 1_555
Ca4 O14 2.249802 1_555
Ca4 O12 2.263446 1_555
Ca4 O48 2.278179 1_555
Ca4 O49 2.311247 1_555
Ca4 O50 2.375339 1_555
Ca5 O15 2.171920 1_555
Ca5 O17 2.244409 1_555
Ca5 O16 2.271545 1_555
Ca5 O51 2.327489 1_555
Ca5 O52 2.332445 1_555
Ca5 O53 2.343108 1_555
Ca6 O25 2.186501 1_554
Ca6 O24 2.219979 1_554
Ca6 O26 2.227993 1_554
Ca6 O61 2.315325 1_555
Ca6 O60 2.367810 1_555
Ca6 O62 2.382245 1_555
Ca7 O28 2.197876 1_555
Ca7 O27 2.239892 1_555
Ca7 O29 2.249115 1_555
Ca7 O65 2.381142 1_555
Ca7 O63 2.382684 1_555
Ca7 O64 2.383386 1_555
Ca8 O31 2.221913 1_555
Ca8 O30 2.252147 1_555
Ca8 O32 2.355697 1_555
Ca8 O66 2.372315 1_555
Ca8 O67 2.438709 1_555
Ca8 O68 2.460239 1_555
O0 S0 1.469688 1_555
O1 S1 1.469995 1_555
O2 S2 1.477948 1_655
O3 P0 1.521510 1_555
O4 S3 1.457715 1_655
O5 P1 1.517743 1_545
O6 P1 1.561108 1_555
O7 P0 1.557149 1_555
O8 S3 1.487634 1_555
O9 S1 1.492509 1_555
O10 S2 1.501055 1_555
O11 S0 1.498797 1_565
O12 P2 1.530298 1_555
O13 S4 1.469921 1_555
O14 P3 1.531348 1_555
O15 P4 1.516106 1_555
O16 S5 1.462036 1_555
O17 P5 1.528590 1_555
O18 P5 1.596232 1_555
O18 Zr0 2.135005 1_554
O19 P4 1.592536 1_555
O19 Zr0 2.059032 1_554
O20 S5 1.497533 1_555
O20 Zr0 2.257303 1_554
O21 S4 1.493717 1_555
O21 Zr1 2.210925 1_555
O22 P3 1.587040 1_555
O22 Zr1 2.105007 1_555
O23 P2 1.585661 1_555
O23 Zr1 2.108712 1_555
O24 P6 1.529921 1_555
O25 P7 1.531878 1_555
O26 P8 1.526436 1_555
O27 P9 1.546494 1_555
O28 P10 1.544642 1_555
O29 P11 1.536846 1_555
O30 P11 1.523881 1_555
O31 P9 1.515164 1_555
O32 P10 1.544523 1_555
O33 P7 1.589812 1_555
O33 Zr2 2.121002 1_555
O34 P8 1.582515 1_555
O34 Zr2 2.061992 1_555
O35 P6 1.598158 1_555
O35 Zr2 2.075640 1_555
O36 P11 1.538775 1_655
O37 P9 1.553985 1_545
O38 P10 1.535810 1_555
O39 P7 1.525529 1_555
O40 P8 1.525114 1_545
O41 P6 1.498287 1_555
O42 P2 1.558321 1_555
O43 S4 1.486379 1_555
O44 P3 1.556102 1_555
O45 P4 1.558302 1_555
O46 S5 1.495766 1_555
O47 P5 1.559843 1_555
O48 P1 1.540380 1_545
O49 P0 1.544944 1_555
O50 S3 1.490509 1_655
O51 S1 1.498390 1_555
O52 S2 1.476626 1_655
O53 S0 1.496853 1_555
O54 P6 1.598444 1_555
O54 Zr0 2.095629 1_555
O55 P7 1.572745 1_655
O55 Zr0 2.112877 1_555
O56 P8 1.584431 1_545
O56 Zr0 2.143278 1_555
O57 P9 1.588531 1_545
O57 Zr1 2.084878 1_555
O58 P10 1.586314 1_555
O58 Zr1 2.087276 1_555
O59 P11 1.609639 1_655
O59 Zr1 2.044631 1_555
O60 P5 1.554968 1_555
O61 P4 1.548786 1_455
O62 S5 1.490958 1_565
O63 S4 1.488180 1_565
O64 P3 1.553878 1_555
O65 P2 1.554034 1_455
O66 S0 1.476436 1_565
O67 S1 1.493771 1_555
O68 S2 1.497671 1_555
O69 P0 1.614421 1_555
O69 Zr2 2.168419 1_555
O70 S3 1.513295 1_555
O70 Zr2 2.273377 1_555
O71 P1 1.596341 1_555
O71 Zr2 2.112512 1_555
