# generated using pymatgen
data_SnP2PbO8
_symmetry_space_group_name_H-M   'P 1'
_cell_length_a   15.07305100
_cell_length_b   4.93070700
_cell_length_c   10.01866177
_cell_angle_alpha   63.21520679
_cell_angle_beta   90.00000000
_cell_angle_gamma   90.00000000
_symmetry_Int_Tables_number   1
_chemical_formula_structural   SnP2PbO8
_chemical_formula_sum   'Sn4 P8 Pb4 O32'
_cell_volume   664.70396225
_cell_formula_units_Z   4
loop_
 _symmetry_equiv_pos_site_id
 _symmetry_equiv_pos_as_xyz
  1  'x, y, z'
loop_
 _atom_site_type_symbol
 _atom_site_label
 _atom_site_symmetry_multiplicity
 _atom_site_fract_x
 _atom_site_fract_y
 _atom_site_fract_z
 _atom_site_occupancy
  Sn  Sn0  1  0.14154000  0.18612500  0.55019800  1
  Sn  Sn1  1  0.64154000  0.81387500  0.94980200  1
  Sn  Sn2  1  0.85846000  0.81387500  0.44980200  1
  Sn  Sn3  1  0.35846000  0.18612500  0.05019800  1
  P  P0  1  0.02349000  0.55272400  0.70348200  1
  P  P1  1  0.52349000  0.44727600  0.79651800  1
  P  P2  1  0.97651000  0.44727600  0.29651800  1
  P  P3  1  0.47651000  0.55272400  0.20348200  1
  P  P4  1  0.73742700  0.17194300  0.60947700  1
  P  P5  1  0.23742700  0.82805700  0.89052300  1
  P  P6  1  0.26257300  0.82805700  0.39052300  1
  P  P7  1  0.76257300  0.17194300  0.10947700  1
  Pb  Pb0  1  0.39939800  0.12501600  0.58917000  1
  Pb  Pb1  1  0.89939800  0.87498400  0.91083000  1
  Pb  Pb2  1  0.60060200  0.87498400  0.41083000  1
  Pb  Pb3  1  0.10060200  0.12501600  0.08917000  1
  O  O0  1  0.10730100  0.43211800  0.66075300  1
  O  O1  1  0.60730100  0.56788200  0.83924700  1
  O  O2  1  0.89269900  0.56788200  0.33924700  1
  O  O3  1  0.39269900  0.43211800  0.16075300  1
  O  O4  1  0.03916900  0.89434000  0.66230200  1
  O  O5  1  0.53916900  0.10566000  0.83769800  1
  O  O6  1  0.96083100  0.10566000  0.33769800  1
  O  O7  1  0.46083100  0.89434000  0.16230200  1
  O  O8  1  0.93793100  0.52255600  0.62417300  1
  O  O9  1  0.43793100  0.47744400  0.87582700  1
  O  O10  1  0.06206900  0.47744400  0.37582700  1
  O  O11  1  0.56206900  0.52255600  0.12417300  1
  O  O12  1  0.50460200  0.62852700  0.62721200  1
  O  O13  1  0.00460200  0.37147300  0.87278800  1
  O  O14  1  0.49539800  0.37147300  0.37278800  1
  O  O15  1  0.99539800  0.62852700  0.12721200  1
  O  O16  1  0.84834300  0.10948200  0.04931500  1
  O  O17  1  0.34834300  0.89051800  0.45068500  1
  O  O18  1  0.15165700  0.89051800  0.95068500  1
  O  O19  1  0.65165700  0.10948200  0.54931500  1
  O  O20  1  0.75045300  0.52669300  0.03546200  1
  O  O21  1  0.25045300  0.47330700  0.46453800  1
  O  O22  1  0.24954700  0.47330700  0.96453800  1
  O  O23  1  0.74954700  0.52669300  0.53546200  1
  O  O24  1  0.67878700  0.01746000  0.08325300  1
  O  O25  1  0.17878700  0.98254000  0.41674700  1
  O  O26  1  0.32121300  0.98254000  0.91674700  1
  O  O27  1  0.82121300  0.01746000  0.58325300  1
  O  O28  1  0.26592500  0.93506000  0.21709400  1
  O  O29  1  0.76592500  0.06494000  0.28290600  1
  O  O30  1  0.73407500  0.06494000  0.78290600  1
  O  O31  1  0.23407500  0.93506000  0.71709400  1
loop_
_geom_bond_atom_site_label_1
_geom_bond_atom_site_label_2
_geom_bond_distance
_geom_bond_site_symmetry_2
O0 P0 1.536955 1_555
O0 Sn0 2.043318 1_555
O1 P1 1.536955 1_555
O1 Sn1 2.043318 1_555
O2 P2 1.536955 1_555
O2 Sn2 2.043318 1_555
O3 P3 1.536955 1_555
O3 Sn3 2.043318 1_555
O4 P0 1.561078 1_555
O4 Sn0 2.062994 1_565
O5 P1 1.561078 1_555
O5 Sn1 2.062994 1_545
O6 P2 1.561078 1_555
O6 Sn2 2.062994 1_545
O7 P3 1.561078 1_555
O7 Sn3 2.062994 1_565
O8 P0 1.556647 1_655
O8 Sn2 2.070848 1_555
O9 P1 1.556647 1_555
O9 Sn3 2.070848 1_556
O10 P2 1.556647 1_455
O10 Sn0 2.070848 1_555
O11 P3 1.556647 1_555
O11 Sn1 2.070848 1_554
O12 P1 1.546173 1_555
O12 Pb2 2.428137 1_555
O12 Pb0 2.794967 1_565
O13 P0 1.546173 1_555
O13 Pb3 2.428137 1_556
O13 Pb1 2.794967 1_445
O14 P3 1.546173 1_555
O14 Pb0 2.428137 1_555
O14 Pb2 2.794967 1_545
O15 P2 1.546173 1_555
O15 Pb1 2.428137 1_554
O15 Pb3 2.794967 1_665
O16 P7 1.515528 1_555
O16 Pb1 2.302156 1_544
O17 P6 1.515528 1_555
O17 Pb0 2.302156 1_565
O18 P5 1.515528 1_555
O18 Pb3 2.302156 1_566
O19 P4 1.515528 1_555
O19 Pb2 2.302156 1_545
O20 P7 1.572836 1_555
O20 Sn1 2.083592 1_554
O20 Pb1 2.759700 1_554
O21 P6 1.572836 1_555
O21 Sn0 2.083592 1_555
O21 Pb0 2.759700 1_555
O22 P5 1.572836 1_555
O22 Sn3 2.083592 1_556
O22 Pb3 2.759700 1_556
O23 P4 1.572836 1_555
O23 Sn2 2.083592 1_555
O23 Pb2 2.759700 1_555
O24 P7 1.557094 1_555
O24 Sn1 2.078469 1_544
O25 P6 1.557094 1_555
O25 Sn0 2.078469 1_565
O26 P5 1.557094 1_555
O26 Sn3 2.078469 1_566
O27 P4 1.557094 1_555
O27 Sn2 2.078469 1_545
O28 P6 1.572797 1_555
O28 Sn3 2.099561 1_565
O28 Pb3 2.765430 1_565
O29 P7 1.572797 1_555
O29 Sn2 2.099561 1_545
O29 Pb2 2.765430 1_545
O30 P4 1.572797 1_555
O30 Sn1 2.099561 1_545
O30 Pb1 2.765430 1_545
O31 P5 1.572797 1_555
O31 Sn0 2.099561 1_565
O31 Pb0 2.765430 1_565
