# generated using pymatgen
data_ZrRh
_symmetry_space_group_name_H-M   'P 1'
_cell_length_a   6.19984462
_cell_length_b   9.26829866
_cell_length_c   9.85271616
_cell_angle_alpha   90.00000000
_cell_angle_beta   90.00000000
_cell_angle_gamma   90.00000000
_symmetry_Int_Tables_number   1
_chemical_formula_structural   ZrRh
_chemical_formula_sum   'Zr16 Rh16'
_cell_volume   566.15689012
_cell_formula_units_Z   16
loop_
 _symmetry_equiv_pos_site_id
 _symmetry_equiv_pos_as_xyz
  1  'x, y, z'
loop_
 _atom_site_type_symbol
 _atom_site_label
 _atom_site_symmetry_multiplicity
 _atom_site_fract_x
 _atom_site_fract_y
 _atom_site_fract_z
 _atom_site_occupancy
  Zr  Zr0_0  1  0.25000000  0.37500000  0.11769777  1
  Zr  Zr0_1  1  0.25000000  0.37500000  0.61769777  1
  Zr  Zr0_2  1  0.25000000  0.87500000  0.11769777  1
  Zr  Zr0_3  1  0.25000000  0.87500000  0.61769777  1
  Zr  Zr0_4  1  0.75000000  0.37500000  0.11769777  1
  Zr  Zr0_5  1  0.75000000  0.37500000  0.61769777  1
  Zr  Zr0_6  1  0.75000000  0.87500000  0.11769777  1
  Zr  Zr0_7  1  0.75000000  0.87500000  0.61769777  1
  Zr  Zr1_0  1  0.25000000  0.12500000  0.38230223  1
  Zr  Zr1_1  1  0.25000000  0.12500000  0.88230223  1
  Zr  Zr1_2  1  0.25000000  0.62500000  0.38230223  1
  Zr  Zr1_3  1  0.25000000  0.62500000  0.88230223  1
  Zr  Zr1_4  1  0.75000000  0.12500000  0.38230223  1
  Zr  Zr1_5  1  0.75000000  0.12500000  0.88230223  1
  Zr  Zr1_6  1  0.75000000  0.62500000  0.38230223  1
  Zr  Zr1_7  1  0.75000000  0.62500000  0.88230223  1
  Rh  Rh0_0  1  0.00000000  0.12500000  0.14424131  1
  Rh  Rh0_1  1  0.00000000  0.12500000  0.64424131  1
  Rh  Rh0_2  1  0.00000000  0.62500000  0.14424131  1
  Rh  Rh0_3  1  0.00000000  0.62500000  0.64424131  1
  Rh  Rh0_4  1  0.50000000  0.12500000  0.14424131  1
  Rh  Rh0_5  1  0.50000000  0.12500000  0.64424131  1
  Rh  Rh0_6  1  0.50000000  0.62500000  0.14424131  1
  Rh  Rh0_7  1  0.50000000  0.62500000  0.64424131  1
  Rh  Rh1_0  1  0.00000000  0.37500000  0.35575869  1
  Rh  Rh1_1  1  0.00000000  0.37500000  0.85575869  1
  Rh  Rh1_2  1  0.00000000  0.87500000  0.35575869  1
  Rh  Rh1_3  1  0.00000000  0.87500000  0.85575869  1
  Rh  Rh1_4  1  0.50000000  0.37500000  0.35575869  1
  Rh  Rh1_5  1  0.50000000  0.37500000  0.85575869  1
  Rh  Rh1_6  1  0.50000000  0.87500000  0.35575869  1
  Rh  Rh1_7  1  0.50000000  0.87500000  0.85575869  1
loop_
_geom_bond_atom_site_label_1
_geom_bond_atom_site_label_2
_geom_bond_distance
_geom_bond_site_symmetry_2
Zr0_0 Zr0_4 3.099922 1_555
Zr0_0 Zr0_4 3.099922 1_455
Zr0_0 Zr1_1 3.278402 1_554
Zr0_0 Zr1_3 3.278402 1_554
Zr0_1 Zr0_5 3.099922 1_455
Zr0_1 Zr0_5 3.099922 1_555
Zr0_1 Zr1_2 3.278402 1_555
Zr0_1 Zr1_0 3.278402 1_555
Zr0_2 Zr0_6 3.099922 1_455
Zr0_2 Zr0_6 3.099922 1_555
Zr0_2 Zr1_1 3.278402 1_564
Zr0_2 Zr1_3 3.278402 1_554
Zr0_3 Zr0_7 3.099922 1_555
Zr0_3 Zr0_7 3.099922 1_455
Zr0_3 Zr1_2 3.278402 1_555
Zr0_3 Zr1_0 3.278402 1_565
Zr0_4 Zr1_5 3.278402 1_554
Zr0_4 Zr1_7 3.278402 1_554
Zr0_5 Zr1_6 3.278402 1_555
Zr0_5 Zr1_4 3.278402 1_555
Zr0_6 Zr1_5 3.278402 1_564
Zr0_6 Zr1_7 3.278402 1_554
Zr0_7 Zr1_4 3.278402 1_565
Zr0_7 Zr1_6 3.278402 1_555
Zr1_0 Zr1_4 3.099922 1_455
Zr1_0 Zr1_4 3.099922 1_555
Zr1_1 Zr1_5 3.099922 1_455
Zr1_1 Zr1_5 3.099922 1_555
Zr1_2 Zr1_6 3.099922 1_455
Zr1_2 Zr1_6 3.099922 1_555
Zr1_3 Zr1_7 3.099922 1_455
Zr1_3 Zr1_7 3.099922 1_555
Rh0_0 Zr0_0 2.799930 1_555
Rh0_0 Zr0_2 2.799930 1_545
Rh0_0 Zr0_4 2.799930 1_455
Rh0_0 Zr0_6 2.799930 1_445
Rh0_0 Zr1_4 2.811400 1_455
Rh0_0 Zr1_0 2.811400 1_555
Rh0_0 Zr1_1 3.010476 1_554
Rh0_0 Zr1_5 3.010476 1_454
Rh0_0 Rh0_4 3.099922 1_555
Rh0_0 Rh0_4 3.099922 1_455
Rh0_0 Rh1_0 3.116405 1_555
Rh0_0 Rh1_2 3.116405 1_545
Rh0_1 Zr0_1 2.799930 1_555
Rh0_1 Zr0_3 2.799930 1_545
Rh0_1 Zr0_5 2.799930 1_455
Rh0_1 Zr0_7 2.799930 1_445
Rh0_1 Zr1_1 2.811400 1_555
Rh0_1 Zr1_5 2.811400 1_455
Rh0_1 Zr1_4 3.010476 1_455
Rh0_1 Zr1_0 3.010476 1_555
Rh0_1 Rh0_5 3.099922 1_555
Rh0_1 Rh0_5 3.099922 1_455
Rh0_1 Rh1_3 3.116405 1_545
Rh0_1 Rh1_1 3.116405 1_555
Rh0_2 Zr0_0 2.799930 1_555
Rh0_2 Zr0_2 2.799930 1_555
Rh0_2 Zr0_4 2.799930 1_455
Rh0_2 Zr0_6 2.799930 1_455
Rh0_2 Zr1_2 2.811400 1_555
Rh0_2 Zr1_6 2.811400 1_455
Rh0_2 Zr1_3 3.010476 1_554
Rh0_2 Zr1_7 3.010476 1_454
Rh0_2 Rh0_6 3.099922 1_555
Rh0_2 Rh0_6 3.099922 1_455
Rh0_2 Rh1_0 3.116405 1_555
Rh0_2 Rh1_2 3.116405 1_555
Rh0_3 Zr0_5 2.799930 1_455
Rh0_3 Zr0_1 2.799930 1_555
Rh0_3 Zr0_3 2.799930 1_555
Rh0_3 Zr0_7 2.799930 1_455
Rh0_3 Zr1_3 2.811400 1_555
Rh0_3 Zr1_7 2.811400 1_455
Rh0_3 Zr1_2 3.010476 1_555
Rh0_3 Zr1_6 3.010476 1_455
Rh0_3 Rh0_7 3.099922 1_555
Rh0_3 Rh0_7 3.099922 1_455
Rh0_3 Rh1_3 3.116405 1_555
Rh0_3 Rh1_1 3.116405 1_555
Rh0_4 Zr0_0 2.799930 1_555
Rh0_4 Zr0_2 2.799930 1_545
Rh0_4 Zr0_6 2.799930 1_545
Rh0_4 Zr0_4 2.799930 1_555
Rh0_4 Zr1_0 2.811400 1_555
Rh0_4 Zr1_4 2.811400 1_555
Rh0_4 Zr1_1 3.010476 1_554
Rh0_4 Zr1_5 3.010476 1_554
Rh0_4 Rh1_4 3.116405 1_555
Rh0_4 Rh1_6 3.116405 1_545
Rh0_5 Zr0_7 2.799930 1_545
Rh0_5 Zr0_5 2.799930 1_555
Rh0_5 Zr0_1 2.799930 1_555
Rh0_5 Zr0_3 2.799930 1_545
Rh0_5 Zr1_1 2.811400 1_555
Rh0_5 Zr1_5 2.811400 1_555
Rh0_5 Zr1_0 3.010476 1_555
Rh0_5 Zr1_4 3.010476 1_555
Rh0_5 Rh1_5 3.116405 1_555
Rh0_5 Rh1_7 3.116405 1_545
Rh0_6 Zr0_0 2.799930 1_555
Rh0_6 Zr0_2 2.799930 1_555
Rh0_6 Zr0_4 2.799930 1_555
Rh0_6 Zr0_6 2.799930 1_555
Rh0_6 Zr1_2 2.811400 1_555
Rh0_6 Zr1_6 2.811400 1_555
Rh0_6 Zr1_3 3.010476 1_554
Rh0_6 Zr1_7 3.010476 1_554
Rh0_6 Rh1_4 3.116405 1_555
Rh0_6 Rh1_6 3.116405 1_555
Rh0_7 Zr0_5 2.799930 1_555
Rh0_7 Zr0_1 2.799930 1_555
Rh0_7 Zr0_3 2.799930 1_555
Rh0_7 Zr0_7 2.799930 1_555
Rh0_7 Zr1_3 2.811400 1_555
Rh0_7 Zr1_7 2.811400 1_555
Rh0_7 Zr1_2 3.010476 1_555
Rh0_7 Zr1_6 3.010476 1_555
Rh0_7 Rh1_7 3.116405 1_555
Rh0_7 Rh1_5 3.116405 1_555
Rh1_0 Zr1_0 2.799930 1_555
Rh1_0 Zr1_4 2.799930 1_455
Rh1_0 Zr1_2 2.799930 1_555
Rh1_0 Zr1_6 2.799930 1_455
Rh1_0 Zr0_0 2.811400 1_555
Rh1_0 Zr0_4 2.811400 1_455
Rh1_0 Zr0_1 3.010476 1_555
Rh1_0 Zr0_5 3.010476 1_455
Rh1_0 Rh1_4 3.099922 1_555
Rh1_0 Rh1_4 3.099922 1_455
Rh1_1 Zr1_7 2.799930 1_455
Rh1_1 Zr1_1 2.799930 1_555
Rh1_1 Zr1_5 2.799930 1_455
Rh1_1 Zr1_3 2.799930 1_555
Rh1_1 Zr0_5 2.811400 1_455
Rh1_1 Zr0_1 2.811400 1_555
Rh1_1 Zr0_0 3.010476 1_556
Rh1_1 Zr0_4 3.010476 1_456
Rh1_1 Rh1_5 3.099922 1_555
Rh1_1 Rh1_5 3.099922 1_455
Rh1_2 Zr1_0 2.799930 1_565
Rh1_2 Zr1_6 2.799930 1_455
Rh1_2 Zr1_2 2.799930 1_555
Rh1_2 Zr1_4 2.799930 1_465
Rh1_2 Zr0_2 2.811400 1_555
Rh1_2 Zr0_6 2.811400 1_455
Rh1_2 Zr0_3 3.010476 1_555
Rh1_2 Zr0_7 3.010476 1_455
Rh1_2 Rh1_6 3.099922 1_555
Rh1_2 Rh1_6 3.099922 1_455
Rh1_3 Zr1_5 2.799930 1_465
Rh1_3 Zr1_7 2.799930 1_455
Rh1_3 Zr1_1 2.799930 1_565
Rh1_3 Zr1_3 2.799930 1_555
Rh1_3 Zr0_3 2.811400 1_555
Rh1_3 Zr0_7 2.811400 1_455
Rh1_3 Zr0_6 3.010476 1_456
Rh1_3 Zr0_2 3.010476 1_556
Rh1_3 Rh1_7 3.099922 1_555
Rh1_3 Rh1_7 3.099922 1_455
Rh1_4 Zr1_0 2.799930 1_555
Rh1_4 Zr1_4 2.799930 1_555
Rh1_4 Zr1_2 2.799930 1_555
Rh1_4 Zr1_6 2.799930 1_555
Rh1_4 Zr0_0 2.811400 1_555
Rh1_4 Zr0_4 2.811400 1_555
Rh1_4 Zr0_1 3.010476 1_555
Rh1_4 Zr0_5 3.010476 1_555
Rh1_5 Zr1_7 2.799930 1_555
Rh1_5 Zr1_1 2.799930 1_555
Rh1_5 Zr1_5 2.799930 1_555
Rh1_5 Zr1_3 2.799930 1_555
Rh1_5 Zr0_1 2.811400 1_555
Rh1_5 Zr0_5 2.811400 1_555
Rh1_5 Zr0_0 3.010476 1_556
Rh1_5 Zr0_4 3.010476 1_556
Rh1_6 Zr1_0 2.799930 1_565
Rh1_6 Zr1_2 2.799930 1_555
Rh1_6 Zr1_4 2.799930 1_565
Rh1_6 Zr1_6 2.799930 1_555
Rh1_6 Zr0_2 2.811400 1_555
Rh1_6 Zr0_6 2.811400 1_555
Rh1_6 Zr0_3 3.010476 1_555
Rh1_6 Zr0_7 3.010476 1_555
Rh1_7 Zr1_7 2.799930 1_555
Rh1_7 Zr1_1 2.799930 1_565
Rh1_7 Zr1_5 2.799930 1_565
Rh1_7 Zr1_3 2.799930 1_555
Rh1_7 Zr0_3 2.811400 1_555
Rh1_7 Zr0_7 2.811400 1_555
Rh1_7 Zr0_2 3.010476 1_556
Rh1_7 Zr0_6 3.010476 1_556
