# generated using pymatgen
data_Na9Ta7Zn5(PO4)18
_symmetry_space_group_name_H-M   'P 1'
_cell_length_a   8.82737217
_cell_length_b   8.80061095
_cell_length_c   22.52098229
_cell_angle_alpha   90.00219616
_cell_angle_beta   90.12009450
_cell_angle_gamma   119.95938237
_symmetry_Int_Tables_number   1
_chemical_formula_structural   Na9Ta7Zn5(PO4)18
_chemical_formula_sum   'Na9 Ta7 Zn5 P18 O72'
_cell_volume   1515.78823801
_cell_formula_units_Z   1
loop_
 _symmetry_equiv_pos_site_id
 _symmetry_equiv_pos_as_xyz
  1  'x, y, z'
loop_
 _atom_site_type_symbol
 _atom_site_label
 _atom_site_symmetry_multiplicity
 _atom_site_fract_x
 _atom_site_fract_y
 _atom_site_fract_z
 _atom_site_occupancy
  Na  Na0  1  0.98683523  0.63090959  0.24468745  1
  Na  Na1  1  0.65468192  0.68974007  0.07815820  1
  Na  Na2  1  0.32164719  0.29837797  0.91192211  1
  Na  Na3  1  0.00012849  0.99983642  0.49425023  1
  Na  Na4  1  0.99740521  0.99665840  0.98979297  1
  Na  Na5  1  0.67626836  0.33464754  0.82247633  1
  Na  Na6  1  0.65488794  0.32229189  0.32439693  1
  Na  Na7  1  0.33074146  0.66721906  0.15566498  1
  Na  Na8  1  0.33352855  0.66673954  0.67043901  1
  Ta  Ta0  1  0.99963986  0.99978608  0.65005374  1
  Ta  Ta1  1  0.00482609  0.00662342  0.14568785  1
  Ta  Ta2  1  0.67091073  0.33118272  0.97896894  1
  Ta  Ta3  1  0.66713703  0.33383012  0.47932250  1
  Ta  Ta4  1  0.33315409  0.66670471  0.52113417  1
  Ta  Ta5  1  0.33822929  0.66724676  0.31025444  1
  Ta  Ta6  1  0.33297187  0.66906325  0.81282091  1
  Zn  Zn0  1  0.00068973  0.00124232  0.35305925  1
  Zn  Zn1  1  0.99296016  0.99351660  0.84993961  1
  Zn  Zn2  1  0.66625784  0.33324510  0.68595948  1
  Zn  Zn3  1  0.65996228  0.32600529  0.18341324  1
  Zn  Zn4  1  0.32694889  0.66757689  0.01648813  1
  P  P0  1  0.29357666  0.00783716  0.25297973  1
  P  P1  1  0.71284000  0.71077603  0.25128121  1
  P  P2  1  0.99520937  0.28592627  0.25318099  1
  P  P3  1  0.29508044  0.29167737  0.75341769  1
  P  P4  1  0.99656642  0.70547830  0.75241911  1
  P  P5  1  0.70971430  0.00366729  0.75254375  1
  P  P6  1  0.95446692  0.33128574  0.58457727  1
  P  P7  1  0.37660576  0.04647026  0.58451689  1
  P  P8  1  0.66891483  0.62351680  0.58463625  1
  P  P9  1  0.96202026  0.62273560  0.08674337  1
  P  P10  1  0.66380889  0.04166887  0.08578198  1
  P  P11  1  0.37769902  0.33475292  0.08399099  1
  P  P12  1  0.62824585  0.67248728  0.91977705  1
  P  P13  1  0.04431548  0.37626016  0.91794364  1
  P  P14  1  0.33031228  0.95493211  0.91881314  1
  P  P15  1  0.62423262  0.95602854  0.41702849  1
  P  P16  1  0.33218960  0.37545820  0.41695167  1
  P  P17  1  0.04386958  0.66747927  0.41611073  1
  O  O0  1  0.20792769  0.02480613  0.30823356  1
  O  O1  1  0.82525228  0.79361194  0.30529376  1
  O  O2  1  0.97260912  0.18102321  0.30815823  1
  O  O3  1  0.21319674  0.19054639  0.80954844  1
  O  O4  1  0.97747140  0.79187960  0.80662089  1
  O  O5  1  0.81688356  0.02630618  0.80651175  1
  O  O6  1  0.80141524  0.97172647  0.69469423  1
  O  O7  1  0.16873668  0.19582138  0.69669744  1
  O  O8  1  0.02722752  0.82843711  0.69454039  1
  O  O9  1  0.79688641  0.82722744  0.19365264  1
  O  O10  1  0.02805053  0.19959032  0.19628224  1
  O  O11  1  0.16835881  0.96823725  0.19661690  1
  O  O12  1  0.88437231  0.37178200  0.63860189  1
  O  O13  1  0.48713585  0.11636830  0.63872002  1
  O  O14  1  0.62879766  0.51272699  0.63867593  1
  O  O15  1  0.88073797  0.52509869  0.14383929  1
  O  O16  1  0.64216052  0.12377194  0.14067620  1
  O  O17  1  0.49149265  0.36675675  0.13756109  1
  O  O18  1  0.46271252  0.30261953  0.02643791  1
  O  O19  1  0.83363127  0.53064491  0.03164728  1
  O  O20  1  0.69436858  0.16074857  0.02895321  1
  O  O21  1  0.46803787  0.16241703  0.52768120  1
  O  O22  1  0.69403036  0.53254808  0.52770616  1
  O  O23  1  0.83817245  0.30566516  0.52763400  1
  O  O24  1  0.54699958  0.68884130  0.97681020  1
  O  O25  1  0.15647447  0.45604847  0.97189667  1
  O  O26  1  0.30787858  0.85103071  0.97358388  1
  O  O27  1  0.52309323  0.84215194  0.47172242  1
  O  O28  1  0.31972649  0.47655888  0.47181118  1
  O  O29  1  0.15925043  0.68030580  0.47060154  1
  O  O30  1  0.13007500  0.63721797  0.35991734  1
  O  O31  1  0.50426840  0.86612979  0.36161223  1
  O  O32  1  0.36219212  0.49592427  0.36172734  1
  O  O33  1  0.13313551  0.49713033  0.86139424  1
  O  O34  1  0.36103690  0.86703050  0.86190385  1
  O  O35  1  0.49968161  0.63529281  0.86471559  1
  O  O36  1  0.02505449  0.82697785  0.41447096  1
  O  O37  1  0.80097762  0.97330384  0.41453118  1
  O  O38  1  0.17306017  0.19802498  0.41452974  1
  O  O39  1  0.01802857  0.19391307  0.90922898  1
  O  O40  1  0.18334269  0.99526252  0.91072395  1
  O  O41  1  0.80957309  0.82296066  0.91113729  1
  O  O42  1  0.97537989  0.16631236  0.58858416  1
  O  O43  1  0.19156355  0.02615641  0.58855265  1
  O  O44  1  0.83380511  0.80895887  0.58857001  1
  O  O45  1  0.96507601  0.80741055  0.09037202  1
  O  O46  1  0.83997387  0.02991247  0.09034169  1
  O  O47  1  0.19353852  0.16108288  0.09098635  1
  O  O48  1  0.68013091  0.15560429  0.74215242  1
  O  O49  1  0.47438780  0.31795625  0.74295717  1
  O  O50  1  0.84454175  0.52438387  0.74244504  1
  O  O51  1  0.68454737  0.52742441  0.24346863  1
  O  O52  1  0.84974310  0.32745650  0.24483759  1
  O  O53  1  0.47568049  0.15603794  0.24430652  1
  O  O54  1  0.63224769  0.49124052  0.92386063  1
  O  O55  1  0.86066635  0.36671066  0.92430099  1
  O  O56  1  0.50682789  0.14326564  0.92366804  1
  O  O57  1  0.63202128  0.13745926  0.42434161  1
  O  O58  1  0.50527695  0.36749248  0.42428363  1
  O  O59  1  0.86250567  0.49462695  0.42454495  1
  O  O60  1  0.35081659  0.49069091  0.07614607  1
  O  O61  1  0.14272036  0.65297040  0.07789587  1
  O  O62  1  0.51666321  0.85478809  0.07768702  1
  O  O63  1  0.34793813  0.85729127  0.57162716  1
  O  O64  1  0.50880789  0.65193998  0.57179118  1
  O  O65  1  0.14284532  0.49148931  0.57162690  1
  O  O66  1  0.29732687  0.82528992  0.25738015  1
  O  O67  1  0.52764807  0.69956692  0.25751120  1
  O  O68  1  0.17230144  0.47488242  0.25776116  1
  O  O69  1  0.30188364  0.47582590  0.75638308  1
  O  O70  1  0.17407273  0.69913822  0.75599083  1
  O  O71  1  0.52606614  0.82598538  0.75673765  1
loop_
_geom_bond_atom_site_label_1
_geom_bond_atom_site_label_2
_geom_bond_distance
_geom_bond_site_symmetry_2
Na0 O52 2.317029 1_555
Na0 O51 2.350118 1_555
Na0 O66 2.415370 1_655
Na0 O15 2.454077 1_555
Na0 O68 2.625997 1_655
Na0 O11 2.794485 1_655
Na0 O1 2.827653 1_555
Na0 O30 2.872713 1_655
Na1 O62 2.315543 1_555
Na1 O60 2.360524 1_555
Na1 O45 2.412125 1_555
Na1 O24 2.469132 1_554
Na1 O46 2.611591 1_565
Na1 O19 2.787240 1_555
Na1 O17 2.804132 1_555
Na1 O9 2.876510 1_555
Na2 O40 2.313960 1_545
Na2 O39 2.360180 1_555
Na2 O54 2.412358 1_555
Na2 O3 2.493160 1_555
Na2 O56 2.613897 1_555
Na2 O35 2.782953 1_555
Na2 O25 2.811487 1_555
Na2 O18 2.853663 1_556
Na3 O36 2.434454 1_555
Na3 O37 2.438247 1_455
Na3 O38 2.438918 1_565
Na3 O43 2.648346 1_565
Na3 O42 2.651239 1_465
Na3 O44 2.653228 1_455
Na4 O41 2.383234 1_555
Na4 O40 2.428471 1_655
Na4 O39 2.454519 1_665
Na4 O45 2.741251 1_556
Na4 O46 2.750279 1_566
Na4 O47 2.786781 1_666
Na5 O50 2.403626 1_555
Na5 O48 2.410404 1_555
Na5 O49 2.475815 1_555
Na5 O55 2.741072 1_555
Na5 O56 2.786752 1_555
Na5 O54 2.793184 1_555
Na6 O53 2.360669 1_555
Na6 O52 2.471011 1_555
Na6 O51 2.485884 1_555
Na6 O57 2.725305 1_555
Na6 O58 2.738607 1_555
Na6 O59 2.819981 1_555
Na7 O61 2.370210 1_555
Na7 O62 2.410169 1_555
Na7 O60 2.434778 1_555
Na7 O66 2.771652 1_555
Na7 O68 2.785206 1_555
Na7 O67 2.802186 1_555
Na8 O69 2.486171 1_555
Na8 O70 2.487359 1_555
Na8 O71 2.497397 1_555
Na8 O65 2.748692 1_555
Na8 O64 2.749971 1_555
Na8 O63 2.751177 1_555
O0 P0 1.503023 1_555
O0 Zn0 2.009371 1_555
O1 P1 1.506038 1_555
O1 Zn0 2.015185 1_665
O2 P2 1.497425 1_555
O2 Zn0 1.994512 1_655
O3 P3 1.507972 1_555
O3 Zn1 2.062606 1_445
O4 P4 1.491795 1_555
O4 Zn1 1.968854 1_555
O5 P5 1.489561 1_555
O5 Zn1 1.974152 1_545
O6 P5 1.631959 1_565
O6 Ta0 1.925964 1_555
O7 P3 1.625269 1_555
O7 Ta0 1.931118 1_445
O8 P4 1.628608 1_455
O8 Ta0 1.924302 1_455
O9 P1 1.590561 1_555
O9 Ta1 2.035379 1_665
O10 P2 1.588981 1_455
O10 Ta1 1.968619 1_555
O11 P0 1.601194 1_565
O11 Ta1 1.998425 1_565
O12 P6 1.487806 1_555
O12 Zn2 2.077512 1_555
O13 P7 1.488623 1_555
O13 Zn2 2.062398 1_555
O14 P8 1.488039 1_555
O14 Zn2 2.063639 1_555
O15 P9 1.514847 1_555
O15 Zn3 2.063810 1_555
O16 P10 1.491914 1_555
O16 Zn3 1.959226 1_555
O17 P11 1.502062 1_555
O17 Zn3 1.983138 1_555
O18 P11 1.593474 1_555
O18 Ta2 2.032378 1_554
O19 P9 1.599236 1_555
O19 Ta2 2.006602 1_554
O20 P10 1.590033 1_555
O20 Ta2 1.967029 1_554
O21 P7 1.585213 1_555
O21 Ta3 1.977574 1_555
O22 P8 1.585025 1_555
O22 Ta3 1.971354 1_555
O23 P6 1.585108 1_555
O23 Ta3 1.972717 1_555
O24 P12 1.513874 1_555
O24 Zn4 2.061778 1_556
O25 P13 1.500081 1_555
O25 Zn4 1.983459 1_556
O26 P14 1.488990 1_555
O26 Zn4 1.959461 1_556
O27 P15 1.558765 1_555
O27 Ta4 1.963641 1_555
O28 P16 1.558346 1_555
O28 Ta4 1.961988 1_555
O29 P17 1.560773 1_555
O29 Ta4 1.960167 1_555
O30 P17 1.567796 1_555
O30 Ta5 2.054428 1_555
O31 P15 1.569244 1_555
O31 Ta5 1.995009 1_555
O32 P16 1.569065 1_555
O32 Ta5 1.994861 1_555
O33 P13 1.593574 1_555
O33 Ta6 1.985017 1_555
O34 P14 1.589203 1_555
O34 Ta6 1.971361 1_555
O35 P12 1.598701 1_555
O35 Ta6 2.012339 1_555
O36 P17 1.494024 1_555
O36 Zn0 2.153946 1_565
O37 P15 1.491288 1_555
O37 Zn0 2.159236 1_665
O38 P16 1.491105 1_555
O38 Zn0 2.142427 1_555
O39 P13 1.515092 1_555
O39 Zn1 2.133306 1_445
O40 P14 1.516977 1_555
O40 Zn1 2.159419 1_455
O41 P12 1.495942 1_555
O41 Zn1 2.087044 1_555
O42 P6 1.554919 1_555
O42 Ta0 2.102965 1_545
O43 P7 1.554767 1_555
O43 Ta0 2.111796 1_445
O44 P8 1.554609 1_555
O44 Ta0 2.101560 1_555
O45 P9 1.614015 1_555
O45 Ta1 2.032813 1_665
O46 P10 1.612306 1_555
O46 Ta1 2.000898 1_655
O47 P11 1.588418 1_555
O47 Ta1 1.971685 1_555
O48 P5 1.503139 1_555
O48 Zn2 2.061871 1_555
O49 P3 1.500080 1_555
O49 Zn2 2.077501 1_555
O50 P4 1.501314 1_555
O50 Zn2 2.066885 1_555
O51 P1 1.514711 1_555
O51 Zn3 2.152414 1_555
O52 P2 1.511788 1_555
O52 Zn3 2.165459 1_555
O53 P0 1.493523 1_555
O53 Zn3 2.084128 1_555
O54 P12 1.615633 1_555
O54 Ta2 2.029650 1_555
O55 P13 1.587625 1_655
O55 Ta2 1.976085 1_555
O56 P14 1.614572 1_545
O56 Ta2 1.995963 1_555
O57 P15 1.572131 1_545
O57 Ta3 2.019675 1_555
O58 P16 1.572451 1_555
O58 Ta3 2.020156 1_555
O59 P17 1.575478 1_655
O59 Ta3 2.017472 1_555
O60 P11 1.515247 1_555
O60 Zn4 2.144624 1_555
O61 P9 1.494086 1_455
O61 Zn4 2.091521 1_555
O62 P10 1.513493 1_565
O62 Zn4 2.157088 1_555
O63 P7 1.580830 1_565
O63 Ta4 1.975858 1_555
O64 P8 1.579597 1_555
O64 Ta4 1.979010 1_555
O65 P6 1.580664 1_455
O65 Ta4 1.978358 1_555
O66 P0 1.626334 1_565
O66 Ta5 1.995685 1_555
O67 P1 1.594286 1_555
O67 Ta5 1.954738 1_555
O68 P2 1.619464 1_455
O68 Ta5 1.981149 1_555
O69 P3 1.592873 1_555
O69 Ta6 2.028585 1_555
O70 P4 1.597372 1_455
O70 Ta6 2.009696 1_555
O71 P5 1.597173 1_565
O71 Ta6 2.016421 1_555
