# generated using pymatgen
data_HoSeClO3
_symmetry_space_group_name_H-M   'P 1'
_cell_length_a   6.98929200
_cell_length_b   7.27968400
_cell_length_c   8.85561400
_cell_angle_alpha   90.00000000
_cell_angle_beta   90.00000000
_cell_angle_gamma   90.00000000
_symmetry_Int_Tables_number   1
_chemical_formula_structural   HoSeClO3
_chemical_formula_sum   'Ho4 Se4 Cl4 O12'
_cell_volume   450.57219813
_cell_formula_units_Z   4
loop_
 _symmetry_equiv_pos_site_id
 _symmetry_equiv_pos_as_xyz
  1  'x, y, z'
loop_
 _atom_site_type_symbol
 _atom_site_label
 _atom_site_symmetry_multiplicity
 _atom_site_fract_x
 _atom_site_fract_y
 _atom_site_fract_z
 _atom_site_occupancy
  Ho  Ho0  1  0.25000000  0.60436500  0.53901100  1
  Ho  Ho1  1  0.75000000  0.39563500  0.46098900  1
  Ho  Ho2  1  0.25000000  0.10436500  0.96098900  1
  Ho  Ho3  1  0.75000000  0.89563500  0.03901100  1
  Se  Se0  1  0.25000000  0.20919800  0.36673300  1
  Se  Se1  1  0.75000000  0.79080200  0.63326700  1
  Se  Se2  1  0.75000000  0.29080200  0.86673300  1
  Se  Se3  1  0.25000000  0.70919800  0.13326700  1
  Cl  Cl0  1  0.75000000  0.55882800  0.18276800  1
  Cl  Cl1  1  0.75000000  0.05882800  0.31723200  1
  Cl  Cl2  1  0.25000000  0.44117200  0.81723200  1
  Cl  Cl3  1  0.25000000  0.94117200  0.68276800  1
  O  O0  1  0.25000000  0.25218000  0.17793000  1
  O  O1  1  0.75000000  0.74782000  0.82207000  1
  O  O2  1  0.25000000  0.75218000  0.32207000  1
  O  O3  1  0.75000000  0.24782000  0.67793000  1
  O  O4  1  0.92780200  0.64086100  0.56745600  1
  O  O5  1  0.42780200  0.35913900  0.43254400  1
  O  O6  1  0.57219800  0.14086100  0.93254400  1
  O  O7  1  0.92780200  0.14086100  0.93254400  1
  O  O8  1  0.07219800  0.35913900  0.43254400  1
  O  O9  1  0.57219800  0.64086100  0.56745600  1
  O  O10  1  0.42780200  0.85913900  0.06745600  1
  O  O11  1  0.07219800  0.85913900  0.06745600  1
loop_
_geom_bond_atom_site_label_1
_geom_bond_atom_site_label_2
_geom_bond_distance
_geom_bond_site_symmetry_2
Ho0 O2 2.201971 1_555
Ho0 O9 2.281502 1_555
Ho0 O4 2.281502 1_455
Ho0 O5 2.370671 1_555
Ho0 O8 2.370671 1_555
Ho1 O3 2.201971 1_555
Ho1 O8 2.281502 1_655
Ho1 O5 2.281502 1_555
Ho1 O4 2.370671 1_555
Ho1 O9 2.370671 1_555
Ho2 O0 2.201971 1_556
Ho2 O6 2.281502 1_555
Ho2 O7 2.281502 1_455
Ho2 O10 2.370671 1_546
Ho2 O11 2.370671 1_546
Ho3 O1 2.201971 1_554
Ho3 O11 2.281502 1_655
Ho3 O10 2.281502 1_555
Ho3 O7 2.370671 1_564
Ho3 O6 2.370671 1_564
Cl0 Ho1 2.735274 1_555
Cl0 Ho3 2.762650 1_555
Cl1 Ho3 2.735274 1_545
Cl1 Ho1 2.762650 1_555
Cl2 Ho0 2.735274 1_555
Cl2 Ho2 2.762650 1_555
Cl3 Ho2 2.735274 1_565
Cl3 Ho0 2.762650 1_555
O0 Se0 1.700992 1_555
O1 Se1 1.700992 1_555
O2 Se3 1.700992 1_555
O3 Se2 1.700992 1_555
O4 Se1 1.753683 1_555
O5 Se0 1.753683 1_555
O6 Se2 1.753683 1_555
O7 Se2 1.753683 1_555
O8 Se0 1.753683 1_555
O9 Se1 1.753683 1_555
O10 Se3 1.753683 1_555
O11 Se3 1.753683 1_555
