# generated using pymatgen
data_Na2MgZn(SO4)3
_symmetry_space_group_name_H-M   'P 1'
_cell_length_a   8.82061751
_cell_length_b   8.82425608
_cell_length_c   22.39483538
_cell_angle_alpha   90.39982867
_cell_angle_beta   89.58945190
_cell_angle_gamma   120.35638232
_symmetry_Int_Tables_number   1
_chemical_formula_structural   Na2MgZn(SO4)3
_chemical_formula_sum   'Na12 Mg6 Zn6 S18 O72'
_cell_volume   1504.07786621
_cell_formula_units_Z   6
loop_
 _symmetry_equiv_pos_site_id
 _symmetry_equiv_pos_as_xyz
  1  'x, y, z'
loop_
 _atom_site_type_symbol
 _atom_site_label
 _atom_site_symmetry_multiplicity
 _atom_site_fract_x
 _atom_site_fract_y
 _atom_site_fract_z
 _atom_site_occupancy
  Na  Na0  1  0.36166334  0.36165636  0.25000578  1
  Na  Na1  1  0.63755158  0.63847420  0.75057591  1
  Na  Na2  1  0.02918343  0.69476176  0.58267271  1
  Na  Na3  1  0.30508405  0.97100536  0.08284144  1
  Na  Na4  1  0.69553609  0.02887715  0.91667302  1
  Na  Na5  1  0.97091555  0.30518041  0.41722970  1
  Na  Na6  1  0.00000307  0.99999867  0.49994653  1
  Na  Na7  1  0.99999330  0.99985491  0.99937019  1
  Na  Na8  1  0.66649666  0.33332767  0.83399079  1
  Na  Na9  1  0.66665969  0.33350525  0.33398738  1
  Na  Na10  1  0.33352372  0.66667225  0.16606214  1
  Na  Na11  1  0.33335139  0.66666584  0.66662129  1
  Mg  Mg0  1  0.99737295  0.99140193  0.34989311  1
  Mg  Mg1  1  0.00219216  0.00822827  0.64969444  1
  Mg  Mg2  1  0.99140559  0.99744145  0.15006656  1
  Mg  Mg3  1  0.66448683  0.32505086  0.68367301  1
  Mg  Mg4  1  0.67529789  0.33547940  0.18419386  1
  Mg  Mg5  1  0.33554692  0.67532769  0.31581271  1
  Zn  Zn0  1  0.01021447  0.00296543  0.84790080  1
  Zn  Zn1  1  0.66973612  0.34357033  0.98543943  1
  Zn  Zn2  1  0.65613465  0.33032729  0.48495836  1
  Zn  Zn3  1  0.33072873  0.65656954  0.01563948  1
  Zn  Zn4  1  0.34389097  0.66966773  0.51507966  1
  Zn  Zn5  1  0.32324563  0.66417443  0.81765375  1
  S  S0  1  0.29406941  0.99902879  0.24844989  1
  S  S1  1  0.70429811  0.70427284  0.24999101  1
  S  S2  1  0.99902475  0.29405201  0.25154549  1
  S  S3  1  0.29703447  0.29631517  0.74967893  1
  S  S4  1  0.00026461  0.70453995  0.74812300  1
  S  S5  1  0.70516191  0.00181939  0.75123022  1
  S  S6  1  0.96153664  0.33154020  0.58205595  1
  S  S7  1  0.36964601  0.03702599  0.58359780  1
  S  S8  1  0.66633173  0.62868319  0.58513189  1
  S  S9  1  0.96297098  0.63047727  0.08369630  1
  S  S10  1  0.66863096  0.03858189  0.08215546  1
  S  S11  1  0.37112302  0.33351229  0.08524502  1
  S  S12  1  0.62950826  0.66552326  0.91514068  1
  S  S13  1  0.03578909  0.36908824  0.91665966  1
  S  S14  1  0.33217153  0.96284399  0.91819283  1
  S  S15  1  0.63035462  0.96292682  0.41637243  1
  S  S16  1  0.33360458  0.37126491  0.41483305  1
  S  S17  1  0.03854099  0.66857543  0.41789400  1
  O  O0  1  0.20855430  0.02861212  0.30046926  1
  O  O1  1  0.80846329  0.78547467  0.30375137  1
  O  O2  1  0.97591436  0.19242973  0.30667782  1
  O  O3  1  0.22070546  0.19558083  0.80486643  1
  O  O4  1  0.96820041  0.78513749  0.80139751  1
  O  O5  1  0.80378746  0.02584157  0.80746845  1
  O  O6  1  0.79452604  0.97409867  0.70010248  1
  O  O7  1  0.19021575  0.21094238  0.69699084  1
  O  O8  1  0.02219418  0.80850495  0.69384489  1
  O  O9  1  0.78549934  0.80844915  0.19624392  1
  O  O10  1  0.02865596  0.20859204  0.19953293  1
  O  O11  1  0.19243354  0.97593060  0.19332323  1
  O  O12  1  0.87208335  0.35915670  0.63320644  1
  O  O13  1  0.47644856  0.12249461  0.63631061  1
  O  O14  1  0.64453453  0.52486889  0.63945715  1
  O  O15  1  0.87747473  0.52338137  0.13644082  1
  O  O16  1  0.64080007  0.12801152  0.13334244  1
  O  O17  1  0.47525411  0.35549697  0.13960695  1
  O  O18  1  0.45191077  0.30164038  0.03197721  1
  O  O19  1  0.86223745  0.55400738  0.02851848  1
  O  O20  1  0.69246259  0.13710513  0.02591306  1
  O  O21  1  0.44609468  0.13798401  0.52839411  1
  O  O22  1  0.69839095  0.54795273  0.53184530  1
  O  O23  1  0.86277635  0.30747852  0.52578284  1
  O  O24  1  0.54487165  0.69559272  0.96758086  1
  O  O25  1  0.13920989  0.44958294  0.97084664  1
  O  O26  1  0.30931652  0.86193319  0.97368600  1
  O  O27  1  0.55382918  0.86203899  0.47156446  1
  O  O28  1  0.30169847  0.45209472  0.46811135  1
  O  O29  1  0.13718627  0.69245696  0.47416970  1
  O  O30  1  0.12808527  0.64092565  0.36668513  1
  O  O31  1  0.52337960  0.87742070  0.36359709  1
  O  O32  1  0.35546556  0.47520799  0.36043460  1
  O  O33  1  0.11623817  0.47249360  0.86247085  1
  O  O34  1  0.36234357  0.87827987  0.86575622  1
  O  O35  1  0.52861006  0.64267126  0.85964038  1
  O  O36  1  0.01793587  0.82326038  0.41038915  1
  O  O37  1  0.81090807  0.98770781  0.41052926  1
  O  O38  1  0.17216672  0.19386518  0.40960628  1
  O  O39  1  0.01230441  0.18871917  0.91183229  1
  O  O40  1  0.17564598  0.98151622  0.91168974  1
  O  O41  1  0.80679002  0.82828376  0.91101046  1
  O  O42  1  0.98219925  0.17682919  0.58956213  1
  O  O43  1  0.18899959  0.01215274  0.58943913  1
  O  O44  1  0.82779759  0.80612750  0.59035711  1
  O  O45  1  0.98778580  0.81093215  0.08952721  1
  O  O46  1  0.82334711  0.01794913  0.08964961  1
  O  O47  1  0.19371005  0.17215059  0.09047978  1
  O  O48  1  0.68432003  0.15645718  0.74374603  1
  O  O49  1  0.47774787  0.32129611  0.74383394  1
  O  O50  1  0.83886116  0.52705211  0.74289802  1
  O  O51  1  0.67985286  0.52347643  0.24465054  1
  O  O52  1  0.84357330  0.31415148  0.24458651  1
  O  O53  1  0.47154796  0.16141390  0.24374451  1
  O  O54  1  0.64829101  0.50909438  0.92164406  1
  O  O55  1  0.85528901  0.34555882  0.92150724  1
  O  O56  1  0.49494242  0.14012853  0.92231623  1
  O  O57  1  0.65320972  0.14326747  0.42070422  1
  O  O58  1  0.49074628  0.35326397  0.42081451  1
  O  O59  1  0.86141605  0.50486672  0.42149477  1
  O  O60  1  0.35309194  0.49056600  0.07927063  1
  O  O61  1  0.14345982  0.65339356  0.07935337  1
  O  O62  1  0.50486206  0.86146946  0.07857055  1
  O  O63  1  0.34674306  0.85667461  0.57925726  1
  O  O64  1  0.50922974  0.64677409  0.57914435  1
  O  O65  1  0.13867891  0.49515771  0.57845181  1
  O  O66  1  0.31421586  0.84366612  0.25541919  1
  O  O67  1  0.52339752  0.67981352  0.25535365  1
  O  O68  1  0.16141259  0.47150567  0.25624350  1
  O  O69  1  0.32005616  0.47677405  0.75400968  1
  O  O70  1  0.15735016  0.68641271  0.75410205  1
  O  O71  1  0.52798514  0.83814480  0.75482779  1
loop_
_geom_bond_atom_site_label_1
_geom_bond_atom_site_label_2
_geom_bond_distance
_geom_bond_site_symmetry_2
Na0 O68 2.409198 1_555
Na0 O53 2.409778 1_555
Na0 O51 2.424320 1_555
Na0 O67 2.425096 1_555
Na0 O17 2.671533 1_555
Na0 O32 2.672407 1_555
Na0 O10 2.783183 1_555
Na0 O0 2.784030 1_555
Na1 O71 2.401042 1_555
Na1 O69 2.417482 1_555
Na1 O49 2.419264 1_555
Na1 O50 2.430476 1_555
Na1 O35 2.625176 1_555
Na1 O14 2.688257 1_555
Na1 O4 2.772779 1_555
Na1 O6 2.800999 1_555
Na2 O65 2.399986 1_555
Na2 O63 2.417968 1_555
Na2 O43 2.420916 1_565
Na2 O44 2.430730 1_455
Na2 O29 2.607322 1_555
Na2 O8 2.689833 1_555
Na2 O22 2.773783 1_455
Na2 O12 2.801363 1_455
Na3 O62 2.401356 1_555
Na3 O45 2.419058 1_455
Na3 O61 2.419413 1_555
Na3 O47 2.429119 1_565
Na3 O26 2.627852 1_554
Na3 O11 2.667942 1_555
Na3 O18 2.773675 1_565
Na3 O16 2.801207 1_565
Na4 O39 2.412998 1_655
Na4 O55 2.413362 1_555
Na4 O56 2.420972 1_555
Na4 O41 2.421383 1_545
Na4 O5 2.623922 1_555
Na4 O20 2.624951 1_556
Na4 O34 2.789801 1_545
Na4 O24 2.791040 1_545
Na5 O59 2.400724 1_555
Na5 O57 2.419113 1_555
Na5 O37 2.421448 1_545
Na5 O38 2.429190 1_655
Na5 O23 2.608790 1_555
Na5 O2 2.670167 1_555
Na5 O28 2.774156 1_655
Na5 O30 2.802438 1_655
Na6 O37 2.581802 1_455
Na6 O43 2.582921 1_565
Na6 O36 2.584761 1_555
Na6 O42 2.585868 1_465
Na6 O38 2.589267 1_565
Na6 O44 2.590605 1_455
Na7 O40 2.547114 1_655
Na7 O39 2.547957 1_665
Na7 O41 2.551605 1_555
Na7 O45 2.594189 1_556
Na7 O46 2.596673 1_566
Na7 O47 2.602929 1_666
Na8 O55 2.547191 1_555
Na8 O54 2.547440 1_555
Na8 O56 2.550598 1_555
Na8 O49 2.593487 1_555
Na8 O48 2.597037 1_555
Na8 O50 2.602439 1_555
Na9 O57 2.538588 1_555
Na9 O58 2.538611 1_555
Na9 O59 2.541538 1_555
Na9 O51 2.583164 1_555
Na9 O52 2.587004 1_555
Na9 O53 2.591853 1_555
Na10 O61 2.537704 1_555
Na10 O60 2.539050 1_555
Na10 O62 2.541001 1_555
Na10 O67 2.581772 1_555
Na10 O66 2.587130 1_555
Na10 O68 2.590641 1_555
Na11 O63 2.548611 1_555
Na11 O69 2.548620 1_555
Na11 O64 2.549942 1_555
Na11 O70 2.550225 1_555
Na11 O65 2.553038 1_555
Na11 O71 2.553487 1_555
Mg0 O1 2.020983 1_555
Mg0 O0 2.039621 1_665
Mg0 O36 2.091267 1_655
Mg0 O37 2.112967 1_555
Mg0 O2 2.117833 1_565
Mg0 O38 2.137599 1_665
Mg1 O7 2.018019 1_555
Mg1 O6 2.034176 1_445
Mg1 O42 2.086771 1_455
Mg1 O43 2.109103 1_555
Mg1 O8 2.110908 1_545
Mg1 O44 2.129782 1_445
Mg2 O9 2.021140 1_555
Mg2 O10 2.040702 1_665
Mg2 O46 2.089063 1_565
Mg2 O45 2.112858 1_555
Mg2 O11 2.118030 1_655
Mg2 O47 2.134411 1_665
Mg3 O13 2.018194 1_555
Mg3 O12 2.034456 1_555
Mg3 O48 2.085225 1_555
Mg3 O49 2.107859 1_555
Mg3 O14 2.112116 1_555
Mg3 O50 2.127750 1_555
Mg4 O15 2.020368 1_555
Mg4 O16 2.038117 1_555
Mg4 O52 2.093426 1_555
Mg4 O17 2.117658 1_555
Mg4 O51 2.118686 1_555
Mg4 O53 2.138186 1_555
Mg5 O31 2.020588 1_555
Mg5 O30 2.037707 1_555
Mg5 O66 2.094146 1_555
Mg5 O67 2.117219 1_555
Mg5 O32 2.118641 1_555
Mg5 O68 2.139478 1_555
O0 S0 1.475278 1_545
O1 S1 1.464756 1_555
O2 S2 1.482300 1_555
O3 S3 1.472898 1_555
O3 Zn0 2.018037 1_555
O4 S4 1.481848 1_655
O4 Zn0 2.043099 1_665
O5 S5 1.487789 1_555
O5 Zn0 2.138618 1_655
O6 S5 1.473172 1_565
O7 S3 1.460696 1_555
O8 S4 1.479680 1_555
O9 S1 1.464394 1_555
O10 S2 1.475262 1_455
O11 S0 1.482234 1_555
O12 S6 1.473652 1_555
O13 S7 1.461244 1_555
O14 S8 1.480028 1_555
O15 S9 1.462712 1_555
O16 S10 1.475205 1_555
O17 S11 1.481901 1_555
O18 S11 1.481779 1_555
O18 Zn1 2.042751 1_554
O19 S9 1.473044 1_555
O19 Zn1 2.018326 1_554
O20 S10 1.487697 1_555
O20 Zn1 2.139129 1_554
O21 S7 1.474105 1_555
O21 Zn2 2.019479 1_555
O22 S8 1.482716 1_555
O22 Zn2 2.045321 1_555
O23 S6 1.489014 1_555
O23 Zn2 2.143989 1_555
O24 S12 1.479944 1_555
O24 Zn3 2.040435 1_556
O25 S13 1.469085 1_555
O25 Zn3 2.018949 1_556
O26 S14 1.486078 1_555
O26 Zn3 2.138846 1_556
O27 S15 1.473750 1_555
O27 Zn4 2.019991 1_555
O28 S16 1.482491 1_555
O28 Zn4 2.046020 1_555
O29 S17 1.488790 1_555
O29 Zn4 2.145042 1_555
O30 S17 1.475280 1_555
O31 S15 1.463031 1_555
O32 S16 1.481910 1_555
O33 S13 1.468846 1_555
O33 Zn5 2.019436 1_555
O34 S14 1.480098 1_555
O34 Zn5 2.041390 1_555
O35 S12 1.486117 1_555
O35 Zn5 2.139106 1_555
O36 S17 1.476090 1_555
O37 S15 1.498901 1_555
O38 S16 1.496227 1_555
O39 S13 1.500844 1_555
O39 Zn0 2.161958 1_555
O40 S14 1.479091 1_555
O40 Zn0 2.125712 1_565
O41 S12 1.498779 1_555
O41 Zn0 2.188977 1_665
O42 S6 1.476621 1_555
O43 S7 1.499390 1_555
O44 S8 1.496551 1_555
O45 S9 1.498616 1_555
O46 S10 1.475991 1_555
O47 S11 1.495863 1_555
O48 S5 1.476859 1_555
O49 S3 1.499610 1_555
O50 S4 1.496535 1_655
O51 S1 1.502026 1_555
O52 S2 1.478220 1_555
O53 S0 1.499166 1_545
O54 S12 1.479318 1_555
O54 Zn1 2.126644 1_555
O55 S13 1.501153 1_655
O55 Zn1 2.160259 1_555
O56 S14 1.498962 1_545
O56 Zn1 2.190090 1_555
O57 S15 1.502125 1_545
O57 Zn2 2.172626 1_555
O58 S16 1.479835 1_555
O58 Zn2 2.136628 1_555
O59 S17 1.500966 1_655
O59 Zn2 2.201285 1_555
O60 S11 1.479712 1_555
O60 Zn3 2.130867 1_555
O61 S9 1.502513 1_455
O61 Zn3 2.164543 1_555
O62 S10 1.501245 1_565
O62 Zn3 2.191579 1_555
O63 S7 1.502061 1_565
O63 Zn4 2.171386 1_555
O64 S8 1.479962 1_555
O64 Zn4 2.134936 1_555
O65 S6 1.500704 1_455
O65 Zn4 2.199606 1_555
O66 S0 1.478208 1_555
O67 S1 1.502210 1_555
O68 S2 1.499190 1_455
O69 S3 1.502569 1_555
O69 Zn5 2.165074 1_555
O70 S4 1.479986 1_555
O70 Zn5 2.128221 1_555
O71 S5 1.501084 1_565
O71 Zn5 2.188426 1_555
