# generated using pymatgen
data_MgFe2Si2SbO9
_symmetry_space_group_name_H-M   'P 1'
_cell_length_a   5.29077203
_cell_length_b   5.28174611
_cell_length_c   8.37887797
_cell_angle_alpha   96.31519135
_cell_angle_beta   95.18583546
_cell_angle_gamma   119.23509116
_symmetry_Int_Tables_number   1
_chemical_formula_structural   MgFe2Si2SbO9
_chemical_formula_sum   'Mg1 Fe2 Si2 Sb1 O9'
_cell_volume   200.25655372
_cell_formula_units_Z   1
loop_
 _symmetry_equiv_pos_site_id
 _symmetry_equiv_pos_as_xyz
  1  'x, y, z'
loop_
 _atom_site_type_symbol
 _atom_site_label
 _atom_site_symmetry_multiplicity
 _atom_site_fract_x
 _atom_site_fract_y
 _atom_site_fract_z
 _atom_site_occupancy
  Mg  Mg0  1  0.99243000  0.99379500  0.93127800  1
  Fe  Fe0  1  0.64975800  0.33332000  0.99604700  1
  Fe  Fe1  1  0.32924300  0.65676900  0.00053000  1
  Si  Si0  1  0.86455500  0.52746600  0.63753400  1
  Si  Si1  1  0.52881400  0.87102200  0.63800000  1
  Sb  Sb0  1  0.07993900  0.08104700  0.27046600  1
  O  O0  1  0.00339900  0.31701400  0.11875000  1
  O  O1  1  0.34273800  0.03627600  0.11983300  1
  O  O2  1  0.74816000  0.72459300  0.12422400  1
  O  O3  1  0.93616500  0.59581400  0.83628000  1
  O  O4  1  0.61012400  0.95910200  0.83632100  1
  O  O5  1  0.32913900  0.31579100  0.86241000  1
  O  O6  1  0.17634900  0.67404600  0.56540500  1
  O  O7  1  0.67130400  0.17494700  0.55904600  1
  O  O8  1  0.68388500  0.68499800  0.57014500  1
loop_
_geom_bond_atom_site_label_1
_geom_bond_atom_site_label_2
_geom_bond_distance
_geom_bond_site_symmetry_2
Mg0 O5 1.959912 1_665
Mg0 O4 2.018135 1_555
Mg0 O3 2.029433 1_555
Mg0 O0 2.163792 1_666
Mg0 O1 2.228887 1_666
Mg0 O2 2.322502 1_556
Fe0 O5 1.902707 1_555
Fe0 O2 2.013711 1_556
Fe0 O1 2.085434 1_556
Fe0 O0 2.096269 1_656
Fe0 O4 2.168921 1_545
Fe0 O3 2.175611 1_555
Fe1 O5 2.030559 1_554
Fe1 O1 2.104448 1_565
Fe1 O2 2.200548 1_555
Fe1 O0 2.202586 1_555
Fe1 O3 2.248083 1_454
Fe1 O4 2.277372 1_554
O0 Sb0 2.020333 1_555
O1 Sb0 2.038351 1_555
O2 Sb0 2.000718 1_665
O3 Si0 1.633119 1_555
O4 Si1 1.633396 1_555
O6 Si1 1.640290 1_555
O6 Si0 1.649721 1_455
O7 Si0 1.641392 1_555
O7 Si1 1.650613 1_545
O8 Si0 1.645447 1_555
O8 Si1 1.646384 1_555
