# generated using pymatgen
data_MgTi3(SnO4)3
_symmetry_space_group_name_H-M   'P 1'
_cell_length_a   8.85626590
_cell_length_b   6.00355394
_cell_length_c   5.99991534
_cell_angle_alpha   68.41953563
_cell_angle_beta   65.07638787
_cell_angle_gamma   65.64347012
_symmetry_Int_Tables_number   1
_chemical_formula_structural   MgTi3(SnO4)3
_chemical_formula_sum   'Mg1 Ti3 Sn3 O12'
_cell_volume   256.18164583
_cell_formula_units_Z   1
loop_
 _symmetry_equiv_pos_site_id
 _symmetry_equiv_pos_as_xyz
  1  'x, y, z'
loop_
 _atom_site_type_symbol
 _atom_site_label
 _atom_site_symmetry_multiplicity
 _atom_site_fract_x
 _atom_site_fract_y
 _atom_site_fract_z
 _atom_site_occupancy
  Mg  Mg0  1  0.71104840  0.31508958  0.79480403  1
  Ti  Ti0  1  0.70783640  0.32393486  0.30022482  1
  Ti  Ti1  1  0.19698186  0.34415623  0.37216443  1
  Ti  Ti2  1  0.00048572  0.98375105  0.04332818  1
  Sn  Sn0  1  0.87852873  0.70304451  0.70276884  1
  Sn  Sn1  1  0.31084613  0.66448933  0.66854957  1
  Sn  Sn2  1  0.43019759  0.98814224  -0.02242468  1
  O  O0  1  0.30785741  0.40041152  0.01728242  1
  O  O1  1  0.72146626  0.06169612  0.62976180  1
  O  O2  1  0.24402248  0.92575806  0.87709397  1
  O  O3  1  0.58129180  0.54491450  0.53807962  1
  O  O4  1  0.94156576  0.25747438  0.18818632  1
  O  O5  1  0.74288958  0.08649119  0.12837029  1
  O  O6  1  0.32995022  0.41658505  0.48266824  1
  O  O7  1  0.03301075  0.76922349  0.81953215  1
  O  O8  1  0.67118282  0.58369273  0.98426747  1
  O  O9  1  0.97352583  0.32851847  0.67242836  1
  O  O10  1  0.28233601  0.99234296  0.38356175  1
  O  O11  1  0.02426024  0.71504473  0.32411341  1
loop_
_geom_bond_atom_site_label_1
_geom_bond_atom_site_label_2
_geom_bond_distance
_geom_bond_site_symmetry_2
Mg0 O5 2.025941 1_556
Mg0 O3 2.053670 1_555
Mg0 O1 2.053945 1_555
Mg0 O8 2.134919 1_555
Mg0 O9 2.149825 1_555
O0 Ti1 1.895890 1_555
O0 Sn1 2.107114 1_554
O0 Sn2 2.315380 1_545
O1 Sn0 2.027867 1_545
O1 Ti0 2.038885 1_555
O1 Sn2 2.632241 1_546
O2 Ti2 1.894966 1_556
O2 Sn1 2.104793 1_555
O2 Sn2 2.176137 1_556
O3 Ti0 1.967501 1_555
O3 Sn1 2.068759 1_555
O4 Ti0 1.799766 1_555
O4 Ti2 1.920752 1_645
O5 Ti0 1.907376 1_555
O5 Ti2 1.983708 1_645
O6 Ti1 1.818762 1_555
O6 Sn1 2.083700 1_555
O7 Sn0 1.995337 1_455
O7 Ti2 2.045701 1_556
O7 Sn1 2.129479 1_555
O8 Ti0 2.014313 1_556
O8 Sn0 2.078254 1_555
O8 Sn2 2.485654 1_556
O9 Ti1 2.048114 1_655
O9 Sn0 2.099607 1_555
O9 Ti2 2.438302 1_646
O10 Ti1 1.912481 1_565
O10 Sn1 2.083233 1_555
O10 Sn2 2.231254 1_555
O11 Ti2 1.872030 1_555
O11 Sn0 2.077846 1_455
O11 Ti1 2.114484 1_555
