# generated using pymatgen
data_SrMgFe2(SeO3)4
_symmetry_space_group_name_H-M   'P 1'
_cell_length_a   5.63009000
_cell_length_b   7.31371717
_cell_length_c   7.39717569
_cell_angle_alpha   92.59657748
_cell_angle_beta   90.00000000
_cell_angle_gamma   90.00000000
_symmetry_Int_Tables_number   1
_chemical_formula_structural   SrMgFe2(SeO3)4
_chemical_formula_sum   'Sr1 Mg1 Fe2 Se4 O12'
_cell_volume   304.27992733
_cell_formula_units_Z   1
loop_
 _symmetry_equiv_pos_site_id
 _symmetry_equiv_pos_as_xyz
  1  'x, y, z'
loop_
 _atom_site_type_symbol
 _atom_site_label
 _atom_site_symmetry_multiplicity
 _atom_site_fract_x
 _atom_site_fract_y
 _atom_site_fract_z
 _atom_site_occupancy
  Sr  Sr0  1  0.50000000  0.52168000  0.48835100  1
  Mg  Mg0  1  0.00000000  0.33536300  0.74490000  1
  Fe  Fe0  1  0.00000000  0.97856900  0.47978400  1
  Fe  Fe1  1  0.50000000  0.49882000  0.01648600  1
  Se  Se0  1  0.50000000  0.90971100  0.26831700  1
  Se  Se1  1  0.00000000  0.30097300  0.13150200  1
  Se  Se2  1  0.00000000  0.71015300  0.88674100  1
  Se  Se3  1  0.50000000  0.09746300  0.72645800  1
  O  O0  1  0.77531500  0.55653400  0.79854300  1
  O  O1  1  0.50000000  0.21982300  0.92591400  1
  O  O2  1  0.73825100  0.19888800  0.60982800  1
  O  O3  1  0.22468500  0.55653400  0.79854300  1
  O  O4  1  0.00000000  0.09579600  0.22744100  1
  O  O5  1  0.50000000  0.77605000  0.07104200  1
  O  O6  1  0.26174900  0.19888800  0.60982800  1
  O  O7  1  0.72395000  0.81342200  0.39691500  1
  O  O8  1  0.00000000  0.89050600  0.75368900  1
  O  O9  1  0.27605000  0.81342200  0.39691500  1
  O  O10  1  0.75850300  0.42111100  0.21866100  1
  O  O11  1  0.24149700  0.42111100  0.21866100  1
loop_
_geom_bond_atom_site_label_1
_geom_bond_atom_site_label_2
_geom_bond_distance
_geom_bond_site_symmetry_2
Mg0 O2 2.018893 1_455
Mg0 O6 2.018893 1_555
Mg0 O3 2.077519 1_555
Mg0 O0 2.077519 1_455
Fe0 O7 2.045250 1_455
Fe0 O9 2.045250 1_555
Fe0 O4 2.089108 1_565
Fe0 O8 2.153657 1_555
Fe0 O2 2.356496 1_465
Fe0 O6 2.356496 1_565
Fe1 O5 2.049344 1_555
Fe1 O1 2.118646 1_554
Fe1 O10 2.180549 1_555
Fe1 O11 2.180549 1_555
Fe1 O0 2.289443 1_554
Fe1 O3 2.289443 1_554
O0 Se2 1.794926 1_655
O0 Sr0 2.771203 1_555
O1 Se3 1.690581 1_555
O2 Se3 1.775341 1_555
O2 Sr0 2.893506 1_555
O3 Se2 1.794926 1_555
O3 Sr0 2.771203 1_555
O4 Se1 1.688773 1_555
O5 Se0 1.719261 1_555
O6 Se3 1.775341 1_555
O6 Sr0 2.893506 1_555
O7 Se0 1.746798 1_555
O7 Sr0 2.594370 1_555
O8 Se2 1.681128 1_555
O9 Se0 1.746798 1_555
O9 Sr0 2.594370 1_555
O10 Se1 1.727725 1_655
O10 Sr0 2.550693 1_555
O11 Se1 1.727725 1_555
O11 Sr0 2.550693 1_555
