# generated using pymatgen
data_Na5Al4P5SO24
_symmetry_space_group_name_H-M   'P 1'
_cell_length_a   8.50657573
_cell_length_b   8.53083151
_cell_length_c   21.53021490
_cell_angle_alpha   90.31634850
_cell_angle_beta   89.82291720
_cell_angle_gamma   119.88327551
_symmetry_Int_Tables_number   1
_chemical_formula_structural   Na5Al4P5SO24
_chemical_formula_sum   'Na15 Al12 P15 S3 O72'
_cell_volume   1354.65309595
_cell_formula_units_Z   3
loop_
 _symmetry_equiv_pos_site_id
 _symmetry_equiv_pos_as_xyz
  1  'x, y, z'
loop_
 _atom_site_type_symbol
 _atom_site_label
 _atom_site_symmetry_multiplicity
 _atom_site_fract_x
 _atom_site_fract_y
 _atom_site_fract_z
 _atom_site_occupancy
  Na  Na0  1  0.64101051  0.00001088  0.25033782  1
  Na  Na1  1  0.99791508  0.36247036  0.74994990  1
  Na  Na2  1  0.36413776  0.99949673  0.75044872  1
  Na  Na3  1  0.03013465  0.69858126  0.58289471  1
  Na  Na4  1  0.66648367  0.96874519  0.58343626  1
  Na  Na5  1  0.30237300  0.97115987  0.08197552  1
  Na  Na6  1  0.03191260  0.33487829  0.08351660  1
  Na  Na7  1  0.97277513  0.66660171  0.91667311  1
  Na  Na8  1  0.70102248  0.66882550  0.41721468  1
  Na  Na9  1  0.01173426  0.01172975  0.49944206  1
  Na  Na10  1  0.99752457  0.00486555  0.99893395  1
  Na  Na11  1  0.65878728  0.32877993  0.83420585  1
  Na  Na12  1  0.67631525  0.33745151  0.33332283  1
  Na  Na13  1  0.33539574  0.65500322  0.16753895  1
  Na  Na14  1  0.34047270  0.65726703  0.66668770  1
  Al  Al0  1  0.98930661  0.99494894  0.35234116  1
  Al  Al1  1  0.00986888  0.01248017  0.85158760  1
  Al  Al2  1  0.00378374  0.00564908  0.64788436  1
  Al  Al3  1  0.98951939  0.99820527  0.14728825  1
  Al  Al4  1  0.66523623  0.33881013  0.68545284  1
  Al  Al5  1  0.67522832  0.34667007  0.18506281  1
  Al  Al6  1  0.66353126  0.32186415  0.98176636  1
  Al  Al7  1  0.67373597  0.32781972  0.48154977  1
  Al  Al8  1  0.33184776  0.66432110  0.01945956  1
  Al  Al9  1  0.33268256  0.66961374  0.51932730  1
  Al  Al10  1  0.32660484  0.65979775  0.31431968  1
  Al  Al11  1  0.33382999  0.66830607  0.81393895  1
  P  P0  1  0.70909699  0.70551590  0.25050086  1
  P  P1  1  0.00422916  0.29203898  0.25010401  1
  P  P2  1  0.29285840  0.29292563  0.74998917  1
  P  P3  1  0.99390894  0.71076549  0.75052038  1
  P  P4  1  0.71093348  0.99477213  0.75008815  1
  P  P5  1  0.96033881  0.33340142  0.58383014  1
  P  P6  1  0.37826947  0.05095002  0.58303015  1
  P  P7  1  0.66107754  0.61742549  0.58243154  1
  P  P8  1  0.95154638  0.62413536  0.08228128  1
  P  P9  1  0.66508959  0.04112025  0.08403753  1
  P  P10  1  0.38349215  0.33770208  0.08366496  1
  P  P11  1  0.04377162  0.37344973  0.91676603  1
  P  P12  1  0.33729968  0.95989398  0.91663657  1
  P  P13  1  0.61952983  0.95900706  0.41600408  1
  P  P14  1  0.04680912  0.66800898  0.41651759  1
  S  S0  1  0.28574611  0.00078503  0.25028611  1
  S  S1  1  0.61919328  0.66671493  0.91659313  1
  S  S2  1  0.32870486  0.37372323  0.41659764  1
  O  O0  1  0.20185424  0.02992173  0.30550330  1
  O  O1  1  0.82448059  0.78941405  0.30960743  1
  O  O2  1  0.96605672  0.16559772  0.30609929  1
  O  O3  1  0.21080836  0.16883973  0.80684274  1
  O  O4  1  0.96604722  0.79661577  0.80947931  1
  O  O5  1  0.83630629  0.03592346  0.80639312  1
  O  O6  1  0.79285165  0.96540571  0.69024502  1
  O  O7  1  0.16744889  0.20927490  0.69330061  1
  O  O8  1  0.03567054  0.83175115  0.69255586  1
  O  O9  1  0.79584143  0.83315800  0.19455838  1
  O  O10  1  0.03480041  0.20774101  0.19051128  1
  O  O11  1  0.17708806  0.97012622  0.19302337  1
  O  O12  1  0.87827501  0.37298411  0.64246613  1
  O  O13  1  0.49804845  0.12747160  0.64189862  1
  O  O14  1  0.63240528  0.50181596  0.63976780  1
  O  O15  1  0.87183796  0.49875919  0.13849503  1
  O  O16  1  0.62514505  0.12222754  0.14279048  1
  O  O17  1  0.49804013  0.36591214  0.14163510  1
  O  O18  1  0.46466425  0.29613986  0.02613848  1
  O  O19  1  0.83826450  0.54169062  0.02309170  1
  O  O20  1  0.70689008  0.16672376  0.02787301  1
  O  O21  1  0.46628713  0.16783618  0.52607555  1
  O  O22  1  0.70126128  0.53759440  0.52366060  1
  O  O23  1  0.83507958  0.29365003  0.52748664  1
  O  O24  1  0.53810519  0.69761367  0.97267721  1
  O  O25  1  0.16093002  0.46104638  0.97520703  1
  O  O26  1  0.29903153  0.83699927  0.97436021  1
  O  O27  1  0.53821544  0.83407869  0.47368470  1
  O  O28  1  0.29824731  0.45623197  0.47254636  1
  O  O29  1  0.15911174  0.69744548  0.47613462  1
  O  O30  1  0.13431786  0.63411777  0.35973311  1
  O  O31  1  0.50467903  0.86886197  0.35735976  1
  O  O32  1  0.36832984  0.49210450  0.36136916  1
  O  O33  1  0.12843710  0.49650900  0.85904836  1
  O  O34  1  0.36655317  0.87187443  0.85805049  1
  O  O35  1  0.50772754  0.63605268  0.86080792  1
  O  O36  1  0.02491836  0.83832696  0.40918781  1
  O  O37  1  0.81060441  0.97608849  0.40985218  1
  O  O38  1  0.16818466  0.19391098  0.40855388  1
  O  O39  1  0.02266702  0.18503212  0.90935655  1
  O  O40  1  0.16041746  0.97106346  0.90989744  1
  O  O41  1  0.80335292  0.82842963  0.91083939  1
  O  O42  1  0.97486708  0.16148240  0.59089190  1
  O  O43  1  0.18502955  0.02154826  0.59062975  1
  O  O44  1  0.83293630  0.80964571  0.58943605  1
  O  O45  1  0.98047086  0.81637150  0.09155464  1
  O  O46  1  0.83736434  0.02554977  0.09073524  1
  O  O47  1  0.18990998  0.16597825  0.09074049  1
  O  O48  1  0.68912500  0.16603334  0.74346723  1
  O  O49  1  0.47984428  0.30770201  0.74203952  1
  O  O50  1  0.82971014  0.51878022  0.74352225  1
  O  O51  1  0.68909323  0.51778871  0.24278638  1
  O  O52  1  0.82784978  0.30436173  0.24275983  1
  O  O53  1  0.47025896  0.16152197  0.24488118  1
  O  O54  1  0.64171347  0.50508384  0.92235069  1
  O  O55  1  0.85558561  0.36190909  0.92374296  1
  O  O56  1  0.50484542  0.14794698  0.92393553  1
  O  O57  1  0.63773712  0.14608282  0.42358700  1
  O  O58  1  0.49522592  0.35899612  0.42295113  1
  O  O59  1  0.85192940  0.50126719  0.42346412  1
  O  O60  1  0.35576492  0.50262406  0.07576511  1
  O  O61  1  0.14520568  0.64560150  0.07580735  1
  O  O62  1  0.49486339  0.85397674  0.07498732  1
  O  O63  1  0.35738321  0.85760513  0.57646687  1
  O  O64  1  0.49558881  0.64463123  0.57487482  1
  O  O65  1  0.14703804  0.50483569  0.57538512  1
  O  O66  1  0.30855835  0.83849701  0.25564125  1
  O  O67  1  0.52023314  0.69256986  0.25833532  1
  O  O68  1  0.17187990  0.48038977  0.25805447  1
  O  O69  1  0.30869810  0.47997656  0.75896486  1
  O  O70  1  0.16649627  0.68962315  0.75662922  1
  O  O71  1  0.51907843  0.82923445  0.75767676  1
loop_
_geom_bond_atom_site_label_1
_geom_bond_atom_site_label_2
_geom_bond_distance
_geom_bond_site_symmetry_2
Na0 O52 2.277035 1_555
Na0 O67 2.298416 1_545
Na0 O53 2.453379 1_555
Na0 O66 2.454823 1_545
Na0 O31 2.573920 1_545
Na0 O16 2.575980 1_555
Na0 O9 2.653765 1_545
Na0 O2 2.681766 1_555
Na1 O48 2.311035 1_555
Na1 O69 2.322056 1_655
Na1 O50 2.397722 1_555
Na1 O70 2.423824 1_655
Na1 O12 2.550864 1_555
Na1 O33 2.603655 1_655
Na1 O7 2.669260 1_655
Na1 O5 2.708849 1_555
Na2 O49 2.310825 1_565
Na2 O70 2.325110 1_555
Na2 O48 2.402018 1_565
Na2 O71 2.404676 1_555
Na2 O34 2.569675 1_555
Na2 O13 2.593075 1_565
Na2 O3 2.666619 1_565
Na2 O8 2.725088 1_555
Na3 O44 2.304845 1_455
Na3 O65 2.319641 1_555
Na3 O43 2.394512 1_565
Na3 O63 2.417733 1_555
Na3 O29 2.545979 1_555
Na3 O8 2.604811 1_555
Na3 O12 2.735426 1_455
Na3 O22 2.741029 1_455
Na4 O42 2.304888 1_565
Na4 O63 2.313400 1_555
Na4 O44 2.404533 1_555
Na4 O64 2.404794 1_555
Na4 O6 2.547764 1_555
Na4 O27 2.613593 1_555
Na4 O23 2.693588 1_565
Na4 O13 2.715526 1_565
Na5 O47 2.300592 1_565
Na5 O62 2.308917 1_555
Na5 O45 2.383451 1_455
Na5 O61 2.411518 1_555
Na5 O26 2.572508 1_554
Na5 O11 2.612917 1_555
Na5 O18 2.692541 1_565
Na5 O16 2.718762 1_565
Na6 O46 2.318977 1_455
Na6 O61 2.332591 1_555
Na6 O60 2.395086 1_555
Na6 O47 2.416632 1_555
Na6 O10 2.556967 1_555
Na6 O25 2.575978 1_554
Na6 O15 2.660561 1_455
Na6 O20 2.680796 1_455
Na7 O40 2.277436 1_655
Na7 O55 2.279169 1_555
Na7 O54 2.444899 1_555
Na7 O41 2.446288 1_555
Na7 O19 2.547585 1_556
Na7 O4 2.579187 1_555
Na7 O33 2.698649 1_655
Na7 O26 2.709131 1_655
Na8 O37 2.309480 1_555
Na8 O58 2.336120 1_555
Na8 O59 2.353903 1_555
Na8 O36 2.396237 1_655
Na8 O1 2.542345 1_555
Na8 O22 2.556618 1_555
Na8 O27 2.701812 1_555
Na8 O32 2.734469 1_555
Na9 O43 2.434682 1_555
Na9 O38 2.443817 1_555
Na9 O42 2.444328 1_455
Na9 O36 2.471648 1_545
Na9 O37 2.497175 1_445
Na9 O44 2.538786 1_445
Na10 O39 2.414585 1_655
Na10 O46 2.452127 1_556
Na10 O40 2.460414 1_645
Na10 O41 2.470154 1_545
Na10 O47 2.494584 1_656
Na10 O45 2.526762 1_546
Na11 O56 2.414773 1_555
Na11 O49 2.455418 1_555
Na11 O54 2.463570 1_555
Na11 O48 2.476844 1_555
Na11 O55 2.478129 1_555
Na11 O50 2.494446 1_555
Na12 O59 2.420507 1_555
Na12 O52 2.425729 1_555
Na12 O51 2.458332 1_555
Na12 O57 2.459051 1_555
Na12 O53 2.513647 1_555
Na12 O58 2.527925 1_555
Na13 O60 2.412054 1_555
Na13 O68 2.429446 1_555
Na13 O67 2.430309 1_555
Na13 O61 2.532440 1_555
Na13 O62 2.533423 1_555
Na13 O66 2.534003 1_555
Na14 O64 2.404895 1_555
Na14 O69 2.435197 1_555
Na14 O71 2.462496 1_555
Na14 O65 2.474339 1_555
Na14 O70 2.529771 1_555
Na14 O63 2.550432 1_555
Al0 O1 1.851266 1_555
Al0 O2 1.858424 1_565
Al0 O37 1.901781 1_555
Al0 O36 1.949008 1_655
Al0 O0 1.956917 1_665
Al0 O38 2.018944 1_665
Al1 O3 1.833327 1_555
Al1 O5 1.863304 1_455
Al1 O39 1.883238 1_555
Al1 O4 1.910924 1_445
Al1 O40 1.951080 1_545
Al1 O41 2.106782 1_445
Al2 O7 1.868610 1_555
Al2 O6 1.883807 1_445
Al2 O8 1.902027 1_545
Al2 O42 1.918120 1_455
Al2 O43 1.922697 1_555
Al2 O44 2.014484 1_445
Al3 O9 1.851090 1_555
Al3 O10 1.872791 1_665
Al3 O46 1.877754 1_565
Al3 O45 1.926930 1_555
Al3 O11 1.991478 1_655
Al3 O47 2.002946 1_665
Al4 O14 1.839286 1_555
Al4 O13 1.893929 1_555
Al4 O49 1.901705 1_555
Al4 O12 1.921431 1_555
Al4 O50 1.930521 1_555
Al4 O48 2.023433 1_555
Al5 O15 1.824141 1_555
Al5 O17 1.852022 1_555
Al5 O51 1.870493 1_555
Al5 O52 1.959795 1_555
Al5 O16 1.961163 1_555
Al5 O53 2.111367 1_555
Al6 O20 1.837457 1_556
Al6 O18 1.856073 1_556
Al6 O56 1.888917 1_555
Al6 O19 1.931297 1_556
Al6 O55 1.944829 1_555
Al6 O54 2.103927 1_555
Al7 O23 1.832237 1_555
Al7 O21 1.870784 1_555
Al7 O57 1.887512 1_555
Al7 O22 1.909242 1_555
Al7 O59 1.955713 1_555
Al7 O58 2.094357 1_555
Al8 O25 1.872629 1_554
Al8 O26 1.902102 1_554
Al8 O24 1.915539 1_554
Al8 O60 1.927021 1_555
Al8 O62 1.929541 1_555
Al8 O61 1.937946 1_555
Al9 O29 1.860499 1_555
Al9 O27 1.884475 1_555
Al9 O64 1.924433 1_555
Al9 O65 1.929109 1_555
Al9 O63 1.942567 1_555
Al9 O28 1.965727 1_555
Al10 O30 1.820699 1_555
Al10 O68 1.877321 1_555
Al10 O31 1.905911 1_555
Al10 O32 1.929461 1_555
Al10 O67 1.943351 1_555
Al10 O66 2.049211 1_555
Al11 O34 1.870027 1_555
Al11 O33 1.896700 1_555
Al11 O69 1.914711 1_555
Al11 O71 1.919928 1_555
Al11 O35 1.923567 1_555
Al11 O70 1.962907 1_555
O0 S0 1.467187 1_555
O1 P0 1.546848 1_555
O2 P1 1.544440 1_655
O3 P2 1.542350 1_555
O4 P3 1.537777 1_555
O5 P4 1.536370 1_545
O6 P4 1.540539 1_555
O7 P2 1.541691 1_555
O8 P3 1.547594 1_455
O9 P0 1.545712 1_555
O10 P1 1.550834 1_555
O11 S0 1.485036 1_565
O12 P5 1.555586 1_555
O13 P6 1.551388 1_555
O14 P7 1.525762 1_555
O15 P8 1.534631 1_555
O16 P9 1.554441 1_555
O17 P10 1.528300 1_555
O18 P10 1.539593 1_555
O19 P8 1.539353 1_555
O20 P9 1.539088 1_555
O21 P6 1.523952 1_555
O22 P7 1.549689 1_555
O23 P5 1.537959 1_555
O24 S1 1.475079 1_555
O25 P11 1.545995 1_555
O26 P12 1.556106 1_555
O27 P13 1.559246 1_555
O28 S2 1.477843 1_555
O29 P14 1.545379 1_555
O30 P14 1.528843 1_555
O31 P13 1.545427 1_555
O32 S2 1.489627 1_555
O33 P11 1.555791 1_555
O34 P12 1.546156 1_555
O35 S1 1.471895 1_555
O36 P14 1.563003 1_555
O37 P13 1.563183 1_555
O38 S2 1.469309 1_555
O39 P11 1.533323 1_555
O40 P12 1.561572 1_555
O41 S1 1.489903 1_555
O42 P5 1.540303 1_555
O43 P6 1.542640 1_555
O44 P7 1.568039 1_555
O45 P8 1.544149 1_555
O46 P9 1.543218 1_555
O47 P10 1.574179 1_555
O48 P4 1.569014 1_545
O49 P2 1.540773 1_555
O50 P3 1.541126 1_555
O51 P0 1.531971 1_555
O52 P1 1.563978 1_655
O53 S0 1.487732 1_555
O54 S1 1.489474 1_555
O55 P11 1.560932 1_655
O56 P12 1.532923 1_545
O57 P13 1.532498 1_545
O58 S2 1.489886 1_555
O59 P14 1.563635 1_655
O60 P10 1.548402 1_555
O61 P8 1.570054 1_455
O62 P9 1.542161 1_565
O63 P6 1.574039 1_565
O64 P7 1.545792 1_555
O65 P5 1.543008 1_455
O66 S0 1.495750 1_565
O67 P0 1.563166 1_555
O68 P1 1.536228 1_555
O69 P2 1.544107 1_555
O70 P3 1.571796 1_455
O71 P4 1.545567 1_555
