# generated using pymatgen
data_LiCoPO4
_symmetry_space_group_name_H-M   'P 1'
_cell_length_a   7.46812614
_cell_length_b   7.46812614
_cell_length_c   9.51014200
_cell_angle_alpha   90.00000000
_cell_angle_beta   90.00000000
_cell_angle_gamma   120.00000127
_symmetry_Int_Tables_number   1
_chemical_formula_structural   LiCoPO4
_chemical_formula_sum   'Li6 Co6 P6 O24'
_cell_volume   459.34703526
_cell_formula_units_Z   6
loop_
 _symmetry_equiv_pos_site_id
 _symmetry_equiv_pos_as_xyz
  1  'x, y, z'
loop_
 _atom_site_type_symbol
 _atom_site_label
 _atom_site_symmetry_multiplicity
 _atom_site_fract_x
 _atom_site_fract_y
 _atom_site_fract_z
 _atom_site_occupancy
  Li  Li0  1  0.04771700  0.25669700  0.25217400  1
  Li  Li1  1  0.74330300  0.79102000  0.25217400  1
  Li  Li2  1  0.20898000  0.95228300  0.25217400  1
  Li  Li3  1  0.95228300  0.20898000  0.75217400  1
  Li  Li4  1  0.25669700  0.04771700  0.75217400  1
  Li  Li5  1  0.79102000  0.74330300  0.75217400  1
  Co  Co0  1  0.59166000  0.05000400  0.97856500  1
  Co  Co1  1  0.94999600  0.54165700  0.97856500  1
  Co  Co2  1  0.40834000  0.45834300  0.47856500  1
  Co  Co3  1  0.05000400  0.59166000  0.47856500  1
  Co  Co4  1  0.45834300  0.40834000  0.97856500  1
  Co  Co5  1  0.54165700  0.94999600  0.47856500  1
  P  P0  1  0.66666700  0.33333300  0.67638400  1
  P  P1  1  0.00000000  0.00000000  0.99995100  1
  P  P2  1  0.33333300  0.66666700  0.17638400  1
  P  P3  1  0.33333300  0.66666700  0.77253100  1
  P  P4  1  0.00000000  0.00000000  0.49995100  1
  P  P5  1  0.66666700  0.33333300  0.27253100  1
  O  O0  1  0.88582000  0.38943800  0.32138400  1
  O  O1  1  0.83192700  0.55036900  0.62404900  1
  O  O2  1  0.44963100  0.28155800  0.62404900  1
  O  O3  1  0.33333300  0.66666700  0.60376300  1
  O  O4  1  0.66666700  0.33333300  0.84242800  1
  O  O5  1  0.16807300  0.71844200  0.12404900  1
  O  O6  1  0.12323100  0.22483800  0.44144700  1
  O  O7  1  0.10160700  0.87676900  0.44144700  1
  O  O8  1  0.00000000  0.00000000  0.16205100  1
  O  O9  1  0.50361800  0.11418000  0.32138400  1
  O  O10  1  0.87676900  0.10160700  0.94144700  1
  O  O11  1  0.71844200  0.16807300  0.62404900  1
  O  O12  1  0.61056200  0.49638200  0.32138400  1
  O  O13  1  0.66666700  0.33333300  0.10376300  1
  O  O14  1  0.11418000  0.50361800  0.82138400  1
  O  O15  1  0.22483800  0.12323100  0.94144700  1
  O  O16  1  0.55036900  0.83192700  0.12404900  1
  O  O17  1  0.49638200  0.61056200  0.82138400  1
  O  O18  1  0.00000000  0.00000000  0.66205100  1
  O  O19  1  0.28155800  0.44963100  0.12404900  1
  O  O20  1  0.89839300  0.77516200  0.94144700  1
  O  O21  1  0.33333300  0.66666700  0.34242800  1
  O  O22  1  0.38943800  0.88582000  0.82138400  1
  O  O23  1  0.77516200  0.89839300  0.44144700  1
loop_
_geom_bond_atom_site_label_1
_geom_bond_atom_site_label_2
_geom_bond_distance
_geom_bond_site_symmetry_2
Li0 O6 1.936201 1_555
Li0 O8 1.963031 1_555
Li0 O0 2.019004 1_455
Li0 O19 2.023434 1_555
Li1 O23 1.936200 1_555
Li1 O8 1.963031 1_665
Li1 O12 2.019004 1_555
Li1 O16 2.023434 1_555
Li2 O7 1.936200 1_555
Li2 O8 1.963031 1_565
Li2 O9 2.019004 1_565
Li2 O5 2.023434 1_555
Li3 O10 1.936200 1_555
Li3 O18 1.963031 1_655
Li3 O14 2.019004 1_655
Li3 O11 2.023434 1_555
Li4 O15 1.936201 1_555
Li4 O18 1.963031 1_555
Li4 O22 2.019004 1_545
Li4 O2 2.023434 1_555
Li5 O20 1.936200 1_555
Li5 O18 1.963031 1_665
Li5 O17 2.019004 1_555
Li5 O1 2.023434 1_555
Co0 O10 1.996543 1_555
Co0 O16 2.039504 1_546
Co0 O22 2.041302 1_545
Co0 O13 2.241284 1_556
Co0 O4 2.298239 1_555
Co1 O20 1.996536 1_555
Co1 O5 2.039502 1_656
Co1 O14 2.041306 1_655
Co1 O13 2.241287 1_556
Co1 O4 2.298243 1_555
Co2 O6 1.996541 1_555
Co2 O2 2.039499 1_555
Co2 O12 2.041301 1_555
Co2 O3 2.241296 1_555
Co2 O21 2.298251 1_555
Co3 O7 1.996543 1_555
Co3 O1 2.039504 1_455
Co3 O0 2.041302 1_455
Co3 O3 2.241284 1_555
Co3 O21 2.298239 1_555
Co4 O15 1.996541 1_555
Co4 O19 2.039499 1_556
Co4 O17 2.041301 1_555
Co4 O13 2.241296 1_556
Co4 O4 2.298251 1_555
Co5 O23 1.996536 1_555
Co5 O11 2.039502 1_565
Co5 O9 2.041306 1_565
Co5 O3 2.241287 1_555
Co5 O21 2.298243 1_555
O0 P5 1.544123 1_555
O1 P0 1.548438 1_555
O2 P0 1.548440 1_555
O3 P3 1.605008 1_555
O4 P0 1.579102 1_555
O5 P2 1.548433 1_555
O6 P4 1.559057 1_555
O7 P4 1.559057 1_565
O8 P1 1.541594 1_554
O9 P5 1.544125 1_555
O10 P1 1.559057 1_655
O11 P0 1.548433 1_555
O12 P5 1.544130 1_555
O13 P5 1.605008 1_555
O14 P3 1.544125 1_555
O15 P1 1.559057 1_555
O16 P2 1.548438 1_555
O17 P3 1.544130 1_555
O18 P4 1.541594 1_555
O19 P2 1.548440 1_555
O20 P1 1.559057 1_665
O21 P2 1.579102 1_555
O22 P3 1.544123 1_555
O23 P4 1.559057 1_665
