# generated using pymatgen
data_HfGeP2SO12
_symmetry_space_group_name_H-M   'P 1'
_cell_length_a   8.59911933
_cell_length_b   8.59090690
_cell_length_c   22.27431644
_cell_angle_alpha   90.51075459
_cell_angle_beta   90.02153280
_cell_angle_gamma   120.00359653
_symmetry_Int_Tables_number   1
_chemical_formula_structural   HfGeP2SO12
_chemical_formula_sum   'Hf6 Ge6 P12 S6 O72'
_cell_volume   1424.91265635
_cell_formula_units_Z   6
loop_
 _symmetry_equiv_pos_site_id
 _symmetry_equiv_pos_as_xyz
  1  'x, y, z'
loop_
 _atom_site_type_symbol
 _atom_site_label
 _atom_site_symmetry_multiplicity
 _atom_site_fract_x
 _atom_site_fract_y
 _atom_site_fract_z
 _atom_site_occupancy
  Hf  Hf0  1  0.00338698  0.00338277  0.85290345  1
  Hf  Hf1  1  0.66971506  0.33513041  0.19584300  1
  Hf  Hf2  1  0.65891275  0.33897927  0.98028647  1
  Hf  Hf3  1  0.33294691  0.67009602  0.02623731  1
  Hf  Hf4  1  0.33713734  0.66833952  0.52374447  1
  Hf  Hf5  1  0.34584179  0.67056944  0.80431918  1
  Ge  Ge0  1  0.99832542  0.00138066  0.35527947  1
  Ge  Ge1  1  0.98729115  0.00448394  0.64294983  1
  Ge  Ge2  1  0.02007093  0.00735108  0.14976627  1
  Ge  Ge3  1  0.66527875  0.33407511  0.68541420  1
  Ge  Ge4  1  0.69224494  0.34208503  0.47797826  1
  Ge  Ge5  1  0.31883436  0.67375491  0.31415895  1
  P  P0  1  0.27446096  0.98919856  0.25427550  1
  P  P1  1  0.01694910  0.28628967  0.25406193  1
  P  P2  1  0.29139759  0.27753898  0.74240744  1
  P  P3  1  0.71932659  0.01703770  0.74384042  1
  P  P4  1  0.94335819  0.32531647  0.58490666  1
  P  P5  1  0.68056685  0.61721061  0.58450639  1
  P  P6  1  0.95291030  0.63694945  0.08866094  1
  P  P7  1  0.36632467  0.32165923  0.08808723  1
  P  P8  1  0.62237046  0.66900975  0.91620532  1
  P  P9  1  0.33418405  0.95374415  0.91589895  1
  P  P10  1  0.62461871  0.96009309  0.41450069  1
  P  P11  1  0.04080420  0.67115549  0.41513957  1
  S  S0  1  0.70887948  0.72562418  0.25301286  1
  S  S1  1  0.98966070  0.70604432  0.74390893  1
  S  S2  1  0.37715684  0.05697923  0.58369598  1
  S  S3  1  0.68458653  0.04750043  0.08723483  1
  S  S4  1  0.04443396  0.38094782  0.91584311  1
  S  S5  1  0.33691108  0.37308533  0.41468081  1
  O  O0  1  0.18989302  0.02619279  0.30902964  1
  O  O1  1  0.82614893  0.80112496  0.30650393  1
  O  O2  1  0.97450496  0.16432650  0.30875062  1
  O  O3  1  0.21290368  0.16413590  0.79892791  1
  O  O4  1  0.95827734  0.78376324  0.79890768  1
  O  O5  1  0.83363281  0.04970180  0.80027612  1
  O  O6  1  0.79854233  0.96794665  0.68950758  1
  O  O7  1  0.16626566  0.18788013  0.68757100  1
  O  O8  1  0.02699869  0.82286656  0.69173168  1
  O  O9  1  0.78657606  0.83436005  0.19852513  1
  O  O10  1  0.04810907  0.20174043  0.19647285  1
  O  O11  1  0.15743631  0.94739244  0.19682790  1
  O  O12  1  0.86006832  0.36319818  0.63984687  1
  O  O13  1  0.49193244  0.13057130  0.63792782  1
  O  O14  1  0.63870943  0.49806756  0.64001832  1
  O  O15  1  0.86589643  0.51415577  0.14240031  1
  O  O16  1  0.64918850  0.12997543  0.13967736  1
  O  O17  1  0.48654149  0.35212586  0.14230838  1
  O  O18  1  0.44797531  0.28639970  0.03127986  1
  O  O19  1  0.83890618  0.55120338  0.03157686  1
  O  O20  1  0.71229712  0.15413316  0.03268117  1
  O  O21  1  0.45537592  0.16795605  0.52994694  1
  O  O22  1  0.71363010  0.53216808  0.52730209  1
  O  O23  1  0.82399346  0.28217724  0.52760771  1
  O  O24  1  0.53592418  0.69492576  0.97228681  1
  O  O25  1  0.15379178  0.46154163  0.97021274  1
  O  O26  1  0.30341631  0.83986709  0.97191963  1
  O  O27  1  0.54167563  0.84008593  0.46949239  1
  O  O28  1  0.30099732  0.45391741  0.46837654  1
  O  O29  1  0.16067993  0.70468402  0.47013301  1
  O  O30  1  0.11896688  0.62361291  0.35921155  1
  O  O31  1  0.49945759  0.87250260  0.35840425  1
  O  O32  1  0.37247347  0.48851362  0.36147777  1
  O  O33  1  0.12473843  0.48728636  0.86185546  1
  O  O34  1  0.35520530  0.86257413  0.85939812  1
  O  O35  1  0.50542550  0.63534459  0.85983009  1
  O  O36  1  0.01943586  0.83620771  0.40411868  1
  O  O37  1  0.81172704  0.98108793  0.40385848  1
  O  O38  1  0.17215894  0.19396270  0.40770791  1
  O  O39  1  0.02888084  0.20317420  0.90999877  1
  O  O40  1  0.17090828  0.97765964  0.90829088  1
  O  O41  1  0.80507364  0.83520520  0.90698710  1
  O  O42  1  0.96276289  0.15727684  0.59183705  1
  O  O43  1  0.19666091  0.03354989  0.59192360  1
  O  O44  1  0.85068931  0.80398281  0.59418898  1
  O  O45  1  0.96214085  0.81875702  0.09823945  1
  O  O46  1  0.84276992  0.02857571  0.09636345  1
  O  O47  1  0.18070577  0.15360230  0.09491696  1
  O  O48  1  0.70086724  0.18348367  0.73487655  1
  O  O49  1  0.47895967  0.30035077  0.73426958  1
  O  O50  1  0.82623265  0.52768829  0.73815995  1
  O  O51  1  0.69120764  0.54603043  0.24647200  1
  O  O52  1  0.85200634  0.30711053  0.24469568  1
  O  O53  1  0.45964052  0.15407510  0.24564592  1
  O  O54  1  0.64311282  0.50299534  0.92248089  1
  O  O55  1  0.86617810  0.35931730  0.92388709  1
  O  O56  1  0.50477974  0.13556628  0.92410832  1
  O  O57  1  0.64178377  0.14785959  0.42576404  1
  O  O58  1  0.49524433  0.35169058  0.42452981  1
  O  O59  1  0.85264845  0.50147608  0.42399888  1
  O  O60  1  0.34549184  0.48591436  0.07851353  1
  O  O61  1  0.14011809  0.66095553  0.07972021  1
  O  O62  1  0.52354519  0.86810483  0.08055165  1
  O  O63  1  0.36029010  0.87706429  0.57666185  1
  O  O64  1  0.51587532  0.63934895  0.57473197  1
  O  O65  1  0.12781868  0.49188024  0.57521718  1
  O  O66  1  0.29332249  0.82023502  0.26115372  1
  O  O67  1  0.52947737  0.70469031  0.26129438  1
  O  O68  1  0.18745582  0.47288140  0.26372987  1
  O  O69  1  0.30613652  0.46184658  0.75058470  1
  O  O70  1  0.14636380  0.68255450  0.75175001  1
  O  O71  1  0.53208679  0.85040621  0.75081836  1
loop_
_geom_bond_atom_site_label_1
_geom_bond_atom_site_label_2
_geom_bond_distance
_geom_bond_site_symmetry_2
Hf0 O40 1.991967 1_545
Hf0 O41 2.003813 1_445
Hf0 O3 2.035060 1_555
Hf0 O39 2.048410 1_555
Hf0 O5 2.061861 1_455
Hf0 O4 2.093800 1_445
Hf1 O15 2.016851 1_555
Hf1 O52 2.019900 1_555
Hf1 O53 2.033567 1_555
Hf1 O17 2.038623 1_555
Hf1 O51 2.053570 1_555
Hf1 O16 2.086138 1_555
Hf2 O54 1.971144 1_555
Hf2 O18 1.993889 1_556
Hf2 O56 2.004909 1_555
Hf2 O19 2.040640 1_556
Hf2 O55 2.116473 1_555
Hf2 O20 2.203676 1_556
Hf3 O61 2.011907 1_555
Hf3 O26 2.014233 1_554
Hf3 O60 2.018564 1_555
Hf3 O24 2.042036 1_554
Hf3 O62 2.053545 1_555
Hf3 O25 2.083009 1_554
Hf4 O64 2.025037 1_555
Hf4 O65 2.038638 1_555
Hf4 O27 2.041769 1_555
Hf4 O63 2.061408 1_555
Hf4 O29 2.074862 1_555
Hf4 O28 2.097023 1_555
Hf5 O35 1.980982 1_555
Hf5 O71 1.982838 1_555
Hf5 O34 2.015808 1_555
Hf5 O69 2.028190 1_555
Hf5 O70 2.121640 1_555
Hf5 O33 2.186413 1_555
Ge0 O2 1.840691 1_555
Ge0 O0 1.863965 1_655
Ge0 O37 1.871054 1_545
Ge0 O36 1.874808 1_645
Ge0 O1 1.936541 1_545
Ge0 O38 1.956102 1_655
Ge1 O6 1.818213 1_545
Ge1 O42 1.834946 1_555
Ge1 O7 1.839740 1_655
Ge1 O44 1.862407 1_545
Ge1 O43 2.037784 1_655
Ge1 O8 2.072296 1_645
Ge2 O47 1.808922 1_555
Ge2 O45 1.830215 1_445
Ge2 O11 1.837574 1_545
Ge2 O10 1.869616 1_555
Ge2 O46 2.013262 1_455
Ge2 O9 2.113239 1_445
Ge3 O49 1.837889 1_555
Ge3 O48 1.844534 1_555
Ge3 O14 1.845706 1_555
Ge3 O12 1.866856 1_555
Ge3 O50 1.929800 1_555
Ge3 O13 1.938239 1_555
Ge4 O23 1.833786 1_555
Ge4 O59 1.834362 1_555
Ge4 O57 1.888383 1_555
Ge4 O22 1.890776 1_555
Ge4 O58 2.105695 1_555
Ge4 O21 2.170688 1_555
Ge5 O66 1.824288 1_555
Ge5 O30 1.847986 1_555
Ge5 O68 1.879028 1_555
Ge5 O31 1.901471 1_555
Ge5 O67 2.064921 1_555
Ge5 O32 2.149378 1_555
O0 P0 1.530421 1_545
O1 S0 1.479322 1_555
O2 P1 1.534786 1_655
O3 P2 1.534452 1_555
O4 S1 1.478263 1_555
O5 P3 1.530374 1_555
O6 P3 1.544460 1_565
O7 P2 1.548025 1_555
O8 S1 1.469648 1_455
O9 S0 1.479409 1_555
O10 P1 1.556646 1_555
O11 P0 1.551909 1_555
O12 P4 1.530728 1_555
O13 S2 1.481370 1_555
O14 P5 1.536410 1_555
O15 P6 1.529477 1_555
O16 S3 1.469827 1_555
O17 P7 1.522702 1_555
O18 P7 1.546729 1_555
O19 P6 1.542906 1_555
O20 S3 1.474550 1_555
O21 S2 1.474561 1_555
O22 P5 1.558707 1_555
O23 P4 1.558839 1_555
O24 P8 1.524421 1_555
O25 S4 1.470837 1_555
O26 P9 1.532088 1_555
O27 P10 1.536150 1_555
O28 S5 1.485949 1_555
O29 P11 1.530313 1_555
O30 P11 1.560961 1_555
O31 P10 1.567843 1_555
O32 S5 1.482959 1_555
O33 S4 1.465201 1_555
O34 P9 1.534337 1_555
O35 P8 1.540604 1_555
O36 P11 1.539919 1_555
O37 P10 1.545417 1_555
O38 S5 1.488106 1_555
O39 S4 1.469506 1_555
O40 P9 1.526815 1_555
O41 P8 1.520222 1_555
O42 P4 1.542905 1_555
O43 S2 1.473622 1_555
O44 P5 1.551517 1_555
O45 P6 1.536680 1_555
O46 S3 1.462730 1_555
O47 P7 1.534499 1_555
O48 P3 1.530296 1_555
O49 P2 1.535365 1_555
O50 S1 1.477142 1_555
O51 S0 1.478604 1_555
O52 P1 1.530178 1_655
O53 P0 1.525861 1_545
O54 P8 1.530814 1_555
O55 S4 1.460195 1_655
O56 P9 1.525898 1_545
O57 P10 1.562499 1_545
O58 S5 1.478660 1_555
O59 P11 1.558288 1_655
O60 P7 1.525426 1_555
O61 P6 1.530574 1_455
O62 S3 1.475251 1_565
O63 S2 1.485271 1_565
O64 P5 1.535930 1_555
O65 P4 1.531649 1_455
O66 P0 1.547960 1_555
O67 S0 1.472966 1_555
O68 P1 1.552017 1_555
O69 P2 1.533114 1_555
O70 S1 1.469494 1_455
O71 P3 1.537801 1_565
