# generated using pymatgen
data_Na6Ca3Si2Sn(SO6)4
_symmetry_space_group_name_H-M   'P 1'
_cell_length_a   9.33874480
_cell_length_b   9.36712651
_cell_length_c   23.31154729
_cell_angle_alpha   90.50073298
_cell_angle_beta   89.25730020
_cell_angle_gamma   120.06854282
_symmetry_Int_Tables_number   1
_chemical_formula_structural   Na6Ca3Si2Sn(SO6)4
_chemical_formula_sum   'Na18 Ca9 Si6 Sn3 S12 O72'
_cell_volume   1764.64886973
_cell_formula_units_Z   3
loop_
 _symmetry_equiv_pos_site_id
 _symmetry_equiv_pos_as_xyz
  1  'x, y, z'
loop_
 _atom_site_type_symbol
 _atom_site_label
 _atom_site_symmetry_multiplicity
 _atom_site_fract_x
 _atom_site_fract_y
 _atom_site_fract_z
 _atom_site_occupancy
  Na  Na0  1  0.63315703  0.99779354  0.26206203  1
  Na  Na1  1  0.36790160  0.36418184  0.24025221  1
  Na  Na2  1  0.63977877  0.65158921  0.73952498  1
  Na  Na3  1  0.32115975  0.35160919  0.58992783  1
  Na  Na4  1  0.01613706  0.69930192  0.58253744  1
  Na  Na5  1  0.66359478  0.93540811  0.58382479  1
  Na  Na6  1  0.29951017  0.97879310  0.07076445  1
  Na  Na7  1  0.05974610  0.33758209  0.07243255  1
  Na  Na8  1  0.99322890  0.68001254  0.91606478  1
  Na  Na9  1  0.70549992  0.03699509  0.90019621  1
  Na  Na10  1  0.30671086  0.28183163  0.92004561  1
  Na  Na11  1  0.69526913  0.69119958  0.42373809  1
  Na  Na12  1  0.97370374  0.99095444  0.49523447  1
  Na  Na13  1  0.02516355  0.02064022  0.99403890  1
  Na  Na14  1  0.66783765  0.29327239  0.82633735  1
  Na  Na15  1  0.67498025  0.31579905  0.34018678  1
  Na  Na16  1  0.33848315  0.64724571  0.15996002  1
  Na  Na17  1  0.35933819  0.67822290  0.67351305  1
  Ca  Ca0  1  0.00173864  0.00591112  0.35123527  1
  Ca  Ca1  1  0.99823732  0.00919513  0.84633077  1
  Ca  Ca2  1  0.97703005  0.98984963  0.65657653  1
  Ca  Ca3  1  0.00446553  0.99811000  0.14711932  1
  Ca  Ca4  1  0.66205902  0.31955533  0.68752170  1
  Ca  Ca5  1  0.66759976  0.34344211  0.18258537  1
  Ca  Ca6  1  0.34047278  0.66577670  0.01632751  1
  Ca  Ca7  1  0.34198512  0.67208481  0.51157607  1
  Ca  Ca8  1  0.33973350  0.68685222  0.32535730  1
  Si  Si0  1  0.67350738  0.98387720  0.75526001  1
  Si  Si1  1  0.66661190  0.62392876  0.58253415  1
  Si  Si2  1  0.36769504  0.33334307  0.08518713  1
  Si  Si3  1  0.03149141  0.37470940  0.92086217  1
  Si  Si4  1  0.33703987  0.97032643  0.92276787  1
  Si  Si5  1  0.64655267  0.98611250  0.41917841  1
  Sn  Sn0  1  0.66054601  0.32713324  0.98171879  1
  Sn  Sn1  1  0.66821129  0.32921875  0.48357229  1
  Sn  Sn2  1  0.32067560  0.67756643  0.82090690  1
  S  S0  1  0.30387980  0.99837834  0.24803759  1
  S  S1  1  0.69592909  0.69891299  0.25271903  1
  S  S2  1  0.00190699  0.30013635  0.24865607  1
  S  S3  1  0.30489740  0.31653715  0.75174261  1
  S  S4  1  0.00643705  0.69706885  0.75125861  1
  S  S5  1  0.96103014  0.33332555  0.58103786  1
  S  S6  1  0.36892272  0.04050604  0.58147511  1
  S  S7  1  0.96095776  0.62686281  0.08003137  1
  S  S8  1  0.67078084  0.04417339  0.08322771  1
  S  S9  1  0.63041054  0.65757874  0.91567908  1
  S  S10  1  0.34372451  0.36356646  0.41765188  1
  S  S11  1  0.01758375  0.65762689  0.42053933  1
  O  O0  1  0.21580595  0.01435571  0.29821496  1
  O  O1  1  0.78602500  0.77865213  0.30570859  1
  O  O2  1  0.98190006  0.19372215  0.29802486  1
  O  O3  1  0.22431558  0.21677451  0.80289753  1
  O  O4  1  0.99468701  0.78166445  0.80319514  1
  O  O5  1  0.77596029  0.99152255  0.81158287  1
  O  O6  1  0.74327311  0.94179269  0.69534182  1
  O  O7  1  0.21377027  0.23616254  0.69828787  1
  O  O8  1  0.03053366  0.79544923  0.69860534  1
  O  O9  1  0.78264723  0.79950659  0.20173150  1
  O  O10  1  0.01981046  0.22294733  0.19473340  1
  O  O11  1  0.21484404  0.98645590  0.19447086  1
  O  O12  1  0.88112859  0.35280325  0.63249974  1
  O  O13  1  0.47434042  0.11419099  0.63139742  1
  O  O14  1  0.64634018  0.51472449  0.63818676  1
  O  O15  1  0.87719243  0.52444432  0.12990292  1
  O  O16  1  0.65489776  0.12495333  0.13531441  1
  O  O17  1  0.45967501  0.34058231  0.14417218  1
  O  O18  1  0.47154696  0.31387086  0.02631606  1
  O  O19  1  0.86629694  0.54553233  0.02560592  1
  O  O20  1  0.69635533  0.15066185  0.03046455  1
  O  O21  1  0.45259135  0.14292454  0.52857472  1
  O  O22  1  0.68900980  0.52533402  0.52335099  1
  O  O23  1  0.85370424  0.30176439  0.52898909  1
  O  O24  1  0.55774935  0.68767877  0.96623371  1
  O  O25  1  0.13760409  0.44606252  0.97780391  1
  O  O26  1  0.31446705  0.87376273  0.98167543  1
  O  O27  1  0.55533179  0.87656778  0.47573423  1
  O  O28  1  0.32075710  0.43963860  0.47006085  1
  O  O29  1  0.10469555  0.66947930  0.47410691  1
  O  O30  1  0.10005512  0.63665767  0.36982176  1
  O  O31  1  0.54675612  0.91854359  0.35852644  1
  O  O32  1  0.36446049  0.46648308  0.36632108  1
  O  O33  1  0.12545273  0.50554751  0.86502242  1
  O  O34  1  0.37618702  0.87964857  0.86720673  1
  O  O35  1  0.52589448  0.62764711  0.86348043  1
  O  O36  1  0.99513163  0.80343934  0.41578212  1
  O  O37  1  0.82502281  0.99251635  0.41667789  1
  O  O38  1  0.20667812  0.19412209  0.41260085  1
  O  O39  1  0.99676034  0.18862813  0.91091252  1
  O  O40  1  0.17520057  0.99083353  0.91347951  1
  O  O41  1  0.80175419  0.79789475  0.90859028  1
  O  O42  1  0.98536774  0.18776703  0.58469794  1
  O  O43  1  0.20808977  0.03694083  0.58706089  1
  O  O44  1  0.83690598  0.80715000  0.57908106  1
  O  O45  1  0.97693453  0.79246734  0.08320885  1
  O  O46  1  0.82122068  0.02923900  0.08436080  1
  O  O47  1  0.18708518  0.15891635  0.07810836  1
  O  O48  1  0.64907663  0.14170988  0.75136089  1
  O  O49  1  0.47832335  0.35035184  0.74890755  1
  O  O50  1  0.85231845  0.53475626  0.74770181  1
  O  O51  1  0.67188346  0.52931255  0.24971084  1
  O  O52  1  0.84831939  0.31201395  0.24721031  1
  O  O53  1  0.47373148  0.15051843  0.24758550  1
  O  O54  1  0.64205920  0.50227107  0.92135684  1
  O  O55  1  0.84749013  0.37117654  0.92469677  1
  O  O56  1  0.51249635  0.15814934  0.92168967  1
  O  O57  1  0.66108118  0.17428700  0.42538237  1
  O  O58  1  0.50836992  0.36551644  0.42104921  1
  O  O59  1  0.84401411  0.50645682  0.42156087  1
  O  O60  1  0.33781946  0.49030202  0.08403336  1
  O  O61  1  0.12893994  0.64689701  0.07755771  1
  O  O62  1  0.51778816  0.88305281  0.07854724  1
  O  O63  1  0.33760455  0.86932835  0.57486453  1
  O  O64  1  0.49928666  0.64026033  0.57851014  1
  O  O65  1  0.12319265  0.48615867  0.57362403  1
  O  O66  1  0.32639811  0.85161013  0.25125973  1
  O  O67  1  0.52580859  0.68181360  0.25449301  1
  O  O68  1  0.15552136  0.46435346  0.25388839  1
  O  O69  1  0.31424878  0.48263247  0.75637001  1
  O  O70  1  0.15548266  0.67406737  0.75419845  1
  O  O71  1  0.48988424  0.79851329  0.76033395  1
loop_
_geom_bond_atom_site_label_1
_geom_bond_atom_site_label_2
_geom_bond_distance
_geom_bond_site_symmetry_2
Na0 O31 2.375047 1_555
Na0 O66 2.495396 1_555
Na0 O53 2.555955 1_565
Na0 O67 2.611281 1_555
Na0 O52 2.625630 1_565
Na0 O2 2.955047 1_565
Na1 O17 2.435451 1_555
Na1 O51 2.471871 1_555
Na1 O67 2.595382 1_555
Na1 O68 2.599723 1_555
Na1 O53 2.646533 1_555
Na2 O71 2.447478 1_555
Na2 O49 2.454032 1_555
Na2 O6 2.602864 1_555
Na2 O69 2.656964 1_555
Na2 O14 2.692598 1_555
Na2 O50 2.713636 1_555
Na3 O64 2.375443 1_555
Na3 O43 2.585920 1_555
Na3 O42 2.718074 1_455
Na3 O7 2.729723 1_555
Na3 O65 2.740863 1_555
Na3 O14 2.868992 1_555
Na3 O28 2.920895 1_555
Na4 O44 2.351163 1_455
Na4 O63 2.604037 1_555
Na4 O65 2.648857 1_555
Na4 O29 2.704841 1_555
Na4 O43 2.746835 1_565
Na4 O8 2.827655 1_555
Na5 O64 2.400261 1_555
Na5 O44 2.452905 1_555
Na5 O27 2.675543 1_555
Na5 O6 2.705216 1_555
Na5 O42 2.738754 1_565
Na5 O63 2.796553 1_555
Na6 O26 2.322718 1_554
Na6 O47 2.396621 1_565
Na6 O62 2.614718 1_555
Na6 O45 2.631118 1_455
Na6 O61 2.695806 1_555
Na6 O18 2.909796 1_565
Na6 O11 2.990099 1_555
Na7 O60 2.269820 1_555
Na7 O25 2.384246 1_554
Na7 O47 2.496965 1_555
Na7 O46 2.632931 1_455
Na7 O61 2.635628 1_555
Na8 O55 2.513839 1_555
Na8 O40 2.531951 1_655
Na8 O41 2.537143 1_555
Na8 O33 2.749789 1_655
Na8 O4 2.803524 1_555
Na8 O19 2.827391 1_556
Na8 O54 2.839702 1_555
Na9 O5 2.260935 1_545
Na9 O39 2.370293 1_555
Na9 O56 2.608455 1_555
Na9 O55 2.777114 1_555
Na9 O34 2.778672 1_545
Na9 O41 2.809290 1_545
Na10 O40 2.367444 1_545
Na10 O39 2.581931 1_455
Na10 O56 2.696424 1_555
Na10 O54 2.755676 1_555
Na10 O3 2.824320 1_555
Na10 O18 2.867017 1_556
Na11 O36 2.453841 1_555
Na11 O37 2.457136 1_555
Na11 O58 2.649710 1_555
Na11 O59 2.707815 1_555
Na11 O22 2.788938 1_555
Na11 O1 2.871076 1_555
Na11 O27 2.896207 1_555
Na12 O37 2.316990 1_555
Na12 O44 2.491347 1_555
Na12 O36 2.615624 1_555
Na12 O42 2.738158 1_565
Na12 O38 2.805780 1_665
Na12 O43 2.952875 1_665
Na13 O47 2.423804 1_556
Na13 O40 2.425404 1_545
Na13 O39 2.605076 1_455
Na13 O46 2.848506 1_456
Na13 O45 2.860193 1_446
Na13 O41 2.889129 1_445
Na14 O48 2.194639 1_555
Na14 O56 2.602507 1_555
Na14 O55 2.729171 1_555
Na14 O50 2.744195 1_555
Na14 O49 2.779232 1_555
Na15 O57 2.363311 1_555
Na15 O59 2.544247 1_555
Na15 O58 2.612637 1_555
Na15 O52 2.699003 1_555
Na15 O53 2.778496 1_555
Na15 O51 2.929605 1_555
Na16 O60 2.289045 1_555
Na16 O67 2.746156 1_555
Na16 O62 2.751232 1_555
Na16 O61 2.758667 1_555
Na16 O68 2.772028 1_555
Na16 O66 2.888976 1_555
Na17 O71 2.345160 1_555
Na17 O69 2.555868 1_555
Na17 O70 2.645332 1_555
Na17 O64 2.667621 1_555
Ca0 O37 2.190249 1_445
Ca0 O2 2.244688 1_455
Ca0 O0 2.304255 1_555
Ca0 O1 2.331276 1_445
Ca0 O38 2.337357 1_555
Ca0 O36 2.407304 1_445
Ca1 O5 2.165491 1_545
Ca1 O39 2.251706 1_555
Ca1 O3 2.264667 1_655
Ca1 O4 2.333949 1_545
Ca1 O40 2.359579 1_645
Ca1 O41 2.394314 1_545
Ca2 O6 2.180824 1_555
Ca2 O8 2.341184 1_655
Ca2 O44 2.380735 1_555
Ca2 O7 2.462053 1_665
Ca2 O42 2.481325 1_565
Ca2 O43 2.538667 1_665
Ca3 O47 2.272122 1_565
Ca3 O10 2.312779 1_565
Ca3 O11 2.315935 1_555
Ca3 O45 2.336623 1_455
Ca3 O9 2.341818 1_455
Ca3 O46 2.392956 1_465
Ca4 O48 2.200204 1_555
Ca4 O14 2.235282 1_555
Ca4 O13 2.263110 1_555
Ca4 O12 2.286504 1_555
Ca4 O49 2.345270 1_555
Ca4 O50 2.369531 1_555
Ca5 O17 2.136712 1_555
Ca5 O15 2.205137 1_555
Ca5 O16 2.266650 1_555
Ca5 O51 2.316406 1_555
Ca5 O53 2.353247 1_555
Ca5 O52 2.403348 1_555
Ca6 O25 2.176256 1_554
Ca6 O26 2.239161 1_554
Ca6 O24 2.246905 1_554
Ca6 O60 2.279689 1_555
Ca6 O61 2.356333 1_555
Ca6 O62 2.370980 1_555
Ca7 O27 2.120661 1_555
Ca7 O64 2.277685 1_555
Ca7 O28 2.291806 1_555
Ca7 O63 2.370340 1_555
Ca7 O29 2.381122 1_555
Ca7 O65 2.387826 1_555
Ca8 O31 2.202414 1_555
Ca8 O30 2.280183 1_555
Ca8 O66 2.371865 1_555
Ca8 O32 2.396678 1_555
Ca8 O67 2.399421 1_555
Ca8 O68 2.549457 1_555
O0 S0 1.470538 1_545
O1 S1 1.474034 1_555
O2 S2 1.476769 1_655
O3 S3 1.467364 1_555
O4 S4 1.474019 1_655
O5 Si0 1.614534 1_555
O6 Si0 1.659834 1_555
O7 S3 1.487583 1_555
O8 S4 1.487032 1_555
O9 S1 1.478660 1_555
O10 S2 1.493535 1_555
O11 S0 1.481409 1_555
O12 S5 1.462408 1_555
O13 S6 1.461057 1_555
O14 Si1 1.608761 1_555
O15 S7 1.458700 1_555
O16 S8 1.469910 1_555
O17 Si2 1.613622 1_555
O18 Si2 1.730801 1_555
O18 Sn0 1.986581 1_554
O19 S7 1.519503 1_555
O19 Sn0 2.235898 1_554
O20 S8 1.529709 1_555
O20 Sn0 2.175369 1_554
O21 S6 1.515322 1_555
O21 Sn1 2.157893 1_555
O22 Si1 1.721615 1_555
O22 Sn1 1.972223 1_555
O23 S5 1.514101 1_555
O23 Sn1 2.164840 1_555
O24 S9 1.447067 1_555
O25 Si3 1.595495 1_555
O26 Si4 1.603586 1_555
O27 Si5 1.623392 1_555
O28 S10 1.475653 1_555
O29 S11 1.472039 1_555
O30 S11 1.467491 1_555
O31 Si5 1.641855 1_555
O32 S10 1.491911 1_555
O33 Si3 1.699143 1_555
O33 Sn2 2.003599 1_555
O34 Si4 1.677011 1_555
O34 Sn2 2.003076 1_555
O35 S9 1.504181 1_555
O35 Sn2 2.414946 1_555
O36 S11 1.487285 1_655
O37 Si5 1.637742 1_555
O38 S10 1.461555 1_555
O39 Si3 1.620362 1_655
O40 Si4 1.633455 1_555
O41 S9 1.484827 1_555
O42 S5 1.493668 1_555
O43 S6 1.489547 1_555
O44 Si1 1.656864 1_555
O45 S7 1.483388 1_555
O46 S8 1.480553 1_555
O47 Si2 1.668120 1_555
O48 Si0 1.608413 1_545
O49 S3 1.487034 1_555
O50 S4 1.482596 1_655
O51 S1 1.490030 1_555
O52 S2 1.493990 1_655
O53 S0 1.510539 1_545
O54 S9 1.519237 1_555
O54 Sn0 2.243134 1_555
O55 Si3 1.703194 1_655
O55 Sn0 2.052497 1_555
O56 Si4 1.700515 1_545
O56 Sn0 2.047870 1_555
O57 Si5 1.703725 1_545
O57 Sn1 1.954939 1_555
O58 S10 1.531584 1_555
O58 Sn1 2.245393 1_555
O59 S11 1.527304 1_655
O59 Sn1 2.188726 1_555
O60 Si2 1.628542 1_555
O61 S7 1.484027 1_455
O62 S8 1.473572 1_565
O63 S6 1.485676 1_565
O64 Si1 1.648496 1_555
O65 S5 1.482494 1_455
O66 S0 1.493939 1_555
O67 S1 1.514856 1_555
O68 S2 1.492991 1_555
O69 S3 1.516920 1_555
O69 Sn2 2.333594 1_555
O70 S4 1.513852 1_555
O70 Sn2 2.193144 1_555
O71 Si0 1.727451 1_555
O71 Sn2 1.987608 1_555
