# generated using pymatgen
data_TcCl4
_symmetry_space_group_name_H-M   'P 1'
_cell_length_a   6.07604426
_cell_length_b   11.96648068
_cell_length_c   14.39135202
_cell_angle_alpha   90.00000000
_cell_angle_beta   90.00000000
_cell_angle_gamma   90.00000000
_symmetry_Int_Tables_number   1
_chemical_formula_structural   TcCl4
_chemical_formula_sum   'Tc8 Cl32'
_cell_volume   1046.37888915
_cell_formula_units_Z   8
loop_
 _symmetry_equiv_pos_site_id
 _symmetry_equiv_pos_as_xyz
  1  'x, y, z'
loop_
 _atom_site_type_symbol
 _atom_site_label
 _atom_site_symmetry_multiplicity
 _atom_site_fract_x
 _atom_site_fract_y
 _atom_site_fract_z
 _atom_site_occupancy
  Tc  Tc0  1  0.89789074  0.62842119  0.32026585  1
  Tc  Tc1  1  0.39789074  0.87157881  0.67973415  1
  Tc  Tc2  1  0.10211635  0.12841926  0.17973420  1
  Tc  Tc3  1  0.60211635  0.37158074  0.82026580  1
  Tc  Tc4  1  0.10211635  0.37158074  0.67973420  1
  Tc  Tc5  1  0.60211635  0.12841926  0.32026580  1
  Tc  Tc6  1  0.89789074  0.87157881  0.82026585  1
  Tc  Tc7  1  0.39789074  0.62842119  0.17973415  1
  Cl  Cl0  1  0.75189197  0.51228596  0.42589100  1
  Cl  Cl1  1  0.25189197  0.98771404  0.57410900  1
  Cl  Cl2  1  0.24811088  0.01228235  0.07411176  1
  Cl  Cl3  1  0.74811088  0.48771765  0.92588824  1
  Cl  Cl4  1  0.24811088  0.48771765  0.57411176  1
  Cl  Cl5  1  0.74811088  0.01228235  0.42588824  1
  Cl  Cl6  1  0.75189197  0.98771404  0.92589100  1
  Cl  Cl7  1  0.25189197  0.51228596  0.07410900  1
  Cl  Cl8  1  0.57345621  0.73982900  0.30664381  1
  Cl  Cl9  1  0.07345621  0.76017100  0.69335619  1
  Cl  Cl10  1  0.42654099  0.23982770  0.19336163  1
  Cl  Cl11  1  0.92654099  0.26017230  0.80663837  1
  Cl  Cl12  1  0.42654099  0.26017230  0.69336163  1
  Cl  Cl13  1  0.92654099  0.23982770  0.30663837  1
  Cl  Cl14  1  0.57345621  0.76017100  0.80664381  1
  Cl  Cl15  1  0.07345621  0.73982900  0.19335619  1
  Cl  Cl16  1  0.22205144  0.51671622  0.30660299  1
  Cl  Cl17  1  0.72205144  0.98328378  0.69339701  1
  Cl  Cl18  1  0.77793735  0.01671313  0.19339414  1
  Cl  Cl19  1  0.27793735  0.48328687  0.80660586  1
  Cl  Cl20  1  0.77793735  0.48328687  0.69339414  1
  Cl  Cl21  1  0.27793735  0.01671313  0.30660586  1
  Cl  Cl22  1  0.22205144  0.98328378  0.80660299  1
  Cl  Cl23  1  0.72205144  0.51671622  0.19339701  1
  Cl  Cl24  1  0.54385567  0.74481734  0.07435804  1
  Cl  Cl25  1  0.04385567  0.75518266  0.92564196  1
  Cl  Cl26  1  0.45615040  0.24481576  0.42564367  1
  Cl  Cl27  1  0.95615040  0.25518424  0.57435633  1
  Cl  Cl28  1  0.45615040  0.25518424  0.92564367  1
  Cl  Cl29  1  0.95615040  0.24481576  0.07435633  1
  Cl  Cl30  1  0.54385567  0.75518266  0.57435804  1
  Cl  Cl31  1  0.04385567  0.74481734  0.42564196  1
loop_
_geom_bond_atom_site_label_1
_geom_bond_atom_site_label_2
_geom_bond_distance
_geom_bond_site_symmetry_2
Cl0 Tc0 2.242534 1_555
Cl1 Tc1 2.242534 1_555
Cl2 Tc2 2.242509 1_555
Cl3 Tc3 2.242509 1_555
Cl4 Tc4 2.242509 1_555
Cl5 Tc5 2.242509 1_555
Cl6 Tc6 2.242534 1_555
Cl7 Tc7 2.242534 1_555
Cl8 Tc0 2.387820 1_555
Cl8 Tc7 2.500200 1_555
Cl9 Tc1 2.387820 1_555
Cl9 Tc6 2.500200 1_455
Cl10 Tc2 2.387781 1_555
Cl10 Tc5 2.500172 1_555
Cl11 Tc3 2.387781 1_555
Cl11 Tc4 2.500172 1_655
Cl12 Tc4 2.387781 1_555
Cl12 Tc3 2.500172 1_555
Cl13 Tc5 2.387781 1_555
Cl13 Tc2 2.500172 1_655
Cl14 Tc6 2.387820 1_555
Cl14 Tc1 2.500200 1_555
Cl15 Tc7 2.387820 1_555
Cl15 Tc0 2.500200 1_455
Cl16 Tc0 2.388483 1_455
Cl16 Tc7 2.502379 1_555
Cl17 Tc1 2.388483 1_555
Cl17 Tc6 2.502379 1_555
Cl18 Tc2 2.388579 1_655
Cl18 Tc5 2.502368 1_555
Cl19 Tc3 2.388579 1_555
Cl19 Tc4 2.502368 1_555
Cl20 Tc4 2.388579 1_655
Cl20 Tc3 2.502368 1_555
Cl21 Tc5 2.388579 1_555
Cl21 Tc2 2.502368 1_555
Cl22 Tc6 2.388483 1_455
Cl22 Tc1 2.502379 1_555
Cl23 Tc7 2.388483 1_555
Cl23 Tc0 2.502379 1_555
Cl24 Tc7 2.241963 1_555
Cl25 Tc6 2.241963 1_455
Cl26 Tc5 2.241985 1_555
Cl27 Tc4 2.241985 1_655
Cl28 Tc3 2.241985 1_555
Cl29 Tc2 2.241985 1_655
Cl30 Tc1 2.241963 1_555
Cl31 Tc0 2.241963 1_455
