# generated using pymatgen
data_NaMgAl3(SO4)6
_symmetry_space_group_name_H-M   'P 1'
_cell_length_a   8.35267482
_cell_length_b   8.35267457
_cell_length_c   21.80671981
_cell_angle_alpha   90.00000000
_cell_angle_beta   90.00000000
_cell_angle_gamma   120.00000097
_symmetry_Int_Tables_number   1
_chemical_formula_structural   NaMgAl3(SO4)6
_chemical_formula_sum   'Na3 Mg3 Al9 S18 O72'
_cell_volume   1317.56517199
_cell_formula_units_Z   3
loop_
 _symmetry_equiv_pos_site_id
 _symmetry_equiv_pos_as_xyz
  1  'x, y, z'
loop_
 _atom_site_type_symbol
 _atom_site_label
 _atom_site_symmetry_multiplicity
 _atom_site_fract_x
 _atom_site_fract_y
 _atom_site_fract_z
 _atom_site_occupancy
  Na  Na0  1  -0.00000000  -0.00000000  0.99886029  1
  Na  Na1  1  0.66666700  0.33333300  0.83441397  1
  Na  Na2  1  0.66666700  0.33333300  0.33320060  1
  Mg  Mg0  1  -0.00000000  -0.00000000  0.35550237  1
  Mg  Mg1  1  -0.00000000  -0.00000000  0.85258223  1
  Mg  Mg2  1  0.66666700  0.33333300  0.98055311  1
  Al  Al0  1  -0.00000000  -0.00000000  0.64616305  1
  Al  Al1  1  -0.00000000  -0.00000000  0.14971107  1
  Al  Al2  1  0.66666700  0.33333300  0.68419496  1
  Al  Al3  1  0.66666700  0.33333300  0.18365633  1
  Al  Al4  1  0.66666700  0.33333300  0.48133785  1
  Al  Al5  1  0.33333300  0.66666700  0.02199087  1
  Al  Al6  1  0.33333300  0.66666700  0.52164712  1
  Al  Al7  1  0.33333300  0.66666700  0.31221816  1
  Al  Al8  1  0.33333300  0.66666700  0.81115320  1
  S  S0  1  0.29342432  0.00007789  0.24956812  1
  S  S1  1  0.70665358  0.70657568  0.24956812  1
  S  S2  1  0.99992211  0.29334642  0.24956812  1
  S  S3  1  0.29283043  0.29271408  0.74869904  1
  S  S4  1  0.99988365  0.70716957  0.74869904  1
  S  S5  1  0.70728592  0.00011635  0.74869904  1
  S  S6  1  0.95616114  0.33277230  0.58321123  1
  S  S7  1  0.37661216  0.04383886  0.58321123  1
  S  S8  1  0.66722770  0.62338784  0.58321123  1
  S  S9  1  0.96030900  0.62738476  0.08418149  1
  S  S10  1  0.66707677  0.03969100  0.08418149  1
  S  S11  1  0.37261524  0.33292323  0.08418149  1
  S  S12  1  0.61557763  0.66671704  0.91664305  1
  S  S13  1  0.05113841  0.38442237  0.91664305  1
  S  S14  1  0.33328296  0.94886159  0.91664305  1
  S  S15  1  0.61612823  0.95343733  0.41805579  1
  S  S16  1  0.33730810  0.38387177  0.41805579  1
  S  S17  1  0.04656267  0.66269190  0.41805579  1
  O  O0  1  0.21921324  0.04030189  0.30422003  1
  O  O1  1  0.82108866  0.78078676  0.30422003  1
  O  O2  1  0.95969811  0.17891134  0.30422003  1
  O  O3  1  0.22017074  0.17952509  0.80378504  1
  O  O4  1  0.95935435  0.77982926  0.80378504  1
  O  O5  1  0.82047491  0.04064565  0.80378504  1
  O  O6  1  0.79226727  0.96733479  0.69386974  1
  O  O7  1  0.17506752  0.20773273  0.69386974  1
  O  O8  1  0.03266521  0.82493248  0.69386974  1
  O  O9  1  0.79115902  0.82402981  0.19444145  1
  O  O10  1  0.03287079  0.20884098  0.19444145  1
  O  O11  1  0.17597019  0.96712921  0.19444145  1
  O  O12  1  0.87309169  0.36906091  0.63788475  1
  O  O13  1  0.49597022  0.12690831  0.63788475  1
  O  O14  1  0.63093909  0.50402978  0.63788475  1
  O  O15  1  0.87515402  0.50925295  0.13892276  1
  O  O16  1  0.63409993  0.12484598  0.13892276  1
  O  O17  1  0.49074705  0.36590007  0.13892276  1
  O  O18  1  0.44631649  0.29260631  0.02924422  1
  O  O19  1  0.84629082  0.55368351  0.02924422  1
  O  O20  1  0.70739369  0.15370918  0.02924422  1
  O  O21  1  0.45972948  0.16307803  0.52840178  1
  O  O22  1  0.70334954  0.54027052  0.52840178  1
  O  O23  1  0.83692197  0.29665046  0.52840178  1
  O  O24  1  0.53101290  0.69368363  0.97277631  1
  O  O25  1  0.16266974  0.46898710  0.97277631  1
  O  O26  1  0.30631637  0.83733026  0.97277631  1
  O  O27  1  0.53012393  0.83975009  0.47308324  1
  O  O28  1  0.30962517  0.46987607  0.47308324  1
  O  O29  1  0.16024991  0.69037483  0.47308324  1
  O  O30  1  0.12619562  0.62625606  0.36206752  1
  O  O31  1  0.50005945  0.87380438  0.36206752  1
  O  O32  1  0.37374394  0.49994055  0.36206752  1
  O  O33  1  0.13572399  0.49604984  0.86053402  1
  O  O34  1  0.36032485  0.86427601  0.86053402  1
  O  O35  1  0.50395016  0.63967515  0.86053402  1
  O  O36  1  0.02655890  0.82425496  0.41117335  1
  O  O37  1  0.79769606  0.97344110  0.41117335  1
  O  O38  1  0.17574504  0.20230394  0.41117335  1
  O  O39  1  0.03457878  0.20106616  0.91227407  1
  O  O40  1  0.16648739  0.96542122  0.91227407  1
  O  O41  1  0.79893384  0.83351261  0.91227407  1
  O  O42  1  0.97388630  0.16780484  0.59287320  1
  O  O43  1  0.19391854  0.02611370  0.59287320  1
  O  O44  1  0.83219516  0.80608146  0.59287320  1
  O  O45  1  0.98149638  0.81416633  0.09411219  1
  O  O46  1  0.83266995  0.01850362  0.09411219  1
  O  O47  1  0.18583367  0.16733005  0.09411219  1
  O  O48  1  0.68557675  0.16593489  0.73896889  1
  O  O49  1  0.48035913  0.31442325  0.73896889  1
  O  O50  1  0.83406511  0.51964087  0.73896889  1
  O  O51  1  0.68500818  0.51945799  0.23943562  1
  O  O52  1  0.83445080  0.31499182  0.23943562  1
  O  O53  1  0.48054201  0.16554920  0.23943562  1
  O  O54  1  0.63207939  0.49984748  0.92104176  1
  O  O55  1  0.86776909  0.36792061  0.92104176  1
  O  O56  1  0.50015252  0.13223091  0.92104176  1
  O  O57  1  0.63195426  0.13991050  0.42538918  1
  O  O58  1  0.50795724  0.36804574  0.42538918  1
  O  O59  1  0.86008950  0.49204276  0.42538918  1
  O  O60  1  0.35460414  0.49852275  0.07619599  1
  O  O61  1  0.14391761  0.64539586  0.07619599  1
  O  O62  1  0.50147725  0.85608239  0.07619599  1
  O  O63  1  0.35854650  0.86099961  0.57409332  1
  O  O64  1  0.50245212  0.64145350  0.57409332  1
  O  O65  1  0.13900039  0.49754788  0.57409332  1
  O  O66  1  0.31119630  0.83416381  0.25776061  1
  O  O67  1  0.52296651  0.68880370  0.25776061  1
  O  O68  1  0.16583619  0.47703349  0.25776061  1
  O  O69  1  0.31171347  0.47693001  0.75691918  1
  O  O70  1  0.16521553  0.68828653  0.75691918  1
  O  O71  1  0.52306999  0.83478447  0.75691918  1
loop_
_geom_bond_atom_site_label_1
_geom_bond_atom_site_label_2
_geom_bond_distance
_geom_bond_site_symmetry_2
Na0 O39 2.446227 1_555
Na0 O41 2.446227 1_445
Na0 O40 2.446227 1_545
Na0 O45 2.551041 1_446
Na0 O47 2.551041 1_556
Na0 O46 2.551041 1_456
Na1 O56 2.447099 1_555
Na1 O54 2.447099 1_555
Na1 O55 2.447099 1_555
Na1 O48 2.555936 1_555
Na1 O50 2.555936 1_555
Na1 O49 2.555936 1_555
Na2 O57 2.503440 1_555
Na2 O59 2.503440 1_555
Na2 O58 2.503440 1_555
Na2 O52 2.526467 1_555
Na2 O53 2.526467 1_555
Na2 O51 2.526467 1_555
Mg0 O38 2.000877 1_555
Mg0 O36 2.000877 1_545
Mg0 O37 2.000877 1_445
Mg0 O2 2.024886 1_455
Mg0 O1 2.024886 1_445
Mg0 O0 2.024886 1_555
Mg1 O4 2.001303 1_445
Mg1 O3 2.001303 1_555
Mg1 O5 2.001303 1_455
Mg1 O39 2.028116 1_555
Mg1 O41 2.028116 1_445
Mg1 O40 2.028116 1_545
Mg2 O19 2.001131 1_556
Mg2 O20 2.001131 1_556
Mg2 O18 2.001131 1_556
Mg2 O56 2.025799 1_555
Mg2 O54 2.025799 1_555
Mg2 O55 2.025799 1_555
Al0 O44 1.915269 1_445
Al0 O42 1.915269 1_455
Al0 O43 1.915269 1_555
Al0 O7 1.921968 1_555
Al0 O8 1.921968 1_545
Al0 O6 1.921968 1_445
Al1 O10 1.894930 1_555
Al1 O9 1.894930 1_445
Al1 O11 1.894930 1_545
Al1 O45 1.913980 1_445
Al1 O47 1.913980 1_555
Al1 O46 1.913980 1_455
Al2 O13 1.888709 1_555
Al2 O14 1.888709 1_555
Al2 O12 1.888709 1_555
Al2 O48 1.904601 1_555
Al2 O50 1.904601 1_555
Al2 O49 1.904601 1_555
Al3 O16 1.893260 1_555
Al3 O15 1.893260 1_555
Al3 O17 1.893260 1_555
Al3 O52 1.918789 1_555
Al3 O53 1.918789 1_555
Al3 O51 1.918789 1_555
Al4 O23 1.898747 1_555
Al4 O21 1.898747 1_555
Al4 O22 1.898747 1_555
Al4 O57 1.927258 1_555
Al4 O59 1.927258 1_555
Al4 O58 1.927258 1_555
Al5 O26 1.885845 1_554
Al5 O25 1.885845 1_554
Al5 O24 1.885845 1_554
Al5 O62 1.910706 1_555
Al5 O60 1.910706 1_555
Al5 O61 1.910706 1_555
Al6 O29 1.880714 1_555
Al6 O27 1.880714 1_555
Al6 O28 1.880714 1_555
Al6 O63 1.909261 1_555
Al6 O65 1.909261 1_555
Al6 O64 1.909261 1_555
Al7 O68 1.913232 1_555
Al7 O66 1.913232 1_555
Al7 O67 1.913232 1_555
Al7 O31 1.924848 1_555
Al7 O30 1.924848 1_555
Al7 O32 1.924849 1_555
Al8 O34 1.887494 1_555
Al8 O33 1.887494 1_555
Al8 O35 1.887494 1_555
Al8 O69 1.912263 1_555
Al8 O71 1.912263 1_555
Al8 O70 1.912263 1_555
O0 S0 1.457980 1_555
O1 S1 1.457980 1_555
O2 S2 1.457980 1_555
O3 S3 1.459923 1_555
O4 S4 1.459923 1_555
O5 S5 1.459923 1_555
O6 S5 1.484167 1_565
O7 S3 1.484167 1_555
O8 S4 1.484167 1_455
O9 S1 1.487729 1_555
O10 S2 1.487729 1_455
O11 S0 1.487729 1_565
O12 S6 1.484950 1_555
O13 S7 1.484950 1_555
O14 S8 1.484950 1_555
O15 S9 1.484142 1_555
O16 S10 1.484143 1_555
O17 S11 1.484142 1_555
O18 S11 1.461124 1_555
O19 S9 1.461124 1_555
O20 S10 1.461124 1_555
O21 S7 1.486950 1_555
O22 S8 1.486950 1_555
O23 S6 1.486950 1_555
O24 S12 1.485641 1_555
O25 S13 1.485641 1_555
O26 S14 1.485641 1_555
O27 S15 1.474973 1_555
O28 S16 1.474973 1_555
O29 S17 1.474973 1_555
O30 S17 1.492688 1_555
O31 S15 1.492688 1_555
O32 S16 1.492688 1_555
O33 S13 1.485547 1_555
O34 S14 1.485547 1_555
O35 S12 1.485547 1_555
O36 S17 1.448112 1_555
O37 S15 1.448120 1_555
O38 S16 1.448116 1_555
O39 S13 1.470344 1_555
O40 S14 1.470336 1_555
O41 S12 1.470340 1_555
O42 S6 1.472745 1_555
O43 S7 1.472754 1_555
O44 S8 1.472750 1_555
O45 S9 1.495363 1_555
O46 S10 1.495355 1_555
O47 S11 1.495359 1_555
O48 S5 1.499117 1_555
O49 S3 1.499125 1_555
O50 S4 1.499122 1_555
O51 S1 1.497229 1_555
O52 S2 1.497221 1_555
O53 S0 1.497226 1_555
O54 S12 1.470718 1_555
O55 S13 1.470701 1_655
O56 S14 1.470708 1_545
O57 S15 1.504366 1_545
O58 S16 1.504382 1_555
O59 S17 1.504373 1_655
O60 S11 1.474546 1_555
O61 S9 1.474529 1_455
O62 S10 1.474536 1_565
O63 S7 1.471117 1_565
O64 S8 1.471133 1_555
O65 S6 1.471124 1_455
O66 S0 1.476544 1_565
O67 S1 1.476553 1_555
O68 S2 1.476549 1_455
O69 S3 1.477127 1_555
O70 S4 1.477119 1_455
O71 S5 1.477124 1_565
