# generated using pymatgen
data_K3H(SO4)2
_symmetry_space_group_name_H-M   'P 1'
_cell_length_a   8.04213337
_cell_length_b   8.04213337
_cell_length_c   9.94820016
_cell_angle_alpha   78.01880622
_cell_angle_beta   78.01880622
_cell_angle_gamma   42.09751603
_symmetry_Int_Tables_number   1
_chemical_formula_structural   K3H(SO4)2
_chemical_formula_sum   'K6 H2 S4 O16'
_cell_volume   420.53192601
_cell_formula_units_Z   2
loop_
 _symmetry_equiv_pos_site_id
 _symmetry_equiv_pos_as_xyz
  1  'x, y, z'
loop_
 _atom_site_type_symbol
 _atom_site_label
 _atom_site_symmetry_multiplicity
 _atom_site_fract_x
 _atom_site_fract_y
 _atom_site_fract_z
 _atom_site_occupancy
  K  K0  1  0.75292300  0.24707700  0.25000000  1
  K  K1  1  0.24707700  0.75292300  0.75000000  1
  K  K2  1  0.03695300  0.57801400  0.15230300  1
  K  K3  1  0.42198600  0.96304700  0.34769700  1
  K  K4  1  0.96304700  0.42198600  0.84769700  1
  K  K5  1  0.57801400  0.03695300  0.65230300  1
  H  H0  1  0.50000000  0.50000000  0.50000000  1
  H  H1  1  0.50000000  0.50000000  0.00000000  1
  S  S0  1  0.83952500  0.39222900  0.53701700  1
  S  S1  1  0.60777100  0.16047500  0.96298300  1
  S  S2  1  0.16047500  0.60777100  0.46298300  1
  S  S3  1  0.39222900  0.83952500  0.03701700  1
  O  O0  1  0.67643000  0.63207500  0.59683300  1
  O  O1  1  0.36792500  0.32357000  0.90316700  1
  O  O2  1  0.32357000  0.36792500  0.40316700  1
  O  O3  1  0.63207500  0.67643000  0.09683300  1
  O  O4  1  0.06853700  0.18553700  0.60850800  1
  O  O5  1  0.81446300  0.93146300  0.89149200  1
  O  O6  1  0.93146300  0.81446300  0.39149200  1
  O  O7  1  0.18553700  0.06853700  0.10850800  1
  O  O8  1  0.33169100  0.69072000  0.05824900  1
  O  O9  1  0.30928000  0.66830900  0.44175100  1
  O  O10  1  0.66830900  0.30928000  0.94175100  1
  O  O11  1  0.69072000  0.33169100  0.55824900  1
  O  O12  1  0.41288100  0.89232700  0.88600200  1
  O  O13  1  0.10767300  0.58711900  0.61399800  1
  O  O14  1  0.58711900  0.10767300  0.11399800  1
  O  O15  1  0.89232700  0.41288100  0.38600200  1
loop_
_geom_bond_atom_site_label_1
_geom_bond_atom_site_label_2
_geom_bond_distance
_geom_bond_site_symmetry_2
K0 O6 2.745886 1_545
K0 O7 2.745886 1_655
K0 O15 2.909064 1_555
K0 O14 2.909064 1_555
K0 O2 2.939271 1_555
K0 O3 2.939271 1_555
K0 O8 3.124910 1_555
K0 O9 3.124910 1_555
K0 O11 3.137062 1_555
K0 O10 3.137062 1_554
K1 O5 2.745886 1_455
K1 O4 2.745886 1_565
K1 O12 2.909064 1_555
K1 O13 2.909064 1_555
K1 O1 2.939271 1_555
K1 O0 2.939271 1_555
K1 O10 3.124910 1_555
K1 O11 3.124910 1_555
K1 O9 3.137062 1_555
K1 O8 3.137062 1_556
K2 O3 2.876322 1_455
K2 O14 2.899476 1_465
K2 O15 2.899865 1_455
K2 O6 2.940085 1_455
K2 O1 2.949340 1_554
K2 O14 3.015182 1_555
K2 O8 3.038234 1_555
K2 O2 3.042075 1_555
K2 O5 3.054665 1_454
K3 O2 2.876322 1_565
K3 O15 2.899476 1_465
K3 O14 2.899865 1_565
K3 O7 2.940085 1_565
K3 O0 2.949340 1_555
K3 O15 3.015182 1_555
K3 O9 3.038234 1_555
K3 O3 3.042075 1_555
K3 O4 3.054665 1_565
K4 O1 2.876322 1_655
K4 O12 2.899476 1_645
K4 O13 2.899865 1_655
K4 O4 2.940085 1_655
K4 O3 2.949340 1_556
K4 O12 3.015182 1_555
K4 O10 3.038234 1_555
K4 O0 3.042075 1_555
K4 O7 3.054665 1_656
K5 O0 2.876322 1_545
K5 O13 2.899476 1_645
K5 O12 2.899865 1_545
K5 O5 2.940085 1_545
K5 O2 2.949340 1_555
K5 O13 3.015182 1_555
K5 O11 3.038234 1_555
K5 O1 3.042075 1_555
K5 O6 3.054665 1_545
H0 O11 1.217734 1_555
H0 O9 1.217734 1_555
H0 K1 2.884482 1_555
H0 K0 2.884482 1_555
H1 O10 1.217734 1_554
H1 O8 1.217734 1_555
H1 K1 2.884482 1_554
H1 K0 2.884482 1_555
O0 S0 1.480885 1_555
O1 S1 1.480885 1_555
O2 S2 1.480885 1_555
O3 S3 1.480885 1_555
O4 S0 1.473332 1_455
O5 S1 1.473332 1_565
O6 S2 1.473332 1_655
O7 S3 1.473332 1_545
O8 S3 1.559081 1_555
O9 S2 1.559081 1_555
O10 S1 1.559081 1_555
O11 S0 1.559081 1_555
O12 S3 1.483609 1_556
O13 S2 1.483609 1_555
O14 S1 1.483609 1_554
O15 S0 1.483609 1_555
