# generated using pymatgen
data_La3ReO8
_symmetry_space_group_name_H-M   'P 1'
_cell_length_a   6.23926001
_cell_length_b   7.58766029
_cell_length_c   7.58797968
_cell_angle_alpha   69.81850469
_cell_angle_beta   90.00000000
_cell_angle_gamma   90.00000000
_symmetry_Int_Tables_number   1
_chemical_formula_structural   La3ReO8
_chemical_formula_sum   'La6 Re2 O16'
_cell_volume   337.17064102
_cell_formula_units_Z   2
loop_
 _symmetry_equiv_pos_site_id
 _symmetry_equiv_pos_as_xyz
  1  'x, y, z'
loop_
 _atom_site_type_symbol
 _atom_site_label
 _atom_site_symmetry_multiplicity
 _atom_site_fract_x
 _atom_site_fract_y
 _atom_site_fract_z
 _atom_site_occupancy
  La  La0  1  0.75000000  0.10855014  0.66075399  1
  La  La1  1  0.25000000  0.89144986  0.33924601  1
  La  La2  1  0.25000000  0.39774731  0.39736611  1
  La  La3  1  0.75000000  0.60225269  0.60263389  1
  La  La4  1  0.25000000  0.33850912  0.89139894  1
  La  La5  1  0.75000000  0.66149088  0.10860106  1
  Re  Re0  1  0.25000000  0.81956274  0.82002299  1
  Re  Re1  1  0.75000000  0.18043726  0.17997701  1
  O  O0  1  0.99984069  0.33538338  0.66440462  1
  O  O1  1  0.49984069  0.66461662  0.33559538  1
  O  O2  1  0.00015931  0.66461662  0.33559538  1
  O  O3  1  0.50015931  0.33538338  0.66440462  1
  O  O4  1  0.95154160  0.80361501  0.80369436  1
  O  O5  1  0.45154160  0.19638499  0.19630564  1
  O  O6  1  0.04845840  0.19638499  0.19630564  1
  O  O7  1  0.54845840  0.80361501  0.80369436  1
  O  O8  1  0.75000000  0.96908238  0.40573154  1
  O  O9  1  0.25000000  0.03091762  0.59426846  1
  O  O10  1  0.75000000  0.33773275  0.33743298  1
  O  O11  1  0.25000000  0.66226725  0.66256702  1
  O  O12  1  0.75000000  0.40647404  0.96898038  1
  O  O13  1  0.25000000  0.59352596  0.03101962  1
  O  O14  1  0.75000000  0.03352921  0.03239498  1
  O  O15  1  0.25000000  0.96647079  0.96760502  1
loop_
_geom_bond_atom_site_label_1
_geom_bond_atom_site_label_2
_geom_bond_distance
_geom_bond_site_symmetry_2
La0 O3 2.329353 1_555
La0 O0 2.329353 1_555
La0 O10 2.469662 1_555
La0 O8 2.505484 1_545
La0 O7 2.525766 1_545
La0 O4 2.525766 1_545
La0 O14 2.677471 1_556
La1 O2 2.329353 1_555
La1 O1 2.329353 1_555
La1 O11 2.469662 1_555
La1 O9 2.505484 1_565
La1 O6 2.525766 1_565
La1 O5 2.525766 1_565
La1 O15 2.677471 1_554
La2 O2 2.468809 1_555
La2 O1 2.468809 1_555
La2 O0 2.470684 1_455
La2 O3 2.470684 1_555
La2 O13 2.661747 1_555
La2 O9 2.666477 1_555
La2 O5 2.802063 1_555
La2 O6 2.802063 1_555
La3 O3 2.468809 1_555
La3 O0 2.468809 1_555
La3 O2 2.470684 1_655
La3 O1 2.470684 1_555
La3 O12 2.661747 1_555
La3 O8 2.666477 1_555
La3 O7 2.802063 1_555
La3 O4 2.802063 1_555
La4 O3 2.330586 1_555
La4 O0 2.330586 1_455
La4 O11 2.471142 1_555
La4 O13 2.506200 1_556
La4 O6 2.524976 1_556
La4 O5 2.524976 1_556
La4 O15 2.678962 1_545
La5 O2 2.330586 1_655
La5 O1 2.330586 1_555
La5 O10 2.471142 1_555
La5 O12 2.506200 1_554
La5 O7 2.524976 1_554
La5 O4 2.524976 1_554
La5 O14 2.678962 1_565
O4 Re0 1.872959 1_655
O5 Re1 1.872959 1_555
O6 Re1 1.872959 1_455
O7 Re0 1.872959 1_555
O8 Re1 1.900197 1_565
O9 Re0 1.900197 1_545
O10 Re1 1.958530 1_555
O11 Re0 1.958530 1_555
O12 Re1 1.900052 1_556
O13 Re0 1.900052 1_554
O14 Re1 1.832456 1_555
O15 Re0 1.832456 1_555
