# generated using pymatgen
data_MgFe4(OF)4
_symmetry_space_group_name_H-M   'P 1'
_cell_length_a   5.49656235
_cell_length_b   5.35195443
_cell_length_c   5.82659207
_cell_angle_alpha   86.75036481
_cell_angle_beta   86.86962439
_cell_angle_gamma   93.44224409
_symmetry_Int_Tables_number   1
_chemical_formula_structural   MgFe4(OF)4
_chemical_formula_sum   'Mg1 Fe4 O4 F4'
_cell_volume   170.52890339
_cell_formula_units_Z   1
loop_
 _symmetry_equiv_pos_site_id
 _symmetry_equiv_pos_as_xyz
  1  'x, y, z'
loop_
 _atom_site_type_symbol
 _atom_site_label
 _atom_site_symmetry_multiplicity
 _atom_site_fract_x
 _atom_site_fract_y
 _atom_site_fract_z
 _atom_site_occupancy
  Mg  Mg0  1  0.51541200  0.03928500  0.74451300  1
  Fe  Fe0  1  0.95678500  0.87509500  0.00736600  1
  Fe  Fe1  1  0.09727400  0.03304500  0.46439200  1
  Fe  Fe2  1  0.43733500  0.55752300  0.25066600  1
  Fe  Fe3  1  0.39745200  0.55003900  0.75033000  1
  O  O0  1  0.14497400  0.73172000  0.24633900  1
  O  O1  1  0.18707100  0.83187800  0.75670300  1
  O  O2  1  0.38413600  0.29687000  0.50129900  1
  O  O3  1  0.63078700  0.72743600  0.98500300  1
  F  F0  1  0.40141900  0.26353300  0.00423100  1
  F  F1  1  0.61142500  0.77584600  0.48418500  1
  F  F2  1  0.90928000  0.16239200  0.19234100  1
  F  F3  1  0.85442300  0.15534200  0.73763200  1
loop_
_geom_bond_atom_site_label_1
_geom_bond_atom_site_label_2
_geom_bond_distance
_geom_bond_site_symmetry_2
Mg0 O1 2.056896 1_545
Mg0 O2 2.106892 1_555
Mg0 O3 2.260577 1_545
Fe0 O1 1.913202 1_654
Fe0 O3 1.928579 1_554
Fe0 O0 1.931070 1_655
Fe1 O1 2.061870 1_545
Fe1 O2 2.080911 1_555
Fe1 O0 2.128460 1_545
Fe2 O0 1.906269 1_555
Fe2 O2 1.958963 1_555
Fe2 O3 1.974376 1_554
Fe3 O1 1.955744 1_555
Fe3 O2 2.041871 1_555
Fe3 O3 2.146724 1_555
F0 Fe3 2.071378 1_554
F0 Mg0 2.077408 1_554
F0 Fe2 2.196853 1_555
F1 Fe2 2.078557 1_555
F1 Fe3 2.160122 1_555
F1 Mg0 2.193515 1_565
F2 Fe0 1.949192 1_545
F2 Fe1 2.049389 1_655
F3 Mg0 1.926054 1_555
F3 Fe1 2.176195 1_655
F3 Fe0 2.228645 1_546
