# generated using pymatgen
data_K2UBr5
_symmetry_space_group_name_H-M   'P 1'
_cell_length_a   8.47860790
_cell_length_b   9.22935697
_cell_length_c   13.43828508
_cell_angle_alpha   90.00000000
_cell_angle_beta   90.00000000
_cell_angle_gamma   90.00000000
_symmetry_Int_Tables_number   1
_chemical_formula_structural   K2UBr5
_chemical_formula_sum   'K8 U4 Br20'
_cell_volume   1051.57401337
_cell_formula_units_Z   4
loop_
 _symmetry_equiv_pos_site_id
 _symmetry_equiv_pos_as_xyz
  1  'x, y, z'
loop_
 _atom_site_type_symbol
 _atom_site_label
 _atom_site_symmetry_multiplicity
 _atom_site_fract_x
 _atom_site_fract_y
 _atom_site_fract_z
 _atom_site_occupancy
  K  K0  1  0.44726954  0.50436741  0.67245258  1
  K  K1  1  0.94726954  0.49563259  0.82754742  1
  K  K2  1  0.55273046  0.00436741  0.32754742  1
  K  K3  1  0.05273046  0.99563259  0.17245258  1
  K  K4  1  0.55273046  0.49563259  0.32754742  1
  K  K5  1  0.05273046  0.50436741  0.17245258  1
  K  K6  1  0.44726954  0.99563259  0.67245258  1
  K  K7  1  0.94726954  0.00436741  0.82754742  1
  U  U0  1  0.92275692  0.75000000  0.50513087  1
  U  U1  1  0.57724308  0.75000000  0.00513087  1
  U  U2  1  0.07724308  0.25000000  0.49486913  1
  U  U3  1  0.42275692  0.25000000  0.99486913  1
  Br  Br0  1  0.56953521  0.75000000  0.50681126  1
  Br  Br1  1  0.33316395  0.95509688  0.92013139  1
  Br  Br2  1  0.83316395  0.04490312  0.57986861  1
  Br  Br3  1  0.66683605  0.45509688  0.07986861  1
  Br  Br4  1  0.06953521  0.25000000  0.99318874  1
  Br  Br5  1  0.66603889  0.75000000  0.79185789  1
  Br  Br6  1  0.93046479  0.75000000  0.00681126  1
  Br  Br7  1  0.43046479  0.25000000  0.49318874  1
  Br  Br8  1  0.12835290  0.75000000  0.68276124  1
  Br  Br9  1  0.16603889  0.25000000  0.70814211  1
  Br  Br10  1  0.33396111  0.25000000  0.20814211  1
  Br  Br11  1  0.83396111  0.75000000  0.29185789  1
  Br  Br12  1  0.66683605  0.04490312  0.07986861  1
  Br  Br13  1  0.62835290  0.25000000  0.81723876  1
  Br  Br14  1  0.87164710  0.25000000  0.31723876  1
  Br  Br15  1  0.37164710  0.75000000  0.18276124  1
  Br  Br16  1  0.83316395  0.45509688  0.57986861  1
  Br  Br17  1  0.33316395  0.54490312  0.92013139  1
  Br  Br18  1  0.16683605  0.95509688  0.42013139  1
  Br  Br19  1  0.16683605  0.54490312  0.42013139  1
loop_
_geom_bond_atom_site_label_1
_geom_bond_atom_site_label_2
_geom_bond_distance
_geom_bond_site_symmetry_2
Br0 U0 2.994914 1_555
Br0 K6 3.341982 1_555
Br0 K0 3.341982 1_555
Br0 K2 3.366753 1_565
Br0 K4 3.366753 1_555
Br1 U3 2.998959 1_565
Br1 U1 3.028279 1_556
Br1 K6 3.486264 1_555
Br1 K7 3.529834 1_465
Br2 U0 2.998959 1_545
Br2 U2 3.028279 1_655
Br2 K7 3.486264 1_555
Br2 K6 3.529834 1_545
Br3 U1 2.998959 1_555
Br3 U3 3.028279 1_554
Br3 K4 3.486264 1_555
Br3 K5 3.529834 1_655
Br4 U3 2.994914 1_555
Br4 K7 3.341982 1_455
Br4 K1 3.341982 1_455
Br4 K3 3.366753 1_546
Br4 K5 3.366753 1_556
Br5 U1 2.963257 1_556
Br5 K0 3.339863 1_555
Br5 K6 3.339863 1_555
Br5 K7 3.380391 1_565
Br5 K1 3.380391 1_555
Br6 U1 2.994914 1_555
Br6 K3 3.341982 1_655
Br6 K5 3.341982 1_655
Br6 K7 3.366753 1_564
Br6 K1 3.366753 1_554
Br7 U2 2.994914 1_555
Br7 K4 3.341982 1_555
Br7 K2 3.341982 1_555
Br7 K0 3.366753 1_555
Br7 K6 3.366753 1_545
Br8 U0 2.955779 1_455
Br8 K7 3.413849 1_465
Br8 K1 3.413849 1_455
Br8 K6 3.531298 1_555
Br8 K0 3.531298 1_555
Br9 U2 2.963257 1_555
Br9 K1 3.339863 1_455
Br9 K7 3.339863 1_455
Br9 K0 3.380391 1_555
Br9 K6 3.380391 1_545
Br10 U3 2.963257 1_554
Br10 K4 3.339863 1_555
Br10 K2 3.339863 1_555
Br10 K3 3.380391 1_545
Br10 K5 3.380391 1_555
Br11 U0 2.963257 1_555
Br11 K5 3.339863 1_655
Br11 K3 3.339863 1_655
Br11 K2 3.380391 1_565
Br11 K4 3.380391 1_555
Br12 U1 2.998959 1_545
Br12 U3 3.028279 1_554
Br12 K2 3.486264 1_555
Br12 K3 3.529834 1_645
Br13 U3 2.955779 1_555
Br13 K0 3.413849 1_555
Br13 K6 3.413849 1_545
Br13 K1 3.531298 1_555
Br13 K7 3.531298 1_555
Br14 U2 2.955779 1_655
Br14 K3 3.413849 1_645
Br14 K5 3.413849 1_655
Br14 K4 3.531298 1_555
Br14 K2 3.531298 1_555
Br15 U1 2.955779 1_555
Br15 K2 3.413849 1_565
Br15 K4 3.413849 1_555
Br15 K5 3.531298 1_555
Br15 K3 3.531298 1_555
Br16 U0 2.998959 1_555
Br16 U2 3.028279 1_655
Br16 K1 3.486264 1_555
Br16 K0 3.529834 1_555
Br17 U3 2.998959 1_555
Br17 U1 3.028279 1_556
Br17 K0 3.486264 1_555
Br17 K1 3.529834 1_455
Br18 U2 2.998959 1_565
Br18 U0 3.028279 1_455
Br18 K3 3.486264 1_555
Br18 K2 3.529834 1_565
Br19 U2 2.998959 1_555
Br19 U0 3.028279 1_455
Br19 K5 3.486264 1_555
Br19 K4 3.529834 1_555
