# generated using pymatgen
data_NaTiGaP2SO12
_symmetry_space_group_name_H-M   'P 1'
_cell_length_a   8.54696342
_cell_length_b   8.53623506
_cell_length_c   22.28916531
_cell_angle_alpha   89.88887660
_cell_angle_beta   90.00000000
_cell_angle_gamma   120.04158339
_symmetry_Int_Tables_number   1
_chemical_formula_structural   NaTiGaP2SO12
_chemical_formula_sum   'Na6 Ti6 Ga6 P12 S6 O72'
_cell_volume   1407.73019678
_cell_formula_units_Z   6
loop_
 _symmetry_equiv_pos_site_id
 _symmetry_equiv_pos_as_xyz
  1  'x, y, z'
loop_
 _atom_site_type_symbol
 _atom_site_label
 _atom_site_symmetry_multiplicity
 _atom_site_fract_x
 _atom_site_fract_y
 _atom_site_fract_z
 _atom_site_occupancy
  Na  Na0  1  0.99377795  0.99656326  0.50133014  1
  Na  Na1  1  0.00278531  0.99656326  0.00133014  1
  Na  Na2  1  0.66044495  0.32989626  0.83466314  1
  Na  Na3  1  0.66945231  0.32989626  0.33466314  1
  Na  Na4  1  0.32711095  0.66323026  0.16799714  1
  Na  Na5  1  0.33611831  0.66323026  0.66799714  1
  Ti  Ti0  1  0.00116301  0.00377825  0.35403442  1
  Ti  Ti1  1  0.00261525  0.00377825  0.85403442  1
  Ti  Ti2  1  0.66783001  0.33711125  0.68736742  1
  Ti  Ti3  1  0.66928225  0.33711125  0.18736742  1
  Ti  Ti4  1  0.33449601  0.67044525  0.02070142  1
  Ti  Ti5  1  0.33594825  0.67044525  0.52070142  1
  Ga  Ga0  1  0.99024036  0.00673201  0.64794126  1
  Ga  Ga1  1  0.01649165  0.00673201  0.14794126  1
  Ga  Ga2  1  0.65690736  0.34006501  0.98127426  1
  Ga  Ga3  1  0.68315865  0.34006501  0.48127426  1
  Ga  Ga4  1  0.32357336  0.67339901  0.31460826  1
  Ga  Ga5  1  0.34982465  0.67339901  0.81460826  1
  P  P0  1  0.28913198  0.99841745  0.24977833  1
  P  P1  1  0.00453956  0.29099496  0.24915604  1
  P  P2  1  0.28645540  0.29099496  0.74915604  1
  P  P3  1  0.70928547  0.99841745  0.74977833  1
  P  P4  1  0.95579898  0.33175045  0.58311133  1
  P  P5  1  0.67120656  0.62432796  0.58248904  1
  P  P6  1  0.95312240  0.62432796  0.08248904  1
  P  P7  1  0.37595247  0.33175045  0.08311133  1
  P  P8  1  0.62246498  0.66508445  0.91644533  1
  P  P9  1  0.33787256  0.95766196  0.91582304  1
  P  P10  1  0.61978840  0.95766196  0.41582304  1
  P  P11  1  0.04261847  0.66508445  0.41644533  1
  S  S0  1  0.70963796  0.71365635  0.24954884  1
  S  S1  1  0.00401839  0.71365635  0.74954884  1
  S  S2  1  0.37630496  0.04698935  0.58288184  1
  S  S3  1  0.67068539  0.04698935  0.08288184  1
  S  S4  1  0.04297096  0.38032335  0.91621584  1
  S  S5  1  0.33735139  0.38032335  0.41621584  1
  O  O0  1  0.20030764  0.03063179  0.30587897  1
  O  O1  1  0.82283047  0.79130571  0.30411692  1
  O  O2  1  0.96828620  0.16927776  0.30588511  1
  O  O3  1  0.20099156  0.16927776  0.80588511  1
  O  O4  1  0.96847524  0.79130571  0.80411692  1
  O  O5  1  0.83032416  0.03063179  0.80587897  1
  O  O6  1  0.78830614  0.96154244  0.69379542  1
  O  O7  1  0.17390659  0.20482303  0.69296812  1
  O  O8  1  0.03418726  0.82173557  0.69494196  1
  O  O9  1  0.78754832  0.82173557  0.19494196  1
  O  O10  1  0.03091644  0.20482303  0.19296812  1
  O  O11  1  0.17323630  0.96154244  0.19379542  1
  O  O12  1  0.86697464  0.36396479  0.63921197  1
  O  O13  1  0.48949747  0.12463871  0.63744992  1
  O  O14  1  0.63495320  0.50261076  0.63921811  1
  O  O15  1  0.86765856  0.50261076  0.13921811  1
  O  O16  1  0.63514224  0.12463871  0.13744992  1
  O  O17  1  0.49699116  0.36396479  0.13921197  1
  O  O18  1  0.45497314  0.29487544  0.02712842  1
  O  O19  1  0.84057359  0.53815603  0.02630112  1
  O  O20  1  0.70085426  0.15506857  0.02827496  1
  O  O21  1  0.45421532  0.15506857  0.52827496  1
  O  O22  1  0.69758344  0.53815603  0.52630112  1
  O  O23  1  0.83990330  0.29487544  0.52712842  1
  O  O24  1  0.53364064  0.69729879  0.97254597  1
  O  O25  1  0.15616347  0.45797271  0.97078392  1
  O  O26  1  0.30161920  0.83594476  0.97255211  1
  O  O27  1  0.53432456  0.83594476  0.47255211  1
  O  O28  1  0.30180824  0.45797271  0.47078392  1
  O  O29  1  0.16365716  0.69729879  0.47254597  1
  O  O30  1  0.12163914  0.62820944  0.36046242  1
  O  O31  1  0.50723959  0.87149003  0.35963512  1
  O  O32  1  0.36752026  0.48840257  0.36160896  1
  O  O33  1  0.12088132  0.48840257  0.86160896  1
  O  O34  1  0.36424944  0.87149003  0.85963512  1
  O  O35  1  0.50656930  0.62820944  0.86046242  1
  O  O36  1  0.02711065  0.83808593  0.40930862  1
  O  O37  1  0.80932510  0.97403530  0.40914584  1
  O  O38  1  0.17034906  0.19796585  0.41110597  1
  O  O39  1  0.02761680  0.19796585  0.91110597  1
  O  O40  1  0.16471020  0.97403530  0.90914584  1
  O  O41  1  0.81097528  0.83808593  0.90930862  1
  O  O42  1  0.98024374  0.16631464  0.58961999  1
  O  O43  1  0.19424584  0.02284592  0.59036636  1
  O  O44  1  0.83937085  0.81129375  0.59107770  1
  O  O45  1  0.97192291  0.81129375  0.09107770  1
  O  O46  1  0.82860008  0.02284592  0.09036636  1
  O  O47  1  0.18607090  0.16631464  0.08961999  1
  O  O48  1  0.69377765  0.17141893  0.74264162  1
  O  O49  1  0.47599210  0.30736830  0.74247884  1
  O  O50  1  0.83701606  0.53129885  0.74443897  1
  O  O51  1  0.69428380  0.53129885  0.24443897  1
  O  O52  1  0.83137720  0.30736830  0.24247884  1
  O  O53  1  0.47764228  0.17141893  0.24264162  1
  O  O54  1  0.64691074  0.49964764  0.92295299  1
  O  O55  1  0.86091284  0.35617892  0.92369936  1
  O  O56  1  0.50603785  0.14462675  0.92441070  1
  O  O57  1  0.63858991  0.14462675  0.42441070  1
  O  O58  1  0.49526708  0.35617892  0.42369936  1
  O  O59  1  0.85273790  0.49964764  0.42295299  1
  O  O60  1  0.36044365  0.50475293  0.07597562  1
  O  O61  1  0.14265810  0.64070230  0.07581284  1
  O  O62  1  0.50368206  0.86463285  0.07777297  1
  O  O63  1  0.36094980  0.86463285  0.57777297  1
  O  O64  1  0.49804320  0.64070230  0.57581284  1
  O  O65  1  0.14430828  0.50475293  0.57597562  1
  O  O66  1  0.31357674  0.83298164  0.25628699  1
  O  O67  1  0.52757884  0.68951292  0.25703336  1
  O  O68  1  0.17270385  0.47796075  0.25774470  1
  O  O69  1  0.30525591  0.47796075  0.75774470  1
  O  O70  1  0.16193308  0.68951292  0.75703336  1
  O  O71  1  0.51940390  0.83298164  0.75628699  1
loop_
_geom_bond_atom_site_label_1
_geom_bond_atom_site_label_2
_geom_bond_distance
_geom_bond_site_symmetry_2
Na0 O44 2.478379 1_555
Na0 O42 2.482869 1_565
Na0 O37 2.538147 1_555
Na0 O36 2.552415 1_655
Na0 O43 2.557595 1_665
Na0 O38 2.581903 1_665
Na1 O45 2.478379 1_455
Na1 O47 2.482869 1_565
Na1 O40 2.538147 1_554
Na1 O41 2.552415 1_454
Na1 O46 2.557595 1_465
Na1 O39 2.581903 1_564
Na2 O56 2.478379 1_555
Na2 O54 2.482869 1_555
Na2 O49 2.538147 1_555
Na2 O48 2.552415 1_555
Na2 O55 2.557595 1_555
Na2 O50 2.581903 1_555
Na3 O57 2.478379 1_555
Na3 O59 2.482869 1_555
Na3 O52 2.538147 1_555
Na3 O53 2.552415 1_555
Na3 O58 2.557595 1_555
Na3 O51 2.581903 1_555
Na4 O68 2.478379 1_555
Na4 O66 2.482869 1_555
Na4 O61 2.538147 1_555
Na4 O60 2.552415 1_555
Na4 O67 2.557595 1_555
Na4 O62 2.581903 1_555
Na5 O69 2.478379 1_555
Na5 O71 2.482869 1_555
Na5 O64 2.538147 1_555
Na5 O65 2.552415 1_555
Na5 O70 2.557595 1_555
Na5 O63 2.581903 1_555
Ga0 O6 1.871915 1_545
Ga0 O42 1.913760 1_555
Ga0 O7 1.918228 1_655
Ga0 O44 1.976527 1_545
Ga0 O8 2.078422 1_645
Ga0 O43 2.113097 1_655
Ga1 O11 1.871915 1_545
Ga1 O47 1.913760 1_555
Ga1 O10 1.918228 1_555
Ga1 O45 1.976527 1_445
Ga1 O9 2.078422 1_445
Ga1 O46 2.113097 1_455
Ga2 O18 1.871915 1_556
Ga2 O54 1.913760 1_555
Ga2 O19 1.918228 1_556
Ga2 O56 1.976527 1_555
Ga2 O20 2.078422 1_556
Ga2 O55 2.113097 1_555
Ga3 O23 1.871915 1_555
Ga3 O59 1.913760 1_555
Ga3 O22 1.918228 1_555
Ga3 O57 1.976527 1_555
Ga3 O21 2.078422 1_555
Ga3 O58 2.113097 1_555
Ga4 O30 1.871915 1_555
Ga4 O66 1.913760 1_555
Ga4 O31 1.918228 1_555
Ga4 O68 1.976527 1_555
Ga4 O32 2.078422 1_555
Ga4 O67 2.113097 1_555
Ga5 O35 1.871915 1_555
Ga5 O71 1.913760 1_555
Ga5 O34 1.918228 1_555
Ga5 O69 1.976527 1_555
Ga5 O33 2.078422 1_555
Ga5 O70 2.113097 1_555
O0 P0 1.557538 1_545
O0 Ti0 1.926159 1_555
O1 S0 1.488524 1_555
O1 Ti0 2.022514 1_665
O2 P1 1.564263 1_655
O2 Ti0 1.902149 1_655
O3 P2 1.564263 1_555
O3 Ti1 1.902149 1_555
O4 S1 1.488524 1_655
O4 Ti1 2.022514 1_665
O5 P3 1.557538 1_545
O5 Ti1 1.926159 1_655
O6 P3 1.525336 1_555
O7 P2 1.526428 1_555
O8 S1 1.468519 1_555
O9 S0 1.468519 1_555
O10 P1 1.526428 1_555
O11 P0 1.525336 1_555
O12 P4 1.557538 1_555
O12 Ti2 1.926159 1_555
O13 S2 1.488524 1_555
O13 Ti2 2.022514 1_555
O14 P5 1.564263 1_555
O14 Ti2 1.902149 1_555
O15 P6 1.564263 1_555
O15 Ti3 1.902149 1_555
O16 S3 1.488524 1_555
O16 Ti3 2.022514 1_555
O17 P7 1.557538 1_555
O17 Ti3 1.926159 1_555
O18 P7 1.525336 1_555
O19 P6 1.526428 1_555
O20 S3 1.468519 1_555
O21 S2 1.468519 1_555
O22 P5 1.526428 1_555
O23 P4 1.525336 1_555
O24 P8 1.557538 1_555
O24 Ti4 1.926159 1_556
O25 S4 1.488524 1_555
O25 Ti4 2.022514 1_556
O26 P9 1.564263 1_555
O26 Ti4 1.902149 1_556
O27 P10 1.564263 1_555
O27 Ti5 1.902149 1_555
O28 S5 1.488524 1_555
O28 Ti5 2.022514 1_555
O29 P11 1.557538 1_555
O29 Ti5 1.926159 1_555
O30 P11 1.525336 1_555
O31 P10 1.526428 1_555
O32 S5 1.468519 1_555
O33 S4 1.468519 1_555
O34 P9 1.526428 1_555
O35 P8 1.525336 1_555
O36 P11 1.555259 1_555
O36 Ti0 1.968464 1_565
O37 P10 1.561789 1_555
O37 Ti0 1.960552 1_665
O38 S5 1.499827 1_555
O38 Ti0 2.016210 1_555
O39 S4 1.499831 1_555
O39 Ti1 2.016210 1_555
O40 P9 1.561780 1_555
O40 Ti1 1.960552 1_565
O41 P8 1.555263 1_555
O41 Ti1 1.968464 1_665
O42 P4 1.534154 1_555
O43 S2 1.473219 1_555
O44 P5 1.534285 1_555
O45 P6 1.534288 1_555
O46 S3 1.473211 1_555
O47 P7 1.534159 1_555
O48 P3 1.555259 1_545
O48 Ti2 1.968464 1_555
O49 P2 1.561789 1_555
O49 Ti2 1.960552 1_555
O50 S1 1.499827 1_655
O50 Ti2 2.016210 1_555
O51 S0 1.499831 1_555
O51 Ti3 2.016210 1_555
O52 P1 1.561780 1_655
O52 Ti3 1.960552 1_555
O53 P0 1.555263 1_545
O53 Ti3 1.968464 1_555
O54 P8 1.534165 1_555
O55 S4 1.473205 1_655
O56 P9 1.534281 1_545
O57 P10 1.534273 1_545
O58 S5 1.473222 1_555
O59 P11 1.534155 1_655
O60 P7 1.555270 1_555
O60 Ti4 1.968464 1_555
O61 P6 1.561774 1_455
O61 Ti4 1.960552 1_555
O62 S3 1.499824 1_565
O62 Ti4 2.016210 1_555
O63 S2 1.499817 1_565
O63 Ti5 2.016210 1_555
O64 P5 1.561791 1_555
O64 Ti5 1.960552 1_555
O65 P4 1.555260 1_455
O65 Ti5 1.968464 1_555
O66 P0 1.534154 1_555
O67 S0 1.473219 1_555
O68 P1 1.534285 1_555
O69 P2 1.534288 1_555
O70 S1 1.473211 1_555
O71 P3 1.534159 1_555
