# generated using pymatgen
data_Na8Y2Si5Sn2SO24
_symmetry_space_group_name_H-M   'P 1'
_cell_length_a   9.34136394
_cell_length_b   9.31899848
_cell_length_c   22.87715263
_cell_angle_alpha   90.30699147
_cell_angle_beta   89.41157669
_cell_angle_gamma   120.09593786
_symmetry_Int_Tables_number   1
_chemical_formula_structural   Na8Y2Si5Sn2SO24
_chemical_formula_sum   'Na24 Y6 Si15 Sn6 S3 O72'
_cell_volume   1722.93367446
_cell_formula_units_Z   3
loop_
 _symmetry_equiv_pos_site_id
 _symmetry_equiv_pos_as_xyz
  1  'x, y, z'
loop_
 _atom_site_type_symbol
 _atom_site_label
 _atom_site_symmetry_multiplicity
 _atom_site_fract_x
 _atom_site_fract_y
 _atom_site_fract_z
 _atom_site_occupancy
  Na  Na0  1  0.64244302  0.00271244  0.25338942  1
  Na  Na1  1  0.35740433  0.36081868  0.24687645  1
  Na  Na2  1  0.99992573  0.63958945  0.24974641  1
  Na  Na3  1  0.63749331  0.63552301  0.74532028  1
  Na  Na4  1  0.99483790  0.36166425  0.74871195  1
  Na  Na5  1  0.36726294  0.00617905  0.74873027  1
  Na  Na6  1  0.29908489  0.33672314  0.58887113  1
  Na  Na7  1  0.03851829  0.70301292  0.58420578  1
  Na  Na8  1  0.66583114  0.96063360  0.58424295  1
  Na  Na9  1  0.28203432  0.96457434  0.08092944  1
  Na  Na10  1  0.66926166  0.68499716  0.08948659  1
  Na  Na11  1  0.04826003  0.34079632  0.08844563  1
  Na  Na12  1  0.98162124  0.66834581  0.91549421  1
  Na  Na13  1  0.70422791  0.04729197  0.90601050  1
  Na  Na14  1  0.31762163  0.28080936  0.91823812  1
  Na  Na15  1  0.95576857  0.29599009  0.41253391  1
  Na  Na16  1  0.32970806  0.01911131  0.41655915  1
  Na  Na17  1  0.71314572  0.68009013  0.41943268  1
  Na  Na18  1  0.98839642  0.98690310  0.50305150  1
  Na  Na19  1  0.02648082  0.01001624  0.99974182  1
  Na  Na20  1  0.66817312  0.32248785  0.82933407  1
  Na  Na21  1  0.67406372  0.33182240  0.33173089  1
  Na  Na22  1  0.32248204  0.65328208  0.16935825  1
  Na  Na23  1  0.33403011  0.66663799  0.66528748  1
  Y  Y0  1  0.99681152  0.99655959  0.34553671  1
  Y  Y1  1  0.00711116  0.00443378  0.84464935  1
  Y  Y2  1  0.00435698  0.99954673  0.15572709  1
  Y  Y3  1  0.66577173  0.33269740  0.98080738  1
  Y  Y4  1  0.31780280  0.65654691  0.01869635  1
  Y  Y5  1  0.33533144  0.67471009  0.52160618  1
  Si  Si0  1  0.31063545  0.00403861  0.24977763  1
  Si  Si1  1  0.68801149  0.69386184  0.25105436  1
  Si  Si2  1  -0.00000069  0.30962141  0.25036099  1
  Si  Si3  1  0.30287056  0.30269906  0.74815371  1
  Si  Si4  1  0.99500851  0.69949693  0.74777864  1
  Si  Si5  1  0.69928754  0.99877096  0.74918669  1
  Si  Si6  1  0.95784460  0.32434396  0.58641481  1
  Si  Si7  1  0.37465865  0.05046068  0.58509422  1
  Si  Si8  1  0.67280102  0.62444863  0.58471936  1
  Si  Si9  1  0.95980186  0.63043610  0.08420699  1
  Si  Si10  1  0.37092308  0.33367271  0.08459165  1
  Si  Si11  1  0.03693924  0.36711192  0.91413528  1
  Si  Si12  1  0.33389131  0.96099531  0.91518203  1
  Si  Si13  1  0.63110903  0.96926193  0.41776457  1
  Si  Si14  1  0.03053445  0.66161677  0.41864804  1
  Sn  Sn0  1  0.99971712  0.00001510  0.64965374  1
  Sn  Sn1  1  0.66779166  0.33347504  0.68414535  1
  Sn  Sn2  1  0.66857498  0.34461368  0.18634991  1
  Sn  Sn3  1  0.67903852  0.33017406  0.48743185  1
  Sn  Sn4  1  0.32867342  0.67782538  0.31590394  1
  Sn  Sn5  1  0.32165881  0.66877780  0.81000209  1
  S  S0  1  0.66830017  0.03959214  0.08473384  1
  S  S1  1  0.62458110  0.66717425  0.91501394  1
  S  S2  1  0.33746681  0.37302100  0.41630728  1
  O  O0  1  0.23770190  0.04853437  0.30754678  1
  O  O1  1  0.80875726  0.77249810  0.30687775  1
  O  O2  1  0.96058649  0.19295290  0.30760715  1
  O  O3  1  0.23264429  0.19098509  0.80655897  1
  O  O4  1  0.95533808  0.76809189  0.80712161  1
  O  O5  1  0.80894941  0.03731570  0.80753646  1
  O  O6  1  0.78574947  0.95998359  0.69213070  1
  O  O7  1  0.17595669  0.21719820  0.69205511  1
  O  O8  1  0.03507324  0.82630885  0.69167719  1
  O  O9  1  0.76006734  0.80952362  0.19292999  1
  O  O10  1  0.03953756  0.23415107  0.19218338  1
  O  O11  1  0.19159722  0.96139606  0.19339808  1
  O  O12  1  0.87199361  0.36186144  0.64219445  1
  O  O13  1  0.49280035  0.13332370  0.64160077  1
  O  O14  1  0.64048401  0.50822954  0.64181092  1
  O  O15  1  0.87042081  0.50619752  0.14140131  1
  O  O16  1  0.64345307  0.11931286  0.13751139  1
  O  O17  1  0.48786409  0.35507873  0.14216340  1
  O  O18  1  0.45052037  0.30279806  0.02559912  1
  O  O19  1  0.85411482  0.54576908  0.02548740  1
  O  O20  1  0.69004843  0.13801563  0.03155546  1
  O  O21  1  0.45696408  0.16681308  0.52533996  1
  O  O22  1  0.70474687  0.54138712  0.52450020  1
  O  O23  1  0.84525985  0.28626029  0.52627384  1
  O  O24  1  0.54877109  0.68830425  0.96901467  1
  O  O25  1  0.14798943  0.44574084  0.97257812  1
  O  O26  1  0.31663471  0.85864431  0.97481469  1
  O  O27  1  0.55142890  0.85127651  0.47404922  1
  O  O28  1  0.31417335  0.45057327  0.46925754  1
  O  O29  1  0.14223844  0.68742499  0.47520801  1
  O  O30  1  0.11531302  0.62455343  0.35971811  1
  O  O31  1  0.51103405  0.88173310  0.35931661  1
  O  O32  1  0.36082653  0.47702732  0.36329749  1
  O  O33  1  0.13215485  0.48889108  0.85653371  1
  O  O34  1  0.36583434  0.87001561  0.85714626  1
  O  O35  1  0.52222958  0.64565278  0.86268870  1
  O  O36  1  0.01524509  0.82816713  0.41293641  1
  O  O37  1  0.81888311  0.00063570  0.41211278  1
  O  O38  1  0.18995634  0.20636537  0.41154475  1
  O  O39  1  0.00955381  0.17940106  0.91249230  1
  O  O40  1  0.16299163  0.97011770  0.91294613  1
  O  O41  1  0.79184570  0.81641755  0.91078268  1
  O  O42  1  0.96793511  0.15245780  0.59079532  1
  O  O43  1  0.19044841  0.03586148  0.58953873  1
  O  O44  1  0.84377339  0.80881297  0.58881064  1
  O  O45  1  0.97111804  0.81150531  0.08772332  1
  O  O46  1  0.81877941  0.02494951  0.08906209  1
  O  O47  1  0.18318871  0.17278561  0.08763560  1
  O  O48  1  0.67696834  0.16303490  0.74213851  1
  O  O49  1  0.48788955  0.32320217  0.74116838  1
  O  O50  1  0.83202745  0.51255703  0.74159982  1
  O  O51  1  0.67070775  0.50875375  0.24589381  1
  O  O52  1  0.83146404  0.32510497  0.24319252  1
  O  O53  1  0.49853990  0.16508971  0.24089970  1
  O  O54  1  0.63982954  0.51594851  0.91800274  1
  O  O55  1  0.85779731  0.35977012  0.91468834  1
  O  O56  1  0.49971044  0.14610764  0.91369850  1
  O  O57  1  0.63399459  0.15121394  0.42228794  1
  O  O58  1  0.49109768  0.36026261  0.41979834  1
  O  O59  1  0.84275823  0.48978324  0.42187521  1
  O  O60  1  0.36950110  0.50960682  0.08531501  1
  O  O61  1  0.14523219  0.65088289  0.08604382  1
  O  O62  1  0.51966572  0.87221999  0.08079096  1
  O  O63  1  0.35395780  0.86590338  0.58250817  1
  O  O64  1  0.50792551  0.64176333  0.58151068  1
  O  O65  1  0.14218654  0.48594498  0.58232757  1
  O  O66  1  0.32626174  0.83548193  0.25548842  1
  O  O67  1  0.50167125  0.67021006  0.26117898  1
  O  O68  1  0.16944441  0.49383150  0.25812673  1
  O  O69  1  0.32213860  0.48979412  0.75461004  1
  O  O70  1  0.16594852  0.68551229  0.75026385  1
  O  O71  1  0.51492424  0.82670651  0.75416379  1
loop_
_geom_bond_atom_site_label_1
_geom_bond_atom_site_label_2
_geom_bond_distance
_geom_bond_site_symmetry_2
Na0 O53 2.496185 1_555
Na0 O66 2.556594 1_545
Na0 O52 2.622449 1_555
Na0 O31 2.688972 1_545
Na0 O67 2.697570 1_545
Na0 O16 2.868526 1_555
Na0 O2 2.877806 1_555
Na0 O9 2.878807 1_545
Na1 O67 2.517594 1_555
Na1 O51 2.533588 1_555
Na1 O68 2.618313 1_555
Na1 O17 2.688988 1_555
Na1 O53 2.736639 1_555
Na1 O32 2.864179 1_555
Na1 O10 2.884621 1_555
Na1 O0 2.897201 1_555
Na2 O52 2.542174 1_555
Na2 O68 2.560386 1_655
Na2 O66 2.658426 1_655
Na2 O51 2.682538 1_555
Na2 O15 2.769970 1_555
Na2 O30 2.778820 1_655
Na2 O11 2.910329 1_655
Na2 O1 2.929890 1_555
Na3 O49 2.520648 1_555
Na3 O69 2.558416 1_555
Na3 O71 2.561895 1_555
Na3 O50 2.589757 1_555
Na3 O14 2.648993 1_555
Na3 O6 2.888993 1_555
Na3 O35 2.901310 1_555
Na3 O4 2.954584 1_555
Na4 O50 2.543457 1_555
Na4 O48 2.599962 1_555
Na4 O70 2.612712 1_655
Na4 O69 2.671574 1_655
Na4 O12 2.704535 1_555
Na4 O33 2.764759 1_655
Na4 O7 2.928413 1_655
Na4 O5 2.948589 1_555
Na5 O48 2.506294 1_555
Na5 O49 2.586616 1_555
Na5 O70 2.613702 1_545
Na5 O71 2.652314 1_545
Na5 O13 2.713704 1_555
Na5 O34 2.788907 1_545
Na5 O3 2.900168 1_555
Na5 O8 2.997621 1_545
Na6 O43 2.457155 1_555
Na6 O65 2.480938 1_555
Na6 O64 2.520244 1_555
Na6 O7 2.612159 1_555
Na6 O42 2.681495 1_455
Na6 O28 2.916629 1_555
Na6 O21 3.011291 1_555
Na6 O14 3.023003 1_555
Na7 O44 2.467062 1_455
Na7 O63 2.549669 1_555
Na7 O65 2.644698 1_555
Na7 O43 2.689778 1_565
Na7 O29 2.695427 1_555
Na7 O8 2.715018 1_555
Na8 O42 2.475582 1_565
Na8 O64 2.571733 1_555
Na8 O63 2.586703 1_555
Na8 O44 2.671951 1_555
Na8 O6 2.722219 1_555
Na8 O27 2.733353 1_555
Na8 O23 2.944977 1_565
Na9 O45 2.516444 1_455
Na9 O47 2.536071 1_565
Na9 O61 2.538982 1_555
Na9 O26 2.692658 1_554
Na9 O11 2.695512 1_555
Na9 O62 2.753921 1_555
Na10 O60 2.436250 1_555
Na10 O45 2.450866 1_555
Na10 O9 2.586709 1_555
Na10 O62 2.736987 1_555
Na10 O46 2.747662 1_565
Na10 O17 2.923884 1_555
Na10 O24 2.993836 1_554
Na10 O19 2.997246 1_555
Na11 O47 2.453313 1_555
Na11 O61 2.559177 1_555
Na11 O10 2.562541 1_555
Na11 O60 2.597549 1_555
Na11 O46 2.632656 1_455
Na11 O25 2.813178 1_554
Na12 O40 2.450253 1_655
Na12 O55 2.504291 1_555
Na12 O4 2.708709 1_555
Na12 O41 2.741748 1_555
Na12 O19 2.767700 1_556
Na12 O54 2.768355 1_555
Na13 O5 2.466665 1_555
Na13 O39 2.481464 1_655
Na13 O56 2.506905 1_555
Na13 O55 2.527282 1_555
Na13 O41 2.661062 1_545
Na13 O34 2.964224 1_545
Na13 O20 3.009956 1_556
Na14 O40 2.507908 1_545
Na14 O39 2.543800 1_555
Na14 O56 2.572185 1_555
Na14 O3 2.685270 1_555
Na14 O54 2.691877 1_555
Na14 O18 2.723565 1_556
Na14 O25 2.966539 1_555
Na15 O37 2.383522 1_555
Na15 O59 2.514925 1_555
Na15 O2 2.588915 1_555
Na15 O57 2.612907 1_555
Na15 O38 2.704634 1_655
Na15 O23 2.774526 1_555
Na15 O30 2.912446 1_655
Na16 O57 2.471591 1_555
Na16 O36 2.561909 1_545
Na16 O38 2.655638 1_555
Na16 O0 2.705745 1_555
Na16 O58 2.752911 1_555
Na16 O21 2.807823 1_555
Na16 O31 2.886903 1_545
Na16 O29 2.998110 1_545
Na17 O36 2.445035 1_655
Na17 O59 2.601955 1_555
Na17 O37 2.640018 1_565
Na17 O58 2.643014 1_555
Na17 O1 2.715648 1_555
Na17 O22 2.717007 1_555
Na17 O27 2.957191 1_555
Na18 O44 2.482030 1_555
Na18 O42 2.588594 1_565
Na18 O36 2.613425 1_655
Na18 O43 2.624648 1_665
Na18 O37 2.669400 1_565
Na18 O38 2.865872 1_665
Na19 O40 2.474414 1_545
Na19 O47 2.507540 1_556
Na19 O39 2.606015 1_555
Na19 O45 2.607669 1_446
Na19 O46 2.854044 1_456
Na19 O41 2.878751 1_445
Na20 O56 2.506114 1_555
Na20 O48 2.506243 1_555
Na20 O55 2.553006 1_555
Na20 O50 2.600895 1_555
Na20 O49 2.643025 1_555
Na20 O54 2.804223 1_555
Na21 O52 2.509632 1_555
Na21 O59 2.571150 1_555
Na21 O57 2.579615 1_555
Na21 O51 2.581385 1_555
Na21 O53 2.626958 1_555
Na21 O58 2.725516 1_555
Na22 O68 2.493590 1_555
Na22 O60 2.495417 1_555
Na22 O61 2.530234 1_555
Na22 O66 2.583053 1_555
Na22 O67 2.653881 1_555
Na22 O62 2.803491 1_555
Na23 O70 2.546763 1_555
Na23 O65 2.580347 1_555
Na23 O64 2.583538 1_555
Na23 O71 2.593203 1_555
Na23 O69 2.598417 1_555
Na23 O63 2.598654 1_555
O0 Si0 1.625323 1_555
O0 Y0 2.219190 1_445
O1 Si1 1.621966 1_555
O1 Y0 2.135757 1_555
O2 Si2 1.623780 1_655
O2 Y0 2.204814 1_545
O3 Si3 1.615989 1_555
O3 Y1 2.127320 1_555
O4 Si4 1.614609 1_555
O4 Y1 2.177576 1_665
O5 Si5 1.616855 1_545
O5 Y1 2.201199 1_655
O6 Si5 1.659162 1_555
O6 Sn0 2.072356 1_565
O7 Si3 1.661437 1_555
O7 Sn0 2.101825 1_455
O8 Si4 1.657308 1_455
O8 Sn0 2.052589 1_465
O9 Si1 1.628605 1_555
O9 Y2 2.234106 1_655
O10 Si2 1.625681 1_555
O10 Y2 2.202025 1_545
O11 Si0 1.624441 1_565
O11 Y2 2.141559 1_555
O12 Si6 1.627625 1_555
O12 Sn1 2.022063 1_555
O13 Si7 1.627656 1_555
O13 Sn1 2.013413 1_555
O14 Si8 1.627623 1_555
O14 Sn1 2.023310 1_555
O15 Si9 1.665508 1_555
O15 Sn2 2.002330 1_555
O16 S0 1.490363 1_555
O16 Sn2 2.279854 1_555
O17 Si10 1.666131 1_555
O17 Sn2 2.020445 1_555
O18 Si10 1.626898 1_555
O18 Y3 2.137662 1_554
O19 Si9 1.623712 1_555
O19 Y3 2.143476 1_554
O20 S0 1.477359 1_555
O20 Y3 2.265248 1_554
O21 Si7 1.671449 1_555
O21 Sn3 2.045255 1_555
O22 Si8 1.672691 1_555
O22 Sn3 2.040399 1_555
O23 Si6 1.665878 1_555
O23 Sn3 2.009368 1_555
O24 S1 1.478419 1_555
O24 Y4 2.312426 1_556
O25 Si11 1.629810 1_555
O25 Y4 2.091789 1_556
O26 Si12 1.628519 1_555
O26 Y4 2.143827 1_556
O27 Si13 1.611103 1_555
O27 Y5 2.146844 1_555
O28 S2 1.476463 1_555
O28 Y5 2.323813 1_555
O29 Si14 1.610476 1_555
O29 Y5 2.156217 1_555
O30 Si14 1.676720 1_555
O30 Sn4 2.048289 1_555
O31 Si13 1.677173 1_555
O31 Sn4 2.065724 1_555
O32 S2 1.500918 1_555
O32 Sn4 2.315035 1_555
O33 Si11 1.671867 1_555
O33 Sn5 2.020235 1_555
O34 Si12 1.674563 1_555
O34 Sn5 2.015374 1_555
O35 S1 1.488595 1_555
O35 Sn5 2.337463 1_555
O36 Si14 1.634413 1_555
O36 Y0 2.274219 1_455
O37 Si13 1.631063 1_545
O37 Y0 2.257088 1_545
O38 S2 1.475685 1_555
O38 Y0 2.417605 1_445
O39 Si11 1.636315 1_555
O39 Y1 2.237025 1_555
O40 Si12 1.642037 1_555
O40 Y1 2.276598 1_565
O41 S1 1.484579 1_555
O41 Y1 2.415564 1_665
O42 Si6 1.654705 1_555
O42 Sn0 2.090712 1_555
O43 Si7 1.658818 1_555
O43 Sn0 2.129564 1_455
O44 Si8 1.661559 1_555
O44 Sn0 2.155522 1_565
O45 Si9 1.638518 1_555
O45 Y2 2.241093 1_655
O46 S0 1.483151 1_555
O46 Y2 2.420107 1_645
O47 Si10 1.640085 1_555
O47 Y2 2.256615 1_545
O48 Si5 1.654133 1_545
O48 Sn1 2.109928 1_555
O49 Si3 1.647008 1_555
O49 Sn1 2.080888 1_555
O50 Si4 1.647600 1_555
O50 Sn1 2.077646 1_555
O51 Si1 1.653582 1_555
O51 Sn2 2.035529 1_555
O52 Si2 1.661225 1_655
O52 Sn2 2.088056 1_555
O53 Si0 1.651876 1_555
O53 Sn2 2.048361 1_555
O54 S1 1.487806 1_555
O54 Y3 2.342622 1_555
O55 Si11 1.640109 1_655
O55 Y3 2.250289 1_555
O56 Si12 1.641962 1_545
O56 Y3 2.258770 1_555
O57 Si13 1.684894 1_545
O57 Sn3 2.112312 1_555
O58 S2 1.501223 1_555
O58 Sn3 2.471638 1_555
O59 Si14 1.681696 1_655
O59 Sn3 2.120373 1_555
O60 Si10 1.646224 1_555
O60 Y4 2.265328 1_555
O61 Si9 1.645871 1_455
O61 Y4 2.199957 1_555
O62 S0 1.482526 1_565
O62 Y4 2.415937 1_555
O63 Si7 1.632333 1_565
O63 Y5 2.193966 1_555
O64 Si8 1.629481 1_555
O64 Y5 2.262327 1_555
O65 Si6 1.624615 1_455
O65 Y5 2.251903 1_555
O66 Si0 1.654771 1_565
O66 Sn4 2.030998 1_555
O67 Si1 1.655192 1_555
O67 Sn4 2.063129 1_555
O68 Si2 1.661716 1_555
O68 Sn4 2.087537 1_555
O69 Si3 1.666492 1_555
O69 Sn5 2.091084 1_555
O70 Si4 1.667536 1_455
O70 Sn5 2.068414 1_555
O71 Si5 1.666880 1_555
O71 Sn5 2.089308 1_555
