# generated using pymatgen
data_Na10Ca6Zr2Si3(S3O16)3
_symmetry_space_group_name_H-M   'P 1'
_cell_length_a   18.71168880
_cell_length_b   9.37493255
_cell_length_c   23.26677447
_cell_angle_alpha   89.98779615
_cell_angle_beta   90.01373851
_cell_angle_gamma   120.12896225
_symmetry_Int_Tables_number   1
_chemical_formula_structural   Na10Ca6Zr2Si3(S3O16)3
_chemical_formula_sum   'Na30 Ca18 Zr6 Si9 S27 O144'
_cell_volume   3530.06007963
_cell_formula_units_Z   3
loop_
 _symmetry_equiv_pos_site_id
 _symmetry_equiv_pos_as_xyz
  1  'x, y, z'
loop_
 _atom_site_type_symbol
 _atom_site_label
 _atom_site_symmetry_multiplicity
 _atom_site_fract_x
 _atom_site_fract_y
 _atom_site_fract_z
 _atom_site_occupancy
  Na  Na0  1  0.31539418  0.99706254  0.24456920  1
  Na  Na1  1  0.19070790  0.35534919  0.24954469  1
  Na  Na2  1  0.49057549  0.63588951  0.25671449  1
  Na  Na3  1  0.30854933  0.61492295  0.73113154  1
  Na  Na4  1  0.81555840  0.63591931  0.74271730  1
  Na  Na5  1  0.99753312  0.33323071  0.75506888  1
  Na  Na6  1  0.18065214  0.02510345  0.75678257  1
  Na  Na7  1  0.69012709  0.02561024  0.74983450  1
  Na  Na8  1  0.17146433  0.35785181  0.59335304  1
  Na  Na9  1  0.83290068  0.68806972  0.08319806  1
  Na  Na10  1  0.48543332  0.65694694  0.91763801  1
  Na  Na11  1  0.35426712  0.04755463  0.91585188  1
  Na  Na12  1  0.85085487  0.02691576  0.92161235  1
  Na  Na13  1  0.65826467  0.30771582  0.91460280  1
  Na  Na14  1  0.98339059  0.31054512  0.41660678  1
  Na  Na15  1  0.15593564  0.00908221  0.41173564  1
  Na  Na16  1  0.35158939  0.67073500  0.42431218  1
  Na  Na17  1  0.85329524  0.66073960  0.41419219  1
  Na  Na18  1  0.99317937  0.95090934  0.49995912  1
  Na  Na19  1  0.50520224  0.99636647  0.50483628  1
  Na  Na20  1  0.01176816  0.03607818  0.00306425  1
  Na  Na21  1  0.50251839  0.03711504  0.99854195  1
  Na  Na22  1  0.32620708  0.33352576  0.83643894  1
  Na  Na23  1  0.83003989  0.32617751  0.82719339  1
  Na  Na24  1  0.32857224  0.32958932  0.32705519  1
  Na  Na25  1  0.83146574  0.33828611  0.33684685  1
  Na  Na26  1  0.16154001  0.67172534  0.16291638  1
  Na  Na27  1  0.68216496  0.70928819  0.16240612  1
  Na  Na28  1  0.17624376  0.66985862  0.66244001  1
  Na  Na29  1  0.66375282  0.65114418  0.66180909  1
  Ca  Ca0  1  0.00085738  0.99112466  0.34503891  1
  Ca  Ca1  1  0.50396721  0.00475062  0.35150514  1
  Ca  Ca2  1  0.00394583  0.00775418  0.85192388  1
  Ca  Ca3  1  0.50356169  0.01554306  0.84602964  1
  Ca  Ca4  1  0.33752586  0.33853792  0.67906227  1
  Ca  Ca5  1  0.83160990  0.32821748  0.67927446  1
  Ca  Ca6  1  0.33018408  0.33174657  0.17974748  1
  Ca  Ca7  1  0.83378428  0.31901935  0.18104223  1
  Ca  Ca8  1  0.33314570  0.33420431  0.98596836  1
  Ca  Ca9  1  0.83572593  0.31167912  0.99369576  1
  Ca  Ca10  1  0.34176411  0.35060605  0.49018572  1
  Ca  Ca11  1  0.83223197  0.33289976  0.48577472  1
  Ca  Ca12  1  0.16336829  0.65923952  0.01632735  1
  Ca  Ca13  1  0.66271292  0.66465039  0.02047043  1
  Ca  Ca14  1  0.16591433  0.67707573  0.52019859  1
  Ca  Ca15  1  0.66401606  0.66732925  0.51644163  1
  Ca  Ca16  1  0.67019485  0.67087949  0.31427854  1
  Ca  Ca17  1  0.16449750  0.65180987  0.81746446  1
  Zr  Zr0  1  0.99593381  0.00659149  0.65437564  1
  Zr  Zr1  1  0.50281070  0.01186697  0.64812617  1
  Zr  Zr2  1  0.00162284  0.99974924  0.15090497  1
  Zr  Zr3  1  0.49466201  0.99299107  0.15181926  1
  Zr  Zr4  1  0.16009915  0.67292587  0.31058776  1
  Zr  Zr5  1  0.66021296  0.64712504  0.81130611  1
  Si  Si0  1  0.15223242  0.00537595  0.25433877  1
  Si  Si1  1  0.34953479  0.69977654  0.25659079  1
  Si  Si2  1  0.15232706  0.29969646  0.74831492  1
  Si  Si3  1  0.65289607  0.30052144  0.75375179  1
  Si  Si4  1  0.84823082  0.99988893  0.75778180  1
  Si  Si5  1  0.33490205  0.64857421  0.58409299  1
  Si  Si6  1  0.83596131  0.01975118  0.08044792  1
  Si  Si7  1  0.51464605  0.36709150  0.91751724  1
  Si  Si8  1  0.01440914  0.66285257  0.41646335  1
  S  S0  1  0.64599262  0.99570050  0.24814933  1
  S  S1  1  0.84714669  0.69601186  0.24774268  1
  S  S2  1  0.00194036  0.29967563  0.25358689  1
  S  S3  1  0.50300963  0.30077049  0.24712587  1
  S  S4  1  0.00244192  0.70893218  0.74762283  1
  S  S5  1  0.50240729  0.70876497  0.75228663  1
  S  S6  1  0.34828071  0.99383419  0.74977127  1
  S  S7  1  0.49038844  0.33270377  0.58555132  1
  S  S8  1  0.98521830  0.31971610  0.58415793  1
  S  S9  1  0.17414052  0.03104413  0.58568397  1
  S  S10  1  0.67686770  0.02274635  0.58746387  1
  S  S11  1  0.83711946  0.65145734  0.58446060  1
  S  S12  1  0.48541816  0.65005117  0.08639920  1
  S  S13  1  0.98589559  0.64244783  0.08717624  1
  S  S14  1  0.33644292  0.02263902  0.08446004  1
  S  S15  1  0.17731230  0.33159818  0.08792136  1
  S  S16  1  0.67716990  0.32192164  0.08350724  1
  S  S17  1  0.31954060  0.66902948  0.91551265  1
  S  S18  1  0.81082143  0.65805717  0.91457192  1
  S  S19  1  0.01003849  0.35994304  0.91515921  1
  S  S20  1  0.16891713  0.96676514  0.91550367  1
  S  S21  1  0.66650123  0.96124376  0.91237508  1
  S  S22  1  0.31179818  0.96311204  0.41200727  1
  S  S23  1  0.81813348  0.96782307  0.41687307  1
  S  S24  1  0.16678884  0.37315421  0.41446399  1
  S  S25  1  0.66869077  0.37198645  0.41762864  1
  S  S26  1  0.51279375  0.66323466  0.41280042  1
  O  O0  1  0.12168698  0.04045234  0.31481638  1
  O  O1  1  0.60763101  0.00706841  0.30162522  1
  O  O2  1  0.40236910  0.77884817  0.31407252  1
  O  O3  1  0.88782010  0.77207525  0.30284637  1
  O  O4  1  0.49592585  0.20576714  0.29897763  1
  O  O5  1  0.99282867  0.21628442  0.30895866  1
  O  O6  1  0.10557532  0.17452785  0.80019417  1
  O  O7  1  0.62286111  0.20355016  0.81417335  1
  O  O8  1  0.49050921  0.77244214  0.80733009  1
  O  O9  1  0.98555652  0.77629773  0.79935388  1
  O  O10  1  0.38795828  0.00576201  0.80571073  1
  O  O11  1  0.89837880  0.02492245  0.81643602  1
  O  O12  1  0.40128040  0.98769370  0.70244502  1
  O  O13  1  0.90283286  0.97477361  0.70345867  1
  O  O14  1  0.09267895  0.19947956  0.68890863  1
  O  O15  1  0.58872407  0.18725230  0.70134773  1
  O  O16  1  0.00844394  0.81334771  0.69618271  1
  O  O17  1  0.51032197  0.82075225  0.70389771  1
  O  O18  1  0.40430323  0.83516664  0.20168478  1
  O  O19  1  0.89969745  0.80497812  0.19836787  1
  O  O20  1  0.00812793  0.20050689  0.20514010  1
  O  O21  1  0.50935846  0.20974986  0.19545780  1
  O  O22  1  0.08943748  0.99342172  0.20155062  1
  O  O23  1  0.59253274  0.99380781  0.19821037  1
  O  O24  1  0.44826298  0.33925729  0.63765677  1
  O  O25  1  0.94541022  0.33530376  0.63638631  1
  O  O26  1  0.22112926  0.11614512  0.63802399  1
  O  O27  1  0.72060839  0.09526307  0.64196443  1
  O  O28  1  0.32288534  0.52919214  0.63891826  1
  O  O29  1  0.83252044  0.55738180  0.63684657  1
  O  O30  1  0.44298914  0.55297265  0.13797136  1
  O  O31  1  0.94534902  0.54821204  0.13879757  1
  O  O32  1  0.33142164  0.10564992  0.13691697  1
  O  O33  1  0.82824939  0.13004908  0.13001752  1
  O  O34  1  0.22128210  0.34795920  0.14241548  1
  O  O35  1  0.73309416  0.34049795  0.13082405  1
  O  O36  1  0.22023476  0.31299514  0.03807841  1
  O  O37  1  0.70878551  0.29815011  0.02743472  1
  O  O38  1  0.43776697  0.57583133  0.03313049  1
  O  O39  1  0.93436032  0.56863561  0.03521468  1
  O  O40  1  0.34448280  0.11749785  0.03167937  1
  O  O41  1  0.85052586  0.10399236  0.01654105  1
  O  O42  1  0.21627815  0.12956048  0.53322871  1
  O  O43  1  0.71982449  0.12723785  0.53766174  1
  O  O44  1  0.34937625  0.57641131  0.52345373  1
  O  O45  1  0.84347787  0.57021921  0.53152167  1
  O  O46  1  0.44258064  0.31113585  0.53287450  1
  O  O47  1  0.93848572  0.30770180  0.53153045  1
  O  O48  1  0.27261561  0.68179328  0.96420143  1
  O  O49  1  0.77248219  0.67564370  0.96725601  1
  O  O50  1  0.06068885  0.46396699  0.96307109  1
  O  O51  1  0.57257417  0.45715725  0.97146979  1
  O  O52  1  0.16863122  0.86545059  0.96411546  1
  O  O53  1  0.66418429  0.86506145  0.96253047  1
  O  O54  1  0.27236047  0.85996470  0.46245249  1
  O  O55  1  0.77529339  0.86694689  0.46779947  1
  O  O56  1  0.16480709  0.45990184  0.46650573  1
  O  O57  1  0.66541526  0.45774468  0.46973482  1
  O  O58  1  0.07267099  0.69059106  0.47045877  1
  O  O59  1  0.56182313  0.66019451  0.46147339  1
  O  O60  1  0.06881494  0.65046866  0.35900139  1
  O  O61  1  0.55255996  0.66380703  0.35720850  1
  O  O62  1  0.26267431  0.87140774  0.35844925  1
  O  O63  1  0.77207379  0.88658740  0.36394871  1
  O  O64  1  0.17408974  0.47426205  0.36177659  1
  O  O65  1  0.67267006  0.46686249  0.36541241  1
  O  O66  1  0.04894351  0.43719516  0.85914816  1
  O  O67  1  0.56751665  0.48703011  0.85949899  1
  O  O68  1  0.17236188  0.89043471  0.85970242  1
  O  O69  1  0.67251983  0.87866481  0.85827387  1
  O  O70  1  0.27770433  0.65972971  0.86030605  1
  O  O71  1  0.75904079  0.65467421  0.86276280  1
  O  O72  1  0.00123591  0.82331550  0.41207508  1
  O  O73  1  0.50361568  0.81299617  0.41831913  1
  O  O74  1  0.39671668  0.99147495  0.40793789  1
  O  O75  1  0.90297281  0.98737393  0.41524852  1
  O  O76  1  0.08908803  0.21052770  0.41219083  1
  O  O77  1  0.59645115  0.20226802  0.41654530  1
  O  O78  1  0.00218786  0.19348572  0.92112795  1
  O  O79  1  0.50229115  0.18056717  0.91351516  1
  O  O80  1  0.09561960  0.98681967  0.91884036  1
  O  O81  1  0.58880480  0.96930271  0.91197551  1
  O  O82  1  0.40431266  0.81899084  0.91617104  1
  O  O83  1  0.89471873  0.80221234  0.90986056  1
  O  O84  1  0.50041631  0.18118316  0.58966196  1
  O  O85  1  0.98883174  0.16098434  0.58734328  1
  O  O86  1  0.09085149  0.02267642  0.58747295  1
  O  O87  1  0.59220400  0.00872190  0.59038843  1
  O  O88  1  0.41866912  0.83646826  0.59674167  1
  O  O89  1  0.91506868  0.81862901  0.58746416  1
  O  O90  1  0.49210266  0.81919671  0.09204959  1
  O  O91  1  0.99373588  0.81246770  0.09235035  1
  O  O92  1  0.41531628  0.01235488  0.08817870  1
  O  O93  1  0.92163137  0.00054866  0.09416169  1
  O  O94  1  0.09292361  0.17650327  0.09107137  1
  O  O95  1  0.59245814  0.17131330  0.09267675  1
  O  O96  1  0.33398817  0.13407690  0.74311184  1
  O  O97  1  0.84025447  0.16279832  0.74607138  1
  O  O98  1  0.24530706  0.32342804  0.74540279  1
  O  O99  1  0.74793066  0.34432372  0.74341851  1
  O  O100  1  0.43337180  0.54103766  0.74363478  1
  O  O101  1  0.93412604  0.53727443  0.73937121  1
  O  O102  1  0.34062658  0.51956989  0.24604860  1
  O  O103  1  0.83833735  0.53175335  0.24282364  1
  O  O104  1  0.42660405  0.31244675  0.24188032  1
  O  O105  1  0.93597241  0.33660507  0.24560634  1
  O  O106  1  0.24741036  0.15290861  0.24502790  1
  O  O107  1  0.73016335  0.13391625  0.24374720  1
  O  O108  1  0.32953189  0.52130554  0.92039973  1
  O  O109  1  0.81034454  0.49941024  0.91341490  1
  O  O110  1  0.42443641  0.35813279  0.91658086  1
  O  O111  1  0.92525842  0.33853592  0.91596652  1
  O  O112  1  0.24747965  0.13123574  0.91824591  1
  O  O113  1  0.73969705  0.13155845  0.91359210  1
  O  O114  1  0.31054475  0.12047991  0.41363412  1
  O  O115  1  0.82908802  0.13667339  0.42047542  1
  O  O116  1  0.24002941  0.34880725  0.41452397  1
  O  O117  1  0.74754572  0.36543057  0.41837981  1
  O  O118  1  0.42726889  0.51447188  0.41312978  1
  O  O119  1  0.92473180  0.49030901  0.41499643  1
  O  O120  1  0.16403622  0.47365045  0.08216023  1
  O  O121  1  0.66931500  0.47097441  0.08216999  1
  O  O122  1  0.07018112  0.66726098  0.08165432  1
  O  O123  1  0.56947638  0.67678816  0.08390258  1
  O  O124  1  0.26470486  0.85356877  0.08195173  1
  O  O125  1  0.76173147  0.82698335  0.08271348  1
  O  O126  1  0.16156086  0.86369080  0.58419172  1
  O  O127  1  0.66311563  0.85394206  0.58202183  1
  O  O128  1  0.25057093  0.65984524  0.58344809  1
  O  O129  1  0.76432609  0.67403445  0.58252081  1
  O  O130  1  0.07191325  0.45697135  0.58176576  1
  O  O131  1  0.57428885  0.47863088  0.58295581  1
  O  O132  1  0.15757423  0.83090254  0.25333071  1
  O  O133  1  0.64285444  0.83299369  0.24495687  1
  O  O134  1  0.25752499  0.68671253  0.25558626  1
  O  O135  1  0.76584275  0.68746769  0.24358043  1
  O  O136  1  0.08590826  0.45859295  0.25290225  1
  O  O137  1  0.57496737  0.47002819  0.24774566  1
  O  O138  1  0.15316771  0.47607832  0.74680380  1
  O  O139  1  0.65762800  0.48498125  0.75368117  1
  O  O140  1  0.08258421  0.71166248  0.75056508  1
  O  O141  1  0.58373055  0.71046435  0.75353884  1
  O  O142  1  0.26699005  0.83667364  0.74625378  1
  O  O143  1  0.75579357  0.82829058  0.75616871  1
loop_
_geom_bond_atom_site_label_1
_geom_bond_atom_site_label_2
_geom_bond_distance
_geom_bond_site_symmetry_2
Na0 O106 2.370407 1_565
Na0 O134 2.557443 1_555
Na0 O132 2.563373 1_555
Na0 O104 2.626709 1_565
Na0 O32 2.663207 1_565
Na0 O62 2.866121 1_555
Na0 O18 2.933114 1_555
Na1 O102 2.431171 1_555
Na1 O34 2.566213 1_555
Na1 O136 2.587260 1_555
Na1 O106 2.600054 1_555
Na1 O134 2.708197 1_555
Na1 O64 2.916823 1_555
Na1 O0 2.976728 1_555
Na2 O102 2.459963 1_555
Na2 O133 2.514523 1_555
Na2 O61 2.564173 1_555
Na2 O104 2.665143 1_555
Na2 O137 2.724018 1_555
Na2 O30 2.887020 1_555
Na2 O2 2.919552 1_555
Na3 O28 2.353416 1_555
Na3 O98 2.394132 1_555
Na3 O138 2.545901 1_555
Na3 O142 2.583356 1_555
Na3 O100 2.764661 1_555
Na4 O99 2.366824 1_555
Na4 O139 2.569545 1_555
Na4 O143 2.574127 1_555
Na4 O29 2.635583 1_555
Na4 O101 2.800595 1_555
Na4 O13 2.895573 1_555
Na5 O138 2.529077 1_655
Na5 O97 2.556760 1_555
Na5 O66 2.607314 1_655
Na5 O101 2.734619 1_555
Na5 O11 2.907092 1_555
Na5 O25 2.931626 1_555
Na6 O98 2.441061 1_555
Na6 O96 2.536675 1_555
Na6 O140 2.570952 1_545
Na6 O6 2.633047 1_555
Na6 O68 2.674780 1_545
Na6 O26 2.878896 1_555
Na6 O142 2.942087 1_545
Na7 O97 2.434363 1_555
Na7 O27 2.583959 1_555
Na7 O141 2.606717 1_545
Na7 O99 2.622090 1_555
Na7 O143 2.689815 1_545
Na7 O69 2.813418 1_545
Na7 O7 2.952580 1_555
Na8 O128 2.460179 1_555
Na8 O130 2.478594 1_555
Na8 O14 2.668985 1_555
Na8 O28 2.676251 1_555
Na8 O86 2.722050 1_555
Na9 O125 2.282665 1_555
Na9 O93 2.553590 1_565
Na9 O91 2.634175 1_555
Na9 O121 2.694106 1_555
Na9 O39 2.870515 1_555
Na9 O49 2.904335 1_554
Na9 O19 2.927163 1_555
Na9 O35 3.037040 1_555
Na10 O110 2.437445 1_555
Na10 O108 2.531232 1_555
Na10 O81 2.578276 1_555
Na10 O82 2.632087 1_555
Na10 O8 2.768403 1_555
Na10 O38 2.813164 1_556
Na11 O79 2.400483 1_555
Na11 O112 2.486967 1_555
Na11 O110 2.522713 1_555
Na11 O10 2.714253 1_555
Na11 O82 2.735472 1_545
Na11 O40 2.801364 1_556
Na12 O41 2.324997 1_556
Na12 O78 2.453166 1_655
Na12 O111 2.531213 1_555
Na12 O11 2.607150 1_555
Na12 O83 2.631007 1_545
Na12 O113 2.715063 1_555
Na13 O109 2.488841 1_555
Na13 O7 2.490644 1_555
Na13 O79 2.539063 1_555
Na13 O113 2.752434 1_555
Na13 O81 2.760234 1_545
Na13 O37 2.806664 1_556
Na13 O51 2.922553 1_555
Na14 O119 2.429653 1_555
Na14 O115 2.505351 1_555
Na14 O76 2.581318 1_655
Na14 O75 2.620631 1_545
Na14 O5 2.691294 1_555
Na14 O47 2.799115 1_555
Na15 O0 2.402171 1_555
Na15 O72 2.520202 1_545
Na15 O114 2.535536 1_555
Na15 O76 2.739111 1_555
Na15 O116 2.755498 1_555
Na15 O58 2.922083 1_545
Na15 O42 3.043138 1_555
Na16 O44 2.463120 1_555
Na16 O73 2.466118 1_555
Na16 O118 2.510386 1_555
Na16 O116 2.682063 1_555
Na16 O74 2.711166 1_555
Na16 O2 2.746307 1_555
Na16 O54 2.962090 1_555
Na17 O72 2.398523 1_655
Na17 O117 2.467795 1_555
Na17 O119 2.546378 1_555
Na17 O75 2.717364 1_555
Na17 O3 2.746093 1_555
Na17 O45 2.837058 1_555
Na18 O72 2.411829 1_655
Na18 O89 2.449491 1_555
Na18 O86 2.589048 1_665
Na18 O75 2.725422 1_555
Na18 O85 2.860354 1_565
Na18 O76 2.988201 1_665
Na19 O87 2.536742 1_565
Na19 O73 2.637880 1_555
Na19 O88 2.646694 1_555
Na19 O84 2.657548 1_565
Na19 O77 2.748203 1_565
Na19 O74 3.018281 1_555
Na20 O78 2.471502 1_554
Na20 O94 2.494932 1_555
Na20 O93 2.624025 1_455
Na20 O80 2.691536 1_544
Na20 O91 2.848235 1_445
Na21 O79 2.393099 1_555
Na21 O92 2.585936 1_556
Na21 O95 2.661946 1_556
Na21 O82 2.731118 1_545
Na21 O81 2.846086 1_545
Na21 O90 2.922949 1_546
Na22 O110 2.545853 1_555
Na22 O112 2.566070 1_555
Na22 O98 2.577128 1_555
Na22 O108 2.609706 1_555
Na22 O96 2.916792 1_555
Na22 O100 2.924388 1_555
Na23 O97 2.498058 1_555
Na23 O99 2.539597 1_555
Na23 O113 2.670456 1_555
Na23 O111 2.691677 1_555
Na23 O109 2.720359 1_555
Na23 O101 2.831215 1_555
Na24 O106 2.483348 1_555
Na24 O102 2.524052 1_555
Na24 O118 2.685478 1_555
Na24 O116 2.687105 1_555
Na24 O114 2.711004 1_555
Na24 O104 2.759668 1_555
Na25 O119 2.426038 1_555
Na25 O117 2.555776 1_555
Na25 O115 2.697136 1_555
Na25 O103 2.802889 1_555
Na25 O107 2.882697 1_555
Na25 O105 2.892014 1_555
Na26 O122 2.534857 1_555
Na26 O132 2.601983 1_555
Na26 O124 2.622590 1_555
Na26 O120 2.658835 1_555
Na26 O136 2.745835 1_555
Na26 O134 2.763935 1_555
Na27 O125 2.285472 1_555
Na27 O135 2.525955 1_555
Na27 O133 2.536354 1_555
Na27 O123 2.688609 1_555
Na27 O121 2.827844 1_555
Na27 O137 2.912124 1_555
Na28 O128 2.335230 1_555
Na28 O142 2.542764 1_555
Na28 O138 2.559499 1_555
Na28 O126 2.681724 1_555
Na28 O130 2.721398 1_555
Na28 O140 2.849667 1_555
Na29 O131 2.462893 1_555
Na29 O129 2.566492 1_555
Na29 O139 2.613128 1_555
Na29 O127 2.661240 1_555
Na29 O143 2.769934 1_555
Na29 O141 2.818577 1_555
Ca0 O0 2.184285 1_565
Ca0 O72 2.217624 1_555
Ca0 O3 2.300866 1_455
Ca0 O5 2.345322 1_465
Ca0 O75 2.441554 1_455
Ca0 O76 2.447166 1_565
Ca1 O2 2.194526 1_545
Ca1 O1 2.251361 1_555
Ca1 O4 2.313283 1_555
Ca1 O77 2.344479 1_555
Ca1 O74 2.348901 1_545
Ca1 O73 2.373873 1_545
Ca2 O6 2.127184 1_555
Ca2 O11 2.219900 1_455
Ca2 O9 2.360984 1_445
Ca2 O78 2.384167 1_555
Ca2 O80 2.396165 1_545
Ca2 O83 2.398742 1_445
Ca3 O7 2.165518 1_555
Ca3 O79 2.213021 1_555
Ca3 O10 2.316790 1_555
Ca3 O8 2.346585 1_545
Ca3 O81 2.403954 1_545
Ca3 O82 2.464224 1_545
Ca4 O28 2.152408 1_555
Ca4 O98 2.266261 1_555
Ca4 O24 2.282229 1_555
Ca4 O26 2.333114 1_555
Ca4 O100 2.378985 1_555
Ca4 O96 2.402241 1_555
Ca5 O99 2.222692 1_555
Ca5 O97 2.257694 1_555
Ca5 O27 2.298554 1_555
Ca5 O25 2.322382 1_555
Ca5 O29 2.356429 1_555
Ca5 O101 2.387815 1_555
Ca6 O106 2.215845 1_555
Ca6 O102 2.274637 1_555
Ca6 O34 2.289097 1_555
Ca6 O30 2.303671 1_555
Ca6 O32 2.353012 1_555
Ca6 O104 2.388305 1_555
Ca7 O33 2.091716 1_555
Ca7 O35 2.309807 1_555
Ca7 O31 2.331932 1_555
Ca7 O107 2.349851 1_555
Ca7 O105 2.371121 1_555
Ca7 O103 2.425205 1_555
Ca8 O110 2.278403 1_555
Ca8 O108 2.350862 1_555
Ca8 O36 2.356408 1_556
Ca8 O112 2.368757 1_555
Ca8 O38 2.390811 1_556
Ca8 O40 2.394827 1_556
Ca9 O41 2.165874 1_556
Ca9 O39 2.383135 1_556
Ca9 O111 2.391348 1_555
Ca9 O37 2.443896 1_556
Ca9 O113 2.550965 1_555
Ca9 O109 2.765735 1_555
Ca10 O44 2.190588 1_555
Ca10 O46 2.319875 1_555
Ca10 O118 2.380514 1_555
Ca10 O42 2.434363 1_555
Ca10 O116 2.586366 1_555
Ca10 O114 2.627543 1_555
Ca11 O119 2.306848 1_555
Ca11 O43 2.351159 1_555
Ca11 O117 2.355125 1_555
Ca11 O115 2.363982 1_555
Ca11 O47 2.369054 1_555
Ca11 O45 2.378670 1_555
Ca12 O52 2.242922 1_554
Ca12 O50 2.246548 1_554
Ca12 O48 2.293802 1_554
Ca12 O120 2.322543 1_555
Ca12 O122 2.342927 1_555
Ca12 O124 2.403683 1_555
Ca13 O51 2.152866 1_554
Ca13 O125 2.239457 1_555
Ca13 O53 2.301112 1_554
Ca13 O123 2.331393 1_555
Ca13 O49 2.356061 1_554
Ca13 O121 2.365758 1_555
Ca14 O58 2.149507 1_555
Ca14 O128 2.226357 1_555
Ca14 O54 2.298712 1_555
Ca14 O126 2.329915 1_555
Ca14 O56 2.380139 1_555
Ca14 O130 2.399998 1_555
Ca15 O57 2.257168 1_555
Ca15 O59 2.273131 1_555
Ca15 O55 2.281871 1_555
Ca15 O131 2.315538 1_555
Ca15 O127 2.328068 1_555
Ca15 O129 2.402276 1_555
Ca16 O65 2.272384 1_555
Ca16 O63 2.277934 1_555
Ca16 O135 2.378019 1_555
Ca16 O61 2.387812 1_555
Ca16 O137 2.397621 1_555
Ca16 O133 2.439685 1_555
Ca17 O138 2.261052 1_555
Ca17 O66 2.301467 1_555
Ca17 O70 2.308111 1_555
Ca17 O68 2.379579 1_555
Ca17 O140 2.439016 1_555
Ca17 O142 2.467859 1_555
O0 Si0 1.613710 1_555
O1 S0 1.466954 1_545
O2 Si1 1.606125 1_555
O3 S1 1.478702 1_555
O4 S3 1.465397 1_555
O5 S2 1.471700 1_655
O6 Si2 1.602694 1_555
O7 Si3 1.614172 1_555
O8 S5 1.476474 1_555
O9 S4 1.465671 1_655
O10 S6 1.474432 1_545
O11 Si4 1.605123 1_545
O12 S6 1.502384 1_555
O12 Zr1 2.196970 1_565
O13 Si4 1.714366 1_555
O13 Zr0 1.976643 1_565
O14 Si2 1.728002 1_555
O14 Zr0 1.976427 1_455
O15 Si3 1.666097 1_555
O15 Zr1 2.041460 1_555
O16 S4 1.514092 1_555
O16 Zr0 2.169772 1_465
O17 S5 1.495059 1_555
O17 Zr1 2.272762 1_565
O18 Si1 1.728400 1_555
O18 Zr3 1.970479 1_555
O19 S1 1.523752 1_555
O19 Zr2 2.166831 1_655
O20 S2 1.502297 1_555
O20 Zr2 2.218189 1_545
O21 S3 1.513172 1_555
O21 Zr3 2.162334 1_545
O22 Si0 1.663987 1_565
O22 Zr2 2.046686 1_555
O23 S0 1.527302 1_555
O23 Zr3 2.122225 1_555
O24 S7 1.464218 1_555
O25 S8 1.470598 1_555
O26 S9 1.479278 1_555
O27 S10 1.476922 1_555
O28 Si5 1.636225 1_555
O29 S11 1.481299 1_555
O30 S12 1.474119 1_555
O31 S13 1.457999 1_555
O32 S14 1.475788 1_555
O33 Si6 1.603307 1_555
O34 S15 1.476792 1_555
O35 S16 1.467631 1_555
O36 S15 1.470200 1_555
O37 S16 1.494834 1_555
O38 S12 1.480629 1_555
O39 S13 1.483333 1_555
O40 S14 1.478806 1_555
O41 Si6 1.640885 1_555
O42 S9 1.494373 1_555
O43 S10 1.468968 1_555
O44 Si5 1.645037 1_555
O45 S11 1.484169 1_555
O46 S7 1.470126 1_555
O47 S8 1.475582 1_555
O48 S17 1.474652 1_555
O49 S18 1.470931 1_555
O50 S19 1.471073 1_555
O51 Si7 1.595193 1_555
O52 S20 1.475085 1_555
O53 S21 1.461869 1_555
O54 S22 1.463139 1_555
O55 S23 1.476431 1_555
O56 S24 1.469562 1_555
O57 S25 1.473034 1_555
O58 Si8 1.596647 1_555
O59 S26 1.466522 1_555
O60 Si8 1.719497 1_555
O60 Zr4 1.967364 1_555
O61 S26 1.491024 1_555
O62 S22 1.530828 1_555
O62 Zr4 2.191093 1_555
O63 S23 1.476500 1_555
O64 S24 1.513101 1_555
O64 Zr4 2.333269 1_555
O65 S25 1.485181 1_555
O66 S19 1.491161 1_555
O67 Si7 1.717126 1_555
O67 Zr5 1.976166 1_555
O68 S20 1.499530 1_555
O69 S21 1.511460 1_555
O69 Zr5 2.336257 1_555
O70 S17 1.483697 1_555
O71 S18 1.536701 1_555
O71 Zr5 2.173852 1_555
O72 Si8 1.645103 1_555
O73 S26 1.503115 1_555
O74 S22 1.476617 1_555
O75 S23 1.504348 1_555
O76 S24 1.488560 1_555
O77 S25 1.483336 1_555
O78 S19 1.498630 1_555
O79 Si7 1.647462 1_555
O80 S20 1.476944 1_555
O81 S21 1.493212 1_555
O82 S17 1.501371 1_555
O83 S18 1.474128 1_555
O84 S7 1.526327 1_555
O84 Zr1 2.107702 1_555
O85 S8 1.524947 1_555
O85 Zr0 2.176503 1_555
O86 S9 1.521196 1_555
O86 Zr0 2.309233 1_455
O87 S10 1.523994 1_555
O87 Zr1 2.157324 1_555
O88 Si5 1.695442 1_555
O88 Zr1 2.003247 1_565
O89 S11 1.514488 1_555
O89 Zr0 2.267522 1_565
O90 S12 1.532459 1_555
O90 Zr3 2.124488 1_555
O91 S13 1.530339 1_555
O91 Zr2 2.168252 1_655
O92 S14 1.528956 1_555
O92 Zr3 2.167758 1_545
O93 Si6 1.730134 1_555
O93 Zr2 1.998429 1_645
O94 S15 1.519219 1_555
O94 Zr2 2.181904 1_545
O95 S16 1.518185 1_555
O95 Zr3 2.228466 1_545
O96 S6 1.475473 1_545
O97 Si4 1.630241 1_545
O98 Si2 1.640885 1_555
O99 Si3 1.629638 1_555
O100 S5 1.463766 1_555
O101 S4 1.481740 1_655
O102 Si1 1.630816 1_555
O103 S1 1.468619 1_555
O104 S3 1.492607 1_555
O105 S2 1.451514 1_655
O106 Si0 1.630612 1_555
O107 S0 1.456474 1_545
O108 S17 1.491871 1_555
O109 S18 1.483095 1_555
O110 Si7 1.647559 1_555
O111 S19 1.495870 1_655
O112 S20 1.505674 1_545
O113 S21 1.493552 1_545
O114 S22 1.487714 1_545
O115 S23 1.493023 1_545
O116 S24 1.498090 1_555
O117 S25 1.507394 1_555
O118 S26 1.505168 1_555
O119 Si8 1.645773 1_655
O120 S15 1.478245 1_555
O121 S16 1.476938 1_555
O122 S13 1.479771 1_455
O123 S12 1.464369 1_555
O124 S14 1.477042 1_565
O125 Si6 1.636466 1_565
O126 S9 1.465407 1_565
O127 S10 1.475773 1_565
O128 Si5 1.633640 1_555
O129 S11 1.480373 1_555
O130 S8 1.481518 1_455
O131 S7 1.477760 1_555
O132 Si0 1.688232 1_565
O132 Zr4 2.009913 1_555
O133 S0 1.498610 1_555
O134 Si1 1.663718 1_555
O134 Zr4 2.177660 1_555
O135 S1 1.485883 1_555
O136 S2 1.529235 1_555
O136 Zr4 2.228457 1_555
O137 S3 1.478568 1_555
O138 Si2 1.646097 1_555
O139 Si3 1.686595 1_555
O139 Zr5 2.009386 1_555
O140 S4 1.488473 1_555
O141 S5 1.514035 1_555
O141 Zr5 2.249229 1_555
O142 S6 1.497116 1_555
O143 Si4 1.669649 1_555
O143 Zr5 2.163279 1_555
