# generated using pymatgen
data_Na5Ga2SiSn2P5O24
_symmetry_space_group_name_H-M   'P 1'
_cell_length_a   8.80322793
_cell_length_b   8.78845742
_cell_length_c   22.30580876
_cell_angle_alpha   90.13318389
_cell_angle_beta   89.70750474
_cell_angle_gamma   119.92973439
_symmetry_Int_Tables_number   1
_chemical_formula_structural   Na5Ga2SiSn2P5O24
_chemical_formula_sum   'Na15 Ga6 Si3 Sn6 P15 O72'
_cell_volume   1495.56259955
_cell_formula_units_Z   3
loop_
 _symmetry_equiv_pos_site_id
 _symmetry_equiv_pos_as_xyz
  1  'x, y, z'
loop_
 _atom_site_type_symbol
 _atom_site_label
 _atom_site_symmetry_multiplicity
 _atom_site_fract_x
 _atom_site_fract_y
 _atom_site_fract_z
 _atom_site_occupancy
  Na  Na0  1  0.00310409  0.63644535  0.25119220  1
  Na  Na1  1  0.63177833  0.63958015  0.75172306  1
  Na  Na2  1  0.36796642  0.99717295  0.75111805  1
  Na  Na3  1  0.66401499  0.96924662  0.58419143  1
  Na  Na4  1  0.29687306  0.96774914  0.08330354  1
  Na  Na5  1  0.67319866  0.70007255  0.08292563  1
  Na  Na6  1  0.02960909  0.33190707  0.08392199  1
  Na  Na7  1  0.96720334  0.29946134  0.41593665  1
  Na  Na8  1  0.33505551  0.03475054  0.41742679  1
  Na  Na9  1  0.00273806  0.99443458  0.49954564  1
  Na  Na10  1  0.99962395  0.99781673  0.99798569  1
  Na  Na11  1  0.67361813  0.33135371  0.83767589  1
  Na  Na12  1  0.66123601  0.33468386  0.33486239  1
  Na  Na13  1  0.33752498  0.66667467  0.17104104  1
  Na  Na14  1  0.32412763  0.66009357  0.66798094  1
  Ga  Ga0  1  0.99440169  0.99524873  0.34959826  1
  Ga  Ga1  1  0.99837433  0.99457041  0.15219917  1
  Ga  Ga2  1  0.67239558  0.34056335  0.97813819  1
  Ga  Ga3  1  0.66187701  0.33756365  0.48288146  1
  Ga  Ga4  1  0.34103889  0.66623766  0.31505822  1
  Ga  Ga5  1  0.33407065  0.66701112  0.81684925  1
  Si  Si0  1  0.70582838  0.99934763  0.75098047  1
  Si  Si1  1  0.37273935  0.04365629  0.58063539  1
  Si  Si2  1  0.95543033  0.62624616  0.08226361  1
  Sn  Sn0  1  0.99834537  0.00180776  0.85436707  1
  Sn  Sn1  1  0.00398163  0.00052920  0.64749947  1
  Sn  Sn2  1  0.67000555  0.33013896  0.68425665  1
  Sn  Sn3  1  0.66506006  0.33077304  0.18653963  1
  Sn  Sn4  1  0.33002799  0.66621388  0.01398770  1
  Sn  Sn5  1  0.33085086  0.66540467  0.51784084  1
  P  P0  1  0.28952413  0.99885344  0.25141283  1
  P  P1  1  0.70624974  0.71385058  0.25075071  1
  P  P2  1  0.00426705  0.28872421  0.25067323  1
  P  P3  1  0.28953919  0.29667246  0.75102779  1
  P  P4  1  0.00315986  0.70570530  0.75126452  1
  P  P5  1  0.95860553  0.33619015  0.58061432  1
  P  P6  1  0.66716003  0.62121675  0.58189371  1
  P  P7  1  0.66923052  0.04481788  0.08173546  1
  P  P8  1  0.37570942  0.33043598  0.08199504  1
  P  P9  1  0.62442571  0.66161851  0.91548594  1
  P  P10  1  0.03914723  0.37639888  0.91502685  1
  P  P11  1  0.33860850  0.96545418  0.91518020  1
  P  P12  1  0.62765821  0.95710564  0.41457482  1
  P  P13  1  0.33635155  0.37664629  0.41428218  1
  P  P14  1  0.03707891  0.66599702  0.41430722  1
  O  O0  1  0.20757481  0.03103263  0.30769179  1
  O  O1  1  0.83039965  0.79350187  0.30456282  1
  O  O2  1  0.97050046  0.17621904  0.30722708  1
  O  O3  1  0.21643184  0.17143118  0.80522302  1
  O  O4  1  0.96009048  0.78521146  0.80598171  1
  O  O5  1  0.83094789  0.03742321  0.80772941  1
  O  O6  1  0.78192574  0.95459191  0.68959983  1
  O  O7  1  0.18052429  0.21714722  0.69418916  1
  O  O8  1  0.04280921  0.82281474  0.69492175  1
  O  O9  1  0.78560314  0.81910938  0.19204624  1
  O  O10  1  0.03019762  0.20754866  0.19239016  1
  O  O11  1  0.17778326  0.96512905  0.19368085  1
  O  O12  1  0.88505788  0.37279465  0.63831557  1
  O  O13  1  0.49131422  0.11543974  0.64199952  1
  O  O14  1  0.63456456  0.51731944  0.64149646  1
  O  O15  1  0.88462216  0.50569873  0.14360518  1
  O  O16  1  0.62097383  0.11350730  0.13884923  1
  O  O17  1  0.49055439  0.37372697  0.13903851  1
  O  O18  1  0.45703195  0.29212035  0.02760760  1
  O  O19  1  0.82612178  0.53559914  0.02656332  1
  O  O20  1  0.70256283  0.16238165  0.02738500  1
  O  O21  1  0.46211633  0.15990608  0.52129445  1
  O  O22  1  0.70095706  0.53950859  0.52736930  1
  O  O23  1  0.84291455  0.29985895  0.52483908  1
  O  O24  1  0.55117270  0.70092575  0.97456654  1
  O  O25  1  0.14746805  0.44534143  0.97485492  1
  O  O26  1  0.29850243  0.85363432  0.97415263  1
  O  O27  1  0.55354284  0.84889886  0.47353039  1
  O  O28  1  0.29118780  0.44972057  0.47157169  1
  O  O29  1  0.15711852  0.70747626  0.47034830  1
  O  O30  1  0.12017402  0.62863142  0.35882656  1
  O  O31  1  0.50176840  0.87237698  0.36191456  1
  O  O32  1  0.36530485  0.49324643  0.36021303  1
  O  O33  1  0.13000839  0.49448628  0.86139503  1
  O  O34  1  0.36453037  0.87790376  0.85967466  1
  O  O35  1  0.51175601  0.63554154  0.86008908  1
  O  O36  1  0.02635366  0.83637002  0.40829652  1
  O  O37  1  0.81483884  0.98225253  0.40843250  1
  O  O38  1  0.16794244  0.19024281  0.40903510  1
  O  O39  1  0.02667339  0.19342853  0.91252486  1
  O  O40  1  0.16841441  0.97787638  0.91103197  1
  O  O41  1  0.80828776  0.82951252  0.91265117  1
  O  O42  1  0.96696407  0.16419125  0.58696860  1
  O  O43  1  0.17936190  0.02278636  0.58634295  1
  O  O44  1  0.82799892  0.80958831  0.58677590  1
  O  O45  1  0.97978386  0.82330310  0.09080396  1
  O  O46  1  0.83349592  0.02572737  0.09008529  1
  O  O47  1  0.18947162  0.16978528  0.09044071  1
  O  O48  1  0.68111062  0.17173065  0.74685842  1
  O  O49  1  0.47658805  0.31643835  0.74465962  1
  O  O50  1  0.82952354  0.52785720  0.74418118  1
  O  O51  1  0.69520532  0.52888180  0.24575502  1
  O  O52  1  0.83722120  0.31149042  0.24651572  1
  O  O53  1  0.47413088  0.16566962  0.24553966  1
  O  O54  1  0.63815192  0.49494451  0.92200577  1
  O  O55  1  0.85665511  0.35757529  0.92220515  1
  O  O56  1  0.50339302  0.14614854  0.92354757  1
  O  O57  1  0.64633911  0.14306543  0.42133736  1
  O  O58  1  0.49886603  0.35386776  0.42124989  1
  O  O59  1  0.85770272  0.49593259  0.42339743  1
  O  O60  1  0.35882609  0.49984971  0.07702172  1
  O  O61  1  0.15355867  0.64677147  0.07790444  1
  O  O62  1  0.50392465  0.85598690  0.07685420  1
  O  O63  1  0.36331888  0.85101258  0.57761997  1
  O  O64  1  0.50284959  0.64381669  0.57739573  1
  O  O65  1  0.14380218  0.49738016  0.57694100  1
  O  O66  1  0.30352932  0.82980620  0.25703065  1
  O  O67  1  0.52298505  0.69236019  0.25711612  1
  O  O68  1  0.16397481  0.47772006  0.25615475  1
  O  O69  1  0.31341363  0.48062020  0.75801113  1
  O  O70  1  0.16747854  0.68998860  0.75791852  1
  O  O71  1  0.51096848  0.82313849  0.75715993  1
loop_
_geom_bond_atom_site_label_1
_geom_bond_atom_site_label_2
_geom_bond_distance
_geom_bond_site_symmetry_2
Na0 O66 2.327443 1_555
Na0 O51 2.387707 1_455
Na0 O68 2.436665 1_555
Na0 O52 2.477475 1_455
Na0 O30 2.632048 1_555
Na0 O15 2.642752 1_455
Na0 O1 2.775220 1_455
Na0 O11 2.814077 1_555
Na1 O71 2.336228 1_555
Na1 O50 2.392613 1_555
Na1 O69 2.432281 1_555
Na1 O49 2.466765 1_555
Na1 O35 2.626280 1_555
Na1 O14 2.685831 1_555
Na1 O6 2.771156 1_555
Na1 O4 2.791671 1_555
Na2 O70 2.381345 1_555
Na2 O48 2.395775 1_565
Na2 O71 2.422053 1_555
Na2 O49 2.476100 1_565
Na2 O34 2.634847 1_555
Na2 O13 2.653715 1_565
Na2 O3 2.755903 1_565
Na2 O8 2.786335 1_555
Na3 O63 2.316644 1_555
Na3 O42 2.343794 1_565
Na3 O44 2.465480 1_555
Na3 O64 2.483289 1_555
Na3 O6 2.604224 1_555
Na3 O27 2.672700 1_555
Na3 O13 2.747051 1_565
Na3 O23 2.847053 1_565
Na4 O47 2.396736 1_565
Na4 O45 2.427272 1_455
Na4 O61 2.451997 1_555
Na4 O62 2.467982 1_555
Na4 O26 2.633706 1_554
Na4 O11 2.666675 1_555
Na4 O18 2.765093 1_565
Na4 O16 2.774536 1_565
Na5 O45 2.361199 1_555
Na5 O60 2.432263 1_555
Na5 O62 2.481321 1_555
Na5 O46 2.485549 1_565
Na5 O9 2.641556 1_555
Na5 O24 2.651549 1_554
Na5 O19 2.719981 1_555
Na5 O17 2.787858 1_555
Na6 O46 2.367219 1_455
Na6 O61 2.419320 1_555
Na6 O47 2.456752 1_555
Na6 O60 2.515861 1_555
Na6 O25 2.634833 1_554
Na6 O10 2.658271 1_555
Na6 O15 2.766356 1_455
Na6 O20 2.801271 1_455
Na7 O59 2.365644 1_555
Na7 O38 2.399378 1_655
Na7 O37 2.422318 1_545
Na7 O57 2.450599 1_555
Na7 O2 2.659386 1_555
Na7 O23 2.659812 1_555
Na7 O28 2.772831 1_655
Na7 O30 2.813767 1_655
Na8 O36 2.396334 1_545
Na8 O57 2.412894 1_555
Na8 O58 2.432429 1_555
Na8 O38 2.465114 1_555
Na8 O21 2.572099 1_555
Na8 O0 2.691273 1_555
Na8 O29 2.760610 1_545
Na8 O31 2.790445 1_545
Na9 O43 2.422806 1_565
Na9 O44 2.506338 1_455
Na9 O36 2.527142 1_555
Na9 O42 2.564497 1_465
Na9 O38 2.577056 1_565
Na9 O37 2.595116 1_455
Na10 O41 2.486287 1_555
Na10 O40 2.495875 1_655
Na10 O39 2.499616 1_665
Na10 O45 2.532395 1_556
Na10 O46 2.596978 1_566
Na10 O47 2.613526 1_666
Na11 O55 2.421363 1_555
Na11 O56 2.472864 1_555
Na11 O54 2.476324 1_555
Na11 O48 2.480677 1_555
Na11 O50 2.614887 1_555
Na11 O49 2.671906 1_555
Na12 O58 2.448572 1_555
Na12 O57 2.523080 1_555
Na12 O51 2.540328 1_555
Na12 O53 2.543115 1_555
Na12 O59 2.544733 1_555
Na12 O52 2.570448 1_555
Na13 O67 2.462726 1_555
Na13 O68 2.479836 1_555
Na13 O66 2.496692 1_555
Na13 O61 2.592162 1_555
Na13 O60 2.615128 1_555
Na13 O62 2.623086 1_555
Na14 O70 2.515178 1_555
Na14 O71 2.526633 1_555
Na14 O69 2.528625 1_555
Na14 O63 2.535317 1_555
Na14 O65 2.538286 1_555
Na14 O64 2.601796 1_555
Ga0 O1 1.920769 1_555
Ga0 O2 1.951925 1_565
Ga0 O0 1.972026 1_665
Ga0 O37 2.008324 1_555
Ga0 O36 2.036478 1_655
Ga0 O38 2.103812 1_665
Ga1 O9 1.945107 1_555
Ga1 O11 1.959936 1_655
Ga1 O10 1.963961 1_665
Ga1 O45 1.978555 1_555
Ga1 O47 2.121360 1_665
Ga1 O46 2.126082 1_565
Ga2 O19 1.904672 1_556
Ga2 O54 1.979721 1_555
Ga2 O55 1.987028 1_555
Ga2 O56 2.021823 1_555
Ga2 O20 2.038465 1_556
Ga2 O18 2.041732 1_556
Ga3 O21 1.874938 1_555
Ga3 O22 1.907607 1_555
Ga3 O23 2.017248 1_555
Ga3 O58 2.048409 1_555
Ga3 O59 2.064089 1_555
Ga3 O57 2.140748 1_555
Ga4 O32 1.924812 1_555
Ga4 O31 1.955727 1_555
Ga4 O67 1.975327 1_555
Ga4 O30 2.045397 1_555
Ga4 O68 2.081988 1_555
Ga4 O66 2.082670 1_555
Ga5 O33 1.945284 1_555
Ga5 O35 1.975303 1_555
Ga5 O34 1.979404 1_555
Ga5 O71 1.983830 1_555
Ga5 O69 2.033242 1_555
Ga5 O70 2.058126 1_555
O0 P0 1.539160 1_545
O1 P1 1.539910 1_555
O2 P2 1.538179 1_655
O3 P3 1.542214 1_555
O3 Sn0 2.059125 1_455
O4 P4 1.541852 1_655
O4 Sn0 2.063058 1_565
O5 Si0 1.603740 1_545
O5 Sn0 1.956841 1_555
O6 Si0 1.652000 1_555
O6 Sn1 2.015353 1_665
O7 P3 1.534880 1_555
O7 Sn1 2.044289 1_555
O8 P4 1.550368 1_555
O8 Sn1 2.054063 1_565
O9 P1 1.552367 1_555
O10 P2 1.551243 1_555
O11 P0 1.560136 1_555
O12 P5 1.541641 1_555
O12 Sn2 2.012081 1_555
O13 Si1 1.647603 1_555
O13 Sn2 1.992055 1_555
O14 P6 1.556894 1_555
O14 Sn2 2.058076 1_555
O15 Si2 1.649897 1_555
O15 Sn3 2.009800 1_555
O16 P7 1.553927 1_555
O16 Sn3 2.045350 1_555
O17 P8 1.553364 1_555
O17 Sn3 2.054816 1_555
O18 P8 1.525596 1_555
O19 Si2 1.605933 1_555
O20 P7 1.524146 1_555
O21 Si1 1.615056 1_555
O22 P6 1.512871 1_555
O23 P5 1.540651 1_555
O24 P9 1.575877 1_555
O24 Sn4 2.011812 1_556
O25 P10 1.577984 1_555
O25 Sn4 2.001547 1_556
O26 P11 1.573465 1_555
O26 Sn4 2.011239 1_556
O27 P12 1.561189 1_555
O27 Sn5 2.062427 1_555
O28 P13 1.565023 1_555
O28 Sn5 2.028365 1_555
O29 P14 1.561778 1_555
O29 Sn5 2.044672 1_555
O30 P14 1.550167 1_555
O31 P12 1.532374 1_555
O32 P13 1.520393 1_555
O33 P10 1.521718 1_555
O34 P11 1.531299 1_555
O35 P9 1.532174 1_555
O36 P14 1.552733 1_555
O37 P12 1.554761 1_555
O38 P13 1.572472 1_555
O39 P10 1.557038 1_555
O39 Sn0 2.038422 1_455
O40 P11 1.558826 1_555
O40 Sn0 2.053793 1_465
O41 P9 1.554730 1_555
O41 Sn0 2.059424 1_565
O42 P5 1.556453 1_555
O42 Sn1 2.116427 1_655
O43 Si1 1.623008 1_555
O43 Sn1 1.990277 1_555
O44 P6 1.555313 1_555
O44 Sn1 2.113605 1_665
O45 Si2 1.646166 1_555
O46 P7 1.548851 1_555
O47 P8 1.550825 1_555
O48 Si0 1.637307 1_545
O48 Sn2 2.010922 1_555
O49 P3 1.572912 1_555
O49 Sn2 2.121732 1_555
O50 P4 1.556181 1_655
O50 Sn2 2.086019 1_555
O51 P1 1.583025 1_555
O51 Sn3 2.092419 1_555
O52 P2 1.583101 1_655
O52 Sn3 2.096062 1_555
O53 P0 1.558458 1_545
O53 Sn3 2.053068 1_555
O54 P9 1.535970 1_555
O55 P10 1.538247 1_655
O56 P11 1.537413 1_545
O57 P12 1.565774 1_545
O58 P13 1.548936 1_555
O59 P14 1.552907 1_655
O60 P8 1.572556 1_555
O60 Sn4 2.135869 1_555
O61 Si2 1.663885 1_455
O61 Sn4 2.046670 1_555
O62 P7 1.573054 1_565
O62 Sn4 2.134201 1_555
O63 Si1 1.654452 1_565
O63 Sn5 2.012232 1_555
O64 P6 1.558854 1_555
O64 Sn5 2.098022 1_555
O65 P5 1.538185 1_455
O65 Sn5 2.047031 1_555
O66 P0 1.556247 1_555
O67 P1 1.533742 1_555
O68 P2 1.555961 1_555
O69 P3 1.530361 1_555
O70 P4 1.528148 1_555
O71 Si0 1.645453 1_555
