# generated using pymatgen
data_NaMg(CoO2)3
_symmetry_space_group_name_H-M   'P 1'
_cell_length_a   8.85894066
_cell_length_b   5.07741711
_cell_length_c   5.89825949
_cell_angle_alpha   64.81280218
_cell_angle_beta   60.39645854
_cell_angle_gamma   29.66046956
_symmetry_Int_Tables_number   1
_chemical_formula_structural   NaMg(CoO2)3
_chemical_formula_sum   'Na1 Mg1 Co3 O6'
_cell_volume   114.14739845
_cell_formula_units_Z   1
loop_
 _symmetry_equiv_pos_site_id
 _symmetry_equiv_pos_as_xyz
  1  'x, y, z'
loop_
 _atom_site_type_symbol
 _atom_site_label
 _atom_site_symmetry_multiplicity
 _atom_site_fract_x
 _atom_site_fract_y
 _atom_site_fract_z
 _atom_site_occupancy
  Na  Na0  1  0.21565049  0.90228405  0.48195016  1
  Mg  Mg0  1  0.87033947  0.91046555  0.50775828  1
  Co  Co0  1  0.04445751  0.91200809  0.98566678  1
  Co  Co1  1  0.39823809  0.89861133  0.94642031  1
  Co  Co2  1  0.68864253  0.90709633  0.05589367  1
  O  O0  1  0.08692513  0.27830540  0.78707244  1
  O  O1  1  0.27168903  0.61361944  0.20431058  1
  O  O2  1  0.46038076  0.24142408  0.78425195  1
  O  O3  1  0.66488194  0.51240766  0.21510549  1
  O  O4  1  0.78681307  0.22542044  0.78394280  1
  O  O5  1  0.99431597  0.57035664  0.19500755  1
loop_
_geom_bond_atom_site_label_1
_geom_bond_atom_site_label_2
_geom_bond_distance
_geom_bond_site_symmetry_2
Na0 O3 2.237342 1_555
Na0 O5 2.246831 1_465
Na0 O1 2.247552 1_555
Na0 O2 2.285283 1_555
Na0 O4 2.294864 1_465
Na0 O0 2.301620 1_565
Mg0 O2 2.132522 1_565
Mg0 O3 2.139903 1_565
Mg0 O0 2.148716 1_655
Mg0 O4 2.174479 1_565
Mg0 O1 2.193663 1_655
Mg0 O5 2.237115 1_555
Co0 O1 1.900574 1_556
Co0 O3 1.905734 1_466
Co0 O5 1.924919 1_456
Co0 O2 1.973660 1_555
Co0 O0 1.974595 1_565
Co0 O4 1.979061 1_465
Co1 O4 1.879136 1_555
Co1 O2 1.993915 1_565
Co1 O0 1.996081 1_565
Co1 O5 2.109294 1_466
Co1 O1 2.219365 1_556
Co1 O3 2.222585 1_556
Co2 O1 1.930872 1_565
Co2 O3 1.969317 1_555
Co2 O5 1.970809 1_555
Co2 O0 2.088090 1_654
Co2 O2 2.111415 1_564
Co2 O4 2.190803 1_564
