# generated using pymatgen
data_NaB11H12C
_symmetry_space_group_name_H-M   'P 1'
_cell_length_a   10.09004000
_cell_length_b   9.77199600
_cell_length_c   10.39805300
_cell_angle_alpha   90.00000000
_cell_angle_beta   90.00000000
_cell_angle_gamma   90.00000000
_symmetry_Int_Tables_number   1
_chemical_formula_structural   NaB11H12C
_chemical_formula_sum   'Na4 B44 H48 C4'
_cell_volume   1025.24626354
_cell_formula_units_Z   4
loop_
 _symmetry_equiv_pos_site_id
 _symmetry_equiv_pos_as_xyz
  1  'x, y, z'
loop_
 _atom_site_type_symbol
 _atom_site_label
 _atom_site_symmetry_multiplicity
 _atom_site_fract_x
 _atom_site_fract_y
 _atom_site_fract_z
 _atom_site_occupancy
  Na  Na0  1  0.37089400  0.13379900  0.11403300  1
  Na  Na1  1  0.12910600  0.13379900  0.61403300  1
  Na  Na2  1  0.87089400  0.86620100  0.11403300  1
  Na  Na3  1  0.62910600  0.86620100  0.61403300  1
  B  B0  1  0.33730600  0.79304000  0.95141100  1
  B  B1  1  0.16269400  0.79304000  0.45141100  1
  B  B2  1  0.83730600  0.20696000  0.95141100  1
  B  B3  1  0.66269400  0.20696000  0.45141100  1
  B  B4  1  0.45695200  0.78780900  0.82651900  1
  B  B5  1  0.04304800  0.78780900  0.32652000  1
  B  B6  1  0.95695200  0.21219100  0.82651900  1
  B  B7  1  0.54304800  0.21219100  0.32652000  1
  B  B8  1  0.57499600  0.65844100  0.86389600  1
  B  B9  1  0.92500400  0.65844100  0.36389600  1
  B  B10  1  0.07499600  0.34155900  0.86389600  1
  B  B11  1  0.42500400  0.34155900  0.36389600  1
  B  B12  1  0.52777600  0.58350000  0.01321000  1
  B  B13  1  0.97222400  0.58350000  0.51321000  1
  B  B14  1  0.02777600  0.41650000  0.01321000  1
  B  B15  1  0.47222400  0.41650000  0.51321000  1
  B  B16  1  0.38137600  0.66666100  0.06681100  1
  B  B17  1  0.11862400  0.66666100  0.56681100  1
  B  B18  1  0.88137600  0.33333900  0.06681100  1
  B  B19  1  0.61862400  0.33333900  0.56681100  1
  B  B20  1  0.41970300  0.84074200  0.09529100  1
  B  B21  1  0.08029700  0.84074200  0.59529100  1
  B  B22  1  0.91970300  0.15925800  0.09529100  1
  B  B23  1  0.58029700  0.15925800  0.59529100  1
  B  B24  1  0.46644700  0.91644700  0.94599000  1
  B  B25  1  0.03355300  0.91644700  0.44599000  1
  B  B26  1  0.96644700  0.08355300  0.94599000  1
  B  B27  1  0.53355300  0.08355300  0.44599000  1
  B  B28  1  0.61317600  0.83319400  0.89190800  1
  B  B29  1  0.88682400  0.83319400  0.39190800  1
  B  B30  1  0.11317600  0.16680600  0.89190800  1
  B  B31  1  0.38682400  0.16680600  0.39190800  1
  B  B32  1  0.65686100  0.70640800  0.00748200  1
  B  B33  1  0.84313900  0.70640800  0.50748200  1
  B  B34  1  0.15686100  0.29359200  0.00748200  1
  B  B35  1  0.34313900  0.29359200  0.50748200  1
  B  B36  1  0.53755000  0.71128900  0.13410900  1
  B  B37  1  0.96245000  0.71128900  0.63410900  1
  B  B38  1  0.03755000  0.28871100  0.13410900  1
  B  B39  1  0.46245000  0.28871100  0.63410900  1
  B  B40  1  0.58987400  0.86587500  0.05861800  1
  B  B41  1  0.91012600  0.86587500  0.55861800  1
  B  B42  1  0.08987400  0.13412500  0.05861800  1
  B  B43  1  0.41012600  0.13412500  0.55861800  1
  H  H0  1  0.35287400  0.56887700  0.85569700  1
  H  H1  1  0.14712600  0.56887700  0.35569700  1
  H  H2  1  0.85287400  0.43112300  0.85569700  1
  H  H3  1  0.64712600  0.43112300  0.35569700  1
  H  H4  1  0.22382100  0.81190100  0.92548300  1
  H  H5  1  0.27617900  0.81190100  0.42548300  1
  H  H6  1  0.72382100  0.18809900  0.92548300  1
  H  H7  1  0.77617900  0.18809900  0.42548300  1
  H  H8  1  0.42096500  0.80331600  0.71760200  1
  H  H9  1  0.07903500  0.80331600  0.21760200  1
  H  H10  1  0.92096500  0.19668400  0.71760200  1
  H  H11  1  0.57903500  0.19668400  0.21760200  1
  H  H12  1  0.61854400  0.58870700  0.77986500  1
  H  H13  1  0.88145600  0.58870700  0.27986500  1
  H  H14  1  0.11854400  0.41129300  0.77986500  1
  H  H15  1  0.38145600  0.41129300  0.27986500  1
  H  H16  1  0.54049300  0.46326500  0.02767800  1
  H  H17  1  0.95950700  0.46326500  0.52767800  1
  H  H18  1  0.04049300  0.53673500  0.02767800  1
  H  H19  1  0.45950700  0.53673500  0.52767800  1
  H  H20  1  0.29616100  0.60201100  0.11745100  1
  H  H21  1  0.20383900  0.60201100  0.61745100  1
  H  H22  1  0.79616100  0.39798900  0.11745100  1
  H  H23  1  0.70383900  0.39798900  0.61745100  1
  H  H24  1  0.36295700  0.90239600  0.17851600  1
  H  H25  1  0.13704300  0.90239600  0.67851600  1
  H  H26  1  0.86295700  0.09760400  0.17851600  1
  H  H27  1  0.63704300  0.09760400  0.67851600  1
  H  H28  1  0.44488900  0.03388900  0.91827200  1
  H  H29  1  0.05511100  0.03388900  0.41827200  1
  H  H30  1  0.94488900  0.96611100  0.91827200  1
  H  H31  1  0.55511100  0.96611100  0.41827200  1
  H  H32  1  0.69635600  0.89191600  0.83051000  1
  H  H33  1  0.80364400  0.89191600  0.33051000  1
  H  H34  1  0.19635600  0.10808400  0.83051000  1
  H  H35  1  0.30364400  0.10808400  0.33051000  1
  H  H36  1  0.77001400  0.67202300  0.02483800  1
  H  H37  1  0.72998600  0.67202300  0.52483800  1
  H  H38  1  0.27001400  0.32797700  0.02483800  1
  H  H39  1  0.22998600  0.32797700  0.52483800  1
  H  H40  1  0.56520400  0.68348300  0.24275000  1
  H  H41  1  0.93479600  0.68348300  0.74275000  1
  H  H42  1  0.06520400  0.31651700  0.24275000  1
  H  H43  1  0.43479600  0.31651700  0.74275000  1
  H  H44  1  0.65353100  0.95105200  0.11470900  1
  H  H45  1  0.84646900  0.95105200  0.61470900  1
  H  H46  1  0.15353100  0.04894800  0.11470900  1
  H  H47  1  0.34646900  0.04894800  0.61470900  1
  C  C0  1  0.41267800  0.64367600  0.90708000  1
  C  C1  1  0.08732200  0.64367600  0.40708000  1
  C  C2  1  0.91267800  0.35632400  0.90708000  1
  C  C3  1  0.58732200  0.35632400  0.40708000  1
loop_
_geom_bond_atom_site_label_1
_geom_bond_atom_site_label_2
_geom_bond_distance
_geom_bond_site_symmetry_2
B0 H4 1.190729 1_555
B0 C0 1.709163 1_555
B1 H5 1.190729 1_555
B1 C1 1.709163 1_555
B2 H6 1.190729 1_555
B2 C2 1.709163 1_555
B3 H7 1.190729 1_555
B3 C3 1.709163 1_555
B4 H8 1.198926 1_555
B4 C0 1.698543 1_555
B5 H9 1.198936 1_555
B5 C1 1.698538 1_555
B6 H10 1.198926 1_555
B6 C2 1.698543 1_555
B7 H11 1.198936 1_555
B7 C3 1.698538 1_555
B8 H12 1.192010 1_555
B8 C0 1.704353 1_555
B9 H13 1.192010 1_555
B9 C1 1.704353 1_655
B10 H14 1.192010 1_555
B10 C2 1.704353 1_455
B11 H15 1.192010 1_555
B11 C3 1.704353 1_555
B12 H16 1.191458 1_555
B12 C0 1.706553 1_554
B13 H17 1.191458 1_555
B13 C1 1.706553 1_655
B14 H18 1.191458 1_555
B14 C2 1.706553 1_454
B15 H19 1.191458 1_555
B15 C3 1.706553 1_555
B16 H20 1.189823 1_555
B16 C0 1.705510 1_554
B17 H21 1.189823 1_555
B17 C1 1.705510 1_555
B18 H22 1.189823 1_555
B18 C2 1.705510 1_554
B19 H23 1.189823 1_555
B19 C3 1.705510 1_555
B20 H24 1.199875 1_555
B21 H25 1.199875 1_555
B22 H26 1.199875 1_555
B23 H27 1.199875 1_555
B24 H28 1.203107 1_565
B25 H29 1.203107 1_565
B26 H30 1.203107 1_545
B27 H31 1.203107 1_545
B28 H32 1.200529 1_555
B29 H33 1.200529 1_555
B30 H34 1.200529 1_555
B31 H35 1.200529 1_555
B32 H36 1.203741 1_555
B33 H37 1.203741 1_555
B34 H38 1.203741 1_555
B35 H39 1.203741 1_555
B36 H40 1.194910 1_555
B37 H41 1.194910 1_555
B38 H42 1.194910 1_555
B39 H43 1.194910 1_555
B40 H44 1.202299 1_555
B41 H45 1.202299 1_555
B42 H46 1.202299 1_555
B43 H47 1.202299 1_555
H8 Na3 2.438854 1_555
H9 Na2 2.438854 1_455
H10 Na1 2.438854 1_655
H11 Na0 2.438854 1_555
H24 Na0 2.359940 1_565
H25 Na1 2.359940 1_565
H26 Na2 2.359940 1_545
H27 Na3 2.359940 1_545
H28 Na0 2.377820 1_556
H29 Na1 2.377820 1_555
H30 Na2 2.377820 1_556
H31 Na3 2.377820 1_555
H32 Na3 2.364384 1_555
H33 Na2 2.364384 1_555
H34 Na1 2.364384 1_555
H35 Na0 2.364384 1_555
H36 Na2 2.344523 1_555
H37 Na3 2.344523 1_555
H38 Na0 2.344523 1_555
H39 Na1 2.344523 1_555
H44 Na2 2.344716 1_555
H45 Na3 2.344716 1_555
H46 Na0 2.344716 1_555
H47 Na1 2.344716 1_555
C0 H0 1.088047 1_555
C1 H1 1.088047 1_555
C2 H2 1.088047 1_555
C3 H3 1.088047 1_555
