# generated using pymatgen
data_Nb4Te12I
_symmetry_space_group_name_H-M   'P 1'
_cell_length_a   11.32069945
_cell_length_b   11.32069945
_cell_length_c   19.91730264
_cell_angle_alpha   59.72977702
_cell_angle_beta   59.72977702
_cell_angle_gamma   31.69683711
_symmetry_Int_Tables_number   1
_chemical_formula_structural   Nb4Te12I
_chemical_formula_sum   'Nb8 Te24 I2'
_cell_volume   1142.31093629
_cell_formula_units_Z   2
loop_
 _symmetry_equiv_pos_site_id
 _symmetry_equiv_pos_as_xyz
  1  'x, y, z'
loop_
 _atom_site_type_symbol
 _atom_site_label
 _atom_site_symmetry_multiplicity
 _atom_site_fract_x
 _atom_site_fract_y
 _atom_site_fract_z
 _atom_site_occupancy
  Nb  Nb0  1  0.60220100  0.23186200  0.73406500  1
  Nb  Nb1  1  0.11056900  0.02273000  0.13414800  1
  Nb  Nb2  1  0.97727000  0.88943100  0.36585200  1
  Nb  Nb3  1  0.76813800  0.39779900  0.76593500  1
  Nb  Nb4  1  0.39779900  0.76813800  0.26593500  1
  Nb  Nb5  1  0.23186200  0.60220100  0.23406500  1
  Nb  Nb6  1  0.02273000  0.11056900  0.63414800  1
  Nb  Nb7  1  0.88943100  0.97727000  0.86585200  1
  Te  Te0  1  0.93234300  0.94095700  0.12450400  1
  Te  Te1  1  0.05904300  0.06765700  0.37549600  1
  Te  Te2  1  0.35903800  0.91275000  0.51302900  1
  Te  Te3  1  0.08725000  0.64096200  0.98697100  1
  Te  Te4  1  0.64096200  0.08725000  0.48697100  1
  Te  Te5  1  0.91275000  0.35903800  0.01302900  1
  Te  Te6  1  0.65885400  0.39281300  0.56681600  1
  Te  Te7  1  0.60718700  0.34114600  0.93318400  1
  Te  Te8  1  0.34114600  0.60718700  0.43318400  1
  Te  Te9  1  0.39281300  0.65885400  0.06681600  1
  Te  Te10  1  0.82675200  0.81215700  0.82976500  1
  Te  Te11  1  0.18784300  0.17324800  0.67023500  1
  Te  Te12  1  0.17324800  0.18784300  0.17023500  1
  Te  Te13  1  0.81215700  0.82675200  0.32976500  1
  Te  Te14  1  0.46231900  0.19583600  0.90544300  1
  Te  Te15  1  0.80416400  0.53768100  0.59455700  1
  Te  Te16  1  0.53768100  0.80416400  0.09455700  1
  Te  Te17  1  0.19583600  0.46231900  0.40544300  1
  Te  Te18  1  0.23980400  0.42586300  0.71814900  1
  Te  Te19  1  0.57413700  0.76019600  0.78185100  1
  Te  Te20  1  0.76019600  0.57413700  0.28185100  1
  Te  Te21  1  0.42586300  0.23980400  0.21814900  1
  Te  Te22  1  0.94095700  0.93234300  0.62450400  1
  Te  Te23  1  0.06765700  0.05904300  0.87549600  1
  I  I0  1  0.68051300  0.31948700  0.25000000  1
  I  I1  1  0.31948700  0.68051300  0.75000000  1
loop_
_geom_bond_atom_site_label_1
_geom_bond_atom_site_label_2
_geom_bond_distance
_geom_bond_site_symmetry_2
Nb0 Te18 2.651769 1_555
Nb0 Te22 2.803766 1_545
Nb0 Te10 2.805681 1_545
Nb0 Te6 2.922915 1_555
Nb0 Te14 2.927687 1_555
Nb1 Te5 2.647271 1_455
Nb1 Te9 2.797935 1_545
Nb1 Te16 2.808521 1_545
Nb1 Te12 2.939318 1_555
Nb1 Te0 2.951798 1_445
Nb2 Te4 2.647271 1_565
Nb2 Te8 2.797935 1_655
Nb2 Te17 2.808521 1_655
Nb2 Te13 2.939318 1_555
Nb2 Te1 2.951798 1_665
Nb3 Te19 2.651769 1_555
Nb3 Te23 2.803766 1_655
Nb3 Te11 2.805681 1_655
Nb3 Te7 2.922915 1_555
Nb3 Te15 2.927687 1_555
Nb4 Te20 2.651769 1_555
Nb4 Te1 2.803766 1_565
Nb4 Te12 2.805681 1_565
Nb4 Te8 2.922915 1_555
Nb4 Te16 2.927687 1_555
Nb5 Te21 2.651769 1_555
Nb5 Te0 2.803766 1_455
Nb5 Te13 2.805681 1_455
Nb5 Te9 2.922915 1_555
Nb5 Te17 2.927687 1_555
Nb6 Te2 2.647271 1_545
Nb6 Te6 2.797935 1_455
Nb6 Te15 2.808521 1_455
Nb6 Te11 2.939318 1_555
Nb6 Te22 2.951798 1_445
Nb7 Te3 2.647271 1_655
Nb7 Te7 2.797935 1_565
Nb7 Te14 2.808521 1_565
Nb7 Te10 2.939318 1_555
Nb7 Te23 2.951798 1_665
I0 Nb2 2.995060 1_545
I0 Nb1 2.995060 1_655
I0 Nb5 3.013306 1_555
I0 Nb4 3.013306 1_555
I1 Nb7 2.995060 1_455
I1 Nb6 2.995060 1_565
I1 Nb0 3.013306 1_555
I1 Nb3 3.013306 1_555
