# generated using pymatgen
data_MgVPbO3
_symmetry_space_group_name_H-M   'P 1'
_cell_length_a   3.96000300
_cell_length_b   3.98596500
_cell_length_c   6.33733200
_cell_angle_alpha   90.00000000
_cell_angle_beta   90.00000000
_cell_angle_gamma   90.00000000
_symmetry_Int_Tables_number   1
_chemical_formula_structural   MgVPbO3
_chemical_formula_sum   'Mg1 V1 Pb1 O3'
_cell_volume   100.03119462
_cell_formula_units_Z   1
loop_
 _symmetry_equiv_pos_site_id
 _symmetry_equiv_pos_as_xyz
  1  'x, y, z'
loop_
 _atom_site_type_symbol
 _atom_site_label
 _atom_site_symmetry_multiplicity
 _atom_site_fract_x
 _atom_site_fract_y
 _atom_site_fract_z
 _atom_site_occupancy
  Mg  Mg0  1  0.00000000  0.50000000  0.28572400  1
  V  V0  1  0.50000000  0.50000000  0.61298200  1
  Pb  Pb0  1  0.00000000  0.00000000  0.91363400  1
  O  O0  1  0.50000000  0.50000000  0.30775000  1
  O  O1  1  0.00000000  0.50000000  0.60952100  1
  O  O2  1  0.50000000  0.00000000  0.71708700  1
loop_
_geom_bond_atom_site_label_1
_geom_bond_atom_site_label_2
_geom_bond_distance
_geom_bond_site_symmetry_2
Mg0 O0 1.984916 1_455
Mg0 O0 1.984916 1_555
Mg0 O1 2.052009 1_555
Mg0 Pb0 3.087461 1_554
Mg0 Pb0 3.087461 1_564
O0 V0 1.934357 1_555
O1 V0 1.980123 1_555
O1 V0 1.980123 1_455
O1 Pb0 2.772423 1_565
O1 Pb0 2.772423 1_555
O2 V0 2.099344 1_545
O2 V0 2.099344 1_555
O2 Pb0 2.339206 1_555
O2 Pb0 2.339206 1_655
