# generated using pymatgen
data_Ca5Cr3O12
_symmetry_space_group_name_H-M   'P 1'
_cell_length_a   6.80110200
_cell_length_b   10.41697300
_cell_length_c   16.22068600
_cell_angle_alpha   90.00000000
_cell_angle_beta   90.00000000
_cell_angle_gamma   90.00000000
_symmetry_Int_Tables_number   1
_chemical_formula_structural   Ca5Cr3O12
_chemical_formula_sum   'Ca20 Cr12 O48'
_cell_volume   1149.18525254
_cell_formula_units_Z   4
loop_
 _symmetry_equiv_pos_site_id
 _symmetry_equiv_pos_as_xyz
  1  'x, y, z'
loop_
 _atom_site_type_symbol
 _atom_site_label
 _atom_site_symmetry_multiplicity
 _atom_site_fract_x
 _atom_site_fract_y
 _atom_site_fract_z
 _atom_site_occupancy
  Ca  Ca0  1  0.03891200  0.67680500  0.25000000  1
  Ca  Ca1  1  0.53891200  0.82319500  0.25000000  1
  Ca  Ca2  1  0.96108800  0.32319500  0.75000000  1
  Ca  Ca3  1  0.46108800  0.17680500  0.75000000  1
  Ca  Ca4  1  0.62535200  0.43338800  0.90747600  1
  Ca  Ca5  1  0.12535200  0.06661200  0.59252400  1
  Ca  Ca6  1  0.37464800  0.56661200  0.40747600  1
  Ca  Ca7  1  0.87464800  0.93338800  0.09252400  1
  Ca  Ca8  1  0.37464800  0.56661200  0.09252400  1
  Ca  Ca9  1  0.87464800  0.93338800  0.40747600  1
  Ca  Ca10  1  0.62535200  0.43338800  0.59252400  1
  Ca  Ca11  1  0.12535200  0.06661200  0.90747600  1
  Ca  Ca12  1  0.68064200  0.83359800  0.89363300  1
  Ca  Ca13  1  0.18064200  0.66640200  0.60636700  1
  Ca  Ca14  1  0.31935800  0.16640200  0.39363300  1
  Ca  Ca15  1  0.81935800  0.33359800  0.10636700  1
  Ca  Ca16  1  0.31935800  0.16640200  0.10636700  1
  Ca  Ca17  1  0.81935800  0.33359800  0.39363300  1
  Ca  Ca18  1  0.68064200  0.83359800  0.60636700  1
  Ca  Ca19  1  0.18064200  0.66640200  0.89363300  1
  Cr  Cr0  1  0.36113800  0.87034500  0.07150200  1
  Cr  Cr1  1  0.86113800  0.62965500  0.42849800  1
  Cr  Cr2  1  0.63886200  0.12965500  0.57150200  1
  Cr  Cr3  1  0.13886200  0.37034500  0.92849800  1
  Cr  Cr4  1  0.63886200  0.12965500  0.92849800  1
  Cr  Cr5  1  0.13886200  0.37034500  0.57150200  1
  Cr  Cr6  1  0.36113800  0.87034500  0.42849800  1
  Cr  Cr7  1  0.86113800  0.62965500  0.07150200  1
  Cr  Cr8  1  0.52526200  0.42160400  0.25000000  1
  Cr  Cr9  1  0.02526200  0.07839600  0.25000000  1
  Cr  Cr10  1  0.47473800  0.57839600  0.75000000  1
  Cr  Cr11  1  0.97473800  0.92160400  0.75000000  1
  O  O0  1  0.77571000  0.41261300  0.25000000  1
  O  O1  1  0.27571000  0.08738700  0.25000000  1
  O  O2  1  0.22429000  0.58738700  0.75000000  1
  O  O3  1  0.72429000  0.91261300  0.75000000  1
  O  O4  1  0.42120100  0.57292800  0.25000000  1
  O  O5  1  0.92120100  0.92707200  0.25000000  1
  O  O6  1  0.57879900  0.42707200  0.75000000  1
  O  O7  1  0.07879900  0.07292800  0.75000000  1
  O  O8  1  0.18747800  0.98581800  0.03877100  1
  O  O9  1  0.68747800  0.51418200  0.46122900  1
  O  O10  1  0.81252200  0.01418200  0.53877100  1
  O  O11  1  0.31252200  0.48581800  0.96122900  1
  O  O12  1  0.81252200  0.01418200  0.96122900  1
  O  O13  1  0.31252200  0.48581800  0.53877100  1
  O  O14  1  0.18747800  0.98581800  0.46122900  1
  O  O15  1  0.68747800  0.51418200  0.03877100  1
  O  O16  1  0.27266700  0.77180800  0.15238000  1
  O  O17  1  0.77266700  0.72819200  0.34762000  1
  O  O18  1  0.72733300  0.22819200  0.65238000  1
  O  O19  1  0.22733300  0.27180800  0.84762000  1
  O  O20  1  0.72733300  0.22819200  0.84762000  1
  O  O21  1  0.22733300  0.27180800  0.65238000  1
  O  O22  1  0.27266700  0.77180800  0.34762000  1
  O  O23  1  0.77266700  0.72819200  0.15238000  1
  O  O24  1  0.54120000  0.96548300  0.12000000  1
  O  O25  1  0.04120000  0.53451700  0.38000000  1
  O  O26  1  0.45880000  0.03451700  0.62000000  1
  O  O27  1  0.95880000  0.46548300  0.88000000  1
  O  O28  1  0.45880000  0.03451700  0.88000000  1
  O  O29  1  0.95880000  0.46548300  0.62000000  1
  O  O30  1  0.54120000  0.96548300  0.38000000  1
  O  O31  1  0.04120000  0.53451700  0.12000000  1
  O  O32  1  0.42650900  0.76782900  0.99040300  1
  O  O33  1  0.92650900  0.73217100  0.50959700  1
  O  O34  1  0.57349100  0.23217100  0.49040300  1
  O  O35  1  0.07349100  0.26782900  0.00959700  1
  O  O36  1  0.57349100  0.23217100  0.00959700  1
  O  O37  1  0.07349100  0.26782900  0.49040300  1
  O  O38  1  0.42650900  0.76782900  0.50959700  1
  O  O39  1  0.92650900  0.73217100  0.99040300  1
  O  O40  1  0.45642500  0.35459500  0.34322500  1
  O  O41  1  0.95642500  0.14540500  0.15677500  1
  O  O42  1  0.54357500  0.64540500  0.84322500  1
  O  O43  1  0.04357500  0.85459500  0.65677500  1
  O  O44  1  0.54357500  0.64540500  0.65677500  1
  O  O45  1  0.04357500  0.85459500  0.84322500  1
  O  O46  1  0.45642500  0.35459500  0.15677500  1
  O  O47  1  0.95642500  0.14540500  0.34322500  1
loop_
_geom_bond_atom_site_label_1
_geom_bond_atom_site_label_2
_geom_bond_distance
_geom_bond_site_symmetry_2
Ca0 O22 2.452384 1_555
Ca0 O16 2.452384 1_555
Ca0 O17 2.464295 1_455
Ca0 O23 2.464295 1_455
Ca0 O31 2.577549 1_555
Ca0 O25 2.577549 1_555
Ca0 O5 2.727174 1_455
Ca0 O4 2.816174 1_555
Ca1 O17 2.452384 1_555
Ca1 O23 2.452384 1_555
Ca1 O16 2.464295 1_555
Ca1 O22 2.464295 1_555
Ca1 O30 2.577549 1_555
Ca1 O24 2.577549 1_555
Ca1 O4 2.727174 1_555
Ca1 O5 2.816174 1_555
Ca2 O18 2.452384 1_555
Ca2 O20 2.452384 1_555
Ca2 O19 2.464295 1_655
Ca2 O21 2.464295 1_655
Ca2 O27 2.577549 1_555
Ca2 O29 2.577549 1_555
Ca2 O7 2.727174 1_655
Ca2 O6 2.816174 1_555
Ca3 O19 2.452384 1_555
Ca3 O21 2.452384 1_555
Ca3 O18 2.464295 1_555
Ca3 O20 2.464295 1_555
Ca3 O28 2.577549 1_555
Ca3 O26 2.577549 1_555
Ca3 O6 2.727174 1_555
Ca3 O7 2.816174 1_555
Ca4 O15 2.328619 1_556
Ca4 O27 2.335249 1_555
Ca4 O11 2.363293 1_555
Ca4 O20 2.448002 1_555
Ca4 O42 2.504657 1_555
Ca4 O6 2.574757 1_555
Ca4 O36 2.694777 1_556
Ca5 O14 2.328619 1_545
Ca5 O26 2.335249 1_555
Ca5 O10 2.363293 1_455
Ca5 O21 2.448002 1_555
Ca5 O43 2.504657 1_545
Ca5 O7 2.574757 1_555
Ca5 O37 2.694777 1_555
Ca6 O13 2.328619 1_555
Ca6 O25 2.335249 1_555
Ca6 O9 2.363293 1_555
Ca6 O22 2.448002 1_555
Ca6 O40 2.504657 1_555
Ca6 O4 2.574757 1_555
Ca6 O38 2.694777 1_555
Ca7 O12 2.328619 1_564
Ca7 O24 2.335249 1_555
Ca7 O8 2.363293 1_655
Ca7 O23 2.448002 1_555
Ca7 O41 2.504657 1_565
Ca7 O5 2.574757 1_555
Ca7 O39 2.694777 1_554
Ca8 O11 2.328619 1_554
Ca8 O31 2.335249 1_555
Ca8 O15 2.363293 1_555
Ca8 O16 2.448002 1_555
Ca8 O46 2.504657 1_555
Ca8 O4 2.574757 1_555
Ca8 O32 2.694777 1_554
Ca9 O10 2.328619 1_565
Ca9 O30 2.335249 1_555
Ca9 O14 2.363293 1_655
Ca9 O17 2.448002 1_555
Ca9 O47 2.504657 1_565
Ca9 O5 2.574757 1_555
Ca9 O33 2.694777 1_555
Ca10 O9 2.328619 1_555
Ca10 O29 2.335249 1_555
Ca10 O13 2.363293 1_555
Ca10 O18 2.448002 1_555
Ca10 O44 2.504657 1_555
Ca10 O6 2.574757 1_555
Ca10 O34 2.694777 1_555
Ca11 O8 2.328619 1_546
Ca11 O28 2.335249 1_555
Ca11 O12 2.363293 1_455
Ca11 O19 2.448002 1_555
Ca11 O45 2.504657 1_545
Ca11 O7 2.574757 1_555
Ca11 O35 2.694777 1_556
Ca12 O42 2.319642 1_555
Ca12 O12 2.354862 1_565
Ca12 O32 2.433223 1_555
Ca12 O3 2.488714 1_555
Ca12 O39 2.525143 1_555
Ca12 O28 2.589556 1_565
Ca12 O45 2.609429 1_655
Ca13 O43 2.319642 1_555
Ca13 O13 2.354862 1_555
Ca13 O33 2.433223 1_455
Ca13 O2 2.488714 1_555
Ca13 O38 2.525143 1_555
Ca13 O29 2.589556 1_455
Ca13 O44 2.609429 1_555
Ca14 O40 2.319642 1_555
Ca14 O14 2.354862 1_545
Ca14 O34 2.433223 1_555
Ca14 O1 2.488714 1_555
Ca14 O37 2.525143 1_555
Ca14 O30 2.589556 1_545
Ca14 O47 2.609429 1_455
Ca15 O41 2.319642 1_555
Ca15 O15 2.354862 1_555
Ca15 O35 2.433223 1_655
Ca15 O0 2.488714 1_555
Ca15 O36 2.525143 1_555
Ca15 O31 2.589556 1_655
Ca15 O46 2.609429 1_555
Ca16 O46 2.319642 1_555
Ca16 O8 2.354862 1_545
Ca16 O36 2.433223 1_555
Ca16 O1 2.488714 1_555
Ca16 O35 2.525143 1_555
Ca16 O24 2.589556 1_545
Ca16 O41 2.609429 1_455
Ca17 O47 2.319642 1_555
Ca17 O9 2.354862 1_555
Ca17 O37 2.433223 1_655
Ca17 O0 2.488714 1_555
Ca17 O34 2.525143 1_555
Ca17 O25 2.589556 1_655
Ca17 O40 2.609429 1_555
Ca18 O44 2.319642 1_555
Ca18 O10 2.354862 1_565
Ca18 O38 2.433223 1_555
Ca18 O3 2.488714 1_555
Ca18 O33 2.525143 1_555
Ca18 O26 2.589556 1_565
Ca18 O43 2.609429 1_655
Ca19 O45 2.319642 1_555
Ca19 O11 2.354862 1_555
Ca19 O39 2.433223 1_455
Ca19 O2 2.488714 1_555
Ca19 O32 2.525143 1_555
Ca19 O27 2.589556 1_455
Ca19 O42 2.609429 1_555
Cr0 O32 1.751736 1_554
Cr0 O24 1.760888 1_555
Cr0 O8 1.767411 1_555
Cr0 O16 1.771082 1_555
Cr1 O33 1.751736 1_555
Cr1 O25 1.760888 1_655
Cr1 O9 1.767411 1_555
Cr1 O17 1.771082 1_555
Cr2 O34 1.751736 1_555
Cr2 O26 1.760888 1_555
Cr2 O10 1.767411 1_555
Cr2 O18 1.771082 1_555
Cr3 O35 1.751736 1_556
Cr3 O27 1.760888 1_455
Cr3 O11 1.767411 1_555
Cr3 O19 1.771082 1_555
Cr4 O36 1.751736 1_556
Cr4 O28 1.760888 1_555
Cr4 O12 1.767411 1_555
Cr4 O20 1.771082 1_555
Cr5 O37 1.751736 1_555
Cr5 O29 1.760888 1_455
Cr5 O13 1.767411 1_555
Cr5 O21 1.771082 1_555
Cr6 O38 1.751736 1_555
Cr6 O30 1.760888 1_555
Cr6 O14 1.767411 1_555
Cr6 O22 1.771082 1_555
Cr7 O39 1.751736 1_554
Cr7 O31 1.760888 1_655
Cr7 O15 1.767411 1_555
Cr7 O23 1.771082 1_555
Cr8 O0 1.705895 1_555
Cr8 O4 1.727924 1_555
Cr8 O40 1.730057 1_555
Cr8 O46 1.730057 1_555
Cr9 O1 1.705895 1_555
Cr9 O5 1.727924 1_445
Cr9 O41 1.730057 1_455
Cr9 O47 1.730057 1_455
Cr10 O2 1.705895 1_555
Cr10 O6 1.727924 1_555
Cr10 O44 1.730057 1_555
Cr10 O42 1.730057 1_555
Cr11 O3 1.705895 1_555
Cr11 O7 1.727924 1_665
Cr11 O45 1.730057 1_655
Cr11 O43 1.730057 1_655
