# generated using pymatgen
data_Na4AlGaSi2SO12
_symmetry_space_group_name_H-M   'P 1'
_cell_length_a   8.82619925
_cell_length_b   8.83348022
_cell_length_c   21.71140678
_cell_angle_alpha   89.93252436
_cell_angle_beta   90.06280534
_cell_angle_gamma   119.50163483
_symmetry_Int_Tables_number   1
_chemical_formula_structural   Na4AlGaSi2SO12
_chemical_formula_sum   'Na24 Al6 Ga6 Si12 S6 O72'
_cell_volume   1473.27194819
_cell_formula_units_Z   6
loop_
 _symmetry_equiv_pos_site_id
 _symmetry_equiv_pos_as_xyz
  1  'x, y, z'
loop_
 _atom_site_type_symbol
 _atom_site_label
 _atom_site_symmetry_multiplicity
 _atom_site_fract_x
 _atom_site_fract_y
 _atom_site_fract_z
 _atom_site_occupancy
  Na  Na0  1  0.64031518  -0.00001971  0.25352376  1
  Na  Na1  1  0.36809677  0.37432967  0.24380988  1
  Na  Na2  1  0.99354514  0.62299601  0.25394655  1
  Na  Na3  1  0.62675040  0.63364884  0.74412221  1
  Na  Na4  1  0.00102720  0.35822576  0.75371048  1
  Na  Na5  1  0.37542553  0.00577455  0.75424487  1
  Na  Na6  1  0.30848393  0.33090886  0.58669574  1
  Na  Na7  1  0.03093276  0.70600425  0.57676773  1
  Na  Na8  1  0.66115450  0.95914133  0.58678475  1
  Na  Na9  1  0.29457815  0.96733337  0.07694705  1
  Na  Na10  1  0.66646563  0.68981518  0.08682210  1
  Na  Na11  1  0.04152619  0.34053596  0.08706537  1
  Na  Na12  1  0.97617465  0.66560955  0.92027844  1
  Na  Na13  1  0.69991119  0.04023272  0.91042522  1
  Na  Na14  1  0.32736922  0.29111873  0.92029667  1
  Na  Na15  1  0.95875386  0.29965552  0.41002702  1
  Na  Na16  1  0.33526602  0.02656911  0.41978612  1
  Na  Na17  1  0.71007054  0.67205130  0.41999724  1
  Na  Na18  1  0.99433108  0.98618089  0.50025795  1
  Na  Na19  1  0.01486794  0.00666883  0.00002910  1
  Na  Na20  1  0.66077805  0.31899815  0.83404259  1
  Na  Na21  1  0.68202872  0.34003649  0.33323692  1
  Na  Na22  1  0.32608853  0.65165504  0.16626521  1
  Na  Na23  1  0.34908029  0.67349025  0.66711457  1
  Al  Al0  1  0.01863142  0.02811143  0.85311491  1
  Al  Al1  1  0.00053224  0.00188760  0.14726441  1
  Al  Al2  1  0.66436926  0.33299667  0.98125704  1
  Al  Al3  1  0.30515051  0.64845854  0.01816776  1
  Al  Al4  1  0.34979233  0.69183816  0.51897635  1
  Al  Al5  1  0.33196562  0.66923887  0.81545873  1
  Ga  Ga0  1  0.97146831  0.98157528  0.35205013  1
  Ga  Ga1  1  0.99783006  0.00130126  0.64965147  1
  Ga  Ga2  1  0.63605524  0.31356013  0.68530843  1
  Ga  Ga3  1  0.68546180  0.36248384  0.18386251  1
  Ga  Ga4  1  0.66588164  0.33552361  0.48193711  1
  Ga  Ga5  1  0.33174542  0.66783232  0.31452730  1
  Si  Si0  1  0.70727263  0.71011647  0.24840739  1
  Si  Si1  1  0.99854661  0.28677850  0.24870382  1
  Si  Si2  1  0.29045416  0.29698488  0.75115271  1
  Si  Si3  1  0.71000866  0.99814884  0.75170372  1
  Si  Si4  1  0.36991113  0.03715552  0.58258038  1
  Si  Si5  1  0.66378109  0.62411875  0.58305694  1
  Si  Si6  1  0.95974729  0.62916050  0.08148698  1
  Si  Si7  1  0.37634123  0.33467934  0.08184942  1
  Si  Si8  1  0.03927964  0.37638074  0.91620030  1
  Si  Si9  1  0.33250031  0.95451271  0.91673184  1
  Si  Si10  1  0.62303615  0.96014307  0.41691006  1
  Si  Si11  1  0.04616755  0.66728984  0.41705903  1
  S  S0  1  0.28739123  0.00118694  0.24893947  1
  S  S1  1  0.00309232  0.71155190  0.75185823  1
  S  S2  1  0.96052805  0.33600647  0.58314642  1
  S  S3  1  0.66628374  0.04266697  0.08239231  1
  S  S4  1  0.62069755  0.66614553  0.91682426  1
  S  S5  1  0.33354707  0.37879810  0.41739188  1
  O  O0  1  0.21197083  0.02985722  0.30524508  1
  O  O1  1  0.82692818  0.78088814  0.31021578  1
  O  O2  1  0.97019622  0.17167559  0.31148634  1
  O  O3  1  0.20539523  0.16826552  0.80976235  1
  O  O4  1  0.97433884  0.79452696  0.80607472  1
  O  O5  1  0.83595824  0.02507076  0.81088411  1
  O  O6  1  0.78940645  0.95736175  0.68972971  1
  O  O7  1  0.17001309  0.21362133  0.68966185  1
  O  O8  1  0.03202253  0.81490470  0.69512406  1
  O  O9  1  0.80263153  0.83584714  0.18936081  1
  O  O10  1  0.03177386  0.19488505  0.18908964  1
  O  O11  1  0.17891075  0.97716388  0.19384630  1
  O  O12  1  0.88336283  0.36684763  0.63859861  1
  O  O13  1  0.49493675  0.11163097  0.64315484  1
  O  O14  1  0.63276943  0.50302203  0.64451126  1
  O  O15  1  0.88913156  0.50576724  0.14253902  1
  O  O16  1  0.63291068  0.11647445  0.13805174  1
  O  O17  1  0.49602581  0.36784660  0.14371946  1
  O  O18  1  0.46857242  0.29808731  0.02285850  1
  O  O19  1  0.82869229  0.53405657  0.02330442  1
  O  O20  1  0.69412580  0.15360306  0.02768413  1
  O  O21  1  0.45659571  0.16534046  0.52346352  1
  O  O22  1  0.70668398  0.54097508  0.52302021  1
  O  O23  1  0.85262604  0.30646138  0.52776653  1
  O  O24  1  0.54202142  0.69601295  0.97196990  1
  O  O25  1  0.16432241  0.45795565  0.97609798  1
  O  O26  1  0.30429000  0.83088261  0.97680768  1
  O  O27  1  0.53756938  0.83469839  0.47621266  1
  O  O28  1  0.30785570  0.46215344  0.47221805  1
  O  O29  1  0.16858026  0.69119952  0.47687155  1
  O  O30  1  0.12569640  0.62707522  0.35508308  1
  O  O31  1  0.50323918  0.87687176  0.35536399  1
  O  O32  1  0.36069759  0.48181114  0.36077634  1
  O  O33  1  0.13082446  0.50323933  0.85685798  1
  O  O34  1  0.36868080  0.86609534  0.85659163  1
  O  O35  1  0.51289752  0.63920844  0.86139217  1
  O  O36  1  0.03614668  0.84967336  0.41239909  1
  O  O37  1  0.81972002  0.98352767  0.41499886  1
  O  O38  1  0.18019029  0.20368050  0.41360865  1
  O  O39  1  0.01566238  0.17904005  0.91132529  1
  O  O40  1  0.15164429  0.96881728  0.90976022  1
  O  O41  1  0.79733486  0.81795346  0.91112734  1
  O  O42  1  0.97645412  0.17684041  0.58671393  1
  O  O43  1  0.17737368  0.02118129  0.58993956  1
  O  O44  1  0.83513281  0.81930947  0.58819530  1
  O  O45  1  0.97695364  0.82285937  0.09005368  1
  O  O46  1  0.82710599  0.02842602  0.08642933  1
  O  O47  1  0.18079504  0.16183504  0.08882383  1
  O  O48  1  0.70021471  0.18083140  0.74596320  1
  O  O49  1  0.48684132  0.31872165  0.74836721  1
  O  O50  1  0.85013157  0.53633957  0.74703182  1
  O  O51  1  0.68056613  0.51239244  0.24619691  1
  O  O52  1  0.81721065  0.29867642  0.24380509  1
  O  O53  1  0.46346575  0.15203808  0.24360477  1
  O  O54  1  0.63676087  0.50638259  0.92074008  1
  O  O55  1  0.84361811  0.35630491  0.92450433  1
  O  O56  1  0.50468760  0.15109543  0.92360154  1
  O  O57  1  0.64278962  0.15490506  0.42267015  1
  O  O58  1  0.49230297  0.36163931  0.42043811  1
  O  O59  1  0.84954726  0.49714673  0.42164670  1
  O  O60  1  0.36308435  0.51496914  0.07466557  1
  O  O61  1  0.15693798  0.65418338  0.07628593  1
  O  O62  1  0.51568254  0.86624539  0.07550499  1
  O  O63  1  0.34647080  0.84146626  0.57743187  1
  O  O64  1  0.48271034  0.63465427  0.57579649  1
  O  O65  1  0.13646083  0.48845804  0.57698890  1
  O  O66  1  0.30124915  0.84046826  0.25101993  1
  O  O67  1  0.51364846  0.69408138  0.25404256  1
  O  O68  1  0.17064385  0.48263729  0.25301888  1
  O  O69  1  0.31108769  0.49150432  0.75913856  1
  O  O70  1  0.16245523  0.69496374  0.75634385  1
  O  O71  1  0.51377250  0.82777299  0.75825267  1
loop_
_geom_bond_atom_site_label_1
_geom_bond_atom_site_label_2
_geom_bond_distance
_geom_bond_site_symmetry_2
Na0 O52 2.320799 1_555
Na0 O67 2.361410 1_545
Na0 O31 2.497936 1_545
Na0 O53 2.520025 1_555
Na0 O66 2.605977 1_545
Na0 O16 2.721831 1_555
Na0 O2 2.829947 1_555
Na0 O9 2.854837 1_545
Na1 O68 2.374007 1_555
Na1 O51 2.404850 1_555
Na1 O17 2.463726 1_555
Na1 O67 2.470775 1_555
Na1 O53 2.488421 1_555
Na1 O32 2.724316 1_555
Na1 O10 2.845735 1_555
Na1 O0 2.966800 1_555
Na2 O68 2.426900 1_655
Na2 O66 2.435555 1_655
Na2 O51 2.440290 1_555
Na2 O30 2.477208 1_655
Na2 O52 2.507495 1_555
Na2 O15 2.614078 1_555
Na2 O1 2.761977 1_555
Na3 O71 2.390604 1_555
Na3 O49 2.426649 1_555
Na3 O69 2.449656 1_555
Na3 O14 2.465367 1_555
Na3 O50 2.509752 1_555
Na3 O35 2.747603 1_555
Na3 O6 2.754091 1_555
Na4 O48 2.331313 1_455
Na4 O69 2.390736 1_555
Na4 O50 2.516573 1_455
Na4 O33 2.554287 1_555
Na4 O70 2.589874 1_555
Na4 O12 2.720719 1_455
Na4 O7 2.770398 1_555
Na4 O5 2.845484 1_455
Na5 O71 2.421032 1_545
Na5 O49 2.438715 1_555
Na5 O70 2.447531 1_545
Na5 O48 2.505157 1_555
Na5 O34 2.526880 1_545
Na5 O13 2.614042 1_555
Na5 O3 2.809788 1_555
Na5 O8 2.939460 1_545
Na6 O64 2.357009 1_555
Na6 O43 2.389789 1_555
Na6 O7 2.513597 1_555
Na6 O65 2.523147 1_555
Na6 O42 2.551914 1_455
Na6 O28 2.742480 1_555
Na6 O21 2.761240 1_555
Na6 O14 2.791085 1_555
Na7 O44 2.398953 1_455
Na7 O63 2.430236 1_555
Na7 O43 2.441425 1_565
Na7 O65 2.514610 1_555
Na7 O29 2.521922 1_555
Na7 O8 2.743247 1_555
Na7 O22 2.750443 1_455
Na7 O12 2.936895 1_455
Na8 O44 2.398442 1_555
Na8 O63 2.447814 1_555
Na8 O42 2.484313 1_565
Na8 O6 2.507807 1_555
Na8 O64 2.511567 1_555
Na8 O27 2.642151 1_555
Na8 O13 2.723738 1_565
Na8 O23 2.966428 1_565
Na9 O47 2.393331 1_565
Na9 O61 2.412103 1_555
Na9 O45 2.458865 1_455
Na9 O26 2.509088 1_554
Na9 O62 2.514608 1_555
Na9 O11 2.754085 1_555
Na9 O18 2.801892 1_565
Na9 O16 2.921259 1_565
Na10 O60 2.356141 1_555
Na10 O45 2.392450 1_555
Na10 O62 2.510294 1_555
Na10 O9 2.557076 1_555
Na10 O46 2.603881 1_565
Na10 O24 2.735026 1_554
Na10 O17 2.767652 1_555
Na10 O19 2.791803 1_555
Na11 O47 2.432093 1_555
Na11 O61 2.447037 1_555
Na11 O46 2.458473 1_455
Na11 O60 2.489040 1_555
Na11 O10 2.540476 1_555
Na11 O25 2.635846 1_554
Na11 O15 2.707655 1_455
Na12 O40 2.353366 1_655
Na12 O55 2.386138 1_555
Na12 O41 2.536304 1_555
Na12 O19 2.561002 1_556
Na12 O54 2.608243 1_555
Na12 O4 2.730673 1_555
Na12 O33 2.784475 1_655
Na12 O26 2.803021 1_655
Na13 O56 2.381924 1_555
Na13 O39 2.430011 1_655
Na13 O55 2.451712 1_555
Na13 O41 2.501546 1_545
Na13 O5 2.509036 1_555
Na13 O20 2.746553 1_556
Na13 O34 2.801210 1_545
Na13 O24 2.965514 1_545
Na14 O56 2.427041 1_555
Na14 O39 2.429769 1_555
Na14 O54 2.441049 1_555
Na14 O40 2.493044 1_545
Na14 O18 2.536566 1_556
Na14 O3 2.635491 1_555
Na14 O25 2.794198 1_555
Na14 O35 2.967823 1_555
Na15 O59 2.386169 1_555
Na15 O37 2.437246 1_545
Na15 O57 2.444658 1_555
Na15 O2 2.446251 1_555
Na15 O38 2.485175 1_655
Na15 O23 2.734360 1_555
Na15 O30 2.785270 1_655
Na16 O36 2.318204 1_545
Na16 O57 2.371825 1_555
Na16 O21 2.534698 1_555
Na16 O38 2.539144 1_555
Na16 O58 2.577111 1_555
Na16 O0 2.719287 1_555
Na16 O31 2.800484 1_545
Na16 O29 2.860003 1_545
Na17 O59 2.403514 1_555
Na17 O37 2.428097 1_555
Na17 O58 2.454042 1_555
Na17 O22 2.510906 1_555
Na17 O36 2.514949 1_655
Na17 O1 2.587005 1_555
Na17 O27 2.834541 1_555
Na17 O32 2.979714 1_555
Na18 O36 2.382067 1_655
Na18 O44 2.398274 1_555
Na18 O37 2.400109 1_555
Na18 O43 2.449384 1_665
Na18 O42 2.579658 1_565
Na18 O38 2.610682 1_665
Na19 O47 2.400653 1_555
Na19 O40 2.411330 1_544
Na19 O39 2.451553 1_554
Na19 O45 2.455084 1_445
Na19 O46 2.573632 1_455
Na19 O41 2.652931 1_444
Na20 O48 2.386026 1_555
Na20 O49 2.409771 1_555
Na20 O56 2.421836 1_555
Na20 O55 2.457882 1_555
Na20 O54 2.584909 1_555
Na20 O50 2.624136 1_555
Na21 O52 2.400692 1_555
Na21 O59 2.403276 1_555
Na21 O51 2.429384 1_555
Na21 O57 2.449650 1_555
Na21 O58 2.597599 1_555
Na21 O53 2.666545 1_555
Na22 O68 2.375029 1_555
Na22 O67 2.428296 1_555
Na22 O60 2.432079 1_555
Na22 O61 2.464188 1_555
Na22 O66 2.565982 1_555
Na22 O62 2.674090 1_555
Na23 O64 2.417621 1_555
Na23 O71 2.436114 1_555
Na23 O63 2.453636 1_555
Na23 O69 2.480240 1_555
Na23 O70 2.611113 1_555
Na23 O65 2.645870 1_555
Al0 O3 1.768231 1_555
Al0 O5 1.842584 1_455
Al0 O39 1.847672 1_555
Al0 O40 1.940639 1_545
Al0 O4 2.159398 1_445
Al0 O41 2.297046 1_445
Al1 O10 1.829543 1_555
Al1 O9 1.874755 1_445
Al1 O45 1.940892 1_445
Al1 O11 1.970769 1_545
Al1 O47 1.980852 1_555
Al1 O46 2.119148 1_455
Al2 O18 1.837196 1_556
Al2 O19 1.885527 1_556
Al2 O55 1.935591 1_555
Al2 O56 1.976269 1_555
Al2 O20 2.000445 1_556
Al2 O54 2.119829 1_555
Al3 O25 1.775428 1_554
Al3 O61 1.837105 1_555
Al3 O26 1.847107 1_554
Al3 O60 1.935368 1_555
Al3 O24 2.166114 1_554
Al3 O62 2.276709 1_555
Al4 O27 1.772595 1_555
Al4 O29 1.838955 1_555
Al4 O63 1.844123 1_555
Al4 O64 1.931931 1_555
Al4 O28 2.132720 1_555
Al4 O65 2.242228 1_555
Al5 O34 1.836968 1_555
Al5 O33 1.883164 1_555
Al5 O69 1.926968 1_555
Al5 O71 1.966149 1_555
Al5 O35 2.007055 1_555
Al5 O70 2.065742 1_555
Ga0 O1 1.835486 1_555
Ga0 O2 1.900181 1_565
Ga0 O37 1.920648 1_555
Ga0 O36 2.012489 1_655
Ga0 O0 2.198310 1_665
Ga0 O38 2.338881 1_665
Ga1 O6 1.895096 1_545
Ga1 O7 1.943057 1_655
Ga1 O43 1.988137 1_655
Ga1 O44 2.038153 1_545
Ga1 O8 2.064405 1_645
Ga1 O42 2.142387 1_555
Ga2 O13 1.839535 1_555
Ga2 O14 1.905423 1_555
Ga2 O49 1.916822 1_555
Ga2 O48 2.019456 1_555
Ga2 O12 2.237493 1_555
Ga2 O50 2.361607 1_555
Ga3 O15 1.843469 1_555
Ga3 O17 1.905824 1_555
Ga3 O51 1.909900 1_555
Ga3 O52 2.001028 1_555
Ga3 O16 2.222205 1_555
Ga3 O53 2.321606 1_555
Ga4 O22 1.891664 1_555
Ga4 O21 1.936607 1_555
Ga4 O57 1.981639 1_555
Ga4 O59 2.024955 1_555
Ga4 O23 2.045783 1_555
Ga4 O58 2.127460 1_555
Ga5 O30 1.889511 1_555
Ga5 O31 1.932629 1_555
Ga5 O67 1.998301 1_555
Ga5 O32 2.045201 1_555
Ga5 O68 2.047298 1_555
Ga5 O66 2.167416 1_555
O0 S0 1.473181 1_555
O1 Si0 1.629604 1_555
O2 Si1 1.643579 1_555
O3 Si2 1.622862 1_555
O4 S1 1.474153 1_655
O5 Si3 1.637220 1_545
O6 Si3 1.638069 1_555
O7 Si2 1.637957 1_555
O8 S1 1.477980 1_555
O9 Si0 1.632098 1_555
O10 Si1 1.630316 1_455
O11 S0 1.480044 1_565
O12 S2 1.474071 1_555
O13 Si4 1.632179 1_555
O14 Si5 1.645754 1_555
O15 Si6 1.631832 1_555
O16 S3 1.471039 1_555
O17 Si7 1.642908 1_555
O18 Si7 1.634002 1_555
O19 Si6 1.637594 1_555
O20 S3 1.480630 1_555
O21 Si4 1.631073 1_555
O22 Si5 1.630681 1_555
O23 S2 1.474533 1_555
O24 S4 1.472523 1_555
O25 Si8 1.626128 1_555
O26 Si9 1.638740 1_555
O27 Si10 1.621793 1_555
O28 S5 1.475677 1_555
O29 Si11 1.634373 1_555
O30 Si11 1.636548 1_555
O31 Si10 1.636409 1_555
O32 S5 1.476362 1_555
O33 Si8 1.635759 1_555
O34 Si9 1.632751 1_555
O35 S4 1.478351 1_555
O36 Si11 1.659391 1_555
O37 Si10 1.644672 1_555
O38 S5 1.472963 1_555
O39 Si8 1.654062 1_555
O40 Si9 1.668844 1_555
O41 S4 1.478210 1_555
O42 S2 1.482207 1_555
O43 Si4 1.642462 1_555
O44 Si5 1.644524 1_555
O45 Si6 1.652290 1_555
O46 S3 1.487922 1_555
O47 Si7 1.654564 1_555
O48 Si3 1.662528 1_545
O49 Si2 1.648466 1_555
O50 S1 1.473507 1_655
O51 Si0 1.644122 1_555
O52 Si1 1.658088 1_555
O53 S0 1.471277 1_555
O54 S4 1.488538 1_555
O55 Si8 1.656889 1_655
O56 Si9 1.657792 1_545
O57 Si10 1.646493 1_545
O58 S5 1.483135 1_555
O59 Si11 1.646700 1_655
O60 Si7 1.660498 1_555
O61 Si6 1.646886 1_455
O62 S3 1.475733 1_565
O63 Si4 1.640606 1_565
O64 Si5 1.653344 1_555
O65 S2 1.477540 1_455
O66 S0 1.484394 1_565
O67 Si0 1.648515 1_555
O68 Si1 1.649577 1_455
O69 Si2 1.645649 1_555
O70 S1 1.487297 1_555
O71 Si3 1.648595 1_555
