# generated using pymatgen
data_Hf27P16
_symmetry_space_group_name_H-M   'P 1'
_cell_length_a   3.51854514
_cell_length_b   14.89674251
_cell_length_c   14.89674189
_cell_angle_alpha   77.11554467
_cell_angle_beta   83.21766843
_cell_angle_gamma   83.21766428
_symmetry_Int_Tables_number   1
_chemical_formula_structural   Hf27P16
_chemical_formula_sum   'Hf27 P16'
_cell_volume   752.42085595
_cell_formula_units_Z   1
loop_
 _symmetry_equiv_pos_site_id
 _symmetry_equiv_pos_as_xyz
  1  'x, y, z'
loop_
 _atom_site_type_symbol
 _atom_site_label
 _atom_site_symmetry_multiplicity
 _atom_site_fract_x
 _atom_site_fract_y
 _atom_site_fract_z
 _atom_site_occupancy
  Hf  Hf0  1  0.58042082  0.01313958  0.82601778  1
  Hf  Hf1  1  0.41957918  0.98686042  0.17398222  1
  Hf  Hf2  1  0.41957918  0.17398222  0.98686042  1
  Hf  Hf3  1  0.58042082  0.82601778  0.01313958  1
  Hf  Hf4  1  0.28453533  0.21546467  0.21546467  1
  Hf  Hf5  1  0.71546467  0.78453533  0.78453533  1
  Hf  Hf6  1  0.14757204  0.35242796  0.35242796  1
  Hf  Hf7  1  0.85242796  0.64757204  0.64757204  1
  Hf  Hf8  1  -0.00000000  0.58342276  0.41657724  1
  Hf  Hf9  1  0.00000000  0.41657724  0.58342276  1
  Hf  Hf10  1  0.00000000  -0.00000000  0.00000000  1
  Hf  Hf11  1  0.78459072  0.52878589  0.90203268  1
  Hf  Hf12  1  0.21540928  0.47121411  0.09796732  1
  Hf  Hf13  1  0.21540928  0.09796732  0.47121411  1
  Hf  Hf14  1  0.78459072  0.90203268  0.52878589  1
  Hf  Hf15  1  0.92890640  0.31670905  0.82547915  1
  Hf  Hf16  1  0.07109360  0.68329095  0.17452085  1
  Hf  Hf17  1  0.07109360  0.17452085  0.68329095  1
  Hf  Hf18  1  0.92890640  0.82547915  0.31670905  1
  Hf  Hf19  1  0.81736422  0.31580683  0.04946374  1
  Hf  Hf20  1  0.18263578  0.68419317  0.95053626  1
  Hf  Hf21  1  0.18263578  0.95053626  0.68419317  1
  Hf  Hf22  1  0.81736422  0.04946374  0.31580683  1
  Hf  Hf23  1  0.60874189  0.52275619  0.25976004  1
  Hf  Hf24  1  0.39125811  0.47724381  0.74023996  1
  Hf  Hf25  1  0.39125811  0.74023996  0.47724381  1
  Hf  Hf26  1  0.60874189  0.25976004  0.52275619  1
  P  P0  1  -0.00000000  0.13849779  0.86150221  1
  P  P1  1  0.00000000  0.86150221  0.13849779  1
  P  P2  1  0.50000000  0.69105783  0.30894217  1
  P  P3  1  0.50000000  0.30894217  0.69105783  1
  P  P4  1  0.43915580  0.56084420  0.56084420  1
  P  P5  1  0.56084420  0.43915580  0.43915580  1
  P  P6  1  0.12468886  0.87531114  0.87531114  1
  P  P7  1  0.87531114  0.12468886  0.12468886  1
  P  P8  1  0.65648470  0.61228990  0.07474271  1
  P  P9  1  0.34351530  0.38771010  0.92525729  1
  P  P10  1  0.34351530  0.92525729  0.38771010  1
  P  P11  1  0.65648470  0.07474271  0.61228990  1
  P  P12  1  0.71466653  0.36168419  0.20898474  1
  P  P13  1  0.28533347  0.63831581  0.79101526  1
  P  P14  1  0.28533347  0.79101526  0.63831581  1
  P  P15  1  0.71466653  0.20898474  0.36168419  1
loop_
_geom_bond_atom_site_label_1
_geom_bond_atom_site_label_2
_geom_bond_distance
_geom_bond_site_symmetry_2
Hf0 P6 2.674549 1_545
Hf0 P6 2.674551 1_645
Hf0 P0 2.687360 1_555
Hf0 P0 2.687363 1_655
Hf0 P11 3.099095 1_555
Hf1 P7 2.674549 1_565
Hf1 P7 2.674551 1_465
Hf1 P1 2.687360 1_655
Hf1 P1 2.687363 1_555
Hf1 P10 3.099095 1_555
Hf2 P7 2.674549 1_556
Hf2 P7 2.674551 1_456
Hf2 P0 2.687360 1_655
Hf2 P0 2.687363 1_555
Hf2 P9 3.099095 1_555
Hf3 P6 2.674549 1_554
Hf3 P6 2.674551 1_654
Hf3 P1 2.687360 1_555
Hf3 P1 2.687363 1_655
Hf3 P8 3.099095 1_555
Hf4 P7 2.732356 1_455
Hf4 P7 2.732356 1_555
Hf4 P12 2.773927 1_455
Hf4 P15 2.773927 1_455
Hf4 P15 2.773931 1_555
Hf4 P12 2.773931 1_555
Hf5 P6 2.732356 1_655
Hf5 P6 2.732356 1_555
Hf5 P13 2.773927 1_655
Hf5 P14 2.773927 1_655
Hf5 P14 2.773931 1_555
Hf5 P13 2.773931 1_555
Hf6 P5 2.661701 1_555
Hf6 P5 2.661701 1_455
Hf6 P12 2.737331 1_455
Hf6 P15 2.737331 1_455
Hf6 P15 2.737335 1_555
Hf6 P12 2.737335 1_555
Hf7 P4 2.661701 1_555
Hf7 P4 2.661701 1_655
Hf7 P13 2.737331 1_655
Hf7 P14 2.737331 1_655
Hf7 P14 2.737335 1_555
Hf7 P13 2.737335 1_555
Hf8 P2 2.662769 1_455
Hf8 P2 2.662769 1_555
Hf8 P4 2.731050 1_555
Hf8 P5 2.731050 1_555
Hf8 P4 2.731050 1_455
Hf8 P5 2.731050 1_455
Hf9 P3 2.662769 1_555
Hf9 P3 2.662769 1_455
Hf9 P5 2.731050 1_455
Hf9 P4 2.731050 1_455
Hf9 P5 2.731050 1_555
Hf9 P4 2.731050 1_555
Hf10 P1 2.571957 1_545
Hf10 P0 2.571957 1_554
Hf10 P7 2.871670 1_455
Hf10 P6 2.871670 1_544
Hf11 P9 2.695195 1_655
Hf11 P9 2.695199 1_555
Hf11 P13 2.699797 1_655
Hf11 P13 2.699802 1_555
Hf11 P8 3.064456 1_556
Hf12 P8 2.695195 1_455
Hf12 P8 2.695199 1_555
Hf12 P12 2.699797 1_455
Hf12 P12 2.699802 1_555
Hf12 P9 3.064456 1_554
Hf13 P11 2.695195 1_455
Hf13 P11 2.695199 1_555
Hf13 P15 2.699797 1_455
Hf13 P15 2.699802 1_555
Hf13 P10 3.064456 1_545
Hf14 P10 2.695195 1_655
Hf14 P10 2.695199 1_555
Hf14 P14 2.699797 1_655
Hf14 P14 2.699802 1_555
Hf14 P11 3.064456 1_565
Hf15 P0 2.576401 1_655
Hf15 P9 2.652142 1_655
Hf15 P9 2.652149 1_555
Hf15 P3 2.675619 1_655
Hf15 P3 2.675621 1_555
Hf16 P1 2.576401 1_555
Hf16 P8 2.652142 1_455
Hf16 P8 2.652149 1_555
Hf16 P2 2.675619 1_455
Hf16 P2 2.675621 1_555
Hf17 P0 2.576401 1_555
Hf17 P11 2.652142 1_455
Hf17 P11 2.652149 1_555
Hf17 P3 2.675619 1_455
Hf17 P3 2.675621 1_555
Hf18 P1 2.576401 1_655
Hf18 P10 2.652142 1_655
Hf18 P10 2.652149 1_555
Hf18 P2 2.675619 1_655
Hf18 P2 2.675621 1_555
Hf19 P12 2.589938 1_555
Hf19 P9 2.602599 1_654
Hf19 P9 2.602601 1_554
Hf19 P7 2.810155 1_555
Hf20 P13 2.589938 1_555
Hf20 P8 2.602599 1_456
Hf20 P8 2.602601 1_556
Hf20 P6 2.810155 1_555
Hf21 P14 2.589938 1_555
Hf21 P11 2.602599 1_465
Hf21 P11 2.602601 1_565
Hf21 P6 2.810155 1_555
Hf22 P15 2.589938 1_555
Hf22 P10 2.602599 1_645
Hf22 P10 2.602601 1_545
Hf22 P7 2.810155 1_555
Hf23 P12 2.645745 1_555
Hf23 P5 2.679567 1_555
Hf23 P2 2.737766 1_555
Hf23 P8 2.776271 1_555
Hf24 P13 2.645745 1_555
Hf24 P4 2.679567 1_555
Hf24 P3 2.737766 1_555
Hf24 P9 2.776271 1_555
Hf25 P14 2.645745 1_555
Hf25 P4 2.679567 1_555
Hf25 P2 2.737766 1_555
Hf25 P10 2.776271 1_555
Hf26 P15 2.645745 1_555
Hf26 P5 2.679567 1_555
Hf26 P3 2.737766 1_555
Hf26 P11 2.776271 1_555
