# generated using pymatgen
data_CeGa2
_symmetry_space_group_name_H-M   'P 1'
_cell_length_a   4.25068461
_cell_length_b   4.25068450
_cell_length_c   4.33876287
_cell_angle_alpha   90.00000000
_cell_angle_beta   90.00000000
_cell_angle_gamma   119.99999286
_symmetry_Int_Tables_number   1
_chemical_formula_structural   CeGa2
_chemical_formula_sum   'Ce1 Ga2'
_cell_volume   67.89133237
_cell_formula_units_Z   1
loop_
 _symmetry_equiv_pos_site_id
 _symmetry_equiv_pos_as_xyz
  1  'x, y, z'
loop_
 _atom_site_type_symbol
 _atom_site_label
 _atom_site_symmetry_multiplicity
 _atom_site_fract_x
 _atom_site_fract_y
 _atom_site_fract_z
 _atom_site_occupancy
  Ce  Ce0  1  -0.00000000  0.00000000  -0.00000000  1
  Ga  Ga0  1  0.66666700  0.33333300  0.50000000  1
  Ga  Ga1  1  0.33333300  0.66666700  0.50000000  1
loop_
_geom_bond_atom_site_label_1
_geom_bond_atom_site_label_2
_geom_bond_distance
_geom_bond_site_symmetry_2
Ce0 Ga1 3.275512 1_545
Ce0 Ga0 3.275512 1_455
Ce0 Ga1 3.275512 1_544
Ce0 Ga0 3.275512 1_454
Ce0 Ga1 3.275515 1_554
Ce0 Ga0 3.275515 1_444
Ce0 Ga0 3.275515 1_445
Ce0 Ga1 3.275515 1_555
Ce0 Ga0 3.275515 1_554
Ce0 Ga0 3.275515 1_555
Ce0 Ga1 3.275515 1_445
Ce0 Ga1 3.275515 1_444
Ga0 Ga1 2.454132 1_545
Ga0 Ga1 2.454132 1_655
Ga0 Ga1 2.454139 1_555
