# generated using pymatgen
data_Na6ZnSi6Ge7(SO8)6
_symmetry_space_group_name_H-M   'P 1'
_cell_length_a   17.20961415
_cell_length_b   8.56568596
_cell_length_c   21.93789131
_cell_angle_alpha   89.83853517
_cell_angle_beta   90.36927370
_cell_angle_gamma   119.87573331
_symmetry_Int_Tables_number   1
_chemical_formula_structural   Na6ZnSi6Ge7(SO8)6
_chemical_formula_sum   'Na18 Zn3 Si18 Ge21 S18 O144'
_cell_volume   2804.09155247
_cell_formula_units_Z   3
loop_
 _symmetry_equiv_pos_site_id
 _symmetry_equiv_pos_as_xyz
  1  'x, y, z'
loop_
 _atom_site_type_symbol
 _atom_site_label
 _atom_site_symmetry_multiplicity
 _atom_site_fract_x
 _atom_site_fract_y
 _atom_site_fract_z
 _atom_site_occupancy
  Na  Na0  1  0.68774622  0.37642098  0.25130599  1
  Na  Na1  1  0.99733155  0.64273875  0.25233622  1
  Na  Na2  1  0.99711780  0.36362502  0.75161952  1
  Na  Na3  1  0.49450412  0.36264806  0.74888282  1
  Na  Na4  1  0.19101436  0.01109344  0.75341276  1
  Na  Na5  1  0.68741650  0.00809488  0.74931265  1
  Na  Na6  1  0.99783143  0.99855418  0.49489885  1
  Na  Na7  1  0.50481558  0.00202794  0.49904095  1
  Na  Na8  1  0.00654939  0.01030557  0.99965910  1
  Na  Na9  1  0.50071118  0.99362040  0.99852203  1
  Na  Na10  1  0.33193441  0.33769654  0.82935031  1
  Na  Na11  1  0.82954139  0.33099674  0.83164593  1
  Na  Na12  1  0.33347896  0.33300811  0.33175809  1
  Na  Na13  1  0.83384191  0.33176560  0.33549334  1
  Na  Na14  1  0.17166993  0.66866145  0.16580845  1
  Na  Na15  1  0.66367061  0.66821195  0.16881783  1
  Na  Na16  1  0.17552394  0.66654028  0.66728796  1
  Na  Na17  1  0.67084815  0.66540020  0.66535016  1
  Zn  Zn0  1  0.33322309  0.33566351  0.68989798  1
  Zn  Zn1  1  0.82813289  0.32629745  0.68615396  1
  Zn  Zn2  1  0.83413967  0.33947503  0.18516043  1
  Si  Si0  1  0.14852988  0.00482018  0.25322735  1
  Si  Si1  1  0.85708725  0.72637638  0.25023846  1
  Si  Si2  1  0.49691732  0.28296014  0.24957925  1
  Si  Si3  1  0.14450436  0.29335020  0.75041358  1
  Si  Si4  1  0.64690531  0.29640959  0.75243293  1
  Si  Si5  1  0.49792535  0.71269234  0.75091200  1
  Si  Si6  1  0.35635038  0.98659086  0.75386750  1
  Si  Si7  1  0.85983583  0.99399397  0.75283514  1
  Si  Si8  1  0.47312722  0.61623624  0.08436473  1
  Si  Si9  1  0.18632497  0.33478919  0.08648461  1
  Si  Si10  1  0.02240604  0.38208087  0.91621134  1
  Si  Si11  1  0.16827452  0.95463273  0.91809748  1
  Si  Si12  1  0.66268017  0.95409977  0.91559253  1
  Si  Si13  1  0.81089960  0.94859107  0.41435965  1
  Si  Si14  1  0.16604946  0.37846194  0.41491493  1
  Si  Si15  1  0.66508738  0.37914874  0.41782327  1
  Si  Si16  1  0.02285469  0.66554862  0.41845912  1
  Si  Si17  1  0.52386687  0.66924567  0.41337850  1
  Ge  Ge0  1  0.00317931  0.98910782  0.35955664  1
  Ge  Ge1  1  0.50463528  0.01280718  0.35725319  1
  Ge  Ge2  1  0.01249830  0.03068288  0.85768397  1
  Ge  Ge3  1  0.50730063  0.99743233  0.84846388  1
  Ge  Ge4  1  0.99531409  0.00683538  0.65094146  1
  Ge  Ge5  1  0.50094989  0.00617852  0.65755686  1
  Ge  Ge6  1  0.00850713  0.99845779  0.15249759  1
  Ge  Ge7  1  0.49721254  0.99332113  0.14791807  1
  Ge  Ge8  1  0.33319051  0.33471928  0.18780593  1
  Ge  Ge9  1  0.32153754  0.33002643  0.98449611  1
  Ge  Ge10  1  0.83369829  0.32166006  0.97414468  1
  Ge  Ge11  1  0.33650674  0.35332201  0.47523568  1
  Ge  Ge12  1  0.83164169  0.32862519  0.47012834  1
  Ge  Ge13  1  0.16081197  0.65095463  0.01709466  1
  Ge  Ge14  1  0.65503444  0.66963263  0.01942997  1
  Ge  Ge15  1  0.16142066  0.65560769  0.51433156  1
  Ge  Ge16  1  0.66649105  0.67316961  0.50755822  1
  Ge  Ge17  1  0.16141221  0.66295424  0.31766852  1
  Ge  Ge18  1  0.66775544  0.65778789  0.31609048  1
  Ge  Ge19  1  0.17045915  0.66768784  0.81602991  1
  Ge  Ge20  1  0.67052478  0.68197565  0.80809039  1
  S  S0  1  0.64188037  0.99210655  0.24974246  1
  S  S1  1  0.35537561  0.71341829  0.25138390  1
  S  S2  1  0.00211581  0.28654496  0.25096931  1
  S  S3  1  0.99938670  0.71909011  0.75074095  1
  S  S4  1  0.48040612  0.33449493  0.58181220  1
  S  S5  1  0.98076715  0.33437175  0.58301159  1
  S  S6  1  0.18616311  0.03645391  0.58190572  1
  S  S7  1  0.68465713  0.03534456  0.58166674  1
  S  S8  1  0.33325335  0.63192387  0.58174956  1
  S  S9  1  0.83410500  0.62882490  0.58277494  1
  S  S10  1  0.97849627  0.62414117  0.08128900  1
  S  S11  1  0.33301912  0.04280147  0.08324413  1
  S  S12  1  0.83270980  0.03896289  0.08198994  1
  S  S13  1  0.68708019  0.33604938  0.08005494  1
  S  S14  1  0.31265638  0.66837318  0.91827825  1
  S  S15  1  0.80836396  0.66607933  0.91922859  1
  S  S16  1  0.52080568  0.37737367  0.91739922  1
  S  S17  1  0.31052505  0.95551294  0.41828031  1
  O  O0  1  0.10254624  0.04007079  0.31099441  1
  O  O1  1  0.60216041  0.03117893  0.30390725  1
  O  O2  1  0.41140231  0.79452288  0.30608545  1
  O  O3  1  0.92589804  0.81072146  0.30740552  1
  O  O4  1  0.47929363  0.15029512  0.30880655  1
  O  O5  1  0.98871891  0.18129700  0.30555761  1
  O  O6  1  0.10365751  0.15932309  0.80906954  1
  O  O7  1  0.60457530  0.16324123  0.81069856  1
  O  O8  1  0.47971615  0.79369974  0.81180821  1
  O  O9  1  0.98571188  0.79634620  0.80564766  1
  O  O10  1  0.42347554  0.03651499  0.81327760  1
  O  O11  1  0.92433669  0.02852955  0.81163943  1
  O  O12  1  0.39593610  0.94770056  0.69030118  1
  O  O13  1  0.89506523  0.95058348  0.68878489  1
  O  O14  1  0.07697789  0.20735766  0.68942166  1
  O  O15  1  0.58018420  0.21782344  0.69097302  1
  O  O16  1  0.01921693  0.83348466  0.69355968  1
  O  O17  1  0.52754719  0.84787716  0.69038063  1
  O  O18  1  0.39426719  0.82313965  0.19427278  1
  O  O19  1  0.90266110  0.84646860  0.18674326  1
  O  O20  1  0.01810896  0.21259757  0.19386874  1
  O  O21  1  0.52140650  0.19210541  0.18961646  1
  O  O22  1  0.08200273  0.94052064  0.19213397  1
  O  O23  1  0.58697484  0.96384431  0.19253178  1
  O  O24  1  0.44207507  0.36082395  0.63744917  1
  O  O25  1  0.94527381  0.36272267  0.63986635  1
  O  O26  1  0.23710049  0.10903184  0.63833484  1
  O  O27  1  0.73538334  0.10510321  0.63897037  1
  O  O28  1  0.31537009  0.52198191  0.63589295  1
  O  O29  1  0.82234605  0.52627936  0.63882969  1
  O  O30  1  0.43119132  0.49334271  0.14431847  1
  O  O31  1  0.94318370  0.52031839  0.13789100  1
  O  O32  1  0.31694886  0.11862819  0.13873502  1
  O  O33  1  0.81529973  0.11546339  0.13679168  1
  O  O34  1  0.25233719  0.37286863  0.14452254  1
  O  O35  1  0.73675845  0.36572867  0.13771999  1
  O  O36  1  0.22346850  0.28684503  0.02479187  1
  O  O37  1  0.73123712  0.30501486  0.02700163  1
  O  O38  1  0.41263867  0.52828518  0.02217373  1
  O  O39  1  0.91964765  0.53486899  0.02707758  1
  O  O40  1  0.35158763  0.15613635  0.02785010  1
  O  O41  1  0.84719317  0.15451767  0.02616307  1
  O  O42  1  0.22805138  0.15168791  0.52723338  1
  O  O43  1  0.72902270  0.15387088  0.52844472  1
  O  O44  1  0.34823977  0.54864346  0.52561540  1
  O  O45  1  0.84909150  0.54610964  0.52790145  1
  O  O46  1  0.42052142  0.30125078  0.52658821  1
  O  O47  1  0.92460459  0.30766960  0.52898528  1
  O  O48  1  0.27140786  0.69557356  0.97361381  1
  O  O49  1  0.76655126  0.69534302  0.97438427  1
  O  O50  1  0.08395278  0.45860750  0.97658630  1
  O  O51  1  0.58055165  0.45744043  0.97329219  1
  O  O52  1  0.15351409  0.82878105  0.97828081  1
  O  O53  1  0.64651363  0.83292234  0.97626496  1
  O  O54  1  0.27161978  0.84305969  0.47371397  1
  O  O55  1  0.77123250  0.83041524  0.47708451  1
  O  O56  1  0.15079590  0.46499723  0.47705546  1
  O  O57  1  0.64421945  0.46201966  0.47779366  1
  O  O58  1  0.08816236  0.71071615  0.47756835  1
  O  O59  1  0.58241081  0.71460447  0.47639579  1
  O  O60  1  0.06115757  0.62219747  0.35597466  1
  O  O61  1  0.56621601  0.62662590  0.35467877  1
  O  O62  1  0.25543525  0.88226590  0.36231105  1
  O  O63  1  0.74401154  0.86573296  0.35582165  1
  O  O64  1  0.19172818  0.51612569  0.35593917  1
  O  O65  1  0.68685390  0.49103064  0.35432596  1
  O  O66  1  0.06550518  0.50300576  0.85478555  1
  O  O67  1  0.56194350  0.48817382  0.86215834  1
  O  O68  1  0.18644632  0.87123628  0.85554737  1
  O  O69  1  0.68521521  0.86941498  0.85600279  1
  O  O70  1  0.25633435  0.63062568  0.86222637  1
  O  O71  1  0.75232608  0.62762141  0.86329783  1
  O  O72  1  0.01535150  0.84391766  0.41418714  1
  O  O73  1  0.50486988  0.83883372  0.40433053  1
  O  O74  1  0.39913265  0.96957836  0.41266656  1
  O  O75  1  0.91010173  0.97672727  0.40663907  1
  O  O76  1  0.07668710  0.18753958  0.40787473  1
  O  O77  1  0.57587298  0.17960080  0.41183377  1
  O  O78  1  0.00882881  0.17979222  0.91347651  1
  O  O79  1  0.51216183  0.19746418  0.91429694  1
  O  O80  1  0.07463458  0.96346935  0.91094664  1
  O  O81  1  0.57286412  0.97382561  0.91130436  1
  O  O82  1  0.40021933  0.83099188  0.91364599  1
  O  O83  1  0.89788789  0.82224814  0.91377182  1
  O  O84  1  0.48844862  0.16679311  0.58474340  1
  O  O85  1  0.98985610  0.16691677  0.58520170  1
  O  O86  1  0.09368433  0.01388078  0.58611650  1
  O  O87  1  0.59432081  0.02152903  0.58521533  1
  O  O88  1  0.41517650  0.81159741  0.58502139  1
  O  O89  1  0.92006410  0.81421394  0.58642670  1
  O  O90  1  0.48809191  0.82481982  0.09318491  1
  O  O91  1  0.98531279  0.80395792  0.08425784  1
  O  O92  1  0.41567390  0.02461785  0.08898978  1
  O  O93  1  0.91368579  0.02442552  0.08551059  1
  O  O94  1  0.08443555  0.15509439  0.09533949  1
  O  O95  1  0.59636179  0.17294365  0.08346060  1
  O  O96  1  0.34489681  0.15993514  0.74704729  1
  O  O97  1  0.85095113  0.17269082  0.74751393  1
  O  O98  1  0.23848809  0.30676362  0.74424191  1
  O  O99  1  0.74241171  0.31250219  0.74631925  1
  O  O100  1  0.41737934  0.51449814  0.74590854  1
  O  O101  1  0.92243706  0.53746492  0.74343116  1
  O  O102  1  0.34808655  0.53461581  0.24620858  1
  O  O103  1  0.84408586  0.52219199  0.24512182  1
  O  O104  1  0.40855507  0.30238910  0.24164761  1
  O  O105  1  0.92380986  0.31354555  0.24454313  1
  O  O106  1  0.24513070  0.18187820  0.24162460  1
  O  O107  1  0.73080904  0.15560582  0.24409467  1
  O  O108  1  0.32127982  0.50313211  0.92238946  1
  O  O109  1  0.81640906  0.49921634  0.92615925  1
  O  O110  1  0.43300718  0.36579621  0.92434732  1
  O  O111  1  0.92430469  0.36995059  0.92354898  1
  O  O112  1  0.25993179  0.15742161  0.92571702  1
  O  O113  1  0.75179042  0.15437518  0.92441883  1
  O  O114  1  0.31993518  0.13684468  0.42566497  1
  O  O115  1  0.81907750  0.14601509  0.42504512  1
  O  O116  1  0.25444940  0.35312128  0.42464883  1
  O  O117  1  0.75321658  0.35783544  0.42620245  1
  O  O118  1  0.42543721  0.48564746  0.42398014  1
  O  O119  1  0.92568401  0.48694105  0.42689472  1
  O  O120  1  0.18010978  0.52146598  0.07695586  1
  O  O121  1  0.67965805  0.50270760  0.07206638  1
  O  O122  1  0.06969114  0.64544213  0.07593394  1
  O  O123  1  0.57475922  0.63845842  0.07775390  1
  O  O124  1  0.25352606  0.86167215  0.07667089  1
  O  O125  1  0.75116470  0.85441961  0.07460925  1
  O  O126  1  0.17927657  0.85273809  0.57570720  1
  O  O127  1  0.67558804  0.85155737  0.57551261  1
  O  O128  1  0.25122191  0.65406937  0.57368256  1
  O  O129  1  0.75331933  0.64995954  0.57749186  1
  O  O130  1  0.07359512  0.49836062  0.57814059  1
  O  O131  1  0.57068860  0.49815853  0.57546052  1
  O  O132  1  0.15705687  0.81695945  0.26042716  1
  O  O133  1  0.64752305  0.82924049  0.25405912  1
  O  O134  1  0.26625910  0.69896351  0.25508985  1
  O  O135  1  0.75626236  0.70165703  0.25450154  1
  O  O136  1  0.08527447  0.47331637  0.25355779  1
  O  O137  1  0.58890450  0.47832189  0.25572340  1
  O  O138  1  0.14572397  0.48462069  0.75844433  1
  O  O139  1  0.64744517  0.48512992  0.76213905  1
  O  O140  1  0.08306426  0.70407820  0.75302534  1
  O  O141  1  0.59101675  0.70147559  0.75664758  1
  O  O142  1  0.25464068  0.81071746  0.75878895  1
  O  O143  1  0.75985475  0.81928989  0.75630498  1
loop_
_geom_bond_atom_site_label_1
_geom_bond_atom_site_label_2
_geom_bond_distance
_geom_bond_site_symmetry_2
Na0 O137 2.268595 1_555
Na0 O103 2.339529 1_555
Na0 O107 2.356147 1_555
Na0 O135 2.425657 1_555
Na0 O65 2.469767 1_555
Na0 O35 2.652252 1_555
Na0 O1 2.812407 1_555
Na0 O21 2.824607 1_555
Na1 O103 2.308502 1_555
Na1 O132 2.392280 1_655
Na1 O105 2.454952 1_555
Na1 O60 2.562202 1_655
Na1 O136 2.566066 1_655
Na1 O22 2.583930 1_655
Na1 O3 2.613881 1_555
Na1 O31 2.698648 1_555
Na2 O97 2.215824 1_555
Na2 O138 2.234383 1_655
Na2 O101 2.409039 1_555
Na2 O140 2.528983 1_655
Na2 O66 2.552226 1_655
Na2 O25 2.602236 1_555
Na2 O14 2.722052 1_655
Na2 O11 2.821279 1_555
Na3 O100 2.275102 1_555
Na3 O96 2.278347 1_555
Na3 O139 2.313833 1_555
Na3 O141 2.531355 1_555
Na3 O24 2.597742 1_555
Na3 O15 2.680000 1_555
Na3 O67 2.722704 1_555
Na3 O10 2.809253 1_555
Na4 O98 2.249442 1_555
Na4 O96 2.301810 1_555
Na4 O140 2.345197 1_545
Na4 O142 2.455260 1_545
Na4 O68 2.520914 1_545
Na4 O26 2.656552 1_555
Na4 O6 2.701318 1_555
Na4 O16 2.874030 1_545
Na5 O99 2.289149 1_555
Na5 O141 2.310067 1_545
Na5 O97 2.440921 1_555
Na5 O143 2.489534 1_545
Na5 O27 2.561765 1_555
Na5 O69 2.613687 1_545
Na5 O17 2.706842 1_545
Na5 O7 2.744897 1_555
Na6 O72 2.323477 1_655
Na6 O75 2.397202 1_555
Na6 O76 2.436044 1_665
Na6 O89 2.495526 1_555
Na6 O85 2.497996 1_565
Na6 O86 2.546775 1_665
Na7 O77 2.372717 1_555
Na7 O87 2.383783 1_555
Na7 O84 2.454361 1_555
Na7 O88 2.472175 1_545
Na7 O73 2.507742 1_545
Na7 O74 2.535865 1_545
Na8 O78 2.369079 1_555
Na8 O80 2.413200 1_545
Na8 O91 2.459430 1_446
Na8 O94 2.462311 1_556
Na8 O93 2.519632 1_456
Na8 O83 2.571508 1_445
Na9 O81 2.339620 1_555
Na9 O82 2.443668 1_555
Na9 O95 2.449254 1_566
Na9 O90 2.475183 1_556
Na9 O79 2.478984 1_565
Na9 O92 2.564888 1_566
Na10 O100 2.367945 1_555
Na10 O98 2.383710 1_555
Na10 O96 2.446902 1_555
Na10 O108 2.547098 1_555
Na10 O112 2.549197 1_555
Na10 O110 2.639267 1_555
Na11 O99 2.346552 1_555
Na11 O97 2.429328 1_555
Na11 O113 2.494487 1_555
Na11 O111 2.501033 1_555
Na11 O101 2.575385 1_555
Na11 O109 2.602634 1_555
Na12 O106 2.431508 1_555
Na12 O104 2.453454 1_555
Na12 O102 2.474473 1_555
Na12 O118 2.493874 1_555
Na12 O116 2.510647 1_555
Na12 O114 2.591958 1_555
Na13 O115 2.457991 1_555
Na13 O119 2.483297 1_555
Na13 O117 2.506362 1_555
Na13 O103 2.514363 1_555
Na13 O105 2.585534 1_555
Na13 O107 2.597512 1_555
Na14 O120 2.368600 1_555
Na14 O134 2.468678 1_555
Na14 O124 2.497753 1_555
Na14 O136 2.501294 1_555
Na14 O132 2.515027 1_555
Na14 O122 2.572340 1_555
Na15 O135 2.379959 1_555
Na15 O137 2.421818 1_555
Na15 O133 2.424830 1_555
Na15 O123 2.443814 1_555
Na15 O125 2.590672 1_555
Na15 O121 2.646437 1_555
Na16 O142 2.389980 1_555
Na16 O138 2.426897 1_555
Na16 O128 2.469770 1_555
Na16 O130 2.535994 1_555
Na16 O126 2.542705 1_555
Na16 O140 2.593214 1_555
Na17 O129 2.443476 1_555
Na17 O143 2.455448 1_555
Na17 O127 2.507648 1_555
Na17 O131 2.534598 1_555
Na17 O139 2.535377 1_555
Na17 O141 2.540945 1_555
Ge0 O72 1.809643 1_555
Ge0 O3 1.837998 1_455
Ge0 O76 1.861095 1_565
Ge0 O75 1.869610 1_455
Ge0 O0 1.878040 1_565
Ge0 O5 2.137450 1_465
Ge1 O4 1.790351 1_555
Ge1 O77 1.795461 1_555
Ge1 O73 1.812350 1_545
Ge1 O1 1.993098 1_555
Ge1 O74 2.065834 1_545
Ge1 O2 2.080940 1_545
Ge2 O6 1.762254 1_555
Ge2 O78 1.795426 1_555
Ge2 O11 1.809733 1_455
Ge2 O80 1.853030 1_545
Ge2 O9 2.151523 1_445
Ge2 O83 2.258897 1_445
Ge3 O8 1.759286 1_555
Ge3 O7 1.774430 1_565
Ge3 O10 1.803973 1_565
Ge3 O81 1.849373 1_555
Ge3 O82 2.208716 1_555
Ge3 O79 2.213184 1_565
Ge4 O13 1.756679 1_545
Ge4 O14 1.796105 1_655
Ge4 O16 1.960592 1_645
Ge4 O85 2.020982 1_555
Ge4 O89 2.064790 1_545
Ge4 O86 2.195632 1_655
Ge5 O12 1.773672 1_545
Ge5 O17 1.781921 1_545
Ge5 O15 1.793098 1_555
Ge5 O84 2.183736 1_555
Ge5 O87 2.222427 1_555
Ge5 O88 2.241137 1_545
Ge6 O22 1.791902 1_555
Ge6 O19 1.796388 1_455
Ge6 O94 1.828931 1_565
Ge6 O20 1.980155 1_565
Ge6 O91 2.126011 1_455
Ge6 O93 2.280530 1_465
Ge7 O21 1.790815 1_565
Ge7 O90 1.825166 1_555
Ge7 O18 1.933865 1_555
Ge7 O23 1.943112 1_555
Ge7 O92 2.015350 1_565
Ge7 O95 2.163732 1_565
Ge8 O30 1.825169 1_555
Ge8 O34 1.838143 1_555
Ge8 O106 1.855366 1_555
Ge8 O104 1.868232 1_555
Ge8 O32 2.038386 1_555
Ge8 O102 2.051807 1_555
Ge9 O36 1.778254 1_556
Ge9 O38 1.834103 1_556
Ge9 O112 1.845060 1_555
Ge9 O108 2.012483 1_555
Ge9 O40 2.035601 1_556
Ge9 O110 2.227086 1_555
Ge10 O113 1.790804 1_555
Ge10 O111 1.792119 1_555
Ge10 O41 1.929915 1_556
Ge10 O109 1.986852 1_555
Ge10 O39 2.042128 1_556
Ge10 O37 2.061354 1_556
Ge11 O118 1.782751 1_555
Ge11 O116 1.789754 1_555
Ge11 O44 1.931947 1_555
Ge11 O46 2.043830 1_555
Ge11 O114 2.045193 1_555
Ge11 O42 2.138403 1_555
Ge12 O117 1.769493 1_555
Ge12 O115 1.772178 1_555
Ge12 O119 1.784351 1_555
Ge12 O43 2.093077 1_555
Ge12 O47 2.125349 1_555
Ge12 O45 2.148956 1_555
Ge13 O50 1.753811 1_554
Ge13 O52 1.800796 1_554
Ge13 O120 1.848849 1_555
Ge13 O48 1.993791 1_554
Ge13 O122 2.019779 1_555
Ge13 O124 2.151553 1_555
Ge14 O53 1.752034 1_554
Ge14 O123 1.808407 1_555
Ge14 O51 1.908851 1_554
Ge14 O125 2.020859 1_555
Ge14 O121 2.036026 1_555
Ge14 O49 2.076148 1_554
Ge15 O58 1.743673 1_555
Ge15 O56 1.753877 1_555
Ge15 O54 1.987169 1_555
Ge15 O130 2.011644 1_555
Ge15 O128 2.019437 1_555
Ge15 O126 2.061343 1_555
Ge16 O55 1.761256 1_555
Ge16 O57 1.776874 1_555
Ge16 O59 1.784549 1_555
Ge16 O127 2.086446 1_555
Ge16 O131 2.177463 1_555
Ge16 O129 2.211527 1_555
Ge17 O64 1.789125 1_555
Ge17 O60 1.794952 1_555
Ge17 O132 1.846802 1_555
Ge17 O62 2.016940 1_555
Ge17 O136 2.049953 1_555
Ge17 O134 2.170413 1_555
Ge18 O65 1.819156 1_555
Ge18 O63 1.822049 1_555
Ge18 O61 1.842443 1_555
Ge18 O135 1.933976 1_555
Ge18 O137 1.966856 1_555
Ge18 O133 2.149882 1_555
Ge19 O68 1.842475 1_555
Ge19 O142 1.850202 1_555
Ge19 O66 1.857380 1_555
Ge19 O138 1.890847 1_555
Ge19 O70 1.938630 1_555
Ge19 O140 2.169689 1_555
Ge20 O143 1.803064 1_555
Ge20 O69 1.829810 1_555
Ge20 O139 1.831447 1_555
Ge20 O141 1.838611 1_555
Ge20 O71 2.072013 1_555
Ge20 O67 2.140466 1_555
O0 Si0 1.605171 1_555
O1 S0 1.493943 1_545
O2 S1 1.474739 1_555
O3 Si1 1.621963 1_555
O4 Si2 1.650743 1_555
O5 S2 1.445833 1_655
O6 Si3 1.633188 1_555
O7 Si4 1.625312 1_555
O8 Si5 1.609859 1_555
O9 S3 1.451725 1_555
O10 Si6 1.645484 1_545
O11 Si7 1.624947 1_545
O12 Si6 1.661533 1_555
O13 Si7 1.648863 1_555
O14 Si3 1.678130 1_555
O15 Si4 1.674704 1_555
O16 S3 1.521731 1_455
O17 Si5 1.666164 1_555
O18 S1 1.509476 1_555
O19 Si1 1.678053 1_555
O20 S2 1.492894 1_555
O21 Si2 1.689190 1_555
O22 Si0 1.663318 1_565
O23 S0 1.511693 1_555
O24 S4 1.461479 1_555
O24 Zn0 2.122215 1_555
O25 S5 1.465292 1_555
O25 Zn1 2.142550 1_555
O26 S6 1.461111 1_555
O26 Zn0 2.138593 1_555
O27 S7 1.473059 1_555
O27 Zn1 2.045955 1_555
O28 S8 1.449858 1_555
O28 Zn0 2.125615 1_555
O29 S9 1.464495 1_555
O29 Zn1 2.044669 1_555
O30 Si8 1.614448 1_555
O31 S10 1.472132 1_555
O31 Zn2 2.028929 1_555
O32 S11 1.472429 1_555
O33 S12 1.472824 1_555
O33 Zn2 2.073684 1_555
O34 Si9 1.622541 1_555
O35 S13 1.472158 1_555
O35 Zn2 2.072195 1_555
O36 Si9 1.638533 1_555
O37 S13 1.489013 1_555
O38 Si8 1.648885 1_555
O39 S10 1.497628 1_555
O40 S11 1.486819 1_555
O41 S12 1.514301 1_555
O42 S6 1.492682 1_555
O43 S7 1.486440 1_555
O44 S8 1.511368 1_555
O45 S9 1.486109 1_555
O46 S4 1.518031 1_555
O47 S5 1.468940 1_555
O48 S14 1.486384 1_555
O49 S15 1.495779 1_555
O50 Si10 1.612759 1_555
O51 S16 1.522181 1_555
O52 Si11 1.641127 1_555
O53 Si12 1.623484 1_555
O54 S17 1.488758 1_555
O55 Si13 1.643177 1_555
O56 Si14 1.637344 1_555
O57 Si15 1.621433 1_555
O58 Si16 1.626418 1_555
O59 Si17 1.634734 1_555
O60 Si16 1.646148 1_555
O61 Si17 1.613242 1_555
O62 S17 1.482174 1_555
O63 Si13 1.627922 1_555
O64 Si14 1.655090 1_555
O65 Si15 1.625038 1_555
O66 Si10 1.636632 1_555
O67 S16 1.485186 1_555
O68 Si11 1.650663 1_555
O69 Si12 1.636364 1_555
O70 S14 1.493575 1_555
O71 S15 1.488164 1_555
O72 Si16 1.598554 1_555
O73 Si17 1.651395 1_555
O74 S17 1.474557 1_555
O75 Si13 1.610900 1_555
O76 Si14 1.598816 1_555
O77 Si15 1.637179 1_555
O78 Si10 1.630228 1_555
O79 S16 1.474337 1_555
O80 Si11 1.656951 1_555
O81 Si12 1.638539 1_555
O82 S14 1.459946 1_555
O83 S15 1.457978 1_555
O84 S4 1.511360 1_555
O85 S5 1.518952 1_555
O86 S6 1.508009 1_555
O87 S7 1.501744 1_555
O88 S8 1.482947 1_555
O89 S9 1.541229 1_555
O90 Si8 1.684883 1_555
O91 S10 1.486891 1_555
O92 S11 1.510573 1_555
O93 S12 1.461141 1_555
O94 Si9 1.671965 1_555
O95 S13 1.490920 1_555
O96 Si6 1.598702 1_545
O96 Zn0 2.040913 1_555
O97 Si7 1.616123 1_545
O97 Zn1 2.048255 1_555
O98 Si3 1.570093 1_555
O98 Zn0 1.939579 1_555
O99 Si4 1.586042 1_555
O99 Zn1 1.944981 1_555
O100 Si5 1.571709 1_555
O100 Zn0 1.931679 1_555
O101 S3 1.464902 1_555
O101 Zn1 2.132266 1_555
O102 S1 1.477740 1_555
O103 Si1 1.653032 1_555
O103 Zn2 1.987708 1_555
O104 Si2 1.618330 1_555
O105 S2 1.482330 1_655
O105 Zn2 2.107555 1_555
O106 Si0 1.618687 1_555
O107 S0 1.478208 1_545
O107 Zn2 2.131273 1_555
O108 S14 1.497297 1_555
O109 S15 1.510240 1_555
O110 S16 1.473000 1_555
O111 Si10 1.647928 1_655
O112 Si11 1.673895 1_545
O113 Si12 1.646006 1_545
O114 S17 1.488451 1_545
O115 Si13 1.642921 1_545
O116 Si14 1.652781 1_555
O117 Si15 1.624645 1_555
O118 Si17 1.657044 1_555
O119 Si16 1.620163 1_655
O120 Si9 1.667394 1_555
O121 S13 1.504946 1_555
O122 S10 1.492373 1_455
O123 Si8 1.669692 1_555
O124 S11 1.477722 1_565
O125 S12 1.510920 1_565
O126 S6 1.524505 1_565
O127 S7 1.508986 1_565
O128 S8 1.524355 1_555
O129 S9 1.492534 1_555
O130 S5 1.517373 1_455
O131 S4 1.493487 1_555
O132 Si0 1.693926 1_565
O133 S0 1.448685 1_555
O134 S1 1.478658 1_555
O135 Si1 1.643263 1_555
O136 S2 1.526208 1_555
O137 Si2 1.638267 1_555
O138 Si3 1.637997 1_555
O139 Si4 1.626503 1_555
O140 S3 1.508750 1_455
O141 Si5 1.656008 1_555
O142 Si6 1.649088 1_555
O143 Si7 1.625311 1_555
