# generated using pymatgen
data_MgCr4O8
_symmetry_space_group_name_H-M   'P 1'
_cell_length_a   2.92023434
_cell_length_b   5.03493609
_cell_length_c   9.78807952
_cell_angle_alpha   89.85817341
_cell_angle_beta   90.42920085
_cell_angle_gamma   106.83279627
_symmetry_Int_Tables_number   1
_chemical_formula_structural   MgCr4O8
_chemical_formula_sum   'Mg1 Cr4 O8'
_cell_volume   137.74591240
_cell_formula_units_Z   1
loop_
 _symmetry_equiv_pos_site_id
 _symmetry_equiv_pos_as_xyz
  1  'x, y, z'
loop_
 _atom_site_type_symbol
 _atom_site_label
 _atom_site_symmetry_multiplicity
 _atom_site_fract_x
 _atom_site_fract_y
 _atom_site_fract_z
 _atom_site_occupancy
  Mg  Mg0  1  0.60371300  0.21343900  0.24960300  1
  Cr  Cr0  1  0.86350400  0.73116100  0.07050200  1
  Cr  Cr1  1  0.13987900  0.26414900  0.92351300  1
  Cr  Cr2  1  0.86659300  0.73102300  0.42953200  1
  Cr  Cr3  1  0.12369600  0.26384600  0.57644900  1
  O  O0  1  0.22924100  0.45722700  0.38659100  1
  O  O1  1  0.74405200  0.51326100  0.60262400  1
  O  O2  1  0.76867100  0.51360400  0.89736100  1
  O  O3  1  0.22743700  0.45704500  0.11350100  1
  O  O4  1  0.95837200  0.92198700  0.25002700  1
  O  O5  1  0.06879400  0.13745900  0.75006300  1
  O  O6  1  0.48788400  0.01044900  0.00600700  1
  O  O7  1  0.52233100  0.01034900  0.49422700  1
loop_
_geom_bond_atom_site_label_1
_geom_bond_atom_site_label_2
_geom_bond_distance
_geom_bond_site_symmetry_2
Mg0 O4 2.025676 1_445
Mg0 O4 2.026369 1_545
Mg0 O3 2.288455 1_555
Mg0 O0 2.303884 1_555
Mg0 O0 2.305253 1_655
Mg0 O3 2.308910 1_655
Mg0 O6 2.577559 1_555
Mg0 O7 2.586675 1_555
Cr0 O4 1.983571 1_555
Cr0 O2 1.993766 1_554
Cr0 O3 2.012803 1_655
Cr0 O3 2.014014 1_555
Cr0 O6 2.056299 1_665
Cr0 O6 2.111315 1_565
Cr1 O5 1.804356 1_555
Cr1 O2 1.897605 1_455
Cr1 O2 1.919502 1_555
Cr1 O6 2.012671 1_556
Cr1 O3 2.079619 1_556
Cr1 O6 2.125593 1_456
Cr2 O4 1.983135 1_555
Cr2 O1 1.993310 1_555
Cr2 O0 2.011550 1_555
Cr2 O0 2.013360 1_655
Cr2 O7 2.054850 1_565
Cr2 O7 2.114782 1_665
Cr3 O5 1.805012 1_555
Cr3 O1 1.897776 1_555
Cr3 O1 1.919354 1_455
Cr3 O7 2.011591 1_455
Cr3 O0 2.079009 1_555
Cr3 O7 2.124035 1_555
