# generated using pymatgen
data_Na3Ti2Si2PO12
_symmetry_space_group_name_H-M   'P 1'
_cell_length_a   8.87754268
_cell_length_b   8.87754238
_cell_length_c   22.29004277
_cell_angle_alpha   89.92534661
_cell_angle_beta   90.07465339
_cell_angle_gamma   119.92358721
_symmetry_Int_Tables_number   1
_chemical_formula_structural   Na3Ti2Si2PO12
_chemical_formula_sum   'Na18 Ti12 Si12 P6 O72'
_cell_volume   1522.51104181
_cell_formula_units_Z   6
loop_
 _symmetry_equiv_pos_site_id
 _symmetry_equiv_pos_as_xyz
  1  'x, y, z'
loop_
 _atom_site_type_symbol
 _atom_site_label
 _atom_site_symmetry_multiplicity
 _atom_site_fract_x
 _atom_site_fract_y
 _atom_site_fract_z
 _atom_site_occupancy
  Na  Na0  1  0.00022718  0.99835388  0.50010446  1
  Na  Na1  1  0.00164612  0.99977282  0.00010446  1
  Na  Na2  1  0.66689418  0.33168688  0.83343746  1
  Na  Na3  1  0.66831312  0.33310582  0.33343746  1
  Na  Na4  1  0.33356018  0.66502088  0.16677146  1
  Na  Na5  1  0.33497912  0.66643982  0.66677146  1
  Na  Na6  1  0.63457807  0.00091098  0.24995499  1
  Na  Na7  1  0.00034002  0.63317665  0.25048421  1
  Na  Na8  1  0.99908902  0.36542193  0.74995499  1
  Na  Na9  1  0.36682335  0.99965998  0.75048421  1
  Na  Na10  1  0.30124507  0.33424398  0.58328799  1
  Na  Na11  1  0.66700702  0.96650965  0.58381721  1
  Na  Na12  1  0.66575602  0.69875493  0.08328799  1
  Na  Na13  1  0.03349035  0.33299298  0.08381721  1
  Na  Na14  1  0.96791107  0.66757798  0.91662199  1
  Na  Na15  1  0.33367302  0.29984365  0.91715121  1
  Na  Na16  1  0.33242202  0.03208893  0.41662199  1
  Na  Na17  1  0.70015635  0.66632698  0.41715121  1
  Ti  Ti0  1  0.98901142  0.99840216  0.35210103  1
  Ti  Ti1  1  0.00159784  0.01098858  0.85210103  1
  Ti  Ti2  1  0.99726227  0.99326083  0.64850531  1
  Ti  Ti3  1  0.00673917  0.00273773  0.14850531  1
  Ti  Ti4  1  0.65567842  0.33173516  0.68543403  1
  Ti  Ti5  1  0.66826484  0.34432158  0.18543403  1
  Ti  Ti6  1  0.66392927  0.32659383  0.98183831  1
  Ti  Ti7  1  0.67340617  0.33607073  0.48183831  1
  Ti  Ti8  1  0.32234442  0.66506916  0.01876803  1
  Ti  Ti9  1  0.33493084  0.67765558  0.51876803  1
  Ti  Ti10  1  0.33059527  0.65992783  0.31517231  1
  Ti  Ti11  1  0.34007217  0.66940473  0.81517231  1
  Si  Si0  1  0.70638015  0.70860585  0.24943559  1
  Si  Si1  1  0.00358338  0.29156764  0.24965222  1
  Si  Si2  1  0.29139415  0.29361985  0.74943559  1
  Si  Si3  1  0.70843236  0.99641662  0.74965222  1
  Si  Si4  1  0.37304715  0.04193885  0.58276859  1
  Si  Si5  1  0.67025038  0.62490064  0.58298522  1
  Si  Si6  1  0.95806115  0.62695285  0.08276859  1
  Si  Si7  1  0.37509936  0.32974962  0.08298522  1
  Si  Si8  1  0.03971315  0.37527285  0.91610259  1
  Si  Si9  1  0.33691638  0.95823464  0.91631922  1
  Si  Si10  1  0.62472715  0.96028685  0.41610259  1
  Si  Si11  1  0.04176536  0.66308362  0.41631922  1
  P  P0  1  0.29034984  0.00406191  0.25079819  1
  P  P1  1  0.99593809  0.70965016  0.75079819  1
  P  P2  1  0.95701684  0.33739491  0.58413119  1
  P  P3  1  0.66260509  0.04298316  0.08413119  1
  P  P4  1  0.62368284  0.67072891  0.91746519  1
  P  P5  1  0.32927109  0.37631716  0.41746519  1
  O  O0  1  0.20618637  0.03105095  0.30703455  1
  O  O1  1  0.83476211  0.79794551  0.30820320  1
  O  O2  1  0.96680072  0.16042055  0.30692159  1
  O  O3  1  0.20205449  0.16523789  0.80820320  1
  O  O4  1  0.96894905  0.79381363  0.80703455  1
  O  O5  1  0.83957945  0.03319928  0.80692159  1
  O  O6  1  0.80202138  0.96871977  0.69052311  1
  O  O7  1  0.16510732  0.19952742  0.69141333  1
  O  O8  1  0.03325723  0.83105822  0.69543114  1
  O  O9  1  0.80047258  0.83489268  0.19141333  1
  O  O10  1  0.03128023  0.19797862  0.19052311  1
  O  O11  1  0.16894178  0.96674277  0.19543114  1
  O  O12  1  0.87285337  0.36438395  0.64036755  1
  O  O13  1  0.50142911  0.13127851  0.64153620  1
  O  O14  1  0.63346772  0.49375355  0.64025459  1
  O  O15  1  0.86872149  0.49857089  0.14153620  1
  O  O16  1  0.63561605  0.12714663  0.14036755  1
  O  O17  1  0.50624645  0.36653228  0.14025459  1
  O  O18  1  0.46868838  0.30205277  0.02385611  1
  O  O19  1  0.83177432  0.53286042  0.02474633  1
  O  O20  1  0.69992423  0.16439122  0.02876414  1
  O  O21  1  0.46713958  0.16822568  0.52474633  1
  O  O22  1  0.69794723  0.53131162  0.52385611  1
  O  O23  1  0.83560878  0.30007577  0.52876414  1
  O  O24  1  0.53951937  0.69771795  0.97370155  1
  O  O25  1  0.16809511  0.46461251  0.97487020  1
  O  O26  1  0.30013372  0.82708755  0.97358859  1
  O  O27  1  0.53538749  0.83190489  0.47487020  1
  O  O28  1  0.30228205  0.46048063  0.47370155  1
  O  O29  1  0.17291245  0.69986628  0.47358859  1
  O  O30  1  0.13535438  0.63538677  0.35719011  1
  O  O31  1  0.49844032  0.86619442  0.35808033  1
  O  O32  1  0.36659023  0.49772522  0.36209814  1
  O  O33  1  0.13380558  0.50155968  0.85808033  1
  O  O34  1  0.36461323  0.86464562  0.85719011  1
  O  O35  1  0.50227478  0.63340977  0.86209814  1
  O  O36  1  0.02782263  0.83998242  0.40965549  1
  O  O37  1  0.81356432  0.97086248  0.40944486  1
  O  O38  1  0.17286140  0.19244790  0.40939157  1
  O  O39  1  0.02913752  0.18643568  0.90944486  1
  O  O40  1  0.16001758  0.97217737  0.90965549  1
  O  O41  1  0.80755210  0.82713860  0.90939157  1
  O  O42  1  0.97344490  0.17073934  0.58913932  1
  O  O43  1  0.18584318  0.03009326  0.59123705  1
  O  O44  1  0.83729702  0.81951321  0.59056878  1
  O  O45  1  0.96990674  0.81415682  0.09123705  1
  O  O46  1  0.82926066  0.02655510  0.08913932  1
  O  O47  1  0.18048679  0.16270298  0.09056878  1
  O  O48  1  0.69448963  0.17331542  0.74298849  1
  O  O49  1  0.48023132  0.30419548  0.74277786  1
  O  O50  1  0.83952840  0.52578090  0.74272457  1
  O  O51  1  0.69580452  0.51976868  0.24277786  1
  O  O52  1  0.82668458  0.30551037  0.24298849  1
  O  O53  1  0.47421910  0.16047160  0.24272457  1
  O  O54  1  0.64011190  0.50407234  0.92247232  1
  O  O55  1  0.85251018  0.36342626  0.92457005  1
  O  O56  1  0.50396402  0.15284621  0.92390178  1
  O  O57  1  0.63657374  0.14748982  0.42457005  1
  O  O58  1  0.49592766  0.35988810  0.42247232  1
  O  O59  1  0.84715379  0.49603598  0.42390178  1
  O  O60  1  0.36115563  0.50664942  0.07632249  1
  O  O61  1  0.14689732  0.63752948  0.07611186  1
  O  O62  1  0.50619440  0.85911490  0.07605857  1
  O  O63  1  0.36247052  0.85310268  0.57611186  1
  O  O64  1  0.49335058  0.63884437  0.57632249  1
  O  O65  1  0.14088510  0.49380560  0.57605857  1
  O  O66  1  0.30677790  0.83740634  0.25580632  1
  O  O67  1  0.51917618  0.69676026  0.25790405  1
  O  O68  1  0.17063002  0.48618021  0.25723578  1
  O  O69  1  0.30323974  0.48082382  0.75790405  1
  O  O70  1  0.16259366  0.69322210  0.75580632  1
  O  O71  1  0.51381979  0.82936998  0.75723578  1
loop_
_geom_bond_atom_site_label_1
_geom_bond_atom_site_label_2
_geom_bond_distance
_geom_bond_site_symmetry_2
Na0 O44 2.527257 1_455
Na0 O43 2.539804 1_565
Na0 O36 2.540417 1_555
Na0 O37 2.545249 1_455
Na0 O42 2.590230 1_465
Na0 O38 2.602035 1_565
Na1 O47 2.527257 1_565
Na1 O45 2.539804 1_455
Na1 O40 2.540417 1_554
Na1 O39 2.545249 1_564
Na1 O46 2.590230 1_465
Na1 O41 2.602035 1_454
Na2 O56 2.527257 1_555
Na2 O55 2.539804 1_555
Na2 O48 2.540417 1_555
Na2 O49 2.545249 1_555
Na2 O54 2.590230 1_555
Na2 O50 2.602035 1_555
Na3 O59 2.527257 1_555
Na3 O57 2.539804 1_555
Na3 O52 2.540417 1_555
Na3 O51 2.545249 1_555
Na3 O58 2.590230 1_555
Na3 O53 2.602035 1_555
Na4 O68 2.527257 1_555
Na4 O67 2.539804 1_555
Na4 O60 2.540417 1_555
Na4 O61 2.545249 1_555
Na4 O66 2.590230 1_555
Na4 O62 2.602035 1_555
Na5 O71 2.527257 1_555
Na5 O69 2.539804 1_555
Na5 O64 2.540417 1_555
Na5 O63 2.545249 1_555
Na5 O70 2.590230 1_555
Na5 O65 2.602035 1_555
Na6 O67 2.368746 1_545
Na6 O52 2.375572 1_555
Na6 O53 2.463688 1_555
Na6 O66 2.525592 1_545
Na6 O16 2.684291 1_555
Na6 O31 2.694001 1_545
Na6 O2 2.853812 1_555
Na6 O9 2.866961 1_545
Na7 O51 2.373993 1_455
Na7 O66 2.404321 1_555
Na7 O68 2.445020 1_555
Na7 O52 2.528364 1_455
Na7 O30 2.657708 1_555
Na7 O15 2.701436 1_455
Na7 O11 2.844015 1_555
Na7 O1 2.847896 1_455
Na8 O69 2.368746 1_655
Na8 O48 2.375572 1_555
Na8 O50 2.463688 1_555
Na8 O70 2.525592 1_655
Na8 O12 2.684291 1_555
Na8 O33 2.694001 1_655
Na8 O5 2.853812 1_555
Na8 O7 2.866961 1_655
Na9 O49 2.373993 1_565
Na9 O70 2.404321 1_555
Na9 O71 2.445020 1_555
Na9 O48 2.528364 1_565
Na9 O34 2.657708 1_555
Na9 O13 2.701436 1_565
Na9 O8 2.844015 1_555
Na9 O3 2.847896 1_565
Na10 O43 2.368746 1_555
Na10 O64 2.375576 1_555
Na10 O65 2.463702 1_555
Na10 O42 2.525592 1_455
Na10 O28 2.684276 1_555
Na10 O7 2.694001 1_555
Na10 O14 2.853812 1_555
Na10 O21 2.866961 1_555
Na11 O63 2.374001 1_555
Na11 O42 2.404321 1_565
Na11 O44 2.445020 1_555
Na11 O64 2.528356 1_555
Na11 O6 2.657708 1_555
Na11 O27 2.701416 1_555
Na11 O23 2.844015 1_565
Na11 O13 2.847896 1_565
Na12 O45 2.368746 1_555
Na12 O60 2.375576 1_555
Na12 O62 2.463702 1_555
Na12 O46 2.525592 1_565
Na12 O24 2.684276 1_554
Na12 O9 2.694001 1_555
Na12 O17 2.853812 1_555
Na12 O19 2.866961 1_555
Na13 O61 2.374000 1_555
Na13 O46 2.404321 1_455
Na13 O47 2.445020 1_555
Na13 O60 2.528356 1_555
Na13 O10 2.657708 1_555
Na13 O25 2.701416 1_554
Na13 O20 2.844015 1_455
Na13 O15 2.847896 1_455
Na14 O55 2.368754 1_555
Na14 O40 2.375572 1_655
Na14 O41 2.463688 1_555
Na14 O54 2.525584 1_555
Na14 O4 2.684291 1_555
Na14 O19 2.693981 1_556
Na14 O26 2.853812 1_655
Na14 O33 2.866961 1_655
Na15 O39 2.373993 1_555
Na15 O54 2.404325 1_555
Na15 O56 2.445034 1_555
Na15 O40 2.528364 1_545
Na15 O18 2.657694 1_556
Na15 O3 2.701436 1_555
Na15 O35 2.844015 1_555
Na15 O25 2.847896 1_555
Na16 O57 2.368754 1_555
Na16 O36 2.375572 1_545
Na16 O38 2.463688 1_555
Na16 O58 2.525583 1_555
Na16 O0 2.684291 1_555
Na16 O21 2.693981 1_555
Na16 O29 2.853812 1_545
Na16 O31 2.866961 1_545
Na17 O37 2.373993 1_555
Na17 O58 2.404325 1_555
Na17 O59 2.445034 1_555
Na17 O36 2.528364 1_655
Na17 O22 2.657693 1_555
Na17 O1 2.701436 1_555
Na17 O32 2.844015 1_555
Na17 O27 2.847896 1_555
O0 P0 1.539084 1_555
O0 Ti0 2.063244 1_445
O1 Si0 1.655563 1_555
O1 Ti0 1.889241 1_555
O2 Si1 1.646086 1_655
O2 Ti0 1.844036 1_545
O3 Si2 1.655563 1_555
O3 Ti1 1.889241 1_555
O4 P1 1.539084 1_555
O4 Ti1 2.063244 1_665
O5 Si3 1.646086 1_545
O5 Ti1 1.844036 1_655
O6 Si3 1.641757 1_555
O6 Ti2 1.885680 1_555
O7 Si2 1.640743 1_555
O7 Ti2 1.940807 1_445
O8 P1 1.560723 1_455
O8 Ti2 1.929752 1_455
O9 Si0 1.640743 1_555
O9 Ti3 1.940807 1_665
O10 Si1 1.641757 1_555
O10 Ti3 1.885680 1_555
O11 P0 1.560723 1_565
O11 Ti3 1.929752 1_565
O12 P2 1.539084 1_555
O12 Ti4 2.063244 1_555
O13 Si4 1.655563 1_555
O13 Ti4 1.889241 1_555
O14 Si5 1.646086 1_555
O14 Ti4 1.844036 1_555
O15 Si6 1.655563 1_555
O15 Ti5 1.889241 1_555
O16 P3 1.539084 1_555
O16 Ti5 2.063244 1_555
O17 Si7 1.646086 1_555
O17 Ti5 1.844036 1_555
O18 Si7 1.641757 1_555
O18 Ti6 1.885680 1_554
O19 Si6 1.640743 1_555
O19 Ti6 1.940807 1_554
O20 P3 1.560723 1_555
O20 Ti6 1.929752 1_554
O21 Si4 1.640743 1_555
O21 Ti7 1.940807 1_555
O22 Si5 1.641757 1_555
O22 Ti7 1.885680 1_555
O23 P2 1.560723 1_555
O23 Ti7 1.929752 1_555
O24 P4 1.539084 1_555
O24 Ti8 2.063244 1_556
O25 Si8 1.655563 1_555
O25 Ti8 1.889241 1_556
O26 Si9 1.646086 1_555
O26 Ti8 1.844036 1_556
O27 Si10 1.655563 1_555
O27 Ti9 1.889241 1_555
O28 P5 1.539084 1_555
O28 Ti9 2.063244 1_555
O29 Si11 1.646086 1_555
O29 Ti9 1.844036 1_555
O30 Si11 1.641757 1_555
O30 Ti10 1.885680 1_555
O31 Si10 1.640743 1_555
O31 Ti10 1.940807 1_555
O32 P5 1.560723 1_555
O32 Ti10 1.929752 1_555
O33 Si8 1.640743 1_555
O33 Ti11 1.940807 1_555
O34 Si9 1.641757 1_555
O34 Ti11 1.885680 1_555
O35 P4 1.560723 1_555
O35 Ti11 1.929752 1_555
O36 Si11 1.642224 1_555
O36 Ti0 2.054267 1_455
O37 Si10 1.638528 1_555
O37 Ti0 1.934928 1_555
O38 P5 1.537425 1_555
O38 Ti0 2.111241 1_445
O39 Si8 1.638528 1_555
O39 Ti1 1.934928 1_555
O40 Si9 1.642224 1_555
O40 Ti1 2.054267 1_565
O41 P4 1.537425 1_555
O41 Ti1 2.111241 1_665
O42 P2 1.561226 1_555
O42 Ti2 2.145784 1_545
O43 Si4 1.623281 1_555
O43 Ti2 1.999366 1_445
O44 Si5 1.629901 1_555
O44 Ti2 1.969419 1_555
O45 Si6 1.623281 1_555
O45 Ti3 1.999366 1_665
O46 P3 1.561226 1_555
O46 Ti3 2.145784 1_655
O47 Si7 1.629901 1_555
O47 Ti3 1.969419 1_555
O48 Si3 1.642224 1_545
O48 Ti4 2.054267 1_555
O49 Si2 1.638528 1_555
O49 Ti4 1.934928 1_555
O50 P1 1.537425 1_555
O50 Ti4 2.111241 1_555
O51 Si0 1.638528 1_555
O51 Ti5 1.934928 1_555
O52 Si1 1.642224 1_655
O52 Ti5 2.054267 1_555
O53 P0 1.537425 1_555
O53 Ti5 2.111241 1_555
O54 P4 1.561238 1_555
O54 Ti6 2.145784 1_555
O55 Si8 1.623266 1_655
O55 Ti6 1.999366 1_555
O56 Si9 1.629897 1_545
O56 Ti6 1.969419 1_555
O57 Si10 1.623266 1_545
O57 Ti7 1.999366 1_555
O58 P5 1.561238 1_555
O58 Ti7 2.145784 1_555
O59 Si11 1.629897 1_655
O59 Ti7 1.969419 1_555
O60 Si7 1.642236 1_555
O60 Ti8 2.054267 1_555
O61 Si6 1.638513 1_455
O61 Ti8 1.934928 1_555
O62 P3 1.537421 1_565
O62 Ti8 2.111241 1_555
O63 Si4 1.638513 1_565
O63 Ti9 1.934928 1_555
O64 Si5 1.642236 1_555
O64 Ti9 2.054267 1_555
O65 P2 1.537421 1_455
O65 Ti9 2.111241 1_555
O66 P0 1.561226 1_565
O66 Ti10 2.145784 1_555
O67 Si0 1.623281 1_555
O67 Ti10 1.999366 1_555
O68 Si1 1.629901 1_555
O68 Ti10 1.969419 1_555
O69 Si2 1.623281 1_555
O69 Ti11 1.999366 1_555
O70 P1 1.561226 1_455
O70 Ti11 2.145784 1_555
O71 Si3 1.629901 1_555
O71 Ti11 1.969419 1_555
