# generated using pymatgen
data_Na2ZrAl(PO4)3
_symmetry_space_group_name_H-M   'P 1'
_cell_length_a   8.81104827
_cell_length_b   8.81104798
_cell_length_c   22.42475732
_cell_angle_alpha   90.17408216
_cell_angle_beta   89.82591783
_cell_angle_gamma   120.53409733
_symmetry_Int_Tables_number   1
_chemical_formula_structural   Na2ZrAl(PO4)3
_chemical_formula_sum   'Na12 Zr6 Al6 P18 O72'
_cell_volume   1499.50626317
_cell_formula_units_Z   6
loop_
 _symmetry_equiv_pos_site_id
 _symmetry_equiv_pos_as_xyz
  1  'x, y, z'
loop_
 _atom_site_type_symbol
 _atom_site_label
 _atom_site_symmetry_multiplicity
 _atom_site_fract_x
 _atom_site_fract_y
 _atom_site_fract_z
 _atom_site_occupancy
  Na  Na0  1  0.36401506  0.36257567  0.24862925  1
  Na  Na1  1  0.63742433  0.63598494  0.74862925  1
  Na  Na2  1  0.03068206  0.69590867  0.58196225  1
  Na  Na3  1  0.30409133  0.96931794  0.08196225  1
  Na  Na4  1  0.69734806  0.02924267  0.91529625  1
  Na  Na5  1  0.97075733  0.30265194  0.41529625  1
  Na  Na6  1  0.99995699  0.99913235  0.49624629  1
  Na  Na7  1  0.00086765  0.00004301  0.99624629  1
  Na  Na8  1  0.66662399  0.33246535  0.82957929  1
  Na  Na9  1  0.66753465  0.33337601  0.32957929  1
  Na  Na10  1  0.33328999  0.66579935  0.16291329  1
  Na  Na11  1  0.33420065  0.66671001  0.66291329  1
  Zr  Zr0  1  0.00194986  0.00877304  0.64637575  1
  Zr  Zr1  1  0.99122696  0.99805014  0.14637575  1
  Zr  Zr2  1  0.66861686  0.34210604  0.97970875  1
  Zr  Zr3  1  0.65789396  0.33138314  0.47970875  1
  Zr  Zr4  1  0.33528286  0.67544004  0.31304275  1
  Zr  Zr5  1  0.32455996  0.66471714  0.81304275  1
  Al  Al0  1  0.99865339  0.99234477  0.35218447  1
  Al  Al1  1  0.00765523  0.00134661  0.85218447  1
  Al  Al2  1  0.66532039  0.32567777  0.68551747  1
  Al  Al3  1  0.67432223  0.33467961  0.18551747  1
  Al  Al4  1  0.33198639  0.65901177  0.01885147  1
  Al  Al5  1  0.34098823  0.66801361  0.51885147  1
  P  P0  1  0.29343966  0.00886314  0.24993328  1
  P  P1  1  0.71634874  0.70342265  0.25234723  1
  P  P2  1  0.98588003  0.28396411  0.25248056  1
  P  P3  1  0.29657735  0.28365126  0.75234723  1
  P  P4  1  0.99113686  0.70656034  0.74993328  1
  P  P5  1  0.71603589  0.01411997  0.75248056  1
  P  P6  1  0.96010666  0.34219614  0.58326628  1
  P  P7  1  0.38301574  0.03675565  0.58568023  1
  P  P8  1  0.65254703  0.61729711  0.58581356  1
  P  P9  1  0.96324435  0.61698426  0.08568023  1
  P  P10  1  0.65780386  0.03989334  0.08326628  1
  P  P11  1  0.38270289  0.34745297  0.08581356  1
  P  P12  1  0.62677266  0.67553014  0.91660028  1
  P  P13  1  0.04968174  0.37008965  0.91901423  1
  P  P14  1  0.31921303  0.95063111  0.91914756  1
  P  P15  1  0.62991035  0.95031826  0.41901423  1
  P  P16  1  0.32446986  0.37322734  0.41660028  1
  P  P17  1  0.04936889  0.68078697  0.41914756  1
  O  O0  1  0.20117121  0.03759287  0.30401802  1
  O  O1  1  0.83071840  0.79808428  0.30679583  1
  O  O2  1  0.96591487  0.17393614  0.30878571  1
  O  O3  1  0.20191572  0.16928160  0.80679583  1
  O  O4  1  0.96240713  0.79882879  0.80401802  1
  O  O5  1  0.82606386  0.03408513  0.80878571  1
  O  O6  1  0.79472238  0.97169256  0.69748824  1
  O  O7  1  0.18429249  0.20849456  0.69574229  1
  O  O8  1  0.02313201  0.81459061  0.69249502  1
  O  O9  1  0.79150544  0.81570751  0.19574229  1
  O  O10  1  0.02830744  0.20527762  0.19748824  1
  O  O11  1  0.18540939  0.97686799  0.19249502  1
  O  O12  1  0.86783821  0.37092587  0.63735102  1
  O  O13  1  0.49738540  0.13141728  0.64012883  1
  O  O14  1  0.63258187  0.50726914  0.64211871  1
  O  O15  1  0.86858272  0.50261460  0.14012883  1
  O  O16  1  0.62907413  0.13216179  0.13735102  1
  O  O17  1  0.49273086  0.36741813  0.14211871  1
  O  O18  1  0.46138938  0.30502556  0.03082124  1
  O  O19  1  0.85095949  0.54182756  0.02907529  1
  O  O20  1  0.68979901  0.14792361  0.02582802  1
  O  O21  1  0.45817244  0.14904051  0.52907529  1
  O  O22  1  0.69497444  0.53861062  0.53082124  1
  O  O23  1  0.85207639  0.31020099  0.52582802  1
  O  O24  1  0.53450421  0.70425987  0.97068502  1
  O  O25  1  0.16405140  0.46475128  0.97346283  1
  O  O26  1  0.29924787  0.84060314  0.97545271  1
  O  O27  1  0.53524872  0.83594860  0.47346283  1
  O  O28  1  0.29574013  0.46549579  0.47068502  1
  O  O29  1  0.15939686  0.70075213  0.47545271  1
  O  O30  1  0.12805538  0.63835956  0.36415524  1
  O  O31  1  0.51762549  0.87516156  0.36240929  1
  O  O32  1  0.35646501  0.48125761  0.35916202  1
  O  O33  1  0.12483844  0.48237451  0.86240929  1
  O  O34  1  0.36164044  0.87194462  0.86415524  1
  O  O35  1  0.51874239  0.64353499  0.85916202  1
  O  O36  1  0.03040947  0.84261116  0.40880911  1
  O  O37  1  0.81609935  0.97508160  0.41026686  1
  O  O38  1  0.15573080  0.18895299  0.40909399  1
  O  O39  1  0.02491840  0.18390065  0.91026686  1
  O  O40  1  0.15738884  0.96959053  0.90880911  1
  O  O41  1  0.81104701  0.84426920  0.90909399  1
  O  O42  1  0.98113157  0.17935547  0.58851334  1
  O  O43  1  0.19345211  0.00940564  0.58986248  1
  O  O44  1  0.82373254  0.80187731  0.58993226  1
  O  O45  1  0.99059436  0.80654789  0.08986248  1
  O  O46  1  0.82064453  0.01886843  0.08851334  1
  O  O47  1  0.19812269  0.17626746  0.08993226  1
  O  O48  1  0.69707647  0.17594416  0.74214211  1
  O  O49  1  0.48276635  0.30841460  0.74359986  1
  O  O50  1  0.82239780  0.52228599  0.74242699  1
  O  O51  1  0.69158540  0.51723365  0.24359986  1
  O  O52  1  0.82405584  0.30292353  0.24214211  1
  O  O53  1  0.47771401  0.17760220  0.24242699  1
  O  O54  1  0.64779857  0.51268847  0.92184634  1
  O  O55  1  0.86011911  0.34273864  0.92319548  1
  O  O56  1  0.49039954  0.13521031  0.92326526  1
  O  O57  1  0.65726136  0.13988089  0.42319548  1
  O  O58  1  0.48731153  0.35220143  0.42184634  1
  O  O59  1  0.86478969  0.50960046  0.42326526  1
  O  O60  1  0.36374247  0.50927816  0.07547611  1
  O  O61  1  0.14943235  0.64174860  0.07693386  1
  O  O62  1  0.48906380  0.85561999  0.07576099  1
  O  O63  1  0.35825140  0.85056765  0.57693386  1
  O  O64  1  0.49072184  0.63625753  0.57547611  1
  O  O65  1  0.14438001  0.51093620  0.57576099  1
  O  O66  1  0.31446457  0.84602247  0.25518034  1
  O  O67  1  0.52678511  0.67607264  0.25652948  1
  O  O68  1  0.15706554  0.46854431  0.25659926  1
  O  O69  1  0.32392736  0.47321489  0.75652948  1
  O  O70  1  0.15397753  0.68553543  0.75518034  1
  O  O71  1  0.53145569  0.84293446  0.75659926  1
loop_
_geom_bond_atom_site_label_1
_geom_bond_atom_site_label_2
_geom_bond_distance
_geom_bond_site_symmetry_2
Na0 O53 2.309992 1_555
Na0 O67 2.385675 1_555
Na0 O68 2.440416 1_555
Na0 O51 2.490500 1_555
Na0 O17 2.632080 1_555
Na0 O32 2.701052 1_555
Na0 O0 2.763487 1_555
Na0 O10 2.798364 1_555
Na1 O50 2.309992 1_555
Na1 O69 2.385675 1_555
Na1 O71 2.440416 1_555
Na1 O49 2.490500 1_555
Na1 O14 2.632080 1_555
Na1 O35 2.701052 1_555
Na1 O4 2.763487 1_555
Na1 O6 2.798364 1_555
Na2 O65 2.309976 1_555
Na2 O43 2.385675 1_565
Na2 O44 2.440416 1_455
Na2 O63 2.490491 1_555
Na2 O29 2.632054 1_555
Na2 O8 2.701052 1_555
Na2 O12 2.763487 1_455
Na2 O22 2.798364 1_455
Na3 O62 2.309976 1_555
Na3 O45 2.385675 1_455
Na3 O47 2.440416 1_565
Na3 O61 2.490491 1_555
Na3 O26 2.632054 1_554
Na3 O11 2.701052 1_555
Na3 O16 2.763487 1_565
Na3 O18 2.798364 1_565
Na4 O41 2.309992 1_545
Na4 O55 2.385666 1_555
Na4 O56 2.440399 1_555
Na4 O39 2.490500 1_655
Na4 O5 2.632080 1_555
Na4 O20 2.701026 1_556
Na4 O24 2.763487 1_545
Na4 O34 2.798364 1_545
Na5 O38 2.309992 1_655
Na5 O57 2.385666 1_555
Na5 O59 2.440399 1_555
Na5 O37 2.490500 1_545
Na5 O2 2.632080 1_555
Na5 O23 2.701026 1_555
Na5 O28 2.763487 1_655
Na5 O30 2.798364 1_655
Na6 O37 2.460561 1_555
Na6 O38 2.484297 1_665
Na6 O36 2.484934 1_655
Na6 O42 2.660025 1_565
Na6 O44 2.665640 1_555
Na6 O43 2.680633 1_665
Na7 O39 2.460561 1_555
Na7 O41 2.484297 1_445
Na7 O40 2.484934 1_545
Na7 O46 2.660025 1_456
Na7 O47 2.665640 1_556
Na7 O45 2.680632 1_446
Na8 O49 2.460561 1_555
Na8 O50 2.484297 1_555
Na8 O48 2.484934 1_555
Na8 O54 2.660025 1_555
Na8 O56 2.665640 1_555
Na8 O55 2.680633 1_555
Na9 O51 2.460561 1_555
Na9 O53 2.484297 1_555
Na9 O52 2.484934 1_555
Na9 O58 2.660025 1_555
Na9 O59 2.665640 1_555
Na9 O57 2.680632 1_555
Na10 O61 2.460561 1_555
Na10 O62 2.484297 1_555
Na10 O60 2.484934 1_555
Na10 O66 2.660025 1_555
Na10 O68 2.665640 1_555
Na10 O67 2.680633 1_555
Na11 O63 2.460561 1_555
Na11 O65 2.484297 1_555
Na11 O64 2.484934 1_555
Na11 O70 2.660025 1_555
Na11 O71 2.665640 1_555
Na11 O69 2.680632 1_555
Al0 O1 1.892154 1_555
Al0 O0 1.943634 1_665
Al0 O36 1.954144 1_655
Al0 O37 2.011646 1_555
Al0 O2 2.017551 1_565
Al0 O38 2.026381 1_665
Al1 O3 1.892154 1_555
Al1 O4 1.943634 1_445
Al1 O40 1.954144 1_545
Al1 O39 2.011646 1_555
Al1 O5 2.017551 1_455
Al1 O41 2.026381 1_445
Al2 O13 1.892154 1_555
Al2 O12 1.943634 1_555
Al2 O48 1.954144 1_555
Al2 O49 2.011646 1_555
Al2 O14 2.017551 1_555
Al2 O50 2.026381 1_555
Al3 O15 1.892154 1_555
Al3 O16 1.943634 1_555
Al3 O52 1.954144 1_555
Al3 O51 2.011646 1_555
Al3 O17 2.017551 1_555
Al3 O53 2.026381 1_555
Al4 O25 1.892154 1_554
Al4 O24 1.943634 1_554
Al4 O60 1.954144 1_555
Al4 O61 2.011646 1_555
Al4 O26 2.017551 1_554
Al4 O62 2.026381 1_555
Al5 O27 1.892154 1_555
Al5 O28 1.943634 1_555
Al5 O64 1.954144 1_555
Al5 O63 2.011646 1_555
Al5 O29 2.017551 1_555
Al5 O65 2.026381 1_555
O0 P0 1.548304 1_555
O1 P1 1.532725 1_555
O2 P2 1.548494 1_555
O3 P3 1.532725 1_555
O4 P4 1.548304 1_555
O5 P5 1.548494 1_555
O6 P5 1.548077 1_565
O6 Zr0 2.034150 1_665
O7 P3 1.537987 1_555
O7 Zr0 2.007409 1_555
O8 P4 1.541797 1_455
O8 Zr0 2.090018 1_565
O9 P1 1.537987 1_555
O9 Zr1 2.007409 1_555
O10 P2 1.548077 1_455
O10 Zr1 2.034150 1_445
O11 P0 1.541797 1_565
O11 Zr1 2.090018 1_455
O12 P6 1.548304 1_555
O13 P7 1.532725 1_555
O14 P8 1.548494 1_555
O15 P9 1.532725 1_555
O16 P10 1.548304 1_555
O17 P11 1.548494 1_555
O18 P11 1.548077 1_555
O18 Zr2 2.034150 1_554
O19 P9 1.537987 1_555
O19 Zr2 2.007409 1_554
O20 P10 1.541797 1_555
O20 Zr2 2.090018 1_554
O21 P7 1.537987 1_555
O21 Zr3 2.007409 1_555
O22 P8 1.548077 1_555
O22 Zr3 2.034150 1_555
O23 P6 1.541797 1_555
O23 Zr3 2.090018 1_555
O24 P12 1.548304 1_555
O25 P13 1.532725 1_555
O26 P14 1.548494 1_555
O27 P15 1.532725 1_555
O28 P16 1.548304 1_555
O29 P17 1.548494 1_555
O30 P17 1.548077 1_555
O30 Zr4 2.034150 1_555
O31 P15 1.537987 1_555
O31 Zr4 2.007409 1_555
O32 P16 1.541797 1_555
O32 Zr4 2.090018 1_555
O33 P13 1.537987 1_555
O33 Zr5 2.007409 1_555
O34 P14 1.548077 1_555
O34 Zr5 2.034150 1_555
O35 P12 1.541797 1_555
O35 Zr5 2.090018 1_555
O36 P17 1.535886 1_555
O37 P15 1.553057 1_555
O38 P16 1.556294 1_555
O39 P13 1.553057 1_555
O40 P14 1.535886 1_555
O41 P12 1.556294 1_555
O42 P6 1.542090 1_555
O42 Zr0 2.066339 1_655
O43 P7 1.564232 1_555
O43 Zr0 2.104914 1_555
O44 P8 1.560753 1_555
O44 Zr0 2.116710 1_665
O45 P9 1.564231 1_555
O45 Zr1 2.104914 1_555
O46 P10 1.542090 1_555
O46 Zr1 2.066339 1_545
O47 P11 1.560753 1_555
O47 Zr1 2.116710 1_445
O48 P5 1.535886 1_555
O49 P3 1.553057 1_555
O50 P4 1.556294 1_555
O51 P1 1.553057 1_555
O52 P2 1.535886 1_555
O53 P0 1.556294 1_555
O54 P12 1.542102 1_555
O54 Zr2 2.066339 1_555
O55 P13 1.564218 1_655
O55 Zr2 2.104914 1_555
O56 P14 1.560750 1_545
O56 Zr2 2.116710 1_555
O57 P15 1.564218 1_545
O57 Zr3 2.104914 1_555
O58 P16 1.542102 1_555
O58 Zr3 2.066339 1_555
O59 P17 1.560750 1_655
O59 Zr3 2.116710 1_555
O60 P11 1.535896 1_555
O61 P9 1.553042 1_455
O62 P10 1.556291 1_565
O63 P7 1.553042 1_565
O64 P8 1.535896 1_555
O65 P6 1.556291 1_455
O66 P0 1.542090 1_565
O66 Zr4 2.066339 1_555
O67 P1 1.564232 1_555
O67 Zr4 2.104914 1_555
O68 P2 1.560753 1_455
O68 Zr4 2.116710 1_555
O69 P3 1.564231 1_555
O69 Zr5 2.104914 1_555
O70 P4 1.542090 1_455
O70 Zr5 2.066339 1_555
O71 P5 1.560753 1_565
O71 Zr5 2.116710 1_555
