# generated using pymatgen
data_CsMgAl(MoO4)2
_symmetry_space_group_name_H-M   'P 1'
_cell_length_a   5.73597120
_cell_length_b   5.73597164
_cell_length_c   10.31033206
_cell_angle_alpha   90.00000000
_cell_angle_beta   90.00000000
_cell_angle_gamma   120.00000344
_symmetry_Int_Tables_number   1
_chemical_formula_structural   CsMgAl(MoO4)2
_chemical_formula_sum   'Cs1 Mg1 Al1 Mo2 O8'
_cell_volume   293.77661803
_cell_formula_units_Z   1
loop_
 _symmetry_equiv_pos_site_id
 _symmetry_equiv_pos_as_xyz
  1  'x, y, z'
loop_
 _atom_site_type_symbol
 _atom_site_label
 _atom_site_symmetry_multiplicity
 _atom_site_fract_x
 _atom_site_fract_y
 _atom_site_fract_z
 _atom_site_occupancy
  Cs  Cs0  1  0.00000000  -0.00000000  0.10754163  1
  Mg  Mg0  1  0.00000000  -0.00000000  0.73468673  1
  Al  Al0  1  0.00000000  -0.00000000  0.48762379  1
  Mo  Mo0  1  0.33333300  0.66666700  0.65747365  1
  Mo  Mo1  1  0.66666700  0.33333300  0.32920346  1
  O  O0  1  0.33333300  0.66666700  0.83644984  1
  O  O1  1  0.66666700  0.33333300  0.15762033  1
  O  O2  1  0.14717593  0.29435186  0.60513571  1
  O  O3  1  0.70564814  0.85282407  0.60513571  1
  O  O4  1  0.14717593  0.85282407  0.60513571  1
  O  O5  1  0.84184615  0.68369230  0.37726849  1
  O  O6  1  0.84184615  0.15815385  0.37726849  1
  O  O7  1  0.31630770  0.15815385  0.37726849  1
loop_
_geom_bond_atom_site_label_1
_geom_bond_atom_site_label_2
_geom_bond_distance
_geom_bond_site_symmetry_2
Cs0 O7 3.194161 1_555
Cs0 O5 3.194161 1_445
Cs0 O6 3.194161 1_455
Cs0 O1 3.351671 1_455
Cs0 O1 3.351675 1_555
Cs0 O1 3.351675 1_445
Cs0 Mg0 3.844258 1_554
Mg0 O3 1.980439 1_445
Mg0 O2 1.980439 1_555
Mg0 O4 1.980439 1_545
Al0 O3 1.898933 1_445
Al0 O2 1.898933 1_555
Al0 O4 1.898933 1_545
Al0 O7 1.939958 1_555
Al0 O5 1.939958 1_445
Al0 O6 1.939958 1_455
Mo0 O0 1.845304 1_555
Mo0 O4 1.926585 1_555
Mo0 O3 1.926589 1_555
Mo0 O2 1.926589 1_555
Mo1 O1 1.769079 1_555
Mo1 O6 1.809583 1_555
Mo1 O7 1.809588 1_555
Mo1 O5 1.809588 1_555
