# generated using pymatgen
data_MgV2NiO6
_symmetry_space_group_name_H-M   'P 1'
_cell_length_a   5.44422370
_cell_length_b   5.42740477
_cell_length_c   5.45330102
_cell_angle_alpha   54.92008456
_cell_angle_beta   55.84448928
_cell_angle_gamma   55.62286859
_symmetry_Int_Tables_number   1
_chemical_formula_structural   MgV2NiO6
_chemical_formula_sum   'Mg1 V2 Ni1 O6'
_cell_volume   101.91667898
_cell_formula_units_Z   1
loop_
 _symmetry_equiv_pos_site_id
 _symmetry_equiv_pos_as_xyz
  1  'x, y, z'
loop_
 _atom_site_type_symbol
 _atom_site_label
 _atom_site_symmetry_multiplicity
 _atom_site_fract_x
 _atom_site_fract_y
 _atom_site_fract_z
 _atom_site_occupancy
  Mg  Mg0  1  0.20079900  0.20722100  0.21030600  1
  V  V0  1  0.99572000  0.99227100  0.00369500  1
  V  V1  1  0.49748100  0.48917400  0.49894400  1
  Ni  Ni0  1  0.69954900  0.69441400  0.70423500  1
  O  O0  1  0.12219600  0.77832300  0.37953500  1
  O  O1  1  0.38853200  0.12980500  0.76890100  1
  O  O2  1  0.77849300  0.38576300  0.12505700  1
  O  O3  1  0.27351600  0.62828200  0.88510700  1
  O  O4  1  0.62065900  0.87887400  0.27940900  1
  O  O5  1  0.88635700  0.26667200  0.63290900  1
loop_
_geom_bond_atom_site_label_1
_geom_bond_atom_site_label_2
_geom_bond_distance
_geom_bond_site_symmetry_2
Mg0 O3 2.024634 1_554
Mg0 O4 2.034199 1_545
Mg0 O5 2.036357 1_455
Mg0 O2 2.146526 1_455
Mg0 O0 2.160017 1_545
Mg0 O1 2.220449 1_554
Ni0 O2 2.032985 1_556
Ni0 O0 2.078158 1_655
Ni0 O1 2.084297 1_565
Ni0 O3 2.108489 1_555
Ni0 O5 2.121929 1_555
Ni0 O4 2.125944 1_555
O0 V1 1.938988 1_555
O0 V0 1.992333 1_455
O1 V1 1.829970 1_555
O1 V0 2.097491 1_446
O2 V1 1.912022 1_555
O2 V0 2.071513 1_545
O3 V0 1.898536 1_456
O3 V1 2.096687 1_555
O4 V0 1.927951 1_555
O4 V1 2.036215 1_555
O5 V0 1.884176 1_546
O5 V1 2.075994 1_555
