# generated using pymatgen
data_K3NaMgCr2O8
_symmetry_space_group_name_H-M   'P 1'
_cell_length_a   6.05065711
_cell_length_b   6.05065662
_cell_length_c   7.70127928
_cell_angle_alpha   88.76603326
_cell_angle_beta   91.23396669
_cell_angle_gamma   113.67298096
_symmetry_Int_Tables_number   1
_chemical_formula_structural   K3NaMgCr2O8
_chemical_formula_sum   'K3 Na1 Mg1 Cr2 O8'
_cell_volume   258.13653910
_cell_formula_units_Z   1
loop_
 _symmetry_equiv_pos_site_id
 _symmetry_equiv_pos_as_xyz
  1  'x, y, z'
loop_
 _atom_site_type_symbol
 _atom_site_label
 _atom_site_symmetry_multiplicity
 _atom_site_fract_x
 _atom_site_fract_y
 _atom_site_fract_z
 _atom_site_occupancy
  K  K0  1  0.87282371  0.87282371  0.50000000  1
  K  K1  1  0.71794284  0.35606083  0.16542636  1
  K  K2  1  0.35606083  0.71794284  0.83457364  1
  Na  Na0  1  -0.00303198  -0.00303198  0.00000000  1
  Mg  Mg0  1  0.35724989  0.35724989  0.50000000  1
  Cr  Cr0  1  0.68336004  0.33817984  0.73290623  1
  Cr  Cr1  1  0.33817984  0.68336004  0.26709377  1
  O  O0  1  0.35959024  0.23571045  0.74426085  1
  O  O1  1  0.77412606  0.12277622  0.80325108  1
  O  O2  1  0.82044621  0.61141785  0.82567393  1
  O  O3  1  0.12277622  0.77412606  0.19674892  1
  O  O4  1  0.61141785  0.82044621  0.17432607  1
  O  O5  1  0.23571045  0.35959024  0.25573915  1
  O  O6  1  0.37872551  0.69493430  0.49579584  1
  O  O7  1  0.69493430  0.37872551  0.50420416  1
loop_
_geom_bond_atom_site_label_1
_geom_bond_atom_site_label_2
_geom_bond_distance
_geom_bond_site_symmetry_2
K0 O7 2.740561 1_555
K0 O6 2.740561 1_555
K0 O2 2.890256 1_555
K0 O4 2.890256 1_555
K0 O1 3.005923 1_565
K0 O3 3.005923 1_655
K1 O7 2.625180 1_555
K1 O3 2.735340 1_655
K1 O2 2.957092 1_554
K1 O5 3.022579 1_555
K1 O4 3.039403 1_545
K1 O4 3.127277 1_555
K1 O5 3.186209 1_655
K1 O1 3.237810 1_554
K2 O6 2.625180 1_555
K2 O1 2.735340 1_565
K2 O4 2.957092 1_556
K2 O0 3.022579 1_555
K2 O2 3.039403 1_455
K2 O2 3.127277 1_555
K2 O0 3.186209 1_565
K2 O3 3.237810 1_556
Na0 O3 2.319465 1_545
Na0 O1 2.319465 1_454
Na0 O2 2.541171 1_444
Na0 O4 2.541171 1_445
Na0 O5 2.880659 1_555
Na0 O0 2.880659 1_554
Mg0 O6 1.994186 1_555
Mg0 O7 1.994186 1_555
Mg0 O0 2.006802 1_555
Mg0 O5 2.006802 1_555
Cr0 O1 1.680878 1_555
Cr0 O2 1.689926 1_555
Cr0 O7 1.772052 1_555
Cr0 O0 1.805406 1_555
Cr1 O3 1.680878 1_555
Cr1 O4 1.689926 1_555
Cr1 O6 1.772052 1_555
Cr1 O5 1.805406 1_555
