# generated using pymatgen
data_Ba2SmMgNbO6
_symmetry_space_group_name_H-M   'P 1'
_cell_length_a   6.80331553
_cell_length_b   6.80331564
_cell_length_c   6.80111498
_cell_angle_alpha   52.65197795
_cell_angle_beta   52.65197751
_cell_angle_gamma   52.68465348
_symmetry_Int_Tables_number   1
_chemical_formula_structural   Ba2SmMgNbO6
_chemical_formula_sum   'Ba2 Sm1 Mg1 Nb1 O6'
_cell_volume   184.26941119
_cell_formula_units_Z   1
loop_
 _symmetry_equiv_pos_site_id
 _symmetry_equiv_pos_as_xyz
  1  'x, y, z'
loop_
 _atom_site_type_symbol
 _atom_site_label
 _atom_site_symmetry_multiplicity
 _atom_site_fract_x
 _atom_site_fract_y
 _atom_site_fract_z
 _atom_site_occupancy
  Ba  Ba0  1  0.72847849  0.72847849  0.72952588  1
  Ba  Ba1  1  0.19213234  0.19213234  0.19417904  1
  Sm  Sm0  1  0.52504793  0.52504793  0.52626855  1
  Mg  Mg0  1  0.36496756  0.36496756  0.36603464  1
  Nb  Nb0  1  -0.00019545  -0.00019545  0.00063390  1
  O  O0  1  0.25892825  0.77676936  0.77707230  1
  O  O1  1  0.25130100  0.74974366  0.25225684  1
  O  O2  1  0.77676936  0.25892825  0.77707230  1
  O  O3  1  0.25129128  0.25129128  0.75101835  1
  O  O4  1  0.74974366  0.25130100  0.25225684  1
  O  O5  1  0.77653558  0.77653558  0.25909835  1
loop_
_geom_bond_atom_site_label_1
_geom_bond_atom_site_label_2
_geom_bond_distance
_geom_bond_site_symmetry_2
Ba0 O0 2.832038 1_555
Ba0 O2 2.832038 1_555
Ba0 O5 2.835735 1_555
Ba0 O1 3.041448 1_556
Ba0 O4 3.041448 1_556
Ba0 O1 3.042137 1_655
Ba0 O4 3.042137 1_565
Ba0 O3 3.044224 1_655
Ba0 O3 3.044224 1_565
Ba1 O4 2.580321 1_455
Ba1 O1 2.580321 1_545
Ba1 O3 2.580862 1_554
Mg0 O3 1.965501 1_555
Mg0 O4 1.965557 1_555
Mg0 O1 1.965557 1_555
Nb0 O5 2.005628 1_445
Nb0 O2 2.006484 1_454
Nb0 O0 2.006484 1_544
Nb0 O3 2.288546 1_554
Nb0 O1 2.289443 1_545
Nb0 O4 2.289443 1_455
O0 Sm0 2.271214 1_555
O1 Sm0 2.565374 1_555
O2 Sm0 2.271214 1_555
O3 Sm0 2.563435 1_555
O4 Sm0 2.565374 1_555
O5 Sm0 2.271876 1_555
