# generated using pymatgen
data_Na5MgZr3SiP5O24
_symmetry_space_group_name_H-M   'P 1'
_cell_length_a   9.07429163
_cell_length_b   9.04517621
_cell_length_c   22.83513781
_cell_angle_alpha   89.99752759
_cell_angle_beta   90.15277855
_cell_angle_gamma   119.88606930
_symmetry_Int_Tables_number   1
_chemical_formula_structural   Na5MgZr3SiP5O24
_chemical_formula_sum   'Na15 Mg3 Zr9 Si3 P15 O72'
_cell_volume   1625.02278862
_cell_formula_units_Z   3
loop_
 _symmetry_equiv_pos_site_id
 _symmetry_equiv_pos_as_xyz
  1  'x, y, z'
loop_
 _atom_site_type_symbol
 _atom_site_label
 _atom_site_symmetry_multiplicity
 _atom_site_fract_x
 _atom_site_fract_y
 _atom_site_fract_z
 _atom_site_occupancy
  Na  Na0  1  0.64218499  0.01271389  0.24349669  1
  Na  Na1  1  0.37167776  0.35895375  0.24339316  1
  Na  Na2  1  0.98801148  0.63010904  0.24391642  1
  Na  Na3  1  0.63601379  0.62635594  0.74634465  1
  Na  Na4  1  0.99019602  0.36368720  0.74680134  1
  Na  Na5  1  0.37794842  0.01286207  0.74290136  1
  Na  Na6  1  0.66254934  0.97468571  0.58461855  1
  Na  Na7  1  0.33253441  0.30511139  0.92259370  1
  Na  Na8  1  0.32571047  0.03150808  0.41346647  1
  Na  Na9  1  -0.00001949  0.00042166  0.49182083  1
  Na  Na10  1  0.98496915  0.98974290  0.00262207  1
  Na  Na11  1  0.67844836  0.33676823  0.83780634  1
  Na  Na12  1  0.67825827  0.34385622  0.33032385  1
  Na  Na13  1  0.33341719  0.66765505  0.15970399  1
  Na  Na14  1  0.32348259  0.66183125  0.66144877  1
  Mg  Mg0  1  0.99226263  0.99888348  0.35167303  1
  Mg  Mg1  1  0.66549430  0.33245457  0.68028284  1
  Mg  Mg2  1  0.66802729  0.33459011  0.18001775  1
  Zr  Zr0  1  0.99138710  0.99392421  0.85633636  1
  Zr  Zr1  1  0.01040493  0.00121203  0.64295072  1
  Zr  Zr2  1  0.00000615  0.00132103  0.14552793  1
  Zr  Zr3  1  0.67675753  0.33709310  0.98344174  1
  Zr  Zr4  1  0.66728349  0.33790289  0.48182303  1
  Zr  Zr5  1  0.33524152  0.66482973  0.02072140  1
  Zr  Zr6  1  0.32800873  0.66176554  0.51870500  1
  Zr  Zr7  1  0.33331854  0.66416698  0.31583092  1
  Zr  Zr8  1  0.33208504  0.66547630  0.81861094  1
  Si  Si0  1  0.37737493  0.04155934  0.58483263  1
  Si  Si1  1  0.62699534  0.66401560  0.91748463  1
  Si  Si2  1  0.03675493  0.37374302  0.91614986  1
  P  P0  1  0.29328222  0.00297903  0.25311774  1
  P  P1  1  0.71150003  0.70797231  0.25180580  1
  P  P2  1  0.99668727  0.28937138  0.25198093  1
  P  P3  1  0.29571929  0.29424364  0.75047990  1
  P  P4  1  0.99847986  0.70438361  0.74903295  1
  P  P5  1  0.70661866  0.00251261  0.74813140  1
  P  P6  1  0.95762160  0.33607093  0.58672701  1
  P  P7  1  0.66461796  0.62439994  0.58671937  1
  P  P8  1  0.96098907  0.62618244  0.08747848  1
  P  P9  1  0.66458312  0.04031306  0.08755100  1
  P  P10  1  0.37518202  0.33302593  0.08573604  1
  P  P11  1  0.33483019  0.96080644  0.91698773  1
  P  P12  1  0.63295925  0.96141070  0.41737939  1
  P  P13  1  0.32978269  0.36638080  0.41571050  1
  P  P14  1  0.03752090  0.66930232  0.41518130  1
  O  O0  1  0.21443769  0.02818467  0.30852108  1
  O  O1  1  0.82260325  0.79037481  0.30504021  1
  O  O2  1  0.96997954  0.17832536  0.30496120  1
  O  O3  1  0.21153157  0.18632225  0.80562521  1
  O  O4  1  0.97632692  0.79357476  0.80313928  1
  O  O5  1  0.82150449  0.02150134  0.80146469  1
  O  O6  1  0.78688597  0.97172824  0.69297011  1
  O  O7  1  0.17619469  0.20346874  0.69738392  1
  O  O8  1  0.02655597  0.82124595  0.69538277  1
  O  O9  1  0.79138608  0.82431024  0.19697268  1
  O  O10  1  0.03177401  0.20908573  0.19683511  1
  O  O11  1  0.17357330  0.96958743  0.19947550  1
  O  O12  1  0.88522947  0.36277696  0.64322200  1
  O  O13  1  0.48958865  0.11745373  0.64325173  1
  O  O14  1  0.64297737  0.52639905  0.64302522  1
  O  O15  1  0.88269129  0.52610547  0.14326793  1
  O  O16  1  0.64586938  0.11995587  0.14370563  1
  O  O17  1  0.47731934  0.35297057  0.14103408  1
  O  O18  1  0.45788811  0.31124098  0.02915736  1
  O  O19  1  0.84840722  0.53690312  0.03264529  1
  O  O20  1  0.68657281  0.15176438  0.03290844  1
  O  O21  1  0.46813234  0.15562807  0.52585479  1
  O  O22  1  0.69122533  0.53818104  0.53234946  1
  O  O23  1  0.84157434  0.30869204  0.53300118  1
  O  O24  1  0.53150567  0.69310083  0.97198133  1
  O  O25  1  0.16571439  0.46920531  0.97006873  1
  O  O26  1  0.30775322  0.84639297  0.96936291  1
  O  O27  1  0.53860494  0.85225792  0.47217574  1
  O  O28  1  0.31497185  0.46342548  0.46901773  1
  O  O29  1  0.15538890  0.68896560  0.46816804  1
  O  O30  1  0.12378425  0.64358654  0.35965227  1
  O  O31  1  0.51316862  0.87272271  0.36304639  1
  O  O32  1  0.35393661  0.47641335  0.35992428  1
  O  O33  1  0.12060446  0.48352303  0.85517052  1
  O  O34  1  0.35886091  0.88083153  0.85947157  1
  O  O35  1  0.51372467  0.63686242  0.85686748  1
  O  O36  1  0.03074498  0.83376873  0.41139824  1
  O  O37  1  0.80645941  0.97898076  0.41211287  1
  O  O38  1  0.17627228  0.18784894  0.41205279  1
  O  O39  1  0.03317422  0.19106533  0.90983151  1
  O  O40  1  0.17775426  0.98439915  0.90990224  1
  O  O41  1  0.81600372  0.82932338  0.91141380  1
  O  O42  1  0.96590642  0.16720104  0.58960846  1
  O  O43  1  0.18635459  0.02000539  0.58738345  1
  O  O44  1  0.82054236  0.81024310  0.58927891  1
  O  O45  1  0.97788996  0.80688824  0.08983547  1
  O  O46  1  0.82700103  0.02106045  0.08968218  1
  O  O47  1  0.19366624  0.17096877  0.08943659  1
  O  O48  1  0.69087346  0.16356988  0.74603414  1
  O  O49  1  0.47367900  0.31605459  0.74450897  1
  O  O50  1  0.84122280  0.52685007  0.74407717  1
  O  O51  1  0.68313759  0.52601069  0.24384972  1
  O  O52  1  0.84346867  0.31772702  0.24448523  1
  O  O53  1  0.47314342  0.15743814  0.24489503  1
  O  O54  1  0.63056326  0.48642374  0.92270687  1
  O  O55  1  0.84825244  0.34832245  0.92211456  1
  O  O56  1  0.49064306  0.14110418  0.92272857  1
  O  O57  1  0.63728252  0.13643227  0.42174534  1
  O  O58  1  0.49494048  0.35291838  0.42055051  1
  O  O59  1  0.86214909  0.50749266  0.42164787  1
  O  O60  1  0.35257356  0.49240050  0.07981084  1
  O  O61  1  0.14021168  0.64876983  0.07896194  1
  O  O62  1  0.50598821  0.86116094  0.07986375  1
  O  O63  1  0.35944336  0.85125252  0.57601522  1
  O  O64  1  0.50761556  0.64913315  0.57786708  1
  O  O65  1  0.13898408  0.48796255  0.57708738  1
  O  O66  1  0.31016634  0.83642953  0.25645020  1
  O  O67  1  0.52895800  0.69194573  0.25698014  1
  O  O68  1  0.16324905  0.47209496  0.25653660  1
  O  O69  1  0.30853563  0.47390694  0.75307763  1
  O  O70  1  0.16455051  0.69252423  0.75282787  1
  O  O71  1  0.52652478  0.84006486  0.75413954  1
loop_
_geom_bond_atom_site_label_1
_geom_bond_atom_site_label_2
_geom_bond_distance
_geom_bond_site_symmetry_2
Na0 O52 2.434370 1_555
Na0 O53 2.463523 1_555
Na0 O16 2.470349 1_555
Na0 O67 2.568936 1_545
Na0 O66 2.631426 1_545
Na0 O9 2.858828 1_545
Na0 O2 2.932421 1_555
Na0 O31 2.994320 1_545
Na1 O53 2.417356 1_555
Na1 O51 2.452578 1_555
Na1 O17 2.539470 1_555
Na1 O68 2.578084 1_555
Na1 O67 2.630395 1_555
Na1 O10 2.880495 1_555
Na1 O32 2.899763 1_555
Na2 O51 2.438079 1_555
Na2 O52 2.451746 1_555
Na2 O15 2.484581 1_555
Na2 O66 2.582506 1_655
Na2 O68 2.629998 1_655
Na2 O11 2.854856 1_655
Na2 O30 2.889706 1_655
Na2 O1 2.912420 1_555
Na3 O49 2.434922 1_555
Na3 O50 2.439473 1_555
Na3 O14 2.538841 1_555
Na3 O71 2.582695 1_555
Na3 O69 2.583515 1_555
Na3 O35 2.780301 1_555
Na3 O4 2.971558 1_555
Na3 O6 2.977474 1_555
Na4 O48 2.398831 1_555
Na4 O50 2.448906 1_555
Na4 O12 2.545956 1_555
Na4 O69 2.546940 1_655
Na4 O70 2.584238 1_655
Na4 O33 2.721283 1_655
Na4 O7 2.944509 1_655
Na4 O5 2.961328 1_555
Na5 O49 2.429531 1_555
Na5 O48 2.463325 1_555
Na5 O13 2.481182 1_555
Na5 O71 2.534677 1_545
Na5 O70 2.570508 1_545
Na6 O63 2.405638 1_555
Na6 O42 2.417492 1_565
Na6 O44 2.530501 1_555
Na6 O64 2.558259 1_555
Na6 O6 2.722254 1_555
Na6 O27 2.797808 1_555
Na6 O13 2.820414 1_565
Na6 O23 2.876561 1_565
Na7 O54 2.362926 1_555
Na7 O39 2.394068 1_555
Na7 O56 2.525897 1_555
Na7 O40 2.531690 1_545
Na7 O18 2.672225 1_556
Na7 O25 2.813855 1_555
Na7 O3 2.881528 1_555
Na8 O36 2.365158 1_545
Na8 O38 2.398009 1_555
Na8 O57 2.500639 1_555
Na8 O58 2.527036 1_555
Na8 O0 2.592341 1_555
Na8 O21 2.837907 1_555
Na8 O31 2.954193 1_545
Na8 O29 2.964226 1_545
Na9 O38 2.462458 1_555
Na9 O37 2.465338 1_445
Na9 O36 2.478938 1_545
Na9 O43 2.708379 1_555
Na9 O44 2.791194 1_445
Na9 O42 2.797569 1_455
Na10 O46 2.550918 1_565
Na10 O41 2.561306 1_554
Na10 O45 2.569123 1_555
Na10 O47 2.662719 1_665
Na10 O39 2.684744 1_664
Na10 O40 2.765783 1_654
Na11 O55 2.432123 1_555
Na11 O54 2.524027 1_555
Na11 O56 2.609346 1_555
Na11 O48 2.652586 1_555
Na11 O50 2.684119 1_555
Na11 O49 2.767420 1_555
Na12 O52 2.552314 1_555
Na12 O51 2.557994 1_555
Na12 O59 2.616199 1_555
Na12 O53 2.639390 1_555
Na12 O58 2.678255 1_555
Na12 O57 2.706490 1_555
Na13 O62 2.474508 1_555
Na13 O60 2.479512 1_555
Na13 O61 2.487303 1_555
Na13 O66 2.753068 1_555
Na13 O68 2.774625 1_555
Na13 O67 2.778758 1_555
Na14 O63 2.508773 1_555
Na14 O65 2.519213 1_555
Na14 O64 2.579932 1_555
Na14 O70 2.631774 1_555
Na14 O69 2.656531 1_555
Na14 O71 2.737359 1_555
Mg0 O2 2.034413 1_565
Mg0 O1 2.039357 1_555
Mg0 O37 2.118925 1_555
Mg0 O0 2.141001 1_665
Mg0 O36 2.174745 1_655
Mg0 O38 2.180446 1_665
Mg1 O13 1.986039 1_555
Mg1 O14 2.049186 1_555
Mg1 O12 2.056992 1_555
Mg1 O50 2.224927 1_555
Mg1 O49 2.226856 1_555
Mg1 O48 2.233706 1_555
Mg2 O17 2.023203 1_555
Mg2 O16 2.026643 1_555
Mg2 O15 2.036007 1_555
Mg2 O51 2.214465 1_555
Mg2 O52 2.225842 1_555
Mg2 O53 2.253793 1_555
O0 P0 1.527041 1_555
O1 P1 1.514721 1_555
O2 P2 1.513318 1_555
O3 P3 1.544048 1_555
O3 Zr0 2.215358 1_445
O4 P4 1.542986 1_555
O4 Zr0 2.128587 1_555
O5 P5 1.553816 1_555
O5 Zr0 2.093210 1_545
O6 P5 1.549750 1_565
O6 Zr1 2.227762 1_665
O7 P3 1.557617 1_555
O7 Zr1 2.098246 1_555
O8 P4 1.554449 1_455
O8 Zr1 2.083615 1_565
O9 P1 1.563703 1_555
O9 Zr2 2.125660 1_665
O10 P2 1.564324 1_455
O10 Zr2 2.108537 1_555
O11 P0 1.561294 1_565
O11 Zr2 2.126202 1_565
O12 P6 1.522118 1_555
O13 Si0 1.607456 1_555
O14 P7 1.518310 1_555
O15 P8 1.520192 1_555
O16 P9 1.521588 1_555
O17 P10 1.520924 1_555
O18 P10 1.556876 1_555
O18 Zr3 2.153417 1_554
O19 P8 1.560362 1_555
O19 Zr3 2.034794 1_554
O20 P9 1.553629 1_555
O20 Zr3 2.059626 1_554
O21 Si0 1.647902 1_555
O21 Zr4 2.008822 1_555
O22 P7 1.548303 1_555
O22 Zr4 2.065612 1_555
O23 P6 1.551972 1_555
O23 Zr4 2.084102 1_555
O24 Si1 1.612954 1_555
O24 Zr5 2.008142 1_556
O25 Si2 1.617527 1_555
O25 Zr5 2.028145 1_556
O26 P11 1.519813 1_555
O26 Zr5 2.131006 1_556
O27 P12 1.561008 1_555
O27 Zr6 2.116366 1_555
O28 P13 1.545596 1_555
O28 Zr6 2.075528 1_555
O29 P14 1.563059 1_555
O29 Zr6 2.054336 1_555
O30 P14 1.568908 1_555
O30 Zr7 2.075721 1_555
O31 P12 1.577454 1_555
O31 Zr7 2.075391 1_555
O32 P13 1.563766 1_555
O32 Zr7 2.061164 1_555
O33 Si2 1.660276 1_555
O33 Zr8 1.987279 1_555
O34 P11 1.566729 1_555
O34 Zr8 2.061877 1_555
O35 Si1 1.665436 1_555
O35 Zr8 1.991058 1_555
O36 P14 1.521642 1_555
O37 P12 1.506681 1_555
O38 P13 1.520797 1_555
O39 Si2 1.642751 1_555
O39 Zr0 2.034606 1_445
O40 P11 1.550883 1_555
O40 Zr0 2.120790 1_455
O41 Si1 1.625472 1_555
O41 Zr0 1.995116 1_555
O42 P6 1.567645 1_555
O42 Zr1 2.121874 1_655
O43 Si0 1.646133 1_555
O43 Zr1 1.982037 1_555
O44 P7 1.568569 1_555
O44 Zr1 2.115962 1_665
O45 P8 1.564676 1_555
O45 Zr2 2.097061 1_665
O46 P9 1.568519 1_555
O46 Zr2 2.095555 1_655
O47 P10 1.569547 1_555
O47 Zr2 2.099518 1_555
O48 P5 1.533731 1_555
O49 P3 1.532633 1_555
O50 P4 1.530797 1_555
O51 P1 1.544600 1_555
O52 P2 1.543455 1_555
O53 P0 1.542788 1_555
O54 Si1 1.627089 1_555
O54 Zr3 2.117689 1_555
O55 Si2 1.614500 1_655
O55 Zr3 2.060900 1_555
O56 P11 1.541762 1_545
O56 Zr3 2.218355 1_555
O57 P12 1.567095 1_545
O57 Zr4 2.186530 1_555
O58 P13 1.566556 1_555
O58 Zr4 2.149850 1_555
O59 P14 1.541598 1_655
O59 Zr4 2.162790 1_555
O60 P10 1.559835 1_555
O60 Zr5 2.126274 1_555
O61 P8 1.547590 1_455
O61 Zr5 2.162914 1_555
O62 P9 1.549992 1_565
O62 Zr5 2.150636 1_555
O63 Si0 1.658560 1_565
O63 Zr6 2.059762 1_555
O64 P7 1.561002 1_555
O64 Zr6 2.160620 1_555
O65 P6 1.546967 1_455
O65 Zr6 2.125013 1_555
O66 P0 1.590175 1_565
O66 Zr7 2.152933 1_555
O67 P1 1.593899 1_555
O67 Zr7 2.142178 1_555
O68 P2 1.592679 1_455
O68 Zr7 2.133168 1_555
O69 P3 1.571488 1_555
O69 Zr8 2.217453 1_555
O70 P4 1.565370 1_455
O70 Zr8 2.232931 1_555
O71 P5 1.567396 1_565
O71 Zr8 2.238591 1_555
