# generated using pymatgen
data_Sr2MgCu(IO)2
_symmetry_space_group_name_H-M   'P 1'
_cell_length_a   4.06166340
_cell_length_b   4.06174598
_cell_length_c   13.70426534
_cell_angle_alpha   98.51250288
_cell_angle_beta   98.52204316
_cell_angle_gamma   90.00000552
_symmetry_Int_Tables_number   1
_chemical_formula_structural   Sr2MgCu(IO)2
_chemical_formula_sum   'Sr2 Mg1 Cu1 I2 O2'
_cell_volume   221.07036612
_cell_formula_units_Z   1
loop_
 _symmetry_equiv_pos_site_id
 _symmetry_equiv_pos_as_xyz
  1  'x, y, z'
loop_
 _atom_site_type_symbol
 _atom_site_label
 _atom_site_symmetry_multiplicity
 _atom_site_fract_x
 _atom_site_fract_y
 _atom_site_fract_z
 _atom_site_occupancy
  Sr  Sr0  1  0.43976700  0.43979800  0.87953600  1
  Sr  Sr1  1  0.56023100  0.56020400  0.12046200  1
  Mg  Mg0  1  0.75000000  0.25000500  0.50000000  1
  Cu  Cu0  1  0.00000000  0.00001400  0.99999900  1
  I  I0  1  0.13211500  0.13231000  0.26422900  1
  I  I1  1  0.86788800  0.86767700  0.73577500  1
  O  O0  1  0.49992700  0.99993200  0.99985400  1
  O  O1  1  0.00007200  0.50006100  0.00014400  1
loop_
_geom_bond_atom_site_label_1
_geom_bond_atom_site_label_2
_geom_bond_distance
_geom_bond_site_symmetry_2
Cu0 O1 2.030771 1_556
Cu0 O0 2.030831 1_545
Cu0 O0 2.030835 1_445
Cu0 O1 2.030977 1_546
I0 Sr1 3.457626 1_555
I0 Sr1 3.457628 1_455
I0 Sr1 3.459075 1_545
I0 Sr1 3.459077 1_445
I1 Sr0 3.457536 1_655
I1 Sr0 3.457543 1_555
I1 Sr0 3.459070 1_665
I1 Sr0 3.459078 1_565
O0 Sr0 2.592919 1_565
O0 Sr0 2.593193 1_555
O0 Sr1 2.595359 1_556
O0 Sr1 2.595589 1_566
O1 Sr1 2.593023 1_555
O1 Sr1 2.593024 1_455
O1 Sr0 2.595439 1_554
O1 Sr0 2.595445 1_454
