# generated using pymatgen
data_Na3GaSi2SnSO12
_symmetry_space_group_name_H-M   'P 1'
_cell_length_a   8.95886669
_cell_length_b   8.95886639
_cell_length_c   22.35445118
_cell_angle_alpha   90.57866012
_cell_angle_beta   89.42133989
_cell_angle_gamma   120.13787089
_symmetry_Int_Tables_number   1
_chemical_formula_structural   Na3GaSi2SnSO12
_chemical_formula_sum   'Na18 Ga6 Si12 Sn6 S6 O72'
_cell_volume   1551.55170071
_cell_formula_units_Z   6
loop_
 _symmetry_equiv_pos_site_id
 _symmetry_equiv_pos_as_xyz
  1  'x, y, z'
loop_
 _atom_site_type_symbol
 _atom_site_label
 _atom_site_symmetry_multiplicity
 _atom_site_fract_x
 _atom_site_fract_y
 _atom_site_fract_z
 _atom_site_occupancy
  Na  Na0  1  0.62858756  0.99929204  0.24640128  1
  Na  Na1  1  0.99767933  0.64182287  0.24663446  1
  Na  Na2  1  0.00070796  0.37141244  0.74640128  1
  Na  Na3  1  0.35817713  0.00232067  0.74663446  1
  Na  Na4  1  0.29525456  0.33262504  0.57973428  1
  Na  Na5  1  0.66434633  0.97515587  0.57996746  1
  Na  Na6  1  0.66737496  0.70474544  0.07973428  1
  Na  Na7  1  0.02484413  0.33565367  0.07996746  1
  Na  Na8  1  0.96192056  0.66595904  0.91306828  1
  Na  Na9  1  0.33101233  0.30848987  0.91330146  1
  Na  Na10  1  0.33404096  0.03807944  0.41306828  1
  Na  Na11  1  0.69151013  0.66898767  0.41330146  1
  Na  Na12  1  0.00483465  0.01533243  0.49703840  1
  Na  Na13  1  0.98466757  0.99516535  0.99703840  1
  Na  Na14  1  0.67150165  0.34866543  0.83037140  1
  Na  Na15  1  0.65133457  0.32849835  0.33037140  1
  Na  Na16  1  0.33816765  0.68199943  0.16370540  1
  Na  Na17  1  0.31800057  0.66183235  0.66370540  1
  Ga  Ga0  1  0.00294791  0.00756146  0.35148912  1
  Ga  Ga1  1  0.99243854  0.99705209  0.85148912  1
  Ga  Ga2  1  0.66961491  0.34089446  0.68482212  1
  Ga  Ga3  1  0.65910554  0.33038509  0.18482212  1
  Ga  Ga4  1  0.33628091  0.67422846  0.01815612  1
  Ga  Ga5  1  0.32577154  0.66371909  0.51815612  1
  Si  Si0  1  0.29410675  0.00698322  0.25267234  1
  Si  Si1  1  0.70799361  0.70069834  0.25170658  1
  Si  Si2  1  0.29930166  0.29200639  0.75170658  1
  Si  Si3  1  0.99301678  0.70589325  0.75267234  1
  Si  Si4  1  0.96077375  0.34031622  0.58600534  1
  Si  Si5  1  0.37466061  0.03403134  0.58503958  1
  Si  Si6  1  0.96596866  0.62533939  0.08503958  1
  Si  Si7  1  0.65968378  0.03922625  0.08600534  1
  Si  Si8  1  0.62743975  0.67365022  0.91933934  1
  Si  Si9  1  0.04132661  0.36736534  0.91837358  1
  Si  Si10  1  0.63263466  0.95867339  0.41837358  1
  Si  Si11  1  0.32634978  0.37256025  0.41933934  1
  Sn  Sn0  1  0.01605136  0.00585251  0.64872393  1
  Sn  Sn1  1  0.99414749  0.98394864  0.14872393  1
  Sn  Sn2  1  0.68271836  0.33918551  0.98205693  1
  Sn  Sn3  1  0.66081449  0.31728164  0.48205693  1
  Sn  Sn4  1  0.34938436  0.67251951  0.31539093  1
  Sn  Sn5  1  0.32748049  0.65061564  0.81539093  1
  S  S0  1  0.00204598  0.29211252  0.25092927  1
  S  S1  1  0.70788748  0.99795402  0.75092927  1
  S  S2  1  0.66871298  0.62544552  0.58426227  1
  S  S3  1  0.37455448  0.33128702  0.08426227  1
  S  S4  1  0.33537898  0.95877952  0.91759627  1
  S  S5  1  0.04122048  0.66462102  0.41759627  1
  O  O0  1  0.20285114  0.03004462  0.31233369  1
  O  O1  1  0.83191908  0.79306919  0.30960524  1
  O  O2  1  0.97167405  0.18076323  0.30253747  1
  O  O3  1  0.20693081  0.16808092  0.80960524  1
  O  O4  1  0.96995538  0.79714886  0.81233369  1
  O  O5  1  0.81923677  0.02832595  0.80253747  1
  O  O6  1  0.77845433  0.96447819  0.69451651  1
  O  O7  1  0.17333059  0.22080157  0.69216178  1
  O  O8  1  0.03708327  0.82845317  0.69332626  1
  O  O9  1  0.77919843  0.82666941  0.19216178  1
  O  O10  1  0.03552181  0.22154567  0.19451651  1
  O  O11  1  0.17154683  0.96291673  0.19332626  1
  O  O12  1  0.86951814  0.36337762  0.64566669  1
  O  O13  1  0.49858608  0.12640219  0.64293824  1
  O  O14  1  0.63834105  0.51409623  0.63587047  1
  O  O15  1  0.87359781  0.50141392  0.14293824  1
  O  O16  1  0.63662238  0.13048186  0.14566669  1
  O  O17  1  0.48590377  0.36165895  0.13587047  1
  O  O18  1  0.44512133  0.29781119  0.02784951  1
  O  O19  1  0.83999759  0.55413457  0.02549478  1
  O  O20  1  0.70375027  0.16178617  0.02665926  1
  O  O21  1  0.44586543  0.16000241  0.52549478  1
  O  O22  1  0.70218881  0.55487867  0.52784951  1
  O  O23  1  0.83821383  0.29624973  0.52665926  1
  O  O24  1  0.53618414  0.69671162  0.97900069  1
  O  O25  1  0.16525208  0.45973619  0.97627224  1
  O  O26  1  0.30500705  0.84743023  0.96920447  1
  O  O27  1  0.54026381  0.83474792  0.47627224  1
  O  O28  1  0.30328838  0.46381586  0.47900069  1
  O  O29  1  0.15256977  0.69499295  0.46920447  1
  O  O30  1  0.11178733  0.63114519  0.36118351  1
  O  O31  1  0.50666359  0.88746857  0.35882878  1
  O  O32  1  0.37041627  0.49512017  0.35999326  1
  O  O33  1  0.11253143  0.49333641  0.85882878  1
  O  O34  1  0.36885481  0.88821267  0.86118351  1
  O  O35  1  0.50487983  0.62958373  0.85999326  1
  O  O36  1  0.02511372  0.82027832  0.41294234  1
  O  O37  1  0.81794391  0.96693230  0.40908493  1
  O  O38  1  0.16508845  0.17603507  0.41167945  1
  O  O39  1  0.03306770  0.18205609  0.90908493  1
  O  O40  1  0.17972168  0.97488628  0.91294234  1
  O  O41  1  0.82396493  0.83491155  0.91167945  1
  O  O42  1  0.96673550  0.15411430  0.59000561  1
  O  O43  1  0.18505847  0.02287160  0.58632299  1
  O  O44  1  0.82071774  0.80272049  0.58988835  1
  O  O45  1  0.97712840  0.81494153  0.08632299  1
  O  O46  1  0.84588570  0.03326450  0.09000561  1
  O  O47  1  0.19727951  0.17928226  0.08988835  1
  O  O48  1  0.69178072  0.15361132  0.74627534  1
  O  O49  1  0.48461091  0.30026530  0.74241793  1
  O  O50  1  0.83175545  0.50936807  0.74501245  1
  O  O51  1  0.69973470  0.51538909  0.24241793  1
  O  O52  1  0.84638868  0.30821928  0.24627534  1
  O  O53  1  0.49063193  0.16824455  0.24501245  1
  O  O54  1  0.63340250  0.48744730  0.92333861  1
  O  O55  1  0.85172547  0.35620460  0.91965599  1
  O  O56  1  0.48738474  0.13605349  0.92322135  1
  O  O57  1  0.64379540  0.14827453  0.41965599  1
  O  O58  1  0.51255270  0.36659750  0.42333861  1
  O  O59  1  0.86394651  0.51261526  0.42322135  1
  O  O60  1  0.35844672  0.48694532  0.07960934  1
  O  O61  1  0.15127691  0.63359930  0.07575193  1
  O  O62  1  0.49842145  0.84270207  0.07834645  1
  O  O63  1  0.36640070  0.84872309  0.57575193  1
  O  O64  1  0.51305468  0.64155328  0.57960934  1
  O  O65  1  0.15729793  0.50157855  0.57834645  1
  O  O66  1  0.30006850  0.82078130  0.25667261  1
  O  O67  1  0.51839147  0.68953860  0.25298999  1
  O  O68  1  0.15405074  0.46938749  0.25655535  1
  O  O69  1  0.31046140  0.48160853  0.75298999  1
  O  O70  1  0.17921870  0.69993150  0.75667261  1
  O  O71  1  0.53061251  0.84594926  0.75655535  1
loop_
_geom_bond_atom_site_label_1
_geom_bond_atom_site_label_2
_geom_bond_distance
_geom_bond_site_symmetry_2
Na0 O53 2.387420 1_565
Na0 O67 2.439563 1_555
Na0 O52 2.458537 1_565
Na0 O16 2.534299 1_565
Na0 O66 2.557307 1_555
Na0 O31 2.722089 1_555
Na0 O9 2.776131 1_555
Na0 O2 2.946884 1_565
Na1 O51 2.320268 1_555
Na1 O66 2.367154 1_655
Na1 O68 2.566046 1_655
Na1 O52 2.588731 1_555
Na1 O15 2.603941 1_555
Na1 O11 2.766532 1_655
Na1 O30 2.786990 1_655
Na1 O1 2.821825 1_555
Na2 O50 2.387420 1_455
Na2 O69 2.439563 1_555
Na2 O48 2.458537 1_455
Na2 O12 2.534299 1_455
Na2 O70 2.557307 1_555
Na2 O33 2.722089 1_555
Na2 O7 2.776131 1_555
Na2 O5 2.946884 1_455
Na3 O49 2.320268 1_555
Na3 O70 2.367154 1_545
Na3 O71 2.566046 1_545
Na3 O48 2.588731 1_555
Na3 O13 2.603941 1_555
Na3 O8 2.766532 1_545
Na3 O34 2.786990 1_545
Na3 O3 2.821825 1_555
Na4 O65 2.387435 1_555
Na4 O43 2.439563 1_555
Na4 O64 2.458542 1_555
Na4 O28 2.534285 1_555
Na4 O42 2.557307 1_455
Na4 O7 2.722089 1_555
Na4 O21 2.776131 1_555
Na4 O14 2.946884 1_555
Na5 O63 2.320276 1_555
Na5 O42 2.367154 1_565
Na5 O44 2.566046 1_555
Na5 O64 2.588723 1_555
Na5 O27 2.603920 1_555
Na5 O23 2.766532 1_565
Na5 O6 2.786990 1_555
Na5 O13 2.821825 1_565
Na6 O62 2.387435 1_555
Na6 O45 2.439563 1_555
Na6 O60 2.458542 1_555
Na6 O24 2.534285 1_554
Na6 O46 2.557307 1_565
Na6 O9 2.722089 1_555
Na6 O19 2.776131 1_555
Na6 O17 2.946884 1_555
Na7 O61 2.320276 1_555
Na7 O46 2.367154 1_455
Na7 O47 2.566046 1_555
Na7 O60 2.588723 1_555
Na7 O25 2.603920 1_554
Na7 O20 2.766532 1_455
Na7 O10 2.786990 1_555
Na7 O15 2.821825 1_455
Na8 O41 2.387420 1_555
Na8 O55 2.439571 1_555
Na8 O40 2.458537 1_655
Na8 O4 2.534299 1_555
Na8 O54 2.557298 1_555
Na8 O19 2.722068 1_556
Na8 O33 2.776131 1_655
Na8 O26 2.946884 1_655
Na9 O39 2.320268 1_555
Na9 O54 2.367158 1_555
Na9 O56 2.566059 1_555
Na9 O40 2.588731 1_545
Na9 O3 2.603941 1_555
Na9 O35 2.766532 1_555
Na9 O18 2.786975 1_556
Na9 O25 2.821825 1_555
Na10 O38 2.387420 1_555
Na10 O57 2.439571 1_555
Na10 O36 2.458537 1_545
Na10 O0 2.534299 1_555
Na10 O58 2.557298 1_555
Na10 O21 2.722068 1_555
Na10 O31 2.776131 1_545
Na10 O29 2.946884 1_545
Na11 O37 2.320268 1_555
Na11 O58 2.367158 1_555
Na11 O59 2.566059 1_555
Na11 O36 2.588731 1_655
Na11 O1 2.603941 1_555
Na11 O32 2.766532 1_555
Na11 O22 2.786975 1_555
Na11 O27 2.821825 1_555
Na12 O38 2.387382 1_555
Na12 O37 2.485436 1_445
Na12 O42 2.518142 1_455
Na12 O43 2.558908 1_555
Na12 O36 2.620359 1_545
Na12 O44 2.740950 1_445
Na13 O41 2.387382 1_555
Na13 O39 2.485436 1_665
Na13 O46 2.518142 1_566
Na13 O45 2.558908 1_556
Na13 O40 2.620360 1_655
Na13 O47 2.740950 1_666
Na14 O50 2.387382 1_555
Na14 O49 2.485436 1_555
Na14 O54 2.518142 1_555
Na14 O55 2.558908 1_555
Na14 O48 2.620359 1_555
Na14 O56 2.740950 1_555
Na15 O53 2.387382 1_555
Na15 O51 2.485436 1_555
Na15 O58 2.518142 1_555
Na15 O57 2.558908 1_555
Na15 O52 2.620360 1_555
Na15 O59 2.740950 1_555
Na16 O62 2.387382 1_555
Na16 O61 2.485436 1_555
Na16 O66 2.518142 1_555
Na16 O67 2.558908 1_555
Na16 O60 2.620359 1_555
Na16 O68 2.740950 1_555
Na17 O65 2.387382 1_555
Na17 O63 2.485436 1_555
Na17 O70 2.518142 1_555
Na17 O69 2.558908 1_555
Na17 O64 2.620360 1_555
Na17 O71 2.740950 1_555
Ga0 O0 1.903609 1_555
Ga0 O37 1.974292 1_445
Ga0 O1 1.988207 1_445
Ga0 O38 1.998856 1_555
Ga0 O2 2.039795 1_455
Ga0 O36 2.264605 1_545
Ga1 O4 1.903609 1_555
Ga1 O39 1.974292 1_665
Ga1 O3 1.988207 1_665
Ga1 O41 1.998856 1_555
Ga1 O5 2.039795 1_565
Ga1 O40 2.264605 1_655
Ga2 O12 1.903609 1_555
Ga2 O49 1.974292 1_555
Ga2 O13 1.988207 1_555
Ga2 O50 1.998856 1_555
Ga2 O14 2.039795 1_555
Ga2 O48 2.264605 1_555
Ga3 O16 1.903609 1_555
Ga3 O51 1.974292 1_555
Ga3 O15 1.988207 1_555
Ga3 O53 1.998856 1_555
Ga3 O17 2.039795 1_555
Ga3 O52 2.264605 1_555
Ga4 O24 1.903609 1_554
Ga4 O61 1.974292 1_555
Ga4 O25 1.988207 1_554
Ga4 O62 1.998856 1_555
Ga4 O26 2.039795 1_554
Ga4 O60 2.264605 1_555
Ga5 O28 1.903609 1_555
Ga5 O63 1.974292 1_555
Ga5 O27 1.988207 1_555
Ga5 O65 1.998856 1_555
Ga5 O29 2.039795 1_555
Ga5 O64 2.264605 1_555
O0 Si0 1.622294 1_555
O1 Si1 1.636286 1_555
O2 S0 1.464401 1_655
O3 Si2 1.636286 1_555
O4 Si3 1.622294 1_555
O5 S1 1.464401 1_545
O6 S1 1.498859 1_555
O6 Sn0 2.210790 1_665
O7 Si2 1.656095 1_555
O7 Sn0 1.975295 1_555
O8 Si3 1.644694 1_455
O8 Sn0 1.972817 1_565
O9 Si1 1.656095 1_555
O9 Sn1 1.975296 1_555
O10 S0 1.498859 1_555
O10 Sn1 2.210790 1_445
O11 Si0 1.644694 1_565
O11 Sn1 1.972817 1_455
O12 Si4 1.622294 1_555
O13 Si5 1.636286 1_555
O14 S2 1.464401 1_555
O15 Si6 1.636286 1_555
O16 Si7 1.622294 1_555
O17 S3 1.464401 1_555
O18 S3 1.498859 1_555
O18 Sn2 2.210790 1_554
O19 Si6 1.656095 1_555
O19 Sn2 1.975295 1_554
O20 Si7 1.644694 1_555
O20 Sn2 1.972817 1_554
O21 Si5 1.656095 1_555
O21 Sn3 1.975296 1_555
O22 S2 1.498859 1_555
O22 Sn3 2.210790 1_555
O23 Si4 1.644694 1_555
O23 Sn3 1.972817 1_555
O24 Si8 1.622294 1_555
O25 Si9 1.636286 1_555
O26 S4 1.464401 1_555
O27 Si10 1.636286 1_555
O28 Si11 1.622294 1_555
O29 S5 1.464401 1_555
O30 S5 1.498859 1_555
O30 Sn4 2.210790 1_555
O31 Si10 1.656095 1_555
O31 Sn4 1.975295 1_555
O32 Si11 1.644694 1_555
O32 Sn4 1.972817 1_555
O33 Si9 1.656095 1_555
O33 Sn5 1.975296 1_555
O34 S4 1.498859 1_555
O34 Sn5 2.210790 1_555
O35 Si8 1.644694 1_555
O35 Sn5 1.972817 1_555
O36 S5 1.477027 1_555
O37 Si10 1.635458 1_555
O38 Si11 1.631280 1_555
O39 Si9 1.635458 1_555
O40 S4 1.477027 1_555
O41 Si8 1.631280 1_555
O42 Si4 1.698876 1_555
O42 Sn0 2.078135 1_655
O43 Si5 1.650658 1_555
O43 Sn0 1.997862 1_555
O44 S2 1.490054 1_555
O44 Sn0 2.214556 1_665
O45 Si6 1.650657 1_555
O45 Sn1 1.997862 1_555
O46 Si7 1.698876 1_555
O46 Sn1 2.078135 1_545
O47 S3 1.490054 1_555
O47 Sn1 2.214556 1_445
O48 S1 1.477027 1_545
O49 Si2 1.635458 1_555
O50 Si3 1.631280 1_555
O51 Si1 1.635458 1_555
O52 S0 1.477027 1_655
O53 Si0 1.631280 1_555
O54 Si8 1.698888 1_555
O54 Sn2 2.078135 1_555
O55 Si9 1.650644 1_655
O55 Sn2 1.997862 1_555
O56 S4 1.490050 1_545
O56 Sn2 2.214556 1_555
O57 Si10 1.650644 1_545
O57 Sn3 1.997862 1_555
O58 Si11 1.698888 1_555
O58 Sn3 2.078135 1_555
O59 S5 1.490050 1_655
O59 Sn3 2.214556 1_555
O60 S3 1.477039 1_555
O61 Si6 1.635443 1_455
O62 Si7 1.631275 1_565
O63 Si5 1.635443 1_565
O64 S2 1.477040 1_555
O65 Si4 1.631275 1_455
O66 Si0 1.698876 1_565
O66 Sn4 2.078135 1_555
O67 Si1 1.650658 1_555
O67 Sn4 1.997862 1_555
O68 S0 1.490054 1_555
O68 Sn4 2.214556 1_555
O69 Si2 1.650657 1_555
O69 Sn5 1.997862 1_555
O70 Si3 1.698876 1_455
O70 Sn5 2.078135 1_555
O71 S1 1.490054 1_555
O71 Sn5 2.214556 1_555
