# generated using pymatgen
data_Gd2NCl3
_symmetry_space_group_name_H-M   'P 1'
_cell_length_a   6.15038812
_cell_length_b   6.73566243
_cell_length_c   13.06952346
_cell_angle_alpha   90.00000000
_cell_angle_beta   90.00000000
_cell_angle_gamma   90.00000000
_symmetry_Int_Tables_number   1
_chemical_formula_structural   Gd2NCl3
_chemical_formula_sum   'Gd8 N4 Cl12'
_cell_volume   541.43034055
_cell_formula_units_Z   4
loop_
 _symmetry_equiv_pos_site_id
 _symmetry_equiv_pos_as_xyz
  1  'x, y, z'
loop_
 _atom_site_type_symbol
 _atom_site_label
 _atom_site_symmetry_multiplicity
 _atom_site_fract_x
 _atom_site_fract_y
 _atom_site_fract_z
 _atom_site_occupancy
  Gd  Gd0  1  0.99306192  0.32657784  0.40837565  1
  Gd  Gd1  1  0.49306192  0.17342216  0.09162435  1
  Gd  Gd2  1  0.50693808  0.32657784  0.59162435  1
  Gd  Gd3  1  0.00693808  0.17342216  0.90837565  1
  Gd  Gd4  1  0.00693808  0.67342216  0.59162435  1
  Gd  Gd5  1  0.50693808  0.82657784  0.90837565  1
  Gd  Gd6  1  0.49306192  0.67342216  0.40837565  1
  Gd  Gd7  1  0.99306192  0.82657784  0.09162435  1
  N  N0  1  0.75000000  0.50993558  0.50000000  1
  N  N1  1  0.25000000  0.99006442  0.00000000  1
  N  N2  1  0.25000000  0.49006442  0.50000000  1
  N  N3  1  0.75000000  0.00993558  0.00000000  1
  Cl  Cl0  1  0.11066917  0.13548285  0.22078488  1
  Cl  Cl1  1  0.61066917  0.36451715  0.27921512  1
  Cl  Cl2  1  0.38933083  0.13548285  0.77921512  1
  Cl  Cl3  1  0.88933083  0.36451715  0.72078488  1
  Cl  Cl4  1  0.75000000  0.50171280  0.00000000  1
  Cl  Cl5  1  0.25000000  0.99828720  0.50000000  1
  Cl  Cl6  1  0.25000000  0.49828720  0.00000000  1
  Cl  Cl7  1  0.75000000  0.00171280  0.50000000  1
  Cl  Cl8  1  0.11066917  0.63548285  0.27921512  1
  Cl  Cl9  1  0.61066917  0.86451715  0.22078488  1
  Cl  Cl10  1  0.38933083  0.63548285  0.72078488  1
  Cl  Cl11  1  0.88933083  0.86451715  0.77921512  1
loop_
_geom_bond_atom_site_label_1
_geom_bond_atom_site_label_2
_geom_bond_distance
_geom_bond_site_symmetry_2
Gd0 N2 2.268004 1_655
Gd0 N0 2.279054 1_555
Gd1 N3 2.268004 1_555
Gd1 N1 2.279054 1_545
Gd2 N2 2.268004 1_555
Gd2 N0 2.279054 1_555
Gd3 N3 2.268004 1_456
Gd3 N1 2.279054 1_546
Gd4 N0 2.268004 1_455
Gd4 N2 2.279054 1_555
Gd5 N1 2.268004 1_556
Gd5 N3 2.279054 1_566
Gd6 N0 2.268004 1_555
Gd6 N2 2.279054 1_555
Gd7 N1 2.268004 1_655
Gd7 N3 2.279054 1_565
Cl0 Gd7 2.775248 1_445
Cl0 Gd0 2.861976 1_455
Cl0 Gd1 2.906224 1_555
Cl1 Gd6 2.775248 1_555
Cl1 Gd1 2.861976 1_555
Cl1 Gd0 2.906224 1_555
Cl2 Gd5 2.775248 1_545
Cl2 Gd2 2.861976 1_555
Cl2 Gd3 2.906224 1_555
Cl3 Gd4 2.775248 1_655
Cl3 Gd3 2.861976 1_655
Cl3 Gd2 2.906224 1_555
Cl4 Gd5 2.908077 1_554
Cl4 Gd7 2.908077 1_555
Cl4 Gd1 2.969995 1_555
Cl4 Gd3 2.969995 1_654
Cl5 Gd6 2.908077 1_555
Cl5 Gd4 2.908077 1_555
Cl5 Gd0 2.969995 1_465
Cl5 Gd2 2.969995 1_565
Cl6 Gd3 2.908077 1_554
Cl6 Gd1 2.908077 1_555
Cl6 Gd7 2.969995 1_455
Cl6 Gd5 2.969995 1_554
Cl7 Gd0 2.908077 1_555
Cl7 Gd2 2.908077 1_555
Cl7 Gd6 2.969995 1_545
Cl7 Gd4 2.969995 1_645
Cl8 Gd0 2.775248 1_455
Cl8 Gd7 2.861976 1_455
Cl8 Gd6 2.906224 1_555
Cl9 Gd1 2.775248 1_565
Cl9 Gd6 2.861976 1_555
Cl9 Gd7 2.906224 1_555
Cl10 Gd2 2.775248 1_555
Cl10 Gd5 2.861976 1_555
Cl10 Gd4 2.906224 1_555
Cl11 Gd3 2.775248 1_665
Cl11 Gd4 2.861976 1_655
Cl11 Gd5 2.906224 1_555
