# generated using pymatgen
data_BIrPd
_symmetry_space_group_name_H-M   'P 1'
_cell_length_a   5.51932620
_cell_length_b   5.51932607
_cell_length_c   6.08907223
_cell_angle_alpha   109.22978323
_cell_angle_beta   109.22978316
_cell_angle_gamma   105.85999413
_symmetry_Int_Tables_number   1
_chemical_formula_structural   BIrPd
_chemical_formula_sum   'B4 Ir4 Pd4'
_cell_volume   149.44081365
_cell_formula_units_Z   4
loop_
 _symmetry_equiv_pos_site_id
 _symmetry_equiv_pos_as_xyz
  1  'x, y, z'
loop_
 _atom_site_type_symbol
 _atom_site_label
 _atom_site_symmetry_multiplicity
 _atom_site_fract_x
 _atom_site_fract_y
 _atom_site_fract_z
 _atom_site_occupancy
  B  B0  1  0.05450709  0.93506664  0.52931618  1
  B  B1  1  0.68506664  0.30450709  0.02931618  1
  B  B2  1  0.40575046  0.52519191  0.47068382  1
  B  B3  1  0.27519191  0.65575046  0.97068382  1
  Ir  Ir0  1  0.10379499  0.62907159  0.23458163  1
  Ir  Ir1  1  0.37907159  0.35379499  0.73458163  1
  Ir  Ir2  1  0.61921236  0.64448896  0.26541837  1
  Ir  Ir3  1  0.39448896  0.86921236  0.76541837  1
  Pd  Pd0  1  0.93809046  0.11079072  0.22982169  1
  Pd  Pd1  1  0.45826877  0.13096703  0.27017831  1
  Pd  Pd2  1  0.86079072  0.18809046  0.72982269  1
  Pd  Pd3  1  0.88096703  0.70826877  0.77017731  1
loop_
_geom_bond_atom_site_label_1
_geom_bond_atom_site_label_2
_geom_bond_distance
_geom_bond_site_symmetry_2
B0 Ir1 2.114694 1_565
B0 Ir2 2.140034 1_455
B0 Ir3 2.158716 1_555
B0 Ir0 2.173317 1_555
B0 Pd2 2.266468 1_465
B0 Pd0 2.326593 1_465
B0 Pd3 2.472784 1_455
B1 Ir0 2.114694 1_655
B1 Ir3 2.140034 1_544
B1 Ir2 2.158716 1_555
B1 Ir1 2.173317 1_554
B1 Pd0 2.266465 1_555
B1 Pd2 2.326588 1_554
B1 Pd1 2.472790 1_555
B2 Ir2 2.114687 1_555
B2 Ir1 2.140033 1_555
B2 Ir0 2.158712 1_555
B2 Ir3 2.173313 1_555
B2 Pd1 2.266479 1_555
B2 Pd3 2.326584 1_555
B2 Pd0 2.472787 1_455
B3 Ir3 2.114687 1_555
B3 Ir0 2.140033 1_556
B3 Ir1 2.158712 1_555
B3 Ir2 2.173313 1_556
B3 Pd3 2.266480 1_455
B3 Pd1 2.326585 1_566
B3 Pd2 2.472787 1_455
