# generated using pymatgen
data_MgGe4(MoO6)2
_symmetry_space_group_name_H-M   'P 1'
_cell_length_a   5.71439636
_cell_length_b   6.98373023
_cell_length_c   6.98262480
_cell_angle_alpha   81.78454493
_cell_angle_beta   73.61246078
_cell_angle_gamma   73.59684019
_symmetry_Int_Tables_number   1
_chemical_formula_structural   MgGe4(MoO6)2
_chemical_formula_sum   'Mg1 Ge4 Mo2 O12'
_cell_volume   255.85364866
_cell_formula_units_Z   1
loop_
 _symmetry_equiv_pos_site_id
 _symmetry_equiv_pos_as_xyz
  1  'x, y, z'
loop_
 _atom_site_type_symbol
 _atom_site_label
 _atom_site_symmetry_multiplicity
 _atom_site_fract_x
 _atom_site_fract_y
 _atom_site_fract_z
 _atom_site_occupancy
  Mg  Mg0  1  0.75001754  0.27787722  0.72129431  1
  Ge  Ge0  1  0.72276702  0.38798288  0.20404205  1
  Ge  Ge1  1  0.77701095  0.79528537  0.61164109  1
  Ge  Ge2  1  0.26868102  0.61499028  0.79362047  1
  Ge  Ge3  1  0.23112035  0.20623658  0.38442544  1
  Mo  Mo0  1  0.75010773  0.90234218  0.09721363  1
  Mo  Mo1  1  0.25004964  0.09034963  0.90919751  1
  O  O0  1  0.41965762  0.37602513  0.35234648  1
  O  O1  1  0.07977495  0.64656089  0.62416111  1
  O  O2  1  0.59454604  0.61259097  0.66639121  1
  O  O3  1  0.90504921  0.33277194  0.38702918  1
  O  O4  1  0.13596586  0.12971381  0.63910152  1
  O  O5  1  0.36420358  0.36033663  0.87001359  1
  O  O6  1  0.76291820  0.92876123  0.38729193  1
  O  O7  1  0.73789032  0.61216781  0.07058442  1
  O  O8  1  0.84127085  0.20227895  0.01978515  1
  O  O9  1  0.65875310  0.97969092  0.79736898  1
  O  O10  1  0.15251390  0.80435272  0.96372291  1
  O  O11  1  0.34770213  0.03598184  0.19521400  1
loop_
_geom_bond_atom_site_label_1
_geom_bond_atom_site_label_2
_geom_bond_distance
_geom_bond_site_symmetry_2
Mg0 O4 2.104930 1_655
Mg0 O5 2.105388 1_555
Mg0 O9 2.243143 1_545
Mg0 O8 2.244560 1_556
Mg0 O3 2.269123 1_555
Mg0 O2 2.272349 1_555
Ge0 O7 1.714973 1_555
Ge0 O0 1.767582 1_555
Ge0 O3 1.802671 1_555
Ge0 O8 1.812485 1_555
Ge1 O6 1.714913 1_555
Ge1 O1 1.767544 1_655
Ge1 O2 1.802291 1_555
Ge1 O9 1.813377 1_555
Ge2 O5 1.757903 1_555
Ge2 O10 1.763100 1_555
Ge2 O1 1.767992 1_555
Ge2 O2 1.819393 1_555
Ge3 O4 1.757993 1_555
Ge3 O11 1.762965 1_555
Ge3 O0 1.768156 1_555
Ge3 O3 1.818964 1_455
Mo0 O6 2.083310 1_555
Mo0 O7 2.083523 1_555
Mo0 O10 2.170016 1_654
Mo0 O11 2.170151 1_565
Mo0 O9 2.254363 1_554
Mo0 O8 2.255012 1_565
Mo1 O4 2.121760 1_555
Mo1 O5 2.121810 1_555
Mo1 O10 2.176369 1_545
Mo1 O11 2.176377 1_556
Mo1 O9 2.187587 1_545
Mo1 O8 2.187983 1_456
