# generated using pymatgen
data_H5BrNO
_symmetry_space_group_name_H-M   'P 1'
_cell_length_a   7.33065100
_cell_length_b   6.72730500
_cell_length_c   7.83034279
_cell_angle_alpha   68.32608718
_cell_angle_beta   90.00000000
_cell_angle_gamma   90.00000000
_symmetry_Int_Tables_number   1
_chemical_formula_structural   H5BrNO
_chemical_formula_sum   'H20 Br4 N4 O4'
_cell_volume   358.85645156
_cell_formula_units_Z   4
loop_
 _symmetry_equiv_pos_site_id
 _symmetry_equiv_pos_as_xyz
  1  'x, y, z'
loop_
 _atom_site_type_symbol
 _atom_site_label
 _atom_site_symmetry_multiplicity
 _atom_site_fract_x
 _atom_site_fract_y
 _atom_site_fract_z
 _atom_site_occupancy
  H  H0  1  0.19527200  0.87044900  0.13430700  1
  H  H1  1  0.69527200  0.12955100  0.36569300  1
  H  H2  1  0.80472800  0.12955100  0.86569300  1
  H  H3  1  0.30472800  0.87044900  0.63430700  1
  H  H4  1  0.09297800  0.76166800  0.01409900  1
  H  H5  1  0.59297800  0.23833200  0.48590100  1
  H  H6  1  0.90702200  0.23833200  0.98590100  1
  H  H7  1  0.40702200  0.76166800  0.51409900  1
  H  H8  1  0.04269600  0.59655500  0.30067900  1
  H  H9  1  0.54269600  0.40344500  0.19932100  1
  H  H10  1  0.95730400  0.40344500  0.69932100  1
  H  H11  1  0.45730400  0.59655500  0.80067900  1
  H  H12  1  0.62821700  0.40523600  0.90483000  1
  H  H13  1  0.12821700  0.59476400  0.59517000  1
  H  H14  1  0.37178300  0.59476400  0.09517000  1
  H  H15  1  0.87178300  0.40523600  0.40483000  1
  H  H16  1  0.35294100  0.34482500  0.09552700  1
  H  H17  1  0.85294100  0.65517500  0.40447300  1
  H  H18  1  0.64705900  0.65517500  0.90447300  1
  H  H19  1  0.14705900  0.34482500  0.59552700  1
  Br  Br0  1  0.39288500  0.16031100  0.70945400  1
  Br  Br1  1  0.89288500  0.83968900  0.79054600  1
  Br  Br2  1  0.60711500  0.83968900  0.29054600  1
  Br  Br3  1  0.10711500  0.16031100  0.20945400  1
  N  N0  1  0.54957000  0.53340800  0.91449200  1
  N  N1  1  0.04957000  0.46659200  0.58550800  1
  N  N2  1  0.95043000  0.53340800  0.41449200  1
  N  N3  1  0.45043000  0.46659200  0.08550800  1
  O  O0  1  0.17726700  0.72935900  0.12245000  1
  O  O1  1  0.82273300  0.27064100  0.87755000  1
  O  O2  1  0.67726700  0.27064100  0.37755000  1
  O  O3  1  0.32273300  0.72935900  0.62245000  1
loop_
_geom_bond_atom_site_label_1
_geom_bond_atom_site_label_2
_geom_bond_distance
_geom_bond_site_symmetry_2
H0 O0 0.996007 1_555
H1 O2 0.996007 1_555
H2 O1 0.996007 1_555
H3 O3 0.996007 1_555
H4 O0 1.006304 1_555
H5 O2 1.006304 1_555
H6 O1 1.006304 1_555
H7 O3 1.006304 1_555
H8 N2 1.073557 1_455
H9 N3 1.073557 1_555
H10 N1 1.073557 1_655
H11 N0 1.073557 1_555
H12 N0 1.062911 1_555
H13 N1 1.062911 1_555
H14 N3 1.062911 1_555
H15 N2 1.062911 1_555
H16 N3 1.067919 1_555
H17 N2 1.067919 1_555
H18 N0 1.067919 1_555
H19 N1 1.067919 1_555
Br0 H19 2.183142 1_555
Br0 H5 2.193766 1_555
Br1 H18 2.183142 1_555
Br1 H4 2.193766 1_656
Br2 H17 2.183142 1_555
Br2 H7 2.193766 1_555
Br3 H16 2.183142 1_555
Br3 H6 2.193766 1_454
