# generated using pymatgen
data_MgNi2(AgO2)2
_symmetry_space_group_name_H-M   'P 1'
_cell_length_a   3.05084800
_cell_length_b   3.05084725
_cell_length_c   14.05851100
_cell_angle_alpha   90.00000000
_cell_angle_beta   90.00000000
_cell_angle_gamma   120.00000818
_symmetry_Int_Tables_number   1
_chemical_formula_structural   MgNi2(AgO2)2
_chemical_formula_sum   'Mg1 Ni2 Ag2 O4'
_cell_volume   113.32114523
_cell_formula_units_Z   1
loop_
 _symmetry_equiv_pos_site_id
 _symmetry_equiv_pos_as_xyz
  1  'x, y, z'
loop_
 _atom_site_type_symbol
 _atom_site_label
 _atom_site_symmetry_multiplicity
 _atom_site_fract_x
 _atom_site_fract_y
 _atom_site_fract_z
 _atom_site_occupancy
  Mg  Mg0  1  0.33333300  0.66666700  0.62412500  1
  Ni  Ni0  1  0.00000000  0.00000000  0.45023100  1
  Ni  Ni1  1  0.00000000  0.00000000  0.02236200  1
  Ag  Ag0  1  0.66666600  0.33333200  0.79726100  1
  Ag  Ag1  1  0.33333400  0.66666700  0.24019500  1
  O  O0  1  0.33333400  0.66666700  0.38880600  1
  O  O1  1  0.66666600  0.33333200  0.95379200  1
  O  O2  1  0.66666600  0.33333200  0.56045300  1
  O  O3  1  0.33333400  0.66666700  0.09298200  1
loop_
_geom_bond_atom_site_label_1
_geom_bond_atom_site_label_2
_geom_bond_distance
_geom_bond_site_symmetry_2
Mg0 O2 1.975805 1_565
Mg0 O2 1.975810 1_455
Mg0 O2 1.975812 1_555
Ni0 O0 1.961698 1_445
Ni0 O0 1.961700 1_555
Ni0 O0 1.961700 1_545
Ni0 O2 2.345992 1_455
Ni0 O2 2.345992 1_555
Ni0 O2 2.345996 1_445
Ni1 O1 2.007942 1_454
Ni1 O1 2.007942 1_554
Ni1 O1 2.007946 1_444
Ni1 O3 2.021936 1_445
Ni1 O3 2.021938 1_555
Ni1 O3 2.021939 1_545
Ag0 O1 2.200593 1_555
Ag1 O3 2.069596 1_555
Ag1 O0 2.089249 1_555
