# generated using pymatgen
data_Mg(SbO2)2
_symmetry_space_group_name_H-M   'P 1'
_cell_length_a   8.47705802
_cell_length_b   8.47705802
_cell_length_c   5.94918486
_cell_angle_alpha   90.00000000
_cell_angle_beta   90.00000000
_cell_angle_gamma   90.00000000
_symmetry_Int_Tables_number   1
_chemical_formula_structural   Mg(SbO2)2
_chemical_formula_sum   'Mg4 Sb8 O16'
_cell_volume   427.51147403
_cell_formula_units_Z   4
loop_
 _symmetry_equiv_pos_site_id
 _symmetry_equiv_pos_as_xyz
  1  'x, y, z'
loop_
 _atom_site_type_symbol
 _atom_site_label
 _atom_site_symmetry_multiplicity
 _atom_site_fract_x
 _atom_site_fract_y
 _atom_site_fract_z
 _atom_site_occupancy
  Mg  Mg0  1  0.50000000  -0.00000000  0.25000000  1
  Mg  Mg1  1  -0.00000000  0.50000000  0.75000000  1
  Mg  Mg2  1  0.50000000  -0.00000000  0.75000000  1
  Mg  Mg3  1  -0.00000000  0.50000000  0.25000000  1
  Sb  Sb0  1  0.33530397  0.32591816  0.00000000  1
  Sb  Sb1  1  0.32591816  0.66469603  0.50000000  1
  Sb  Sb2  1  0.67408184  0.33530397  0.50000000  1
  Sb  Sb3  1  0.16469603  0.82591816  0.00000000  1
  Sb  Sb4  1  0.83530397  0.17408184  -0.00000000  1
  Sb  Sb5  1  0.66469603  0.67408184  -0.00000000  1
  Sb  Sb6  1  0.82591816  0.83530397  0.50000000  1
  Sb  Sb7  1  0.17408184  0.16469603  0.50000000  1
  O  O0  1  0.36441466  0.09915885  -0.00000000  1
  O  O1  1  0.09915885  0.63558534  0.50000000  1
  O  O2  1  0.90084115  0.36441466  0.50000000  1
  O  O3  1  0.13558534  0.59915885  -0.00000000  1
  O  O4  1  0.86441466  0.40084115  0.00000000  1
  O  O5  1  0.63558534  0.90084115  0.00000000  1
  O  O6  1  0.59915885  0.86441466  0.50000000  1
  O  O7  1  0.40084115  0.13558534  0.50000000  1
  O  O8  1  0.67689344  0.17689344  0.25000000  1
  O  O9  1  0.17689344  0.32310656  0.75000000  1
  O  O10  1  0.82310656  0.67689344  0.75000000  1
  O  O11  1  0.32310656  0.82310656  0.25000000  1
  O  O12  1  0.32310656  0.82310656  0.75000000  1
  O  O13  1  0.82310656  0.67689344  0.25000000  1
  O  O14  1  0.17689344  0.32310656  0.25000000  1
  O  O15  1  0.67689344  0.17689344  0.75000000  1
loop_
_geom_bond_atom_site_label_1
_geom_bond_atom_site_label_2
_geom_bond_distance
_geom_bond_site_symmetry_2
Mg0 O0 2.059043 1_555
Mg0 O5 2.059043 1_545
Mg0 O6 2.059043 1_545
Mg0 O7 2.059043 1_555
Mg0 O8 2.120664 1_555
Mg0 O11 2.120664 1_545
Mg1 O3 2.059043 1_556
Mg1 O4 2.059043 1_456
Mg1 O1 2.059043 1_555
Mg1 O2 2.059043 1_455
Mg1 O10 2.120664 1_455
Mg1 O9 2.120664 1_555
Mg2 O5 2.059043 1_546
Mg2 O0 2.059043 1_556
Mg2 O6 2.059043 1_545
Mg2 O7 2.059043 1_555
Mg2 O12 2.120664 1_545
Mg2 O15 2.120664 1_555
Mg3 O3 2.059043 1_555
Mg3 O4 2.059043 1_455
Mg3 O1 2.059043 1_555
Mg3 O2 2.059043 1_455
Mg3 O13 2.120664 1_455
Mg3 O14 2.120664 1_555
O0 Sb0 1.938027 1_555
O1 Sb1 1.938027 1_555
O2 Sb2 1.938027 1_555
O3 Sb3 1.938027 1_555
O4 Sb4 1.938027 1_555
O5 Sb5 1.938027 1_555
O6 Sb6 1.938027 1_555
O7 Sb7 1.938027 1_555
O8 Sb2 2.003966 1_555
O8 Sb4 2.003966 1_555
O9 Sb0 2.003966 1_556
O9 Sb7 2.003966 1_555
O10 Sb6 2.003966 1_555
O10 Sb5 2.003966 1_556
O11 Sb3 2.003966 1_555
O11 Sb1 2.003966 1_555
O12 Sb3 2.003966 1_556
O12 Sb1 2.003966 1_555
O13 Sb6 2.003966 1_555
O13 Sb5 2.003966 1_555
O14 Sb7 2.003966 1_555
O14 Sb0 2.003966 1_555
O15 Sb2 2.003966 1_555
O15 Sb4 2.003966 1_556
