# generated using pymatgen
data_Na3GaSi2GeSO12
_symmetry_space_group_name_H-M   'P 1'
_cell_length_a   8.77628349
_cell_length_b   8.77628320
_cell_length_c   21.95765820
_cell_angle_alpha   88.78051503
_cell_angle_beta   91.21948502
_cell_angle_gamma   119.51166423
_symmetry_Int_Tables_number   1
_chemical_formula_structural   Na3GaSi2GeSO12
_chemical_formula_sum   'Na18 Ga6 Si12 Ge6 S6 O72'
_cell_volume   1471.37104345
_cell_formula_units_Z   6
loop_
 _symmetry_equiv_pos_site_id
 _symmetry_equiv_pos_as_xyz
  1  'x, y, z'
loop_
 _atom_site_type_symbol
 _atom_site_label
 _atom_site_symmetry_multiplicity
 _atom_site_fract_x
 _atom_site_fract_y
 _atom_site_fract_z
 _atom_site_occupancy
  Na  Na0  1  0.63412156  0.00362653  0.24397640  1
  Na  Na1  1  0.99701358  0.63574471  0.24785915  1
  Na  Na2  1  0.99637347  0.36587844  0.74397640  1
  Na  Na3  1  0.36425529  0.00298642  0.74785915  1
  Na  Na4  1  0.30078856  0.33695953  0.57730940  1
  Na  Na5  1  0.66368058  0.96907771  0.58119215  1
  Na  Na6  1  0.66304047  0.69921144  0.07730940  1
  Na  Na7  1  0.03092229  0.33631942  0.08119215  1
  Na  Na8  1  0.96745456  0.67029353  0.91064340  1
  Na  Na9  1  0.33034658  0.30241171  0.91452615  1
  Na  Na10  1  0.32970647  0.03254544  0.41064340  1
  Na  Na11  1  0.69758829  0.66965342  0.41452615  1
  Na  Na12  1  0.00303998  0.01635045  0.49718487  1
  Na  Na13  1  0.98364955  0.99696002  0.99718487  1
  Na  Na14  1  0.66970698  0.34968345  0.83051787  1
  Na  Na15  1  0.65031655  0.33029302  0.33051787  1
  Na  Na16  1  0.33637298  0.68301745  0.16385187  1
  Na  Na17  1  0.31698255  0.66362702  0.66385187  1
  Ga  Ga0  1  0.00334368  0.00505559  0.35286279  1
  Ga  Ga1  1  0.99494441  0.99665632  0.85286279  1
  Ga  Ga2  1  0.67001068  0.33838859  0.68619579  1
  Ga  Ga3  1  0.66161141  0.32998932  0.18619579  1
  Ga  Ga4  1  0.33667668  0.67172259  0.01952979  1
  Ga  Ga5  1  0.32827741  0.66332332  0.51952979  1
  Si  Si0  1  0.28728671  0.00235719  0.25271406  1
  Si  Si1  1  0.70769021  0.70266186  0.25186696  1
  Si  Si2  1  0.29733814  0.29230979  0.75186696  1
  Si  Si3  1  0.99764281  0.71271329  0.75271406  1
  Si  Si4  1  0.95395371  0.33569019  0.58604706  1
  Si  Si5  1  0.37435721  0.03599486  0.58519996  1
  Si  Si6  1  0.96400514  0.62564279  0.08519996  1
  Si  Si7  1  0.66430981  0.04604629  0.08604706  1
  Si  Si8  1  0.62061971  0.66902419  0.91938106  1
  Si  Si9  1  0.04102321  0.36932886  0.91853396  1
  Si  Si10  1  0.63067114  0.95897679  0.41853396  1
  Si  Si11  1  0.33097581  0.37938029  0.41938106  1
  Ge  Ge0  1  0.03353824  0.02050926  0.64671839  1
  Ge  Ge1  1  0.97949074  0.96646176  0.14671839  1
  Ge  Ge2  1  0.70020524  0.35384226  0.98005139  1
  Ge  Ge3  1  0.64615774  0.29979476  0.48005139  1
  Ge  Ge4  1  0.36687124  0.68717626  0.31338539  1
  Ge  Ge5  1  0.31282374  0.63312876  0.81338539  1
  S  S0  1  0.00894192  0.29418358  0.24945136  1
  S  S1  1  0.70581642  0.99105808  0.74945136  1
  S  S2  1  0.67560892  0.62751658  0.58278436  1
  S  S3  1  0.37248342  0.32439108  0.08278436  1
  S  S4  1  0.34227492  0.96085058  0.91611836  1
  S  S5  1  0.03914942  0.65772508  0.41611836  1
  O  O0  1  0.20399029  0.02485845  0.31413046  1
  O  O1  1  0.83034612  0.79382665  0.31094752  1
  O  O2  1  0.97882908  0.18189617  0.30393463  1
  O  O3  1  0.20617335  0.16965388  0.81094752  1
  O  O4  1  0.97514155  0.79600971  0.81413046  1
  O  O5  1  0.81810383  0.02117092  0.80393463  1
  O  O6  1  0.78300872  0.96880314  0.69310599  1
  O  O7  1  0.16920217  0.21651194  0.68971942  1
  O  O8  1  0.04079173  0.84981552  0.69295733  1
  O  O9  1  0.78348806  0.83079783  0.18971942  1
  O  O10  1  0.03119686  0.21699128  0.19310599  1
  O  O11  1  0.15018448  0.95920827  0.19295733  1
  O  O12  1  0.87065729  0.35819145  0.64746346  1
  O  O13  1  0.49701312  0.12715965  0.64428052  1
  O  O14  1  0.64549608  0.51522917  0.63726763  1
  O  O15  1  0.87284035  0.50298688  0.14428052  1
  O  O16  1  0.64180855  0.12934271  0.14746346  1
  O  O17  1  0.48477083  0.35450392  0.13726763  1
  O  O18  1  0.44967572  0.30213614  0.02643899  1
  O  O19  1  0.83586917  0.54984494  0.02305242  1
  O  O20  1  0.70745873  0.18314852  0.02629033  1
  O  O21  1  0.45015506  0.16413083  0.52305242  1
  O  O22  1  0.69786386  0.55032428  0.52643899  1
  O  O23  1  0.81685148  0.29254127  0.52629033  1
  O  O24  1  0.53732329  0.69152545  0.98079746  1
  O  O25  1  0.16367912  0.46049365  0.97761452  1
  O  O26  1  0.31216208  0.84856317  0.97060163  1
  O  O27  1  0.53950635  0.83632088  0.47761452  1
  O  O28  1  0.30847455  0.46267671  0.48079746  1
  O  O29  1  0.15143683  0.68783792  0.47060163  1
  O  O30  1  0.11634172  0.63547014  0.35977299  1
  O  O31  1  0.50253517  0.88317894  0.35638642  1
  O  O32  1  0.37412473  0.51648252  0.35962433  1
  O  O33  1  0.11682106  0.49746483  0.85638642  1
  O  O34  1  0.36452986  0.88365828  0.85977299  1
  O  O35  1  0.48351748  0.62587527  0.85962433  1
  O  O36  1  0.02106891  0.81884419  0.41423279  1
  O  O37  1  0.82017194  0.97303309  0.41019455  1
  O  O38  1  0.17107302  0.18040062  0.41190793  1
  O  O39  1  0.02696691  0.17982806  0.91019455  1
  O  O40  1  0.18115581  0.97893109  0.91423279  1
  O  O41  1  0.81959938  0.82892698  0.91190793  1
  O  O42  1  0.96242335  0.14366977  0.59043494  1
  O  O43  1  0.18227888  0.03041077  0.58748987  1
  O  O44  1  0.82969835  0.80529897  0.58831057  1
  O  O45  1  0.96958923  0.81772112  0.08748987  1
  O  O46  1  0.85633023  0.03757665  0.09043494  1
  O  O47  1  0.19470103  0.17030165  0.08831057  1
  O  O48  1  0.68773591  0.15217719  0.74756579  1
  O  O49  1  0.48683894  0.30636609  0.74352755  1
  O  O50  1  0.83774002  0.51373362  0.74524093  1
  O  O51  1  0.69363391  0.51316106  0.24352755  1
  O  O52  1  0.84782281  0.31226409  0.24756579  1
  O  O53  1  0.48626638  0.16225998  0.24524093  1
  O  O54  1  0.62909035  0.47700277  0.92376794  1
  O  O55  1  0.84894588  0.36374377  0.92082287  1
  O  O56  1  0.49636535  0.13863197  0.92164357  1
  O  O57  1  0.63625623  0.15105412  0.42082287  1
  O  O58  1  0.52299723  0.37090965  0.42376794  1
  O  O59  1  0.86136803  0.50363465  0.42164357  1
  O  O60  1  0.35440191  0.48551119  0.08089979  1
  O  O61  1  0.15350494  0.63970009  0.07686155  1
  O  O62  1  0.50440602  0.84706762  0.07857493  1
  O  O63  1  0.36029991  0.84649506  0.57686155  1
  O  O64  1  0.51448881  0.64559809  0.58089979  1
  O  O65  1  0.15293238  0.49559398  0.57857493  1
  O  O66  1  0.29575635  0.81033677  0.25710194  1
  O  O67  1  0.51561188  0.69707777  0.25415687  1
  O  O68  1  0.16303135  0.47196597  0.25497757  1
  O  O69  1  0.30292223  0.48438812  0.75415687  1
  O  O70  1  0.18966323  0.70424365  0.75710194  1
  O  O71  1  0.52803403  0.83696865  0.75497757  1
loop_
_geom_bond_atom_site_label_1
_geom_bond_atom_site_label_2
_geom_bond_distance
_geom_bond_site_symmetry_2
Na0 O53 2.325047 1_555
Na0 O16 2.355016 1_555
Na0 O67 2.365859 1_545
Na0 O52 2.420443 1_555
Na0 O66 2.613778 1_545
Na0 O31 2.711266 1_545
Na0 O9 2.746036 1_545
Na0 O2 2.930576 1_555
Na1 O66 2.301260 1_655
Na1 O51 2.329620 1_555
Na1 O52 2.472319 1_555
Na1 O68 2.501477 1_655
Na1 O15 2.544430 1_555
Na1 O30 2.651055 1_655
Na1 O11 2.735474 1_655
Na1 O1 2.854942 1_555
Na2 O50 2.325047 1_555
Na2 O12 2.355016 1_555
Na2 O69 2.365859 1_655
Na2 O48 2.420443 1_555
Na2 O70 2.613778 1_655
Na2 O33 2.711266 1_655
Na2 O7 2.746036 1_655
Na2 O5 2.930576 1_555
Na3 O70 2.301260 1_545
Na3 O49 2.329619 1_555
Na3 O48 2.472319 1_555
Na3 O71 2.501477 1_545
Na3 O13 2.544430 1_555
Na3 O34 2.651055 1_545
Na3 O8 2.735474 1_545
Na3 O3 2.854942 1_555
Na4 O65 2.325063 1_555
Na4 O28 2.355002 1_555
Na4 O43 2.365859 1_555
Na4 O64 2.420448 1_555
Na4 O42 2.613778 1_455
Na4 O7 2.711266 1_555
Na4 O21 2.746036 1_555
Na4 O14 2.930576 1_555
Na5 O42 2.301260 1_565
Na5 O63 2.329628 1_555
Na5 O64 2.472310 1_555
Na5 O44 2.501477 1_555
Na5 O27 2.544410 1_555
Na5 O6 2.651055 1_555
Na5 O23 2.735474 1_565
Na5 O13 2.854942 1_565
Na6 O62 2.325063 1_555
Na6 O24 2.355002 1_554
Na6 O45 2.365859 1_555
Na6 O60 2.420448 1_555
Na6 O46 2.613778 1_565
Na6 O9 2.711266 1_555
Na6 O19 2.746036 1_555
Na6 O17 2.930576 1_555
Na7 O46 2.301260 1_455
Na7 O61 2.329628 1_555
Na7 O60 2.472310 1_555
Na7 O47 2.501477 1_555
Na7 O25 2.544410 1_554
Na7 O10 2.651055 1_555
Na7 O20 2.735474 1_455
Na7 O15 2.854942 1_455
Na8 O41 2.325047 1_555
Na8 O4 2.355016 1_555
Na8 O55 2.365866 1_555
Na8 O40 2.420443 1_655
Na8 O54 2.613769 1_555
Na8 O19 2.711245 1_556
Na8 O33 2.746036 1_655
Na8 O26 2.930576 1_655
Na9 O54 2.301265 1_555
Na9 O39 2.329620 1_555
Na9 O40 2.472319 1_545
Na9 O56 2.501492 1_555
Na9 O3 2.544430 1_555
Na9 O18 2.651040 1_556
Na9 O35 2.735474 1_555
Na9 O25 2.854942 1_555
Na10 O38 2.325047 1_555
Na10 O0 2.355016 1_555
Na10 O57 2.365866 1_555
Na10 O36 2.420443 1_545
Na10 O58 2.613769 1_555
Na10 O21 2.711245 1_555
Na10 O31 2.746036 1_545
Na10 O29 2.930576 1_545
Na11 O58 2.301265 1_555
Na11 O37 2.329619 1_555
Na11 O36 2.472319 1_655
Na11 O59 2.501492 1_555
Na11 O1 2.544430 1_555
Na11 O22 2.651040 1_555
Na11 O32 2.735474 1_555
Na11 O27 2.854942 1_555
Na12 O38 2.380089 1_555
Na12 O37 2.380768 1_445
Na12 O42 2.467583 1_455
Na12 O43 2.471430 1_555
Na12 O36 2.600787 1_545
Na12 O44 2.635239 1_445
Na13 O41 2.380089 1_555
Na13 O39 2.380768 1_665
Na13 O46 2.467583 1_566
Na13 O45 2.471430 1_556
Na13 O40 2.600787 1_655
Na13 O47 2.635239 1_666
Na14 O50 2.380089 1_555
Na14 O49 2.380768 1_555
Na14 O54 2.467583 1_555
Na14 O55 2.471430 1_555
Na14 O48 2.600787 1_555
Na14 O56 2.635239 1_555
Na15 O53 2.380089 1_555
Na15 O51 2.380768 1_555
Na15 O58 2.467583 1_555
Na15 O57 2.471430 1_555
Na15 O52 2.600787 1_555
Na15 O59 2.635239 1_555
Na16 O62 2.380089 1_555
Na16 O61 2.380768 1_555
Na16 O66 2.467583 1_555
Na16 O67 2.471430 1_555
Na16 O60 2.600787 1_555
Na16 O68 2.635239 1_555
Na17 O65 2.380089 1_555
Na17 O63 2.380768 1_555
Na17 O70 2.467583 1_555
Na17 O69 2.471430 1_555
Na17 O64 2.600787 1_555
Na17 O71 2.635239 1_555
Ga0 O0 1.900086 1_555
Ga0 O1 1.956790 1_445
Ga0 O2 1.964022 1_455
Ga0 O37 1.968245 1_445
Ga0 O38 1.996963 1_555
Ga0 O36 2.158385 1_545
Ga1 O4 1.900086 1_555
Ga1 O3 1.956790 1_665
Ga1 O5 1.964022 1_565
Ga1 O39 1.968245 1_665
Ga1 O41 1.996963 1_555
Ga1 O40 2.158385 1_655
Ga2 O12 1.900086 1_555
Ga2 O13 1.956790 1_555
Ga2 O14 1.964022 1_555
Ga2 O49 1.968245 1_555
Ga2 O50 1.996963 1_555
Ga2 O48 2.158385 1_555
Ga3 O16 1.900086 1_555
Ga3 O15 1.956790 1_555
Ga3 O17 1.964022 1_555
Ga3 O51 1.968245 1_555
Ga3 O53 1.996963 1_555
Ga3 O52 2.158385 1_555
Ga4 O24 1.900086 1_554
Ga4 O25 1.956790 1_554
Ga4 O26 1.964022 1_554
Ga4 O61 1.968245 1_555
Ga4 O62 1.996963 1_555
Ga4 O60 2.158385 1_555
Ga5 O28 1.900086 1_555
Ga5 O27 1.956790 1_555
Ga5 O29 1.964022 1_555
Ga5 O63 1.968245 1_555
Ga5 O65 1.996963 1_555
Ga5 O64 2.158385 1_555
Ge0 O7 1.808761 1_555
Ge0 O8 1.818109 1_545
Ge0 O43 1.832659 1_555
Ge0 O42 1.913146 1_455
Ge0 O44 2.255903 1_445
Ge0 O6 2.273856 1_445
Ge1 O9 1.808761 1_555
Ge1 O11 1.818109 1_655
Ge1 O45 1.832659 1_555
Ge1 O46 1.913146 1_565
Ge1 O47 2.255903 1_665
Ge1 O10 2.273856 1_665
Ge2 O19 1.808761 1_556
Ge2 O20 1.818109 1_556
Ge2 O55 1.832659 1_555
Ge2 O54 1.913146 1_555
Ge2 O56 2.255903 1_555
Ge2 O18 2.273856 1_556
Ge3 O21 1.808761 1_555
Ge3 O23 1.818109 1_555
Ge3 O57 1.832659 1_555
Ge3 O58 1.913146 1_555
Ge3 O59 2.255903 1_555
Ge3 O22 2.273856 1_555
Ge4 O31 1.808761 1_555
Ge4 O32 1.818109 1_555
Ge4 O67 1.832659 1_555
Ge4 O66 1.913146 1_555
Ge4 O68 2.255903 1_555
Ge4 O30 2.273856 1_555
Ge5 O33 1.808761 1_555
Ge5 O35 1.818109 1_555
Ge5 O69 1.832659 1_555
Ge5 O70 1.913146 1_555
Ge5 O71 2.255903 1_555
Ge5 O34 2.273856 1_555
O0 Si0 1.608585 1_555
O1 Si1 1.618037 1_555
O2 S0 1.476101 1_655
O3 Si2 1.618037 1_555
O4 Si3 1.608585 1_555
O5 S1 1.476101 1_545
O6 S1 1.484628 1_555
O7 Si2 1.675002 1_555
O8 Si3 1.678660 1_455
O9 Si1 1.675002 1_555
O10 S0 1.484628 1_555
O11 Si0 1.678660 1_565
O12 Si4 1.608585 1_555
O13 Si5 1.618037 1_555
O14 S2 1.476101 1_555
O15 Si6 1.618037 1_555
O16 Si7 1.608585 1_555
O17 S3 1.476101 1_555
O18 S3 1.484628 1_555
O19 Si6 1.675002 1_555
O20 Si7 1.678660 1_555
O21 Si5 1.675002 1_555
O22 S2 1.484628 1_555
O23 Si4 1.678660 1_555
O24 Si8 1.608585 1_555
O25 Si9 1.618037 1_555
O26 S4 1.476101 1_555
O27 Si10 1.618037 1_555
O28 Si11 1.608585 1_555
O29 S5 1.476101 1_555
O30 S5 1.484628 1_555
O31 Si10 1.675002 1_555
O32 Si11 1.678660 1_555
O33 Si9 1.675002 1_555
O34 S4 1.484628 1_555
O35 Si8 1.678660 1_555
O36 S5 1.498216 1_555
O37 Si10 1.620051 1_555
O38 Si11 1.622923 1_555
O39 Si9 1.620051 1_555
O40 S4 1.498216 1_555
O41 Si8 1.622923 1_555
O42 Si4 1.723656 1_555
O43 Si5 1.663953 1_555
O44 S2 1.483328 1_555
O45 Si6 1.663953 1_555
O46 Si7 1.723656 1_555
O47 S3 1.483328 1_555
O48 S1 1.498216 1_545
O49 Si2 1.620051 1_555
O50 Si3 1.622923 1_555
O51 Si1 1.620051 1_555
O52 S0 1.498216 1_655
O53 Si0 1.622923 1_555
O54 Si8 1.723669 1_555
O55 Si9 1.663939 1_655
O56 S4 1.483324 1_545
O57 Si10 1.663939 1_545
O58 Si11 1.723669 1_555
O59 S5 1.483324 1_655
O60 S3 1.498230 1_555
O61 Si6 1.620036 1_455
O62 Si7 1.622918 1_565
O63 Si5 1.620035 1_565
O64 S2 1.498230 1_555
O65 Si4 1.622918 1_455
O66 Si0 1.723656 1_565
O67 Si1 1.663953 1_555
O68 S0 1.483328 1_555
O69 Si2 1.663953 1_555
O70 Si3 1.723656 1_455
O71 S1 1.483328 1_555
