# generated using pymatgen
data_Na3Sc3NbP5SO24
_symmetry_space_group_name_H-M   'P 1'
_cell_length_a   8.88289493
_cell_length_b   8.86599743
_cell_length_c   22.98379697
_cell_angle_alpha   89.96137686
_cell_angle_beta   90.08850176
_cell_angle_gamma   120.09066961
_symmetry_Int_Tables_number   1
_chemical_formula_structural   Na3Sc3NbP5SO24
_chemical_formula_sum   'Na9 Sc9 Nb3 P15 S3 O72'
_cell_volume   1566.16132790
_cell_formula_units_Z   3
loop_
 _symmetry_equiv_pos_site_id
 _symmetry_equiv_pos_as_xyz
  1  'x, y, z'
loop_
 _atom_site_type_symbol
 _atom_site_label
 _atom_site_symmetry_multiplicity
 _atom_site_fract_x
 _atom_site_fract_y
 _atom_site_fract_z
 _atom_site_occupancy
  Na  Na0  1  0.64143184  0.63726988  0.74851685  1
  Na  Na1  1  0.30112255  0.96559611  0.08456725  1
  Na  Na2  1  0.33065401  0.02678833  0.41435759  1
  Na  Na3  1  0.98886256  0.99971337  0.50078539  1
  Na  Na4  1  0.99255471  0.00031926  0.99864265  1
  Na  Na5  1  0.66630404  0.32560009  0.83148549  1
  Na  Na6  1  0.66807024  0.33515780  0.32947032  1
  Na  Na7  1  0.33307815  0.66278011  0.16710055  1
  Na  Na8  1  0.32562920  0.66274484  0.66267885  1
  Sc  Sc0  1  0.00109998  0.00258216  0.35199874  1
  Sc  Sc1  1  0.00164532  0.00172306  0.85253638  1
  Sc  Sc2  1  0.99555397  0.00118494  0.64797410  1
  Sc  Sc3  1  0.99997026  0.99833746  0.14656212  1
  Sc  Sc4  1  0.67253301  0.33357573  0.68589131  1
  Sc  Sc5  1  0.66074684  0.32858361  0.18510860  1
  Sc  Sc6  1  0.33440837  0.66127516  0.01893939  1
  Sc  Sc7  1  0.33494761  0.65959361  0.51826251  1
  Sc  Sc8  1  0.33360896  0.67217913  0.31555092  1
  Nb  Nb0  1  0.66863413  0.33513343  0.97971281  1
  Nb  Nb1  1  0.67993827  0.34463886  0.48024727  1
  Nb  Nb2  1  0.32815121  0.66621650  0.81425607  1
  P  P0  1  0.29312969  0.99938739  0.25002875  1
  P  P1  1  0.29048659  0.28878367  0.75043224  1
  P  P2  1  0.00122010  0.71190893  0.75009655  1
  P  P3  1  0.70954181  0.00240949  0.75121569  1
  P  P4  1  0.96067716  0.33419255  0.58432715  1
  P  P5  1  0.66683194  0.62624178  0.58519750  1
  P  P6  1  0.95655004  0.62209239  0.08438697  1
  P  P7  1  0.66878608  0.04360442  0.08345800  1
  P  P8  1  0.37801132  0.33619349  0.08378509  1
  P  P9  1  0.62441003  0.66820727  0.91714904  1
  P  P10  1  0.04280829  0.37501360  0.91791322  1
  P  P11  1  0.33224114  0.95684381  0.91864920  1
  P  P12  1  0.62629405  0.95677918  0.41795292  1
  P  P13  1  0.33345022  0.37599640  0.41661866  1
  P  P14  1  0.04617631  0.66899186  0.41678440  1
  S  S0  1  0.70730731  0.70773796  0.24998951  1
  S  S1  1  0.00064324  0.29308338  0.24970183  1
  S  S2  1  0.37574738  0.04231599  0.58271734  1
  O  O0  1  0.20736778  0.02407633  0.30545752  1
  O  O1  1  0.81406375  0.79048194  0.30262029  1
  O  O2  1  0.97355684  0.18529042  0.30239247  1
  O  O3  1  0.20899105  0.18176999  0.80494783  1
  O  O4  1  0.96848936  0.79100327  0.80428466  1
  O  O5  1  0.81756029  0.02587832  0.80536131  1
  O  O6  1  0.78092870  0.95652491  0.69684723  1
  O  O7  1  0.17952838  0.21441497  0.69552545  1
  O  O8  1  0.03641465  0.82208968  0.69514595  1
  O  O9  1  0.78856850  0.81545985  0.19748035  1
  O  O10  1  0.02361195  0.20932471  0.19734894  1
  O  O11  1  0.18217673  0.97510188  0.19450505  1
  O  O12  1  0.87026462  0.35804220  0.63693515  1
  O  O13  1  0.48340911  0.12514061  0.63462037  1
  O  O14  1  0.63944647  0.51510463  0.63956554  1
  O  O15  1  0.87048040  0.50973338  0.13746367  1
  O  O16  1  0.63449315  0.12718301  0.13631702  1
  O  O17  1  0.48948373  0.36109942  0.13731966  1
  O  O18  1  0.47157128  0.30710768  0.02895859  1
  O  O19  1  0.83818188  0.52758101  0.02886225  1
  O  O20  1  0.69089744  0.16289635  0.02832834  1
  O  O21  1  0.46056829  0.15031510  0.52875215  1
  O  O22  1  0.68616253  0.52377471  0.53054418  1
  O  O23  1  0.83962868  0.31236299  0.52906624  1
  O  O24  1  0.53776716  0.69159165  0.97028493  1
  O  O25  1  0.15257434  0.46144217  0.97106352  1
  O  O26  1  0.30928691  0.85125750  0.97336165  1
  O  O27  1  0.54070185  0.84880704  0.47220796  1
  O  O28  1  0.30527471  0.45621754  0.47120895  1
  O  O29  1  0.15689116  0.70027449  0.47117645  1
  O  O30  1  0.11835003  0.63012397  0.36220893  1
  O  O31  1  0.50884603  0.88431753  0.36373494  1
  O  O32  1  0.36924905  0.48729782  0.36228374  1
  O  O33  1  0.13267129  0.49481007  0.86281792  1
  O  O34  1  0.36080313  0.86498593  0.86385534  1
  O  O35  1  0.50838654  0.63703382  0.86104816  1
  O  O36  1  0.02204326  0.82890796  0.41001080  1
  O  O37  1  0.80924452  0.98464128  0.40991709  1
  O  O38  1  0.17850301  0.18707345  0.41063630  1
  O  O39  1  0.01881251  0.19445105  0.90945284  1
  O  O40  1  0.17561538  0.98017558  0.90944452  1
  O  O41  1  0.80596947  0.82447445  0.90929174  1
  O  O42  1  0.97165729  0.16711542  0.58632052  1
  O  O43  1  0.20372290  0.02898976  0.58695940  1
  O  O44  1  0.83534866  0.80328166  0.58636924  1
  O  O45  1  0.97558072  0.80575907  0.08686533  1
  O  O46  1  0.83250445  0.02896750  0.08755202  1
  O  O47  1  0.20052868  0.16434104  0.08684602  1
  O  O48  1  0.68025815  0.15708416  0.74391359  1
  O  O49  1  0.47942305  0.32548262  0.74417222  1
  O  O50  1  0.83847734  0.52795939  0.74420709  1
  O  O51  1  0.69209161  0.53371274  0.24469458  1
  O  O52  1  0.84402715  0.31168533  0.24445268  1
  O  O53  1  0.47551285  0.16454753  0.24499672  1
  O  O54  1  0.63753658  0.49765558  0.92416325  1
  O  O55  1  0.86031951  0.36280937  0.92345756  1
  O  O56  1  0.50279427  0.14033614  0.92364526  1
  O  O57  1  0.63869604  0.14234788  0.42728992  1
  O  O58  1  0.49709770  0.34888791  0.42693189  1
  O  O59  1  0.85804316  0.50284618  0.42544698  1
  O  O60  1  0.35790370  0.49559531  0.07659627  1
  O  O61  1  0.14011888  0.64850253  0.07621402  1
  O  O62  1  0.50107980  0.86680437  0.07540355  1
  O  O63  1  0.35913420  0.86890139  0.57644087  1
  O  O64  1  0.50469119  0.64254566  0.57659221  1
  O  O65  1  0.13723627  0.49902101  0.57609535  1
  O  O66  1  0.31008835  0.83410484  0.25559841  1
  O  O67  1  0.53227971  0.68899943  0.25562609  1
  O  O68  1  0.15928422  0.46667366  0.25553930  1
  O  O69  1  0.31496033  0.48025311  0.75982195  1
  O  O70  1  0.16550482  0.68915632  0.75982499  1
  O  O71  1  0.52340456  0.82991543  0.76025750  1
loop_
_geom_bond_atom_site_label_1
_geom_bond_atom_site_label_2
_geom_bond_distance
_geom_bond_site_symmetry_2
Na0 O50 2.390475 1_555
Na0 O49 2.394427 1_555
Na0 O71 2.426182 1_555
Na0 O69 2.523727 1_555
Na0 O14 2.725511 1_555
Na0 O6 2.727745 1_555
Na0 O4 2.821551 1_555
Na0 O35 2.844842 1_555
Na1 O47 2.342052 1_565
Na1 O62 2.351136 1_555
Na1 O61 2.440101 1_555
Na1 O45 2.502887 1_455
Na1 O11 2.757889 1_555
Na1 O26 2.764679 1_554
Na1 O16 2.823781 1_565
Na1 O18 2.915064 1_565
Na2 O38 2.403928 1_555
Na2 O36 2.404105 1_545
Na2 O57 2.410840 1_555
Na2 O58 2.488117 1_555
Na2 O0 2.725768 1_555
Na2 O31 2.732627 1_545
Na2 O29 2.826435 1_545
Na2 O21 2.858527 1_555
Na3 O42 2.514623 1_565
Na3 O44 2.526680 1_555
Na3 O37 2.588761 1_555
Na3 O38 2.662771 1_665
Na3 O43 2.669291 1_665
Na3 O36 2.680806 1_655
Na4 O46 2.575526 1_556
Na4 O41 2.607249 1_545
Na4 O39 2.610206 1_655
Na4 O45 2.616337 1_546
Na4 O47 2.633613 1_656
Na4 O40 2.679755 1_645
Na5 O48 2.547393 1_555
Na5 O49 2.602102 1_555
Na5 O50 2.614401 1_555
Na5 O56 2.628082 1_555
Na5 O55 2.639511 1_555
Na5 O54 2.706748 1_555
Na6 O53 2.526375 1_555
Na6 O51 2.561450 1_555
Na6 O52 2.576950 1_555
Na6 O59 2.720525 1_555
Na6 O58 2.745066 1_555
Na6 O57 2.755789 1_555
Na7 O66 2.608194 1_555
Na7 O68 2.617521 1_555
Na7 O67 2.627163 1_555
Na7 O60 2.627930 1_555
Na7 O61 2.662565 1_555
Na7 O62 2.690462 1_555
Na8 O65 2.534864 1_555
Na8 O64 2.602446 1_555
Na8 O63 2.609494 1_555
Na8 O70 2.721727 1_555
Na8 O69 2.730177 1_555
Na8 O71 2.773859 1_555
Nb0 O19 1.968802 1_556
Nb0 O20 1.979736 1_556
Nb0 O18 1.994152 1_556
Nb0 O54 2.044060 1_555
Nb0 O55 2.053932 1_555
Nb0 O56 2.063848 1_555
Nb1 O23 1.937713 1_555
Nb1 O22 1.943216 1_555
Nb1 O59 1.958421 1_555
Nb1 O57 2.043303 1_555
Nb1 O58 2.048418 1_555
Nb1 O21 2.155457 1_555
Nb2 O33 1.981927 1_555
Nb2 O34 1.994615 1_555
Nb2 O70 1.995629 1_555
Nb2 O69 2.026321 1_555
Nb2 O71 2.033472 1_555
Nb2 O35 2.048529 1_555
O0 P0 1.556227 1_545
O0 Sc0 2.047773 1_555
O1 S0 1.483507 1_555
O1 Sc0 2.109208 1_665
O2 S1 1.485463 1_655
O2 Sc0 2.092340 1_655
O3 P1 1.518772 1_555
O3 Sc1 2.047567 1_555
O4 P2 1.527797 1_655
O4 Sc1 2.063251 1_665
O5 P3 1.519586 1_555
O5 Sc1 2.059311 1_655
O6 P3 1.546254 1_565
O6 Sc2 2.074208 1_565
O7 P1 1.531141 1_555
O7 Sc2 2.082890 1_455
O8 P2 1.529844 1_555
O8 Sc2 2.098302 1_465
O9 S0 1.483088 1_555
O9 Sc3 2.115656 1_555
O10 S1 1.481497 1_555
O10 Sc3 2.124639 1_445
O11 P0 1.558838 1_555
O11 Sc3 2.050556 1_455
O12 P4 1.524911 1_555
O12 Sc4 2.005467 1_555
O13 S2 1.473219 1_555
O13 Sc4 2.123612 1_555
O14 P5 1.533121 1_555
O14 Sc4 2.069148 1_555
O15 P6 1.517431 1_555
O15 Sc5 2.062306 1_555
O16 P7 1.531852 1_555
O16 Sc5 2.021068 1_555
O17 P8 1.523337 1_555
O17 Sc5 2.009503 1_555
O18 P8 1.601150 1_555
O19 P6 1.596912 1_555
O20 P7 1.597923 1_555
O21 S2 1.516841 1_555
O22 P5 1.609759 1_555
O23 P4 1.610667 1_555
O24 P9 1.513296 1_555
O24 Sc6 2.026046 1_556
O25 P10 1.509491 1_555
O25 Sc6 2.021462 1_556
O26 P11 1.518888 1_555
O26 Sc6 2.087607 1_556
O27 P12 1.523459 1_555
O27 Sc7 2.050424 1_555
O28 P13 1.524279 1_555
O28 Sc7 2.003874 1_555
O29 P14 1.526476 1_555
O29 Sc7 2.090247 1_555
O30 P14 1.525704 1_555
O30 Sc8 2.058183 1_555
O31 P12 1.542399 1_555
O31 Sc8 2.061244 1_555
O32 P13 1.522944 1_555
O32 Sc8 2.111323 1_555
O33 P10 1.587437 1_555
O34 P11 1.588463 1_555
O35 P9 1.584898 1_555
O36 P14 1.544268 1_555
O36 Sc0 2.113546 1_565
O37 P12 1.527906 1_555
O37 Sc0 2.106337 1_665
O38 P13 1.551421 1_555
O38 Sc0 2.094489 1_555
O39 P10 1.517943 1_555
O39 Sc1 2.096517 1_555
O40 P11 1.520151 1_555
O40 Sc1 2.103533 1_565
O41 P9 1.520909 1_555
O41 Sc1 2.111314 1_665
O42 P4 1.533182 1_555
O42 Sc2 2.127602 1_555
O43 S2 1.475767 1_555
O43 Sc2 2.235427 1_455
O44 P5 1.532684 1_555
O44 Sc2 2.145219 1_565
O45 P6 1.551624 1_555
O45 Sc3 2.115659 1_555
O46 P7 1.526259 1_555
O46 Sc3 2.127084 1_545
O47 P8 1.550317 1_555
O47 Sc3 2.144622 1_445
O48 P3 1.527636 1_555
O48 Sc4 2.082358 1_555
O49 P1 1.548025 1_555
O49 Sc4 2.150701 1_555
O50 P2 1.550338 1_655
O50 Sc4 2.095015 1_555
O51 S0 1.484834 1_555
O51 Sc5 2.180614 1_555
O52 S1 1.485507 1_655
O52 Sc5 2.184225 1_555
O53 P0 1.550422 1_545
O53 Sc5 2.078913 1_555
O54 P9 1.581922 1_555
O55 P10 1.574935 1_655
O56 P11 1.575859 1_545
O57 P12 1.607389 1_545
O58 P13 1.605081 1_555
O59 P14 1.592007 1_655
O60 P8 1.519608 1_555
O60 Sc6 2.064291 1_555
O61 P6 1.538529 1_455
O61 Sc6 2.129581 1_555
O62 P7 1.539028 1_565
O62 Sc6 2.118642 1_555
O63 S2 1.476209 1_565
O63 Sc7 2.209192 1_555
O64 P5 1.530445 1_555
O64 Sc7 2.077419 1_555
O65 P4 1.527564 1_455
O65 Sc7 2.091775 1_555
O66 P0 1.551613 1_555
O66 Sc8 2.073793 1_555
O67 S0 1.484326 1_555
O67 Sc8 2.185623 1_555
O68 S1 1.482374 1_555
O68 Sc8 2.188085 1_555
O69 P1 1.614268 1_555
O70 P2 1.585697 1_555
O71 P3 1.606533 1_565
