# generated using pymatgen
data_Ba(Mo3O5)2
_symmetry_space_group_name_H-M   'P 1'
_cell_length_a   9.09301600
_cell_length_b   9.61542300
_cell_length_c   10.73146800
_cell_angle_alpha   90.00000000
_cell_angle_beta   90.00000000
_cell_angle_gamma   90.00000000
_symmetry_Int_Tables_number   1
_chemical_formula_structural   Ba(Mo3O5)2
_chemical_formula_sum   'Ba4 Mo24 O40'
_cell_volume   938.28653627
_cell_formula_units_Z   4
loop_
 _symmetry_equiv_pos_site_id
 _symmetry_equiv_pos_as_xyz
  1  'x, y, z'
loop_
 _atom_site_type_symbol
 _atom_site_label
 _atom_site_symmetry_multiplicity
 _atom_site_fract_x
 _atom_site_fract_y
 _atom_site_fract_z
 _atom_site_occupancy
  Ba  Ba0  1  0.25000000  0.01421200  0.91021100  1
  Ba  Ba1  1  0.75000000  0.98578800  0.08978900  1
  Ba  Ba2  1  0.75000000  0.51421200  0.58978900  1
  Ba  Ba3  1  0.25000000  0.48578800  0.41021100  1
  Mo  Mo0  1  0.59804400  0.88933100  0.70792200  1
  Mo  Mo1  1  0.09804400  0.11066900  0.29207800  1
  Mo  Mo2  1  0.40195600  0.38933100  0.79207800  1
  Mo  Mo3  1  0.90195600  0.61066900  0.20792200  1
  Mo  Mo4  1  0.40195600  0.11066900  0.29207800  1
  Mo  Mo5  1  0.90195600  0.88933100  0.70792200  1
  Mo  Mo6  1  0.59804400  0.61066900  0.20792200  1
  Mo  Mo7  1  0.09804400  0.38933100  0.79207800  1
  Mo  Mo8  1  0.25000000  0.85771800  0.21707800  1
  Mo  Mo9  1  0.75000000  0.14228200  0.78292200  1
  Mo  Mo10  1  0.75000000  0.35771800  0.28292200  1
  Mo  Mo11  1  0.25000000  0.64228200  0.71707800  1
  Mo  Mo12  1  0.59219600  0.14069200  0.54887800  1
  Mo  Mo13  1  0.09219600  0.85930800  0.45112200  1
  Mo  Mo14  1  0.40780400  0.64069200  0.95112200  1
  Mo  Mo15  1  0.90780400  0.35930800  0.04887800  1
  Mo  Mo16  1  0.40780400  0.85930800  0.45112200  1
  Mo  Mo17  1  0.90780400  0.14069200  0.54887800  1
  Mo  Mo18  1  0.59219600  0.35930800  0.04887800  1
  Mo  Mo19  1  0.09219600  0.64069200  0.95112200  1
  Mo  Mo20  1  0.25000000  0.13157700  0.55938400  1
  Mo  Mo21  1  0.75000000  0.86842300  0.44061600  1
  Mo  Mo22  1  0.75000000  0.63157700  0.94061600  1
  Mo  Mo23  1  0.25000000  0.36842300  0.05938400  1
  O  O0  1  0.59539900  0.00949300  0.85674300  1
  O  O1  1  0.09539900  0.99050700  0.14325700  1
  O  O2  1  0.40460100  0.50949300  0.64325700  1
  O  O3  1  0.90460100  0.49050700  0.35674300  1
  O  O4  1  0.40460100  0.99050700  0.14325700  1
  O  O5  1  0.90460100  0.00949300  0.85674300  1
  O  O6  1  0.59539900  0.49050700  0.35674300  1
  O  O7  1  0.09539900  0.50949300  0.64325700  1
  O  O8  1  0.25000000  0.73590400  0.53472000  1
  O  O9  1  0.75000000  0.26409600  0.46528000  1
  O  O10  1  0.75000000  0.23590400  0.96528000  1
  O  O11  1  0.25000000  0.76409600  0.03472000  1
  O  O12  1  0.57123800  0.00324500  0.38189000  1
  O  O13  1  0.07123800  0.99675500  0.61811000  1
  O  O14  1  0.42876200  0.50324500  0.11811000  1
  O  O15  1  0.92876200  0.49675500  0.88189000  1
  O  O16  1  0.58485500  0.23247900  0.21215500  1
  O  O17  1  0.42876200  0.99675500  0.61811000  1
  O  O18  1  0.57123800  0.49675500  0.88189000  1
  O  O19  1  0.07123800  0.50324500  0.11811000  1
  O  O20  1  0.25000000  0.25349500  0.72440000  1
  O  O21  1  0.75000000  0.74650500  0.27560000  1
  O  O22  1  0.75000000  0.75349500  0.77560000  1
  O  O23  1  0.25000000  0.24650500  0.22440000  1
  O  O24  1  0.41514500  0.76752100  0.78784500  1
  O  O25  1  0.91514500  0.23247900  0.21215500  1
  O  O26  1  0.58485500  0.26752100  0.71215500  1
  O  O27  1  0.08485500  0.73247900  0.28784500  1
  O  O28  1  0.08617900  0.26567500  0.95712000  1
  O  O29  1  0.58617900  0.73432500  0.04288000  1
  O  O30  1  0.91382100  0.76567500  0.54288000  1
  O  O31  1  0.41382100  0.23432500  0.45712000  1
  O  O32  1  0.91382100  0.73432500  0.04288000  1
  O  O33  1  0.41382100  0.26567500  0.95712000  1
  O  O34  1  0.08617900  0.23432500  0.45712000  1
  O  O35  1  0.58617900  0.76567500  0.54288000  1
  O  O36  1  0.91514500  0.26752100  0.71215500  1
  O  O37  1  0.41514500  0.73247900  0.28784500  1
  O  O38  1  0.08485500  0.76752100  0.78784500  1
  O  O39  1  0.92876200  0.00324500  0.38189000  1
loop_
_geom_bond_atom_site_label_1
_geom_bond_atom_site_label_2
_geom_bond_distance
_geom_bond_site_symmetry_2
Ba0 O11 2.751222 1_546
Ba0 O1 2.877990 1_546
Ba0 O4 2.877990 1_546
Ba0 O33 2.884225 1_555
Ba0 O28 2.884225 1_555
Ba0 O20 3.044643 1_555
Ba0 O38 3.099351 1_545
Ba0 O24 3.099351 1_545
Ba0 O5 3.193025 1_455
Ba0 O0 3.193025 1_555
Ba1 O10 2.751222 1_564
Ba1 O0 2.877990 1_564
Ba1 O5 2.877990 1_564
Ba1 O29 2.884225 1_555
Ba1 O32 2.884225 1_555
Ba1 O21 3.044643 1_555
Ba1 O16 3.099351 1_565
Ba1 O25 3.099351 1_565
Ba1 O4 3.193025 1_555
Ba1 O1 3.193025 1_655
Ba2 O9 2.751222 1_555
Ba2 O6 2.877990 1_555
Ba2 O3 2.877990 1_555
Ba2 O30 2.884225 1_555
Ba2 O35 2.884225 1_555
Ba2 O22 3.044643 1_555
Ba2 O36 3.099351 1_555
Ba2 O26 3.099351 1_555
Ba2 O7 3.193025 1_655
Ba2 O2 3.193025 1_555
Ba3 O8 2.751222 1_555
Ba3 O2 2.877990 1_555
Ba3 O7 2.877990 1_555
Ba3 O31 2.884225 1_555
Ba3 O34 2.884225 1_555
Ba3 O23 3.044643 1_555
Ba3 O37 3.099351 1_555
Ba3 O27 3.099351 1_555
Ba3 O3 3.193025 1_455
Ba3 O6 3.193025 1_555
Mo0 O0 1.971338 1_565
Mo0 O22 2.035348 1_555
Mo0 O17 2.089323 1_555
Mo0 O35 2.135959 1_555
Mo0 O24 2.207574 1_555
Mo1 O1 1.971338 1_545
Mo1 O23 2.035348 1_555
Mo1 O39 2.089323 1_455
Mo1 O34 2.135959 1_555
Mo1 O25 2.207574 1_455
Mo2 O2 1.971338 1_555
Mo2 O20 2.035348 1_555
Mo2 O18 2.089323 1_555
Mo2 O33 2.135959 1_555
Mo2 O26 2.207574 1_555
Mo3 O3 1.971338 1_555
Mo3 O21 2.035348 1_555
Mo3 O19 2.089323 1_655
Mo3 O32 2.135959 1_555
Mo3 O27 2.207574 1_655
Mo4 O4 1.971338 1_545
Mo4 O23 2.035348 1_555
Mo4 O12 2.089323 1_555
Mo4 O31 2.135959 1_555
Mo4 O16 2.207574 1_555
Mo5 O5 1.971338 1_565
Mo5 O22 2.035348 1_555
Mo5 O13 2.089323 1_655
Mo5 O30 2.135959 1_555
Mo5 O38 2.207574 1_655
Mo6 O6 1.971338 1_555
Mo6 O21 2.035348 1_555
Mo6 O14 2.089323 1_555
Mo6 O29 2.135959 1_555
Mo6 O37 2.207574 1_555
Mo7 O7 1.971338 1_555
Mo7 O20 2.035348 1_555
Mo7 O15 2.089323 1_455
Mo7 O28 2.135959 1_555
Mo7 O36 2.207574 1_455
Mo8 O4 2.057696 1_555
Mo8 O1 2.057696 1_555
Mo8 O27 2.069275 1_555
Mo8 O37 2.069275 1_555
Mo8 O11 2.154093 1_555
Mo9 O5 2.057696 1_555
Mo9 O0 2.057696 1_555
Mo9 O36 2.069275 1_555
Mo9 O26 2.069275 1_555
Mo9 O10 2.154093 1_555
Mo10 O6 2.057696 1_555
Mo10 O3 2.057696 1_555
Mo10 O25 2.069275 1_555
Mo10 O16 2.069275 1_555
Mo10 O9 2.154093 1_555
Mo11 O2 2.057696 1_555
Mo11 O7 2.057696 1_555
Mo11 O24 2.069275 1_555
Mo11 O38 2.069275 1_555
Mo11 O8 2.154093 1_555
Mo12 O9 2.066832 1_555
Mo12 O31 2.100234 1_555
Mo12 O26 2.135856 1_555
Mo12 O17 2.162407 1_545
Mo12 O12 2.234800 1_555
Mo13 O8 2.066832 1_555
Mo13 O30 2.100234 1_455
Mo13 O27 2.135856 1_555
Mo13 O39 2.162407 1_465
Mo13 O13 2.234800 1_555
Mo14 O11 2.066832 1_556
Mo14 O29 2.100234 1_556
Mo14 O24 2.135856 1_555
Mo14 O18 2.162407 1_555
Mo14 O14 2.234800 1_556
Mo15 O10 2.066832 1_554
Mo15 O28 2.100234 1_654
Mo15 O25 2.135856 1_555
Mo15 O19 2.162407 1_655
Mo15 O15 2.234800 1_554
Mo16 O8 2.066832 1_555
Mo16 O35 2.100234 1_555
Mo16 O37 2.135856 1_555
Mo16 O12 2.162407 1_565
Mo16 O17 2.234800 1_555
Mo17 O9 2.066832 1_555
Mo17 O34 2.100234 1_655
Mo17 O36 2.135856 1_555
Mo17 O13 2.162407 1_645
Mo17 O39 2.234800 1_555
Mo18 O10 2.066832 1_554
Mo18 O33 2.100234 1_554
Mo18 O16 2.135856 1_555
Mo18 O14 2.162407 1_555
Mo18 O18 2.234800 1_554
Mo19 O11 2.066832 1_556
Mo19 O32 2.100234 1_456
Mo19 O38 2.135856 1_555
Mo19 O15 2.162407 1_455
Mo19 O19 2.234800 1_556
Mo20 O31 2.097485 1_555
Mo20 O34 2.097485 1_555
Mo20 O20 2.123730 1_555
Mo20 O17 2.172545 1_545
Mo20 O13 2.172545 1_545
Mo21 O30 2.097485 1_555
Mo21 O35 2.097485 1_555
Mo21 O21 2.123730 1_555
Mo21 O39 2.172545 1_565
Mo21 O12 2.172545 1_565
Mo22 O32 2.097485 1_556
Mo22 O29 2.097485 1_556
Mo22 O22 2.123730 1_555
Mo22 O18 2.172545 1_555
Mo22 O15 2.172545 1_555
Mo23 O33 2.097485 1_554
Mo23 O28 2.097485 1_554
Mo23 O23 2.123730 1_555
Mo23 O14 2.172545 1_555
Mo23 O19 2.172545 1_555
