# generated using pymatgen
data_SbRh2
_symmetry_space_group_name_H-M   'P 1'
_cell_length_a   4.17632904
_cell_length_b   5.80688297
_cell_length_c   7.96790057
_cell_angle_alpha   90.00000000
_cell_angle_beta   90.00000000
_cell_angle_gamma   90.00000000
_symmetry_Int_Tables_number   1
_chemical_formula_structural   SbRh2
_chemical_formula_sum   'Sb4 Rh8'
_cell_volume   193.23317399
_cell_formula_units_Z   4
loop_
 _symmetry_equiv_pos_site_id
 _symmetry_equiv_pos_as_xyz
  1  'x, y, z'
loop_
 _atom_site_type_symbol
 _atom_site_label
 _atom_site_symmetry_multiplicity
 _atom_site_fract_x
 _atom_site_fract_y
 _atom_site_fract_z
 _atom_site_occupancy
  Sb  Sb0  1  0.75000000  0.71774521  0.89225968  1
  Sb  Sb1  1  0.25000000  0.28225479  0.10774032  1
  Sb  Sb2  1  0.75000000  0.21774521  0.60774032  1
  Sb  Sb3  1  0.25000000  0.78225479  0.39225968  1
  Rh  Rh0  1  0.75000000  0.15881279  0.93027190  1
  Rh  Rh1  1  0.25000000  0.84118721  0.06972810  1
  Rh  Rh2  1  0.75000000  0.65881279  0.56972810  1
  Rh  Rh3  1  0.25000000  0.34118721  0.43027190  1
  Rh  Rh4  1  0.75000000  0.03858116  0.30119693  1
  Rh  Rh5  1  0.25000000  0.96141884  0.69880307  1
  Rh  Rh6  1  0.75000000  0.53858116  0.19880307  1
  Rh  Rh7  1  0.25000000  0.46141884  0.80119693  1
loop_
_geom_bond_atom_site_label_1
_geom_bond_atom_site_label_2
_geom_bond_distance
_geom_bond_site_symmetry_2
Rh0 Sb0 2.579074 1_545
Rh0 Sb2 2.592584 1_555
Rh0 Sb1 2.621792 1_656
Rh0 Sb1 2.621792 1_556
Rh0 Sb0 3.259756 1_555
Rh1 Sb1 2.579074 1_565
Rh1 Sb3 2.592584 1_555
Rh1 Sb0 2.621792 1_554
Rh1 Sb0 2.621792 1_454
Rh1 Sb1 3.259756 1_555
Rh2 Sb2 2.579074 1_555
Rh2 Sb0 2.592584 1_555
Rh2 Sb3 2.621792 1_555
Rh2 Sb3 2.621792 1_655
Rh2 Sb2 3.259756 1_565
Rh3 Sb3 2.579074 1_555
Rh3 Sb1 2.592584 1_555
Rh3 Sb2 2.621792 1_555
Rh3 Sb2 2.621792 1_455
Rh3 Sb3 3.259756 1_545
Rh4 Sb2 2.654853 1_555
Rh4 Sb3 2.665033 1_545
Rh4 Sb3 2.665033 1_645
Rh4 Sb1 2.956122 1_555
Rh4 Sb1 2.956122 1_655
Rh5 Sb3 2.654853 1_555
Rh5 Sb2 2.665033 1_565
Rh5 Sb2 2.665033 1_465
Rh5 Sb0 2.956122 1_455
Rh5 Sb0 2.956122 1_555
Rh6 Sb0 2.654853 1_554
Rh6 Sb1 2.665033 1_555
Rh6 Sb1 2.665033 1_655
Rh6 Sb3 2.956122 1_655
Rh6 Sb3 2.956122 1_555
Rh7 Sb1 2.654853 1_556
Rh7 Sb0 2.665033 1_455
Rh7 Sb0 2.665033 1_555
Rh7 Sb2 2.956122 1_455
Rh7 Sb2 2.956122 1_555
