# generated using pymatgen
data_Sr3MgFe2Br2O5
_symmetry_space_group_name_H-M   'P 1'
_cell_length_a   3.98458420
_cell_length_b   3.98458514
_cell_length_c   17.02571927
_cell_angle_alpha   96.57158388
_cell_angle_beta   96.57173453
_cell_angle_gamma   89.97289388
_symmetry_Int_Tables_number   1
_chemical_formula_structural   Sr3MgFe2Br2O5
_chemical_formula_sum   'Sr3 Mg1 Fe2 Br2 O5'
_cell_volume   266.75351556
_cell_formula_units_Z   1
loop_
 _symmetry_equiv_pos_site_id
 _symmetry_equiv_pos_as_xyz
  1  'x, y, z'
loop_
 _atom_site_type_symbol
 _atom_site_label
 _atom_site_symmetry_multiplicity
 _atom_site_fract_x
 _atom_site_fract_y
 _atom_site_fract_z
 _atom_site_occupancy
  Sr  Sr0  1  0.88871784  0.88989504  0.77465873  1
  Sr  Sr1  1  0.11010895  0.11128116  0.22534027  1
  Sr  Sr2  1  -0.00080451  0.00080351  -0.00000000  1
  Mg  Mg0  1  0.25771374  0.74228626  0.50000000  1
  Fe  Fe0  1  0.44252170  0.44378684  0.88458266  1
  Fe  Fe1  1  0.55621116  0.55748330  0.11541734  1
  Br  Br0  1  0.34383716  0.34521122  0.68099052  1
  Br  Br1  1  0.65478779  0.65616183  0.31900848  1
  O  O0  1  0.06527483  0.56621527  0.13347086  1
  O  O1  1  0.93359835  0.43504405  0.86636997  1
  O  O2  1  0.43378372  0.93472317  0.86652914  1
  O  O3  1  0.49929231  0.50070569  0.00000000  1
  O  O4  1  0.56495596  0.06640065  0.13363003  1
loop_
_geom_bond_atom_site_label_1
_geom_bond_atom_site_label_2
_geom_bond_distance
_geom_bond_site_symmetry_2
Fe0 O3 1.939168 1_556
Fe0 O2 2.014307 1_555
Fe0 O1 2.015571 1_555
Fe0 O1 2.015738 1_455
Fe0 O2 2.016194 1_545
Fe1 O3 1.939168 1_555
Fe1 O0 2.014308 1_555
Fe1 O4 2.015595 1_555
Fe1 O4 2.015715 1_565
Fe1 O0 2.016193 1_655
Br0 Sr0 3.222907 1_555
Br0 Sr0 3.226193 1_455
Br0 Sr0 3.227156 1_545
Br0 Sr0 3.232762 1_445
Br1 Sr1 3.222895 1_555
Br1 Sr1 3.226176 1_565
Br1 Sr1 3.227174 1_655
Br1 Sr1 3.232774 1_665
O0 Sr1 2.519750 1_555
O0 Sr1 2.520771 1_565
O0 Sr2 2.999205 1_565
O0 Sr2 3.000129 1_555
O1 Sr0 2.517617 1_555
O1 Sr0 2.519651 1_545
O1 Sr2 3.000491 1_656
O1 Sr2 3.002840 1_666
O2 Sr0 2.519765 1_555
O2 Sr0 2.520776 1_455
O2 Sr2 2.999209 1_566
O2 Sr2 3.000125 1_666
O3 Sr2 2.816312 1_655
O3 Sr2 2.817409 1_565
O3 Sr2 2.818190 1_555
O3 Sr2 2.818196 1_665
O4 Sr1 2.517596 1_555
O4 Sr1 2.519651 1_655
O4 Sr2 3.000492 1_655
O4 Sr2 3.002839 1_555
