# generated using pymatgen
data_Na2Li2FeO4
_symmetry_space_group_name_H-M   'P 1'
_cell_length_a   8.19776200
_cell_length_b   6.63691200
_cell_length_c   10.42502456
_cell_angle_alpha   50.40554024
_cell_angle_beta   90.00000000
_cell_angle_gamma   90.00000000
_symmetry_Int_Tables_number   1
_chemical_formula_structural   Na2Li2FeO4
_chemical_formula_sum   'Na8 Li8 Fe4 O16'
_cell_volume   437.07231300
_cell_formula_units_Z   4
loop_
 _symmetry_equiv_pos_site_id
 _symmetry_equiv_pos_as_xyz
  1  'x, y, z'
loop_
 _atom_site_type_symbol
 _atom_site_label
 _atom_site_symmetry_multiplicity
 _atom_site_fract_x
 _atom_site_fract_y
 _atom_site_fract_z
 _atom_site_occupancy
  Na  Na0  1  0.97384000  0.24577900  0.49694300  1
  Na  Na1  1  0.74581300  0.75943300  0.75401600  1
  Na  Na2  1  0.52616000  0.24577900  0.99694300  1
  Na  Na3  1  0.25418700  0.24056700  0.24598400  1
  Na  Na4  1  0.24581300  0.24056700  0.74598400  1
  Na  Na5  1  0.02616000  0.75422100  0.50305700  1
  Na  Na6  1  0.47384000  0.75422100  0.00305700  1
  Na  Na7  1  0.75418700  0.75943300  0.25401600  1
  Li  Li0  1  0.91503200  0.26975900  0.20121800  1
  Li  Li1  1  0.85849800  0.74227600  0.01099100  1
  Li  Li2  1  0.64150200  0.74227600  0.51099100  1
  Li  Li3  1  0.58496800  0.26975900  0.70121800  1
  Li  Li4  1  0.08496800  0.73024100  0.79878200  1
  Li  Li5  1  0.14150200  0.25772400  0.98900900  1
  Li  Li6  1  0.35849800  0.25772400  0.48900900  1
  Li  Li7  1  0.41503200  0.73024100  0.29878200  1
  Fe  Fe0  1  0.87460400  0.24081000  0.78137300  1
  Fe  Fe1  1  0.62539600  0.24081000  0.28137300  1
  Fe  Fe2  1  0.37460400  0.75919000  0.71862700  1
  Fe  Fe3  1  0.12539600  0.75919000  0.21862700  1
  O  O0  1  0.96075800  0.97861800  0.78877900  1
  O  O1  1  0.77495300  0.04407200  0.44789600  1
  O  O2  1  0.99105500  0.45614400  0.79865000  1
  O  O3  1  0.79084800  0.46404300  0.56849000  1
  O  O4  1  0.50894500  0.45614400  0.29865000  1
  O  O5  1  0.53924200  0.97861800  0.28877900  1
  O  O6  1  0.49105500  0.54385600  0.70135000  1
  O  O7  1  0.20915200  0.53595700  0.43151000  1
  O  O8  1  0.46075800  0.02138200  0.71122100  1
  O  O9  1  0.27495300  0.95592800  0.05210400  1
  O  O10  1  0.70915200  0.46404300  0.06849000  1
  O  O11  1  0.29084800  0.53595700  0.93151000  1
  O  O12  1  0.03924200  0.02138200  0.21122100  1
  O  O13  1  0.00894500  0.54385600  0.20135000  1
  O  O14  1  0.22504700  0.95592800  0.55210400  1
  O  O15  1  0.72504700  0.04407200  0.94789600  1
loop_
_geom_bond_atom_site_label_1
_geom_bond_atom_site_label_2
_geom_bond_distance
_geom_bond_site_symmetry_2
Na0 O0 2.352706 1_545
Na0 O1 2.363139 1_555
Na0 O13 2.391994 1_655
Na0 O7 2.494176 1_655
Na0 O3 2.506479 1_555
Na0 O14 2.619562 1_645
Na1 O0 2.454470 1_555
Na1 O1 2.474960 1_565
Na1 O10 2.547335 1_556
Na1 O2 2.667626 1_555
Na1 O8 2.773723 1_565
Na1 O6 2.776957 1_555
Na2 O5 2.352706 1_546
Na2 O15 2.363139 1_555
Na2 O6 2.391994 1_555
Na2 O11 2.494176 1_555
Na2 O10 2.506479 1_556
Na2 O9 2.619562 1_546
Na3 O12 2.454470 1_555
Na3 O14 2.474960 1_545
Na3 O11 2.547335 1_554
Na3 O13 2.667626 1_555
Na3 O5 2.773723 1_545
Na3 O4 2.776957 1_555
Na4 O8 2.454470 1_555
Na4 O9 2.474960 1_546
Na4 O7 2.547335 1_555
Na4 O6 2.667626 1_555
Na4 O0 2.773723 1_445
Na4 O2 2.776957 1_455
Na5 O12 2.352706 1_565
Na5 O14 2.363139 1_555
Na5 O2 2.391994 1_455
Na5 O3 2.494176 1_455
Na5 O7 2.506479 1_555
Na5 O1 2.619562 1_465
Na6 O8 2.352706 1_564
Na6 O9 2.363139 1_555
Na6 O4 2.391994 1_555
Na6 O10 2.494176 1_555
Na6 O11 2.506479 1_554
Na6 O15 2.619562 1_564
Na7 O5 2.454470 1_555
Na7 O15 2.474960 1_564
Na7 O3 2.547335 1_555
Na7 O4 2.667626 1_555
Na7 O12 2.773723 1_665
Na7 O13 2.776957 1_655
Li0 O12 1.883077 1_655
Li0 O13 1.976167 1_655
Li0 O10 2.037518 1_555
Li0 O1 2.294657 1_555
Li1 O10 1.963980 1_555
Li1 O13 1.965267 1_655
Li1 O0 1.974278 1_554
Li1 O15 1.990491 1_564
Li2 O3 1.963980 1_555
Li2 O6 1.965267 1_555
Li2 O5 1.974278 1_555
Li2 O1 1.990491 1_565
Li3 O8 1.883077 1_555
Li3 O6 1.976167 1_555
Li3 O3 2.037518 1_555
Li3 O15 2.294657 1_555
Li4 O0 1.883077 1_455
Li4 O2 1.976167 1_455
Li4 O11 2.037518 1_555
Li4 O14 2.294657 1_555
Li5 O11 1.963980 1_555
Li5 O2 1.965267 1_455
Li5 O12 1.974278 1_556
Li5 O9 1.990491 1_546
Li6 O7 1.963980 1_555
Li6 O4 1.965267 1_555
Li6 O8 1.974278 1_555
Li6 O14 1.990491 1_545
Li7 O5 1.883077 1_555
Li7 O4 1.976167 1_555
Li7 O7 2.037518 1_555
Li7 O9 2.294657 1_555
Fe0 O2 1.820541 1_555
Fe0 O15 1.825479 1_555
Fe0 O0 1.833473 1_545
Fe0 O3 1.844054 1_555
Fe1 O4 1.820541 1_555
Fe1 O1 1.825479 1_555
Fe1 O5 1.833473 1_545
Fe1 O10 1.844054 1_555
Fe2 O6 1.820541 1_555
Fe2 O14 1.825479 1_555
Fe2 O8 1.833473 1_565
Fe2 O11 1.844054 1_555
Fe3 O13 1.820541 1_555
Fe3 O9 1.825479 1_555
Fe3 O12 1.833473 1_565
Fe3 O7 1.844054 1_555
