# generated using pymatgen
data_BNCl2
_symmetry_space_group_name_H-M   'P 1'
_cell_length_a   6.45173050
_cell_length_b   6.45173050
_cell_length_c   6.45173075
_cell_angle_alpha   89.76756119
_cell_angle_beta   89.76756119
_cell_angle_gamma   89.76755447
_symmetry_Int_Tables_number   1
_chemical_formula_structural   BNCl2
_chemical_formula_sum   'B3 N3 Cl6'
_cell_volume   268.54556079
_cell_formula_units_Z   3
loop_
 _symmetry_equiv_pos_site_id
 _symmetry_equiv_pos_as_xyz
  1  'x, y, z'
loop_
 _atom_site_type_symbol
 _atom_site_label
 _atom_site_symmetry_multiplicity
 _atom_site_fract_x
 _atom_site_fract_y
 _atom_site_fract_z
 _atom_site_occupancy
  B  B0  1  0.93468800  0.18266000  0.87798000  1
  B  B1  1  0.18266000  0.87798000  0.93468800  1
  B  B2  1  0.87798000  0.93468800  0.18266000  1
  N  N0  1  0.06028800  0.82270700  0.11453600  1
  N  N1  1  0.82270700  0.11453600  0.06028800  1
  N  N2  1  0.11453600  0.06028800  0.82270700  1
  Cl  Cl0  1  0.85681400  0.39738000  0.73154800  1
  Cl  Cl1  1  0.39738000  0.73154800  0.85681400  1
  Cl  Cl2  1  0.73154800  0.85681400  0.39738000  1
  Cl  Cl3  1  0.13404400  0.61006600  0.25628800  1
  Cl  Cl4  1  0.61006600  0.25628800  0.13404400  1
  Cl  Cl5  1  0.25628800  0.13404400  0.61006600  1
loop_
_geom_bond_atom_site_label_1
_geom_bond_atom_site_label_2
_geom_bond_distance
_geom_bond_site_symmetry_2
B0 N2 1.445115 1_655
B0 N1 1.445711 1_556
B0 Cl0 1.746896 1_555
B1 N0 1.445115 1_556
B1 N2 1.445711 1_565
B1 Cl1 1.746896 1_555
B2 N1 1.445115 1_565
B2 N0 1.445711 1_655
B2 Cl2 1.746896 1_555
Cl3 N0 1.712601 1_555
Cl4 N1 1.712601 1_555
Cl5 N2 1.712601 1_555
