# generated using pymatgen
data_La2MgZnBiO6
_symmetry_space_group_name_H-M   'P 1'
_cell_length_a   6.62785755
_cell_length_b   6.88474124
_cell_length_c   5.92393548
_cell_angle_alpha   62.19990018
_cell_angle_beta   62.69166975
_cell_angle_gamma   56.03762025
_symmetry_Int_Tables_number   1
_chemical_formula_structural   La2MgZnBiO6
_chemical_formula_sum   'La2 Mg1 Zn1 Bi1 O6'
_cell_volume   190.94748875
_cell_formula_units_Z   1
loop_
 _symmetry_equiv_pos_site_id
 _symmetry_equiv_pos_as_xyz
  1  'x, y, z'
loop_
 _atom_site_type_symbol
 _atom_site_label
 _atom_site_symmetry_multiplicity
 _atom_site_fract_x
 _atom_site_fract_y
 _atom_site_fract_z
 _atom_site_occupancy
  La  La0  1  0.73143401  0.65435083  0.67732029  1
  La  La1  1  0.34537746  0.29704090  0.25957187  1
  Mg  Mg0  1  0.86441621  0.17624558  0.55197607  1
  Zn  Zn0  1  0.33157228  0.60770807  0.56604530  1
  Bi  Bi0  1  0.09860279  0.01664845  0.03220644  1
  O  O0  1  0.40331604  0.65538528  0.15623238  1
  O  O1  1  0.76589064  0.03483538  0.41647760  1
  O  O2  1  0.14291123  0.42058767  0.68100377  1
  O  O3  1  0.57532333  0.36179171  0.80213132  1
  O  O4  1  0.92263572  0.47638376  0.33441426  1
  O  O5  1  0.24560329  0.93443937  0.57470370  1
loop_
_geom_bond_atom_site_label_1
_geom_bond_atom_site_label_2
_geom_bond_distance
_geom_bond_site_symmetry_2
La0 O2 2.268516 1_655
La0 O4 2.336310 1_555
La0 O1 2.422971 1_565
La0 O3 2.431385 1_555
La0 O0 2.668088 1_556
La0 O5 2.867325 1_555
La1 O4 2.253235 1_455
La1 O3 2.389049 1_554
La1 O0 2.458228 1_555
La1 O2 2.527538 1_555
La1 O5 2.553254 1_545
La1 O1 2.661036 1_555
Mg0 O3 1.981132 1_555
Mg0 O1 1.984638 1_555
Mg0 O4 2.007551 1_555
Mg0 O5 2.139225 1_645
Bi0 O0 2.202129 1_545
Bi0 O1 2.326330 1_455
Bi0 O5 2.647021 1_544
Bi0 O2 2.665279 1_554
O0 Zn0 2.144636 1_555
O2 Zn0 1.971578 1_555
O3 Zn0 2.059334 1_555
O5 Zn0 2.009007 1_555
