# generated using pymatgen
data_Ba2Mg(NiO3)2
_symmetry_space_group_name_H-M   'P 1'
_cell_length_a   5.70330000
_cell_length_b   5.70329891
_cell_length_c   5.57419900
_cell_angle_alpha   90.00000000
_cell_angle_beta   90.00000000
_cell_angle_gamma   119.99999474
_symmetry_Int_Tables_number   1
_chemical_formula_structural   Ba2Mg(NiO3)2
_chemical_formula_sum   'Ba2 Mg1 Ni2 O6'
_cell_volume   157.02379655
_cell_formula_units_Z   1
loop_
 _symmetry_equiv_pos_site_id
 _symmetry_equiv_pos_as_xyz
  1  'x, y, z'
loop_
 _atom_site_type_symbol
 _atom_site_label
 _atom_site_symmetry_multiplicity
 _atom_site_fract_x
 _atom_site_fract_y
 _atom_site_fract_z
 _atom_site_occupancy
  Ba  Ba0  1  0.66666700  0.33333400  0.84253900  1
  Ba  Ba1  1  0.33333300  0.66666600  0.32288500  1
  Mg  Mg0  1  0.66666700  0.33333300  0.34595900  1
  Ni  Ni0  1  0.00000000  0.00000000  0.47017800  1
  Ni  Ni1  1  0.00000000  0.00000000  0.96314200  1
  O  O0  1  0.84532500  0.15467500  0.22768500  1
  O  O1  1  0.70279400  0.85139800  0.68500700  1
  O  O2  1  0.14860300  0.29720600  0.68500700  1
  O  O3  1  0.84532400  0.69064900  0.22768500  1
  O  O4  1  0.14860300  0.85139800  0.68500700  1
  O  O5  1  0.30934900  0.15467500  0.22768500  1
loop_
_geom_bond_atom_site_label_1
_geom_bond_atom_site_label_2
_geom_bond_distance
_geom_bond_site_symmetry_2
Ba0 Mg0 2.768036 1_555
Ba0 O3 2.779172 1_556
Ba0 O0 2.779178 1_556
Ba0 O5 2.779181 1_556
Ba0 O1 2.989116 1_545
Ba0 O4 2.989119 1_655
Ba0 O2 2.989119 1_655
Ba0 O4 2.989119 1_545
Ba0 O2 2.989120 1_555
Ba0 O1 2.989121 1_555
Ba1 O2 2.721128 1_555
Ba1 O1 2.721131 1_555
Ba1 O4 2.721134 1_555
Ba1 O5 2.903017 1_555
Ba1 O0 2.903020 1_455
Ba1 O3 2.903020 1_555
Ba1 O3 2.903026 1_455
Ba1 O0 2.903026 1_565
Ba1 O5 2.903028 1_565
Mg0 O3 1.883977 1_555
Mg0 O0 1.883977 1_555
Mg0 O5 1.883987 1_555
Ni0 O4 1.894439 1_545
Ni0 O2 1.894443 1_555
Ni0 O1 1.894443 1_445
Ni0 O5 2.040024 1_555
Ni0 O0 2.040027 1_455
Ni0 O3 2.040031 1_445
Ni1 O5 2.123460 1_556
Ni1 O0 2.123464 1_456
Ni1 O3 2.123467 1_446
Ni1 O4 2.135081 1_545
Ni1 O2 2.135084 1_555
Ni1 O1 2.135085 1_445
