# generated using pymatgen
data_Na6Mg5TaP3(SO6)6
_symmetry_space_group_name_H-M   'P 1'
_cell_length_a   8.81039387
_cell_length_b   8.82078702
_cell_length_c   22.44673673
_cell_angle_alpha   89.94885819
_cell_angle_beta   90.00000000
_cell_angle_gamma   119.96103121
_symmetry_Int_Tables_number   1
_chemical_formula_structural   Na6Mg5TaP3(SO6)6
_chemical_formula_sum   'Na12 Mg10 Ta2 P6 S12 O72'
_cell_volume   1511.32086047
_cell_formula_units_Z   2
loop_
 _symmetry_equiv_pos_site_id
 _symmetry_equiv_pos_as_xyz
  1  'x, y, z'
loop_
 _atom_site_type_symbol
 _atom_site_label
 _atom_site_symmetry_multiplicity
 _atom_site_fract_x
 _atom_site_fract_y
 _atom_site_fract_z
 _atom_site_occupancy
  Na  Na0  1  0.30314922  0.33469357  0.58132248  1
  Na  Na1  1  0.66979485  0.97164282  0.58895291  1
  Na  Na2  1  0.30184897  0.97164282  0.08895291  1
  Na  Na3  1  0.03154534  0.33469357  0.08132248  1
  Na  Na4  1  0.96496960  0.66378218  0.91177079  1
  Na  Na5  1  0.69881158  0.66378218  0.41177079  1
  Na  Na6  1  0.01770178  0.00831341  0.49607441  1
  Na  Na7  1  0.99061163  0.00831341  0.99607441  1
  Na  Na8  1  0.67296973  0.32416888  0.82816217  1
  Na  Na9  1  0.65120015  0.32416888  0.32816217  1
  Na  Na10  1  0.35076613  0.67443669  0.16621328  1
  Na  Na11  1  0.32366956  0.67443669  0.66621328  1
  Mg  Mg0  1  0.01285343  0.00644100  0.34855880  1
  Mg  Mg1  1  0.99358757  0.00644100  0.84855880  1
  Mg  Mg2  1  0.99292729  0.98679079  0.65547309  1
  Mg  Mg3  1  0.99386350  0.98679079  0.15547309  1
  Mg  Mg4  1  0.67623668  0.33595364  0.68879221  1
  Mg  Mg5  1  0.65971796  0.33595364  0.18879221  1
  Mg  Mg6  1  0.66771758  0.32962389  0.97979632  1
  Mg  Mg7  1  0.66190731  0.32962389  0.47979632  1
  Mg  Mg8  1  0.33737335  0.66124116  0.01560605  1
  Mg  Mg9  1  0.32386681  0.66124116  0.51560605  1
  Ta  Ta0  1  0.33623870  0.66467655  0.31099993  1
  Ta  Ta1  1  0.32843685  0.66467655  0.81099993  1
  P  P0  1  0.29589090  0.00509202  0.24921053  1
  P  P1  1  0.71635301  0.70734096  0.25255661  1
  P  P2  1  0.99098795  0.70734096  0.75255661  1
  P  P3  1  0.70920113  0.00509202  0.74921053  1
  P  P4  1  0.03990706  0.36787359  0.91962956  1
  P  P5  1  0.32796553  0.36787359  0.41962956  1
  S  S0  1  0.99584772  0.28984916  0.24952814  1
  S  S1  1  0.29400144  0.28984916  0.74952814  1
  S  S2  1  0.95929990  0.33494970  0.58291677  1
  S  S3  1  0.37334212  0.04095744  0.58321419  1
  S  S4  1  0.66991115  0.62754476  0.58228069  1
  S  S5  1  0.95763460  0.62754476  0.08228069  1
  S  S6  1  0.66761633  0.04095744  0.08321419  1
  S  S7  1  0.37565080  0.33494970  0.08291677  1
  S  S8  1  0.62548319  0.66703262  0.91768850  1
  S  S9  1  0.33449177  0.96021068  0.91800726  1
  S  S10  1  0.62571791  0.96021068  0.41800726  1
  S  S11  1  0.04154843  0.66703262  0.41768850  1
  O  O0  1  0.20719351  0.02654193  0.30327446  1
  O  O1  1  0.81126920  0.78947027  0.31076611  1
  O  O2  1  0.97454449  0.18560713  0.30250102  1
  O  O3  1  0.21106265  0.18560713  0.80250102  1
  O  O4  1  0.97820107  0.78947027  0.81076611  1
  O  O5  1  0.81934843  0.02654193  0.80327446  1
  O  O6  1  0.77178555  0.96353967  0.69063097  1
  O  O7  1  0.18950205  0.22416230  0.69453413  1
  O  O8  1  0.03842072  0.82135987  0.69739129  1
  O  O9  1  0.78293915  0.82135987  0.19739129  1
  O  O10  1  0.03466025  0.22416230  0.19453413  1
  O  O11  1  0.19175413  0.96353967  0.19063097  1
  O  O12  1  0.87705989  0.35678020  0.63652998  1
  O  O13  1  0.48420581  0.12210656  0.63609298  1
  O  O14  1  0.63915247  0.51359471  0.63427472  1
  O  O15  1  0.87444323  0.51359471  0.13427472  1
  O  O16  1  0.63790175  0.12210656  0.13609298  1
  O  O17  1  0.47972131  0.35678020  0.13652998  1
  O  O18  1  0.45552135  0.30566434  0.02948239  1
  O  O19  1  0.85764411  0.54861562  0.02693122  1
  O  O20  1  0.69565681  0.15009977  0.02939503  1
  O  O21  1  0.45444396  0.15009977  0.52939503  1
  O  O22  1  0.69097251  0.54861562  0.52693122  1
  O  O23  1  0.85014399  0.30566434  0.52948239  1
  O  O24  1  0.54486686  0.69360063  0.97038462  1
  O  O25  1  0.14481324  0.45447247  0.97620765  1
  O  O26  1  0.30741526  0.85216425  0.97170998  1
  O  O27  1  0.54474799  0.85216425  0.47170998  1
  O  O28  1  0.30965823  0.45447247  0.47620765  1
  O  O29  1  0.14873277  0.69360063  0.47038462  1
  O  O30  1  0.13134523  0.64648119  0.36344808  1
  O  O31  1  0.50976023  0.86785324  0.36439867  1
  O  O32  1  0.35218694  0.49818100  0.36499017  1
  O  O33  1  0.14599307  0.49818100  0.86499017  1
  O  O34  1  0.35809201  0.86785324  0.86439867  1
  O  O35  1  0.51513496  0.64648119  0.86344808  1
  O  O36  1  0.01651342  0.81996605  0.41120266  1
  O  O37  1  0.79669161  0.97050682  0.41005517  1
  O  O38  1  0.16620500  0.19025595  0.41049640  1
  O  O39  1  0.02405095  0.19025595  0.91049640  1
  O  O40  1  0.17381521  0.97050682  0.91005517  1
  O  O41  1  0.80345263  0.81996605  0.91120266  1
  O  O42  1  0.98142975  0.17600289  0.58807565  1
  O  O43  1  0.19783070  0.02601303  0.58927570  1
  O  O44  1  0.82434367  0.80649164  0.58776618  1
  O  O45  1  0.98214797  0.80649164  0.08776618  1
  O  O46  1  0.82818233  0.02601303  0.08927570  1
  O  O47  1  0.19457315  0.17600289  0.08807565  1
  O  O48  1  0.67094091  0.15475036  0.74373247  1
  O  O49  1  0.47144015  0.31977793  0.74291419  1
  O  O50  1  0.83761716  0.52233781  0.74577814  1
  O  O51  1  0.68472166  0.52233781  0.24577814  1
  O  O52  1  0.84833877  0.31977793  0.24291419  1
  O  O53  1  0.48381045  0.15475036  0.24373247  1
  O  O54  1  0.63967505  0.50660333  0.92093553  1
  O  O55  1  0.86341718  0.36690476  0.91949534  1
  O  O56  1  0.49201129  0.13299968  0.92104952  1
  O  O57  1  0.64098939  0.13299968  0.42104952  1
  O  O58  1  0.50348858  0.36690476  0.41949534  1
  O  O59  1  0.86692928  0.50660333  0.42093553  1
  O  O60  1  0.35140408  0.49081051  0.07781492  1
  O  O61  1  0.13938344  0.64847734  0.07798174  1
  O  O62  1  0.50681380  0.86458132  0.07639100  1
  O  O63  1  0.35776652  0.86458132  0.57639100  1
  O  O64  1  0.50909291  0.64847734  0.57798174  1
  O  O65  1  0.13940543  0.49081051  0.57781492  1
  O  O66  1  0.31100138  0.82961005  0.26124517  1
  O  O67  1  0.51941654  0.68529555  0.26124529  1
  O  O68  1  0.16157152  0.47373728  0.25817976  1
  O  O69  1  0.31216476  0.47373728  0.75817976  1
  O  O70  1  0.16587801  0.68529555  0.76124529  1
  O  O71  1  0.51860767  0.82961005  0.76124517  1
loop_
_geom_bond_atom_site_label_1
_geom_bond_atom_site_label_2
_geom_bond_distance
_geom_bond_site_symmetry_2
Na0 O43 2.404612 1_555
Na0 O64 2.437653 1_555
Na0 O65 2.442921 1_555
Na0 O42 2.460339 1_455
Na0 O28 2.573281 1_555
Na0 O7 2.726077 1_555
Na0 O21 2.820978 1_555
Na0 O14 2.829106 1_555
Na1 O42 2.417589 1_565
Na1 O63 2.436438 1_555
Na1 O44 2.440950 1_555
Na1 O6 2.466879 1_555
Na1 O64 2.482151 1_555
Na1 O13 2.779357 1_565
Na1 O27 2.845286 1_555
Na1 O23 2.881764 1_565
Na2 O47 2.417595 1_565
Na2 O62 2.436422 1_555
Na2 O45 2.440957 1_455
Na2 O11 2.466882 1_555
Na2 O61 2.482151 1_555
Na2 O16 2.779357 1_565
Na2 O26 2.845282 1_554
Na2 O18 2.881764 1_565
Na3 O46 2.404613 1_455
Na3 O61 2.437656 1_555
Na3 O60 2.442905 1_555
Na3 O47 2.460331 1_555
Na3 O25 2.573278 1_554
Na3 O10 2.726076 1_555
Na3 O20 2.820978 1_455
Na3 O15 2.829106 1_455
Na4 O55 2.312379 1_555
Na4 O40 2.394697 1_655
Na4 O41 2.425128 1_555
Na4 O54 2.491789 1_555
Na4 O4 2.499894 1_555
Na4 O19 2.764789 1_556
Na4 O33 2.847764 1_655
Na4 O26 2.944595 1_655
Na5 O58 2.312375 1_555
Na5 O37 2.394695 1_555
Na5 O36 2.425136 1_655
Na5 O59 2.491804 1_555
Na5 O1 2.499895 1_555
Na5 O22 2.764792 1_555
Na5 O32 2.847764 1_555
Na5 O27 2.944595 1_555
Na6 O38 2.423778 1_555
Na6 O36 2.525455 1_545
Na6 O43 2.583177 1_555
Na6 O37 2.642630 1_445
Na6 O42 2.651860 1_455
Na6 O44 2.696617 1_445
Na7 O39 2.423778 1_655
Na7 O41 2.525455 1_545
Na7 O46 2.583177 1_556
Na7 O40 2.642630 1_645
Na7 O47 2.651860 1_656
Na7 O45 2.696617 1_546
Na8 O48 2.409069 1_555
Na8 O50 2.457859 1_555
Na8 O55 2.555417 1_555
Na8 O49 2.597532 1_555
Na8 O56 2.653503 1_555
Na8 O54 2.736737 1_555
Na9 O53 2.409069 1_555
Na9 O51 2.457859 1_555
Na9 O58 2.555417 1_555
Na9 O52 2.597531 1_555
Na9 O57 2.653503 1_555
Na9 O59 2.736737 1_555
Na10 O62 2.541489 1_555
Na10 O60 2.564302 1_555
Na10 O67 2.574020 1_555
Na10 O61 2.649173 1_555
Na10 O66 2.651557 1_555
Na10 O68 2.687025 1_555
Na11 O63 2.541489 1_555
Na11 O65 2.564302 1_555
Na11 O70 2.574020 1_555
Na11 O64 2.649173 1_555
Na11 O71 2.651557 1_555
Na11 O69 2.687025 1_555
Mg0 O0 1.921667 1_555
Mg0 O1 2.035834 1_445
Mg0 O38 2.050180 1_555
Mg0 O2 2.051887 1_455
Mg0 O36 2.175476 1_545
Mg0 O37 2.242596 1_445
Mg1 O5 1.921667 1_555
Mg1 O4 2.035834 1_545
Mg1 O39 2.050180 1_655
Mg1 O3 2.051887 1_655
Mg1 O41 2.175476 1_545
Mg1 O40 2.242596 1_645
Mg2 O8 1.938322 1_655
Mg2 O6 2.015319 1_555
Mg2 O7 2.129213 1_665
Mg2 O44 2.165665 1_555
Mg2 O43 2.227537 1_665
Mg2 O42 2.291049 1_565
Mg3 O9 1.938322 1_555
Mg3 O11 2.015319 1_655
Mg3 O10 2.129213 1_665
Mg3 O45 2.165665 1_555
Mg3 O46 2.227537 1_565
Mg3 O47 2.291049 1_665
Mg4 O48 1.999941 1_555
Mg4 O50 2.007405 1_555
Mg4 O12 2.053155 1_555
Mg4 O49 2.120007 1_555
Mg4 O14 2.137172 1_555
Mg4 O13 2.153191 1_555
Mg5 O53 1.999941 1_555
Mg5 O51 2.007405 1_555
Mg5 O17 2.053155 1_555
Mg5 O52 2.120007 1_555
Mg5 O15 2.137172 1_555
Mg5 O16 2.153191 1_555
Mg6 O20 2.047901 1_556
Mg6 O55 2.084701 1_555
Mg6 O18 2.094904 1_556
Mg6 O19 2.103795 1_556
Mg6 O56 2.113235 1_555
Mg6 O54 2.150647 1_555
Mg7 O21 2.047901 1_555
Mg7 O58 2.084701 1_555
Mg7 O23 2.094904 1_555
Mg7 O22 2.103794 1_555
Mg7 O57 2.113235 1_555
Mg7 O59 2.150647 1_555
Mg8 O25 1.974609 1_554
Mg8 O24 1.982949 1_554
Mg8 O26 2.077910 1_554
Mg8 O60 2.099298 1_555
Mg8 O62 2.153423 1_555
Mg8 O61 2.195318 1_555
Mg9 O28 1.974609 1_555
Mg9 O29 1.982949 1_555
Mg9 O27 2.077910 1_555
Mg9 O65 2.099298 1_555
Mg9 O63 2.153423 1_555
Mg9 O64 2.195318 1_555
O0 P0 1.505753 1_555
O1 P1 1.525765 1_555
O2 S0 1.456110 1_555
O3 S1 1.456110 1_555
O4 P2 1.525765 1_555
O5 P3 1.505753 1_555
O6 P3 1.539516 1_565
O7 S1 1.475010 1_555
O8 P2 1.515738 1_455
O9 P1 1.515738 1_555
O10 S0 1.475010 1_455
O11 P0 1.539516 1_565
O12 S2 1.466330 1_555
O13 S3 1.475961 1_555
O14 S4 1.473661 1_555
O15 S5 1.473661 1_555
O16 S6 1.475961 1_555
O17 S7 1.466330 1_555
O18 S7 1.477380 1_555
O19 S5 1.480988 1_555
O20 S6 1.485816 1_555
O21 S3 1.485816 1_555
O22 S4 1.480988 1_555
O23 S2 1.477380 1_555
O24 S8 1.457837 1_555
O25 P4 1.532055 1_555
O26 S9 1.479593 1_555
O27 S10 1.479593 1_555
O28 P5 1.532055 1_555
O29 S11 1.457837 1_555
O30 S11 1.511546 1_555
O30 Ta0 2.093028 1_555
O31 S10 1.525083 1_555
O31 Ta0 2.062283 1_555
O32 P5 1.619698 1_555
O32 Ta0 1.961694 1_555
O33 P4 1.619698 1_555
O33 Ta1 1.961694 1_555
O34 S9 1.525083 1_555
O34 Ta1 2.062283 1_555
O35 S8 1.511546 1_555
O35 Ta1 2.093028 1_555
O36 S11 1.478672 1_555
O37 S10 1.473945 1_555
O38 P5 1.515958 1_555
O39 P4 1.515962 1_555
O40 S9 1.473936 1_555
O41 S8 1.478678 1_555
O42 S2 1.513234 1_555
O43 S3 1.491100 1_555
O44 S4 1.487667 1_555
O45 S5 1.487671 1_555
O46 S6 1.491091 1_555
O47 S7 1.513239 1_555
O48 P3 1.521710 1_555
O49 S1 1.457178 1_555
O50 P2 1.519874 1_555
O51 P1 1.519878 1_555
O52 S0 1.457169 1_555
O53 P0 1.521715 1_555
O54 S8 1.483252 1_555
O55 P4 1.550698 1_655
O56 S9 1.463262 1_545
O57 S10 1.463254 1_545
O58 P5 1.550716 1_555
O59 S11 1.483242 1_655
O60 S7 1.497308 1_555
O61 S5 1.520576 1_455
O62 S6 1.499978 1_565
O63 S3 1.499970 1_565
O64 S4 1.520593 1_555
O65 S2 1.497297 1_455
O66 P0 1.640652 1_565
O66 Ta0 1.932233 1_555
O67 P1 1.658104 1_555
O67 Ta0 1.895104 1_555
O68 S0 1.560647 1_455
O68 Ta0 2.006324 1_555
O69 S1 1.560650 1_555
O69 Ta1 2.006324 1_555
O70 P2 1.658096 1_455
O70 Ta1 1.895104 1_555
O71 P3 1.640657 1_565
O71 Ta1 1.932233 1_555
