# generated using pymatgen
data_Na3Ga2Ge2P5SO24
_symmetry_space_group_name_H-M   'P 1'
_cell_length_a   8.48948461
_cell_length_b   8.46872748
_cell_length_c   21.87435286
_cell_angle_alpha   90.39047446
_cell_angle_beta   89.88886583
_cell_angle_gamma   119.88916471
_symmetry_Int_Tables_number   1
_chemical_formula_structural   Na3Ga2Ge2P5SO24
_chemical_formula_sum   'Na9 Ga6 Ge6 P15 S3 O72'
_cell_volume   1363.44803190
_cell_formula_units_Z   3
loop_
 _symmetry_equiv_pos_site_id
 _symmetry_equiv_pos_as_xyz
  1  'x, y, z'
loop_
 _atom_site_type_symbol
 _atom_site_label
 _atom_site_symmetry_multiplicity
 _atom_site_fract_x
 _atom_site_fract_y
 _atom_site_fract_z
 _atom_site_occupancy
  Na  Na0  1  0.00256159  0.36525189  0.75038107  1
  Na  Na1  1  0.66754330  0.96533164  0.58346271  1
  Na  Na2  1  0.03572990  0.33324741  0.08346643  1
  Na  Na3  1  0.00525351  0.99726453  0.50050834  1
  Na  Na4  1  0.00268851  0.99502281  0.00015606  1
  Na  Na5  1  0.66000926  0.32988050  0.83418104  1
  Na  Na6  1  0.67200909  0.33529500  0.33334920  1
  Na  Na7  1  0.34052375  0.67038135  0.16743702  1
  Na  Na8  1  0.33371662  0.66704818  0.66673368  1
  Ga  Ga0  1  0.00507601  0.99877733  0.64702644  1
  Ga  Ga1  1  0.99365324  0.99597816  0.14679850  1
  Ga  Ga2  1  0.33069850  0.67125627  0.01920322  1
  Ga  Ga3  1  0.32853144  0.67035327  0.51910846  1
  Ga  Ga4  1  0.33101095  0.66564629  0.31485316  1
  Ga  Ga5  1  0.33314747  0.67450316  0.81473048  1
  Ge  Ge0  1  0.98172089  0.98790169  0.35176071  1
  Ge  Ge1  1  0.01026822  0.00711057  0.85092894  1
  Ge  Ge2  1  0.66262962  0.33521031  0.68601841  1
  Ge  Ge3  1  0.67411994  0.34069220  0.18539636  1
  Ge  Ge4  1  0.66562340  0.32569637  0.98169965  1
  Ge  Ge5  1  0.67427845  0.33406533  0.48146635  1
  P  P0  1  0.70663908  0.70774815  0.24888899  1
  P  P1  1  0.00008515  0.28924890  0.24964236  1
  P  P2  1  0.29342552  0.29009494  0.74929231  1
  P  P3  1  0.99852288  0.71410668  0.74949490  1
  P  P4  1  0.70825023  0.99528888  0.74919975  1
  P  P5  1  0.95887591  0.33799721  0.58411397  1
  P  P6  1  0.37859152  0.05098558  0.58263997  1
  P  P7  1  0.66536699  0.61710069  0.58277827  1
  P  P8  1  0.95158635  0.62332725  0.08245467  1
  P  P9  1  0.66107365  0.04281524  0.08421880  1
  P  P10  1  0.38372155  0.33372278  0.08353618  1
  P  P11  1  0.04021650  0.37389507  0.91663807  1
  P  P12  1  0.33286068  0.95915271  0.91691309  1
  P  P13  1  0.62243304  0.95812294  0.41696857  1
  P  P14  1  0.04179985  0.66761180  0.41596263  1
  S  S0  1  0.28908599  0.00112136  0.24963612  1
  S  S1  1  0.62511875  0.66699960  0.91660382  1
  S  S2  1  0.33285486  0.37351203  0.41645197  1
  O  O0  1  0.21033689  0.03770969  0.30621891  1
  O  O1  1  0.82905038  0.78559305  0.30719223  1
  O  O2  1  0.96350799  0.16679447  0.30722148  1
  O  O3  1  0.21305170  0.17111482  0.80754183  1
  O  O4  1  0.95962371  0.79378987  0.80824770  1
  O  O5  1  0.83682068  0.04296633  0.80627864  1
  O  O6  1  0.78879703  0.96644875  0.69063929  1
  O  O7  1  0.17020104  0.21171965  0.69366533  1
  O  O8  1  0.03439099  0.82699132  0.69271292  1
  O  O9  1  0.79157980  0.82489999  0.19277006  1
  O  O10  1  0.03465183  0.21044143  0.19105891  1
  O  O11  1  0.17903903  0.96912704  0.19455864  1
  O  O12  1  0.87414840  0.37051875  0.64302252  1
  O  O13  1  0.50468984  0.13049654  0.64010090  1
  O  O14  1  0.62949985  0.49994889  0.64085511  1
  O  O15  1  0.87377682  0.49829039  0.13971143  1
  O  O16  1  0.62822565  0.13004029  0.14185094  1
  O  O17  1  0.50162898  0.36930128  0.14157265  1
  O  O18  1  0.46592241  0.29786540  0.02529423  1
  O  O19  1  0.83169514  0.53614382  0.02504363  1
  O  O20  1  0.70825072  0.16803050  0.02702460  1
  O  O21  1  0.46559201  0.16873142  0.52504992  1
  O  O22  1  0.70155637  0.53367223  0.52490570  1
  O  O23  1  0.83170068  0.29188592  0.52737643  1
  O  O24  1  0.54918205  0.70150773  0.97225467  1
  O  O25  1  0.15542294  0.45074976  0.97481859  1
  O  O26  1  0.29618198  0.84375684  0.97407574  1
  O  O27  1  0.54962387  0.84522555  0.47553938  1
  O  O28  1  0.29796941  0.44973450  0.47209840  1
  O  O29  1  0.15637510  0.70482030  0.47378527  1
  O  O30  1  0.11992968  0.62840249  0.35893487  1
  O  O31  1  0.50720698  0.87676959  0.35997643  1
  O  O32  1  0.36826933  0.48393913  0.36148880  1
  O  O33  1  0.11911316  0.48669645  0.85866198  1
  O  O34  1  0.37344968  0.88265573  0.85953485  1
  O  O35  1  0.51434786  0.63161387  0.86141118  1
  O  O36  1  0.02431012  0.84284007  0.40811296  1
  O  O37  1  0.81747120  0.98171348  0.40992803  1
  O  O38  1  0.16752335  0.18789956  0.40918525  1
  O  O39  1  0.01780006  0.17930890  0.90900909  1
  O  O40  1  0.15928260  0.97742039  0.90917858  1
  O  O41  1  0.80992770  0.83306667  0.91007617  1
  O  O42  1  0.96947258  0.16276602  0.58932637  1
  O  O43  1  0.19228315  0.03230019  0.58845717  1
  O  O44  1  0.83328285  0.80768716  0.58826515  1
  O  O45  1  0.97139072  0.81070724  0.08928765  1
  O  O46  1  0.83614027  0.03136426  0.08899027  1
  O  O47  1  0.19272990  0.16519006  0.08937625  1
  O  O48  1  0.69567203  0.17448167  0.74380972  1
  O  O49  1  0.48270155  0.30611491  0.74297078  1
  O  O50  1  0.82687167  0.51809117  0.74392278  1
  O  O51  1  0.69034452  0.51553955  0.24305317  1
  O  O52  1  0.82362250  0.30414702  0.24352900  1
  O  O53  1  0.47317977  0.16846218  0.24481264  1
  O  O54  1  0.64494077  0.50094371  0.92290008  1
  O  O55  1  0.84842953  0.35584754  0.92416954  1
  O  O56  1  0.50431882  0.15288259  0.92422786  1
  O  O57  1  0.64341151  0.15161725  0.42420423  1
  O  O58  1  0.49863035  0.35412162  0.42300706  1
  O  O59  1  0.84803983  0.49659863  0.42382796  1
  O  O60  1  0.36051092  0.50209644  0.07712133  1
  O  O61  1  0.13792105  0.63465003  0.07732043  1
  O  O62  1  0.49383477  0.85601617  0.07719311  1
  O  O63  1  0.36661981  0.86341010  0.57774393  1
  O  O64  1  0.49677717  0.63923791  0.57664624  1
  O  O65  1  0.14445602  0.50647457  0.57710332  1
  O  O66  1  0.30873683  0.83889501  0.25599641  1
  O  O67  1  0.52011797  0.68882473  0.25775507  1
  O  O68  1  0.16709053  0.47777437  0.25747403  1
  O  O69  1  0.31108275  0.47811230  0.75831276  1
  O  O70  1  0.16199515  0.68394786  0.75648291  1
  O  O71  1  0.52160152  0.82895482  0.75729384  1
loop_
_geom_bond_atom_site_label_1
_geom_bond_atom_site_label_2
_geom_bond_distance
_geom_bond_site_symmetry_2
Na0 O48 2.285126 1_455
Na0 O69 2.303970 1_555
Na0 O70 2.342886 1_555
Na0 O50 2.418124 1_455
Na0 O33 2.570722 1_555
Na0 O12 2.601008 1_455
Na0 O7 2.659049 1_555
Na0 O5 2.671244 1_455
Na1 O63 2.255921 1_555
Na1 O42 2.260349 1_565
Na1 O44 2.376514 1_555
Na1 O64 2.399052 1_555
Na1 O6 2.560345 1_555
Na1 O27 2.563495 1_555
Na1 O23 2.700704 1_565
Na1 O13 2.701829 1_565
Na2 O61 2.254592 1_555
Na2 O46 2.260028 1_455
Na2 O47 2.390096 1_555
Na2 O60 2.395422 1_555
Na2 O10 2.577699 1_555
Na2 O25 2.585746 1_554
Na2 O15 2.691259 1_455
Na2 O20 2.706297 1_455
Na3 O43 2.417589 1_565
Na3 O36 2.448434 1_555
Na3 O44 2.467597 1_455
Na3 O42 2.493241 1_465
Na3 O37 2.506807 1_455
Na3 O38 2.512250 1_565
Na4 O40 2.435802 1_554
Na4 O45 2.436083 1_455
Na4 O47 2.478956 1_565
Na4 O41 2.486055 1_454
Na4 O39 2.503833 1_564
Na4 O46 2.506937 1_465
Na5 O56 2.434990 1_555
Na5 O49 2.447695 1_555
Na5 O54 2.454931 1_555
Na5 O48 2.467938 1_555
Na5 O55 2.477406 1_555
Na5 O50 2.495389 1_555
Na6 O52 2.430647 1_555
Na6 O59 2.440585 1_555
Na6 O51 2.461429 1_555
Na6 O57 2.468238 1_555
Na6 O53 2.488903 1_555
Na6 O58 2.501332 1_555
Na7 O67 2.454041 1_555
Na7 O62 2.460752 1_555
Na7 O60 2.482779 1_555
Na7 O66 2.491224 1_555
Na7 O68 2.519197 1_555
Na7 O61 2.534174 1_555
Na8 O65 2.464354 1_555
Na8 O71 2.478685 1_555
Na8 O64 2.482552 1_555
Na8 O70 2.488560 1_555
Na8 O63 2.492321 1_555
Na8 O69 2.519085 1_555
Ga0 O8 1.886466 1_555
Ga0 O7 1.928458 1_565
Ga0 O43 1.948129 1_565
Ga0 O6 1.962674 1_455
Ga0 O44 2.006171 1_455
Ga0 O42 2.014153 1_465
Ga1 O9 1.894541 1_555
Ga1 O10 1.924706 1_665
Ga1 O45 1.938706 1_555
Ga1 O46 1.971809 1_565
Ga1 O11 1.996595 1_655
Ga1 O47 2.022396 1_665
Ga2 O26 1.908357 1_554
Ga2 O62 1.948178 1_555
Ga2 O25 1.963538 1_554
Ga2 O61 1.970354 1_555
Ga2 O24 2.020701 1_554
Ga2 O60 2.027002 1_555
Ga3 O29 1.907586 1_555
Ga3 O65 1.957624 1_555
Ga3 O27 1.966321 1_555
Ga3 O63 1.966936 1_555
Ga3 O64 2.019955 1_555
Ga3 O28 2.026631 1_555
Ga4 O30 1.916918 1_555
Ga4 O31 1.929939 1_555
Ga4 O68 1.953508 1_555
Ga4 O67 1.964015 1_555
Ga4 O32 2.004108 1_555
Ga4 O66 2.036949 1_555
Ga5 O34 1.887236 1_555
Ga5 O71 1.943701 1_555
Ga5 O70 1.966060 1_555
Ga5 O33 1.971933 1_555
Ga5 O69 1.996668 1_555
Ga5 O35 2.027058 1_555
Ge0 O1 1.826109 1_555
Ge0 O37 1.867408 1_555
Ge0 O2 1.876825 1_565
Ge0 O36 1.903794 1_655
Ge0 O0 2.029648 1_665
Ge0 O38 2.061714 1_665
Ge1 O3 1.849877 1_555
Ge1 O4 1.877392 1_445
Ge1 O40 1.901247 1_545
Ge1 O39 1.904453 1_555
Ge1 O5 1.915616 1_455
Ge1 O41 2.063517 1_445
Ge2 O14 1.847267 1_555
Ge2 O13 1.864672 1_555
Ge2 O49 1.888824 1_555
Ge2 O12 1.913267 1_555
Ge2 O50 1.942943 1_555
Ge2 O48 1.983660 1_555
Ge3 O15 1.846593 1_555
Ge3 O17 1.866602 1_555
Ge3 O16 1.878071 1_555
Ge3 O51 1.890538 1_555
Ge3 O52 1.930484 1_555
Ge3 O53 2.064966 1_555
Ge4 O20 1.843310 1_556
Ge4 O18 1.854103 1_556
Ge4 O19 1.881715 1_556
Ge4 O56 1.892551 1_555
Ge4 O55 1.912904 1_555
Ge4 O54 2.043129 1_555
Ge5 O22 1.844680 1_555
Ge5 O23 1.846091 1_555
Ge5 O21 1.883466 1_555
Ge5 O57 1.896395 1_555
Ge5 O59 1.911301 1_555
Ge5 O58 2.037259 1_555
O0 S0 1.507616 1_555
O1 P0 1.565871 1_555
O2 P1 1.566385 1_655
O3 P2 1.559895 1_555
O4 P3 1.557161 1_555
O5 P4 1.572414 1_545
O6 P4 1.525423 1_555
O7 P2 1.522309 1_555
O8 P3 1.507967 1_455
O9 P0 1.520316 1_555
O10 P1 1.534859 1_555
O11 S0 1.464705 1_565
O12 P5 1.562914 1_555
O13 P6 1.566689 1_555
O14 P7 1.550976 1_555
O15 P8 1.563330 1_555
O16 P9 1.550465 1_555
O17 P10 1.550328 1_555
O18 P10 1.550731 1_555
O19 P8 1.549691 1_555
O20 P9 1.562997 1_555
O21 P6 1.551221 1_555
O22 P7 1.548801 1_555
O23 P5 1.561045 1_555
O24 S1 1.470629 1_555
O25 P11 1.535890 1_555
O26 P12 1.525563 1_555
O27 P13 1.536972 1_555
O28 S2 1.471211 1_555
O29 P14 1.529404 1_555
O30 P14 1.522161 1_555
O31 P13 1.518905 1_555
O32 S2 1.464287 1_555
O33 P11 1.531344 1_555
O34 P12 1.524286 1_555
O35 S1 1.466398 1_555
O36 P14 1.573797 1_555
O37 P13 1.573201 1_555
O38 S2 1.504906 1_555
O39 P11 1.569540 1_555
O40 P12 1.566062 1_555
O41 S1 1.504190 1_555
O42 P5 1.535807 1_555
O43 P6 1.514244 1_555
O44 P7 1.535089 1_555
O45 P8 1.516484 1_555
O46 P9 1.540632 1_555
O47 P10 1.541961 1_555
O48 P4 1.578672 1_545
O49 P2 1.549722 1_555
O50 P3 1.575125 1_555
O51 P0 1.567756 1_555
O52 P1 1.570802 1_655
O53 S0 1.502003 1_555
O54 S1 1.504493 1_555
O55 P11 1.566121 1_655
O56 P12 1.566297 1_545
O57 P13 1.564500 1_545
O58 S2 1.503193 1_555
O59 P14 1.568707 1_655
O60 P10 1.540974 1_555
O61 P8 1.540276 1_455
O62 P9 1.516902 1_565
O63 P6 1.543383 1_565
O64 P7 1.539512 1_555
O65 P5 1.517591 1_455
O66 S0 1.471657 1_565
O67 P0 1.522165 1_555
O68 P1 1.526340 1_555
O69 P2 1.534494 1_555
O70 P3 1.539218 1_455
O71 P4 1.517941 1_555
