# generated using pymatgen
data_MgTi8(NiO3)8
_symmetry_space_group_name_H-M   'P 1'
_cell_length_a   5.57229611
_cell_length_b   11.19481084
_cell_length_c   11.11815251
_cell_angle_alpha   54.34244744
_cell_angle_beta   54.08776841
_cell_angle_gamma   54.26304573
_symmetry_Int_Tables_number   1
_chemical_formula_structural   MgTi8(NiO3)8
_chemical_formula_sum   'Mg1 Ti8 Ni8 O24'
_cell_volume   424.38904542
_cell_formula_units_Z   1
loop_
 _symmetry_equiv_pos_site_id
 _symmetry_equiv_pos_as_xyz
  1  'x, y, z'
loop_
 _atom_site_type_symbol
 _atom_site_label
 _atom_site_symmetry_multiplicity
 _atom_site_fract_x
 _atom_site_fract_y
 _atom_site_fract_z
 _atom_site_occupancy
  Mg  Mg0  1  0.66292900  0.81255100  0.80376800  1
  Ti  Ti0  1  0.38312700  0.17377800  0.17080600  1
  Ti  Ti1  1  0.15680800  0.06760200  0.57439200  1
  Ti  Ti2  1  0.16267200  0.57955700  0.05406500  1
  Ti  Ti3  1  0.15975600  0.56531200  0.56390600  1
  Ti  Ti4  1  0.87916500  0.42146600  0.42115500  1
  Ti  Ti5  1  0.88112000  0.42040500  0.92264200  1
  Ti  Ti6  1  0.89801000  0.92301800  0.40532300  1
  Ti  Ti7  1  0.84355100  0.92133600  0.90116200  1
  Ni  Ni0  1  0.18731800  0.07878100  0.07328000  1
  Ni  Ni1  1  0.36726500  0.66654000  0.17004500  1
  Ni  Ni2  1  0.37852100  0.17228100  0.65933000  1
  Ni  Ni3  1  0.66922300  0.32257600  0.31815500  1
  Ni  Ni4  1  0.37134900  0.66818200  0.66417400  1
  Ni  Ni5  1  0.67137500  0.32777600  0.81198100  1
  Ni  Ni6  1  0.67386500  0.81583600  0.31812700  1
  Ni  Ni7  1  0.02231000  0.99628300  0.98977800  1
  O  O0  1  0.09337700  0.37041500  0.20828800  1
  O  O1  1  0.45789700  0.03473300  0.36274400  1
  O  O2  1  0.74969000  0.22579000  0.03043400  1
  O  O3  1  0.25214600  0.27985800  0.46340000  1
  O  O4  1  0.58880300  0.46777100  0.10624700  1
  O  O5  1  0.07785200  0.37664800  0.71270100  1
  O  O6  1  0.07346800  0.87323100  0.21578600  1
  O  O7  1  0.97799100  0.11268900  0.28063300  1
  O  O8  1  0.45815600  0.01641000  0.86818300  1
  O  O9  1  0.46047700  0.51990400  0.37694700  1
  O  O10  1  0.79311600  0.21662900  0.51740100  1
  O  O11  1  0.78257200  0.70940700  0.01765300  1
  O  O12  1  0.25469600  0.28417000  0.96851100  1
  O  O13  1  0.25029200  0.77568100  0.46360800  1
  O  O14  1  0.58583400  0.46971400  0.60446200  1
  O  O15  1  0.59394000  0.97445300  0.10897800  1
  O  O16  1  0.07865600  0.87272400  0.70516500  1
  O  O17  1  0.95983100  0.11376000  0.77302300  1
  O  O18  1  0.96726000  0.60752800  0.27118900  1
  O  O19  1  0.46028600  0.52369500  0.87350300  1
  O  O20  1  0.79095900  0.71192200  0.51859900  1
  O  O21  1  0.25135900  0.76580600  0.95975600  1
  O  O22  1  0.58114900  0.96858400  0.59791000  1
  O  O23  1  0.97280500  0.60473000  0.77101900  1
loop_
_geom_bond_atom_site_label_1
_geom_bond_atom_site_label_2
_geom_bond_distance
_geom_bond_site_symmetry_2
Mg0 O23 2.020950 1_555
Mg0 O22 2.032207 1_555
Mg0 O21 2.054070 1_555
Mg0 O8 2.219952 1_565
Mg0 O16 2.237123 1_655
Mg0 O11 2.278579 1_556
Ni0 O15 2.019601 1_545
Ni0 O12 2.038957 1_554
Ni0 O7 2.041562 1_455
Ni0 O6 2.117389 1_545
Ni0 O8 2.133828 1_554
Ni0 O2 2.154715 1_455
Ni1 O11 2.050905 1_555
Ni1 O9 2.063797 1_555
Ni1 O6 2.064716 1_555
Ni1 O4 2.140723 1_555
Ni1 O18 2.140741 1_455
Ni1 O21 2.241046 1_554
Ni2 O8 2.052800 1_555
Ni2 O10 2.055150 1_555
Ni2 O5 2.081429 1_555
Ni2 O3 2.107572 1_555
Ni2 O17 2.197860 1_455
Ni2 O22 2.201034 1_545
Ni3 O3 2.057436 1_555
Ni3 O7 2.057567 1_555
Ni3 O4 2.077637 1_555
Ni3 O9 2.109542 1_555
Ni3 O10 2.136583 1_555
Ni3 O0 2.166611 1_655
Ni4 O16 2.023164 1_555
Ni4 O20 2.073761 1_555
Ni4 O19 2.075137 1_555
Ni4 O14 2.119583 1_555
Ni4 O13 2.136225 1_555
Ni4 O23 2.147528 1_455
Ni5 O14 2.050967 1_555
Ni5 O12 2.061886 1_555
Ni5 O17 2.099066 1_555
Ni5 O19 2.110345 1_555
Ni5 O5 2.111537 1_655
Ni5 O2 2.195766 1_556
Ni6 O15 2.058092 1_555
Ni6 O13 2.074220 1_555
Ni6 O18 2.085125 1_555
Ni6 O6 2.124253 1_655
Ni6 O20 2.131509 1_555
Ni6 O1 2.229667 1_565
Ni7 O15 2.026496 1_456
Ni7 O8 2.051651 1_565
Ni7 O17 2.100662 1_465
Ni7 O6 2.153818 1_556
Ni7 O21 2.248359 1_555
Ni7 O2 2.258871 1_466
O0 Ti0 1.937722 1_555
O0 Ti2 2.042000 1_555
O0 Ti4 2.195158 1_455
O1 Ti0 1.887634 1_555
O1 Ti1 2.035806 1_555
O1 Ti6 2.211688 1_545
O2 Ti0 1.880734 1_555
O2 Ti5 2.123526 1_554
O3 Ti4 1.865909 1_455
O3 Ti1 2.176715 1_555
O4 Ti5 1.858471 1_554
O4 Ti2 2.199887 1_555
O5 Ti3 1.890117 1_555
O5 Ti5 2.143373 1_455
O6 Ti6 2.005774 1_455
O7 Ti6 1.891501 1_545
O7 Ti0 2.156686 1_655
O8 Ti7 1.917786 1_545
O9 Ti3 1.880936 1_555
O9 Ti4 2.146988 1_555
O10 Ti1 1.901674 1_655
O10 Ti4 2.110682 1_555
O11 Ti2 1.867158 1_655
O11 Ti7 2.065099 1_554
O12 Ti5 1.883993 1_455
O12 Ti0 2.170846 1_556
O13 Ti6 1.859528 1_455
O13 Ti3 2.170334 1_555
O14 Ti4 1.860454 1_555
O14 Ti3 2.170432 1_555
O15 Ti7 2.119540 1_554
O15 Ti0 2.147263 1_565
O16 Ti1 1.931836 1_565
O16 Ti7 1.990443 1_455
O17 Ti7 2.014798 1_545
O17 Ti1 2.042843 1_655
O18 Ti4 1.882764 1_555
O18 Ti2 2.123823 1_655
O19 Ti2 1.875678 1_556
O19 Ti5 2.175673 1_555
O20 Ti3 1.865805 1_655
O20 Ti6 2.195917 1_555
O21 Ti2 1.933356 1_556
O21 Ti7 2.100536 1_455
O22 Ti6 1.936185 1_555
O22 Ti1 2.052764 1_565
O23 Ti5 1.877862 1_555
O23 Ti3 2.101450 1_655
