# generated using pymatgen
data_Ag2BiO3
_symmetry_space_group_name_H-M   'P 1'
_cell_length_a   6.06333258
_cell_length_b   6.28570690
_cell_length_c   9.61819304
_cell_angle_alpha   90.00000000
_cell_angle_beta   90.00000000
_cell_angle_gamma   90.00000000
_symmetry_Int_Tables_number   1
_chemical_formula_structural   Ag2BiO3
_chemical_formula_sum   'Ag8 Bi4 O12'
_cell_volume   366.57176095
_cell_formula_units_Z   4
loop_
 _symmetry_equiv_pos_site_id
 _symmetry_equiv_pos_as_xyz
  1  'x, y, z'
loop_
 _atom_site_type_symbol
 _atom_site_label
 _atom_site_symmetry_multiplicity
 _atom_site_fract_x
 _atom_site_fract_y
 _atom_site_fract_z
 _atom_site_occupancy
  Ag  Ag0  1  0.97023560  0.75225371  0.25222710  1
  Ag  Ag1  1  0.74612621  0.00076219  0.49541697  1
  Ag  Ag2  1  0.24612621  0.49923781  0.99541697  1
  Ag  Ag3  1  0.75387379  0.50076219  0.99541697  1
  Ag  Ag4  1  0.52976440  0.25225371  0.75222710  1
  Ag  Ag5  1  0.47023560  0.74774629  0.75222710  1
  Ag  Ag6  1  0.02976440  0.24774629  0.25222710  1
  Ag  Ag7  1  0.25387379  0.99923781  0.49541697  1
  Bi  Bi0  1  -0.00000000  0.00000000  0.89757205  1
  Bi  Bi1  1  0.50000000  0.50000000  0.39757205  1
  Bi  Bi2  1  -0.00000000  0.50000000  0.60555460  1
  Bi  Bi3  1  0.50000000  0.00000000  0.10555460  1
  O  O0  1  0.89176302  0.21875339  0.74541596  1
  O  O1  1  0.10823698  0.78124661  0.74541596  1
  O  O2  1  0.60823698  0.71875339  0.24541596  1
  O  O3  1  0.39176302  0.28124661  0.24541596  1
  O  O4  1  0.69588181  0.82011208  0.93296370  1
  O  O5  1  0.30411819  0.17988792  0.93296370  1
  O  O6  1  0.80411819  0.32011208  0.43296370  1
  O  O7  1  0.19588181  0.67988792  0.43296370  1
  O  O8  1  0.32575865  0.31519480  0.55734245  1
  O  O9  1  0.82575865  0.18480520  0.05734245  1
  O  O10  1  0.17424135  0.81519480  0.05734245  1
  O  O11  1  0.67424135  0.68480520  0.55734245  1
loop_
_geom_bond_atom_site_label_1
_geom_bond_atom_site_label_2
_geom_bond_distance
_geom_bond_site_symmetry_2
Ag0 O2 2.205969 1_555
Ag0 O7 2.258469 1_655
Ag0 O10 2.280372 1_655
Ag1 O11 2.118720 1_545
Ag1 O6 2.124589 1_555
Ag2 O10 2.118720 1_556
Ag2 O5 2.124589 1_555
Ag3 O9 2.118720 1_556
Ag3 O4 2.124589 1_555
Ag4 O0 2.205969 1_555
Ag4 O5 2.258469 1_555
Ag4 O8 2.280372 1_555
Ag5 O1 2.205969 1_555
Ag5 O4 2.258469 1_555
Ag5 O11 2.280372 1_555
Ag6 O3 2.205969 1_555
Ag6 O6 2.258469 1_455
Ag6 O9 2.280372 1_455
Ag7 O8 2.118720 1_565
Ag7 O7 2.124589 1_555
Bi0 O1 2.112608 1_545
Bi0 O0 2.112608 1_455
Bi0 O4 2.189665 1_445
Bi0 O5 2.189665 1_555
Bi0 O10 2.197043 1_546
Bi0 O9 2.197043 1_456
Bi1 O3 2.112608 1_555
Bi1 O2 2.112608 1_555
Bi1 O6 2.189665 1_555
Bi1 O7 2.189665 1_555
Bi1 O8 2.197043 1_555
Bi1 O11 2.197043 1_555
Bi2 O1 2.316362 1_555
Bi2 O0 2.316362 1_455
Bi2 O7 2.333409 1_555
Bi2 O6 2.333409 1_455
Bi2 O11 2.337898 1_455
Bi2 O8 2.337898 1_555
Bi3 O2 2.316362 1_545
Bi3 O3 2.316362 1_555
Bi3 O5 2.333409 1_554
Bi3 O4 2.333409 1_544
Bi3 O9 2.337898 1_555
Bi3 O10 2.337898 1_545
