# generated using pymatgen
data_Cd3PCl3
_symmetry_space_group_name_H-M   'P 1'
_cell_length_a   7.69377032
_cell_length_b   7.69377180
_cell_length_c   7.16850952
_cell_angle_alpha   90.00000000
_cell_angle_beta   90.00000000
_cell_angle_gamma   119.99999803
_symmetry_Int_Tables_number   1
_chemical_formula_structural   Cd3PCl3
_chemical_formula_sum   'Cd6 P2 Cl6'
_cell_volume   367.48365282
_cell_formula_units_Z   2
loop_
 _symmetry_equiv_pos_site_id
 _symmetry_equiv_pos_as_xyz
  1  'x, y, z'
loop_
 _atom_site_type_symbol
 _atom_site_label
 _atom_site_symmetry_multiplicity
 _atom_site_fract_x
 _atom_site_fract_y
 _atom_site_fract_z
 _atom_site_occupancy
  Cd  Cd0  1  0.66666700  0.33333300  0.48868385  1
  Cd  Cd1  1  0.33333300  0.66666700  0.51131615  1
  Cd  Cd2  1  0.50000000  0.50000000  -0.00000000  1
  Cd  Cd3  1  0.00000000  0.50000000  -0.00000000  1
  Cd  Cd4  1  0.50000000  -0.00000000  -0.00000000  1
  Cd  Cd5  1  0.00000000  -0.00000000  0.50000000  1
  P  P0  1  0.66666700  0.33333300  0.14553814  1
  P  P1  1  0.33333300  0.66666700  0.85446186  1
  Cl  Cl0  1  0.34055660  0.17020181  0.69432056  1
  Cl  Cl1  1  0.82964321  0.65944340  0.69432056  1
  Cl  Cl2  1  0.65944340  0.82979819  0.30567944  1
  Cl  Cl3  1  0.17035679  0.34055660  0.30567944  1
  Cl  Cl4  1  0.17020181  0.82964321  0.30567944  1
  Cl  Cl5  1  0.82979819  0.17035679  0.69432056  1
loop_
_geom_bond_atom_site_label_1
_geom_bond_atom_site_label_2
_geom_bond_distance
_geom_bond_site_symmetry_2
Cd0 P0 2.459843 1_555
Cd0 Cl5 2.625698 1_555
Cd0 Cl0 2.625715 1_555
Cd0 Cl1 2.625715 1_555
Cd1 P1 2.459843 1_555
Cd1 Cl4 2.625698 1_555
Cd1 Cl2 2.625715 1_555
Cd1 Cl3 2.625715 1_555
Cd2 P1 2.453838 1_554
Cd2 P0 2.453838 1_555
Cd2 Cl1 3.102836 1_554
Cd2 Cl3 3.102836 1_555
Cd2 Cl0 3.103575 1_554
Cd2 Cl2 3.103575 1_555
Cd3 P1 2.453832 1_554
Cd3 P0 2.453832 1_455
Cd3 Cl5 3.102836 1_454
Cd3 Cl4 3.102836 1_555
Cd3 Cl1 3.103584 1_454
Cd3 Cl3 3.103584 1_555
Cd4 P0 2.453832 1_555
Cd4 P1 2.453832 1_544
Cd4 Cl2 3.102845 1_545
Cd4 Cl0 3.102845 1_554
Cd4 Cl5 3.103575 1_554
Cd4 Cl4 3.103575 1_545
Cd5 Cl0 2.662586 1_555
Cd5 Cl2 2.662586 1_445
Cd5 Cl3 2.662586 1_555
Cd5 Cl1 2.662586 1_445
Cd5 Cl4 2.662597 1_545
Cd5 Cl5 2.662597 1_455
