# generated using pymatgen
data_TiI3
_symmetry_space_group_name_H-M   'P 1'
_cell_length_a   6.47996123
_cell_length_b   7.39211074
_cell_length_c   12.87190901
_cell_angle_alpha   90.00000000
_cell_angle_beta   90.00000000
_cell_angle_gamma   90.00000000
_symmetry_Int_Tables_number   1
_chemical_formula_structural   TiI3
_chemical_formula_sum   'Ti4 I12'
_cell_volume   616.57204892
_cell_formula_units_Z   4
loop_
 _symmetry_equiv_pos_site_id
 _symmetry_equiv_pos_as_xyz
  1  'x, y, z'
loop_
 _atom_site_type_symbol
 _atom_site_label
 _atom_site_symmetry_multiplicity
 _atom_site_fract_x
 _atom_site_fract_y
 _atom_site_fract_z
 _atom_site_occupancy
  Ti  Ti0  1  0.97242803  0.24858801  0.75000000  1
  Ti  Ti1  1  0.47242803  0.75141199  0.25000000  1
  Ti  Ti2  1  0.52757197  0.24858801  0.75000000  1
  Ti  Ti3  1  0.02757197  0.75141199  0.25000000  1
  I  I0  1  0.75000000  0.40342359  0.59190928  1
  I  I1  1  0.25000000  0.59657641  0.40809072  1
  I  I2  1  0.75000000  0.40342359  0.90809072  1
  I  I3  1  0.25000000  0.59657641  0.09190928  1
  I  I4  1  0.75000000  0.90144103  0.10079878  1
  I  I5  1  0.25000000  0.09855897  0.89920122  1
  I  I6  1  0.75000000  0.90144103  0.39920122  1
  I  I7  1  0.25000000  0.09855897  0.60079878  1
  I  I8  1  0.75000000  0.93364716  0.75000000  1
  I  I9  1  0.25000000  0.06635284  0.25000000  1
  I  I10  1  0.75000000  0.45010436  0.25000000  1
  I  I11  1  0.25000000  0.54989564  0.75000000  1
loop_
_geom_bond_atom_site_label_1
_geom_bond_atom_site_label_2
_geom_bond_distance
_geom_bond_site_symmetry_2
I0 Ti2 2.743789 1_555
I0 Ti0 2.743789 1_555
I1 Ti1 2.743789 1_555
I1 Ti3 2.743789 1_555
I2 Ti2 2.743789 1_555
I2 Ti0 2.743789 1_555
I3 Ti1 2.743789 1_555
I3 Ti3 2.743789 1_555
I4 Ti3 2.855425 1_655
I4 Ti1 2.855425 1_555
I5 Ti2 2.855425 1_555
I5 Ti0 2.855425 1_455
I6 Ti3 2.855425 1_655
I6 Ti1 2.855425 1_555
I7 Ti2 2.855425 1_555
I7 Ti0 2.855425 1_455
I8 Ti0 2.738131 1_565
I8 Ti2 2.738131 1_565
I9 Ti3 2.738131 1_545
I9 Ti1 2.738131 1_545
I10 Ti3 2.862870 1_655
I10 Ti1 2.862870 1_555
I11 Ti0 2.862870 1_455
I11 Ti2 2.862870 1_555
