# generated using pymatgen
data_LiMnPO4
_symmetry_space_group_name_H-M   'P 1'
_cell_length_a   5.27207470
_cell_length_b   9.66910757
_cell_length_c   6.18867000
_cell_angle_alpha   90.00000000
_cell_angle_beta   90.00000000
_cell_angle_gamma   84.66821192
_symmetry_Int_Tables_number   1
_chemical_formula_structural   LiMnPO4
_chemical_formula_sum   'Li4 Mn4 P4 O16'
_cell_volume   314.11026699
_cell_formula_units_Z   4
loop_
 _symmetry_equiv_pos_site_id
 _symmetry_equiv_pos_as_xyz
  1  'x, y, z'
loop_
 _atom_site_type_symbol
 _atom_site_label
 _atom_site_symmetry_multiplicity
 _atom_site_fract_x
 _atom_site_fract_y
 _atom_site_fract_z
 _atom_site_occupancy
  Li  Li0  1  0.16303300  0.92504100  0.63936800  1
  Li  Li1  1  0.33696600  0.57496000  0.13936800  1
  Li  Li2  1  0.66303300  0.42504100  0.86063100  1
  Li  Li3  1  0.83696600  0.07496000  0.36063100  1
  Mn  Mn0  1  0.21344300  0.33643100  0.61124900  1
  Mn  Mn1  1  0.28655700  0.16356900  0.11124900  1
  Mn  Mn2  1  0.71344200  0.83643100  0.88875000  1
  Mn  Mn3  1  0.78655600  0.66356900  0.38875200  1
  P  P0  1  0.74003900  0.36443800  0.34998000  1
  P  P1  1  0.75996200  0.13556300  0.84997900  1
  P  P2  1  0.24003700  0.86443800  0.15002000  1
  P  P3  1  0.25996200  0.63556300  0.65002100  1
  O  O0  1  0.00793600  0.77580900  0.14398500  1
  O  O1  1  0.99206400  0.22419100  0.85601500  1
  O  O2  1  0.76987100  0.44712200  0.56265800  1
  O  O3  1  0.71357200  0.47370600  0.16532900  1
  O  O4  1  0.01265600  0.73889400  0.66664700  1
  O  O5  1  0.98734600  0.26110600  0.33335400  1
  O  O6  1  0.23012900  0.55287800  0.43734100  1
  O  O7  1  0.28642800  0.52629300  0.83467000  1
  O  O8  1  0.21357200  0.97370600  0.33466900  1
  O  O9  1  0.26987100  0.94712200  0.93734200  1
  O  O10  1  0.78642800  0.02629300  0.66533000  1
  O  O11  1  0.50793700  0.27580900  0.35601600  1
  O  O12  1  0.49206400  0.72419100  0.64398500  1
  O  O13  1  0.48734600  0.76110600  0.16664600  1
  O  O14  1  0.73012800  0.05287800  0.06265700  1
  O  O15  1  0.51265500  0.23889400  0.83335500  1
loop_
_geom_bond_atom_site_label_1
_geom_bond_atom_site_label_2
_geom_bond_distance
_geom_bond_site_symmetry_2
Li0 O9 1.945703 1_555
Li0 O8 1.967614 1_555
Li0 O4 2.040042 1_555
Li0 O10 2.136634 1_465
Li0 O12 2.480999 1_555
Li1 O6 1.945697 1_555
Li1 O7 1.967612 1_554
Li1 O13 2.040040 1_555
Li1 O3 2.136645 1_555
Li1 O0 2.480989 1_555
Li2 O2 1.945697 1_555
Li2 O3 1.967608 1_556
Li2 O15 2.040043 1_555
Li2 O7 2.136634 1_555
Li2 O1 2.480999 1_555
Li3 O14 1.945704 1_555
Li3 O10 1.967618 1_555
Li3 O5 2.040040 1_555
Li3 O8 2.136646 1_645
Li3 O11 2.480986 1_555
Mn0 O15 2.233990 1_555
Mn0 O1 2.251648 1_455
Mn0 O5 2.251751 1_455
Mn0 O11 2.253883 1_555
Mn0 O7 2.358237 1_555
Mn0 O6 2.362267 1_555
Mn0 O2 2.497913 1_455
Mn1 O5 2.233983 1_455
Mn1 O11 2.251656 1_555
Mn1 O15 2.251749 1_554
Mn1 O1 2.253884 1_454
Mn1 O8 2.358241 1_545
Mn1 O9 2.362264 1_544
Mn1 O14 2.497909 1_555
Mn2 O4 2.233986 1_655
Mn2 O12 2.251641 1_555
Mn2 O13 2.251752 1_556
Mn2 O0 2.253892 1_656
Mn2 O10 2.358235 1_565
Mn2 O14 2.362264 1_566
Mn2 O9 2.497909 1_555
Mn3 O13 2.233983 1_555
Mn3 O0 2.251656 1_655
Mn3 O4 2.251760 1_655
Mn3 O12 2.253876 1_555
Mn3 O3 2.358251 1_555
Mn3 O2 2.362261 1_555
Mn3 O6 2.497917 1_655
O0 P2 1.558202 1_555
O1 P1 1.558200 1_555
O2 P0 1.555519 1_555
O3 P0 1.553763 1_555
O4 P3 1.570562 1_555
O5 P0 1.570571 1_555
O6 P3 1.555535 1_555
O7 P3 1.553767 1_555
O8 P2 1.553754 1_555
O9 P2 1.555521 1_556
O10 P1 1.553767 1_555
O11 P0 1.558206 1_555
O12 P3 1.558200 1_555
O13 P2 1.570580 1_555
O14 P1 1.555526 1_554
O15 P1 1.570565 1_555
