# generated using pymatgen
data_K2Mg(ReO4)2
_symmetry_space_group_name_H-M   'P 1'
_cell_length_a   5.54549561
_cell_length_b   6.37898571
_cell_length_c   7.98278360
_cell_angle_alpha   113.78128377
_cell_angle_beta   110.25819822
_cell_angle_gamma   90.07065235
_symmetry_Int_Tables_number   1
_chemical_formula_structural   K2Mg(ReO4)2
_chemical_formula_sum   'K2 Mg1 Re2 O8'
_cell_volume   239.14060643
_cell_formula_units_Z   1
loop_
 _symmetry_equiv_pos_site_id
 _symmetry_equiv_pos_as_xyz
  1  'x, y, z'
loop_
 _atom_site_type_symbol
 _atom_site_label
 _atom_site_symmetry_multiplicity
 _atom_site_fract_x
 _atom_site_fract_y
 _atom_site_fract_z
 _atom_site_occupancy
  K  K0  1  0.36925100  0.11784900  0.73759600  1
  K  K1  1  0.60997100  0.85995000  0.21886100  1
  Mg  Mg0  1  0.67361300  0.42381900  0.34609900  1
  Re  Re0  1  0.11855300  0.36809600  0.23582900  1
  Re  Re1  1  0.88589800  0.63668900  0.77313600  1
  O  O0  1  0.17761200  0.83848500  0.90944400  1
  O  O1  1  0.99640600  0.62755300  0.35708900  1
  O  O2  1  0.36110800  0.23054100  0.35658400  1
  O  O3  1  0.72971300  0.56956400  0.90783800  1
  O  O4  1  0.33222900  0.46196100  0.14023200  1
  O  O5  1  0.66519300  0.72620700  0.59396300  1
  O  O6  1  0.92753500  0.36776000  0.59211700  1
  O  O7  1  0.80916800  0.17777600  0.13954500  1
loop_
_geom_bond_atom_site_label_1
_geom_bond_atom_site_label_2
_geom_bond_distance
_geom_bond_site_symmetry_2
K0 O3 3.015291 1_555
K0 O0 3.027139 1_545
K0 O5 3.041781 1_545
K0 O6 3.069703 1_455
K0 O4 3.155843 1_556
K0 O7 3.159254 1_556
K0 O1 3.355057 1_445
K0 O2 3.382020 1_555
K1 O7 2.691770 1_565
K1 O4 2.692078 1_555
K1 O3 2.733539 1_554
K1 O0 2.737459 1_554
K1 O2 2.768474 1_565
K1 O1 2.774379 1_555
Mg0 O4 2.124392 1_555
Mg0 O7 2.126345 1_555
Mg0 O6 2.149464 1_555
Mg0 O5 2.150365 1_555
Mg0 O1 2.166685 1_555
Mg0 O2 2.169970 1_555
O0 Re1 1.761879 1_455
O1 Re0 1.816548 1_655
O2 Re0 1.815375 1_555
O3 Re1 1.762145 1_555
O4 Re0 1.827002 1_555
O5 Re1 1.821528 1_555
O6 Re1 1.821302 1_555
O7 Re0 1.826848 1_655
