# generated using pymatgen
data_V2O5
_symmetry_space_group_name_H-M   'P 1'
_cell_length_a   7.88378524
_cell_length_b   7.88378550
_cell_length_c   10.16037519
_cell_angle_alpha   69.77483597
_cell_angle_beta   110.22516524
_cell_angle_gamma   153.76106905
_symmetry_Int_Tables_number   1
_chemical_formula_structural   V2O5
_chemical_formula_sum   'V6 O15'
_cell_volume   261.01700016
_cell_formula_units_Z   3
loop_
 _symmetry_equiv_pos_site_id
 _symmetry_equiv_pos_as_xyz
  1  'x, y, z'
loop_
 _atom_site_type_symbol
 _atom_site_label
 _atom_site_symmetry_multiplicity
 _atom_site_fract_x
 _atom_site_fract_y
 _atom_site_fract_z
 _atom_site_occupancy
  V  V0  1  0.11836160  0.88163840  0.11584789  1
  V  V1  1  0.88163840  0.11836160  0.88415211  1
  V  V2  1  0.29099338  0.70900662  0.41450448  1
  V  V3  1  0.34073162  0.65926838  0.11066459  1
  V  V4  1  0.65926838  0.34073162  0.88933441  1
  V  V5  1  0.70900662  0.29099338  0.58549552  1
  O  O0  1  0.18218506  0.81781494  0.94454265  1
  O  O1  1  0.11401582  0.88598418  0.27095685  1
  O  O2  1  0.24344674  0.75655326  0.57413699  1
  O  O3  1  0.36324245  0.63675755  0.92498767  1
  O  O4  1  0.26798426  0.73201574  0.22321874  1
  O  O5  1  0.40056855  0.59943145  0.48091090  1
  O  O6  1  0.44381976  0.55618024  0.22087676  1
  O  O7  1  0.55618024  0.44381976  0.77912324  1
  O  O8  1  -0.00000000  -0.00000000  -0.00000000  1
  O  O9  1  0.59943145  0.40056855  0.51908910  1
  O  O10  1  0.73201574  0.26798426  0.77678126  1
  O  O11  1  0.63675755  0.36324245  0.07501233  1
  O  O12  1  0.75655326  0.24344674  0.42586301  1
  O  O13  1  0.88598418  0.11401582  0.72904315  1
  O  O14  1  0.81781494  0.18218506  0.05545735  1
loop_
_geom_bond_atom_site_label_1
_geom_bond_atom_site_label_2
_geom_bond_distance
_geom_bond_site_symmetry_2
O0 V4 1.870984 1_455
O0 V4 1.870984 1_565
O0 V0 2.280579 1_556
O0 V3 2.420524 1_556
O1 V0 1.600870 1_555
O2 V5 1.881112 1_455
O2 V5 1.881112 1_565
O2 V2 2.001115 1_555
O3 V1 1.880795 1_565
O3 V1 1.880795 1_455
O3 V3 2.035077 1_556
O4 V2 1.847875 1_555
O4 V3 1.860837 1_555
O4 V0 2.165553 1_555
O5 V2 1.574962 1_555
O6 V3 1.581582 1_555
O7 V4 1.581579 1_555
O8 V1 1.780491 1_454
O8 V0 1.780491 1_545
O9 V5 1.574962 1_555
O10 V5 1.847875 1_555
O10 V4 1.860828 1_555
O10 V1 2.165553 1_555
O11 V0 1.880795 1_545
O11 V0 1.880795 1_655
O11 V4 2.035087 1_554
O12 V2 1.881112 1_655
O12 V2 1.881112 1_545
O12 V5 2.001115 1_555
O13 V1 1.600870 1_555
O14 V3 1.870982 1_655
O14 V3 1.870982 1_545
O14 V1 2.280579 1_554
O14 V4 2.420527 1_554
