# generated using pymatgen
data_Y4BBr6
_symmetry_space_group_name_H-M   'P 1'
_cell_length_a   10.62979332
_cell_length_b   10.62996934
_cell_length_c   12.58818530
_cell_angle_alpha   84.32326518
_cell_angle_beta   84.32403815
_cell_angle_gamma   63.63516084
_symmetry_Int_Tables_number   1
_chemical_formula_structural   Y4BBr6
_chemical_formula_sum   'Y16 B4 Br24'
_cell_volume   1265.77986277
_cell_formula_units_Z   4
loop_
 _symmetry_equiv_pos_site_id
 _symmetry_equiv_pos_as_xyz
  1  'x, y, z'
loop_
 _atom_site_type_symbol
 _atom_site_label
 _atom_site_symmetry_multiplicity
 _atom_site_fract_x
 _atom_site_fract_y
 _atom_site_fract_z
 _atom_site_occupancy
  Y  Y0  1  0.71339875  0.47032630  0.19155784  1
  Y  Y1  1  0.52968652  0.28664477  0.30844521  1
  Y  Y2  1  0.28659729  0.52967266  0.80844283  1
  Y  Y3  1  0.47032213  0.71334984  0.69155246  1
  Y  Y4  1  0.78566772  0.54465765  0.45395801  1
  Y  Y5  1  0.45535129  0.21432673  0.04609213  1
  Y  Y6  1  0.21433372  0.45534281  0.54604359  1
  Y  Y7  1  0.54463249  0.78568355  0.95390886  1
  Y  Y8  1  0.58121212  0.35829198  0.58865325  1
  Y  Y9  1  0.64170077  0.41879401  0.91136937  1
  Y  Y10  1  0.41879322  0.64170532  0.41134700  1
  Y  Y11  1  0.35829328  0.58120161  0.08862737  1
  Y  Y12  1  0.11422186  0.81335602  0.60508514  1
  Y  Y13  1  0.18663943  0.88576423  0.89490560  1
  Y  Y14  1  0.88578555  0.18664474  0.39491274  1
  Y  Y15  1  0.81336137  0.11423243  0.10508965  1
  B  B0  1  0.66237034  0.41166095  0.39489863  1
  B  B1  1  0.58834893  0.33764633  0.10510977  1
  B  B2  1  0.33763626  0.58833682  0.60509981  1
  B  B3  1  0.41165140  0.66234880  0.89488948  1
  Br  Br0  1  0.14093468  0.37633010  0.74855348  1
  Br  Br1  1  0.62359599  0.85907399  0.75135747  1
  Br  Br2  1  0.85906075  0.62366165  0.25143518  1
  Br  Br3  1  0.37639288  0.14093930  0.24864373  1
  Br  Br4  1  0.15833139  0.91468654  0.39518798  1
  Br  Br5  1  0.08531194  0.84166947  0.10478622  1
  Br  Br6  1  0.84167981  0.08530948  0.60481103  1
  Br  Br7  1  0.91471061  0.15831964  0.89520446  1
  Br  Br8  1  0.05549858  0.30665319  0.46653106  1
  Br  Br9  1  0.69335966  0.94449692  0.03347711  1
  Br  Br10  1  0.94449674  0.69336285  0.53347445  1
  Br  Br11  1  0.30663852  0.05550331  0.96653034  1
  Br  Br12  1  0.98767440  0.22466716  0.18021737  1
  Br  Br13  1  0.77535194  0.01233879  0.31978484  1
  Br  Br14  1  0.01231271  0.77534871  0.81977793  1
  Br  Br15  1  0.22463666  0.98765963  0.68021693  1
  Br  Br16  1  0.46974810  0.74965988  0.18449464  1
  Br  Br17  1  0.25030289  0.53027790  0.31546267  1
  Br  Br18  1  0.53023899  0.25034745  0.81550715  1
  Br  Br19  1  0.74971513  0.46969300  0.68453735  1
  Br  Br20  1  0.80903757  0.54680773  0.97404306  1
  Br  Br21  1  0.45322475  0.19097483  0.52594343  1
  Br  Br22  1  0.19094972  0.45320479  0.02597534  1
  Br  Br23  1  0.54678915  0.80902416  0.47405504  1
loop_
_geom_bond_atom_site_label_1
_geom_bond_atom_site_label_2
_geom_bond_distance
_geom_bond_site_symmetry_2
B0 Y4 2.513068 1_555
B0 Y14 2.513163 1_555
B0 Y8 2.599931 1_555
B0 Y0 2.635363 1_555
B0 Y10 2.664056 1_555
B0 Y1 2.682176 1_555
B1 Y5 2.513051 1_555
B1 Y15 2.513134 1_555
B1 Y9 2.599684 1_554
B1 Y1 2.635233 1_555
B1 Y11 2.664016 1_555
B1 Y0 2.682387 1_555
B2 Y6 2.513072 1_555
B2 Y12 2.513176 1_555
B2 Y10 2.599905 1_555
B2 Y2 2.635410 1_555
B2 Y8 2.664050 1_555
B2 Y3 2.682163 1_555
B3 Y7 2.513044 1_555
B3 Y13 2.513140 1_555
B3 Y11 2.599673 1_556
B3 Y3 2.635270 1_555
B3 Y9 2.663978 1_555
B3 Y2 2.682381 1_555
Br0 Y6 2.752777 1_555
Br0 Y2 2.887632 1_555
Br1 Y7 2.753023 1_555
Br1 Y3 2.887164 1_555
Br2 Y4 2.752866 1_555
Br2 Y0 2.887507 1_555
Br3 Y5 2.752997 1_555
Br3 Y1 2.887161 1_555
Br4 Y12 2.828763 1_555
Br4 Y10 2.997699 1_555
Br4 Y14 3.051544 1_465
Br5 Y13 2.828533 1_554
Br5 Y11 2.997734 1_555
Br5 Y15 3.051598 1_465
Br6 Y14 2.828784 1_555
Br6 Y8 2.997737 1_555
Br6 Y12 3.051496 1_645
Br7 Y15 2.828648 1_556
Br7 Y9 2.997940 1_555
Br7 Y13 3.051434 1_645
Br8 Y4 2.866733 1_455
Br8 Y14 2.878864 1_455
Br8 Y6 3.060734 1_555
Br9 Y5 2.866795 1_565
Br9 Y15 2.878995 1_565
Br9 Y7 3.061169 1_554
Br10 Y6 2.866842 1_655
Br10 Y12 2.878811 1_655
Br10 Y4 3.060834 1_555
Br11 Y7 2.866668 1_545
Br11 Y13 2.879071 1_545
Br11 Y5 3.061099 1_556
Br12 Y15 2.864249 1_555
Br12 Y14 2.869539 1_555
Br12 Y0 2.927298 1_555
Br13 Y14 2.864192 1_555
Br13 Y15 2.869522 1_555
Br13 Y1 2.927525 1_555
Br14 Y13 2.864226 1_555
Br14 Y12 2.869551 1_555
Br14 Y2 2.927433 1_555
Br15 Y12 2.864046 1_555
Br15 Y13 2.869427 1_555
Br15 Y3 2.927644 1_555
Br16 Y11 2.942991 1_555
Br16 Y0 2.948816 1_555
Br16 Y7 2.966391 1_554
Br16 Y10 3.059877 1_555
Br17 Y10 2.943161 1_555
Br17 Y1 2.949043 1_555
Br17 Y6 2.966366 1_555
Br17 Y11 3.059746 1_555
Br18 Y9 2.942909 1_555
Br18 Y2 2.948721 1_555
Br18 Y5 2.966385 1_556
Br18 Y8 3.059904 1_555
Br19 Y8 2.943071 1_555
Br19 Y3 2.949213 1_555
Br19 Y4 2.966393 1_555
Br19 Y9 3.059735 1_555
Br20 Y7 2.843635 1_555
Br20 Y9 2.877139 1_555
Br20 Y0 2.989120 1_556
Br21 Y6 2.843443 1_555
Br21 Y8 2.876927 1_555
Br21 Y1 2.988994 1_555
Br22 Y5 2.843602 1_555
Br22 Y11 2.876958 1_555
Br22 Y2 2.989298 1_554
Br23 Y4 2.843371 1_555
Br23 Y10 2.877004 1_555
Br23 Y3 2.989021 1_555
