# generated using pymatgen
data_Rb3MgNbO8
_symmetry_space_group_name_H-M   'P 1'
_cell_length_a   7.57164424
_cell_length_b   7.12735162
_cell_length_c   7.57164470
_cell_angle_alpha   78.61443960
_cell_angle_beta   123.14790308
_cell_angle_gamma   132.75452965
_symmetry_Int_Tables_number   1
_chemical_formula_structural   Rb3MgNbO8
_chemical_formula_sum   'Rb3 Mg1 Nb1 O8'
_cell_volume   240.95682712
_cell_formula_units_Z   1
loop_
 _symmetry_equiv_pos_site_id
 _symmetry_equiv_pos_as_xyz
  1  'x, y, z'
loop_
 _atom_site_type_symbol
 _atom_site_label
 _atom_site_symmetry_multiplicity
 _atom_site_fract_x
 _atom_site_fract_y
 _atom_site_fract_z
 _atom_site_occupancy
  Rb  Rb0  1  0.01547868  0.50000000  0.51547868  1
  Rb  Rb1  1  0.45441041  0.76656571  0.26395600  1
  Rb  Rb2  1  0.49739029  0.23343429  0.68784470  1
  Mg  Mg0  1  0.56358871  0.50000000  0.06358871  1
  Nb  Nb0  1  0.03946374  1.00000000  0.03946374  1
  O  O0  1  0.35080821  0.10334211  0.00613589  1
  O  O1  1  0.90279378  0.89665789  0.24746610  1
  O  O2  1  0.96464770  0.23911211  -0.01009631  1
  O  O3  1  0.75079158  0.76088789  0.72553559  1
  O  O4  1  0.54767557  0.65872587  0.78563273  1
  O  O5  1  0.12690687  0.34127413  0.88894971  1
  O  O6  1  0.97689203  0.69322735  0.15237978  1
  O  O7  1  0.45915243  0.30677265  0.28366469  1
loop_
_geom_bond_atom_site_label_1
_geom_bond_atom_site_label_2
_geom_bond_distance
_geom_bond_site_symmetry_2
Mg0 O0 2.076657 1_555
Mg0 O1 2.076657 1_555
Mg0 O6 2.086863 1_555
Mg0 O7 2.086863 1_555
Mg0 O5 2.165951 1_554
Mg0 O4 2.165951 1_554
Nb0 O6 2.008622 1_455
Nb0 O7 2.008622 1_565
Nb0 O2 2.047421 1_465
Nb0 O3 2.047421 1_454
Nb0 O0 2.093606 1_565
Nb0 O1 2.093606 1_455
Nb0 O5 2.279866 1_564
Nb0 O4 2.279866 1_454
O0 Rb2 2.923226 1_554
O0 Rb1 3.036356 1_545
O1 Rb1 2.923225 1_555
O1 Rb2 3.036356 1_665
O2 O5 1.488804 1_654
O2 Rb1 2.815505 1_655
O2 Rb2 2.956762 1_554
O3 O4 1.488804 1_555
O3 Rb2 2.815505 1_555
O3 Rb1 2.956762 1_555
O4 Rb0 2.722457 1_555
O4 Rb2 2.981986 1_555
O5 Rb0 2.722457 1_555
O5 Rb1 2.981986 1_556
O6 Rb0 2.777306 1_655
O6 Rb1 2.885734 1_655
O6 Rb2 3.274722 1_554
O7 Rb0 2.777306 1_655
O7 Rb2 2.885734 1_555
O7 Rb1 3.274722 1_555
