# generated using pymatgen
data_Fe(PO3)4
_symmetry_space_group_name_H-M   'P 1'
_cell_length_a   8.15667619
_cell_length_b   8.15667619
_cell_length_c   7.93419317
_cell_angle_alpha   82.56137379
_cell_angle_beta   82.56137379
_cell_angle_gamma   107.77621060
_symmetry_Int_Tables_number   1
_chemical_formula_structural   Fe(PO3)4
_chemical_formula_sum   'Fe2 P8 O24'
_cell_volume   490.39227203
_cell_formula_units_Z   2
loop_
 _symmetry_equiv_pos_site_id
 _symmetry_equiv_pos_as_xyz
  1  'x, y, z'
loop_
 _atom_site_type_symbol
 _atom_site_label
 _atom_site_symmetry_multiplicity
 _atom_site_fract_x
 _atom_site_fract_y
 _atom_site_fract_z
 _atom_site_occupancy
  Fe  Fe0  1  0.86668000  0.13332000  0.75000000  1
  Fe  Fe1  1  0.13332000  0.86668000  0.25000000  1
  P  P0  1  0.57184000  0.25737100  0.61981200  1
  P  P1  1  0.74262900  0.42816000  0.88018800  1
  P  P2  1  0.04406700  0.20966000  0.32573400  1
  P  P3  1  0.25737100  0.57184000  0.11981200  1
  P  P4  1  0.42816000  0.74262900  0.38018800  1
  P  P5  1  0.95593300  0.79034000  0.67426600  1
  P  P6  1  0.79034000  0.95593300  0.17426600  1
  P  P7  1  0.20966000  0.04406700  0.82573400  1
  O  O0  1  0.66291800  0.38260600  0.06300300  1
  O  O1  1  0.86881500  0.13118500  0.25000000  1
  O  O2  1  0.13118500  0.86881500  0.75000000  1
  O  O3  1  0.11639700  0.65554800  0.18417800  1
  O  O4  1  0.00799000  0.26999900  0.49192000  1
  O  O5  1  0.15488900  0.36505700  0.17335500  1
  O  O6  1  0.34445200  0.88360300  0.31582200  1
  O  O7  1  0.07554200  0.14167100  0.83125400  1
  O  O8  1  0.14167100  0.07554200  0.33125400  1
  O  O9  1  0.39540800  0.60459200  0.25000000  1
  O  O10  1  0.33708200  0.61739400  0.93699700  1
  O  O11  1  0.38260600  0.66291800  0.56300300  1
  O  O12  1  0.26999900  0.00799000  0.99192000  1
  O  O13  1  0.63494300  0.84511100  0.32664500  1
  O  O14  1  0.36505700  0.15488900  0.67335500  1
  O  O15  1  0.99201000  0.73000100  0.50808000  1
  O  O16  1  0.61739400  0.33708200  0.43699700  1
  O  O17  1  0.73000100  0.99201000  0.00808000  1
  O  O18  1  0.60459200  0.39540800  0.75000000  1
  O  O19  1  0.85832900  0.92445800  0.66874600  1
  O  O20  1  0.92445800  0.85832900  0.16874600  1
  O  O21  1  0.65554800  0.11639700  0.68417800  1
  O  O22  1  0.84511100  0.63494300  0.82664500  1
  O  O23  1  0.88360300  0.34445200  0.81582200  1
loop_
_geom_bond_atom_site_label_1
_geom_bond_atom_site_label_2
_geom_bond_distance
_geom_bond_site_symmetry_2
Fe0 O23 1.834103 1_555
Fe0 O21 1.834103 1_555
Fe0 O7 1.883474 1_655
Fe0 O19 1.883474 1_545
Fe0 O4 2.185748 1_655
Fe0 O17 2.185748 1_546
Fe1 O6 1.834103 1_555
Fe1 O3 1.834103 1_555
Fe1 O8 1.883474 1_565
Fe1 O20 1.883474 1_455
Fe1 O12 2.185748 1_564
Fe1 O15 2.185748 1_455
O0 P1 1.460637 1_554
O1 P2 1.605454 1_655
O1 P6 1.605454 1_545
O2 P7 1.605454 1_565
O2 P5 1.605454 1_455
O3 P3 1.570618 1_555
O4 P2 1.491106 1_555
O5 P2 1.583049 1_555
O5 P3 1.608007 1_555
O6 P4 1.570618 1_555
O7 P7 1.536517 1_555
O8 P2 1.536517 1_555
O9 P4 1.610886 1_555
O9 P3 1.610886 1_555
O10 P3 1.460637 1_556
O11 P4 1.460637 1_555
O12 P7 1.491106 1_555
O13 P6 1.583049 1_555
O13 P4 1.608007 1_555
O14 P7 1.583049 1_555
O14 P0 1.608007 1_555
O15 P5 1.491106 1_555
O16 P0 1.460637 1_555
O17 P6 1.491106 1_555
O18 P1 1.610886 1_555
O18 P0 1.610886 1_555
O19 P5 1.536517 1_555
O20 P6 1.536517 1_555
O21 P0 1.570618 1_555
O22 P5 1.583049 1_555
O22 P1 1.608007 1_555
O23 P1 1.570618 1_555
