# generated using pymatgen
data_Ga2(SO4)3
_symmetry_space_group_name_H-M   'P 1'
_cell_length_a   8.44611877
_cell_length_b   8.44611852
_cell_length_c   21.91424278
_cell_angle_alpha   90.00000000
_cell_angle_beta   90.00000000
_cell_angle_gamma   120.00000095
_symmetry_Int_Tables_number   1
_chemical_formula_structural   Ga2(SO4)3
_chemical_formula_sum   'Ga12 S18 O72'
_cell_volume   1353.85281326
_cell_formula_units_Z   6
loop_
 _symmetry_equiv_pos_site_id
 _symmetry_equiv_pos_as_xyz
  1  'x, y, z'
loop_
 _atom_site_type_symbol
 _atom_site_label
 _atom_site_symmetry_multiplicity
 _atom_site_fract_x
 _atom_site_fract_y
 _atom_site_fract_z
 _atom_site_occupancy
  Ga  Ga0  1  -0.00000000  0.00000000  0.35345836  1
  Ga  Ga1  1  -0.00000000  0.00000000  0.85345836  1
  Ga  Ga2  1  -0.00000000  0.00000000  0.64654164  1
  Ga  Ga3  1  -0.00000000  0.00000000  0.14654164  1
  Ga  Ga4  1  0.66666700  0.33333300  0.68679136  1
  Ga  Ga5  1  0.66666700  0.33333300  0.18679136  1
  Ga  Ga6  1  0.66666700  0.33333300  0.97987464  1
  Ga  Ga7  1  0.66666700  0.33333300  0.47987464  1
  Ga  Ga8  1  0.33333300  0.66666700  0.02012536  1
  Ga  Ga9  1  0.33333300  0.66666700  0.52012536  1
  Ga  Ga10  1  0.33333300  0.66666700  0.31320864  1
  Ga  Ga11  1  0.33333300  0.66666700  0.81320864  1
  S  S0  1  0.29075719  0.00000000  0.25000000  1
  S  S1  1  0.70924281  0.70924281  0.25000000  1
  S  S2  1  1.00000000  0.29075719  0.25000000  1
  S  S3  1  0.29075719  0.29075719  0.75000000  1
  S  S4  1  0.00000000  0.70924281  0.75000000  1
  S  S5  1  0.70924281  0.00000000  0.75000000  1
  S  S6  1  0.95742419  0.33333300  0.58333300  1
  S  S7  1  0.37590981  0.04257581  0.58333300  1
  S  S8  1  0.66666700  0.62409019  0.58333300  1
  S  S9  1  0.95742419  0.62409019  0.08333300  1
  S  S10  1  0.66666700  0.04257581  0.08333300  1
  S  S11  1  0.37590981  0.33333300  0.08333300  1
  S  S12  1  0.62409019  0.66666700  0.91666700  1
  S  S13  1  0.04257581  0.37590981  0.91666700  1
  S  S14  1  0.33333300  0.95742419  0.91666700  1
  S  S15  1  0.62409019  0.95742419  0.41666700  1
  S  S16  1  0.33333300  0.37590981  0.41666700  1
  S  S17  1  0.04257581  0.66666700  0.41666700  1
  O  O0  1  0.21139422  0.03601377  0.30495075  1
  O  O1  1  0.82461955  0.78860578  0.30495075  1
  O  O2  1  0.96398623  0.17538045  0.30495075  1
  O  O3  1  0.21139422  0.17538045  0.80495075  1
  O  O4  1  0.96398623  0.78860578  0.80495075  1
  O  O5  1  0.82461955  0.03601377  0.80495075  1
  O  O6  1  0.78860578  0.96398623  0.69504925  1
  O  O7  1  0.17538045  0.21139422  0.69504925  1
  O  O8  1  0.03601377  0.82461955  0.69504925  1
  O  O9  1  0.78860578  0.82461955  0.19504925  1
  O  O10  1  0.03601377  0.21139422  0.19504925  1
  O  O11  1  0.17538045  0.96398623  0.19504925  1
  O  O12  1  0.87806122  0.36934677  0.63828375  1
  O  O13  1  0.49128655  0.12193878  0.63828375  1
  O  O14  1  0.63065323  0.50871345  0.63828375  1
  O  O15  1  0.87806122  0.50871345  0.13828375  1
  O  O16  1  0.63065323  0.12193878  0.13828375  1
  O  O17  1  0.49128655  0.36934677  0.13828375  1
  O  O18  1  0.45527278  0.29731923  0.02838225  1
  O  O19  1  0.84204745  0.54472722  0.02838225  1
  O  O20  1  0.70268077  0.15795255  0.02838225  1
  O  O21  1  0.45527278  0.15795255  0.52838225  1
  O  O22  1  0.70268077  0.54472722  0.52838225  1
  O  O23  1  0.84204745  0.29731923  0.52838225  1
  O  O24  1  0.54472722  0.70268077  0.97161775  1
  O  O25  1  0.15795255  0.45527278  0.97161775  1
  O  O26  1  0.29731923  0.84204745  0.97161775  1
  O  O27  1  0.54472722  0.84204745  0.47161775  1
  O  O28  1  0.29731923  0.45527278  0.47161775  1
  O  O29  1  0.15795255  0.70268077  0.47161775  1
  O  O30  1  0.12193878  0.63065323  0.36171625  1
  O  O31  1  0.50871345  0.87806122  0.36171625  1
  O  O32  1  0.36934677  0.49128655  0.36171625  1
  O  O33  1  0.12193878  0.49128655  0.86171625  1
  O  O34  1  0.36934677  0.87806122  0.86171625  1
  O  O35  1  0.50871345  0.63065323  0.86171625  1
  O  O36  1  0.02504317  0.83054570  0.40860850  1
  O  O37  1  0.80550253  0.97495683  0.40860850  1
  O  O38  1  0.16945430  0.19449747  0.40860850  1
  O  O39  1  0.02504317  0.19449747  0.90860850  1
  O  O40  1  0.16945430  0.97495683  0.90860850  1
  O  O41  1  0.80550253  0.83054570  0.90860850  1
  O  O42  1  0.97495683  0.16945430  0.59139150  1
  O  O43  1  0.19449747  0.02504317  0.59139150  1
  O  O44  1  0.83054570  0.80550253  0.59139150  1
  O  O45  1  0.97495683  0.80550253  0.09139150  1
  O  O46  1  0.83054570  0.02504317  0.09139150  1
  O  O47  1  0.19449747  0.16945430  0.09139150  1
  O  O48  1  0.69171017  0.16387870  0.74194150  1
  O  O49  1  0.47216953  0.30828983  0.74194150  1
  O  O50  1  0.83612130  0.52783047  0.74194150  1
  O  O51  1  0.69171017  0.52783047  0.24194150  1
  O  O52  1  0.83612130  0.30828983  0.24194150  1
  O  O53  1  0.47216953  0.16387870  0.24194150  1
  O  O54  1  0.64162383  0.50278730  0.92472450  1
  O  O55  1  0.86116447  0.35837617  0.92472450  1
  O  O56  1  0.49721270  0.13883553  0.92472450  1
  O  O57  1  0.64162383  0.13883553  0.42472450  1
  O  O58  1  0.49721270  0.35837617  0.42472450  1
  O  O59  1  0.86116447  0.50278730  0.42472450  1
  O  O60  1  0.35837617  0.49721270  0.07527550  1
  O  O61  1  0.13883553  0.64162383  0.07527550  1
  O  O62  1  0.50278730  0.86116447  0.07527550  1
  O  O63  1  0.35837617  0.86116447  0.57527550  1
  O  O64  1  0.50278730  0.64162383  0.57527550  1
  O  O65  1  0.13883553  0.49721270  0.57527550  1
  O  O66  1  0.30828983  0.83612130  0.25805850  1
  O  O67  1  0.52783047  0.69171017  0.25805850  1
  O  O68  1  0.16387870  0.47216953  0.25805850  1
  O  O69  1  0.30828983  0.47216953  0.75805850  1
  O  O70  1  0.16387870  0.69171017  0.75805850  1
  O  O71  1  0.52783047  0.83612130  0.75805850  1
loop_
_geom_bond_atom_site_label_1
_geom_bond_atom_site_label_2
_geom_bond_distance
_geom_bond_site_symmetry_2
Ga0 O38 1.963808 1_555
Ga0 O36 1.963808 1_545
Ga0 O37 1.963808 1_445
Ga0 O1 1.966541 1_445
Ga0 O2 1.966541 1_455
Ga0 O0 1.966541 1_555
Ga1 O39 1.963808 1_555
Ga1 O41 1.963808 1_445
Ga1 O40 1.963808 1_545
Ga1 O4 1.966541 1_445
Ga1 O3 1.966541 1_555
Ga1 O5 1.966541 1_455
Ga2 O44 1.963808 1_445
Ga2 O42 1.963808 1_455
Ga2 O43 1.963808 1_555
Ga2 O7 1.966541 1_555
Ga2 O8 1.966541 1_545
Ga2 O6 1.966541 1_445
Ga3 O45 1.963808 1_445
Ga3 O47 1.963808 1_555
Ga3 O46 1.963808 1_455
Ga3 O10 1.966541 1_555
Ga3 O9 1.966541 1_445
Ga3 O11 1.966541 1_545
Ga4 O50 1.963808 1_555
Ga4 O48 1.963808 1_555
Ga4 O49 1.963808 1_555
Ga4 O13 1.966541 1_555
Ga4 O14 1.966541 1_555
Ga4 O12 1.966541 1_555
Ga5 O51 1.963808 1_555
Ga5 O53 1.963808 1_555
Ga5 O52 1.963808 1_555
Ga5 O16 1.966541 1_555
Ga5 O15 1.966541 1_555
Ga5 O17 1.966541 1_555
Ga6 O56 1.963808 1_555
Ga6 O54 1.963808 1_555
Ga6 O55 1.963808 1_555
Ga6 O19 1.966541 1_556
Ga6 O20 1.966541 1_556
Ga6 O18 1.966541 1_556
Ga7 O57 1.963808 1_555
Ga7 O59 1.963808 1_555
Ga7 O58 1.963808 1_555
Ga7 O22 1.966541 1_555
Ga7 O21 1.966541 1_555
Ga7 O23 1.966541 1_555
Ga8 O62 1.963808 1_555
Ga8 O60 1.963808 1_555
Ga8 O61 1.963808 1_555
Ga8 O25 1.966541 1_554
Ga8 O26 1.966541 1_554
Ga8 O24 1.966541 1_554
Ga9 O63 1.963808 1_555
Ga9 O65 1.963808 1_555
Ga9 O64 1.963808 1_555
Ga9 O28 1.966541 1_555
Ga9 O27 1.966541 1_555
Ga9 O29 1.966541 1_555
Ga10 O68 1.963808 1_555
Ga10 O66 1.963808 1_555
Ga10 O67 1.963808 1_555
Ga10 O31 1.966541 1_555
Ga10 O32 1.966541 1_555
Ga10 O30 1.966541 1_555
Ga11 O69 1.963808 1_555
Ga11 O71 1.963808 1_555
Ga11 O70 1.963808 1_555
Ga11 O34 1.966541 1_555
Ga11 O33 1.966541 1_555
Ga11 O35 1.966541 1_555
O0 S0 1.481836 1_555
O1 S1 1.481836 1_555
O2 S2 1.481836 1_555
O3 S3 1.481836 1_555
O4 S4 1.481836 1_655
O5 S5 1.481836 1_555
O6 S5 1.481836 1_565
O7 S3 1.481836 1_555
O8 S4 1.481836 1_555
O9 S1 1.481836 1_555
O10 S2 1.481836 1_455
O11 S0 1.481836 1_565
O12 S6 1.481836 1_555
O13 S7 1.481836 1_555
O14 S8 1.481836 1_555
O15 S9 1.481836 1_555
O16 S10 1.481836 1_555
O17 S11 1.481836 1_555
O18 S11 1.481836 1_555
O19 S9 1.481836 1_555
O20 S10 1.481836 1_555
O21 S7 1.481836 1_555
O22 S8 1.481836 1_555
O23 S6 1.481836 1_555
O24 S12 1.481836 1_555
O25 S13 1.481836 1_555
O26 S14 1.481836 1_555
O27 S15 1.481836 1_555
O28 S16 1.481836 1_555
O29 S17 1.481836 1_555
O30 S17 1.481836 1_555
O31 S15 1.481836 1_555
O32 S16 1.481836 1_555
O33 S13 1.481836 1_555
O34 S14 1.481836 1_555
O35 S12 1.481836 1_555
O36 S17 1.474423 1_555
O37 S15 1.474431 1_555
O38 S16 1.474428 1_555
O39 S13 1.474431 1_555
O40 S14 1.474423 1_555
O41 S12 1.474428 1_555
O42 S6 1.474423 1_555
O43 S7 1.474431 1_555
O44 S8 1.474428 1_555
O45 S9 1.474431 1_555
O46 S10 1.474423 1_555
O47 S11 1.474428 1_555
O48 S5 1.474423 1_555
O49 S3 1.474431 1_555
O50 S4 1.474428 1_655
O51 S1 1.474431 1_555
O52 S2 1.474423 1_555
O53 S0 1.474428 1_555
O54 S12 1.474433 1_555
O55 S13 1.474417 1_655
O56 S14 1.474424 1_545
O57 S15 1.474417 1_545
O58 S16 1.474433 1_555
O59 S17 1.474424 1_655
O60 S11 1.474433 1_555
O61 S9 1.474417 1_455
O62 S10 1.474424 1_565
O63 S7 1.474417 1_565
O64 S8 1.474433 1_555
O65 S6 1.474424 1_455
O66 S0 1.474423 1_565
O67 S1 1.474431 1_555
O68 S2 1.474428 1_455
O69 S3 1.474431 1_555
O70 S4 1.474423 1_555
O71 S5 1.474428 1_565
