# generated using pymatgen
data_MnCu2Sn
_symmetry_space_group_name_H-M   'P 1'
_cell_length_a   4.41442521
_cell_length_b   4.41442521
_cell_length_c   4.41442521
_cell_angle_alpha   60.00000000
_cell_angle_beta   60.00000000
_cell_angle_gamma   60.00000000
_symmetry_Int_Tables_number   1
_chemical_formula_structural   MnCu2Sn
_chemical_formula_sum   'Mn1 Cu2 Sn1'
_cell_volume   60.82855387
_cell_formula_units_Z   1
loop_
 _symmetry_equiv_pos_site_id
 _symmetry_equiv_pos_as_xyz
  1  'x, y, z'
loop_
 _atom_site_type_symbol
 _atom_site_label
 _atom_site_symmetry_multiplicity
 _atom_site_fract_x
 _atom_site_fract_y
 _atom_site_fract_z
 _atom_site_occupancy
  Mn  Mn0  1  0.50000000  0.50000000  0.50000000  1
  Cu  Cu0  1  0.25000000  0.25000000  0.25000000  1
  Cu  Cu1  1  0.75000000  0.75000000  0.75000000  1
  Sn  Sn0  1  0.00000000  0.00000000  0.00000000  1
loop_
_geom_bond_atom_site_label_1
_geom_bond_atom_site_label_2
_geom_bond_distance
_geom_bond_site_symmetry_2
Mn0 Sn0 3.121470 1_655
Mn0 Sn0 3.121470 1_566
Mn0 Sn0 3.121470 1_665
Mn0 Sn0 3.121470 1_556
Mn0 Sn0 3.121470 1_565
Mn0 Sn0 3.121470 1_656
Cu0 Sn0 2.703272 1_655
Cu0 Mn0 2.703272 1_545
Cu0 Sn0 2.703272 1_565
Cu0 Mn0 2.703272 1_455
Cu0 Mn0 2.703272 1_555
Cu0 Mn0 2.703272 1_554
Cu0 Sn0 2.703272 1_555
Cu0 Sn0 2.703272 1_556
Cu1 Sn0 2.703272 1_566
Cu1 Mn0 2.703272 1_565
Cu1 Mn0 2.703272 1_655
Cu1 Sn0 2.703272 1_656
Cu1 Sn0 2.703272 1_666
Cu1 Mn0 2.703272 1_555
Cu1 Mn0 2.703272 1_556
Cu1 Sn0 2.703272 1_665
