# generated using pymatgen
data_MgCo2(AsS)2
_symmetry_space_group_name_H-M   'P 1'
_cell_length_a   3.48792025
_cell_length_b   4.99381359
_cell_length_c   6.66875458
_cell_angle_alpha   103.32117441
_cell_angle_beta   90.00323301
_cell_angle_gamma   89.99600928
_symmetry_Int_Tables_number   1
_chemical_formula_structural   MgCo2(AsS)2
_chemical_formula_sum   'Mg1 Co2 As2 S2'
_cell_volume   113.03119202
_cell_formula_units_Z   1
loop_
 _symmetry_equiv_pos_site_id
 _symmetry_equiv_pos_as_xyz
  1  'x, y, z'
loop_
 _atom_site_type_symbol
 _atom_site_label
 _atom_site_symmetry_multiplicity
 _atom_site_fract_x
 _atom_site_fract_y
 _atom_site_fract_z
 _atom_site_occupancy
  Mg  Mg0  1  0.24994416  0.65267464  0.94876310  1
  Co  Co0  1  0.75002388  0.78527809  0.48861570  1
  Co  Co1  1  0.24997373  0.18415479  0.05261832  1
  As  As0  1  0.25001693  0.04631297  0.37815496  1
  As  As1  1  0.74996407  0.04364362  0.83006898  1
  S  S0  1  0.74999841  0.49784432  0.16840451  1
  S  S1  1  0.25007882  0.52620256  0.57345543  1
loop_
_geom_bond_atom_site_label_1
_geom_bond_atom_site_label_2
_geom_bond_distance
_geom_bond_site_symmetry_2
Mg0 S1 2.436112 1_555
Mg0 S0 2.511250 1_456
Mg0 S0 2.511323 1_556
Co0 S0 2.282070 1_555
Co0 S1 2.317849 1_555
Co0 S1 2.317953 1_655
Co1 S0 2.352367 1_455
Co1 S0 2.352592 1_555
Co1 Mg0 2.583972 1_544
Co1 Mg0 2.588552 1_554
As0 Co0 2.392785 1_545
As0 Co0 2.392943 1_445
As0 Co1 2.423918 1_555
As0 S1 2.449710 1_555
As0 Mg0 3.077329 1_544
As1 Co1 2.292705 1_656
As1 Co1 2.292707 1_556
As1 Co0 2.344328 1_545
As1 S0 2.806629 1_556
As1 Mg0 2.862026 1_645
As1 Mg0 2.862331 1_545
