# generated using pymatgen
data_Na4La2Si3Ge2(SO8)3
_symmetry_space_group_name_H-M   'P 1'
_cell_length_a   9.29488431
_cell_length_b   9.52025627
_cell_length_c   23.22871755
_cell_angle_alpha   91.10810505
_cell_angle_beta   87.60905569
_cell_angle_gamma   119.84134093
_symmetry_Int_Tables_number   1
_chemical_formula_structural   Na4La2Si3Ge2(SO8)3
_chemical_formula_sum   'Na12 La6 Si9 Ge6 S9 O72'
_cell_volume   1781.40134616
_cell_formula_units_Z   3
loop_
 _symmetry_equiv_pos_site_id
 _symmetry_equiv_pos_as_xyz
  1  'x, y, z'
loop_
 _atom_site_type_symbol
 _atom_site_label
 _atom_site_symmetry_multiplicity
 _atom_site_fract_x
 _atom_site_fract_y
 _atom_site_fract_z
 _atom_site_occupancy
  Na  Na0  1  0.96670606  0.63624103  0.25264413  1
  Na  Na1  1  0.99584332  0.36557897  0.74984276  1
  Na  Na2  1  0.65524172  0.97593822  0.58816823  1
  Na  Na3  1  0.66125407  0.69186321  0.07660302  1
  Na  Na4  1  0.33722762  0.29837118  0.91103608  1
  Na  Na5  1  0.32280462  0.02298424  0.41434998  1
  Na  Na6  1  0.01177519  0.99275602  0.50866523  1
  Na  Na7  1  0.99630873  0.99516141  0.00531239  1
  Na  Na8  1  0.65589004  0.31353716  0.83200746  1
  Na  Na9  1  0.65245461  0.33361735  0.33717166  1
  Na  Na10  1  0.32170783  0.67253055  0.16613931  1
  Na  Na11  1  0.30470115  0.66252491  0.66597031  1
  La  La0  1  0.98728134  0.99343133  0.35363250  1
  La  La1  1  0.99304969  0.98038894  0.84864564  1
  La  La2  1  0.65859421  0.33749465  0.68512413  1
  La  La3  1  0.64884871  0.31833705  0.18552052  1
  La  La4  1  0.32790274  0.68554580  0.01459397  1
  La  La5  1  0.31890032  0.65609026  0.51763413  1
  Si  Si0  1  0.28450686  0.96982208  0.25678783  1
  Si  Si1  1  0.66656421  0.69172985  0.25655874  1
  Si  Si2  1  0.29407108  0.31056907  0.75791588  1
  Si  Si3  1  0.72571030  0.99707804  0.74262726  1
  Si  Si4  1  0.96153634  0.32417363  0.58902184  1
  Si  Si5  1  0.36806597  0.06537708  0.58043888  1
  Si  Si6  1  0.96169370  0.64236255  0.08998638  1
  Si  Si7  1  0.63690048  0.65498877  0.92207749  1
  Si  Si8  1  0.01332183  0.63445414  0.41623153  1
  Ge  Ge0  1  0.04050480  0.08575526  0.64683350  1
  Ge  Ge1  1  0.96644764  0.90241367  0.16332567  1
  Ge  Ge2  1  0.70563319  0.39953722  0.98017756  1
  Ge  Ge3  1  0.69328578  0.33884178  0.49401662  1
  Ge  Ge4  1  0.29203630  0.65062992  0.30430396  1
  Ge  Ge5  1  0.43668727  0.66280848  0.80006917  1
  S  S0  1  0.01688014  0.31338184  0.25145486  1
  S  S1  1  0.02270419  0.70198371  0.74607975  1
  S  S2  1  0.69292981  0.63964447  0.57548525  1
  S  S3  1  0.68727202  0.03083218  0.08154830  1
  S  S4  1  0.35374043  0.32080673  0.07743013  1
  S  S5  1  0.01867397  0.37082058  0.91547899  1
  S  S6  1  0.35563491  0.98400497  0.91059141  1
  S  S7  1  0.61818517  0.98636594  0.41988456  1
  S  S8  1  0.34929642  0.37146970  0.41214505  1
  O  O0  1  0.22198920  0.99990381  0.31794832  1
  O  O1  1  0.80892259  0.79036427  0.30089633  1
  O  O2  1  0.00504520  0.23210054  0.30544182  1
  O  O3  1  0.21206359  0.22356538  0.81815494  1
  O  O4  1  0.00766777  0.77299039  0.80257091  1
  O  O5  1  0.81811507  0.02082022  0.80140252  1
  O  O6  1  0.83272870  0.97979980  0.68409439  1
  O  O7  1  0.16911977  0.22737328  0.70109314  1
  O  O8  1  0.02289790  0.79662665  0.69702625  1
  O  O9  1  0.76000561  0.80168777  0.19076842  1
  O  O10  1  0.02997905  0.23154343  0.19931395  1
  O  O11  1  0.13595574  0.93368832  0.20323305  1
  O  O12  1  0.89978496  0.34312755  0.65284710  1
  O  O13  1  0.48556599  0.11854735  0.63538171  1
  O  O14  1  0.66832108  0.55287232  0.62969687  1
  O  O15  1  0.87380616  0.55834311  0.14994648  1
  O  O16  1  0.67247527  0.11035562  0.13491672  1
  O  O17  1  0.46255181  0.33914884  0.12550073  1
  O  O18  1  0.44212556  0.31325099  0.02052807  1
  O  O19  1  0.83762788  0.55986433  0.03100718  1
  O  O20  1  0.68977003  0.11806146  0.02928523  1
  O  O21  1  0.47792614  0.19283314  0.52354289  1
  O  O22  1  0.69498086  0.53452549  0.52418894  1
  O  O23  1  0.82447467  0.29697724  0.53792722  1
  O  O24  1  0.53354991  0.64535174  0.98011070  1
  O  O25  1  0.11932235  0.46495486  0.96479195  1
  O  O26  1  0.34472201  0.89971682  0.96553471  1
  O  O27  1  0.55214863  0.89969746  0.47509948  1
  O  O28  1  0.34397373  0.45425080  0.46577940  1
  O  O29  1  0.14557360  0.68662208  0.46579410  1
  O  O30  1  0.11428844  0.61335721  0.35265940  1
  O  O31  1  0.51680608  0.89348358  0.37042517  1
  O  O32  1  0.34692335  0.46000099  0.36003861  1
  O  O33  1  0.08606101  0.45281279  0.86043392  1
  O  O34  1  0.35313556  0.88750997  0.86006414  1
  O  O35  1  0.51391026  0.62478572  0.86230784  1
  O  O36  1  0.98405578  0.78854314  0.40958814  1
  O  O37  1  0.79389498  0.02603976  0.41406212  1
  O  O38  1  0.20068006  0.20097319  0.41625565  1
  O  O39  1  0.99716846  0.20635065  0.91837150  1
  O  O40  1  0.20862807  0.01163082  0.91481767  1
  O  O41  1  0.81627152  0.81127516  0.92106254  1
  O  O42  1  0.95867096  0.14389603  0.58683961  1
  O  O43  1  0.18443145  0.05946236  0.59674799  1
  O  O44  1  0.84836710  0.79495936  0.57186401  1
  O  O45  1  0.96773487  0.82635343  0.09219177  1
  O  O46  1  0.83850877  0.01318725  0.08233234  1
  O  O47  1  0.19278384  0.17163830  0.08190469  1
  O  O48  1  0.67870351  0.13829084  0.73940493  1
  O  O49  1  0.48379033  0.35455535  0.75349770  1
  O  O50  1  0.87472150  0.53168760  0.74802911  1
  O  O51  1  0.64538127  0.51306702  0.24795704  1
  O  O52  1  0.88057099  0.35486909  0.25066117  1
  O  O53  1  0.46714301  0.11143274  0.24047137  1
  O  O54  1  0.64456380  0.47966181  0.92042674  1
  O  O55  1  0.84585148  0.36319942  0.92366111  1
  O  O56  1  0.50792962  0.14822814  0.90950528  1
  O  O57  1  0.61454647  0.14529866  0.42256241  1
  O  O58  1  0.50056684  0.35500640  0.40967156  1
  O  O59  1  0.83603229  0.45770684  0.43230475  1
  O  O60  1  0.33780281  0.47020472  0.07862745  1
  O  O61  1  0.14751785  0.67397924  0.08482754  1
  O  O62  1  0.53866906  0.85840638  0.08317481  1
  O  O63  1  0.33658367  0.88142626  0.56882785  1
  O  O64  1  0.55119572  0.67137847  0.57109230  1
  O  O65  1  0.15167769  0.46721776  0.58265475  1
  O  O66  1  0.26819940  0.78581856  0.25373290  1
  O  O67  1  0.49024578  0.69672606  0.26739274  1
  O  O68  1  0.18252311  0.48159022  0.25027266  1
  O  O69  1  0.30029266  0.49597663  0.75911537  1
  O  O70  1  0.17580807  0.68796737  0.74517190  1
  O  O71  1  0.54539686  0.80883570  0.74763387  1
loop_
_geom_bond_atom_site_label_1
_geom_bond_atom_site_label_2
_geom_bond_distance
_geom_bond_site_symmetry_2
Na0 O52 2.383837 1_555
Na0 O66 2.432014 1_655
Na0 O15 2.540182 1_555
Na0 O51 2.616081 1_555
Na0 O11 2.711592 1_655
Na0 O1 2.738775 1_555
Na0 O30 2.812378 1_655
Na1 O50 2.355502 1_555
Na1 O12 2.424573 1_555
Na1 O69 2.477859 1_655
Na1 O70 2.668018 1_655
Na1 O48 2.668674 1_555
Na1 O33 2.719604 1_655
Na1 O7 2.739829 1_655
Na2 O42 2.453292 1_565
Na2 O64 2.587766 1_555
Na2 O63 2.688374 1_555
Na2 O13 2.731736 1_565
Na2 O27 2.790577 1_555
Na2 O6 2.816234 1_555
Na2 O23 2.894462 1_565
Na3 O62 2.368442 1_555
Na3 O24 2.507865 1_554
Na3 O45 2.514722 1_555
Na3 O46 2.660243 1_565
Na3 O60 2.678097 1_555
Na3 O19 2.691174 1_555
Na3 O9 2.847651 1_555
Na4 O40 2.375223 1_555
Na4 O3 2.416805 1_555
Na4 O54 2.513484 1_555
Na4 O56 2.610044 1_555
Na4 O18 2.737682 1_556
Na4 O39 2.827067 1_455
Na4 O35 2.921834 1_555
Na5 O57 2.374397 1_555
Na5 O0 2.427327 1_545
Na5 O38 2.463529 1_555
Na5 O58 2.744809 1_555
Na5 O31 2.796956 1_545
Na5 O36 2.816621 1_445
Na5 O21 2.992192 1_555
Na5 O29 3.021592 1_545
Na6 O44 2.254438 1_455
Na6 O42 2.478404 1_465
Na6 O43 2.524779 1_565
Na6 O38 2.829554 1_565
Na6 O36 2.919014 1_455
Na7 O46 2.324053 1_565
Na7 O45 2.526252 1_555
Na7 O47 2.534783 1_665
Na7 O41 2.630635 1_554
Na7 O40 2.774279 1_664
Na7 O39 2.874139 1_564
Na8 O56 2.314697 1_555
Na8 O54 2.598610 1_555
Na8 O49 2.632450 1_555
Na8 O55 2.705119 1_555
Na8 O48 2.762367 1_555
Na8 O50 2.806663 1_555
Na9 O58 2.223775 1_555
Na9 O57 2.592938 1_555
Na9 O59 2.719928 1_555
Na9 O51 2.734531 1_555
Na9 O52 2.794310 1_555
Na9 O53 2.999961 1_555
Na10 O66 2.432091 1_555
Na10 O68 2.526548 1_555
Na10 O61 2.543113 1_555
Na10 O62 2.677376 1_555
Na10 O67 2.822463 1_555
Na10 O60 2.823967 1_555
Na11 O70 2.228526 1_555
Na11 O65 2.585397 1_555
Na11 O69 2.694016 1_555
Na11 O71 2.773878 1_555
La0 O1 2.207869 1_555
La0 O0 2.273210 1_655
La0 O36 2.351962 1_555
La0 O37 2.371864 1_565
La0 O2 2.480480 1_665
La0 O38 2.486685 1_665
La1 O5 2.187325 1_565
La1 O4 2.288151 1_655
La1 O3 2.293101 1_665
La1 O41 2.315819 1_555
La1 O40 2.472328 1_665
La1 O39 2.653465 1_565
La2 O13 2.234307 1_555
La2 O49 2.286071 1_555
La2 O12 2.309226 1_555
La2 O48 2.384589 1_555
La2 O14 2.403766 1_555
La2 O50 2.456207 1_555
La3 O53 2.228978 1_555
La3 O15 2.334506 1_555
La3 O51 2.343695 1_555
La3 O17 2.352663 1_555
La3 O16 2.381525 1_555
La3 O52 2.560390 1_555
La4 O24 2.242780 1_554
La4 O61 2.253856 1_555
La4 O26 2.288720 1_554
La4 O25 2.355527 1_554
La4 O62 2.456506 1_555
La4 O60 2.596324 1_555
La5 O29 2.184367 1_555
La5 O65 2.249001 1_555
La5 O28 2.351664 1_555
La5 O63 2.368540 1_555
La5 O27 2.441549 1_555
La5 O64 2.475700 1_555
Ge0 O7 1.814221 1_555
Ge0 O42 1.834201 1_455
Ge0 O43 1.843368 1_555
Ge0 O6 1.857942 1_445
Ge1 O11 1.753478 1_655
Ge1 O9 1.760192 1_555
Ge1 O45 1.793164 1_555
Ge2 O54 1.835223 1_555
Ge2 O19 1.848392 1_556
Ge2 O55 1.957076 1_555
Ge2 O18 2.321241 1_556
Ge3 O23 1.813640 1_555
Ge3 O59 1.872351 1_555
Ge3 O21 1.887529 1_555
Ge3 O22 1.970605 1_555
Ge3 O57 2.307953 1_555
Ge4 O30 1.842361 1_555
Ge4 O67 1.843923 1_555
Ge4 O66 1.857266 1_555
Ge4 O68 1.897215 1_555
Ge5 O71 1.732642 1_555
Ge5 O69 1.753037 1_555
Ge5 O35 1.761182 1_555
O0 Si0 1.587142 1_555
O1 Si1 1.591566 1_555
O2 S0 1.457683 1_555
O3 Si2 1.597677 1_555
O4 S1 1.497611 1_555
O5 Si3 1.595448 1_545
O6 Si3 1.704849 1_555
O7 Si2 1.700114 1_555
O8 S1 1.465646 1_555
O9 Si1 1.797764 1_555
O10 S0 1.460953 1_555
O11 Si0 1.796237 1_555
O12 Si4 1.606789 1_555
O13 Si5 1.618321 1_555
O14 S2 1.465829 1_555
O15 Si6 1.595273 1_555
O16 S3 1.477158 1_555
O17 S4 1.486997 1_555
O18 S4 1.546504 1_555
O19 Si6 1.735640 1_555
O20 S3 1.476969 1_555
O21 Si5 1.725714 1_555
O22 S2 1.546816 1_555
O23 Si4 1.698437 1_555
O24 Si7 1.599206 1_555
O25 S5 1.485189 1_555
O26 S6 1.493606 1_555
O27 S7 1.474371 1_555
O28 S8 1.473563 1_555
O29 Si8 1.603611 1_555
O30 Si8 1.778257 1_555
O31 S7 1.487135 1_555
O32 S8 1.495339 1_555
O33 S5 1.456615 1_555
O34 S6 1.470149 1_555
O35 Si7 1.762660 1_555
O36 Si8 1.630704 1_655
O37 S7 1.482546 1_545
O38 S8 1.521689 1_555
O39 S5 1.479071 1_655
O40 S6 1.513720 1_545
O41 Si7 1.588508 1_555
O42 Si4 1.702992 1_555
O43 Si5 1.706250 1_555
O44 S2 1.466097 1_555
O45 Si6 1.724211 1_555
O46 S3 1.497292 1_555
O47 S4 1.464278 1_555
O48 Si3 1.610919 1_545
O49 Si2 1.595993 1_555
O50 S1 1.516846 1_655
O51 Si1 1.621312 1_555
O52 S0 1.503935 1_655
O53 Si0 1.591048 1_545
O54 Si7 1.705359 1_555
O55 S5 1.575076 1_655
O56 S6 1.498276 1_545
O57 S7 1.530208 1_545
O58 S8 1.488975 1_555
O59 Si8 1.702864 1_655
O60 S4 1.501163 1_555
O61 Si6 1.598424 1_455
O62 S3 1.531495 1_565
O63 Si5 1.644261 1_565
O64 S2 1.498580 1_555
O65 Si4 1.609551 1_455
O66 Si0 1.681819 1_555
O67 Si1 1.671574 1_555
O68 S0 1.574841 1_555
O69 Si2 1.736791 1_555
O70 S1 1.493247 1_555
O71 Si3 1.742641 1_555
