# generated using pymatgen
data_Na6Zr4Zn4Si3(S3O16)3
_symmetry_space_group_name_H-M   'P 1'
_cell_length_a   18.00600179
_cell_length_b   8.93772985
_cell_length_c   23.04376295
_cell_angle_alpha   90.32986979
_cell_angle_beta   90.19267643
_cell_angle_gamma   119.91784392
_symmetry_Int_Tables_number   1
_chemical_formula_structural   Na6Zr4Zn4Si3(S3O16)3
_chemical_formula_sum   'Na18 Zr12 Zn12 Si9 S27 O144'
_cell_volume   3214.17153062
_cell_formula_units_Z   3
loop_
 _symmetry_equiv_pos_site_id
 _symmetry_equiv_pos_as_xyz
  1  'x, y, z'
loop_
 _atom_site_type_symbol
 _atom_site_label
 _atom_site_symmetry_multiplicity
 _atom_site_fract_x
 _atom_site_fract_y
 _atom_site_fract_z
 _atom_site_occupancy
  Na  Na0  1  0.99986507  0.63294654  0.25320340  1
  Na  Na1  1  0.49751471  0.62143815  0.24294735  1
  Na  Na2  1  0.00223696  0.37193203  0.74319261  1
  Na  Na3  1  0.50023218  0.37111719  0.75234217  1
  Na  Na4  1  0.67149553  0.31438734  0.90895757  1
  Na  Na5  1  0.16992364  0.03214788  0.41331869  1
  Na  Na6  1  0.99159453  0.01120894  0.50026629  1
  Na  Na7  1  0.50515680  0.01180702  0.50004866  1
  Na  Na8  1  0.00302776  0.99393594  0.99250164  1
  Na  Na9  1  0.49214063  0.97212519  0.99343276  1
  Na  Na10  1  0.31033262  0.30589747  0.82924824  1
  Na  Na11  1  0.83480882  0.35365991  0.83395815  1
  Na  Na12  1  0.33075723  0.31283306  0.33692018  1
  Na  Na13  1  0.81967418  0.32885058  0.33596849  1
  Na  Na14  1  0.17617979  0.65330085  0.16730238  1
  Na  Na15  1  0.66585007  0.66206441  0.16675764  1
  Na  Na16  1  0.16485267  0.65673999  0.67488883  1
  Na  Na17  1  0.67835264  0.70187710  0.66985898  1
  Zr  Zr0  1  0.49990395  0.01376046  0.35939602  1
  Zr  Zr1  1  0.00721880  0.99522509  0.85616095  1
  Zr  Zr2  1  0.00401130  0.02083266  0.64866924  1
  Zr  Zr3  1  0.50406421  0.99535941  0.64736357  1
  Zr  Zr4  1  0.00402910  0.01175594  0.14633269  1
  Zr  Zr5  1  0.49919789  0.99238974  0.14486780  1
  Zr  Zr6  1  0.32624222  0.33365976  0.98218175  1
  Zr  Zr7  1  0.82663270  0.31953857  0.48453227  1
  Zr  Zr8  1  0.16553697  0.66339499  0.01644966  1
  Zr  Zr9  1  0.66819771  0.67347758  0.01654288  1
  Zr  Zr10  1  0.16838549  0.66330432  0.51868599  1
  Zr  Zr11  1  0.66465524  0.66145743  0.51900001  1
  Zn  Zn0  1  0.99539510  0.00128695  0.34798019  1
  Zn  Zn1  1  0.49504600  0.98926040  0.84715045  1
  Zn  Zn2  1  0.31657484  0.32630626  0.68775187  1
  Zn  Zn3  1  0.83696119  0.31716221  0.67151492  1
  Zn  Zn4  1  0.33470561  0.35511977  0.16877612  1
  Zn  Zn5  1  0.83010988  0.33096460  0.18093796  1
  Zn  Zn6  1  0.83973000  0.35117111  0.98026151  1
  Zn  Zn7  1  0.33833417  0.32701506  0.48374901  1
  Zn  Zn8  1  0.17685545  0.67678740  0.32287133  1
  Zn  Zn9  1  0.67354381  0.66039240  0.32200256  1
  Zn  Zn10  1  0.17155690  0.67324044  0.81432803  1
  Zn  Zn11  1  0.68286807  0.68415538  0.82010004  1
  Si  Si0  1  0.15204209  0.31006439  0.75410967  1
  Si  Si1  1  0.98190545  0.33802975  0.58596627  1
  Si  Si2  1  0.68599904  0.03582223  0.58716664  1
  Si  Si3  1  0.48307825  0.61954017  0.08731583  1
  Si  Si4  1  0.18647426  0.33946746  0.08715979  1
  Si  Si5  1  0.81354754  0.66002531  0.91579496  1
  Si  Si6  1  0.17264626  0.95692839  0.91287317  1
  Si  Si7  1  0.31050741  0.96782103  0.41622026  1
  Si  Si8  1  0.67389497  0.38067999  0.41328188  1
  S  S0  1  0.14740339  -0.00017836  0.25276267  1
  S  S1  1  0.64847216  0.00024825  0.25064083  1
  S  S2  1  0.35291036  0.70617109  0.25138432  1
  S  S3  1  0.85302324  0.70515112  0.24906677  1
  S  S4  1  0.99905400  0.29829607  0.25207147  1
  S  S5  1  0.49905628  0.29564969  0.24997527  1
  S  S6  1  0.64776716  0.29601645  0.75315590  1
  S  S7  1  0.99485878  0.70015070  0.74772606  1
  S  S8  1  0.50262770  0.70413065  0.75221791  1
  S  S9  1  0.35610533  0.00403731  0.74919129  1
  S  S10  1  0.85172864  -0.00086261  0.75184098  1
  S  S11  1  0.47743282  0.33315024  0.58708834  1
  S  S12  1  0.18722037  0.04160801  0.58207401  1
  S  S13  1  0.33438773  0.61811566  0.58224583  1
  S  S14  1  0.83348087  0.62650579  0.58508605  1
  S  S15  1  0.97878154  0.62239981  0.08696249  1
  S  S16  1  0.33273837  0.04102856  0.08530839  1
  S  S17  1  0.83311833  0.04901539  0.08394805  1
  S  S18  1  0.68815286  0.33438562  0.08387784  1
  S  S19  1  0.31733187  0.67435478  0.91422882  1
  S  S20  1  0.01555799  0.36964236  0.91475495  1
  S  S21  1  0.51876945  0.36888288  0.91314216  1
  S  S22  1  0.66388781  0.96191371  0.91440018  1
  S  S23  1  0.81534841  0.95831326  0.41355569  1
  S  S24  1  0.16379135  0.36648872  0.41359054  1
  S  S25  1  0.01918805  0.66863426  0.41271027  1
  S  S26  1  0.51872592  0.66218578  0.41286511  1
  O  O0  1  0.10609067  0.01700242  0.30657646  1
  O  O1  1  0.60563340  0.02097165  0.30219133  1
  O  O2  1  0.40817710  0.80373808  0.30196488  1
  O  O3  1  0.90696493  0.78439330  0.30170972  1
  O  O4  1  0.49644829  0.19431964  0.30227120  1
  O  O5  1  0.98790268  0.19346268  0.30381813  1
  O  O6  1  0.09755834  0.18206460  0.80769821  1
  O  O7  1  0.60647291  0.19661635  0.80688471  1
  O  O8  1  0.49145495  0.78687748  0.80435465  1
  O  O9  1  0.98894457  0.78906249  0.80132724  1
  O  O10  1  0.40928007  0.03029617  0.80212985  1
  O  O11  1  0.90404363  0.00831744  0.80289596  1
  O  O12  1  0.40287109  0.98597821  0.69766849  1
  O  O13  1  0.89376268  0.98039415  0.69762164  1
  O  O14  1  0.08927174  0.21017303  0.69564876  1
  O  O15  1  0.58934357  0.19295875  0.70197748  1
  O  O16  1  0.99978670  0.80608582  0.69635979  1
  O  O17  1  0.51021578  0.81100647  0.69921637  1
  O  O18  1  0.39783713  0.81063493  0.19781538  1
  O  O19  1  0.89912622  0.81199058  0.19732315  1
  O  O20  1  0.00686644  0.20773937  0.19894122  1
  O  O21  1  0.50613311  0.20339062  0.19776427  1
  O  O22  1  0.08870975  0.98533187  0.20177456  1
  O  O23  1  0.59267951  0.97933600  0.19812512  1
  O  O24  1  0.44053279  0.35868334  0.64017895  1
  O  O25  1  0.94994851  0.36966859  0.64780269  1
  O  O26  1  0.24172803  0.12251891  0.63318819  1
  O  O27  1  0.73832240  0.11497642  0.64571368  1
  O  O28  1  0.32500418  0.52033248  0.63500707  1
  O  O29  1  0.81885201  0.52398025  0.63694675  1
  O  O30  1  0.45017704  0.52655618  0.14957898  1
  O  O31  1  0.94291840  0.52581877  0.14154989  1
  O  O32  1  0.32059519  0.11592206  0.13824723  1
  O  O33  1  0.82183585  0.12557865  0.13782169  1
  O  O34  1  0.23755018  0.36464123  0.14645553  1
  O  O35  1  0.74020753  0.35954929  0.13641218  1
  O  O36  1  0.22948355  0.30702460  0.02910951  1
  O  O37  1  0.72182366  0.29995266  0.03090809  1
  O  O38  1  0.42011876  0.52102040  0.03250892  1
  O  O39  1  0.92551005  0.53989127  0.03600464  1
  O  O40  1  0.34524795  0.14476210  0.03287356  1
  O  O41  1  0.84566916  0.15196546  0.03207100  1
  O  O42  1  0.22090661  0.14084813  0.52819136  1
  O  O43  1  0.72785927  0.15171213  0.52855506  1
  O  O44  1  0.34661442  0.54128482  0.52913479  1
  O  O45  1  0.84296457  0.54265879  0.53176473  1
  O  O46  1  0.42690440  0.30913033  0.53425496  1
  O  O47  1  0.92033473  0.31654329  0.53053766  1
  O  O48  1  0.27273944  0.68774665  0.96774419  1
  O  O49  1  0.76571172  0.68773277  0.97368829  1
  O  O50  1  0.07252086  0.45989866  0.96708461  1
  O  O51  1  0.57743464  0.46476531  0.96409493  1
  O  O52  1  0.16181090  0.84742056  0.97325546  1
  O  O53  1  0.65138579  0.85219403  0.96736937  1
  O  O54  1  0.26477724  0.84327564  0.47230478  1
  O  O55  1  0.76991155  0.85369408  0.46564587  1
  O  O56  1  0.15199818  0.45196032  0.46624552  1
  O  O57  1  0.65975459  0.47167398  0.47123695  1
  O  O58  1  0.07773796  0.69092801  0.46284156  1
  O  O59  1  0.57516129  0.68802871  0.46438175  1
  O  O60  1  0.05364154  0.64041717  0.35790707  1
  O  O61  1  0.55721308  0.64282332  0.35870924  1
  O  O62  1  0.24908355  0.88970014  0.35947774  1
  O  O63  1  0.76463908  0.88645747  0.35998327  1
  O  O64  1  0.17086583  0.46453696  0.36068015  1
  O  O65  1  0.68350843  0.48169019  0.35441993  1
  O  O66  1  0.05288030  0.46632613  0.86178714  1
  O  O67  1  0.55350889  0.46618353  0.85930141  1
  O  O68  1  0.18093548  0.86228254  0.85677952  1
  O  O69  1  0.67024867  0.87573203  0.86185434  1
  O  O70  1  0.26774759  0.64757741  0.86190113  1
  O  O71  1  0.74666892  0.60609725  0.86149444  1
  O  O72  1  0.01646335  0.83343023  0.41102566  1
  O  O73  1  0.51238591  0.82382072  0.41024431  1
  O  O74  1  0.40543694  0.98068717  0.41018159  1
  O  O75  1  0.90066973  0.97007334  0.41118259  1
  O  O76  1  0.08672048  0.18795266  0.41115476  1
  O  O77  1  0.58726458  0.18456073  0.41177132  1
  O  O78  1  0.00927864  0.19640471  0.91391023  1
  O  O79  1  0.51632564  0.19886703  0.91187896  1
  O  O80  1  0.08675396  0.97966111  0.91267973  1
  O  O81  1  0.58733131  0.98672460  0.91240581  1
  O  O82  1  0.40345948  0.83303284  0.91315330  1
  O  O83  1  0.90602786  0.83616893  0.90984678  1
  O  O84  1  0.48830129  0.17603167  0.59185093  1
  O  O85  1  0.98796079  0.15771604  0.58634799  1
  O  O86  1  0.09856926  0.01507986  0.59035857  1
  O  O87  1  0.58813046  0.01322496  0.58959474  1
  O  O88  1  0.41032793  0.79847553  0.58875663  1
  O  O89  1  0.91171275  0.79992170  0.58844970  1
  O  O90  1  0.49129066  0.81629882  0.09031529  1
  O  O91  1  0.98793158  0.79949917  0.09243690  1
  O  O92  1  0.41196399  0.02258143  0.08962541  1
  O  O93  1  0.90919822  0.02254601  0.09119737  1
  O  O94  1  0.08845743  0.16503165  0.09057523  1
  O  O95  1  0.59892748  0.18115877  0.09268047  1
  O  O96  1  0.35340704  0.16741424  0.74283576  1
  O  O97  1  0.84945707  0.16213913  0.74990797  1
  O  O98  1  0.24415162  0.32230211  0.74874603  1
  O  O99  1  0.73312686  0.31979480  0.74687094  1
  O  O100  1  0.42750447  0.52950330  0.74490535  1
  O  O101  1  0.91727943  0.52713648  0.74620676  1
  O  O102  1  0.35001003  0.53855479  0.24942555  1
  O  O103  1  0.84693799  0.53153007  0.24297464  1
  O  O104  1  0.41998834  0.30598869  0.24916421  1
  O  O105  1  0.92252263  0.32024152  0.24541886  1
  O  O106  1  0.23310587  0.14778980  0.24663388  1
  O  O107  1  0.73402347  0.15396236  0.24439077  1
  O  O108  1  0.32923717  0.52007733  0.92165512  1
  O  O109  1  0.82102950  0.48619967  0.92377611  1
  O  O110  1  0.43287667  0.34521425  0.92395528  1
  O  O111  1  0.92994539  0.34805113  0.92395951  1
  O  O112  1  0.25719076  0.15130567  0.92081325  1
  O  O113  1  0.74171528  0.13205514  0.92195209  1
  O  O114  1  0.32066558  0.15826768  0.42421592  1
  O  O115  1  0.82756263  0.13621993  0.42039569  1
  O  O116  1  0.24148507  0.35151466  0.42037154  1
  O  O117  1  0.75746642  0.35615496  0.42068814  1
  O  O118  1  0.43286349  0.51277515  0.42081721  1
  O  O119  1  0.93276147  0.51925756  0.42194295  1
  O  O120  1  0.17275098  0.50547158  0.07779426  1
  O  O121  1  0.67714620  0.48918981  0.07879869  1
  O  O122  1  0.06679438  0.64709494  0.08036282  1
  O  O123  1  0.57996680  0.65220057  0.07714352  1
  O  O124  1  0.25850445  0.86253552  0.07797128  1
  O  O125  1  0.75565994  0.87210619  0.07842274  1
  O  O126  1  0.17662428  0.86428810  0.57623029  1
  O  O127  1  0.67206837  0.84177442  0.57588065  1
  O  O128  1  0.25662136  0.63873024  0.57685534  1
  O  O129  1  0.75785932  0.65414043  0.57701248  1
  O  O130  1  0.07843584  0.50135660  0.57415355  1
  O  O131  1  0.56637723  0.48687666  0.57988131  1
  O  O132  1  0.14550425  0.83087074  0.25108837  1
  O  O133  1  0.65122754  0.83702711  0.25337776  1
  O  O134  1  0.26766846  0.69090434  0.25355960  1
  O  O135  1  0.76840621  0.69251115  0.25120412  1
  O  O136  1  0.07729313  0.47126528  0.25469208  1
  O  O137  1  0.57578316  0.47124385  0.25163102  1
  O  O138  1  0.15178759  0.49213498  0.75736010  1
  O  O139  1  0.64561214  0.46110589  0.75182975  1
  O  O140  1  0.07293446  0.68590516  0.74896180  1
  O  O141  1  0.58177696  0.69114962  0.75450745  1
  O  O142  1  0.27141956  0.85076301  0.74997414  1
  O  O143  1  0.76456894  0.84488117  0.75344715  1
loop_
_geom_bond_atom_site_label_1
_geom_bond_atom_site_label_2
_geom_bond_distance
_geom_bond_site_symmetry_2
Na0 O132 2.320128 1_655
Na0 O105 2.427531 1_555
Na0 O103 2.441913 1_555
Na0 O136 2.458252 1_655
Na0 O60 2.584849 1_655
Na0 O31 2.750022 1_555
Na0 O3 2.851929 1_555
Na0 O22 2.985464 1_655
Na1 O30 2.306622 1_555
Na1 O102 2.380450 1_555
Na1 O137 2.390928 1_555
Na1 O104 2.449134 1_555
Na1 O133 2.470103 1_555
Na1 O61 2.842171 1_555
Na2 O138 2.369864 1_555
Na2 O25 2.384375 1_455
Na2 O140 2.438062 1_555
Na2 O97 2.443026 1_455
Na2 O101 2.526966 1_455
Na2 O14 2.828407 1_555
Na2 O66 2.863762 1_555
Na3 O139 2.323700 1_555
Na3 O96 2.354195 1_555
Na3 O100 2.366153 1_555
Na3 O141 2.479617 1_555
Na3 O67 2.619939 1_555
Na3 O24 2.776182 1_555
Na3 O10 2.890336 1_555
Na3 O15 2.999483 1_555
Na4 O109 2.363835 1_555
Na4 O79 2.449778 1_555
Na4 O71 2.519626 1_555
Na4 O113 2.530307 1_555
Na4 O81 2.540827 1_545
Na4 O7 2.595181 1_555
Na4 O51 2.924855 1_555
Na4 O37 2.973003 1_556
Na5 O114 2.375095 1_555
Na5 O72 2.427966 1_545
Na5 O116 2.481691 1_555
Na5 O76 2.503495 1_555
Na5 O62 2.644957 1_545
Na5 O0 2.685456 1_555
Na5 O42 2.803235 1_555
Na5 O58 2.891642 1_545
Na6 O85 2.389602 1_555
Na6 O75 2.529413 1_545
Na6 O76 2.647249 1_655
Na6 O89 2.668094 1_545
Na6 O72 2.762697 1_645
Na6 O86 2.815536 1_655
Na7 O87 2.539742 1_555
Na7 O77 2.547008 1_555
Na7 O74 2.657083 1_545
Na7 O84 2.671083 1_555
Na7 O73 2.702294 1_545
Na7 O88 2.747801 1_545
Na8 O80 2.424923 1_555
Na8 O83 2.481264 1_455
Na8 O78 2.530448 1_565
Na8 O94 2.720768 1_566
Na8 O91 2.824231 1_456
Na8 O93 2.922740 1_466
Na9 O82 2.343288 1_555
Na9 O81 2.498475 1_555
Na9 O90 2.634187 1_556
Na9 O79 2.645260 1_565
Na9 O92 2.803650 1_566
Na9 O95 2.959058 1_566
Na10 O98 2.246194 1_555
Na10 O112 2.450537 1_555
Na10 O96 2.652974 1_555
Na10 O108 2.759147 1_555
Na10 O100 2.844142 1_555
Na10 O110 2.990063 1_555
Na11 O109 2.452976 1_555
Na11 O101 2.541202 1_555
Na11 O99 2.624228 1_555
Na11 O97 2.677058 1_555
Na11 O111 2.702091 1_555
Na11 O113 2.757112 1_555
Na12 O114 2.402528 1_555
Na12 O104 2.606355 1_555
Na12 O106 2.636103 1_555
Na12 O116 2.639870 1_555
Na12 O118 2.640130 1_555
Na12 O102 2.758482 1_555
Na13 O117 2.325386 1_555
Na13 O107 2.609705 1_555
Na13 O115 2.655195 1_555
Na13 O103 2.698027 1_555
Na13 O119 2.728528 1_555
Na13 O105 2.820570 1_555
Na14 O120 2.426986 1_555
Na14 O134 2.489101 1_555
Na14 O136 2.654222 1_555
Na14 O124 2.689182 1_555
Na14 O132 2.719922 1_555
Na14 O122 2.785544 1_555
Na15 O123 2.550298 1_555
Na15 O137 2.581604 1_555
Na15 O135 2.596022 1_555
Na15 O121 2.610991 1_555
Na15 O133 2.622447 1_555
Na15 O125 2.705684 1_555
Na16 O138 2.349771 1_555
Na16 O140 2.482952 1_555
Na16 O142 2.511331 1_555
Na16 O130 2.742520 1_555
Na16 O128 2.854100 1_555
Na16 O126 2.883438 1_555
Na17 O143 2.392922 1_555
Na17 O127 2.537078 1_555
Na17 O141 2.587794 1_555
Na17 O139 2.708365 1_555
Na17 O129 2.725524 1_555
Na17 O131 2.849226 1_555
O0 S0 1.494211 1_555
O0 Zn0 2.153574 1_455
O1 S1 1.478711 1_555
O1 Zr0 2.293821 1_555
O2 S2 1.491353 1_555
O2 Zr0 2.206134 1_565
O3 S3 1.487470 1_555
O3 Zn0 2.077477 1_565
O4 S5 1.498401 1_555
O4 Zr0 2.113077 1_555
O5 S4 1.472056 1_555
O5 Zn0 2.062615 1_555
O6 Si0 1.643482 1_555
O6 Zr1 2.001464 1_545
O7 S6 1.494986 1_555
O7 Zn1 2.155063 1_545
O8 S8 1.473319 1_555
O8 Zn1 2.027561 1_555
O9 S7 1.497494 1_555
O9 Zr1 2.113233 1_655
O10 S9 1.491536 1_555
O10 Zn1 2.038203 1_545
O11 S10 1.480727 1_555
O11 Zr1 2.274808 1_645
O12 S9 1.511573 1_565
O12 Zr3 2.129255 1_555
O13 S10 1.514060 1_565
O13 Zr2 2.155909 1_665
O14 Si0 1.690774 1_555
O14 Zr2 1.941345 1_555
O15 S6 1.535744 1_555
O15 Zr3 2.077751 1_545
O16 S7 1.495067 1_555
O16 Zr2 2.185551 1_665
O17 S8 1.518948 1_555
O17 Zr3 2.087763 1_555
O18 S2 1.522015 1_555
O18 Zr5 2.130475 1_555
O19 S3 1.500580 1_555
O19 Zr4 2.193471 1_665
O20 S4 1.509024 1_455
O20 Zr4 2.103903 1_555
O21 S5 1.496042 1_555
O21 Zr5 2.189860 1_545
O22 S0 1.538692 1_565
O22 Zr4 2.088657 1_565
O23 S1 1.520054 1_565
O23 Zr5 2.129945 1_555
O24 S11 1.464160 1_555
O24 Zn2 2.375525 1_555
O25 Si1 1.613915 1_555
O25 Zn3 1.927654 1_555
O26 S12 1.465612 1_555
O26 Zn2 2.056294 1_555
O27 Si2 1.588679 1_555
O27 Zn3 1.884808 1_555
O28 S13 1.461809 1_555
O28 Zn2 2.066537 1_555
O29 S14 1.453000 1_555
O29 Zn3 2.184997 1_555
O30 Si3 1.621280 1_555
O30 Zn4 1.924203 1_555
O31 S15 1.485387 1_555
O31 Zn5 2.117694 1_555
O32 S16 1.456860 1_555
O32 Zn4 2.137678 1_555
O33 S17 1.476932 1_555
O33 Zn5 2.020964 1_555
O34 Si4 1.595325 1_555
O34 Zn4 1.864158 1_555
O35 S18 1.474309 1_555
O35 Zn5 2.035406 1_555
O36 Si4 1.643091 1_555
O36 Zr6 1.965549 1_554
O37 S18 1.462523 1_555
O37 Zn6 2.265444 1_554
O38 Si3 1.624006 1_555
O38 Zr6 2.036495 1_554
O39 S15 1.455897 1_555
O39 Zn6 2.060015 1_554
O40 S16 1.475371 1_555
O40 Zr6 2.220002 1_554
O41 S17 1.460777 1_555
O41 Zn6 2.195526 1_554
O42 S12 1.475616 1_555
O42 Zn7 2.193823 1_555
O43 Si2 1.646016 1_555
O43 Zr7 1.952107 1_555
O44 S13 1.469976 1_555
O44 Zn7 2.115342 1_555
O45 S14 1.489626 1_555
O45 Zr7 2.153088 1_555
O46 S11 1.466565 1_555
O46 Zn7 2.041425 1_555
O47 Si1 1.634839 1_555
O47 Zr7 2.001150 1_555
O48 S19 1.510173 1_555
O48 Zr8 2.152062 1_556
O49 Si5 1.673226 1_555
O49 Zr9 1.965801 1_556
O50 S20 1.520532 1_555
O50 Zr8 2.081320 1_556
O51 S21 1.518525 1_555
O51 Zr9 2.128631 1_556
O52 Si6 1.661065 1_555
O52 Zr8 1.956779 1_556
O53 S22 1.515801 1_555
O53 Zr9 2.104268 1_556
O54 Si7 1.642203 1_555
O54 Zr10 1.997376 1_555
O55 S23 1.496982 1_555
O55 Zr11 2.201681 1_555
O56 S24 1.501268 1_555
O56 Zr10 2.128561 1_555
O57 Si8 1.645040 1_555
O57 Zr11 1.981148 1_555
O58 S25 1.505084 1_555
O58 Zr10 2.184620 1_555
O59 S26 1.499952 1_555
O59 Zr11 2.146799 1_555
O60 S25 1.483569 1_555
O60 Zn8 2.230539 1_555
O61 S26 1.480050 1_555
O61 Zn9 2.193866 1_555
O62 Si7 1.621700 1_555
O62 Zn8 1.878733 1_555
O63 S23 1.472589 1_555
O63 Zn9 2.050116 1_555
O64 S24 1.474027 1_555
O64 Zn8 2.045739 1_555
O65 Si8 1.595190 1_555
O65 Zn9 1.854710 1_555
O66 S20 1.458266 1_555
O66 Zn10 2.297694 1_555
O67 S21 1.470338 1_555
O67 Zn11 2.354720 1_555
O68 Si6 1.588504 1_555
O68 Zn10 1.880289 1_555
O69 S22 1.466559 1_555
O69 Zn11 2.068780 1_555
O70 S19 1.443851 1_555
O70 Zn10 2.154221 1_555
O71 Si5 1.628532 1_555
O71 Zn11 1.875137 1_555
O72 S25 1.498693 1_555
O72 Zn0 2.257085 1_465
O73 S26 1.506373 1_555
O73 Zr0 2.169598 1_565
O74 Si7 1.661328 1_555
O74 Zr0 1.966236 1_565
O75 S23 1.487884 1_555
O75 Zn0 2.157518 1_565
O76 S24 1.504916 1_555
O76 Zn0 2.196837 1_455
O77 Si8 1.666858 1_555
O77 Zr0 1.957580 1_555
O78 S20 1.495180 1_555
O78 Zr1 2.216081 1_545
O79 S21 1.498204 1_555
O79 Zn1 2.264785 1_545
O80 Si6 1.657292 1_555
O80 Zr1 1.988671 1_555
O81 S22 1.502031 1_555
O81 Zn1 2.245903 1_555
O82 S19 1.491214 1_555
O82 Zn1 2.174150 1_555
O83 Si5 1.630689 1_555
O83 Zr1 2.079158 1_655
O84 S11 1.515954 1_555
O84 Zr3 2.191591 1_545
O85 Si1 1.668724 1_555
O85 Zr2 2.003214 1_655
O86 S12 1.505231 1_555
O86 Zr2 2.192936 1_555
O87 Si2 1.671859 1_555
O87 Zr3 1.965654 1_545
O88 S13 1.512578 1_555
O88 Zr3 2.182615 1_555
O89 S14 1.487481 1_555
O89 Zr2 2.294735 1_665
O90 Si3 1.690670 1_555
O90 Zr5 1.957055 1_555
O91 S15 1.511935 1_555
O91 Zr4 2.155780 1_665
O92 S16 1.518532 1_555
O92 Zr5 2.138654 1_545
O93 S17 1.510854 1_555
O93 Zr4 2.165701 1_655
O94 Si4 1.676101 1_555
O94 Zr4 1.947982 1_555
O95 S18 1.519357 1_555
O95 Zr5 2.129114 1_545
O96 S9 1.493061 1_555
O96 Zn2 2.241077 1_555
O97 S10 1.478611 1_555
O97 Zn3 2.360251 1_555
O98 Si0 1.611993 1_555
O98 Zn2 1.908852 1_555
O99 S6 1.450685 1_555
O99 Zn3 2.564516 1_555
O100 S8 1.477699 1_555
O100 Zn2 2.314893 1_555
O101 S7 1.479213 1_555
O101 Zn3 2.411365 1_555
O102 S2 1.473180 1_555
O102 Zn4 2.393443 1_555
O103 S3 1.505825 1_555
O103 Zn5 2.185091 1_555
O104 S5 1.472032 1_555
O104 Zn4 2.577852 1_555
O105 S4 1.493140 1_555
O105 Zn5 2.264943 1_555
O106 S0 1.455387 1_555
O106 Zn4 2.584233 1_555
O107 S1 1.474401 1_555
O107 Zn5 2.224290 1_555
O108 S19 1.507946 1_555
O108 Zr6 2.159157 1_555
O109 Si5 1.636329 1_555
O109 Zn6 1.919537 1_555
O110 S21 1.474994 1_555
O110 Zr6 2.306239 1_555
O111 S20 1.471226 1_655
O111 Zn6 2.093258 1_555
O112 Si6 1.650887 1_545
O112 Zr6 2.035272 1_555
O113 S22 1.475177 1_545
O113 Zn6 2.293803 1_555
O114 Si7 1.627990 1_545
O114 Zn7 1.937153 1_555
O115 S23 1.499872 1_545
O115 Zr7 2.206533 1_555
O116 S24 1.478152 1_555
O116 Zn7 2.364192 1_555
O117 Si8 1.633797 1_555
O117 Zr7 2.054846 1_555
O118 S26 1.467097 1_555
O118 Zn7 2.232057 1_555
O119 S25 1.477320 1_655
O119 Zr7 2.358780 1_555
O120 Si4 1.636473 1_555
O120 Zr8 2.052331 1_555
O121 S18 1.497517 1_555
O121 Zr9 2.255535 1_555
O122 S15 1.495459 1_455
O122 Zr8 2.261240 1_555
O123 Si3 1.636841 1_555
O123 Zr9 2.055923 1_555
O124 S16 1.492838 1_565
O124 Zr8 2.227754 1_555
O125 S17 1.502738 1_565
O125 Zr9 2.198180 1_555
O126 S12 1.503991 1_565
O126 Zr10 2.170862 1_555
O127 Si2 1.642841 1_565
O127 Zr11 2.023145 1_555
O128 S13 1.505509 1_555
O128 Zr10 2.169419 1_555
O129 S14 1.511287 1_555
O129 Zr11 2.168696 1_555
O130 Si1 1.644052 1_455
O130 Zr10 2.012158 1_555
O131 S11 1.513177 1_555
O131 Zr11 2.195897 1_555
O132 S0 1.493547 1_565
O132 Zn8 2.397264 1_555
O133 S1 1.485883 1_565
O133 Zn9 2.410769 1_555
O134 S2 1.472626 1_555
O134 Zn8 2.248304 1_555
O135 S3 1.471550 1_555
O135 Zn9 2.279621 1_555
O136 S4 1.484630 1_455
O136 Zn8 2.391523 1_555
O137 S5 1.486374 1_555
O137 Zn9 2.359452 1_555
O138 Si0 1.630879 1_555
O138 Zn10 1.966664 1_555
O139 S6 1.495740 1_555
O139 Zn11 2.349899 1_555
O140 S7 1.473670 1_455
O140 Zn10 2.370578 1_555
O141 S8 1.487223 1_555
O141 Zn11 2.387033 1_555
O142 S9 1.455651 1_565
O142 Zn10 2.269139 1_555
O143 S10 1.485873 1_565
O143 Zn11 2.125893 1_555
