# generated using pymatgen
data_Ca2IN
_symmetry_space_group_name_H-M   'P 1'
_cell_length_a   3.81315544
_cell_length_b   3.81315473
_cell_length_c   14.53642980
_cell_angle_alpha   90.00000000
_cell_angle_beta   90.00000000
_cell_angle_gamma   119.99999712
_symmetry_Int_Tables_number   1
_chemical_formula_structural   Ca2IN
_chemical_formula_sum   'Ca4 I2 N2'
_cell_volume   183.04477559
_cell_formula_units_Z   2
loop_
 _symmetry_equiv_pos_site_id
 _symmetry_equiv_pos_as_xyz
  1  'x, y, z'
loop_
 _atom_site_type_symbol
 _atom_site_label
 _atom_site_symmetry_multiplicity
 _atom_site_fract_x
 _atom_site_fract_y
 _atom_site_fract_z
 _atom_site_occupancy
  Ca  Ca0  1  0.33333300  0.66666700  0.08235113  1
  Ca  Ca1  1  0.33333300  0.66666700  0.41764887  1
  Ca  Ca2  1  0.66666700  0.33333300  0.58235113  1
  Ca  Ca3  1  0.66666700  0.33333300  0.91764887  1
  I  I0  1  0.33333300  0.66666700  0.75000000  1
  I  I1  1  0.66666700  0.33333300  0.25000000  1
  N  N0  1  0.00000000  0.00000000  -0.00000000  1
  N  N1  1  0.00000000  0.00000000  0.50000000  1
loop_
_geom_bond_atom_site_label_1
_geom_bond_atom_site_label_2
_geom_bond_distance
_geom_bond_site_symmetry_2
Ca0 N0 2.505940 1_565
Ca0 N0 2.505943 1_555
Ca0 N0 2.505943 1_665
Ca0 I1 3.284167 1_565
Ca0 I1 3.284167 1_455
Ca0 I1 3.284172 1_555
Ca1 N1 2.505940 1_565
Ca1 N1 2.505943 1_555
Ca1 N1 2.505943 1_665
Ca1 I1 3.284167 1_565
Ca1 I1 3.284167 1_455
Ca1 I1 3.284172 1_555
Ca2 N1 2.505940 1_655
Ca2 N1 2.505943 1_665
Ca2 N1 2.505943 1_555
Ca2 I0 3.284167 1_545
Ca2 I0 3.284167 1_655
Ca2 I0 3.284172 1_555
Ca3 N0 2.505940 1_656
Ca3 N0 2.505943 1_666
Ca3 N0 2.505943 1_556
Ca3 I0 3.284167 1_545
Ca3 I0 3.284167 1_655
Ca3 I0 3.284172 1_555
