# generated using pymatgen
data_V3Pt
_symmetry_space_group_name_H-M   'P 1'
_cell_length_a   4.78809327
_cell_length_b   4.78808455
_cell_length_c   4.78808333
_cell_angle_alpha   90.00000000
_cell_angle_beta   90.00000000
_cell_angle_gamma   90.00000000
_symmetry_Int_Tables_number   1
_chemical_formula_structural   V3Pt
_chemical_formula_sum   'V6 Pt2'
_cell_volume   109.77061883
_cell_formula_units_Z   2
loop_
 _symmetry_equiv_pos_site_id
 _symmetry_equiv_pos_as_xyz
  1  'x, y, z'
loop_
 _atom_site_type_symbol
 _atom_site_label
 _atom_site_symmetry_multiplicity
 _atom_site_fract_x
 _atom_site_fract_y
 _atom_site_fract_z
 _atom_site_occupancy
  V  V0  1  0.50000000  0.25000348  0.99999900  1
  V  V1  1  0.50000000  0.74999659  0.99999900  1
  V  V2  1  0.24999706  0.00000644  0.50000100  1
  V  V3  1  0.75000294  0.00000644  0.50000100  1
  V  V4  1  -0.00000000  0.49999347  0.24999048  1
  V  V5  1  0.00000000  0.49999347  0.75000952  1
  Pt  Pt0  1  0.50000000  0.49999220  0.50000100  1
  Pt  Pt1  1  0.00000000  0.00000792  0.99999900  1
loop_
_geom_bond_atom_site_label_1
_geom_bond_atom_site_label_2
_geom_bond_distance
_geom_bond_site_symmetry_2
V0 V1 2.394009 1_555
V0 V1 2.394075 1_545
V2 V3 2.394018 1_455
V2 V3 2.394075 1_555
V4 V5 2.393950 1_554
V4 V5 2.394133 1_555
Pt0 V3 2.676567 1_555
Pt0 V2 2.676567 1_555
Pt0 V0 2.676587 1_555
Pt0 V0 2.676605 1_554
Pt0 V1 2.676621 1_555
Pt0 V1 2.676638 1_554
Pt0 V5 2.676643 1_655
Pt0 V5 2.676643 1_555
Pt0 V4 2.676647 1_555
Pt0 V4 2.676647 1_655
Pt0 V2 2.676689 1_565
Pt0 V3 2.676689 1_565
Pt1 V5 2.676536 1_555
Pt1 V4 2.676540 1_556
Pt1 V2 2.676606 1_555
Pt1 V3 2.676606 1_455
Pt1 V0 2.676615 1_555
Pt1 V0 2.676615 1_455
Pt1 V3 2.676623 1_456
Pt1 V2 2.676623 1_556
Pt1 V1 2.676649 1_445
Pt1 V1 2.676649 1_545
Pt1 V5 2.676660 1_545
Pt1 V4 2.676664 1_546
