# generated using pymatgen
data_MgZn2Mo3O8
_symmetry_space_group_name_H-M   'P 1'
_cell_length_a   5.52342219
_cell_length_b   6.47530502
_cell_length_c   6.73091966
_cell_angle_alpha   118.79078656
_cell_angle_beta   119.09068793
_cell_angle_gamma   92.59385370
_symmetry_Int_Tables_number   1
_chemical_formula_structural   MgZn2Mo3O8
_chemical_formula_sum   'Mg1 Zn2 Mo3 O8'
_cell_volume   171.65463568
_cell_formula_units_Z   1
loop_
 _symmetry_equiv_pos_site_id
 _symmetry_equiv_pos_as_xyz
  1  'x, y, z'
loop_
 _atom_site_type_symbol
 _atom_site_label
 _atom_site_symmetry_multiplicity
 _atom_site_fract_x
 _atom_site_fract_y
 _atom_site_fract_z
 _atom_site_occupancy
  Mg  Mg0  1  0.00000000  0.50000000  0.50000000  1
  Zn  Zn0  1  0.66228200  0.70881700  0.31494100  1
  Zn  Zn1  1  0.33771700  0.29118200  0.68505900  1
  Mo  Mo0  1  0.49999900  0.99999900  0.00000000  1
  Mo  Mo1  1  0.98448800  0.74663600  0.00687700  1
  Mo  Mo2  1  0.01551300  0.25336400  0.99312300  1
  O  O0  1  0.03238100  0.39767600  0.76811400  1
  O  O1  1  0.96761900  0.60232300  0.23188600  1
  O  O2  1  0.01802300  0.86488100  0.75481300  1
  O  O3  1  0.98197600  0.13511800  0.24518700  1
  O  O4  1  0.51133400  0.36326600  0.22803300  1
  O  O5  1  0.45279500  0.90907400  0.23110500  1
  O  O6  1  0.54720500  0.09092600  0.76889500  1
  O  O7  1  0.48866600  0.63673300  0.77196700  1
loop_
_geom_bond_atom_site_label_1
_geom_bond_atom_site_label_2
_geom_bond_distance
_geom_bond_site_symmetry_2
Mg0 O2 2.107925 1_555
Mg0 O3 2.107928 1_455
Mg0 O1 2.139247 1_455
Mg0 O0 2.139252 1_555
Mg0 O4 2.199580 1_455
Mg0 O7 2.199580 1_555
Mo0 O5 2.024109 1_555
Mo0 O6 2.024123 1_564
Mo0 O7 2.075686 1_554
Mo0 O4 2.075687 1_565
Mo0 O2 2.168503 1_554
Mo0 O3 2.168508 1_565
Mo1 O5 2.122147 1_655
Mo1 O1 2.160612 1_555
Mo1 O0 2.174450 1_654
Mo1 O7 2.244042 1_554
Mo1 O3 2.244825 1_565
Mo1 O2 2.245690 1_654
Mo2 O6 2.122152 1_455
Mo2 O0 2.160605 1_555
Mo2 O1 2.174449 1_456
Mo2 O4 2.244038 1_556
Mo2 O2 2.244826 1_545
Mo2 O3 2.245699 1_456
O0 Zn1 2.069552 1_555
O1 Zn0 2.069557 1_555
O2 Zn0 2.220235 1_455
O3 Zn1 2.220235 1_655
O4 Zn0 2.034718 1_555
O5 Zn0 1.882682 1_555
O6 Zn1 1.882680 1_555
O7 Zn1 2.034720 1_555
