# generated using pymatgen
data_Tm4MgTi2O10
_symmetry_space_group_name_H-M   'P 1'
_cell_length_a   4.09741492
_cell_length_b   5.87313322
_cell_length_c   10.52507400
_cell_angle_alpha   90.00000000
_cell_angle_beta   90.00000000
_cell_angle_gamma   68.39097572
_symmetry_Int_Tables_number   1
_chemical_formula_structural   Tm4MgTi2O10
_chemical_formula_sum   'Tm4 Mg1 Ti2 O10'
_cell_volume   235.48129954
_cell_formula_units_Z   1
loop_
 _symmetry_equiv_pos_site_id
 _symmetry_equiv_pos_as_xyz
  1  'x, y, z'
loop_
 _atom_site_type_symbol
 _atom_site_label
 _atom_site_symmetry_multiplicity
 _atom_site_fract_x
 _atom_site_fract_y
 _atom_site_fract_z
 _atom_site_occupancy
  Tm  Tm0  1  0.13193200  0.72709300  0.92791600  1
  Tm  Tm1  1  0.13193200  0.72709300  0.57208400  1
  Tm  Tm2  1  0.86807900  0.28973200  0.06182700  1
  Tm  Tm3  1  0.86807900  0.28973200  0.43817300  1
  Mg  Mg0  1  0.58351800  0.94830500  0.25000000  1
  Ti  Ti0  1  0.21805000  0.57482400  0.25000000  1
  Ti  Ti1  1  0.78699500  0.36166800  0.75000000  1
  O  O0  1  0.99190000  0.90633400  0.37828400  1
  O  O1  1  0.99190000  0.90633400  0.12171600  1
  O  O2  1  0.70354600  0.59763100  0.90584100  1
  O  O3  1  0.70354600  0.59763100  0.59415900  1
  O  O4  1  0.28616900  0.46645400  0.75000000  1
  O  O5  1  0.71422000  0.57081000  0.25000000  1
  O  O6  1  0.29954600  0.42562400  0.07341500  1
  O  O7  1  0.29954600  0.42562400  0.42658500  1
  O  O8  1  0.95218800  0.11338800  0.62379800  1
  O  O9  1  0.95218800  0.11338800  0.87620200  1
loop_
_geom_bond_atom_site_label_1
_geom_bond_atom_site_label_2
_geom_bond_distance
_geom_bond_site_symmetry_2
Mg0 O5 2.080317 1_555
Mg0 O0 2.092836 1_555
Mg0 O1 2.092836 1_555
O0 Tm3 2.209899 1_565
O0 Ti0 2.267965 1_655
O0 Tm1 2.270053 1_655
O1 Tm2 2.209899 1_565
O1 Ti0 2.267965 1_655
O1 Tm0 2.270053 1_654
O2 Ti1 2.092567 1_555
O2 Tm0 2.167050 1_655
O2 Tm0 2.192274 1_555
O2 Tm2 2.349899 1_556
O3 Ti1 2.092567 1_555
O3 Tm1 2.167050 1_655
O3 Tm1 2.192274 1_555
O3 Tm3 2.349899 1_555
O4 Ti1 1.913020 1_555
O4 Ti1 2.342905 1_455
O4 Tm0 2.353010 1_555
O4 Tm1 2.353010 1_555
O5 Ti0 2.024451 1_555
O5 Ti0 2.073198 1_655
O5 Tm3 2.505712 1_555
O5 Tm2 2.505712 1_555
O6 Ti0 2.029316 1_555
O6 Tm2 2.170049 1_555
O6 Tm2 2.194669 1_455
O6 Tm0 2.248577 1_554
O7 Ti0 2.029316 1_555
O7 Tm3 2.170049 1_555
O7 Tm3 2.194669 1_455
O7 Tm1 2.248577 1_555
O8 Ti1 1.903108 1_555
O8 Tm3 2.178427 1_555
O8 Tm1 2.180654 1_645
O9 Ti1 1.903108 1_555
O9 Tm2 2.178427 1_556
O9 Tm0 2.180654 1_645
