# generated using pymatgen
data_Na6Hf4Sc4Si5S7O48
_symmetry_space_group_name_H-M   'P 1'
_cell_length_a   17.98590461
_cell_length_b   8.96009690
_cell_length_c   23.13829443
_cell_angle_alpha   89.96324520
_cell_angle_beta   89.82871956
_cell_angle_gamma   119.89650452
_symmetry_Int_Tables_number   1
_chemical_formula_structural   Na6Hf4Sc4Si5S7O48
_chemical_formula_sum   'Na18 Hf12 Sc12 Si15 S21 O144'
_cell_volume   3232.62770486
_cell_formula_units_Z   3
loop_
 _symmetry_equiv_pos_site_id
 _symmetry_equiv_pos_as_xyz
  1  'x, y, z'
loop_
 _atom_site_type_symbol
 _atom_site_label
 _atom_site_symmetry_multiplicity
 _atom_site_fract_x
 _atom_site_fract_y
 _atom_site_fract_z
 _atom_site_occupancy
  Na  Na0  1  0.00013192  0.62720044  0.25719974  1
  Na  Na1  1  0.49668688  0.63098678  0.25118325  1
  Na  Na2  1  0.99697762  0.36730716  0.75013235  1
  Na  Na3  1  0.50152162  0.36288830  0.75492254  1
  Na  Na4  1  0.66425094  0.30555760  0.91767726  1
  Na  Na5  1  0.16505306  0.01919628  0.43053482  1
  Na  Na6  1  0.00192475  0.99544695  0.50672935  1
  Na  Na7  1  0.50776392  0.99506862  0.50388152  1
  Na  Na8  1  0.00863187  0.01724577  0.99618272  1
  Na  Na9  1  0.50337197  0.01483962  0.99879135  1
  Na  Na10  1  0.33040735  0.31924418  0.83769596  1
  Na  Na11  1  0.83004559  0.32999911  0.82030768  1
  Na  Na12  1  0.34223787  0.34801003  0.32645625  1
  Na  Na13  1  0.82542443  0.33563180  0.34112262  1
  Na  Na14  1  0.18918960  0.65570178  0.16683888  1
  Na  Na15  1  0.67450951  0.65280877  0.16234863  1
  Na  Na16  1  0.17658818  0.69989874  0.66644473  1
  Na  Na17  1  0.68606217  0.70095587  0.67530549  1
  Hf  Hf0  1  0.49879460  0.01210056  0.35188438  1
  Hf  Hf1  1  0.99895285  0.98372009  0.85113406  1
  Hf  Hf2  1  0.00050186  0.98818359  0.64936129  1
  Hf  Hf3  1  0.50625553  0.99946685  0.64416095  1
  Hf  Hf4  1  0.00115666  0.01216263  0.14100282  1
  Hf  Hf5  1  0.49967027  0.01290156  0.14812416  1
  Hf  Hf6  1  0.32823877  0.32383837  0.97774959  1
  Hf  Hf7  1  0.82933943  0.33513521  0.47892616  1
  Hf  Hf8  1  0.16410677  0.66518418  0.01809492  1
  Hf  Hf9  1  0.66561994  0.65696439  0.02175763  1
  Hf  Hf10  1  0.16486059  0.67459967  0.52361636  1
  Hf  Hf11  1  0.66358067  0.66006467  0.51961253  1
  Sc  Sc0  1  0.99749908  0.99247550  0.35671989  1
  Sc  Sc1  1  0.50297967  0.01148296  0.85363463  1
  Sc  Sc2  1  0.32382149  0.33249745  0.67926777  1
  Sc  Sc3  1  0.82281509  0.31330800  0.69226758  1
  Sc  Sc4  1  0.32989256  0.34453923  0.18838346  1
  Sc  Sc5  1  0.82234927  0.31586150  0.17899826  1
  Sc  Sc6  1  0.83018827  0.31882762  0.98615274  1
  Sc  Sc7  1  0.33266715  0.34601984  0.48827863  1
  Sc  Sc8  1  0.16999173  0.66403190  0.31429910  1
  Sc  Sc9  1  0.66644085  0.64533115  0.31414370  1
  Sc  Sc10  1  0.16791981  0.68904642  0.81427484  1
  Sc  Sc11  1  0.66709338  0.66206483  0.81043007  1
  Si  Si0  1  0.35307106  0.71239987  0.25091043  1
  Si  Si1  1  0.49977351  0.30068176  0.24904203  1
  Si  Si2  1  0.64419494  0.29296679  0.75178230  1
  Si  Si3  1  0.00241448  0.70053340  0.74857792  1
  Si  Si4  1  0.85430240  0.99587498  0.75123988  1
  Si  Si5  1  0.18261876  0.04418426  0.58038400  1
  Si  Si6  1  0.69072957  0.04032655  0.58328476  1
  Si  Si7  1  0.33295222  0.63343847  0.58356037  1
  Si  Si8  1  0.83012675  0.03499387  0.08321327  1
  Si  Si9  1  0.19066661  0.34238352  0.08408895  1
  Si  Si10  1  0.68253665  0.32393973  0.08049094  1
  Si  Si11  1  0.51992715  0.37644325  0.91363681  1
  Si  Si12  1  0.16231608  0.96012436  0.91794923  1
  Si  Si13  1  0.66338294  0.36491633  0.41725960  1
  Si  Si14  1  0.02139001  0.66124473  0.41160677  1
  S  S0  1  0.14268636  0.99817215  0.25101683  1
  S  S1  1  0.64628877  0.00441490  0.25155491  1
  S  S2  1  0.85742938  0.71200986  0.24950738  1
  S  S3  1  0.99860005  0.28958681  0.25048447  1
  S  S4  1  0.14682583  0.28882289  0.75171594  1
  S  S5  1  0.49629737  0.70444164  0.75056652  1
  S  S6  1  0.35568335  0.00132392  0.74880422  1
  S  S7  1  0.48021989  0.33369414  0.58472176  1
  S  S8  1  0.97734914  0.33012650  0.58272244  1
  S  S9  1  0.83300913  0.62641682  0.58236686  1
  S  S10  1  0.47800867  0.62553698  0.08347046  1
  S  S11  1  0.98135259  0.62647866  0.08618844  1
  S  S12  1  0.33176155  0.03985734  0.08326395  1
  S  S13  1  0.31134374  0.66612665  0.91641673  1
  S  S14  1  0.81349168  0.66793793  0.91784503  1
  S  S15  1  0.01956875  0.37541988  0.91541272  1
  S  S16  1  0.66747344  0.95809794  0.91648735  1
  S  S17  1  0.31308345  0.95829784  0.41716430  1
  S  S18  1  0.81086811  0.95587324  0.41601540  1
  S  S19  1  0.16799984  0.37296931  0.41573508  1
  S  S20  1  0.51954072  0.66336823  0.41504565  1
  O  O0  1  0.10277459  0.01812799  0.30505876  1
  O  O1  1  0.60322848  0.02316430  0.30387326  1
  O  O2  1  0.41537285  0.80490890  0.30715984  1
  O  O3  1  0.90957237  0.79863341  0.30168588  1
  O  O4  1  0.49204355  0.18458854  0.30624995  1
  O  O5  1  0.99070097  0.18822762  0.30272353  1
  O  O6  1  0.10379399  0.18336826  0.80408957  1
  O  O7  1  0.59978692  0.18492274  0.81187282  1
  O  O8  1  0.48438467  0.78468262  0.80287180  1
  O  O9  1  0.99462124  0.80046240  0.80602886  1
  O  O10  1  0.40696535  0.01809205  0.80115644  1
  O  O11  1  0.91697682  0.02353557  0.80724043  1
  O  O12  1  0.39640611  0.98238246  0.69601855  1
  O  O13  1  0.90531451  0.98017092  0.69395511  1
  O  O14  1  0.09392233  0.20599914  0.69921069  1
  O  O15  1  0.57807443  0.18574865  0.69873326  1
  O  O16  1  0.01807141  0.82532548  0.69238813  1
  O  O17  1  0.50075754  0.80401975  0.69772665  1
  O  O18  1  0.40376184  0.82628424  0.19343643  1
  O  O19  1  0.90214886  0.81423006  0.19735923  1
  O  O20  1  0.00466037  0.19931342  0.19799283  1
  O  O21  1  0.51460521  0.20784883  0.19257978  1
  O  O22  1  0.08582424  0.97749534  0.20114226  1
  O  O23  1  0.59343704  0.98181540  0.19922208  1
  O  O24  1  0.44291805  0.35836498  0.63825124  1
  O  O25  1  0.94432383  0.36192624  0.63653346  1
  O  O26  1  0.24297297  0.13523311  0.63616344  1
  O  O27  1  0.74752176  0.12439326  0.63984865  1
  O  O28  1  0.31959597  0.51529043  0.64047029  1
  O  O29  1  0.82150543  0.52591769  0.63440218  1
  O  O30  1  0.44372057  0.52639199  0.13779151  1
  O  O31  1  0.94390240  0.52665719  0.14011007  1
  O  O32  1  0.32038389  0.11745042  0.13537525  1
  O  O33  1  0.82016185  0.12564355  0.14137869  1
  O  O34  1  0.24590108  0.36706336  0.14177687  1
  O  O35  1  0.74226612  0.35409460  0.13732182  1
  O  O36  1  0.23675393  0.31601195  0.02771354  1
  O  O37  1  0.72844051  0.30958161  0.02120177  1
  O  O38  1  0.42345327  0.53493777  0.03332160  1
  O  O39  1  0.92773645  0.54737208  0.03521398  1
  O  O40  1  0.34377810  0.14538461  0.03068055  1
  O  O41  1  0.85127998  0.15883548  0.02705196  1
  O  O42  1  0.22745444  0.14632746  0.51981872  1
  O  O43  1  0.73748749  0.15903857  0.52605677  1
  O  O44  1  0.35170011  0.54802784  0.52664771  1
  O  O45  1  0.84524174  0.54543508  0.52948420  1
  O  O46  1  0.42770902  0.31347862  0.53334168  1
  O  O47  1  0.92391395  0.31391777  0.53180778  1
  O  O48  1  0.26595852  0.68309559  0.96836779  1
  O  O49  1  0.77335779  0.69138204  0.97098239  1
  O  O50  1  0.07462155  0.46564595  0.96735752  1
  O  O51  1  0.58723255  0.47870142  0.96679166  1
  O  O52  1  0.15425977  0.84203942  0.97458794  1
  O  O53  1  0.66282634  0.86033829  0.96943278  1
  O  O54  1  0.27239889  0.85502420  0.47002031  1
  O  O55  1  0.76762654  0.84855034  0.46757323  1
  O  O56  1  0.15872699  0.45614992  0.46774419  1
  O  O57  1  0.65449147  0.46705700  0.47298884  1
  O  O58  1  0.09006669  0.70085484  0.46383898  1
  O  O59  1  0.57374797  0.68147020  0.46653732  1
  O  O60  1  0.06203230  0.64199157  0.35039256  1
  O  O61  1  0.56234210  0.65252991  0.36141599  1
  O  O62  1  0.25851912  0.87227327  0.36587198  1
  O  O63  1  0.76054322  0.88028030  0.36328603  1
  O  O64  1  0.17758142  0.47478622  0.36286335  1
  O  O65  1  0.67665338  0.48064490  0.35932732  1
  O  O66  1  0.06310235  0.47250312  0.86221482  1
  O  O67  1  0.56021962  0.47984418  0.85349911  1
  O  O68  1  0.17510857  0.86959983  0.86078051  1
  O  O69  1  0.67658883  0.87639394  0.86428019  1
  O  O70  1  0.26021896  0.64002346  0.86393863  1
  O  O71  1  0.75932604  0.64266357  0.86684318  1
  O  O72  1  0.01461460  0.84114146  0.40873049  1
  O  O73  1  0.51047500  0.81891309  0.41341818  1
  O  O74  1  0.39823033  0.97141914  0.41182989  1
  O  O75  1  0.89747452  0.97213427  0.41204546  1
  O  O76  1  0.08931304  0.19782404  0.41088183  1
  O  O77  1  0.57871505  0.17286886  0.41345133  1
  O  O78  1  0.01069853  0.20198176  0.91424620  1
  O  O79  1  0.51184355  0.18364018  0.91349916  1
  O  O80  1  0.07788739  0.98284860  0.91510257  1
  O  O81  1  0.58769504  0.97194873  0.91500808  1
  O  O82  1  0.39668346  0.82095054  0.91360625  1
  O  O83  1  0.89918248  0.82535182  0.91285978  1
  O  O84  1  0.49099632  0.18057379  0.58865154  1
  O  O85  1  0.98588674  0.17412961  0.58576624  1
  O  O86  1  0.08833819  0.02900049  0.58574147  1
  O  O87  1  0.59457904  0.02093569  0.58878576  1
  O  O88  1  0.41363531  0.82787989  0.59169879  1
  O  O89  1  0.91013140  0.80235501  0.58549093  1
  O  O90  1  0.48635114  0.79812766  0.08770431  1
  O  O91  1  0.99396037  0.80365743  0.09287573  1
  O  O92  1  0.40908417  0.01854350  0.08658824  1
  O  O93  1  0.91320888  0.00433315  0.09176926  1
  O  O94  1  0.09429195  0.16819002  0.09084015  1
  O  O95  1  0.58820451  0.14975811  0.08674679  1
  O  O96  1  0.35066757  0.16292717  0.74570798  1
  O  O97  1  0.85196071  0.17439482  0.74716213  1
  O  O98  1  0.23228440  0.30399879  0.74789068  1
  O  O99  1  0.73805308  0.31499415  0.74653183  1
  O  O100  1  0.42242940  0.52445025  0.74599928  1
  O  O101  1  0.91880936  0.51412390  0.74272080  1
  O  O102  1  0.34665784  0.52361155  0.24711554  1
  O  O103  1  0.85210303  0.54051521  0.24665145  1
  O  O104  1  0.41447199  0.31788379  0.24423824  1
  O  O105  1  0.92338470  0.31642347  0.24668660  1
  O  O106  1  0.22867166  0.14780298  0.24531589  1
  O  O107  1  0.73215744  0.16128929  0.24794375  1
  O  O108  1  0.32159655  0.51220820  0.92374974  1
  O  O109  1  0.82311935  0.51376972  0.92314808  1
  O  O110  1  0.42648622  0.35898317  0.92626901  1
  O  O111  1  0.93616577  0.36724382  0.92136917  1
  O  O112  1  0.24862742  0.15057508  0.92317653  1
  O  O113  1  0.74263823  0.13824437  0.91961100  1
  O  O114  1  0.32193005  0.13095075  0.42099680  1
  O  O115  1  0.82331492  0.13179538  0.42295575  1
  O  O116  1  0.24321110  0.34604691  0.41845008  1
  O  O117  1  0.74990365  0.34776061  0.42265872  1
  O  O118  1  0.43501047  0.50459785  0.41991008  1
  O  O119  1  0.92792930  0.49431525  0.42338806  1
  O  O120  1  0.17520848  0.50715639  0.07561342  1
  O  O121  1  0.66901304  0.49263702  0.07700418  1
  O  O122  1  0.06828314  0.64638327  0.07879899  1
  O  O123  1  0.56535753  0.64824815  0.07493727  1
  O  O124  1  0.25513662  0.86454928  0.07570424  1
  O  O125  1  0.74473162  0.84825103  0.07533365  1
  O  O126  1  0.16830767  0.84676734  0.57685648  1
  O  O127  1  0.67548220  0.84533045  0.57210951  1
  O  O128  1  0.24527334  0.64282053  0.57338716  1
  O  O129  1  0.75621964  0.64740826  0.57414284  1
  O  O130  1  0.06531433  0.48191899  0.57276269  1
  O  O131  1  0.56769657  0.48895103  0.57745152  1
  O  O132  1  0.14694457  0.83620378  0.25321857  1
  O  O133  1  0.65327596  0.84793927  0.25673941  1
  O  O134  1  0.25847613  0.69479478  0.25619952  1
  O  O135  1  0.77212576  0.69662517  0.25280029  1
  O  O136  1  0.07812879  0.46221279  0.25146294  1
  O  O137  1  0.58297617  0.49731936  0.25406199  1
  O  O138  1  0.15302228  0.45865847  0.75687271  1
  O  O139  1  0.64724151  0.47906981  0.75221419  1
  O  O140  1  0.08669019  0.67391443  0.75369446  1
  O  O141  1  0.57649491  0.69663647  0.75220753  1
  O  O142  1  0.26904697  0.84773191  0.75324842  1
  O  O143  1  0.76014132  0.82920404  0.75748550  1
loop_
_geom_bond_atom_site_label_1
_geom_bond_atom_site_label_2
_geom_bond_distance
_geom_bond_site_symmetry_2
Na0 O132 2.357299 1_555
Na0 O103 2.386224 1_455
Na0 O60 2.403006 1_555
Na0 O105 2.426868 1_455
Na0 O136 2.497490 1_555
Na0 O31 2.878493 1_455
Na0 O3 2.925417 1_455
Na0 O22 3.011582 1_555
Na1 O102 2.372663 1_555
Na1 O137 2.387678 1_555
Na1 O104 2.439144 1_555
Na1 O133 2.504438 1_555
Na1 O61 2.780049 1_555
Na1 O30 2.792435 1_555
Na1 O2 2.916882 1_555
Na1 O23 2.980710 1_555
Na2 O97 2.302700 1_555
Na2 O101 2.362500 1_555
Na2 O140 2.395785 1_655
Na2 O138 2.506799 1_655
Na2 O25 2.788843 1_555
Na2 O66 2.816502 1_655
Na3 O139 2.288200 1_555
Na3 O96 2.403159 1_555
Na3 O100 2.493203 1_555
Na3 O67 2.515911 1_555
Na3 O141 2.596978 1_555
Na3 O15 2.876756 1_555
Na3 O10 2.885897 1_555
Na3 O24 2.893944 1_555
Na4 O79 2.394453 1_555
Na4 O113 2.518813 1_555
Na4 O109 2.519837 1_555
Na4 O81 2.594731 1_545
Na4 O37 2.654653 1_556
Na4 O7 2.697603 1_555
Na4 O51 2.784301 1_555
Na4 O71 2.874986 1_555
Na5 O42 2.359552 1_555
Na5 O72 2.413908 1_545
Na5 O114 2.488405 1_555
Na5 O116 2.554151 1_555
Na5 O58 2.589373 1_545
Na5 O76 2.607767 1_555
Na6 O86 2.323838 1_565
Na6 O89 2.484100 1_455
Na6 O85 2.540053 1_465
Na6 O72 2.724120 1_555
Na6 O76 2.794598 1_565
Na6 O75 2.829595 1_455
Na7 O87 2.451410 1_565
Na7 O77 2.549066 1_565
Na7 O88 2.585809 1_555
Na7 O73 2.637296 1_555
Na7 O84 2.683513 1_565
Na7 O74 2.841145 1_555
Na8 O80 2.352791 1_545
Na8 O78 2.503955 1_555
Na8 O94 2.635653 1_556
Na8 O83 2.683525 1_445
Na8 O93 2.762183 1_456
Na8 O91 2.867973 1_446
Na9 O79 2.443396 1_555
Na9 O95 2.472694 1_556
Na9 O81 2.602005 1_545
Na9 O92 2.653201 1_556
Na9 O82 2.699822 1_545
Na9 O90 2.737725 1_546
Na10 O112 2.474326 1_555
Na10 O110 2.592660 1_555
Na10 O96 2.670723 1_555
Na10 O98 2.689441 1_555
Na10 O108 2.693467 1_555
Na10 O100 2.749914 1_555
Na11 O99 2.337758 1_555
Na11 O97 2.347455 1_555
Na11 O101 2.418027 1_555
Na11 O113 2.825541 1_555
Na11 O109 2.932034 1_555
Na11 O111 2.935162 1_555
Na12 O104 2.390674 1_555
Na12 O102 2.392249 1_555
Na12 O118 2.668378 1_555
Na12 O106 2.699916 1_555
Na12 O116 2.765770 1_555
Na12 O114 2.825374 1_555
Na13 O117 2.355460 1_555
Na13 O119 2.540702 1_555
Na13 O115 2.616959 1_555
Na13 O107 2.704856 1_555
Na13 O103 2.736594 1_555
Na13 O105 2.861519 1_555
Na14 O134 2.352029 1_555
Na14 O120 2.441999 1_555
Na14 O124 2.668818 1_555
Na14 O136 2.711047 1_555
Na14 O132 2.899625 1_555
Na14 O122 2.954887 1_555
Na15 O121 2.415026 1_555
Na15 O125 2.547736 1_555
Na15 O137 2.616003 1_555
Na15 O135 2.636813 1_555
Na15 O123 2.808985 1_555
Na15 O133 2.939097 1_555
Na16 O126 2.498928 1_555
Na16 O140 2.519676 1_555
Na16 O142 2.526171 1_555
Na16 O128 2.653159 1_555
Na16 O138 2.881910 1_555
Na16 O130 2.941684 1_555
Na17 O143 2.281033 1_555
Na17 O139 2.492210 1_555
Na17 O141 2.637070 1_555
Na17 O127 2.766816 1_555
Na17 O129 2.808698 1_555
Hf0 O4 1.924583 1_555
Hf0 O2 2.000901 1_545
Hf0 O77 2.030112 1_555
Hf0 O1 2.138652 1_555
Hf0 O74 2.157635 1_545
Hf0 O73 2.329963 1_545
Hf1 O9 1.914846 1_555
Hf1 O11 1.966086 1_565
Hf1 O80 2.056696 1_655
Hf1 O6 2.136177 1_665
Hf1 O83 2.171909 1_555
Hf1 O78 2.365446 1_665
Hf2 O16 1.918344 1_555
Hf2 O13 1.966642 1_455
Hf2 O86 2.050842 1_565
Hf2 O14 2.169806 1_565
Hf2 O89 2.217647 1_455
Hf2 O85 2.333663 1_465
Hf3 O87 1.971083 1_565
Hf3 O15 1.977898 1_565
Hf3 O88 2.018331 1_555
Hf3 O17 2.106319 1_555
Hf3 O84 2.191269 1_565
Hf3 O12 2.247406 1_555
Hf4 O93 1.924854 1_455
Hf4 O94 1.938928 1_555
Hf4 O20 2.110157 1_555
Hf4 O91 2.123573 1_445
Hf4 O22 2.198971 1_545
Hf4 O19 2.202640 1_445
Hf5 O21 1.928100 1_555
Hf5 O18 1.995594 1_545
Hf5 O95 2.023343 1_555
Hf5 O92 2.186385 1_555
Hf5 O23 2.190764 1_545
Hf5 O90 2.293691 1_545
Hf6 O112 1.962711 1_555
Hf6 O36 1.980505 1_556
Hf6 O110 2.018121 1_555
Hf6 O40 2.140045 1_556
Hf6 O108 2.150194 1_555
Hf6 O38 2.225088 1_556
Hf7 O43 1.948483 1_555
Hf7 O117 1.980184 1_555
Hf7 O119 2.071906 1_555
Hf7 O45 2.113879 1_555
Hf7 O47 2.182031 1_555
Hf7 O115 2.194418 1_555
Hf8 O52 1.958224 1_554
Hf8 O120 2.024111 1_555
Hf8 O50 2.076197 1_554
Hf8 O48 2.097514 1_554
Hf8 O122 2.160419 1_555
Hf8 O124 2.179220 1_555
Hf9 O121 1.973160 1_555
Hf9 O51 1.981143 1_554
Hf9 O125 2.020182 1_555
Hf9 O123 2.149032 1_555
Hf9 O49 2.149540 1_554
Hf9 O53 2.208560 1_554
Hf10 O126 1.951582 1_555
Hf10 O128 1.979680 1_555
Hf10 O58 2.025902 1_555
Hf10 O130 2.093629 1_555
Hf10 O54 2.181385 1_555
Hf10 O56 2.302924 1_555
Hf11 O57 1.975563 1_555
Hf11 O127 1.981617 1_555
Hf11 O131 2.112721 1_555
Hf11 O59 2.115651 1_555
Hf11 O129 2.140513 1_555
Hf11 O55 2.153468 1_555
O0 S0 1.494573 1_545
O0 Sc0 2.149234 1_445
O1 S1 1.489244 1_555
O2 Si0 1.649496 1_555
O3 S2 1.490613 1_555
O3 Sc0 2.101398 1_555
O4 Si1 1.645141 1_555
O5 S3 1.474768 1_555
O5 Sc0 2.205485 1_545
O6 S4 1.491402 1_555
O7 Si2 1.652016 1_555
O7 Sc1 1.916003 1_555
O8 S5 1.476709 1_555
O8 Sc1 2.224633 1_565
O9 Si3 1.647406 1_655
O10 S6 1.486413 1_555
O10 Sc1 2.138811 1_555
O11 Si4 1.655825 1_545
O12 S6 1.475075 1_565
O13 Si4 1.655338 1_555
O14 S4 1.495392 1_555
O15 Si2 1.647788 1_555
O16 Si3 1.643766 1_555
O17 S5 1.491302 1_555
O18 Si0 1.644558 1_555
O19 S2 1.483289 1_555
O20 S3 1.493206 1_455
O21 Si1 1.640223 1_555
O22 S0 1.493475 1_555
O23 S1 1.492042 1_565
O24 S7 1.475225 1_555
O24 Sc2 2.243987 1_555
O25 S8 1.465953 1_555
O25 Sc3 2.379572 1_555
O26 Si5 1.623755 1_555
O26 Sc2 1.918880 1_555
O27 Si6 1.601858 1_555
O27 Sc3 1.974225 1_555
O28 Si7 1.629463 1_555
O28 Sc2 1.901786 1_555
O29 S9 1.454202 1_555
O29 Sc3 2.337501 1_555
O30 S10 1.482253 1_555
O30 Sc4 2.207834 1_555
O31 S11 1.484349 1_555
O31 Sc5 2.241964 1_555
O32 S12 1.456207 1_555
O32 Sc4 2.308964 1_555
O33 Si8 1.627337 1_555
O33 Sc5 1.897203 1_555
O34 Si9 1.614568 1_555
O34 Sc4 1.949143 1_555
O35 Si10 1.635785 1_555
O35 Sc5 1.903076 1_555
O36 Si9 1.622859 1_555
O37 Si10 1.636922 1_555
O37 Sc6 1.963019 1_554
O38 S10 1.477225 1_555
O39 S11 1.466275 1_555
O39 Sc6 2.234644 1_554
O40 S12 1.488058 1_555
O41 Si8 1.624506 1_555
O41 Sc6 1.907103 1_554
O42 Si5 1.645491 1_555
O42 Sc7 1.982368 1_555
O43 Si6 1.640686 1_555
O44 Si7 1.639932 1_555
O44 Sc7 1.888839 1_555
O45 S9 1.493591 1_555
O46 S7 1.474658 1_555
O46 Sc7 2.145092 1_555
O47 S8 1.483402 1_555
O48 S13 1.500830 1_555
O49 S14 1.490992 1_555
O50 S15 1.512939 1_555
O51 Si11 1.649932 1_555
O52 Si12 1.643836 1_555
O53 S16 1.483262 1_555
O54 S17 1.485139 1_555
O55 S18 1.483301 1_555
O56 S19 1.468107 1_555
O57 Si13 1.634652 1_555
O58 Si14 1.638535 1_555
O59 S20 1.498641 1_555
O60 Si14 1.640153 1_555
O60 Sc8 2.028466 1_555
O61 S20 1.486894 1_555
O61 Sc9 2.194160 1_555
O62 S17 1.489911 1_555
O62 Sc8 2.119736 1_555
O63 S18 1.470754 1_555
O63 Sc9 2.247658 1_555
O64 S19 1.482959 1_555
O64 Sc8 2.094231 1_555
O65 Si13 1.636646 1_555
O65 Sc9 1.890376 1_555
O66 S15 1.482830 1_555
O66 Sc10 2.210764 1_555
O67 Si11 1.625664 1_555
O67 Sc11 2.052227 1_555
O68 Si12 1.626713 1_555
O68 Sc10 1.893772 1_555
O69 S16 1.463434 1_555
O69 Sc11 2.224196 1_555
O70 S13 1.472172 1_555
O70 Sc10 2.237632 1_555
O71 S14 1.476583 1_555
O71 Sc11 2.187710 1_555
O72 Si14 1.677260 1_555
O72 Sc0 1.948822 1_455
O73 S20 1.482196 1_555
O74 S17 1.481129 1_555
O75 S18 1.492970 1_555
O75 Sc0 2.137185 1_555
O76 S19 1.505144 1_555
O76 Sc0 2.160870 1_445
O77 Si13 1.636023 1_555
O78 S15 1.481248 1_555
O79 Si11 1.659865 1_555
O79 Sc1 2.020508 1_555
O80 Si12 1.631110 1_555
O81 S16 1.501093 1_555
O81 Sc1 2.239206 1_565
O82 S13 1.470128 1_555
O82 Sc1 2.285302 1_565
O83 S14 1.486525 1_555
O84 S7 1.480939 1_555
O85 S8 1.481937 1_555
O86 Si5 1.636487 1_555
O87 Si6 1.654142 1_555
O88 Si7 1.630451 1_555
O89 S9 1.495103 1_555
O90 S10 1.480718 1_555
O91 S11 1.495761 1_555
O92 S12 1.497285 1_555
O93 Si8 1.660890 1_555
O94 Si9 1.663184 1_555
O95 Si10 1.641311 1_555
O96 S6 1.496677 1_555
O96 Sc2 2.374389 1_555
O97 Si4 1.623651 1_545
O97 Sc3 2.022305 1_555
O98 S4 1.476369 1_555
O98 Sc2 2.204924 1_555
O99 Si2 1.603147 1_555
O99 Sc3 1.977984 1_555
O100 S5 1.497444 1_555
O100 Sc2 2.338090 1_555
O101 Si3 1.602200 1_655
O101 Sc3 2.121136 1_555
O102 Si0 1.639555 1_555
O102 Sc4 2.008750 1_555
O103 S2 1.492693 1_555
O103 Sc5 2.392457 1_555
O104 Si1 1.620706 1_555
O104 Sc4 2.101192 1_555
O105 S3 1.490173 1_555
O105 Sc5 2.400657 1_555
O106 S0 1.462272 1_545
O106 Sc4 2.222750 1_555
O107 S1 1.484245 1_555
O107 Sc5 2.199228 1_555
O108 S13 1.489358 1_555
O109 S14 1.480393 1_555
O109 Sc6 2.326282 1_555
O110 Si11 1.633797 1_555
O111 S15 1.470985 1_655
O111 Sc6 2.286075 1_555
O112 Si12 1.642294 1_545
O113 S16 1.504560 1_545
O113 Sc6 2.223958 1_555
O114 S17 1.476900 1_545
O114 Sc7 2.410193 1_555
O115 S18 1.486381 1_545
O116 S19 1.489240 1_555
O116 Sc7 2.283676 1_555
O117 Si13 1.643303 1_555
O118 S20 1.480073 1_555
O118 Sc7 2.298291 1_555
O119 Si14 1.620952 1_655
O120 Si9 1.644568 1_555
O121 Si10 1.648304 1_555
O122 S11 1.491991 1_455
O123 S10 1.492643 1_555
O124 S12 1.497017 1_565
O125 Si8 1.622388 1_565
O126 Si5 1.657789 1_565
O127 Si6 1.648660 1_565
O128 Si7 1.638201 1_555
O129 S9 1.496524 1_555
O130 S8 1.502795 1_455
O131 S7 1.501727 1_555
O132 S0 1.491752 1_555
O132 Sc8 2.277559 1_555
O133 S1 1.473570 1_565
O133 Sc9 2.354402 1_555
O134 Si0 1.632706 1_555
O134 Sc8 1.991333 1_555
O135 S2 1.472149 1_555
O135 Sc9 2.225131 1_555
O136 S3 1.494548 1_455
O136 Sc8 2.270046 1_555
O137 Si1 1.652308 1_555
O137 Sc9 1.993789 1_555
O138 S4 1.474316 1_555
O138 Sc10 2.356154 1_555
O139 Si2 1.640915 1_555
O139 Sc11 2.013082 1_555
O140 Si3 1.652243 1_555
O140 Sc10 1.983111 1_555
O141 S5 1.479124 1_555
O141 Sc11 2.254295 1_555
O142 S6 1.481123 1_565
O142 Sc10 2.174350 1_555
O143 Si4 1.611302 1_555
O143 Sc11 2.007790 1_555
