# generated using pymatgen
data_Na2TaZn(PO4)3
_symmetry_space_group_name_H-M   'P 1'
_cell_length_a   8.87984860
_cell_length_b   8.83147038
_cell_length_c   22.44546123
_cell_angle_alpha   89.99999999
_cell_angle_beta   90.20052440
_cell_angle_gamma   119.81994382
_symmetry_Int_Tables_number   1
_chemical_formula_structural   Na2TaZn(PO4)3
_chemical_formula_sum   'Na12 Ta6 Zn6 P18 O72'
_cell_volume   1527.14165565
_cell_formula_units_Z   6
loop_
 _symmetry_equiv_pos_site_id
 _symmetry_equiv_pos_as_xyz
  1  'x, y, z'
loop_
 _atom_site_type_symbol
 _atom_site_label
 _atom_site_symmetry_multiplicity
 _atom_site_fract_x
 _atom_site_fract_y
 _atom_site_fract_z
 _atom_site_occupancy
  Na  Na0  1  0.98764048  0.63085346  0.24705007  1
  Na  Na1  1  0.98764048  0.35678702  0.74705007  1
  Na  Na2  1  0.65430748  0.96418646  0.58038307  1
  Na  Na3  1  0.65430748  0.69012002  0.08038307  1
  Na  Na4  1  0.32097348  0.29752046  0.91371707  1
  Na  Na5  1  0.32097348  0.02345402  0.41371707  1
  Na  Na6  1  0.99787192  0.00063317  0.49233376  1
  Na  Na7  1  0.99787192  0.99723875  0.99233376  1
  Na  Na8  1  0.66453892  0.33396617  0.82566676  1
  Na  Na9  1  0.66453892  0.33057175  0.32566676  1
  Na  Na10  1  0.33120492  0.66730017  0.15900076  1
  Na  Na11  1  0.33120492  0.66390575  0.65900076  1
  Ta  Ta0  1  0.00442411  0.99820364  0.64653801  1
  Ta  Ta1  1  0.00442411  0.00622047  0.14653801  1
  Ta  Ta2  1  0.67109111  0.33153664  0.97987101  1
  Ta  Ta3  1  0.67109111  0.33955347  0.47987101  1
  Ta  Ta4  1  0.33775711  0.66487064  0.31320501  1
  Ta  Ta5  1  0.33775711  0.67288747  0.81320501  1
  Zn  Zn0  1  0.99346026  0.00045182  0.35078129  1
  Zn  Zn1  1  0.99346026  0.99300844  0.85078129  1
  Zn  Zn2  1  0.66012726  0.33378482  0.68411429  1
  Zn  Zn3  1  0.66012726  0.32634144  0.18411429  1
  Zn  Zn4  1  0.32679326  0.66711882  0.01744829  1
  Zn  Zn5  1  0.32679326  0.65967544  0.51744829  1
  P  P0  1  0.29535039  0.00544743  0.25326077  1
  P  P1  1  0.71098915  0.70995119  0.25072208  1
  P  P2  1  0.99767300  0.28981356  0.25260686  1
  P  P3  1  0.29535039  0.28990295  0.75326077  1
  P  P4  1  0.99767300  0.70785944  0.75260686  1
  P  P5  1  0.71098915  0.00103796  0.75072208  1
  P  P6  1  0.96201739  0.33878043  0.58659377  1
  P  P7  1  0.37765615  0.04328419  0.58405508  1
  P  P8  1  0.66434000  0.62314656  0.58593986  1
  P  P9  1  0.96201739  0.62323595  0.08659377  1
  P  P10  1  0.66434000  0.04119244  0.08593986  1
  P  P11  1  0.37765615  0.33437096  0.08405508  1
  P  P12  1  0.62868339  0.67211443  0.91992777  1
  P  P13  1  0.04432215  0.37661819  0.91738908  1
  P  P14  1  0.33100600  0.95648056  0.91927386  1
  P  P15  1  0.62868339  0.95656995  0.41992777  1
  P  P16  1  0.33100600  0.37452644  0.41927386  1
  P  P17  1  0.04432215  0.66770496  0.41738908  1
  O  O0  1  0.21289555  0.02257699  0.30948577  1
  O  O1  1  0.82464258  0.79201039  0.30428702  1
  O  O2  1  0.97524495  0.18382601  0.30670608  1
  O  O3  1  0.21289555  0.19031856  0.80948577  1
  O  O4  1  0.97524495  0.79141893  0.80670608  1
  O  O5  1  0.82464258  0.03263219  0.80428702  1
  O  O6  1  0.79595197  0.96816234  0.69281369  1
  O  O7  1  0.16666455  0.19807258  0.69725185  1
  O  O8  1  0.02874331  0.82794894  0.69520634  1
  O  O9  1  0.79595197  0.82778964  0.19281369  1
  O  O10  1  0.02874331  0.20079437  0.19520634  1
  O  O11  1  0.16666455  0.96859197  0.19725185  1
  O  O12  1  0.87956255  0.35590999  0.64281877  1
  O  O13  1  0.49130958  0.12534339  0.63762002  1
  O  O14  1  0.64191195  0.51715901  0.64003908  1
  O  O15  1  0.87956255  0.52365156  0.14281877  1
  O  O16  1  0.64191195  0.12475193  0.14003908  1
  O  O17  1  0.49130958  0.36596519  0.13762002  1
  O  O18  1  0.46261897  0.30149534  0.02614669  1
  O  O19  1  0.83333155  0.53140558  0.03058485  1
  O  O20  1  0.69541031  0.16128194  0.02853934  1
  O  O21  1  0.46261897  0.16112264  0.52614669  1
  O  O22  1  0.69541031  0.53412737  0.52853934  1
  O  O23  1  0.83333155  0.30192497  0.53058485  1
  O  O24  1  0.54622855  0.68924399  0.97615277  1
  O  O25  1  0.15797558  0.45867739  0.97095402  1
  O  O26  1  0.30857795  0.85049301  0.97337308  1
  O  O27  1  0.54622855  0.85698556  0.47615277  1
  O  O28  1  0.30857795  0.45808593  0.47337308  1
  O  O29  1  0.15797558  0.69929919  0.47095402  1
  O  O30  1  0.12928497  0.63482934  0.35948069  1
  O  O31  1  0.49999755  0.86473958  0.36391885  1
  O  O32  1  0.36207631  0.49461594  0.36187334  1
  O  O33  1  0.12928497  0.49445664  0.85948069  1
  O  O34  1  0.36207631  0.86746137  0.86187334  1
  O  O35  1  0.49999755  0.63525897  0.86391885  1
  O  O36  1  0.01938796  0.82475347  0.40923542  1
  O  O37  1  0.80851478  0.98481558  0.41072665  1
  O  O38  1  0.18330869  0.18860473  0.41072741  1
  O  O39  1  0.01938796  0.19463449  0.90923542  1
  O  O40  1  0.18330869  0.99470395  0.91072741  1
  O  O41  1  0.80851478  0.82369919  0.91072665  1
  O  O42  1  0.96538548  0.15823263  0.58976078  1
  O  O43  1  0.19332224  0.03190782  0.59062475  1
  O  O44  1  0.83852866  0.81023257  0.58988138  1
  O  O45  1  0.96538548  0.80715284  0.08976078  1
  O  O46  1  0.83852866  0.02829609  0.08988138  1
  O  O47  1  0.19332224  0.16141442  0.09062475  1
  O  O48  1  0.68605496  0.15808647  0.74256842  1
  O  O49  1  0.47518178  0.31814858  0.74405965  1
  O  O50  1  0.84997569  0.52193773  0.74406041  1
  O  O51  1  0.68605496  0.52796749  0.24256842  1
  O  O52  1  0.84997569  0.32803695  0.24406041  1
  O  O53  1  0.47518178  0.15703219  0.24405965  1
  O  O54  1  0.63205248  0.49156563  0.92309378  1
  O  O55  1  0.85998924  0.36524082  0.92395775  1
  O  O56  1  0.50519566  0.14356557  0.92321438  1
  O  O57  1  0.63205248  0.14048584  0.42309378  1
  O  O58  1  0.50519566  0.36162909  0.42321438  1
  O  O59  1  0.85998924  0.49474742  0.42395775  1
  O  O60  1  0.35272096  0.49142047  0.07590242  1
  O  O61  1  0.14184778  0.65148258  0.07739365  1
  O  O62  1  0.51664169  0.85527173  0.07739441  1
  O  O63  1  0.35272096  0.86130149  0.57590242  1
  O  O64  1  0.51664169  0.66137095  0.57739441  1
  O  O65  1  0.14184778  0.49036619  0.57739365  1
  O  O66  1  0.29871848  0.82489963  0.25642778  1
  O  O67  1  0.52665524  0.69857482  0.25729175  1
  O  O68  1  0.17186166  0.47689957  0.25654838  1
  O  O69  1  0.29871848  0.47381984  0.75642778  1
  O  O70  1  0.17186166  0.69496309  0.75654838  1
  O  O71  1  0.52665524  0.82808142  0.75729175  1
loop_
_geom_bond_atom_site_label_1
_geom_bond_atom_site_label_2
_geom_bond_distance
_geom_bond_site_symmetry_2
Na0 O52 2.323547 1_555
Na0 O51 2.363391 1_555
Na0 O66 2.428878 1_655
Na0 O15 2.524156 1_555
Na0 O68 2.603788 1_655
Na0 O1 2.798730 1_555
Na0 O30 2.808104 1_655
Na0 O11 2.823082 1_655
Na1 O50 2.323539 1_555
Na1 O48 2.363393 1_555
Na1 O69 2.428876 1_655
Na1 O12 2.524155 1_555
Na1 O70 2.603795 1_655
Na1 O5 2.798730 1_555
Na1 O33 2.808106 1_655
Na1 O7 2.823082 1_655
Na2 O64 2.323538 1_555
Na2 O63 2.363400 1_555
Na2 O42 2.428878 1_565
Na2 O27 2.524136 1_555
Na2 O44 2.603788 1_555
Na2 O13 2.798730 1_565
Na2 O6 2.808104 1_555
Na2 O23 2.823082 1_565
Na3 O62 2.323554 1_555
Na3 O60 2.363397 1_555
Na3 O45 2.428876 1_555
Na3 O24 2.524139 1_554
Na3 O46 2.603795 1_565
Na3 O17 2.798730 1_555
Na3 O9 2.808106 1_555
Na3 O19 2.823082 1_555
Na4 O40 2.323547 1_545
Na4 O39 2.363391 1_555
Na4 O54 2.428882 1_555
Na4 O3 2.524156 1_555
Na4 O56 2.603801 1_555
Na4 O25 2.798730 1_555
Na4 O18 2.808089 1_556
Na4 O35 2.823082 1_555
Na5 O38 2.323539 1_555
Na5 O36 2.363393 1_545
Na5 O57 2.428884 1_555
Na5 O0 2.524155 1_555
Na5 O58 2.603787 1_555
Na5 O29 2.798730 1_545
Na5 O21 2.808086 1_555
Na5 O31 2.823082 1_545
Na6 O37 2.438611 1_545
Na6 O38 2.474839 1_655
Na6 O36 2.495138 1_645
Na6 O42 2.684442 1_555
Na6 O44 2.697939 1_545
Na6 O43 2.729870 1_655
Na7 O41 2.438611 1_555
Na7 O40 2.474839 1_655
Na7 O39 2.495138 1_665
Na7 O45 2.684442 1_556
Na7 O46 2.697939 1_566
Na7 O47 2.729870 1_666
Na8 O49 2.438611 1_555
Na8 O50 2.474839 1_555
Na8 O48 2.495138 1_555
Na8 O54 2.684442 1_555
Na8 O56 2.697939 1_555
Na8 O55 2.729870 1_555
Na9 O53 2.438611 1_555
Na9 O52 2.474839 1_555
Na9 O51 2.495138 1_555
Na9 O57 2.684442 1_555
Na9 O58 2.697939 1_555
Na9 O59 2.729870 1_555
Na10 O61 2.438611 1_555
Na10 O62 2.474839 1_555
Na10 O60 2.495138 1_555
Na10 O66 2.684442 1_555
Na10 O68 2.697939 1_555
Na10 O67 2.729870 1_555
Na11 O65 2.438611 1_555
Na11 O64 2.474839 1_555
Na11 O63 2.495138 1_555
Na11 O69 2.684442 1_555
Na11 O70 2.697939 1_555
Na11 O71 2.729870 1_555
O0 P0 1.506070 1_555
O0 Zn0 2.080420 1_455
O1 P1 1.501111 1_555
O1 Zn0 1.992367 1_565
O2 P2 1.485456 1_555
O2 Zn0 1.971527 1_555
O3 P3 1.506069 1_555
O3 Zn1 2.080420 1_445
O4 P4 1.485456 1_555
O4 Zn1 1.971527 1_555
O5 P5 1.501111 1_555
O5 Zn1 1.992367 1_545
O6 P5 1.602389 1_565
O6 Ta0 2.025138 1_655
O7 P3 1.616224 1_555
O7 Ta0 1.986542 1_545
O8 P4 1.603846 1_455
O8 Ta0 1.955001 1_555
O9 P1 1.602389 1_555
O9 Ta1 2.025138 1_665
O10 P2 1.603846 1_455
O10 Ta1 1.955001 1_555
O11 P0 1.616224 1_565
O11 Ta1 1.986542 1_565
O12 P6 1.506070 1_555
O12 Zn2 2.080420 1_555
O13 P7 1.501111 1_555
O13 Zn2 1.992367 1_555
O14 P8 1.485456 1_555
O14 Zn2 1.971527 1_555
O15 P9 1.506069 1_555
O15 Zn3 2.080420 1_555
O16 P10 1.485456 1_555
O16 Zn3 1.971527 1_555
O17 P11 1.501111 1_555
O17 Zn3 1.992367 1_555
O18 P11 1.602389 1_555
O18 Ta2 2.025138 1_554
O19 P9 1.616224 1_555
O19 Ta2 1.986542 1_554
O20 P10 1.603846 1_555
O20 Ta2 1.955001 1_554
O21 P7 1.602389 1_555
O21 Ta3 2.025138 1_555
O22 P8 1.603846 1_555
O22 Ta3 1.955001 1_555
O23 P6 1.616224 1_555
O23 Ta3 1.986542 1_555
O24 P12 1.506070 1_555
O24 Zn4 2.080420 1_556
O25 P13 1.501111 1_555
O25 Zn4 1.992367 1_556
O26 P14 1.485456 1_555
O26 Zn4 1.971527 1_556
O27 P15 1.506069 1_555
O27 Zn5 2.080420 1_555
O28 P16 1.485456 1_555
O28 Zn5 1.971527 1_555
O29 P17 1.501111 1_555
O29 Zn5 1.992367 1_555
O30 P17 1.602389 1_555
O30 Ta4 2.025138 1_555
O31 P15 1.616224 1_555
O31 Ta4 1.986542 1_555
O32 P16 1.603846 1_555
O32 Ta4 1.955001 1_555
O33 P13 1.602389 1_555
O33 Ta5 2.025138 1_555
O34 P14 1.603846 1_555
O34 Ta5 1.955001 1_555
O35 P12 1.616224 1_555
O35 Ta5 1.986542 1_555
O36 P17 1.520308 1_555
O36 Zn0 2.129627 1_465
O37 P15 1.503671 1_555
O37 Zn0 2.077612 1_565
O38 P16 1.519683 1_555
O38 Zn0 2.147479 1_455
O39 P13 1.520316 1_555
O39 Zn1 2.129627 1_445
O40 P14 1.519678 1_555
O40 Zn1 2.147479 1_455
O41 P12 1.503668 1_555
O41 Zn1 2.077612 1_555
O42 P6 1.611149 1_555
O42 Ta0 2.055676 1_645
O43 P7 1.596643 1_555
O43 Ta0 1.998854 1_545
O44 P8 1.608589 1_555
O44 Ta0 2.024306 1_655
O45 P9 1.611157 1_555
O45 Ta1 2.055676 1_665
O46 P10 1.608584 1_555
O46 Ta1 2.024306 1_655
O47 P11 1.596639 1_555
O47 Ta1 1.998854 1_555
O48 P5 1.520308 1_555
O48 Zn2 2.129627 1_555
O49 P3 1.503671 1_555
O49 Zn2 2.077612 1_555
O50 P4 1.519683 1_555
O50 Zn2 2.147479 1_555
O51 P1 1.520316 1_555
O51 Zn3 2.129627 1_555
O52 P2 1.519678 1_555
O52 Zn3 2.147479 1_555
O53 P0 1.503668 1_555
O53 Zn3 2.077612 1_555
O54 P12 1.611161 1_555
O54 Ta2 2.055676 1_555
O55 P13 1.596629 1_655
O55 Ta2 1.998854 1_555
O56 P14 1.608587 1_545
O56 Ta2 2.024306 1_555
O57 P15 1.611143 1_545
O57 Ta3 2.055676 1_555
O58 P16 1.608597 1_555
O58 Ta3 2.024306 1_555
O59 P17 1.596636 1_655
O59 Ta3 1.998854 1_555
O60 P11 1.520319 1_555
O60 Zn4 2.129627 1_555
O61 P9 1.503656 1_455
O61 Zn4 2.077612 1_555
O62 P10 1.519678 1_565
O62 Zn4 2.147479 1_555
O63 P7 1.520302 1_565
O63 Zn5 2.129627 1_555
O64 P8 1.519689 1_555
O64 Zn5 2.147479 1_555
O65 P6 1.503662 1_455
O65 Zn5 2.077612 1_555
O66 P0 1.611149 1_565
O66 Ta4 2.055676 1_555
O67 P1 1.596643 1_555
O67 Ta4 1.998854 1_555
O68 P2 1.608589 1_455
O68 Ta4 2.024306 1_555
O69 P3 1.611157 1_555
O69 Ta5 2.055676 1_555
O70 P4 1.608584 1_455
O70 Ta5 2.024306 1_555
O71 P5 1.596639 1_565
O71 Ta5 1.998854 1_555
