# generated using pymatgen
data_MgMn3V2O10
_symmetry_space_group_name_H-M   'P 1'
_cell_length_a   5.25573584
_cell_length_b   5.08960406
_cell_length_c   8.05006431
_cell_angle_alpha   113.80301809
_cell_angle_beta   96.37535605
_cell_angle_gamma   99.68243259
_symmetry_Int_Tables_number   1
_chemical_formula_structural   MgMn3V2O10
_chemical_formula_sum   'Mg1 Mn3 V2 O10'
_cell_volume   190.35278436
_cell_formula_units_Z   1
loop_
 _symmetry_equiv_pos_site_id
 _symmetry_equiv_pos_as_xyz
  1  'x, y, z'
loop_
 _atom_site_type_symbol
 _atom_site_label
 _atom_site_symmetry_multiplicity
 _atom_site_fract_x
 _atom_site_fract_y
 _atom_site_fract_z
 _atom_site_occupancy
  Mg  Mg0  1  0.74022595  0.06821090  0.57673803  1
  Mn  Mn0  1  0.99739331  0.49317880  0.99698698  1
  Mn  Mn1  1  0.68529163  0.86806244  0.89347850  1
  Mn  Mn2  1  0.31857273  0.11131170  0.12211181  1
  V  V0  1  0.13056297  0.72242902  0.68137822  1
  V  V1  1  0.89146598  0.30831217  0.32223325  1
  O  O0  1  0.97926407  0.06851270  0.82374409  1
  O  O1  1  0.33247019  0.72306919  0.92267900  1
  O  O2  1  0.09161396  0.30003325  0.51365082  1
  O  O3  1  0.16986782  0.45553251  0.20792746  1
  O  O4  1  0.43256561  0.88506292  0.65902379  1
  O  O5  1  0.59539757  0.10907819  0.33915137  1
  O  O6  1  0.81519032  0.51220545  0.77615363  1
  O  O7  1  0.87844636  0.68434060  0.46788356  1
  O  O8  1  0.65938669  0.26200867  0.07401854  1
  O  O9  1  0.98228483  0.91674648  0.13950795  1
loop_
_geom_bond_atom_site_label_1
_geom_bond_atom_site_label_2
_geom_bond_distance
_geom_bond_site_symmetry_2
Mg0 O4 2.037545 1_545
Mg0 O5 2.081275 1_555
Mg0 O7 2.085567 1_545
Mg0 O6 2.114389 1_555
Mg0 O0 2.230301 1_555
Mg0 O2 2.240475 1_655
Mn0 O3 1.929019 1_656
Mn0 O6 1.969462 1_555
Mn0 O9 2.012811 1_556
Mn0 O0 2.023294 1_555
Mn0 O1 2.221266 1_655
Mn0 O8 2.248377 1_556
Mn1 O1 1.953183 1_555
Mn1 O6 1.953669 1_555
Mn1 O0 1.966675 1_565
Mn1 O8 1.983567 1_566
Mn1 O4 2.224339 1_555
Mn1 O9 2.282030 1_556
Mn2 O9 1.924122 1_445
Mn2 O3 1.939314 1_555
Mn2 O8 1.969322 1_555
Mn2 O1 2.000318 1_544
Mn2 O5 2.150958 1_555
O0 V0 2.022985 1_645
O1 V0 2.106014 1_555
O2 V1 1.786086 1_455
O2 V0 1.983503 1_555
O3 V1 2.008950 1_455
O4 V0 1.725868 1_555
O5 V1 1.759513 1_555
O6 V0 2.194874 1_655
O7 V1 1.814598 1_555
O7 V0 1.971299 1_655
O8 V1 2.125522 1_555
O9 V1 2.114921 1_565
