# generated using pymatgen
data_RbPbI3
_symmetry_space_group_name_H-M   'P 1'
_cell_length_a   4.82902567
_cell_length_b   10.46796539
_cell_length_c   17.53113710
_cell_angle_alpha   90.00000000
_cell_angle_beta   90.00000000
_cell_angle_gamma   90.00000000
_symmetry_Int_Tables_number   1
_chemical_formula_structural   RbPbI3
_chemical_formula_sum   'Rb4 Pb4 I12'
_cell_volume   886.20027036
_cell_formula_units_Z   4
loop_
 _symmetry_equiv_pos_site_id
 _symmetry_equiv_pos_as_xyz
  1  'x, y, z'
loop_
 _atom_site_type_symbol
 _atom_site_label
 _atom_site_symmetry_multiplicity
 _atom_site_fract_x
 _atom_site_fract_y
 _atom_site_fract_z
 _atom_site_occupancy
  Rb  Rb0  1  0.75000000  0.91631693  0.67505971  1
  Rb  Rb1  1  0.25000000  0.08368307  0.32494029  1
  Rb  Rb2  1  0.75000000  0.41631693  0.82494029  1
  Rb  Rb3  1  0.25000000  0.58368307  0.17505971  1
  Pb  Pb0  1  0.75000000  0.66599396  0.44096750  1
  Pb  Pb1  1  0.25000000  0.83400604  0.94096750  1
  Pb  Pb2  1  0.75000000  0.16599396  0.05903250  1
  Pb  Pb3  1  0.25000000  0.33400604  0.55903250  1
  I  I0  1  0.25000000  0.47540161  0.38529418  1
  I  I1  1  0.25000000  0.97540161  0.11470582  1
  I  I2  1  0.75000000  0.02459839  0.88529418  1
  I  I3  1  0.75000000  0.30399377  0.21528632  1
  I  I4  1  0.75000000  0.80399377  0.28471368  1
  I  I5  1  0.25000000  0.19600623  0.71528632  1
  I  I6  1  0.25000000  0.84024615  0.50919796  1
  I  I7  1  0.25000000  0.69600623  0.78471368  1
  I  I8  1  0.75000000  0.65975385  0.00919796  1
  I  I9  1  0.75000000  0.15975385  0.49080204  1
  I  I10  1  0.25000000  0.34024615  0.99080204  1
  I  I11  1  0.75000000  0.52459839  0.61470582  1
loop_
_geom_bond_atom_site_label_1
_geom_bond_atom_site_label_2
_geom_bond_distance
_geom_bond_site_symmetry_2
I0 Pb0 3.280695 1_455
I0 Pb0 3.280695 1_555
I0 Pb3 3.386421 1_555
I0 Rb3 3.856009 1_555
I0 Rb1 4.234806 1_555
I1 Pb2 3.280695 1_565
I1 Pb2 3.280695 1_465
I1 Pb1 3.386421 1_554
I1 Rb1 3.856009 1_565
I1 Rb3 4.234806 1_555
I2 Pb1 3.280695 1_545
I2 Pb1 3.280695 1_645
I2 Pb2 3.386421 1_556
I2 Rb0 3.856009 1_545
I2 Rb2 4.234806 1_555
I3 Pb2 3.096871 1_555
I3 Rb1 3.852780 1_655
I3 Rb1 3.852780 1_555
I3 Rb3 3.859934 1_555
I3 Rb3 3.859934 1_655
I4 Pb0 3.096871 1_555
I4 Rb3 3.852780 1_555
I4 Rb3 3.852780 1_655
I4 Rb1 3.859934 1_565
I4 Rb1 3.859934 1_665
I5 Pb3 3.096871 1_555
I5 Rb2 3.852780 1_555
I5 Rb2 3.852780 1_455
I5 Rb0 3.859934 1_545
I5 Rb0 3.859934 1_445
I6 Pb0 3.253903 1_555
I6 Pb0 3.253903 1_455
I6 Rb0 3.862507 1_455
I6 Rb0 3.862507 1_555
I6 Rb1 4.114398 1_565
I7 Pb1 3.096871 1_555
I7 Rb0 3.852780 1_455
I7 Rb0 3.852780 1_555
I7 Rb2 3.859934 1_455
I7 Rb2 3.859934 1_555
I8 Pb1 3.253903 1_554
I8 Pb1 3.253903 1_654
I8 Rb3 3.862507 1_555
I8 Rb3 3.862507 1_655
I8 Rb2 4.114398 1_554
I9 Pb3 3.253903 1_655
I9 Pb3 3.253903 1_555
I9 Rb1 3.862507 1_655
I9 Rb1 3.862507 1_555
I9 Rb0 4.114398 1_545
I10 Pb2 3.253903 1_556
I10 Pb2 3.253903 1_456
I10 Rb2 3.862507 1_555
I10 Rb2 3.862507 1_455
I10 Rb3 4.114398 1_556
I11 Pb3 3.280695 1_655
I11 Pb3 3.280695 1_555
I11 Pb0 3.386421 1_555
I11 Rb2 3.856009 1_555
I11 Rb0 4.234806 1_555
