# generated using pymatgen
data_Na2Ta2Ga2Si3(SO8)3
_symmetry_space_group_name_H-M   'P 1'
_cell_length_a   8.71025579
_cell_length_b   8.73497296
_cell_length_c   22.65410091
_cell_angle_alpha   89.29174192
_cell_angle_beta   90.66900432
_cell_angle_gamma   119.57561742
_symmetry_Int_Tables_number   1
_chemical_formula_structural   Na2Ta2Ga2Si3(SO8)3
_chemical_formula_sum   'Na6 Ta6 Ga6 Si9 S9 O72'
_cell_volume   1498.88802809
_cell_formula_units_Z   3
loop_
 _symmetry_equiv_pos_site_id
 _symmetry_equiv_pos_as_xyz
  1  'x, y, z'
loop_
 _atom_site_type_symbol
 _atom_site_label
 _atom_site_symmetry_multiplicity
 _atom_site_fract_x
 _atom_site_fract_y
 _atom_site_fract_z
 _atom_site_occupancy
  Na  Na0  1  0.98788706  0.98596544  0.49180878  1
  Na  Na1  1  0.00562373  0.99200198  0.99694330  1
  Na  Na2  1  0.65438644  0.32022712  0.82555152  1
  Na  Na3  1  0.66996277  0.32244975  0.32874386  1
  Na  Na4  1  0.31944713  0.66209950  0.16781777  1
  Na  Na5  1  0.34294129  0.66288282  0.65983573  1
  Ta  Ta0  1  0.98973259  0.00125854  0.64468958  1
  Ta  Ta1  1  0.00579256  0.99588628  0.14971576  1
  Ta  Ta2  1  0.66567265  0.33465215  0.97911128  1
  Ta  Ta3  1  0.67684001  0.34431250  0.47468514  1
  Ta  Ta4  1  0.32080036  0.67470321  0.31202032  1
  Ta  Ta5  1  0.34618815  0.68075956  0.80787885  1
  Ga  Ga0  1  0.00329055  0.00395751  0.35422541  1
  Ga  Ga1  1  0.01858134  0.01504788  0.84761352  1
  Ga  Ga2  1  0.64270628  0.32653851  0.68728839  1
  Ga  Ga3  1  0.68692177  0.33522656  0.19214460  1
  Ga  Ga4  1  0.30892619  0.67461040  0.02000203  1
  Ga  Ga5  1  0.35567287  0.68325976  0.51438484  1
  Si  Si0  1  0.30082413  0.01729931  0.25312675  1
  Si  Si1  1  0.00188233  0.28601644  0.25275368  1
  Si  Si2  1  0.29165081  0.28656672  0.75045108  1
  Si  Si3  1  0.72561947  0.01861072  0.75223023  1
  Si  Si4  1  0.65452335  0.61507270  0.58432807  1
  Si  Si5  1  0.95575106  0.62009115  0.08602990  1
  Si  Si6  1  0.32064896  0.95437379  0.91626545  1
  Si  Si7  1  0.63104685  0.95375925  0.41677602  1
  Si  Si8  1  0.05657980  0.68219088  0.42031136  1
  S  S0  1  0.70965013  0.70710067  0.25078768  1
  S  S1  1  0.99467535  0.70968046  0.75088081  1
  S  S2  1  0.95649861  0.34019088  0.58455100  1
  S  S3  1  0.37816523  0.04202269  0.58405632  1
  S  S4  1  0.66226931  0.03871338  0.08347494  1
  S  S5  1  0.37822193  0.33970731  0.08306956  1
  S  S6  1  0.62048301  0.67114776  0.91894149  1
  S  S7  1  0.04737828  0.37746670  0.91805001  1
  S  S8  1  0.32926192  0.37839519  0.41781765  1
  O  O0  1  0.20276785  0.03385525  0.30892601  1
  O  O1  1  0.81836149  0.78472161  0.30327376  1
  O  O2  1  0.96829852  0.16273211  0.30853199  1
  O  O3  1  0.21291127  0.17348920  0.80932269  1
  O  O4  1  0.96876949  0.78672372  0.80422360  1
  O  O5  1  0.83111469  0.02707137  0.81179061  1
  O  O6  1  0.80317253  0.96776836  0.69334544  1
  O  O7  1  0.16512876  0.19363264  0.69192098  1
  O  O8  1  0.03252798  0.82316935  0.69724121  1
  O  O9  1  0.79374111  0.82284235  0.19547421  1
  O  O10  1  0.02592129  0.19137336  0.19092193  1
  O  O11  1  0.16913744  0.96667688  0.19220536  1
  O  O12  1  0.87318812  0.35730511  0.63737979  1
  O  O13  1  0.48502261  0.11847775  0.63784810  1
  O  O14  1  0.64019558  0.50207613  0.64254774  1
  O  O15  1  0.85324323  0.49590930  0.14054989  1
  O  O16  1  0.63084338  0.11635312  0.13539375  1
  O  O17  1  0.48312259  0.36190979  0.13585565  1
  O  O18  1  0.46094573  0.30516614  0.02877418  1
  O  O19  1  0.83152869  0.52418201  0.02544244  1
  O  O20  1  0.68875057  0.15422641  0.02901168  1
  O  O21  1  0.45787988  0.15289363  0.53101977  1
  O  O22  1  0.69064438  0.52303866  0.52644374  1
  O  O23  1  0.84338185  0.30280277  0.53028639  1
  O  O24  1  0.53517702  0.68803936  0.97152810  1
  O  O25  1  0.15455827  0.45578608  0.97159104  1
  O  O26  1  0.30247752  0.84084596  0.97452607  1
  O  O27  1  0.54976310  0.84099898  0.47566638  1
  O  O28  1  0.30520814  0.45630806  0.47123384  1
  O  O29  1  0.16585212  0.69161117  0.47880218  1
  O  O30  1  0.13168051  0.63218310  0.36005649  1
  O  O31  1  0.49956255  0.85894394  0.35884012  1
  O  O32  1  0.36559670  0.48828844  0.36389984  1
  O  O33  1  0.12306902  0.48719096  0.86474716  1
  O  O34  1  0.35880980  0.85993636  0.85942063  1
  O  O35  1  0.50846941  0.63510478  0.86411797  1
  O  O36  1  0.02664140  0.84561121  0.40962244  1
  O  O37  1  0.82634396  0.98564855  0.40880229  1
  O  O38  1  0.17889585  0.20182201  0.41240444  1
  O  O39  1  0.01838643  0.19849629  0.91324062  1
  O  O40  1  0.14575188  0.97343189  0.90891383  1
  O  O41  1  0.79611392  0.82115646  0.91140704  1
  O  O42  1  0.97166392  0.17192020  0.58855286  1
  O  O43  1  0.19920472  0.02883045  0.59044827  1
  O  O44  1  0.83986473  0.81307867  0.59181399  1
  O  O45  1  0.97139497  0.81720843  0.08888269  1
  O  O46  1  0.82796122  0.02971029  0.08669640  1
  O  O47  1  0.19956308  0.17639836  0.08642752  1
  O  O48  1  0.69858455  0.18403857  0.73971666  1
  O  O49  1  0.48824358  0.31844833  0.74485820  1
  O  O50  1  0.84714792  0.53317718  0.74351248  1
  O  O51  1  0.68923500  0.53354270  0.24163040  1
  O  O52  1  0.83426947  0.31540908  0.24573076  1
  O  O53  1  0.48745582  0.18554626  0.23753020  1
  O  O54  1  0.63545583  0.50383494  0.92370487  1
  O  O55  1  0.86516187  0.36271011  0.92467106  1
  O  O56  1  0.50342823  0.15124745  0.92568160  1
  O  O57  1  0.63642788  0.14678663  0.42667735  1
  O  O58  1  0.49407712  0.35990109  0.42385659  1
  O  O59  1  0.85737434  0.49804248  0.42500559  1
  O  O60  1  0.36134273  0.49629852  0.07200117  1
  O  O61  1  0.14978079  0.63745108  0.07915107  1
  O  O62  1  0.51169155  0.86120812  0.07461913  1
  O  O63  1  0.35257325  0.86382405  0.57919975  1
  O  O64  1  0.48233389  0.63939165  0.57656017  1
  O  O65  1  0.13250142  0.48924924  0.57731248  1
  O  O66  1  0.31426268  0.83342929  0.25493602  1
  O  O67  1  0.53475897  0.69517166  0.25378107  1
  O  O68  1  0.18557900  0.47907515  0.25660048  1
  O  O69  1  0.30216290  0.48163133  0.76041154  1
  O  O70  1  0.16132140  0.69480056  0.75713063  1
  O  O71  1  0.52571626  0.83459208  0.75798489  1
loop_
_geom_bond_atom_site_label_1
_geom_bond_atom_site_label_2
_geom_bond_distance
_geom_bond_site_symmetry_2
Na0 O37 2.334615 1_555
Na0 O36 2.358632 1_655
Na0 O38 2.539356 1_665
Na0 O44 2.671539 1_555
Na0 O43 2.786723 1_665
Na0 O42 2.789892 1_565
Na1 O40 2.398600 1_555
Na1 O45 2.498932 1_456
Na1 O39 2.565894 1_565
Na1 O41 2.571519 1_455
Na1 O47 2.621502 1_566
Na1 O46 2.688979 1_466
Na2 O49 2.313637 1_555
Na2 O48 2.423064 1_555
Na2 O50 2.576352 1_555
Na2 O56 2.669092 1_555
Na2 O55 2.793238 1_555
Na2 O54 2.810954 1_555
Na3 O52 2.396077 1_555
Na3 O53 2.516904 1_555
Na3 O57 2.617335 1_555
Na3 O51 2.633430 1_555
Na3 O59 2.702000 1_555
Na3 O58 2.772367 1_555
Na4 O61 2.427420 1_555
Na4 O68 2.468986 1_555
Na4 O66 2.505711 1_555
Na4 O67 2.605171 1_555
Na4 O62 2.720924 1_555
Na4 O60 2.749590 1_555
Na5 O64 2.320399 1_555
Na5 O63 2.490729 1_555
Na5 O65 2.530003 1_555
Na5 O69 2.683044 1_555
Na5 O71 2.714898 1_555
Na5 O70 2.823206 1_555
Ga0 O2 1.860727 1_455
Ga0 O37 1.930280 1_445
Ga0 O0 1.930625 1_555
Ga0 O36 1.938622 1_545
Ga0 O38 2.112690 1_555
Ga0 O1 2.135521 1_445
Ga1 O3 1.795852 1_555
Ga1 O5 1.863374 1_455
Ga1 O40 1.907012 1_545
Ga1 O4 2.077600 1_445
Ga1 O39 2.199938 1_555
Ga1 O41 2.340314 1_445
Ga2 O14 1.836573 1_555
Ga2 O49 1.860344 1_555
Ga2 O48 1.935177 1_555
Ga2 O13 1.998543 1_555
Ga2 O50 2.209596 1_555
Ga2 O12 2.212181 1_555
Ga3 O52 1.824438 1_555
Ga3 O15 1.851127 1_555
Ga3 O53 1.884474 1_555
Ga3 O51 2.066644 1_555
Ga3 O16 2.161225 1_555
Ga3 O17 2.275906 1_555
Ga4 O26 1.793089 1_554
Ga4 O61 1.846857 1_555
Ga4 O25 2.035823 1_554
Ga4 O62 2.112813 1_555
Ga4 O60 2.160123 1_555
Ga4 O24 2.218667 1_554
Ga5 O27 1.797557 1_555
Ga5 O29 1.864211 1_555
Ga5 O64 1.927595 1_555
Ga5 O28 2.063123 1_555
Ga5 O63 2.178200 1_555
Ga5 O65 2.331510 1_555
O0 Si0 1.581125 1_555
O1 S0 1.459448 1_555
O2 Si1 1.583029 1_655
O3 Si2 1.595235 1_555
O4 S1 1.463041 1_555
O5 Si3 1.605264 1_555
O6 Si3 1.662792 1_565
O6 Ta0 1.872357 1_565
O7 Si2 1.655592 1_555
O7 Ta0 1.942845 1_455
O8 S1 1.491632 1_455
O8 Ta0 2.119535 1_465
O9 S0 1.545294 1_555
O9 Ta1 2.005201 1_655
O10 Si1 1.701680 1_555
O10 Ta1 1.886267 1_545
O11 Si0 1.700990 1_565
O11 Ta1 1.826529 1_555
O12 S2 1.453622 1_555
O13 S3 1.475581 1_555
O14 Si4 1.606047 1_555
O15 Si5 1.592446 1_555
O16 S4 1.459017 1_555
O17 S5 1.451814 1_555
O18 S5 1.538710 1_555
O18 Ta2 2.024428 1_554
O19 Si5 1.689802 1_555
O19 Ta2 1.891054 1_554
O20 S4 1.529614 1_555
O20 Ta2 2.016313 1_554
O21 S3 1.480042 1_555
O21 Ta3 2.217658 1_555
O22 Si4 1.658371 1_555
O22 Ta3 1.919173 1_555
O23 S2 1.500882 1_555
O23 Ta3 2.070654 1_555
O24 S6 1.458189 1_555
O25 S7 1.474571 1_555
O26 Si6 1.602501 1_555
O27 Si7 1.597635 1_555
O28 S8 1.462339 1_555
O29 Si8 1.601369 1_555
O30 Si8 1.673217 1_555
O30 Ta4 1.861079 1_555
O31 Si7 1.666020 1_555
O31 Ta4 1.915574 1_555
O32 S8 1.481118 1_555
O32 Ta4 2.180402 1_555
O33 S7 1.475671 1_555
O33 Ta5 2.248636 1_555
O34 Si6 1.660190 1_555
O34 Ta5 1.922845 1_555
O35 S6 1.507216 1_555
O35 Ta5 2.069319 1_555
O36 Si8 1.588002 1_555
O37 Si7 1.594397 1_555
O38 S8 1.454691 1_555
O39 S7 1.460624 1_555
O40 Si6 1.618618 1_555
O41 S6 1.451949 1_555
O42 S2 1.540839 1_555
O42 Ta0 2.011063 1_555
O43 S3 1.513810 1_555
O43 Ta0 2.123250 1_455
O44 Si4 1.694392 1_555
O44 Ta0 1.932564 1_565
O45 Si5 1.660822 1_555
O45 Ta1 2.001708 1_655
O46 S4 1.484530 1_555
O46 Ta1 2.216850 1_645
O47 S5 1.507013 1_555
O47 Ta1 2.182663 1_545
O48 Si3 1.596269 1_555
O49 Si2 1.599776 1_555
O50 S1 1.449745 1_555
O51 S0 1.453886 1_555
O52 Si1 1.608187 1_655
O53 Si0 1.602968 1_555
O54 S6 1.532475 1_555
O54 Ta2 2.039375 1_555
O55 S7 1.536650 1_655
O55 Ta2 2.054879 1_555
O56 Si6 1.684032 1_545
O56 Ta2 1.949825 1_555
O57 Si7 1.681219 1_545
O57 Ta3 1.929143 1_555
O58 S8 1.526273 1_555
O58 Ta3 2.011446 1_555
O59 Si8 1.689470 1_655
O59 Ta3 1.860668 1_555
O60 S5 1.464443 1_555
O61 Si5 1.629763 1_455
O62 S4 1.469225 1_565
O63 S3 1.464862 1_565
O64 Si4 1.622637 1_555
O65 S2 1.450016 1_455
O66 Si0 1.666967 1_565
O66 Ta4 1.905197 1_555
O67 S0 1.477020 1_555
O67 Ta4 2.229007 1_555
O68 Si1 1.657820 1_555
O68 Ta4 1.978696 1_555
O69 Si2 1.678552 1_555
O69 Ta5 1.925360 1_555
O70 S1 1.524750 1_455
O70 Ta5 2.019368 1_555
O71 Si3 1.694054 1_565
O71 Ta5 1.859559 1_555
