# generated using pymatgen
data_MgMn12(O7F5)2
_symmetry_space_group_name_H-M   'P 1'
_cell_length_a   4.81750352
_cell_length_b   5.73364844
_cell_length_c   15.31489943
_cell_angle_alpha   91.18520959
_cell_angle_beta   90.00540690
_cell_angle_gamma   89.88930892
_symmetry_Int_Tables_number   1
_chemical_formula_structural   MgMn12(O7F5)2
_chemical_formula_sum   'Mg1 Mn12 O14 F10'
_cell_volume   422.93489128
_cell_formula_units_Z   1
loop_
 _symmetry_equiv_pos_site_id
 _symmetry_equiv_pos_as_xyz
  1  'x, y, z'
loop_
 _atom_site_type_symbol
 _atom_site_label
 _atom_site_symmetry_multiplicity
 _atom_site_fract_x
 _atom_site_fract_y
 _atom_site_fract_z
 _atom_site_occupancy
  Mg  Mg0  1  0.97266900  0.40689300  0.25529600  1
  Mn  Mn0  1  0.98351600  0.13944000  0.42297400  1
  Mn  Mn1  1  0.00188100  0.87454500  0.23751800  1
  Mn  Mn2  1  0.03414000  0.16865700  0.07079700  1
  Mn  Mn3  1  0.03922400  0.17075300  0.74301600  1
  Mn  Mn4  1  0.01552400  0.81757300  0.58447500  1
  Mn  Mn5  1  0.04727400  0.85271700  0.90640900  1
  Mn  Mn6  1  0.49978500  0.35256500  0.59399200  1
  Mn  Mn7  1  0.51251400  0.33346100  0.91880200  1
  Mn  Mn8  1  0.47323700  0.33239400  0.25413400  1
  Mn  Mn9  1  0.50882300  0.64527000  0.09024300  1
  Mn  Mn10  1  0.50191200  0.65192700  0.42729500  1
  Mn  Mn11  1  0.48887300  0.63577000  0.75185000  1
  O  O0  1  0.18824200  0.13313800  0.30262900  1
  O  O1  1  0.22680400  0.11507700  0.63673200  1
  O  O2  1  0.24477100  0.10872300  0.96342300  1
  O  O3  1  0.22776400  0.89907300  0.13406400  1
  O  O4  1  0.20504700  0.86334200  0.47531900  1
  O  O5  1  0.25183600  0.88303300  0.79982200  1
  O  O6  1  0.24562200  0.39141700  0.15468800  1
  O  O7  1  0.28259500  0.59657300  0.64651000  1
  O  O8  1  0.29358100  0.39684700  0.81289200  1
  O  O9  1  0.72983600  0.38161200  0.02716800  1
  O  O10  1  0.72343000  0.63040100  0.19876600  1
  O  O11  1  0.70793100  0.37887500  0.35718000  1
  O  O12  1  0.72275300  0.59512400  0.53210700  1
  O  O13  1  0.72166000  0.38469400  0.69475700  1
  F  F0  1  0.23249600  0.62553700  0.31602700  1
  F  F1  1  0.26701900  0.36698000  0.48478300  1
  F  F2  1  0.28542000  0.61498900  0.98084400  1
  F  F3  1  0.74702900  0.62769600  0.85958000  1
  F  F4  1  0.76515000  0.14656500  0.18372700  1
  F  F5  1  0.73289600  0.10651900  0.53290600  1
  F  F6  1  0.75061600  0.88277200  0.34816800  1
  F  F7  1  0.79343600  0.88132000  0.01263200  1
  F  F8  1  0.80051500  0.13406400  0.84903000  1
  F  F9  1  0.77417600  0.86652000  0.69361000  1
loop_
_geom_bond_atom_site_label_1
_geom_bond_atom_site_label_2
_geom_bond_distance
_geom_bond_site_symmetry_2
Mg0 O10 1.968062 1_555
Mg0 O11 2.024500 1_555
Mg0 O6 2.026158 1_655
Mg0 O0 2.026902 1_655
Mn0 O4 2.081702 1_645
Mn0 O0 2.090070 1_655
Mn0 O11 2.170836 1_555
Mn1 O3 1.929860 1_555
Mn1 O0 1.985582 1_565
Mn1 O10 2.020880 1_455
Mn2 O2 1.956387 1_554
Mn2 O9 2.028074 1_455
Mn2 O3 2.062598 1_545
Mn2 O6 2.063215 1_555
Mn3 O1 1.883000 1_555
Mn3 O8 2.067785 1_555
Mn3 O13 2.102730 1_455
Mn3 O5 2.140118 1_545
Mn4 O4 1.927816 1_555
Mn4 O7 2.051073 1_555
Mn4 O12 2.055164 1_455
Mn4 O1 2.129854 1_565
Mn5 O5 1.917997 1_555
Mn5 O2 1.942796 1_565
Mn6 O13 1.883247 1_555
Mn6 O7 1.909710 1_555
Mn6 O12 2.011647 1_555
Mn6 O1 2.013953 1_555
Mn7 O2 1.958095 1_555
Mn7 O8 1.974327 1_555
Mn7 O9 1.976987 1_556
Mn8 O6 1.912076 1_555
Mn8 O0 1.945047 1_555
Mn8 O11 1.955332 1_555
Mn8 O10 2.271436 1_555
Mn9 O10 1.960525 1_555
Mn9 O9 2.070182 1_555
Mn9 O3 2.086512 1_555
Mn9 O6 2.183379 1_555
Mn10 O12 1.958200 1_555
Mn10 O4 2.003062 1_555
Mn10 O11 2.124573 1_555
Mn11 O7 1.904270 1_555
Mn11 O8 1.921937 1_555
Mn11 O5 1.950513 1_555
Mn11 O13 2.009093 1_555
F0 Mg0 1.990240 1_455
F0 Mn10 2.144985 1_555
F0 Mn1 2.187005 1_555
F0 Mn8 2.235026 1_555
F1 Mn6 2.016583 1_555
F1 Mn0 2.102146 1_455
F1 Mn10 2.189007 1_555
F2 Mn9 1.995965 1_556
F2 Mn5 2.128765 1_555
F2 Mn7 2.152956 1_555
F3 Mn5 2.059088 1_655
F3 Mn11 2.067241 1_555
F3 Mn7 2.239635 1_555
F4 Mn8 2.054884 1_555
F4 Mg0 2.089651 1_555
F4 Mn1 2.111385 1_645
F4 Mn2 2.167171 1_655
F5 Mn6 2.016442 1_555
F5 Mn0 2.083810 1_555
F5 Mn4 2.295105 1_645
F6 Mn1 2.082299 1_655
F6 Mn0 2.161830 1_565
F6 Mn10 2.174549 1_555
F7 Mn5 2.038951 1_654
F7 Mn2 2.190630 1_665
F7 Mn9 2.280034 1_555
F8 Mn3 2.004540 1_655
F8 Mn7 2.077858 1_555
F8 Mn5 2.199690 1_645
F9 Mn4 2.050335 1_655
F9 Mn11 2.119239 1_555
F9 Mn3 2.280251 1_665
