# generated using pymatgen
data_K(MoO2)4
_symmetry_space_group_name_H-M   'P 1'
_cell_length_a   5.81368600
_cell_length_b   10.37277841
_cell_length_c   10.41673810
_cell_angle_alpha   90.24145097
_cell_angle_beta   90.00000000
_cell_angle_gamma   90.00000000
_symmetry_Int_Tables_number   1
_chemical_formula_structural   K(MoO2)4
_chemical_formula_sum   'K4 Mo16 O32'
_cell_volume   628.16619484
_cell_formula_units_Z   4
loop_
 _symmetry_equiv_pos_site_id
 _symmetry_equiv_pos_as_xyz
  1  'x, y, z'
loop_
 _atom_site_type_symbol
 _atom_site_label
 _atom_site_symmetry_multiplicity
 _atom_site_fract_x
 _atom_site_fract_y
 _atom_site_fract_z
 _atom_site_occupancy
  K  K0  1  0.86994100  0.25000000  0.25000000  1
  K  K1  1  0.13005900  0.75000000  0.75000000  1
  K  K2  1  0.35859800  0.25000000  0.25000000  1
  K  K3  1  0.64140200  0.75000000  0.75000000  1
  Mo  Mo0  1  0.38375400  0.93189200  0.42084300  1
  Mo  Mo1  1  0.38375400  0.56810800  0.07915700  1
  Mo  Mo2  1  0.61624600  0.06810800  0.57915700  1
  Mo  Mo3  1  0.61624600  0.43189200  0.92084300  1
  Mo  Mo4  1  0.16807900  0.07531100  0.59819700  1
  Mo  Mo5  1  0.16807900  0.42468900  0.90180300  1
  Mo  Mo6  1  0.83192100  0.92468900  0.40180300  1
  Mo  Mo7  1  0.83192100  0.57531100  0.09819700  1
  Mo  Mo8  1  0.59553600  0.58307600  0.42652500  1
  Mo  Mo9  1  0.59553600  0.91692400  0.07347500  1
  Mo  Mo10  1  0.40446400  0.41692400  0.57347500  1
  Mo  Mo11  1  0.40446400  0.08307600  0.92652500  1
  Mo  Mo12  1  0.15477000  0.60381800  0.41947200  1
  Mo  Mo13  1  0.15477000  0.89618200  0.08052800  1
  Mo  Mo14  1  0.84523000  0.39618200  0.58052800  1
  Mo  Mo15  1  0.84523000  0.10381800  0.91947200  1
  O  O0  1  0.11789500  0.78732000  0.41675000  1
  O  O1  1  0.11789500  0.71268000  0.08325000  1
  O  O2  1  0.88210500  0.21268000  0.58325000  1
  O  O3  1  0.88210500  0.28732000  0.91675000  1
  O  O4  1  0.38370000  0.21907100  0.58301100  1
  O  O5  1  0.38370000  0.28092900  0.91698900  1
  O  O6  1  0.61630000  0.78092900  0.41698900  1
  O  O7  1  0.61630000  0.71907100  0.08301100  1
  O  O8  1  0.10921800  0.05898900  0.40393700  1
  O  O9  1  0.10921800  0.44101100  0.09606300  1
  O  O10  1  0.89078200  0.94101100  0.59606300  1
  O  O11  1  0.89078200  0.55898900  0.90393700  1
  O  O12  1  0.39396600  0.91875500  0.61899600  1
  O  O13  1  0.39396600  0.58124500  0.88100400  1
  O  O14  1  0.60603400  0.08124500  0.38100400  1
  O  O15  1  0.60603400  0.41875500  0.11899600  1
  O  O16  1  0.12404200  0.08283600  0.79131900  1
  O  O17  1  0.12404200  0.41716400  0.70868100  1
  O  O18  1  0.87595800  0.91716400  0.20868100  1
  O  O19  1  0.87595800  0.58283600  0.29131900  1
  O  O20  1  0.62451500  0.11581000  0.07958300  1
  O  O21  1  0.62451500  0.38419000  0.42041700  1
  O  O22  1  0.37548500  0.88419000  0.92041700  1
  O  O23  1  0.37548500  0.61581000  0.57958300  1
  O  O24  1  0.12392200  0.09255200  0.05195500  1
  O  O25  1  0.12392200  0.40744800  0.44804500  1
  O  O26  1  0.87607800  0.90744800  0.94804500  1
  O  O27  1  0.87607800  0.59255200  0.55195500  1
  O  O28  1  0.62748300  0.08171600  0.77801500  1
  O  O29  1  0.62748300  0.41828400  0.72198500  1
  O  O30  1  0.37251700  0.91828400  0.22198500  1
  O  O31  1  0.37251700  0.58171600  0.27801500  1
loop_
_geom_bond_atom_site_label_1
_geom_bond_atom_site_label_2
_geom_bond_distance
_geom_bond_site_symmetry_2
K0 O21 2.665289 1_555
K0 O20 2.665289 1_555
K0 O15 2.701936 1_555
K0 O14 2.701936 1_555
K0 O9 2.908397 1_655
K0 O8 2.908397 1_655
K0 O24 3.012475 1_655
K0 O25 3.012475 1_655
K1 O23 2.665289 1_555
K1 O22 2.665289 1_555
K1 O12 2.701936 1_555
K1 O13 2.701936 1_555
K1 O10 2.908397 1_455
K1 O11 2.908397 1_455
K1 O27 3.012475 1_455
K1 O26 3.012475 1_455
K2 O14 2.648734 1_555
K2 O15 2.648734 1_555
K2 O20 2.730917 1_555
K2 O21 2.730917 1_555
K2 O9 2.936943 1_555
K2 O8 2.936943 1_555
K2 O25 2.959081 1_555
K2 O24 2.959081 1_555
K3 O13 2.648734 1_555
K3 O12 2.648734 1_555
K3 O22 2.730917 1_555
K3 O23 2.730917 1_555
K3 O10 2.936943 1_555
K3 O11 2.936943 1_555
K3 O26 2.959081 1_555
K3 O27 2.959081 1_555
Mo0 O14 2.060977 1_565
Mo0 O6 2.069036 1_555
Mo0 O12 2.070025 1_555
Mo0 O30 2.076690 1_555
Mo0 O8 2.078086 1_565
Mo0 O0 2.153848 1_555
Mo1 O15 2.060977 1_555
Mo1 O7 2.069036 1_555
Mo1 O13 2.070025 1_554
Mo1 O31 2.076690 1_555
Mo1 O9 2.078086 1_555
Mo1 O1 2.153848 1_555
Mo2 O12 2.060977 1_545
Mo2 O4 2.069036 1_555
Mo2 O14 2.070025 1_555
Mo2 O28 2.076690 1_555
Mo2 O10 2.078086 1_545
Mo2 O2 2.153848 1_555
Mo3 O13 2.060977 1_555
Mo3 O5 2.069036 1_555
Mo3 O15 2.070025 1_556
Mo3 O29 2.076690 1_555
Mo3 O11 2.078086 1_555
Mo3 O3 2.153848 1_555
Mo4 O4 1.955008 1_555
Mo4 O16 2.029102 1_555
Mo4 O8 2.058556 1_555
Mo4 O12 2.100384 1_545
Mo4 O10 2.130677 1_445
Mo4 O2 2.195578 1_455
Mo5 O5 1.955008 1_555
Mo5 O17 2.029102 1_555
Mo5 O9 2.058556 1_556
Mo5 O13 2.100384 1_555
Mo5 O11 2.130677 1_455
Mo5 O3 2.195578 1_455
Mo6 O6 1.955008 1_555
Mo6 O18 2.029102 1_555
Mo6 O10 2.058556 1_555
Mo6 O14 2.100384 1_565
Mo6 O8 2.130677 1_665
Mo6 O0 2.195578 1_655
Mo7 O7 1.955008 1_555
Mo7 O19 2.029102 1_555
Mo7 O11 2.058556 1_554
Mo7 O15 2.100384 1_555
Mo7 O9 2.130677 1_655
Mo7 O1 2.195578 1_655
Mo8 O31 2.018481 1_555
Mo8 O6 2.058648 1_555
Mo8 O21 2.070579 1_555
Mo8 O23 2.071076 1_555
Mo8 O27 2.091845 1_555
Mo8 O19 2.154394 1_555
Mo9 O30 2.018481 1_555
Mo9 O7 2.058648 1_555
Mo9 O20 2.070579 1_565
Mo9 O22 2.071076 1_554
Mo9 O26 2.091845 1_554
Mo9 O18 2.154394 1_555
Mo10 O29 2.018481 1_555
Mo10 O4 2.058648 1_555
Mo10 O23 2.070579 1_555
Mo10 O21 2.071076 1_555
Mo10 O25 2.091845 1_555
Mo10 O17 2.154394 1_555
Mo11 O28 2.018481 1_555
Mo11 O5 2.058648 1_555
Mo11 O22 2.070579 1_545
Mo11 O20 2.071076 1_556
Mo11 O24 2.091845 1_556
Mo11 O16 2.154394 1_555
Mo12 O0 1.915789 1_555
Mo12 O31 1.955380 1_555
Mo12 O25 2.067567 1_555
Mo12 O23 2.107585 1_555
Mo12 O19 2.110539 1_455
Mo12 O27 2.131822 1_455
Mo13 O1 1.915789 1_555
Mo13 O30 1.955380 1_555
Mo13 O24 2.067567 1_565
Mo13 O22 2.107585 1_554
Mo13 O18 2.110539 1_455
Mo13 O26 2.131822 1_454
Mo14 O2 1.915789 1_555
Mo14 O29 1.955380 1_555
Mo14 O27 2.067567 1_555
Mo14 O21 2.107585 1_555
Mo14 O17 2.110539 1_655
Mo14 O25 2.131822 1_655
Mo15 O3 1.915789 1_555
Mo15 O28 1.955380 1_555
Mo15 O26 2.067567 1_545
Mo15 O20 2.107585 1_556
Mo15 O16 2.110539 1_655
Mo15 O24 2.131822 1_656
