# generated using pymatgen
data_LaNi2
_symmetry_space_group_name_H-M   'P 1'
_cell_length_a   5.16632907
_cell_length_b   5.16632821
_cell_length_c   5.16632872
_cell_angle_alpha   59.99999671
_cell_angle_beta   60.00000224
_cell_angle_gamma   60.00000364
_symmetry_Int_Tables_number   1
_chemical_formula_structural   LaNi2
_chemical_formula_sum   'La2 Ni4'
_cell_volume   97.50594688
_cell_formula_units_Z   2
loop_
 _symmetry_equiv_pos_site_id
 _symmetry_equiv_pos_as_xyz
  1  'x, y, z'
loop_
 _atom_site_type_symbol
 _atom_site_label
 _atom_site_symmetry_multiplicity
 _atom_site_fract_x
 _atom_site_fract_y
 _atom_site_fract_z
 _atom_site_occupancy
  La  La0  1  0.12500000  0.12500000  0.12500000  1
  La  La1  1  0.87500000  0.87500000  0.87500000  1
  Ni  Ni0  1  0.50000000  -0.00000000  0.50000000  1
  Ni  Ni1  1  -0.00000000  0.50000000  0.50000000  1
  Ni  Ni2  1  0.50000000  0.50000000  0.50000000  1
  Ni  Ni3  1  0.50000000  0.50000000  -0.00000000  1
loop_
_geom_bond_atom_site_label_1
_geom_bond_atom_site_label_2
_geom_bond_distance
_geom_bond_site_symmetry_2
La0 Ni1 3.029028 1_545
La0 Ni2 3.029029 1_554
La0 Ni3 3.029029 1_555
La0 Ni2 3.029029 1_545
La0 Ni3 3.029029 1_545
La0 Ni1 3.029029 1_554
La0 Ni1 3.029029 1_555
La0 Ni0 3.029029 1_554
La0 Ni0 3.029029 1_555
La0 Ni0 3.029029 1_455
La0 Ni3 3.029029 1_455
La0 Ni2 3.029029 1_455
La1 Ni1 3.029028 1_665
La1 Ni2 3.029029 1_556
La1 Ni3 3.029029 1_556
La1 Ni2 3.029029 1_565
La1 Ni3 3.029029 1_566
La1 Ni1 3.029029 1_655
La1 Ni1 3.029029 1_656
La1 Ni0 3.029029 1_565
La1 Ni0 3.029029 1_566
La1 Ni0 3.029029 1_665
La1 Ni3 3.029029 1_656
La1 Ni2 3.029029 1_655
Ni0 Ni3 2.583164 1_555
Ni0 Ni2 2.583164 1_555
Ni0 Ni3 2.583164 1_546
Ni0 Ni2 2.583164 1_545
Ni0 Ni1 2.583164 1_555
Ni0 Ni1 2.583164 1_645
Ni1 Ni2 2.583165 1_555
Ni1 Ni3 2.583165 1_555
Ni1 Ni2 2.583165 1_455
Ni1 Ni3 2.583165 1_456
Ni2 Ni3 2.583164 1_555
Ni2 Ni3 2.583164 1_556
