# generated using pymatgen
data_MgTe4Mo2W2(SeS)2
_symmetry_space_group_name_H-M   'P 1'
_cell_length_a   3.42018317
_cell_length_b   3.42029964
_cell_length_c   42.15985359
_cell_angle_alpha   90.00025521
_cell_angle_beta   90.12330268
_cell_angle_gamma   120.00103001
_symmetry_Int_Tables_number   1
_chemical_formula_structural   MgTe4Mo2W2(SeS)2
_chemical_formula_sum   'Mg1 Te4 Mo2 W2 Se2 S2'
_cell_volume   427.10769371
_cell_formula_units_Z   1
loop_
 _symmetry_equiv_pos_site_id
 _symmetry_equiv_pos_as_xyz
  1  'x, y, z'
loop_
 _atom_site_type_symbol
 _atom_site_label
 _atom_site_symmetry_multiplicity
 _atom_site_fract_x
 _atom_site_fract_y
 _atom_site_fract_z
 _atom_site_occupancy
  Mg  Mg0  1  0.67246700  0.33618800  0.36535100  1
  Te  Te0  1  0.33555800  0.66776600  0.70206300  1
  Te  Te1  1  0.66453900  0.33225800  0.04947700  1
  Te  Te2  1  0.66840000  0.33419100  0.13844600  1
  Te  Te3  1  0.33206600  0.66605600  0.61312800  1
  Mo  Mo0  1  0.33297300  0.66645800  0.47329600  1
  Mo  Mo1  1  0.66882900  0.33446400  0.27704600  1
  W  W0  1  0.33308100  0.66652700  0.09395900  1
  W  W1  1  0.66719500  0.33360600  0.65758000  1
  Se  Se0  1  0.66460700  0.33227400  0.43413300  1
  Se  Se1  1  0.66802600  0.33398800  0.51213800  1
  S  S0  1  0.33613300  0.66811400  0.31298400  1
  S  S1  1  0.33469700  0.66739400  0.24199500  1
loop_
_geom_bond_atom_site_label_1
_geom_bond_atom_site_label_2
_geom_bond_distance
_geom_bond_site_symmetry_2
Mg0 Se0 2.899990 1_555
Mg0 S0 2.959733 1_655
Mg0 S0 2.962985 1_545
Mg0 S0 2.963362 1_555
Te0 W1 2.723140 1_555
Te0 W1 2.723245 1_565
Te0 W1 2.723536 1_455
Te1 W0 2.722961 1_555
Te1 W0 2.722982 1_545
Te1 W0 2.723891 1_655
Te2 W0 2.722510 1_655
Te2 W0 2.723875 1_555
Te2 W0 2.723886 1_545
Te3 W1 2.721899 1_455
Te3 W1 2.722626 1_565
Te3 W1 2.722697 1_555
Mo0 Se1 2.564515 1_455
Mo0 Se1 2.565739 1_555
Mo0 Se1 2.565748 1_565
Mo0 Se0 2.573652 1_555
Mo0 Se0 2.573659 1_565
Mo0 Se0 2.574671 1_455
Mo1 S1 2.465867 1_555
Mo1 S1 2.465879 1_545
Mo1 S1 2.467393 1_655
Mo1 S0 2.487438 1_655
Mo1 S0 2.489719 1_555
Mo1 S0 2.489740 1_545
