# generated using pymatgen
data_Li2CoP2O7
_symmetry_space_group_name_H-M   'P 1'
_cell_length_a   8.15887686
_cell_length_b   9.98408400
_cell_length_c   8.84278185
_cell_angle_alpha   89.99819667
_cell_angle_beta   66.46828390
_cell_angle_gamma   107.81042944
_symmetry_Int_Tables_number   1
_chemical_formula_structural   Li2CoP2O7
_chemical_formula_sum   'Li8 Co4 P8 O28'
_cell_volume   622.58231483
_cell_formula_units_Z   4
loop_
 _symmetry_equiv_pos_site_id
 _symmetry_equiv_pos_as_xyz
  1  'x, y, z'
loop_
 _atom_site_type_symbol
 _atom_site_label
 _atom_site_symmetry_multiplicity
 _atom_site_fract_x
 _atom_site_fract_y
 _atom_site_fract_z
 _atom_site_occupancy
  Li  Li0  1  0.12068100  0.33504400  0.05250200  1
  Li  Li1  1  0.12068600  0.83504600  0.05249500  1
  Li  Li2  1  0.87932300  0.02470800  0.44749900  1
  Li  Li3  1  0.87931700  0.52470200  0.44750500  1
  Li  Li4  1  0.87931300  0.16495500  0.94750500  1
  Li  Li5  1  0.87931800  0.66495600  0.94749900  1
  Li  Li6  1  0.12068200  0.47529800  0.55249600  1
  Li  Li7  1  0.12067700  0.97529300  0.55250100  1
  Co  Co0  1  0.50000000  0.50000000  0.50000000  1
  Co  Co1  1  0.50000000  0.00000000  0.00000000  1
  Co  Co2  1  0.50000100  0.00000000  0.50000000  1
  Co  Co3  1  0.50000000  0.50000000  0.00000000  1
  P  P0  1  0.70424800  0.36862500  0.18484900  1
  P  P1  1  0.70423800  0.86862300  0.18486400  1
  P  P2  1  0.70427300  0.23349900  0.68484300  1
  P  P3  1  0.70426500  0.73349500  0.68485800  1
  P  P4  1  0.29576000  0.13137600  0.81513700  1
  P  P5  1  0.29575000  0.63137500  0.81515200  1
  P  P6  1  0.29573500  0.26650500  0.31514200  1
  P  P7  1  0.29572700  0.76650100  0.31515700  1
  O  O0  1  0.49999700  0.23834300  0.24999500  1
  O  O1  1  0.49999300  0.73833700  0.25001400  1
  O  O2  1  0.50000900  0.26166300  0.74998500  1
  O  O3  1  0.50000400  0.76165800  0.75000600  1
  O  O4  1  0.29106100  0.33454900  0.16060600  1
  O  O5  1  0.29107200  0.83453700  0.16060700  1
  O  O6  1  0.70892100  0.43900000  0.33939800  1
  O  O7  1  0.70893400  0.93903600  0.33938400  1
  O  O8  1  0.29106600  0.06096500  0.66061600  1
  O  O9  1  0.29108000  0.56100000  0.66060300  1
  O  O10  1  0.70892800  0.16546200  0.83939200  1
  O  O11  1  0.70893800  0.66545100  0.83939300  1
  O  O12  1  0.70027500  0.12690000  0.55874100  1
  O  O13  1  0.70025600  0.62688300  0.55877900  1
  O  O14  1  0.29974300  0.37311700  0.44122200  1
  O  O15  1  0.29972600  0.87309900  0.44125900  1
  O  O16  1  0.29975200  0.02677600  0.94120000  1
  O  O17  1  0.29973200  0.52677500  0.94123500  1
  O  O18  1  0.70026700  0.47322300  0.05876700  1
  O  O19  1  0.70024700  0.97322500  0.05879900  1
  O  O20  1  0.85510000  0.30075500  0.11118200  1
  O  O21  1  0.85509900  0.80075000  0.11118900  1
  O  O22  1  0.14490200  0.19924900  0.88881000  1
  O  O23  1  0.14490000  0.69924400  0.88881800  1
  O  O24  1  0.85511300  0.37675900  0.61116200  1
  O  O25  1  0.85510900  0.87676100  0.61116900  1
  O  O26  1  0.14489400  0.12324100  0.38883000  1
  O  O27  1  0.14488600  0.62324100  0.38883700  1
loop_
_geom_bond_atom_site_label_1
_geom_bond_atom_site_label_2
_geom_bond_distance
_geom_bond_site_symmetry_2
Li0 O20 1.931331 1_455
Li0 O17 1.976867 1_554
Li0 O22 1.976882 1_554
Li0 O4 1.977768 1_555
Li1 O21 1.931344 1_455
Li1 O23 1.976839 1_554
Li1 O16 1.976940 1_564
Li1 O5 1.977896 1_555
Li2 O26 1.931367 1_655
Li2 O12 1.976625 1_555
Li2 O25 1.977019 1_545
Li2 O7 1.977918 1_545
Li3 O27 1.931364 1_655
Li3 O13 1.976675 1_555
Li3 O24 1.976945 1_555
Li3 O6 1.977973 1_555
Li4 O22 1.931361 1_655
Li4 O20 1.976824 1_556
Li4 O19 1.976938 1_546
Li4 O10 1.977891 1_555
Li5 O23 1.931339 1_655
Li5 O21 1.976862 1_556
Li5 O18 1.976884 1_556
Li5 O11 1.977781 1_555
Li6 O24 1.931368 1_455
Li6 O14 1.976675 1_555
Li6 O27 1.976957 1_555
Li6 O9 1.977986 1_555
Li7 O25 1.931346 1_455
Li7 O15 1.976645 1_555
Li7 O26 1.977022 1_565
Li7 O8 1.977918 1_565
Co0 O13 1.989089 1_555
Co0 O14 1.989090 1_555
Co0 O9 1.998854 1_555
Co0 O6 1.998856 1_555
Co1 O19 1.989113 1_545
Co1 O16 1.989130 1_554
Co1 O10 1.998964 1_554
Co1 O5 1.998967 1_545
Co2 O12 1.989064 1_555
Co2 O15 1.989074 1_545
Co2 O7 1.998764 1_545
Co2 O8 1.998780 1_555
Co3 O17 1.989102 1_554
Co3 O18 1.989112 1_555
Co3 O4 1.998924 1_555
Co3 O11 1.998925 1_554
O0 P0 1.645673 1_555
O0 P6 1.645706 1_555
O1 P1 1.645659 1_555
O1 P7 1.645747 1_555
O2 P4 1.645684 1_555
O2 P2 1.645733 1_555
O3 P5 1.645693 1_555
O3 P3 1.645702 1_555
O4 P6 1.545245 1_555
O5 P7 1.545240 1_555
O6 P0 1.545359 1_555
O7 P1 1.545344 1_555
O8 P4 1.545340 1_555
O9 P5 1.545353 1_555
O10 P2 1.545237 1_555
O11 P3 1.545233 1_555
O12 P2 1.544376 1_555
O13 P3 1.544325 1_555
O14 P6 1.544331 1_555
O15 P7 1.544370 1_555
O16 P4 1.544048 1_555
O17 P5 1.544136 1_555
O18 P0 1.544111 1_555
O19 P1 1.544071 1_555
O20 P0 1.506104 1_555
O21 P1 1.506190 1_555
O22 P4 1.506169 1_555
O23 P5 1.506083 1_555
O24 P2 1.505903 1_555
O25 P3 1.505964 1_555
O26 P6 1.505940 1_555
O27 P7 1.505905 1_555
