# generated using pymatgen
data_MgAl2(CoO3)2
_symmetry_space_group_name_H-M   'P 1'
_cell_length_a   5.70310206
_cell_length_b   5.35365551
_cell_length_c   5.80367474
_cell_angle_alpha   90.44278211
_cell_angle_beta   50.71255518
_cell_angle_gamma   114.46954788
_symmetry_Int_Tables_number   1
_chemical_formula_structural   MgAl2(CoO3)2
_chemical_formula_sum   'Mg1 Al2 Co2 O6'
_cell_volume   116.39623237
_cell_formula_units_Z   1
loop_
 _symmetry_equiv_pos_site_id
 _symmetry_equiv_pos_as_xyz
  1  'x, y, z'
loop_
 _atom_site_type_symbol
 _atom_site_label
 _atom_site_symmetry_multiplicity
 _atom_site_fract_x
 _atom_site_fract_y
 _atom_site_fract_z
 _atom_site_occupancy
  Mg  Mg0  1  0.91955897  0.75522374  0.34180721  1
  Al  Al0  1  0.19228430  0.39663713  0.86949388  1
  Al  Al1  1  0.55722629  0.48925919  0.08820337  1
  Co  Co0  1  0.38828829  0.96361352  0.50576565  1
  Co  Co1  1  0.73162368  0.11361228  0.70570963  1
  O  O0  1  0.88662856  0.79167642  0.71687173  1
  O  O1  1  0.74071304  0.25137735  0.03117170  1
  O  O2  1  0.46508303  0.62789263  0.40135146  1
  O  O3  1  0.54135741  0.31143218  0.62507864  1
  O  O4  1  0.27127182  0.74031923  0.92624950  1
  O  O5  1  0.12541062  0.22145433  0.21954622  1
loop_
_geom_bond_atom_site_label_1
_geom_bond_atom_site_label_2
_geom_bond_distance
_geom_bond_site_symmetry_2
Mg0 O4 1.962022 1_654
Mg0 O0 2.077904 1_555
Mg0 O3 2.079495 1_555
Mg0 O5 2.157966 1_665
Mg0 O2 2.169739 1_555
Al0 O4 1.785713 1_555
Al0 O3 1.830163 1_555
Al0 O1 1.846480 1_456
Al0 O5 1.975927 1_556
Al0 O2 2.106708 1_555
Al1 O0 1.789391 1_554
Al1 O2 1.795199 1_555
Al1 O5 1.848239 1_555
Al1 O1 1.866912 1_555
Co0 O0 1.982520 1_455
Co0 O2 2.022031 1_555
Co0 O3 2.026810 1_565
Co0 O1 2.118780 1_565
Co0 O4 2.269685 1_555
Co1 O4 1.990556 1_545
Co1 O3 2.029973 1_555
Co1 O1 2.045803 1_556
Co1 O5 2.065002 1_655
Co1 O0 2.256697 1_545
