# generated using pymatgen
data_Na6TiZn3P4(SO12)2
_symmetry_space_group_name_H-M   'P 1'
_cell_length_a   8.96532892
_cell_length_b   8.95527283
_cell_length_c   21.89672683
_cell_angle_alpha   90.13446097
_cell_angle_beta   89.69432367
_cell_angle_gamma   119.96668638
_symmetry_Int_Tables_number   1
_chemical_formula_structural   Na6TiZn3P4(SO12)2
_chemical_formula_sum   'Na18 Ti3 Zn9 P12 S6 O72'
_cell_volume   1522.98056708
_cell_formula_units_Z   3
loop_
 _symmetry_equiv_pos_site_id
 _symmetry_equiv_pos_as_xyz
  1  'x, y, z'
loop_
 _atom_site_type_symbol
 _atom_site_label
 _atom_site_symmetry_multiplicity
 _atom_site_fract_x
 _atom_site_fract_y
 _atom_site_fract_z
 _atom_site_occupancy
  Na  Na0  1  0.36499644  0.36623955  0.25242474  1
  Na  Na1  1  0.64135579  0.63638714  0.74498524  1
  Na  Na2  1  0.99506901  0.35183241  0.74869724  1
  Na  Na3  1  0.29555843  0.34075848  0.58391161  1
  Na  Na4  1  0.03332537  0.69746302  0.58105685  1
  Na  Na5  1  0.66963607  0.95820574  0.58152328  1
  Na  Na6  1  0.29168557  0.96023460  0.07996136  1
  Na  Na7  1  0.66081634  0.69714639  0.08244212  1
  Na  Na8  1  0.04469565  0.34114784  0.08256999  1
  Na  Na9  1  0.31990896  0.29364722  0.91199385  1
  Na  Na10  1  0.98064458  0.30374633  0.41302535  1
  Na  Na11  1  0.69371468  0.67741020  0.41326822  1
  Na  Na12  1  0.00750824  0.00076784  0.49536854  1
  Na  Na13  1  0.99219327  0.98789477  0.99179828  1
  Na  Na14  1  0.65675908  0.30874551  0.82947894  1
  Na  Na15  1  0.66387051  0.31587611  0.32846754  1
  Na  Na16  1  0.32568527  0.67249454  0.17082824  1
  Na  Na17  1  0.33744594  0.67083698  0.66521454  1
  Ti  Ti0  1  0.67121436  0.34500797  0.97666205  1
  Ti  Ti1  1  0.67180139  0.33785327  0.47930567  1
  Ti  Ti2  1  0.33925353  0.67348017  0.82069029  1
  Zn  Zn0  1  0.00632845  0.99746677  0.35115410  1
  Zn  Zn1  1  0.99663040  0.00498224  0.85017528  1
  Zn  Zn2  1  0.98928927  0.00929397  0.65638386  1
  Zn  Zn3  1  0.00636287  0.99557570  0.15270916  1
  Zn  Zn4  1  0.65698266  0.32495785  0.68302470  1
  Zn  Zn5  1  0.67235426  0.34070283  0.18078222  1
  Zn  Zn6  1  0.32855293  0.66425283  0.00988908  1
  Zn  Zn7  1  0.33217178  0.66236448  0.50731231  1
  Zn  Zn8  1  0.33472348  0.67793476  0.32604667  1
  P  P0  1  0.29957449  0.30200502  0.75224185  1
  P  P1  1  0.69650195  0.99668717  0.75077583  1
  P  P2  1  0.96097825  0.33635811  0.58428755  1
  P  P3  1  0.66759875  0.62715149  0.58453407  1
  P  P4  1  0.95903131  0.62386930  0.08313186  1
  P  P5  1  0.37427877  0.33403562  0.08399487  1
  P  P6  1  0.63200955  0.67106907  0.91940989  1
  P  P7  1  0.03449207  0.37219412  0.91839043  1
  P  P8  1  0.33681522  0.96456101  0.92094963  1
  P  P9  1  0.63051524  0.96818097  0.41889224  1
  P  P10  1  0.33660710  0.36489757  0.41682670  1
  P  P11  1  0.03655322  0.66740501  0.41955385  1
  S  S0  1  0.30042988  0.99851555  0.24833173  1
  S  S1  1  0.69951387  0.70207208  0.24977917  1
  S  S2  1  0.99897948  0.29791504  0.24948061  1
  S  S3  1  0.00900032  0.70750689  0.75028796  1
  S  S4  1  0.37482051  0.04104998  0.58257250  1
  S  S5  1  0.66672551  0.04505136  0.08294113  1
  O  O0  1  0.20957259  0.02347085  0.30039815  1
  O  O1  1  0.80003880  0.79000505  0.30491215  1
  O  O2  1  0.98329768  0.19624842  0.30509511  1
  O  O3  1  0.21543577  0.19465028  0.80891497  1
  O  O4  1  0.98434604  0.79507384  0.80263021  1
  O  O5  1  0.81869326  0.02706016  0.80288678  1
  O  O6  1  0.75596326  0.94719210  0.69032598  1
  O  O7  1  0.18952117  0.22763821  0.69323005  1
  O  O8  1  0.03194245  0.80249542  0.69186033  1
  O  O9  1  0.78385545  0.79935066  0.19253060  1
  O  O10  1  0.01952048  0.21323746  0.19285986  1
  O  O11  1  0.20685200  0.97879564  0.18944416  1
  O  O12  1  0.87800165  0.35809588  0.64267212  1
  O  O13  1  0.47484043  0.11534332  0.63850162  1
  O  O14  1  0.64082523  0.51975957  0.64245741  1
  O  O15  1  0.88063145  0.50997761  0.13898114  1
  O  O16  1  0.63998297  0.12058487  0.13881354  1
  O  O17  1  0.47820425  0.35702547  0.14216129  1
  O  O18  1  0.47433532  0.31451079  0.02683705  1
  O  O19  1  0.83648054  0.52120851  0.02647702  1
  O  O20  1  0.68803029  0.15459792  0.02851265  1
  O  O21  1  0.46541829  0.15090399  0.52880635  1
  O  O22  1  0.68085820  0.52318279  0.52788891  1
  O  O23  1  0.84274692  0.31900635  0.52803280  1
  O  O24  1  0.55296823  0.69116240  0.97850384  1
  O  O25  1  0.13982479  0.44690795  0.97671435  1
  O  O26  1  0.31503291  0.86808655  0.98021982  1
  O  O27  1  0.55588965  0.85965772  0.47766055  1
  O  O28  1  0.30271647  0.44238073  0.47490248  1
  O  O29  1  0.13540429  0.69415930  0.47886985  1
  O  O30  1  0.11221086  0.61963041  0.36530364  1
  O  O31  1  0.51823762  0.88947371  0.36317901  1
  O  O32  1  0.37999789  0.48275574  0.36023673  1
  O  O33  1  0.13149774  0.49229799  0.86189266  1
  O  O34  1  0.35750405  0.85783963  0.86649572  1
  O  O35  1  0.50540115  0.63970884  0.86383375  1
  O  O36  1  0.99649778  0.81439460  0.41171562  1
  O  O37  1  0.81543065  0.99568035  0.41249536  1
  O  O38  1  0.17527089  0.18628413  0.40983294  1
  O  O39  1  0.01595860  0.19383732  0.91069010  1
  O  O40  1  0.18490729  0.99442925  0.91119706  1
  O  O41  1  0.81229400  0.81930702  0.90940173  1
  O  O42  1  0.97338841  0.16909710  0.58305006  1
  O  O43  1  0.20174938  0.02786243  0.58506784  1
  O  O44  1  0.83785905  0.80256492  0.58358560  1
  O  O45  1  0.96251883  0.79927416  0.08369349  1
  O  O46  1  0.82622559  0.03057708  0.08535642  1
  O  O47  1  0.19412373  0.16734913  0.08383321  1
  O  O48  1  0.68051144  0.15956504  0.74482532  1
  O  O49  1  0.48725700  0.33891776  0.74739594  1
  O  O50  1  0.85460727  0.52998135  0.74783181  1
  O  O51  1  0.67896569  0.52507659  0.24857675  1
  O  O52  1  0.84341495  0.31563026  0.24617098  1
  O  O53  1  0.47293399  0.15942462  0.24590301  1
  O  O54  1  0.63153613  0.49193325  0.92114365  1
  O  O55  1  0.85411591  0.36071186  0.92247529  1
  O  O56  1  0.50659206  0.14720818  0.92152195  1
  O  O57  1  0.65557638  0.15555573  0.42678540  1
  O  O58  1  0.50327737  0.35010059  0.42623000  1
  O  O59  1  0.84784445  0.49656597  0.42566059  1
  O  O60  1  0.35537429  0.49601363  0.07880556  1
  O  O61  1  0.14226339  0.65172468  0.07686330  1
  O  O62  1  0.51424159  0.86866194  0.07810594  1
  O  O63  1  0.35278630  0.86505887  0.57706258  1
  O  O64  1  0.50856124  0.65036704  0.57886707  1
  O  O65  1  0.14154697  0.49781846  0.57854351  1
  O  O66  1  0.31743980  0.84266018  0.25455302  1
  O  O67  1  0.52301640  0.68040636  0.25185856  1
  O  O68  1  0.16008371  0.46955063  0.25242615  1
  O  O69  1  0.31356089  0.48796430  0.75907215  1
  O  O70  1  0.16373156  0.68448189  0.75658349  1
  O  O71  1  0.51349781  0.82995330  0.76224173  1
loop_
_geom_bond_atom_site_label_1
_geom_bond_atom_site_label_2
_geom_bond_distance
_geom_bond_site_symmetry_2
Na0 O68 2.434928 1_555
Na0 O67 2.437390 1_555
Na0 O51 2.439646 1_555
Na0 O53 2.484910 1_555
Na0 O32 2.555684 1_555
Na0 O17 2.631135 1_555
Na0 O0 2.862525 1_555
Na0 O10 2.994488 1_555
Na1 O49 2.308936 1_555
Na1 O14 2.472881 1_555
Na1 O50 2.527579 1_555
Na1 O71 2.537496 1_555
Na1 O69 2.566780 1_555
Na1 O6 2.716752 1_555
Na1 O35 2.874198 1_555
Na1 O4 2.955673 1_555
Na2 O48 2.464936 1_555
Na2 O50 2.477655 1_555
Na2 O69 2.493825 1_655
Na2 O12 2.565143 1_555
Na2 O70 2.586682 1_655
Na2 O7 2.767549 1_655
Na2 O33 2.775349 1_655
Na2 O5 2.787312 1_555
Na3 O65 2.416863 1_555
Na3 O64 2.460934 1_555
Na3 O43 2.491068 1_555
Na3 O42 2.504178 1_455
Na3 O28 2.545591 1_555
Na3 O7 2.585513 1_555
Na4 O44 2.367782 1_455
Na4 O29 2.418673 1_555
Na4 O65 2.423380 1_555
Na4 O63 2.483313 1_555
Na4 O43 2.565013 1_565
Na4 O8 2.602325 1_555
Na5 O64 2.389922 1_555
Na5 O42 2.417994 1_565
Na5 O27 2.471290 1_555
Na5 O44 2.514027 1_555
Na5 O6 2.526203 1_555
Na5 O63 2.531823 1_555
Na6 O26 2.377797 1_554
Na6 O61 2.394770 1_555
Na6 O47 2.414862 1_565
Na6 O62 2.507768 1_555
Na6 O11 2.541293 1_555
Na6 O45 2.557694 1_455
Na7 O45 2.383870 1_555
Na7 O60 2.413228 1_555
Na7 O24 2.467521 1_554
Na7 O62 2.472536 1_555
Na7 O46 2.587611 1_565
Na7 O9 2.621986 1_555
Na8 O60 2.413997 1_555
Na8 O61 2.467069 1_555
Na8 O46 2.476467 1_455
Na8 O25 2.485817 1_554
Na8 O47 2.510278 1_555
Na8 O10 2.635167 1_555
Na8 O15 2.858084 1_455
Na9 O40 2.324961 1_545
Na9 O39 2.406849 1_555
Na9 O3 2.437486 1_555
Na9 O54 2.459080 1_555
Na9 O56 2.600414 1_555
Na9 O18 2.837587 1_556
Na9 O35 2.886169 1_555
Na9 O25 2.945994 1_555
Na10 O37 2.392267 1_545
Na10 O38 2.447038 1_655
Na10 O57 2.544436 1_555
Na10 O59 2.554169 1_555
Na10 O2 2.554247 1_555
Na10 O30 2.674485 1_655
Na10 O23 2.832458 1_555
Na10 O28 2.857846 1_655
Na11 O36 2.355281 1_555
Na11 O37 2.491512 1_555
Na11 O1 2.565481 1_555
Na11 O58 2.566416 1_555
Na11 O59 2.616786 1_555
Na11 O32 2.724911 1_555
Na11 O22 2.841512 1_555
Na11 O27 2.857235 1_555
Na12 O36 2.444093 1_445
Na12 O38 2.453262 1_555
Na12 O37 2.492996 1_445
Na12 O44 2.546165 1_445
Na12 O42 2.548116 1_455
Na12 O43 2.561521 1_555
Na13 O41 2.391976 1_555
Na13 O40 2.443431 1_655
Na13 O39 2.493934 1_665
Na13 O45 2.556224 1_556
Na13 O47 2.653048 1_666
Na13 O46 2.662501 1_566
Na14 O48 2.352541 1_555
Na14 O56 2.450781 1_555
Na14 O49 2.460569 1_555
Na14 O55 2.589446 1_555
Na14 O50 2.596124 1_555
Na14 O54 2.668584 1_555
Na15 O53 2.405607 1_555
Na15 O52 2.410586 1_555
Na15 O51 2.519505 1_555
Na15 O57 2.570538 1_555
Na15 O58 2.674741 1_555
Na15 O59 2.687592 1_555
Na16 O66 2.405543 1_555
Na16 O68 2.447660 1_555
Na16 O67 2.488109 1_555
Na16 O61 2.588615 1_555
Na16 O60 2.651113 1_555
Na16 O62 2.660711 1_555
Na17 O64 2.492046 1_555
Na17 O65 2.527894 1_555
Na17 O63 2.558104 1_555
Na17 O70 2.568831 1_555
Na17 O69 2.571448 1_555
Na17 O71 2.609649 1_555
O0 S0 1.477838 1_545
O0 Zn0 2.040919 1_545
O1 S1 1.479158 1_555
O1 Zn0 2.115654 1_655
O2 S2 1.485655 1_555
O2 Zn0 2.146285 1_645
O3 P0 1.518023 1_555
O3 Zn1 2.051604 1_455
O4 S3 1.464117 1_655
O4 Zn1 2.101142 1_565
O5 P1 1.513373 1_545
O5 Zn1 1.997453 1_555
O6 P1 1.567953 1_555
O6 Zn2 2.015105 1_565
O7 P0 1.562003 1_555
O7 Zn2 2.048974 1_455
O8 S3 1.493391 1_555
O8 Zn2 2.212857 1_465
O9 S1 1.496339 1_555
O9 Zn3 2.077109 1_655
O10 S2 1.509548 1_455
O10 Zn3 2.085587 1_545
O11 S0 1.503386 1_555
O11 Zn3 2.046035 1_555
O12 P2 1.535917 1_555
O12 Zn4 2.047017 1_555
O13 S4 1.469163 1_555
O13 Zn4 2.021606 1_555
O14 P3 1.537224 1_555
O14 Zn4 2.028405 1_555
O15 P4 1.519980 1_555
O15 Zn5 1.944988 1_555
O16 S5 1.472003 1_555
O16 Zn5 2.058464 1_555
O17 P5 1.533785 1_555
O17 Zn5 2.009165 1_555
O18 P5 1.595419 1_555
O18 Ti0 1.973911 1_554
O19 P4 1.609800 1_555
O19 Ti0 1.883761 1_554
O20 S5 1.495042 1_555
O20 Ti0 2.118281 1_554
O21 S4 1.486796 1_555
O21 Ti1 2.072155 1_555
O22 P3 1.588410 1_555
O22 Ti1 1.936705 1_555
O23 P2 1.585407 1_555
O23 Ti1 1.947411 1_555
O24 P6 1.524922 1_555
O24 Zn6 2.019901 1_556
O25 P7 1.532350 1_555
O25 Zn6 1.973698 1_556
O26 P8 1.517534 1_555
O26 Zn6 1.999057 1_556
O27 P9 1.547639 1_555
O27 Zn7 2.004344 1_555
O28 P10 1.547026 1_555
O28 Zn7 1.982436 1_555
O29 P11 1.525930 1_555
O29 Zn7 2.023681 1_555
O30 P11 1.527469 1_555
O30 Zn8 1.983535 1_555
O31 P9 1.516110 1_555
O31 Zn8 1.962170 1_555
O32 P10 1.546477 1_555
O32 Zn8 2.120956 1_555
O33 P7 1.582388 1_555
O33 Ti2 1.971220 1_555
O34 P8 1.593397 1_555
O34 Ti2 1.866183 1_555
O35 P6 1.594648 1_555
O35 Ti2 1.915498 1_555
O36 P11 1.537887 1_655
O36 Zn0 2.078160 1_655
O37 P9 1.555149 1_555
O37 Zn0 2.163721 1_655
O38 P10 1.537547 1_555
O38 Zn0 2.063061 1_545
O39 P7 1.530066 1_555
O39 Zn1 2.084547 1_455
O40 P8 1.529450 1_555
O40 Zn1 2.197167 1_465
O41 P6 1.508922 1_555
O41 Zn1 2.102366 1_565
O42 P2 1.556594 1_555
O42 Zn2 2.205413 1_555
O43 S4 1.496858 1_555
O43 Zn2 2.397381 1_455
O44 P3 1.549994 1_555
O44 Zn2 2.304315 1_565
O45 P4 1.555437 1_555
O45 Zn3 2.198222 1_655
O46 S5 1.500141 1_555
O46 Zn3 2.326967 1_645
O47 P5 1.558344 1_555
O47 Zn3 2.207132 1_545
O48 P1 1.541129 1_545
O48 Zn4 2.096205 1_555
O49 P0 1.547383 1_555
O49 Zn4 2.117571 1_555
O50 S3 1.499446 1_655
O50 Zn4 2.299737 1_555
O51 S1 1.501713 1_555
O51 Zn5 2.196598 1_555
O52 S2 1.482478 1_555
O52 Zn5 2.195764 1_555
O53 S0 1.498087 1_545
O53 Zn5 2.224711 1_555
O54 P6 1.602633 1_555
O54 Ti0 1.953283 1_555
O55 P7 1.570373 1_655
O55 Ti0 1.966239 1_555
O56 P8 1.582816 1_545
O56 Ti0 2.042306 1_555
O57 P9 1.586956 1_545
O57 Ti1 1.940254 1_555
O58 P10 1.579229 1_555
O58 Ti1 1.957119 1_555
O59 P11 1.622841 1_655
O59 Ti1 1.907354 1_555
O60 P5 1.546717 1_555
O60 Zn6 2.231912 1_555
O61 P4 1.538841 1_455
O61 Zn6 2.177176 1_555
O62 S5 1.489551 1_565
O62 Zn6 2.307136 1_555
O63 S4 1.491927 1_565
O63 Zn7 2.305768 1_555
O64 P3 1.545877 1_555
O64 Zn7 2.272489 1_555
O65 P2 1.545156 1_455
O65 Zn7 2.234146 1_555
O66 S0 1.484458 1_555
O66 Zn8 2.211924 1_555
O67 S1 1.495374 1_555
O67 Zn8 2.328670 1_555
O68 S2 1.495175 1_455
O68 Zn8 2.372031 1_555
O69 P0 1.613007 1_555
O69 Ti2 2.060113 1_555
O70 S3 1.507916 1_555
O70 Ti2 2.153025 1_555
O71 P1 1.591990 1_555
O71 Ti2 1.960137 1_555
