# generated using pymatgen
data_Cs2V4O9
_symmetry_space_group_name_H-M   'P 1'
_cell_length_a   5.73058706
_cell_length_b   5.73053639
_cell_length_c   15.78910008
_cell_angle_alpha   79.54790183
_cell_angle_beta   79.54677524
_cell_angle_gamma   90.00145192
_symmetry_Int_Tables_number   1
_chemical_formula_structural   Cs2V4O9
_chemical_formula_sum   'Cs4 V8 O18'
_cell_volume   501.14643616
_cell_formula_units_Z   2
loop_
 _symmetry_equiv_pos_site_id
 _symmetry_equiv_pos_as_xyz
  1  'x, y, z'
loop_
 _atom_site_type_symbol
 _atom_site_label
 _atom_site_symmetry_multiplicity
 _atom_site_fract_x
 _atom_site_fract_y
 _atom_site_fract_z
 _atom_site_occupancy
  Cs  Cs0  1  0.37500223  0.85531666  0.75005727  1
  Cs  Cs1  1  0.87501614  0.39468898  0.74996408  1
  Cs  Cs2  1  0.14467983  0.12502857  0.24994957  1
  Cs  Cs3  1  0.60535570  0.62502397  0.25005061  1
  V  V0  1  0.12313247  0.68863365  0.04793451  1
  V  V1  1  0.92122735  0.56139512  0.45206442  1
  V  V2  1  0.43865361  0.37315317  0.54797353  1
  V  V3  1  0.31136863  0.17121991  0.95202434  1
  V  V4  1  0.62688041  0.98638064  0.45207806  1
  V  V5  1  0.82872895  0.26362527  0.04794392  1
  V  V6  1  0.01365647  0.07876904  0.54795101  1
  V  V7  1  0.73637496  0.87686536  0.95202971  1
  O  O0  1  0.75008424  0.24993039  0.50002175  1
  O  O1  1  0.99988995  0.00007456  0.00000570  1
  O  O2  1  0.60184844  0.09196981  0.35018985  1
  O  O3  1  0.14812673  0.69226213  0.14982855  1
  O  O4  1  0.04800572  0.55760683  0.35018784  1
  O  O5  1  0.70194407  0.15804736  0.14980682  1
  O  O6  1  0.90806019  0.95193474  0.64983079  1
  O  O7  1  0.84195091  0.85183814  0.85016557  1
  O  O8  1  0.44230123  0.39812123  0.64984868  1
  O  O9  1  0.30759415  0.29799930  0.85016058  1
  O  O10  1  0.35305554  0.05166988  0.53438943  1
  O  O11  1  0.39698333  0.83621690  0.96562446  1
  O  O12  1  0.11289929  0.41378661  0.53433184  1
  O  O13  1  0.63718135  0.19833109  0.96561635  1
  O  O14  1  0.94835954  0.88720257  0.46563021  1
  O  O15  1  0.80164756  0.60301827  0.03436749  1
  O  O16  1  0.58624485  0.64701405  0.46566276  1
  O  O17  1  0.16374614  0.36287280  0.03431130  1
loop_
_geom_bond_atom_site_label_1
_geom_bond_atom_site_label_2
_geom_bond_distance
_geom_bond_site_symmetry_2
Cs0 O7 3.172770 1_455
Cs0 O6 3.173345 1_555
Cs0 O9 3.211853 1_565
Cs0 O8 3.212561 1_565
Cs0 O9 3.285442 1_555
Cs0 O8 3.286190 1_555
Cs0 O7 3.344021 1_555
Cs0 O6 3.345105 1_455
Cs0 O11 3.410694 1_555
Cs0 O10 3.412114 1_565
Cs1 O8 3.171613 1_555
Cs1 O9 3.171738 1_655
Cs1 O6 3.212440 1_545
Cs1 O7 3.212733 1_545
Cs1 O6 3.285160 1_555
Cs1 O7 3.285852 1_555
Cs1 O8 3.345345 1_655
Cs1 O9 3.346386 1_555
Cs1 O12 3.412117 1_655
Cs1 O13 3.412228 1_555
Cs2 O3 3.171877 1_545
Cs2 O4 3.172085 1_555
Cs2 O5 3.212490 1_455
Cs2 O2 3.212821 1_455
Cs2 O5 3.285299 1_555
Cs2 O2 3.286375 1_555
Cs2 O3 3.345107 1_555
Cs2 O4 3.346553 1_545
Cs2 O17 3.412204 1_555
Cs2 O14 3.412576 1_445
Cs3 O2 3.172933 1_555
Cs3 O5 3.173238 1_565
Cs3 O4 3.212066 1_655
Cs3 O3 3.212442 1_655
Cs3 O4 3.285760 1_555
Cs3 O3 3.286526 1_555
Cs3 O2 3.344249 1_565
Cs3 O5 3.345377 1_555
Cs3 O16 3.411399 1_555
Cs3 O15 3.412341 1_555
O0 V2 1.990142 1_555
O0 V1 1.990234 1_555
O0 V4 1.990263 1_545
O0 V6 1.990390 1_655
O1 V0 1.990144 1_645
O1 V5 1.990322 1_555
O1 V3 1.990357 1_654
O1 V7 1.990423 1_544
O2 V4 1.644766 1_545
O3 V0 1.644685 1_555
O4 V1 1.644479 1_455
O5 V5 1.644242 1_555
O6 V6 1.644561 1_665
O7 V7 1.644379 1_555
O8 V2 1.644366 1_555
O9 V3 1.644295 1_555
O10 V6 1.927117 1_555
O10 V4 1.930742 1_545
O10 V2 1.965217 1_555
O11 V7 1.927011 1_555
O11 V0 1.930827 1_556
O11 V3 1.964932 1_565
O12 V2 1.926952 1_555
O12 V1 1.930880 1_455
O12 V6 1.964997 1_555
O13 V3 1.927103 1_555
O13 V5 1.931008 1_556
O13 V7 1.965178 1_545
O14 V1 1.926941 1_555
O14 V6 1.930986 1_665
O14 V4 1.965123 1_555
O15 V5 1.927046 1_555
O15 V7 1.931051 1_554
O15 V0 1.965183 1_655
O16 V4 1.926863 1_555
O16 V2 1.930888 1_555
O16 V1 1.964836 1_555
O17 V0 1.926880 1_555
O17 V3 1.931015 1_554
O17 V5 1.964989 1_455
