# generated using pymatgen
data_Na14Y4In4Si7S5O48
_symmetry_space_group_name_H-M   'P 1'
_cell_length_a   18.75380017
_cell_length_b   9.38893631
_cell_length_c   22.71048661
_cell_angle_alpha   89.88092393
_cell_angle_beta   89.72125732
_cell_angle_gamma   119.99679962
_symmetry_Int_Tables_number   1
_chemical_formula_structural   Na14Y4In4Si7S5O48
_chemical_formula_sum   'Na42 Y12 In12 Si21 S15 O144'
_cell_volume   3463.10551150
_cell_formula_units_Z   3
loop_
 _symmetry_equiv_pos_site_id
 _symmetry_equiv_pos_as_xyz
  1  'x, y, z'
loop_
 _atom_site_type_symbol
 _atom_site_label
 _atom_site_symmetry_multiplicity
 _atom_site_fract_x
 _atom_site_fract_y
 _atom_site_fract_z
 _atom_site_occupancy
  Na  Na0  1  0.81104439  0.97657390  0.22617731  1
  Na  Na1  1  0.18356972  0.35570585  0.26217675  1
  Na  Na2  1  0.68823947  0.36226856  0.26030129  1
  Na  Na3  1  0.00460480  0.66033554  0.23398577  1
  Na  Na4  1  0.50061371  0.65231445  0.23362771  1
  Na  Na5  1  0.31167117  0.63784914  0.75067532  1
  Na  Na6  1  0.99578235  0.34481331  0.74227858  1
  Na  Na7  1  0.50748899  0.36011913  0.74409099  1
  Na  Na8  1  0.18513050  0.01520314  0.76620791  1
  Na  Na9  1  0.68818060  0.01922373  0.76792593  1
  Na  Na10  1  0.14399093  0.32945337  0.58317753  1
  Na  Na11  1  0.65025386  0.33726776  0.58423355  1
  Na  Na12  1  0.34078180  0.97829571  0.57878001  1
  Na  Na13  1  0.83688578  0.97473587  0.58336398  1
  Na  Na14  1  0.14737370  0.96145485  0.08615227  1
  Na  Na15  1  0.65412928  0.95866772  0.09166000  1
  Na  Na16  1  0.33883530  0.69982419  0.08453463  1
  Na  Na17  1  0.83755427  0.70491404  0.07729731  1
  Na  Na18  1  0.49352775  0.69279127  0.93707493  1
  Na  Na19  1  0.98281938  0.68986213  0.94137814  1
  Na  Na20  1  0.33790865  0.00873336  0.90737491  1
  Na  Na21  1  0.83724694  0.00626970  0.92771162  1
  Na  Na22  1  0.17020051  0.29876028  0.90249092  1
  Na  Na23  1  0.67608057  0.30838282  0.90058751  1
  Na  Na24  1  0.48299656  0.27970761  0.43419462  1
  Na  Na25  1  0.98566347  0.28674719  0.42913681  1
  Na  Na26  1  0.17532193  0.03944194  0.39525545  1
  Na  Na27  1  0.67543701  0.04360866  0.39674872  1
  Na  Na28  1  0.33226423  0.65616724  0.39591629  1
  Na  Na29  1  0.83464095  0.66028978  0.40182666  1
  Na  Na30  1  0.00068754  0.01306557  0.49893205  1
  Na  Na31  1  0.50078883  0.00280679  0.49900632  1
  Na  Na32  1  0.99555952  0.00055442  0.00195656  1
  Na  Na33  1  0.50620278  0.99353535  0.00075251  1
  Na  Na34  1  0.32433473  0.33142245  0.83297277  1
  Na  Na35  1  0.82676685  0.35084978  0.83132670  1
  Na  Na36  1  0.32494787  0.30442170  0.32595923  1
  Na  Na37  1  0.82820018  0.32639318  0.32926026  1
  Na  Na38  1  0.16817303  0.67517014  0.16951246  1
  Na  Na39  1  0.66389367  0.66215115  0.16412416  1
  Na  Na40  1  0.15707205  0.65762307  0.66707349  1
  Na  Na41  1  0.67066410  0.66148661  0.67076349  1
  Y  Y0  1  -0.00033245  0.00012520  0.34881254  1
  Y  Y1  1  0.49477038  0.99662665  0.34927623  1
  Y  Y2  1  0.99443790  0.99211326  0.84963746  1
  Y  Y3  1  0.50167484  0.00340434  0.85019662  1
  Y  Y4  1  0.33689319  0.33073776  0.68291665  1
  Y  Y5  1  0.83647795  0.33572910  0.18059374  1
  Y  Y6  1  0.33516981  0.33712859  0.98275038  1
  Y  Y7  1  0.83226725  0.32158174  0.98665032  1
  Y  Y8  1  0.33151700  0.33111090  0.48342151  1
  Y  Y9  1  0.83323407  0.33236873  0.48330399  1
  Y  Y10  1  0.66997578  0.67001872  0.31501039  1
  Y  Y11  1  0.16920720  0.67091439  0.81519660  1
  In  In0  1  0.99493285  0.01729864  0.65346948  1
  In  In1  1  0.50286352  0.03000416  0.65218413  1
  In  In2  1  0.99618660  0.97773917  0.14645092  1
  In  In3  1  0.49639923  0.97745912  0.15268563  1
  In  In4  1  0.83713417  0.33401849  0.68570715  1
  In  In5  1  0.33593536  0.34115394  0.18478157  1
  In  In6  1  0.16649629  0.67418938  0.01645494  1
  In  In7  1  0.67176804  0.68637562  0.02105908  1
  In  In8  1  0.16467829  0.65569423  0.51656389  1
  In  In9  1  0.66715923  0.65677664  0.51667544  1
  In  In10  1  0.17971977  0.68642205  0.31241503  1
  In  In11  1  0.68454366  0.67945874  0.81488709  1
  Si  Si0  1  0.15256548  -0.00016726  0.24505153  1
  Si  Si1  1  0.65135348  -0.00050425  0.24842105  1
  Si  Si2  1  0.34371172  0.68776457  0.24786507  1
  Si  Si3  1  0.84779588  0.69231886  0.25187240  1
  Si  Si4  1  0.15034185  0.30149620  0.74729476  1
  Si  Si5  1  0.65604290  0.31415202  0.74636403  1
  Si  Si6  1  0.34729450  0.99902366  0.74795628  1
  Si  Si7  1  0.84417632  0.00004749  0.74531967  1
  Si  Si8  1  0.49192121  0.34174279  0.58367201  1
  Si  Si9  1  0.98783585  0.34176233  0.58432944  1
  Si  Si10  1  0.48713047  0.63589407  0.08425357  1
  Si  Si11  1  0.99265380  0.63820624  0.08369277  1
  Si  Si12  1  0.83689483  0.02202401  0.08298397  1
  Si  Si13  1  0.31695237  0.66885837  0.92083043  1
  Si  Si14  1  0.81203761  0.65487306  0.92338278  1
  Si  Si15  1  0.16458050  0.96979495  0.91755120  1
  Si  Si16  1  0.66663610  0.96297589  0.91482527  1
  Si  Si17  1  0.31056716  0.95934342  0.42469193  1
  Si  Si18  1  0.81587832  0.96217260  0.42446576  1
  Si  Si19  1  0.16633246  0.36979053  0.41663727  1
  Si  Si20  1  0.66365354  0.35805459  0.41768444  1
  S  S0  1  0.00144226  0.30083838  0.25157620  1
  S  S1  1  0.49709522  0.29383256  0.24876271  1
  S  S2  1  0.99900254  0.70455476  0.74699883  1
  S  S3  1  0.50073798  0.70924975  0.74665175  1
  S  S4  1  0.17574565  0.02279114  0.58531750  1
  S  S5  1  0.67954668  0.02708144  0.58715716  1
  S  S6  1  0.33645917  0.64720219  0.58408120  1
  S  S7  1  0.83814578  0.64154581  0.58315514  1
  S  S8  1  0.33820358  0.03497825  0.08259180  1
  S  S9  1  0.18348862  0.33939669  0.08581470  1
  S  S10  1  0.67394772  0.32380546  0.08496881  1
  S  S11  1  0.01682785  0.36613550  0.91485798  1
  S  S12  1  0.52219990  0.37850620  0.91376983  1
  S  S13  1  0.02074379  0.66825528  0.41530142  1
  S  S14  1  0.51766014  0.66937909  0.41762143  1
  O  O0  1  0.11219118  0.03528480  0.30381089  1
  O  O1  1  0.60390027  0.01329256  0.30717719  1
  O  O2  1  0.39359151  0.78563659  0.30621543  1
  O  O3  1  0.89573611  0.77865432  0.31229650  1
  O  O4  1  0.49505874  0.21521513  0.30601033  1
  O  O5  1  0.99821385  0.22171790  0.30955965  1
  O  O6  1  0.10741968  0.18609840  0.80559056  1
  O  O7  1  0.61152288  0.19134839  0.80265820  1
  O  O8  1  0.49616390  0.78422585  0.80335110  1
  O  O9  1  0.99821747  0.78087318  0.80397985  1
  O  O10  1  0.39977146  0.00966652  0.80601282  1
  O  O11  1  0.90252949  0.00867482  0.79920226  1
  O  O12  1  0.39056036  0.97876497  0.68783982  1
  O  O13  1  0.88388677  0.98784581  0.68207088  1
  O  O14  1  0.10375010  0.20839562  0.68618671  1
  O  O15  1  0.60492368  0.23543316  0.68505472  1
  O  O16  1  0.00032167  0.80473812  0.69636845  1
  O  O17  1  0.50939905  0.81918634  0.69647080  1
  O  O18  1  0.38842461  0.78750378  0.18730936  1
  O  O19  1  0.89479985  0.81297269  0.19615784  1
  O  O20  1  0.01186998  0.20831106  0.20295997  1
  O  O21  1  0.50020993  0.19644355  0.19876982  1
  O  O22  1  0.09764852  0.97673301  0.18588543  1
  O  O23  1  0.60138819  0.99436109  0.18865345  1
  O  O24  1  0.44607924  0.33963308  0.64492742  1
  O  O25  1  0.94192628  0.34969392  0.64455800  1
  O  O26  1  0.22512994  0.11613745  0.63773091  1
  O  O27  1  0.72752960  0.11353378  0.64026717  1
  O  O28  1  0.33767117  0.55466503  0.63702111  1
  O  O29  1  0.83433403  0.53413788  0.63214969  1
  O  O30  1  0.43918847  0.53312321  0.14388381  1
  O  O31  1  0.94735387  0.54803676  0.14480744  1
  O  O32  1  0.33207204  0.13330581  0.13103684  1
  O  O33  1  0.82773282  0.12182372  0.13853820  1
  O  O34  1  0.23252669  0.35229622  0.13894674  1
  O  O35  1  0.72290453  0.33461433  0.13842173  1
  O  O36  1  0.22483877  0.31917179  0.03259368  1
  O  O37  1  0.71744980  0.30884109  0.03208164  1
  O  O38  1  0.43344593  0.54712841  0.02588431  1
  O  O39  1  0.93667849  0.53398622  0.02799103  1
  O  O40  1  0.33765130  0.10844922  0.02454744  1
  O  O41  1  0.83590138  0.10867679  0.02102526  1
  O  O42  1  0.21857150  0.12285676  0.53171114  1
  O  O43  1  0.72098253  0.13124911  0.53395968  1
  O  O44  1  0.33153338  0.55417562  0.53007663  1
  O  O45  1  0.83613275  0.56450148  0.52555590  1
  O  O46  1  0.43509964  0.32926782  0.52753969  1
  O  O47  1  0.93571526  0.32916086  0.52566708  1
  O  O48  1  0.27013613  0.67836045  0.98086242  1
  O  O49  1  0.77158719  0.67076551  0.98543357  1
  O  O50  1  0.07084666  0.45703101  0.96471109  1
  O  O51  1  0.57125858  0.47063641  0.96480269  1
  O  O52  1  0.15682551  0.86235685  0.97657329  1
  O  O53  1  0.65222864  0.85471761  0.97491009  1
  O  O54  1  0.27099795  0.86728239  0.48851344  1
  O  O55  1  0.77306582  0.86574808  0.48707436  1
  O  O56  1  0.15688519  0.44698585  0.47938872  1
  O  O57  1  0.65685269  0.44636195  0.47842002  1
  O  O58  1  0.06790250  0.67645296  0.46824102  1
  O  O59  1  0.56893988  0.68230882  0.46829697  1
  O  O60  1  0.05579286  0.64406846  0.36050754  1
  O  O61  1  0.55257961  0.65082765  0.36132356  1
  O  O62  1  0.24269826  0.86999532  0.37325295  1
  O  O63  1  0.75501255  0.86263852  0.37018173  1
  O  O64  1  0.17590064  0.48468223  0.35930172  1
  O  O65  1  0.66817108  0.46151387  0.35870864  1
  O  O66  1  0.05391364  0.44810901  0.85782909  1
  O  O67  1  0.55491007  0.46491327  0.85707555  1
  O  O68  1  0.16964284  0.87933437  0.85760363  1
  O  O69  1  0.66878872  0.86497713  0.85550271  1
  O  O70  1  0.26285721  0.65229662  0.86233215  1
  O  O71  1  0.74577391  0.60632140  0.87025155  1
  O  O72  1  0.01826868  0.82524682  0.41388374  1
  O  O73  1  0.51008504  0.81997793  0.41705381  1
  O  O74  1  0.39924665  0.96663581  0.41837616  1
  O  O75  1  0.90659197  0.97864175  0.42043086  1
  O  O76  1  0.08522376  0.18350800  0.41508430  1
  O  O77  1  0.58166699  0.17308556  0.41833529  1
  O  O78  1  0.00673695  0.19760668  0.91623549  1
  O  O79  1  0.51760399  0.21362889  0.91402560  1
  O  O80  1  0.08364778  0.99507973  0.91916422  1
  O  O81  1  0.58648300  0.99287812  0.91528152  1
  O  O82  1  0.40781392  0.83541849  0.91989063  1
  O  O83  1  0.90051200  0.82842392  0.91680154  1
  O  O84  1  0.49933579  0.16946676  0.57868814  1
  O  O85  1  0.99625742  0.17028004  0.58210544  1
  O  O86  1  0.09233315  0.00331878  0.58604727  1
  O  O87  1  0.59533752  0.00542191  0.58842656  1
  O  O88  1  0.41110854  0.81337359  0.58058555  1
  O  O89  1  0.91355699  0.80693156  0.58417852  1
  O  O90  1  0.49432629  0.82334418  0.08313730  1
  O  O91  1  0.00245437  0.82363401  0.07788404  1
  O  O92  1  0.41421192  0.02202829  0.08514724  1
  O  O93  1  0.91979786  0.00364415  0.08424700  1
  O  O94  1  0.09995310  0.19352038  0.08813013  1
  O  O95  1  0.59090329  0.17175341  0.08619564  1
  O  O96  1  0.33859170  0.16557000  0.74940391  1
  O  O97  1  0.84212613  0.17607901  0.75011980  1
  O  O98  1  0.24738175  0.34248695  0.74641872  1
  O  O99  1  0.74856030  0.33559888  0.74211695  1
  O  O100  1  0.41998440  0.54955636  0.74351645  1
  O  O101  1  0.92616153  0.53558076  0.74735548  1
  O  O102  1  0.34153992  0.50767332  0.25133256  1
  O  O103  1  0.84073752  0.51127350  0.24992904  1
  O  O104  1  0.42321366  0.31417380  0.24780295  1
  O  O105  1  0.92209658  0.30214556  0.24769255  1
  O  O106  1  0.24553626  0.16312834  0.23984953  1
  O  O107  1  0.74494215  0.15822641  0.24921525  1
  O  O108  1  0.32781973  0.50473080  0.91976325  1
  O  O109  1  0.83137464  0.50231557  0.92320092  1
  O  O110  1  0.43485875  0.34610709  0.91866950  1
  O  O111  1  0.93489816  0.35270489  0.91875551  1
  O  O112  1  0.25043876  0.15159852  0.91699261  1
  O  O113  1  0.75115683  0.14508937  0.91420386  1
  O  O114  1  0.32891620  0.15111773  0.42302521  1
  O  O115  1  0.82798043  0.14911211  0.42243211  1
  O  O116  1  0.25115113  0.35485979  0.41623815  1
  O  O117  1  0.74899931  0.34587252  0.41662765  1
  O  O118  1  0.43299578  0.52303158  0.42232085  1
  O  O119  1  0.93376847  0.52721586  0.41982206  1
  O  O120  1  0.18092340  0.49526895  0.08301323  1
  O  O121  1  0.66678527  0.47340743  0.08355301  1
  O  O122  1  0.08867048  0.66678844  0.08363484  1
  O  O123  1  0.58069950  0.66495991  0.08460689  1
  O  O124  1  0.26423959  0.86524348  0.08751391  1
  O  O125  1  0.75429154  0.83453244  0.08909294  1
  O  O126  1  0.17289976  0.86216438  0.58586538  1
  O  O127  1  0.67666107  0.86644473  0.58429757  1
  O  O128  1  0.26075424  0.66260222  0.58996520  1
  O  O129  1  0.76332385  0.66035472  0.58884278  1
  O  O130  1  0.08408255  0.50118156  0.58391575  1
  O  O131  1  0.58633040  0.50316534  0.58321071  1
  O  O132  1  0.15088935  0.82172415  0.25131560  1
  O  O133  1  0.65361206  0.82594111  0.24741717  1
  O  O134  1  0.24823624  0.64785879  0.24600777  1
  O  O135  1  0.75387871  0.66385878  0.24893651  1
  O  O136  1  0.07153133  0.47376835  0.25038291  1
  O  O137  1  0.57248802  0.46127546  0.24580601  1
  O  O138  1  0.14927772  0.47576059  0.74855773  1
  O  O139  1  0.65248923  0.48578941  0.75258590  1
  O  O140  1  0.07536435  0.69059654  0.74385677  1
  O  O141  1  0.56907426  0.67508171  0.74565005  1
  O  O142  1  0.25475671  0.83811788  0.74744153  1
  O  O143  1  0.74966170  0.84996572  0.74658763  1
loop_
_geom_bond_atom_site_label_1
_geom_bond_atom_site_label_2
_geom_bond_distance
_geom_bond_site_symmetry_2
Na0 O33 2.339878 1_565
Na0 O133 2.599609 1_555
Na0 O107 2.613581 1_565
Na0 O135 2.622573 1_555
Na0 O105 2.751468 1_565
Na0 O19 2.774496 1_555
Na1 O134 2.407261 1_555
Na1 O64 2.556288 1_555
Na1 O102 2.576423 1_555
Na1 O106 2.641194 1_555
Na1 O0 2.772293 1_555
Na1 O136 2.836967 1_555
Na1 O34 2.946351 1_555
Na2 O135 2.471538 1_555
Na2 O103 2.486616 1_555
Na2 O65 2.521057 1_555
Na2 O107 2.626904 1_555
Na2 O137 2.776352 1_555
Na2 O35 2.881982 1_555
Na3 O31 2.294413 1_455
Na3 O132 2.415273 1_555
Na3 O136 2.642450 1_555
Na3 O103 2.687095 1_455
Na3 O22 2.801369 1_555
Na4 O30 2.340219 1_555
Na4 O133 2.514415 1_555
Na4 O102 2.615483 1_555
Na4 O137 2.744010 1_555
Na4 O104 2.770048 1_555
Na5 O98 2.410883 1_555
Na5 O100 2.553589 1_555
Na5 O142 2.585960 1_555
Na5 O138 2.638327 1_555
Na5 O70 2.718389 1_555
Na5 O28 2.808370 1_555
Na6 O25 2.452568 1_555
Na6 O97 2.504882 1_555
Na6 O138 2.506848 1_655
Na6 O101 2.695146 1_555
Na6 O140 2.815114 1_655
Na6 O66 2.827856 1_655
Na7 O139 2.371045 1_555
Na7 O24 2.498123 1_555
Na7 O141 2.581814 1_555
Na7 O67 2.738751 1_555
Na7 O96 2.755740 1_555
Na7 O15 2.937445 1_555
Na7 O100 2.962309 1_555
Na8 O68 2.373312 1_545
Na8 O96 2.519112 1_555
Na8 O142 2.611387 1_545
Na8 O98 2.722024 1_555
Na8 O140 2.743566 1_545
Na8 O6 2.798184 1_555
Na9 O69 2.374807 1_545
Na9 O143 2.433013 1_545
Na9 O97 2.530278 1_555
Na9 O99 2.659374 1_555
Na9 O7 2.760065 1_555
Na9 O141 2.913185 1_545
Na9 O27 3.008170 1_555
Na10 O130 2.381901 1_555
Na10 O85 2.402237 1_455
Na10 O14 2.539336 1_555
Na10 O56 2.559085 1_555
Na10 O86 2.711339 1_555
Na10 O128 2.785538 1_555
Na11 O131 2.393952 1_555
Na11 O15 2.457397 1_555
Na11 O84 2.460525 1_555
Na11 O57 2.588314 1_555
Na11 O129 2.698320 1_555
Na11 O87 2.750730 1_555
Na12 O54 2.381733 1_555
Na12 O88 2.486189 1_555
Na12 O128 2.578286 1_555
Na12 O84 2.593575 1_565
Na12 O12 2.650375 1_555
Na12 O126 2.772928 1_555
Na13 O13 2.393559 1_555
Na13 O55 2.464097 1_555
Na13 O129 2.560541 1_555
Na13 O89 2.610621 1_555
Na13 O85 2.610890 1_565
Na13 O127 2.647193 1_555
Na14 O91 2.363380 1_555
Na14 O122 2.413535 1_555
Na14 O22 2.476879 1_555
Na14 O52 2.694521 1_554
Na14 O94 2.734556 1_565
Na14 O124 2.756910 1_555
Na15 O123 2.394430 1_555
Na15 O23 2.501222 1_555
Na15 O90 2.613916 1_555
Na15 O125 2.660557 1_555
Na15 O95 2.792192 1_565
Na15 O53 2.821502 1_554
Na16 O18 2.500804 1_555
Na16 O90 2.542983 1_555
Na16 O124 2.558483 1_555
Na16 O120 2.602710 1_555
Na16 O92 2.621915 1_565
Na16 O48 2.648736 1_554
Na17 O49 2.370043 1_554
Na17 O125 2.426616 1_555
Na17 O93 2.439086 1_565
Na17 O91 2.712920 1_655
Na17 O121 2.834612 1_555
Na17 O19 2.901555 1_555
Na18 O38 2.373493 1_556
Na18 O81 2.509355 1_555
Na18 O82 2.585686 1_555
Na18 O53 2.722798 1_555
Na18 O108 2.730916 1_555
Na18 O110 2.899900 1_555
Na19 O39 2.337734 1_556
Na19 O109 2.520190 1_555
Na19 O83 2.529803 1_555
Na19 O80 2.570724 1_655
Na19 O111 2.873840 1_555
Na19 O52 2.942282 1_655
Na20 O82 2.565579 1_545
Na20 O10 2.570787 1_555
Na20 O112 2.595320 1_555
Na20 O110 2.766655 1_555
Na20 O40 2.823553 1_556
Na20 O79 2.933281 1_555
Na20 O68 2.986401 1_545
Na21 O41 2.334163 1_556
Na21 O83 2.497409 1_545
Na21 O113 2.550844 1_555
Na21 O78 2.771087 1_655
Na21 O111 2.830625 1_555
Na22 O6 2.477417 1_555
Na22 O80 2.503910 1_545
Na22 O112 2.522645 1_555
Na22 O108 2.632478 1_555
Na22 O78 2.734115 1_555
Na23 O7 2.515081 1_555
Na23 O71 2.517022 1_555
Na23 O113 2.566949 1_555
Na23 O81 2.592905 1_545
Na23 O109 2.603271 1_555
Na23 O79 2.657794 1_555
Na24 O46 2.433290 1_555
Na24 O114 2.528199 1_555
Na24 O77 2.530467 1_555
Na24 O74 2.574815 1_545
Na24 O118 2.883248 1_555
Na24 O57 3.004152 1_555
Na24 O4 3.005057 1_555
Na25 O47 2.489701 1_555
Na25 O75 2.514401 1_545
Na25 O76 2.516492 1_655
Na25 O115 2.573335 1_555
Na25 O5 2.819100 1_555
Na25 O119 2.878618 1_555
Na25 O56 3.014811 1_655
Na26 O0 2.386250 1_555
Na26 O62 2.526759 1_545
Na26 O114 2.606676 1_555
Na26 O116 2.611699 1_555
Na26 O72 2.638191 1_545
Na26 O76 2.677282 1_555
Na27 O1 2.380342 1_555
Na27 O117 2.501508 1_555
Na27 O115 2.586613 1_555
Na27 O77 2.634820 1_555
Na27 O73 2.776503 1_545
Na27 O63 2.830025 1_545
Na28 O2 2.349335 1_555
Na28 O116 2.492948 1_555
Na28 O74 2.585780 1_555
Na28 O64 2.681636 1_555
Na28 O118 2.803543 1_555
Na28 O73 2.933782 1_555
Na29 O3 2.318784 1_555
Na29 O117 2.580099 1_555
Na29 O75 2.628934 1_555
Na29 O119 2.740761 1_555
Na29 O65 2.898261 1_555
Na29 O45 2.953110 1_555
Na30 O75 2.420650 1_445
Na30 O85 2.426183 1_455
Na30 O76 2.474172 1_555
Na30 O89 2.637287 1_445
Na30 O86 2.658213 1_555
Na30 O72 2.745602 1_545
Na31 O77 2.397743 1_555
Na31 O84 2.403714 1_555
Na31 O88 2.527733 1_545
Na31 O74 2.546502 1_545
Na31 O73 2.598145 1_545
Na31 O87 2.694517 1_555
Na32 O93 2.351126 1_555
Na32 O91 2.440157 1_645
Na32 O80 2.514389 1_644
Na32 O83 2.587518 1_544
Na32 O78 2.617256 1_654
Na32 O94 2.729597 1_655
Na33 O90 2.393998 1_555
Na33 O81 2.452646 1_554
Na33 O82 2.507241 1_554
Na33 O95 2.544452 1_565
Na33 O92 2.674466 1_565
Na33 O79 2.780731 1_564
Na34 O112 2.456291 1_555
Na34 O98 2.476708 1_555
Na34 O108 2.538758 1_555
Na34 O96 2.553807 1_555
Na34 O100 2.795247 1_555
Na34 O110 2.803150 1_555
Na35 O99 2.469092 1_555
Na35 O109 2.504909 1_555
Na35 O113 2.550534 1_555
Na35 O97 2.580084 1_555
Na35 O101 2.615062 1_555
Na35 O111 2.838836 1_555
Na36 O106 2.421936 1_555
Na36 O102 2.449194 1_555
Na36 O104 2.520673 1_555
Na36 O116 2.641028 1_555
Na36 O114 2.651842 1_555
Na37 O107 2.410399 1_555
Na37 O103 2.426750 1_555
Na37 O117 2.533959 1_555
Na37 O105 2.637244 1_555
Na37 O115 2.688177 1_555
Na37 O119 2.833366 1_555
Na38 O134 2.397239 1_555
Na38 O132 2.429097 1_555
Na38 O122 2.438148 1_555
Na38 O124 2.576270 1_555
Na38 O136 2.599992 1_555
Na38 O120 2.679975 1_555
Na39 O125 2.369390 1_555
Na39 O123 2.400934 1_555
Na39 O133 2.507056 1_555
Na39 O135 2.561796 1_555
Na39 O121 2.569065 1_555
Na39 O137 2.580408 1_555
Na40 O130 2.371512 1_555
Na40 O140 2.436238 1_555
Na40 O138 2.469028 1_555
Na40 O142 2.549593 1_555
Na40 O126 2.566605 1_555
Na40 O128 2.593306 1_555
Na41 O143 2.389089 1_555
Na41 O139 2.389410 1_555
Na41 O131 2.521254 1_555
Na41 O129 2.543264 1_555
Na41 O141 2.598272 1_555
Na41 O127 2.708786 1_555
In0 O13 2.060487 1_545
In0 O14 2.072438 1_655
In0 O85 2.155141 1_555
In0 O16 2.266456 1_645
In0 O89 2.393482 1_545
In0 O86 2.431397 1_655
In1 O15 2.066255 1_555
In1 O12 2.071600 1_545
In1 O84 2.140916 1_555
In1 O17 2.275950 1_545
In1 O87 2.352581 1_555
In1 O88 2.506648 1_545
In2 O19 2.076897 1_555
In2 O22 2.111232 1_655
In2 O93 2.115129 1_565
In2 O91 2.170198 1_655
In2 O94 2.380623 1_665
In2 O20 2.408010 1_665
In3 O18 2.065686 1_555
In3 O23 2.067104 1_555
In3 O90 2.131630 1_555
In3 O21 2.278263 1_565
In3 O95 2.340674 1_565
In3 O92 2.359803 1_565
In4 O99 2.098734 1_555
In4 O25 2.109394 1_555
In4 O97 2.116304 1_555
In4 O29 2.258818 1_555
In4 O101 2.281129 1_555
In4 O27 2.313055 1_555
In5 O30 2.084860 1_555
In5 O106 2.090279 1_555
In5 O102 2.141680 1_555
In5 O34 2.253317 1_555
In5 O32 2.274351 1_555
In5 O104 2.286399 1_555
In6 O52 2.071177 1_554
In6 O122 2.083090 1_555
In6 O48 2.083539 1_554
In6 O50 2.264765 1_554
In6 O120 2.372323 1_555
In6 O124 2.436207 1_555
In7 O53 2.075291 1_554
In7 O49 2.107252 1_554
In7 O125 2.144065 1_555
In7 O123 2.161379 1_555
In7 O51 2.346204 1_554
In7 O121 2.412740 1_555
In8 O56 2.072606 1_555
In8 O54 2.085591 1_555
In8 O130 2.122394 1_555
In8 O58 2.215503 1_555
In8 O128 2.437682 1_555
In8 O126 2.444369 1_555
In9 O57 2.078943 1_555
In9 O55 2.081173 1_555
In9 O131 2.108027 1_555
In9 O59 2.262218 1_555
In9 O129 2.430669 1_555
In9 O127 2.435144 1_555
In10 O62 2.065163 1_555
In10 O134 2.122562 1_555
In10 O132 2.125627 1_555
In10 O64 2.140536 1_555
In10 O60 2.408709 1_555
In10 O136 2.465071 1_555
In11 O71 2.042049 1_555
In11 O143 2.115786 1_555
In11 O69 2.119123 1_555
In11 O139 2.143751 1_555
In11 O67 2.441028 1_555
In11 O141 2.666067 1_555
O0 Si0 1.645871 1_555
O0 Y0 2.210809 1_555
O1 Si1 1.641266 1_555
O1 Y1 2.187988 1_545
O2 Si2 1.622691 1_555
O2 Y1 2.179143 1_555
O3 Si3 1.623700 1_555
O3 Y0 2.186532 1_665
O4 S1 1.484573 1_555
O4 Y1 2.271117 1_545
O5 S0 1.496575 1_655
O5 Y0 2.274475 1_655
O6 Si4 1.638975 1_555
O6 Y2 2.218202 1_445
O7 Si5 1.637648 1_555
O7 Y3 2.204283 1_555
O8 S3 1.491330 1_555
O8 Y3 2.274819 1_565
O9 S2 1.484077 1_555
O9 Y2 2.272038 1_555
O10 Si6 1.622278 1_545
O10 Y3 2.189364 1_555
O11 Si7 1.620616 1_555
O11 Y2 2.143246 1_545
O12 Si6 1.644123 1_555
O13 Si7 1.645173 1_565
O14 Si4 1.645194 1_555
O15 Si5 1.647052 1_555
O16 S2 1.476300 1_455
O17 S3 1.488700 1_555
O18 Si2 1.633904 1_555
O19 Si3 1.626658 1_555
O20 S0 1.477746 1_555
O21 S1 1.478386 1_555
O22 Si0 1.644558 1_565
O23 Si1 1.640197 1_565
O24 Si8 1.626649 1_555
O24 Y4 2.180761 1_555
O25 Si9 1.634269 1_555
O26 S4 1.498733 1_555
O26 Y4 2.304932 1_555
O27 S5 1.485832 1_555
O28 S6 1.488808 1_555
O28 Y4 2.338150 1_555
O29 S7 1.477374 1_555
O30 Si10 1.639703 1_555
O31 Si11 1.621521 1_555
O31 Y5 2.188604 1_555
O32 S8 1.478210 1_555
O33 Si12 1.631901 1_555
O33 Y5 2.157015 1_555
O34 S9 1.488783 1_555
O35 S10 1.498366 1_555
O35 Y5 2.334867 1_555
O36 S9 1.495790 1_555
O36 Y6 2.284439 1_554
O37 S10 1.494564 1_555
O37 Y7 2.331462 1_554
O38 Si10 1.626035 1_555
O38 Y6 2.153135 1_554
O39 Si11 1.628096 1_555
O39 Y7 2.194034 1_554
O40 S8 1.489007 1_555
O40 Y6 2.367472 1_554
O41 Si12 1.628764 1_555
O41 Y7 2.177189 1_554
O42 S4 1.497028 1_555
O42 Y8 2.310784 1_555
O43 S5 1.498670 1_555
O43 Y9 2.305083 1_555
O44 S6 1.483410 1_555
O44 Y8 2.348939 1_555
O45 S7 1.487593 1_555
O45 Y9 2.358936 1_555
O46 Si8 1.631992 1_555
O46 Y8 2.197781 1_555
O47 Si9 1.625425 1_555
O47 Y9 2.167028 1_555
O48 Si13 1.644607 1_555
O49 Si14 1.639282 1_555
O50 S11 1.478903 1_555
O51 S12 1.468578 1_555
O52 Si15 1.637439 1_555
O53 Si16 1.638349 1_555
O54 Si17 1.655768 1_555
O55 Si18 1.656111 1_555
O56 Si19 1.648602 1_555
O57 Si20 1.647737 1_555
O58 S13 1.475212 1_555
O59 S14 1.469249 1_555
O60 S13 1.474654 1_555
O61 S14 1.483484 1_555
O61 Y10 2.359218 1_555
O62 Si17 1.624611 1_555
O63 Si18 1.627258 1_555
O63 Y10 2.128114 1_555
O64 Si19 1.640022 1_555
O65 Si20 1.629679 1_555
O65 Y10 2.178008 1_555
O66 S11 1.485043 1_555
O66 Y11 2.331762 1_555
O67 S12 1.477370 1_555
O68 Si15 1.633420 1_555
O68 Y11 2.179163 1_555
O69 Si16 1.644704 1_555
O70 Si13 1.635415 1_555
O70 Y11 2.141382 1_555
O71 Si14 1.630494 1_555
O72 S13 1.498015 1_555
O72 Y0 2.359901 1_565
O73 S14 1.490111 1_555
O73 Y1 2.381716 1_555
O74 Si17 1.635503 1_555
O74 Y1 2.284212 1_555
O75 Si18 1.631523 1_555
O75 Y0 2.313428 1_665
O76 Si19 1.647606 1_555
O76 Y0 2.253018 1_555
O77 Si20 1.646212 1_555
O77 Y1 2.279553 1_545
O78 S11 1.496934 1_555
O78 Y2 2.373558 1_445
O79 S12 1.506779 1_555
O79 Y3 2.347957 1_555
O80 Si15 1.649601 1_555
O80 Y2 2.296144 1_455
O81 Si16 1.661415 1_555
O81 Y3 2.214413 1_565
O82 Si13 1.638482 1_555
O82 Y3 2.297341 1_565
O83 Si14 1.650366 1_555
O83 Y2 2.246907 1_555
O84 Si8 1.695263 1_555
O85 Si9 1.695356 1_555
O86 S4 1.481387 1_555
O87 S5 1.488153 1_555
O88 S6 1.488208 1_555
O89 S7 1.488777 1_555
O90 Si10 1.696645 1_555
O91 Si11 1.661630 1_455
O92 S8 1.491348 1_555
O93 Si12 1.648189 1_555
O94 S9 1.478627 1_555
O95 S10 1.496864 1_555
O96 Si6 1.651727 1_545
O96 Y4 2.173923 1_555
O97 Si7 1.676063 1_555
O98 Si4 1.661240 1_555
O98 Y4 2.252162 1_555
O99 Si5 1.645967 1_555
O100 S3 1.509199 1_555
O100 Y4 2.318328 1_555
O101 S2 1.488597 1_555
O102 Si2 1.672555 1_555
O103 Si3 1.638369 1_555
O103 Y5 2.254487 1_555
O104 S1 1.490502 1_555
O105 S0 1.497233 1_655
O105 Y5 2.351122 1_555
O106 Si0 1.651935 1_555
O107 Si1 1.639160 1_555
O107 Y5 2.292499 1_555
O108 Si13 1.652540 1_555
O108 Y6 2.179662 1_555
O109 Si14 1.643944 1_555
O109 Y7 2.230382 1_555
O110 S12 1.512535 1_555
O110 Y6 2.331451 1_555
O111 S11 1.479677 1_655
O111 Y7 2.361004 1_555
O112 Si15 1.660713 1_545
O112 Y6 2.248498 1_555
O113 Si16 1.651051 1_545
O113 Y7 2.298266 1_555
O114 Si17 1.655870 1_545
O114 Y8 2.160446 1_555
O115 Si18 1.653931 1_545
O115 Y9 2.173232 1_555
O116 Si19 1.665173 1_555
O116 Y8 2.237459 1_555
O117 Si20 1.660762 1_555
O117 Y9 2.242164 1_555
O118 S14 1.495562 1_555
O118 Y8 2.308520 1_555
O119 S13 1.504224 1_655
O119 Y9 2.343873 1_555
O120 S9 1.489349 1_555
O121 S10 1.476650 1_555
O122 Si11 1.682634 1_455
O123 Si10 1.635571 1_555
O124 S8 1.504541 1_565
O125 Si12 1.669736 1_565
O126 S4 1.482176 1_565
O127 S5 1.483465 1_565
O128 S6 1.502652 1_555
O129 S7 1.504305 1_555
O130 Si9 1.672361 1_455
O131 Si8 1.657864 1_555
O132 Si0 1.662545 1_565
O133 Si1 1.651279 1_565
O133 Y10 2.244599 1_555
O134 Si2 1.636506 1_555
O135 Si3 1.645801 1_555
O135 Y10 2.190739 1_555
O136 S0 1.493375 1_555
O137 S1 1.500400 1_555
O137 Y10 2.472193 1_555
O138 Si4 1.646533 1_555
O138 Y11 2.262658 1_555
O139 Si5 1.652137 1_555
O140 S2 1.503265 1_455
O140 Y11 2.471446 1_555
O141 S3 1.468562 1_555
O142 Si6 1.634911 1_555
O142 Y11 2.203130 1_555
O143 Si7 1.621765 1_565
