# generated using pymatgen
data_SrN
_symmetry_space_group_name_H-M   'P 1'
_cell_length_a   3.82299559
_cell_length_b   6.71191539
_cell_length_c   6.99682196
_cell_angle_alpha   93.99734633
_cell_angle_beta   105.85347664
_cell_angle_gamma   90.00148333
_symmetry_Int_Tables_number   1
_chemical_formula_structural   SrN
_chemical_formula_sum   'Sr4 N4'
_cell_volume   172.25272215
_cell_formula_units_Z   4
loop_
 _symmetry_equiv_pos_site_id
 _symmetry_equiv_pos_as_xyz
  1  'x, y, z'
loop_
 _atom_site_type_symbol
 _atom_site_label
 _atom_site_symmetry_multiplicity
 _atom_site_fract_x
 _atom_site_fract_y
 _atom_site_fract_z
 _atom_site_occupancy
  Sr  Sr0  1  0.35620823  0.08812042  0.71234279  1
  Sr  Sr1  1  0.64379177  0.91187958  0.28765721  1
  Sr  Sr2  1  0.15372824  0.38876802  0.30741414  1
  Sr  Sr3  1  0.84627176  0.61123198  0.69258586  1
  N  N0  1  0.02292415  0.08411958  0.04566503  1
  N  N1  1  0.97707585  0.91588042  0.95433497  1
  N  N2  1  0.24698753  0.74896880  0.49394678  1
  N  N3  1  0.75301247  0.25103120  0.50605322  1
loop_
_geom_bond_atom_site_label_1
_geom_bond_atom_site_label_2
_geom_bond_distance
_geom_bond_site_symmetry_2
N0 N1 1.245941 1_444
N0 Sr2 2.600522 1_555
N0 Sr1 2.813269 1_545
N0 Sr1 2.813856 1_445
N0 Sr0 2.948823 1_554
N0 Sr0 2.949147 1_454
N1 Sr3 2.600522 1_555
N1 Sr0 2.813269 1_565
N1 Sr0 2.813856 1_665
N1 Sr1 2.948823 1_556
N1 Sr1 2.949147 1_656
N2 Sr3 2.544566 1_555
N2 Sr3 2.544697 1_455
N2 Sr0 2.618693 1_565
N2 Sr2 2.642209 1_555
N2 Sr1 2.645072 1_555
N2 Sr1 2.645430 1_455
N3 Sr2 2.544566 1_555
N3 Sr2 2.544697 1_655
N3 Sr1 2.618693 1_545
N3 Sr3 2.642209 1_555
N3 Sr0 2.645072 1_555
N3 Sr0 2.645430 1_655
