# generated using pymatgen
data_Na8Mg(CoO4)2
_symmetry_space_group_name_H-M   'P 1'
_cell_length_a   5.80477114
_cell_length_b   5.73917771
_cell_length_c   9.13371740
_cell_angle_alpha   68.06987444
_cell_angle_beta   83.23235021
_cell_angle_gamma   69.88989545
_symmetry_Int_Tables_number   1
_chemical_formula_structural   Na8Mg(CoO4)2
_chemical_formula_sum   'Na8 Mg1 Co2 O8'
_cell_volume   265.03974578
_cell_formula_units_Z   1
loop_
 _symmetry_equiv_pos_site_id
 _symmetry_equiv_pos_as_xyz
  1  'x, y, z'
loop_
 _atom_site_type_symbol
 _atom_site_label
 _atom_site_symmetry_multiplicity
 _atom_site_fract_x
 _atom_site_fract_y
 _atom_site_fract_z
 _atom_site_occupancy
  Na  Na0  1  0.97350936  0.76515586  0.34279127  1
  Na  Na1  1  0.54334537  0.40347563  0.82192850  1
  Na  Na2  1  0.50755654  0.20639961  0.44961962  1
  Na  Na3  1  0.43005747  0.03625439  0.78002638  1
  Na  Na4  1  0.99640819  0.23862148  0.56056107  1
  Na  Na5  1  0.47064122  0.80264433  0.15864071  1
  Na  Na6  1  0.90301522  0.37245048  0.19155222  1
  Na  Na7  1  0.97743760  0.62693318  0.76061964  1
  Mg  Mg0  1  0.35504273  0.29458141  0.13071098  1
  Co  Co0  1  0.99112567  0.01020186  0.98995965  1
  Co  Co1  1  0.44564276  0.70486877  0.49197030  1
  O  O0  1  0.70660683  0.18375814  0.09345006  1
  O  O1  1  0.69259128  0.52244457  0.37864423  1
  O  O2  1  0.26525321  0.05206308  0.33882615  1
  O  O3  1  0.25551510  0.48110225  0.57828342  1
  O  O4  1  0.58576508  0.77913378  0.63385349  1
  O  O5  1  0.21198222  0.20877005  0.97319969  1
  O  O6  1  0.86552948  0.02857170  0.81129811  1
  O  O7  1  0.17082566  0.65896741  0.11690050  1
loop_
_geom_bond_atom_site_label_1
_geom_bond_atom_site_label_2
_geom_bond_distance
_geom_bond_site_symmetry_2
Na0 O1 2.408742 1_555
Na0 O7 2.417112 1_655
Na0 O3 2.517812 1_655
Na0 O2 2.727481 1_665
Na0 O0 2.746619 1_565
Na1 O4 2.271284 1_555
Na1 O6 2.341536 1_555
Na1 O0 2.456600 1_556
Na1 O5 2.560454 1_555
Na1 O3 2.750684 1_555
Na2 O1 2.271827 1_555
Na2 O4 2.320158 1_545
Na2 O3 2.323718 1_555
Na2 O2 2.376682 1_555
Na3 O4 2.246563 1_545
Na3 O5 2.369052 1_555
Na3 O3 2.467254 1_555
Na3 O6 2.560761 1_555
Na4 O1 2.284288 1_555
Na4 O6 2.330837 1_555
Na4 O3 2.426936 1_655
Na4 O2 2.722004 1_655
Na5 O1 2.248459 1_555
Na5 O7 2.287395 1_555
Na5 O5 2.408309 1_564
Na5 O2 2.510520 1_565
Na5 O0 2.812478 1_565
Na6 O1 2.244320 1_555
Na6 O0 2.256120 1_555
Na6 O2 2.402554 1_655
Na6 O7 2.501223 1_655
Na6 O5 2.733934 1_654
Na7 O3 2.357581 1_655
Na7 O6 2.376142 1_565
Na7 O4 2.402510 1_555
Na7 O5 2.505744 1_655
Mg0 O0 1.946909 1_555
Mg0 O7 1.956987 1_555
Mg0 O5 2.023354 1_554
Mg0 O2 2.027640 1_555
Co0 O6 1.817853 1_555
Co0 O7 1.894513 1_646
Co0 O5 1.947780 1_655
Co0 O0 1.953825 1_556
Co1 O4 1.849881 1_555
Co1 O3 1.871401 1_555
Co1 O1 1.910535 1_555
Co1 O2 1.962661 1_565
