# generated using pymatgen
data_Np(Al2Fe)4
_symmetry_space_group_name_H-M   'P 1'
_cell_length_a   6.67251209
_cell_length_b   6.67251209
_cell_length_c   6.67251209
_cell_angle_alpha   98.01214627
_cell_angle_beta   98.01214627
_cell_angle_gamma   136.15645146
_symmetry_Int_Tables_number   1
_chemical_formula_structural   Np(Al2Fe)4
_chemical_formula_sum   'Np1 Al8 Fe4'
_cell_volume   190.90308931
_cell_formula_units_Z   1
loop_
 _symmetry_equiv_pos_site_id
 _symmetry_equiv_pos_as_xyz
  1  'x, y, z'
loop_
 _atom_site_type_symbol
 _atom_site_label
 _atom_site_symmetry_multiplicity
 _atom_site_fract_x
 _atom_site_fract_y
 _atom_site_fract_z
 _atom_site_occupancy
  Np  Np0  1  -0.00000000  0.00000000  0.00000000  1
  Al  Al0  1  0.50000000  0.72528253  0.22528253  1
  Al  Al1  1  0.27471747  0.50000000  0.77471747  1
  Al  Al2  1  0.72528253  0.50000000  0.22528253  1
  Al  Al3  1  0.50000000  0.27471747  0.77471747  1
  Al  Al4  1  0.00000000  0.65706296  0.65706296  1
  Al  Al5  1  0.00000000  0.34293704  0.34293704  1
  Al  Al6  1  0.65706296  0.00000000  0.65706296  1
  Al  Al7  1  0.34293704  0.00000000  0.34293704  1
  Fe  Fe0  1  0.50000000  0.00000000  0.00000000  1
  Fe  Fe1  1  0.50000000  0.50000000  0.50000000  1
  Fe  Fe2  1  -0.00000000  0.00000000  0.50000000  1
  Fe  Fe3  1  -0.00000000  0.50000000  0.00000000  1
loop_
_geom_bond_atom_site_label_1
_geom_bond_atom_site_label_2
_geom_bond_distance
_geom_bond_site_symmetry_2
Al0 Fe2 2.527416 1_665
Al0 Fe0 2.527416 1_565
Al0 Fe3 2.527416 1_555
Al0 Fe1 2.527416 1_555
Al0 Al5 2.695640 1_665
Al0 Al5 2.695640 1_555
Al0 Al7 2.770191 1_565
Al0 Al6 2.770191 1_565
Al0 Al2 2.789021 1_555
Al0 Al1 2.789021 1_554
Al0 Np0 3.177261 1_665
Al0 Np0 3.177261 1_555
Al1 Fe0 2.527416 1_566
Al1 Fe2 2.527416 1_555
Al1 Fe3 2.527416 1_556
Al1 Fe1 2.527416 1_555
Al1 Al6 2.695640 1_565
Al1 Al6 2.695640 1_455
Al1 Al5 2.770191 1_555
Al1 Al4 2.770191 1_555
Al1 Al3 2.789021 1_555
Al1 Np0 3.177261 1_666
Al1 Np0 3.177261 1_556
Al2 Fe2 2.527416 1_665
Al2 Fe0 2.527416 1_555
Al2 Fe1 2.527416 1_555
Al2 Fe3 2.527416 1_655
Al2 Al7 2.695640 1_555
Al2 Al7 2.695640 1_665
Al2 Al5 2.770191 1_655
Al2 Al4 2.770191 1_655
Al2 Al3 2.789021 1_554
Al2 Np0 3.177261 1_665
Al2 Np0 3.177261 1_555
Al3 Fe0 2.527416 1_556
Al3 Fe3 2.527416 1_656
Al3 Fe2 2.527416 1_555
Al3 Fe1 2.527416 1_555
Al3 Al4 2.695640 1_545
Al3 Al4 2.695640 1_655
Al3 Al6 2.770191 1_555
Al3 Al7 2.770191 1_555
Al3 Np0 3.177261 1_666
Al3 Np0 3.177261 1_556
Al4 Fe0 2.646302 1_566
Al4 Fe3 2.646302 1_556
Al4 Fe1 2.646302 1_455
Al4 Fe2 2.646302 1_565
Al4 Al5 2.749876 1_555
Al4 Np0 3.002090 1_566
Al5 Fe1 2.646302 1_555
Al5 Fe2 2.646302 1_555
Al5 Fe0 2.646302 1_455
Al5 Fe3 2.646302 1_555
Al5 Np0 3.002090 1_555
Al6 Fe2 2.646302 1_655
Al6 Fe0 2.646302 1_556
Al6 Fe3 2.646302 1_656
Al6 Fe1 2.646302 1_545
Al6 Al7 2.749876 1_555
Al6 Np0 3.002090 1_656
Al7 Fe1 2.646302 1_555
Al7 Fe3 2.646302 1_545
Al7 Fe2 2.646302 1_555
Al7 Fe0 2.646302 1_555
Al7 Np0 3.002090 1_555
Fe0 Fe3 2.491118 1_655
Fe0 Fe3 2.491118 1_545
Fe0 Np0 3.336256 1_655
Fe0 Np0 3.336256 1_555
Fe1 Fe2 2.491118 1_665
Fe1 Fe2 2.491118 1_555
Fe1 Np0 3.336256 1_666
Fe1 Np0 3.336256 1_555
Fe2 Np0 3.336256 1_556
Fe2 Np0 3.336256 1_555
Fe3 Np0 3.336256 1_565
Fe3 Np0 3.336256 1_555
