# generated using pymatgen
data_Na3Sc2Ga2P3(SO8)3
_symmetry_space_group_name_H-M   'P 1'
_cell_length_a   8.73039943
_cell_length_b   8.71611646
_cell_length_c   22.58250592
_cell_angle_alpha   88.99376215
_cell_angle_beta   91.01493325
_cell_angle_gamma   120.06477113
_symmetry_Int_Tables_number   1
_chemical_formula_structural   Na3Sc2Ga2P3(SO8)3
_chemical_formula_sum   'Na9 Sc6 Ga6 P9 S9 O72'
_cell_volume   1486.91468275
_cell_formula_units_Z   3
loop_
 _symmetry_equiv_pos_site_id
 _symmetry_equiv_pos_as_xyz
  1  'x, y, z'
loop_
 _atom_site_type_symbol
 _atom_site_label
 _atom_site_symmetry_multiplicity
 _atom_site_fract_x
 _atom_site_fract_y
 _atom_site_fract_z
 _atom_site_occupancy
  Na  Na0  1  0.36218029  0.36239284  0.25156401  1
  Na  Na1  1  0.69127623  0.02358550  0.91749099  1
  Na  Na2  1  0.97311226  0.30598459  0.41648632  1
  Na  Na3  1  0.00542153  0.99500535  0.49853127  1
  Na  Na4  1  0.00456204  0.99309318  0.00260732  1
  Na  Na5  1  0.66075218  0.33779151  0.83420392  1
  Na  Na6  1  0.66637836  0.33312796  0.33319473  1
  Na  Na7  1  0.33196605  0.68228587  0.16769401  1
  Na  Na8  1  0.33313227  0.66671885  0.66664908  1
  Sc  Sc0  1  0.99970986  0.99455144  0.85292623  1
  Sc  Sc1  1  0.99194250  0.00613991  0.64604739  1
  Sc  Sc2  1  0.67362553  0.32861983  0.68569850  1
  Sc  Sc3  1  0.34253664  0.67790167  0.02134771  1
  Sc  Sc4  1  0.32175583  0.65926266  0.51672794  1
  Sc  Sc5  1  0.34694486  0.67637369  0.81674898  1
  Ga  Ga0  1  0.01917823  0.00556177  0.34864804  1
  Ga  Ga1  1  0.99850281  0.00654806  0.15122771  1
  Ga  Ga2  1  0.66983400  0.31228092  0.18585974  1
  Ga  Ga3  1  0.65970159  0.32979398  0.98456732  1
  Ga  Ga4  1  0.66822718  0.34387759  0.48070636  1
  Ga  Ga5  1  0.31329993  0.66224027  0.31643862  1
  P  P0  1  0.28926492  0.99617129  0.24813881  1
  P  P1  1  0.99802503  0.28909822  0.25117629  1
  P  P2  1  0.70472489  0.99855156  0.75073674  1
  P  P3  1  0.95392031  0.33402948  0.57998976  1
  P  P4  1  0.67641342  0.04798226  0.08436364  1
  P  P5  1  0.62686604  0.65579370  0.91979199  1
  P  P6  1  0.33693672  0.96712887  0.91872526  1
  P  P7  1  0.33818470  0.37416086  0.41423241  1
  P  P8  1  0.03531909  0.67115672  0.41479541  1
  S  S0  1  0.71069719  0.71123517  0.24976758  1
  S  S1  1  0.29451316  0.29542895  0.74956082  1
  S  S2  1  0.00082910  0.70642226  0.74932226  1
  S  S3  1  0.37746136  0.04439881  0.58112266  1
  S  S4  1  0.66660640  0.62346787  0.58190194  1
  S  S5  1  0.94928754  0.62142699  0.08550248  1
  S  S6  1  0.37587090  0.32760264  0.08608033  1
  S  S7  1  0.03793177  0.37632513  0.91829335  1
  S  S8  1  0.62484982  0.95690583  0.41484742  1
  O  O0  1  0.21479749  0.04072811  0.30312552  1
  O  O1  1  0.82050063  0.79029944  0.30344685  1
  O  O2  1  0.96621679  0.17577710  0.30859295  1
  O  O3  1  0.21305618  0.18600860  0.80320081  1
  O  O4  1  0.97899088  0.78971934  0.80273329  1
  O  O5  1  0.81254288  0.02341971  0.80839040  1
  O  O6  1  0.79671760  0.97685449  0.69668882  1
  O  O7  1  0.18779564  0.21025931  0.69582404  1
  O  O8  1  0.02563944  0.81458354  0.69567126  1
  O  O9  1  0.78838793  0.81900853  0.19564372  1
  O  O10  1  0.03783406  0.20819182  0.19724849  1
  O  O11  1  0.17116028  0.96398696  0.19278066  1
  O  O12  1  0.86790035  0.35770794  0.63489510  1
  O  O13  1  0.48138146  0.12576643  0.63550095  1
  O  O14  1  0.64059589  0.51693481  0.63590712  1
  O  O15  1  0.86634009  0.51231829  0.13924152  1
  O  O16  1  0.64116023  0.13085837  0.13804545  1
  O  O17  1  0.48597941  0.35802953  0.14062983  1
  O  O18  1  0.45669027  0.30259887  0.03257850  1
  O  O19  1  0.84242055  0.54306204  0.03070388  1
  O  O20  1  0.70439863  0.15817109  0.02600455  1
  O  O21  1  0.45943631  0.15564280  0.52750289  1
  O  O22  1  0.69116127  0.54158947  0.52838217  1
  O  O23  1  0.84134965  0.30715577  0.52246048  1
  O  O24  1  0.54118392  0.69331926  0.97237249  1
  O  O25  1  0.14648971  0.45641410  0.97122331  1
  O  O26  1  0.30605050  0.84992389  0.97344929  1
  O  O27  1  0.54740993  0.85211211  0.46873321  1
  O  O28  1  0.30046760  0.45704486  0.46751409  1
  O  O29  1  0.14986690  0.70412347  0.47030610  1
  O  O30  1  0.11526654  0.62616916  0.36118667  1
  O  O31  1  0.51384019  0.87532262  0.36131436  1
  O  O32  1  0.36881910  0.48789005  0.35669108  1
  O  O33  1  0.11749383  0.48133651  0.86392428  1
  O  O34  1  0.37233756  0.88499672  0.86397875  1
  O  O35  1  0.51572837  0.62629755  0.86289475  1
  O  O36  1  0.01334999  0.83472685  0.40562499  1
  O  O37  1  0.80578790  0.98047239  0.40934433  1
  O  O38  1  0.16420944  0.18943431  0.40797016  1
  O  O39  1  0.01418105  0.19473700  0.91326676  1
  O  O40  1  0.17632381  0.99162410  0.91180450  1
  O  O41  1  0.80962849  0.82876719  0.91291667  1
  O  O42  1  0.97302422  0.16742661  0.58449697  1
  O  O43  1  0.19892791  0.02323368  0.58611644  1
  O  O44  1  0.82966834  0.79928246  0.58631629  1
  O  O45  1  0.96946209  0.80105529  0.09039628  1
  O  O46  1  0.84533244  0.03047339  0.09191748  1
  O  O47  1  0.19853466  0.16475299  0.09089216  1
  O  O48  1  0.68584789  0.16462682  0.74602849  1
  O  O49  1  0.47232665  0.31625034  0.74472424  1
  O  O50  1  0.83766888  0.53114454  0.74530069  1
  O  O51  1  0.68643067  0.52882381  0.24392951  1
  O  O52  1  0.83493528  0.31342403  0.24377762  1
  O  O53  1  0.47467144  0.17119248  0.24117414  1
  O  O54  1  0.64949367  0.49283097  0.92795685  1
  O  O55  1  0.85776504  0.35407607  0.92296026  1
  O  O56  1  0.51124088  0.14976127  0.92544384  1
  O  O57  1  0.64737421  0.13895459  0.41971729  1
  O  O58  1  0.50153973  0.35115722  0.42354883  1
  O  O59  1  0.85190565  0.49664777  0.42216491  1
  O  O60  1  0.35418713  0.48432719  0.07984688  1
  O  O61  1  0.12564372  0.63672928  0.08050822  1
  O  O62  1  0.51023972  0.86209388  0.07977718  1
  O  O63  1  0.36451743  0.86934574  0.57681745  1
  O  O64  1  0.51074668  0.64594948  0.57602489  1
  O  O65  1  0.14014260  0.49960109  0.57702116  1
  O  O66  1  0.31354706  0.83327771  0.25767639  1
  O  O67  1  0.53029903  0.68891895  0.25525261  1
  O  O68  1  0.17133888  0.47473844  0.25734491  1
  O  O69  1  0.30617010  0.46963202  0.75411843  1
  O  O70  1  0.15642203  0.68352809  0.75536502  1
  O  O71  1  0.51993073  0.83156927  0.75328818  1
loop_
_geom_bond_atom_site_label_1
_geom_bond_atom_site_label_2
_geom_bond_distance
_geom_bond_site_symmetry_2
Na0 O68 2.323522 1_555
Na0 O53 2.336374 1_555
Na0 O51 2.457977 1_555
Na0 O67 2.465708 1_555
Na0 O32 2.618913 1_555
Na0 O0 2.682503 1_555
Na0 O10 2.729622 1_555
Na0 O17 2.754260 1_555
Na1 O56 2.336907 1_555
Na1 O41 2.393663 1_545
Na1 O39 2.443891 1_655
Na1 O55 2.497346 1_555
Na1 O34 2.689738 1_545
Na1 O5 2.699085 1_555
Na1 O20 2.711191 1_556
Na1 O24 2.773520 1_545
Na2 O38 2.359819 1_655
Na2 O59 2.381634 1_555
Na2 O37 2.462660 1_545
Na2 O57 2.463228 1_555
Na2 O23 2.675960 1_555
Na2 O2 2.692888 1_555
Na2 O30 2.711149 1_655
Na2 O28 2.719489 1_655
Na3 O43 2.511747 1_565
Na3 O44 2.561408 1_455
Na3 O36 2.561881 1_555
Na3 O38 2.569225 1_565
Na3 O42 2.579745 1_465
Na3 O37 2.602602 1_455
Na4 O45 2.493376 1_455
Na4 O47 2.554934 1_565
Na4 O40 2.565673 1_554
Na4 O41 2.566633 1_454
Na4 O46 2.585057 1_465
Na4 O39 2.626796 1_564
Na5 O49 2.531917 1_555
Na5 O56 2.543299 1_555
Na5 O54 2.561087 1_555
Na5 O55 2.576661 1_555
Na5 O50 2.576710 1_555
Na5 O48 2.596800 1_555
Na6 O57 2.514672 1_555
Na6 O59 2.522673 1_555
Na6 O51 2.568309 1_555
Na6 O58 2.569226 1_555
Na6 O52 2.577422 1_555
Na6 O53 2.593178 1_555
Na7 O66 2.490896 1_555
Na7 O62 2.525174 1_555
Na7 O61 2.542421 1_555
Na7 O67 2.587206 1_555
Na7 O68 2.601532 1_555
Na7 O60 2.723873 1_555
Na8 O71 2.487971 1_555
Na8 O69 2.529865 1_555
Na8 O65 2.565332 1_555
Na8 O63 2.592017 1_555
Na8 O70 2.600298 1_555
Na8 O64 2.651832 1_555
Ga0 O0 1.895808 1_555
Ga0 O36 1.932467 1_545
Ga0 O2 1.964303 1_455
Ga0 O38 1.987071 1_555
Ga0 O1 2.077167 1_445
Ga0 O37 2.251446 1_445
Ga1 O10 1.932302 1_655
Ga1 O11 1.946345 1_645
Ga1 O46 1.957489 1_555
Ga1 O9 2.011520 1_545
Ga1 O47 2.100758 1_655
Ga1 O45 2.185983 1_545
Ga2 O16 1.839250 1_555
Ga2 O52 1.925538 1_555
Ga2 O53 1.974274 1_555
Ga2 O15 2.023346 1_555
Ga2 O17 2.085091 1_555
Ga2 O51 2.260349 1_555
Ga3 O54 1.928910 1_555
Ga3 O20 1.946370 1_556
Ga3 O56 1.974680 1_555
Ga3 O18 2.002776 1_556
Ga3 O19 2.030678 1_556
Ga3 O55 2.163003 1_555
Ga4 O23 1.923427 1_555
Ga4 O58 1.952161 1_555
Ga4 O22 1.969961 1_555
Ga4 O59 1.991503 1_555
Ga4 O21 2.035223 1_555
Ga4 O57 2.207270 1_555
Ga5 O30 1.901378 1_555
Ga5 O66 1.977564 1_555
Ga5 O68 1.994077 1_555
Ga5 O32 2.011089 1_555
Ga5 O31 2.070478 1_555
Ga5 O67 2.278684 1_555
O0 P0 1.553681 1_545
O1 S0 1.479726 1_555
O2 P1 1.557838 1_555
O3 S1 1.480879 1_555
O3 Sc0 2.099753 1_445
O4 S2 1.481847 1_655
O4 Sc0 2.060384 1_555
O5 P2 1.546026 1_545
O5 Sc0 2.022314 1_545
O6 P2 1.538023 1_555
O6 Sc1 1.975055 1_565
O7 S1 1.479976 1_555
O7 Sc1 2.075245 1_455
O8 S2 1.472473 1_555
O8 Sc1 2.131846 1_465
O9 S0 1.478855 1_555
O10 P1 1.546578 1_455
O11 P0 1.543216 1_555
O12 P3 1.530098 1_555
O12 Sc2 1.971067 1_555
O13 S3 1.476653 1_555
O13 Sc2 2.063436 1_555
O14 S4 1.469661 1_555
O14 Sc2 2.107012 1_555
O15 S5 1.483955 1_555
O16 P4 1.533902 1_555
O17 S6 1.491975 1_555
O18 S6 1.482777 1_555
O19 S5 1.489518 1_555
O20 P4 1.565498 1_555
O21 S3 1.487522 1_555
O22 S4 1.486194 1_555
O23 P3 1.563120 1_555
O24 P5 1.538412 1_555
O24 Sc3 2.019448 1_556
O25 S7 1.463058 1_555
O25 Sc3 2.152920 1_556
O26 P6 1.528069 1_555
O26 Sc3 1.982155 1_556
O27 S8 1.464081 1_555
O27 Sc4 2.138913 1_555
O28 P7 1.536560 1_555
O28 Sc4 2.027202 1_555
O29 P8 1.527882 1_555
O29 Sc4 2.005403 1_555
O30 P8 1.557996 1_555
O31 S8 1.484776 1_555
O32 P7 1.563363 1_555
O33 S7 1.476968 1_555
O33 Sc5 2.153507 1_555
O34 P6 1.550087 1_555
O34 Sc5 2.036925 1_555
O35 P5 1.541413 1_555
O35 Sc5 2.005452 1_555
O36 P8 1.540938 1_555
O37 S8 1.494628 1_555
O38 P7 1.571451 1_555
O39 S7 1.495862 1_555
O39 Sc0 2.184892 1_445
O40 P6 1.525531 1_555
O40 Sc0 2.027714 1_455
O41 P5 1.559899 1_555
O41 Sc0 2.070134 1_555
O42 P3 1.543934 1_555
O42 Sc1 2.022723 1_555
O43 S3 1.481077 1_555
O43 Sc1 2.220168 1_455
O44 S4 1.483036 1_555
O44 Sc1 2.129726 1_565
O45 S5 1.491179 1_555
O46 P4 1.562975 1_555
O47 S6 1.490705 1_555
O48 P2 1.538444 1_545
O48 Sc2 1.997482 1_555
O49 S1 1.475733 1_555
O49 Sc2 2.182887 1_555
O50 S2 1.480251 1_655
O50 Sc2 2.112077 1_555
O51 S0 1.502992 1_555
O52 P1 1.546932 1_555
O53 P0 1.580655 1_545
O54 P5 1.536627 1_555
O55 S7 1.490752 1_655
O56 P6 1.563930 1_545
O57 S8 1.503758 1_545
O58 P7 1.546861 1_555
O59 P8 1.570196 1_655
O60 S6 1.474143 1_555
O60 Sc3 2.165905 1_555
O61 S5 1.483553 1_455
O61 Sc3 2.211596 1_555
O62 P4 1.544661 1_565
O62 Sc3 2.028034 1_555
O63 S3 1.477260 1_565
O63 Sc4 2.172116 1_555
O64 S4 1.472213 1_555
O64 Sc4 2.153387 1_555
O65 P3 1.542718 1_455
O65 Sc4 2.025735 1_555
O66 P0 1.548024 1_555
O67 S0 1.494242 1_555
O68 P1 1.573012 1_455
O69 S1 1.475365 1_555
O69 Sc5 2.191625 1_555
O70 S2 1.472322 1_555
O70 Sc5 2.170566 1_555
O71 P2 1.540161 1_555
O71 Sc5 2.031278 1_555
