# generated using pymatgen
data_MgCr2Fe3Ni(PO4)6
_symmetry_space_group_name_H-M   'P 1'
_cell_length_a   8.77220950
_cell_length_b   8.62211774
_cell_length_c   8.60583099
_cell_angle_alpha   60.33759882
_cell_angle_beta   60.11460810
_cell_angle_gamma   59.69040639
_symmetry_Int_Tables_number   1
_chemical_formula_structural   MgCr2Fe3Ni(PO4)6
_chemical_formula_sum   'Mg1 Cr2 Fe3 Ni1 P6 O24'
_cell_volume   460.72305491
_cell_formula_units_Z   1
loop_
 _symmetry_equiv_pos_site_id
 _symmetry_equiv_pos_as_xyz
  1  'x, y, z'
loop_
 _atom_site_type_symbol
 _atom_site_label
 _atom_site_symmetry_multiplicity
 _atom_site_fract_x
 _atom_site_fract_y
 _atom_site_fract_z
 _atom_site_occupancy
  Mg  Mg0  1  0.87553600  0.87825900  0.87839200  1
  Cr  Cr0  1  0.01128700  0.00778100  0.00605000  1
  Cr  Cr1  1  0.50064900  0.49998700  0.49932800  1
  Fe  Fe0  1  0.15249700  0.15287300  0.14877300  1
  Fe  Fe1  1  0.35143000  0.35450900  0.35771500  1
  Fe  Fe2  1  0.63370700  0.63973600  0.64155500  1
  Ni  Ni0  1  0.76799500  0.75746400  0.75599500  1
  P  P0  1  0.05921600  0.75415600  0.45534400  1
  P  P1  1  0.46341500  0.05855700  0.75326100  1
  P  P2  1  0.75432000  0.45547900  0.05604900  1
  P  P3  1  0.25529100  0.54709700  0.96112900  1
  P  P4  1  0.53858900  0.95669900  0.25877400  1
  P  P5  1  0.95849100  0.25781000  0.54482900  1
  O  O0  1  0.09940000  0.34845400  0.48490900  1
  O  O1  1  0.34696200  0.48870900  0.10248500  1
  O  O2  1  0.08056100  0.90686400  0.25792600  1
  O  O3  1  0.47748100  0.10043200  0.35185800  1
  O  O4  1  0.00599500  0.81554100  0.62175000  1
  O  O5  1  0.25285500  0.58674800  0.44894600  1
  O  O6  1  0.27070100  0.08385400  0.90600800  1
  O  O7  1  0.45566900  0.25161200  0.58503500  1
  O  O8  1  0.17178100  0.40463200  0.00962700  1
  O  O9  1  0.59137000  0.44705100  0.25078000  1
  O  O10  1  0.11160200  0.75072800  0.94696700  1
  O  O11  1  0.39457200  0.00252000  0.17880400  1
  O  O12  1  0.62883200  0.00269200  0.81190400  1
  O  O13  1  0.91102300  0.25875100  0.07218800  1
  O  O14  1  0.41278800  0.55046800  0.75655800  1
  O  O15  1  0.81573500  0.61951800  0.00247500  1
  O  O16  1  0.54424000  0.75223300  0.41973300  1
  O  O17  1  0.73582100  0.94027600  0.11731700  1
  O  O18  1  0.75419400  0.41660400  0.55059400  1
  O  O19  1  0.00489400  0.17489400  0.39963800  1
  O  O20  1  0.51189800  0.89046500  0.69228000  1
  O  O21  1  0.94362700  0.11547700  0.74749500  1
  O  O22  1  0.69129800  0.50720500  0.89003900  1
  O  O23  1  0.89396600  0.69355300  0.50718300  1
loop_
_geom_bond_atom_site_label_1
_geom_bond_atom_site_label_2
_geom_bond_distance
_geom_bond_site_symmetry_2
Mg0 O17 1.982733 1_556
Mg0 O21 2.022671 1_565
Mg0 O10 2.030493 1_655
Mg0 O12 2.108268 1_565
Mg0 O4 2.125741 1_655
Mg0 O15 2.158121 1_556
Cr0 O13 2.139891 1_455
Cr0 O10 2.155461 1_544
Cr0 O2 2.176478 1_545
Cr0 O21 2.209133 1_454
Cr0 O6 2.311965 1_554
Cr0 O17 2.378446 1_445
Cr1 O7 2.070093 1_555
Cr1 O9 2.078495 1_555
Cr1 O16 2.109375 1_555
Cr1 O5 2.109379 1_555
Cr1 O14 2.144450 1_555
Cr1 O18 2.169865 1_555
Fe0 O11 1.921834 1_555
Fe0 O19 1.935287 1_555
Fe0 O8 1.941769 1_555
Fe0 O6 2.059849 1_554
Fe0 O2 2.137271 1_545
Fe0 O13 2.144461 1_455
Fe1 O3 1.906064 1_555
Fe1 O1 1.920767 1_555
Fe1 O0 1.933157 1_555
Fe1 O5 2.122622 1_555
Fe1 O7 2.167076 1_555
Fe1 O9 2.225272 1_555
Fe2 O18 2.011182 1_555
Fe2 O16 2.023082 1_555
Fe2 O20 2.035542 1_555
Fe2 O14 2.041517 1_555
Fe2 O22 2.051611 1_555
Fe2 O23 2.161501 1_555
Ni0 O15 1.993678 1_556
Ni0 O12 2.002173 1_565
Ni0 O4 2.005812 1_655
Ni0 O23 2.074836 1_555
Ni0 O20 2.160445 1_555
Ni0 O22 2.160446 1_555
O0 P5 1.531540 1_455
O1 P3 1.529716 1_554
O2 P0 1.540402 1_555
O3 P4 1.532653 1_545
O4 P0 1.543832 1_555
O5 P0 1.575615 1_555
O6 P1 1.526596 1_555
O7 P1 1.571602 1_555
O8 P3 1.521786 1_554
O9 P2 1.566549 1_555
O10 P3 1.547190 1_555
O11 P4 1.522925 1_545
O12 P1 1.541432 1_555
O13 P2 1.545854 1_555
O14 P3 1.604693 1_555
O15 P2 1.542526 1_555
O16 P4 1.610068 1_555
O17 P4 1.523114 1_555
O18 P5 1.609588 1_555
O19 P5 1.523673 1_455
O20 P1 1.570038 1_565
O21 P5 1.543160 1_555
O22 P2 1.566257 1_556
O23 P0 1.569323 1_655
