# generated using pymatgen
data_Na10Zn4Ga4Si3(S3O16)3
_symmetry_space_group_name_H-M   'P 1'
_cell_length_a   17.66119047
_cell_length_b   8.86977036
_cell_length_c   22.13752439
_cell_angle_alpha   89.75362978
_cell_angle_beta   87.81138198
_cell_angle_gamma   120.16962610
_symmetry_Int_Tables_number   1
_chemical_formula_structural   Na10Zn4Ga4Si3(S3O16)3
_chemical_formula_sum   'Na30 Zn12 Ga12 Si9 S27 O144'
_cell_volume   2994.81233857
_cell_formula_units_Z   3
loop_
 _symmetry_equiv_pos_site_id
 _symmetry_equiv_pos_as_xyz
  1  'x, y, z'
loop_
 _atom_site_type_symbol
 _atom_site_label
 _atom_site_symmetry_multiplicity
 _atom_site_fract_x
 _atom_site_fract_y
 _atom_site_fract_z
 _atom_site_occupancy
  Na  Na0  1  0.18792626  0.37067521  0.24636855  1
  Na  Na1  1  0.68799517  0.37294123  0.24646168  1
  Na  Na2  1  0.99198796  0.63609727  0.25335237  1
  Na  Na3  1  0.49408965  0.63163784  0.25755644  1
  Na  Na4  1  0.32249184  0.64619305  0.74549331  1
  Na  Na5  1  0.81996717  0.64104220  0.74555173  1
  Na  Na6  1  0.99380159  0.35342290  0.75157536  1
  Na  Na7  1  0.18770672  0.00342247  0.74347155  1
  Na  Na8  1  0.68800567  0.00578739  0.74413987  1
  Na  Na9  1  0.52013620  0.70337751  0.57676008  1
  Na  Na10  1  0.32684178  0.96829796  0.58751753  1
  Na  Na11  1  0.82627493  0.96387253  0.58600577  1
  Na  Na12  1  0.15283276  0.97600699  0.08026511  1
  Na  Na13  1  0.65261008  0.97577515  0.08002327  1
  Na  Na14  1  0.32897411  0.69046632  0.08963726  1
  Na  Na15  1  0.82862280  0.69038307  0.08981157  1
  Na  Na16  1  0.66087050  0.01835090  0.42271457  1
  Na  Na17  1  0.35475281  0.66988455  0.41188853  1
  Na  Na18  1  0.01232960  0.00248061  0.49887463  1
  Na  Na19  1  0.50789406  0.01140722  0.49803560  1
  Na  Na20  1  0.00601066  0.02102663  0.99776101  1
  Na  Na21  1  0.50641464  0.02231261  0.99742264  1
  Na  Na22  1  0.34302672  0.32257877  0.83217969  1
  Na  Na23  1  0.83291963  0.32092485  0.83471546  1
  Na  Na24  1  0.33581206  0.32848663  0.33391257  1
  Na  Na25  1  0.83796260  0.34528359  0.33233923  1
  Na  Na26  1  0.17015198  0.65706972  0.16564695  1
  Na  Na27  1  0.67030587  0.65729229  0.16651259  1
  Na  Na28  1  0.16486500  0.67604051  0.66031570  1
  Na  Na29  1  0.66315553  0.65977617  0.66319021  1
  Zn  Zn0  1  0.99302636  0.98566249  0.34921888  1
  Zn  Zn1  1  0.49556804  0.98261591  0.34957100  1
  Zn  Zn2  1  0.99425002  0.00207198  0.85019918  1
  Zn  Zn3  1  0.49484119  0.00407761  0.84997497  1
  Zn  Zn4  1  0.33056115  0.30486236  0.68101673  1
  Zn  Zn5  1  0.82946010  0.31350856  0.67917298  1
  Zn  Zn6  1  0.32954947  0.34553442  0.18217823  1
  Zn  Zn7  1  0.82915269  0.34722112  0.18168262  1
  Zn  Zn8  1  0.16163417  0.64302753  0.01682574  1
  Zn  Zn9  1  0.66141876  0.64265976  0.01646448  1
  Zn  Zn10  1  0.16011563  0.67720933  0.51842669  1
  Zn  Zn11  1  0.66408666  0.67549809  0.51429554  1
  Ga  Ga0  1  0.00102273  0.99719283  0.64741059  1
  Ga  Ga1  1  0.50367521  0.01081060  0.65110855  1
  Ga  Ga2  1  0.99663572  0.01371440  0.15229324  1
  Ga  Ga3  1  0.49747027  0.01286234  0.15169269  1
  Ga  Ga4  1  0.32776386  0.32699347  0.98422652  1
  Ga  Ga5  1  0.82700305  0.32622959  0.98428206  1
  Ga  Ga6  1  0.33168419  0.32835145  0.48205542  1
  Ga  Ga7  1  0.83042367  0.33576055  0.48652711  1
  Ga  Ga8  1  0.17548971  0.67796328  0.31766261  1
  Ga  Ga9  1  0.67230189  0.67243914  0.32079363  1
  Ga  Ga10  1  0.17680337  0.68057920  0.82142196  1
  Ga  Ga11  1  0.66927773  0.67244229  0.81878345  1
  Si  Si0  1  0.35223878  0.70902188  0.25035916  1
  Si  Si1  1  0.85227011  0.71146822  0.25104386  1
  Si  Si2  1  0.35551354  0.00358002  0.75194856  1
  Si  Si3  1  0.85440160  0.99941080  0.75057277  1
  Si  Si4  1  0.18274136  0.04038246  0.58422970  1
  Si  Si5  1  0.68242655  0.03771271  0.58535551  1
  Si  Si6  1  0.18144982  0.32822729  0.08596707  1
  Si  Si7  1  0.68100568  0.32858501  0.08563421  1
  Si  Si8  1  0.51757822  0.65859009  0.41797294  1
  S  S0  1  0.14706899  0.99551651  0.25121463  1
  S  S1  1  0.64860099  0.99790770  0.24936692  1
  S  S2  1  0.99953357  0.29542342  0.25193167  1
  S  S3  1  0.49930620  0.29147494  0.25117114  1
  S  S4  1  0.14555687  0.29564847  0.75178415  1
  S  S5  1  0.64521376  0.29774360  0.75194277  1
  S  S6  1  0.00144421  0.70803188  0.75188750  1
  S  S7  1  0.50175871  0.70552779  0.75178005  1
  S  S8  1  0.48182038  0.33217086  0.58257351  1
  S  S9  1  0.98057889  0.33419904  0.58269511  1
  S  S10  1  0.33287363  0.62444200  0.58414636  1
  S  S11  1  0.83476041  0.62604977  0.58363388  1
  S  S12  1  0.47996239  0.62445579  0.08140712  1
  S  S13  1  0.97990129  0.62428077  0.08129016  1
  S  S14  1  0.33627407  0.04924296  0.08225578  1
  S  S15  1  0.83644046  0.04990266  0.08220935  1
  S  S16  1  0.31594819  0.66150503  0.91781505  1
  S  S17  1  0.81506885  0.66158841  0.91695517  1
  S  S18  1  0.01750753  0.37665715  0.91680796  1
  S  S19  1  0.51736967  0.37646228  0.91753198  1
  S  S20  1  0.16799843  0.96403256  0.91809152  1
  S  S21  1  0.66798001  0.96265469  0.91764736  1
  S  S22  1  0.31192682  0.96302257  0.41689450  1
  S  S23  1  0.81784093  0.96986892  0.41813752  1
  S  S24  1  0.16351803  0.37304689  0.41684519  1
  S  S25  1  0.67082155  0.37680865  0.41743052  1
  S  S26  1  0.01758322  0.65952819  0.41685296  1
  O  O0  1  0.10730787  0.03307787  0.30413364  1
  O  O1  1  0.60958783  0.03134463  0.30434392  1
  O  O2  1  0.40854551  0.78597223  0.30893430  1
  O  O3  1  0.91770324  0.79234804  0.30466621  1
  O  O4  1  0.48962954  0.18874038  0.30551294  1
  O  O5  1  0.98899893  0.19262596  0.30619566  1
  O  O6  1  0.10900930  0.18117092  0.80601016  1
  O  O7  1  0.60793808  0.18303387  0.80578068  1
  O  O8  1  0.48866690  0.78725751  0.80537418  1
  O  O9  1  0.98748617  0.78497309  0.80646406  1
  O  O10  1  0.40888051  0.02006189  0.80940732  1
  O  O11  1  0.91692633  0.04156189  0.80561113  1
  O  O12  1  0.39757065  0.95920034  0.68948818  1
  O  O13  1  0.89720241  0.95570099  0.68867308  1
  O  O14  1  0.09122835  0.21810972  0.69862561  1
  O  O15  1  0.59463793  0.22026967  0.69737069  1
  O  O16  1  0.02094327  0.82212367  0.69713059  1
  O  O17  1  0.52145742  0.81868988  0.69566884  1
  O  O18  1  0.39859805  0.82777593  0.18707839  1
  O  O19  1  0.89638944  0.82822063  0.18623232  1
  O  O20  1  0.02128422  0.22283728  0.19668818  1
  O  O21  1  0.51825772  0.21677917  0.19550720  1
  O  O22  1  0.09440330  0.96560957  0.19609394  1
  O  O23  1  0.59415440  0.97274733  0.19571572  1
  O  O24  1  0.44450107  0.37084914  0.63721529  1
  O  O25  1  0.94531598  0.36427389  0.64043278  1
  O  O26  1  0.23705025  0.10787844  0.64526181  1
  O  O27  1  0.73915669  0.11327167  0.64424268  1
  O  O28  1  0.32490262  0.52645315  0.64034602  1
  O  O29  1  0.82550095  0.52898176  0.64056445  1
  O  O30  1  0.44444960  0.52326641  0.13847559  1
  O  O31  1  0.94462061  0.52350387  0.13851890  1
  O  O32  1  0.32377492  0.12924374  0.13643570  1
  O  O33  1  0.82417925  0.13006131  0.13634374  1
  O  O34  1  0.23829990  0.36641145  0.14514072  1
  O  O35  1  0.73803221  0.36709737  0.14470440  1
  O  O36  1  0.22720114  0.28056835  0.02753808  1
  O  O37  1  0.72676032  0.28049634  0.02723116  1
  O  O38  1  0.42385472  0.53561319  0.02956900  1
  O  O39  1  0.92384537  0.53477425  0.02951908  1
  O  O40  1  0.35183715  0.15663440  0.02592309  1
  O  O41  1  0.85210971  0.15744073  0.02574906  1
  O  O42  1  0.23443587  0.16932548  0.52498380  1
  O  O43  1  0.72870216  0.15730858  0.52278633  1
  O  O44  1  0.34933852  0.54522695  0.52938780  1
  O  O45  1  0.85029570  0.54342571  0.52952704  1
  O  O46  1  0.42716482  0.30380448  0.52973368  1
  O  O47  1  0.92273993  0.30974253  0.53149526  1
  O  O48  1  0.27269475  0.68561724  0.97170833  1
  O  O49  1  0.77265786  0.68497502  0.97146000  1
  O  O50  1  0.06835554  0.46108107  0.96881327  1
  O  O51  1  0.56680014  0.45708034  0.97065650  1
  O  O52  1  0.15670011  0.85785639  0.97253871  1
  O  O53  1  0.65697124  0.85775061  0.97238151  1
  O  O54  1  0.27234895  0.85041232  0.47168234  1
  O  O55  1  0.77894374  0.86775615  0.47488660  1
  O  O56  1  0.15321345  0.45916156  0.46983740  1
  O  O57  1  0.66047290  0.46088901  0.47084218  1
  O  O58  1  0.06895213  0.67675417  0.46853602  1
  O  O59  1  0.57478960  0.69772287  0.47659346  1
  O  O60  1  0.05924073  0.63539888  0.35890389  1
  O  O61  1  0.56700972  0.63579454  0.35587117  1
  O  O62  1  0.25782617  0.87883027  0.36319141  1
  O  O63  1  0.76057565  0.88479796  0.36611681  1
  O  O64  1  0.17883822  0.48338906  0.35921877  1
  O  O65  1  0.68432626  0.47950288  0.35996547  1
  O  O66  1  0.06137532  0.48633603  0.85906972  1
  O  O67  1  0.56142820  0.48870504  0.86110965  1
  O  O68  1  0.17948099  0.87986308  0.86131459  1
  O  O69  1  0.68035863  0.87933940  0.86115982  1
  O  O70  1  0.26270705  0.63544834  0.86240021  1
  O  O71  1  0.76255773  0.63761976  0.86179692  1
  O  O72  1  0.00874894  0.81523206  0.41210183  1
  O  O73  1  0.50721768  0.83323637  0.41324475  1
  O  O74  1  0.40028220  0.98521560  0.40999944  1
  O  O75  1  0.90614307  0.99529303  0.41063138  1
  O  O76  1  0.08703471  0.19793165  0.41113551  1
  O  O77  1  0.59387567  0.19931790  0.41301564  1
  O  O78  1  0.00879998  0.20337305  0.91232104  1
  O  O79  1  0.50880876  0.20353215  0.91228186  1
  O  O80  1  0.09073029  0.98449899  0.91276234  1
  O  O81  1  0.59105989  0.98403660  0.91228566  1
  O  O82  1  0.40426394  0.81445264  0.91173195  1
  O  O83  1  0.90368586  0.81549699  0.91105105  1
  O  O84  1  0.48343262  0.16548940  0.58929213  1
  O  O85  1  0.98099008  0.16602168  0.58647248  1
  O  O86  1  0.08520428  0.02543632  0.59041030  1
  O  O87  1  0.58275868  0.01487263  0.59196188  1
  O  O88  1  0.41321496  0.80385214  0.58468931  1
  O  O89  1  0.91299571  0.80581191  0.58385391  1
  O  O90  1  0.48431755  0.79744449  0.08409421  1
  O  O91  1  0.98428793  0.79705554  0.08396250  1
  O  O92  1  0.41297311  0.02188052  0.08426875  1
  O  O93  1  0.91347139  0.02331971  0.08410684  1
  O  O94  1  0.08471568  0.14237696  0.09326090  1
  O  O95  1  0.58464348  0.14266686  0.09237634  1
  O  O96  1  0.33730551  0.16440490  0.74780439  1
  O  O97  1  0.84062569  0.16803238  0.74572582  1
  O  O98  1  0.23684553  0.33332918  0.74327475  1
  O  O99  1  0.73667008  0.33076449  0.74437821  1
  O  O100  1  0.42209839  0.53502664  0.74504624  1
  O  O101  1  0.92176144  0.53411502  0.74554308  1
  O  O102  1  0.34164175  0.51388386  0.24655977  1
  O  O103  1  0.84030979  0.51515409  0.24612725  1
  O  O104  1  0.42171250  0.31040274  0.24504062  1
  O  O105  1  0.92203554  0.31324723  0.24468992  1
  O  O106  1  0.23695158  0.14280710  0.24342575  1
  O  O107  1  0.73768972  0.14895278  0.24248983  1
  O  O108  1  0.32195182  0.49908560  0.92204894  1
  O  O109  1  0.82197562  0.49957889  0.92137159  1
  O  O110  1  0.42816324  0.36100055  0.92210466  1
  O  O111  1  0.92849898  0.36149195  0.92123554  1
  O  O112  1  0.25080658  0.13779652  0.91899438  1
  O  O113  1  0.75098116  0.13721567  0.91875910  1
  O  O114  1  0.31763580  0.13451165  0.42073022  1
  O  O115  1  0.82202876  0.14406128  0.42115631  1
  O  O116  1  0.24653062  0.36563056  0.41797124  1
  O  O117  1  0.75156763  0.35742810  0.41940731  1
  O  O118  1  0.41661841  0.48376577  0.42420238  1
  O  O119  1  0.92804859  0.49587567  0.42266153  1
  O  O120  1  0.17598843  0.50435304  0.07785428  1
  O  O121  1  0.67598683  0.50520671  0.07779435  1
  O  O122  1  0.07114151  0.66047687  0.07384963  1
  O  O123  1  0.57122714  0.66118656  0.07384515  1
  O  O124  1  0.25561934  0.87415296  0.07767371  1
  O  O125  1  0.75597417  0.87491132  0.07751851  1
  O  O126  1  0.17569944  0.84962757  0.57760988  1
  O  O127  1  0.67241778  0.84352370  0.58061690  1
  O  O128  1  0.25528274  0.64422899  0.57962067  1
  O  O129  1  0.75578393  0.64165594  0.57855658  1
  O  O130  1  0.06981940  0.48030417  0.57439070  1
  O  O131  1  0.57165924  0.47985734  0.57529271  1
  O  O132  1  0.14795552  0.82728290  0.25881906  1
  O  O133  1  0.65123529  0.83314586  0.25454032  1
  O  O134  1  0.25186564  0.68378929  0.25551208  1
  O  O135  1  0.75211446  0.68643574  0.25922647  1
  O  O136  1  0.07904780  0.47615006  0.25447289  1
  O  O137  1  0.57945823  0.47018419  0.25220495  1
  O  O138  1  0.14889179  0.46848602  0.75919799  1
  O  O139  1  0.65212456  0.47249508  0.75851807  1
  O  O140  1  0.07944465  0.68340926  0.75581599  1
  O  O141  1  0.58216767  0.68851035  0.75629976  1
  O  O142  1  0.25420716  0.81600756  0.75712090  1
  O  O143  1  0.75500352  0.81683374  0.75819622  1
loop_
_geom_bond_atom_site_label_1
_geom_bond_atom_site_label_2
_geom_bond_distance
_geom_bond_site_symmetry_2
Na0 O102 2.349143 1_555
Na0 O34 2.386835 1_555
Na0 O134 2.428850 1_555
Na0 O136 2.527515 1_555
Na0 O106 2.568017 1_555
Na0 O64 2.723696 1_555
Na0 O20 2.823378 1_555
Na0 O0 2.858616 1_555
Na1 O103 2.327095 1_555
Na1 O35 2.398559 1_555
Na1 O135 2.441378 1_555
Na1 O137 2.465511 1_555
Na1 O107 2.544274 1_555
Na1 O65 2.698283 1_555
Na1 O21 2.876756 1_555
Na1 O1 2.890257 1_555
Na2 O103 2.344828 1_555
Na2 O132 2.410420 1_655
Na2 O105 2.496037 1_555
Na2 O136 2.563710 1_655
Na2 O3 2.580631 1_555
Na2 O60 2.662706 1_655
Na2 O31 2.739369 1_555
Na2 O22 2.810690 1_655
Na3 O102 2.371702 1_555
Na3 O133 2.429120 1_555
Na3 O104 2.490417 1_555
Na3 O137 2.548729 1_555
Na3 O61 2.562009 1_555
Na3 O2 2.722316 1_555
Na3 O30 2.827219 1_555
Na3 O23 2.925174 1_555
Na4 O142 2.365325 1_555
Na4 O98 2.403955 1_555
Na4 O100 2.410235 1_555
Na4 O28 2.570434 1_555
Na4 O138 2.654089 1_555
Na4 O12 2.673550 1_555
Na4 O70 2.740413 1_555
Na4 O8 2.925168 1_555
Na5 O143 2.367125 1_555
Na5 O99 2.381809 1_555
Na5 O101 2.417726 1_555
Na5 O29 2.549384 1_555
Na5 O139 2.565440 1_555
Na5 O13 2.692136 1_555
Na5 O71 2.724031 1_555
Na6 O97 2.365700 1_555
Na6 O138 2.408239 1_655
Na6 O101 2.503193 1_555
Na6 O140 2.535118 1_655
Na6 O11 2.645461 1_555
Na6 O25 2.652911 1_555
Na6 O66 2.702548 1_655
Na6 O14 2.776501 1_655
Na7 O96 2.292882 1_555
Na7 O26 2.317557 1_555
Na7 O142 2.493829 1_545
Na7 O140 2.507136 1_545
Na7 O98 2.600558 1_555
Na7 O16 2.792364 1_545
Na7 O68 2.795394 1_545
Na7 O6 2.899731 1_555
Na8 O97 2.333765 1_555
Na8 O27 2.362043 1_555
Na8 O141 2.480690 1_545
Na8 O143 2.514507 1_545
Na8 O99 2.560810 1_555
Na8 O69 2.789811 1_545
Na8 O17 2.812021 1_545
Na8 O7 2.904982 1_555
Na9 O127 2.333217 1_555
Na9 O59 2.395286 1_555
Na9 O87 2.436200 1_565
Na9 O88 2.461391 1_555
Na9 O131 2.563449 1_555
Na9 O17 2.824846 1_555
Na9 O24 2.853802 1_555
Na9 O44 2.857955 1_555
Na10 O126 2.346077 1_555
Na10 O84 2.419942 1_565
Na10 O128 2.501982 1_555
Na10 O88 2.586183 1_555
Na10 O12 2.641549 1_555
Na10 O26 2.741141 1_565
Na10 O54 2.792005 1_555
Na10 O46 2.850595 1_565
Na11 O127 2.376511 1_555
Na11 O85 2.399833 1_565
Na11 O129 2.487697 1_555
Na11 O89 2.542986 1_555
Na11 O55 2.633532 1_555
Na11 O13 2.654682 1_555
Na11 O27 2.774510 1_565
Na11 O47 2.885805 1_565
Na12 O94 2.338633 1_565
Na12 O124 2.399125 1_555
Na12 O122 2.427940 1_555
Na12 O91 2.572570 1_455
Na12 O36 2.583522 1_565
Na12 O52 2.621288 1_554
Na12 O22 2.710818 1_555
Na13 O95 2.339091 1_565
Na13 O125 2.402141 1_555
Na13 O123 2.420265 1_555
Na13 O90 2.568498 1_555
Na13 O37 2.585393 1_565
Na13 O53 2.620806 1_554
Na13 O23 2.719487 1_555
Na14 O120 2.380726 1_555
Na14 O90 2.408143 1_555
Na14 O18 2.523557 1_555
Na14 O92 2.540924 1_565
Na14 O124 2.558729 1_555
Na14 O34 2.743836 1_555
Na14 O48 2.821616 1_554
Na14 O38 2.936272 1_555
Na15 O121 2.375636 1_555
Na15 O91 2.414016 1_555
Na15 O19 2.496024 1_555
Na15 O93 2.552758 1_565
Na15 O125 2.555931 1_555
Na15 O35 2.732971 1_555
Na15 O49 2.827530 1_554
Na15 O39 2.948255 1_555
Na16 O73 2.381574 1_545
Na16 O77 2.438837 1_555
Na16 O115 2.479489 1_555
Na16 O43 2.569844 1_555
Na16 O117 2.600654 1_555
Na16 O59 2.703387 1_545
Na16 O1 2.825573 1_555
Na16 O63 2.831038 1_545
Na17 O73 2.331522 1_555
Na17 O116 2.397260 1_555
Na17 O118 2.413550 1_555
Na17 O2 2.447147 1_555
Na17 O74 2.491376 1_555
Na17 O44 2.801361 1_555
Na17 O54 2.940673 1_555
Na17 O64 2.979267 1_555
Na18 O86 2.396560 1_555
Na18 O76 2.448488 1_555
Na18 O89 2.510669 1_445
Na18 O72 2.526572 1_545
Na18 O85 2.630630 1_455
Na18 O75 2.738237 1_445
Na19 O77 2.416013 1_555
Na19 O73 2.455443 1_545
Na19 O87 2.498461 1_555
Na19 O88 2.548645 1_545
Na19 O84 2.585760 1_555
Na19 O74 2.703203 1_545
Na20 O78 2.466234 1_555
Na20 O93 2.473950 1_456
Na20 O80 2.482305 1_545
Na20 O94 2.510070 1_556
Na20 O91 2.623099 1_446
Na20 O83 2.693985 1_445
Na21 O79 2.457129 1_555
Na21 O92 2.484138 1_556
Na21 O81 2.490523 1_545
Na21 O95 2.495132 1_556
Na21 O90 2.634266 1_546
Na21 O82 2.683412 1_545
Na22 O96 2.315576 1_555
Na22 O110 2.461575 1_555
Na22 O112 2.466424 1_555
Na22 O100 2.517890 1_555
Na22 O108 2.665246 1_555
Na22 O98 2.803456 1_555
Na23 O113 2.368336 1_555
Na23 O97 2.434448 1_555
Na23 O111 2.507960 1_555
Na23 O109 2.556194 1_555
Na23 O101 2.585272 1_555
Na23 O99 2.702564 1_555
Na24 O114 2.475141 1_555
Na24 O118 2.488919 1_555
Na24 O104 2.493461 1_555
Na24 O102 2.498301 1_555
Na24 O116 2.522098 1_555
Na24 O106 2.679319 1_555
Na25 O103 2.412633 1_555
Na25 O117 2.448937 1_555
Na25 O105 2.501829 1_555
Na25 O119 2.538396 1_555
Na25 O115 2.559945 1_555
Na25 O107 2.706312 1_555
Na26 O120 2.402162 1_555
Na26 O134 2.444610 1_555
Na26 O136 2.483279 1_555
Na26 O124 2.569168 1_555
Na26 O132 2.692071 1_555
Na26 O122 2.740869 1_555
Na27 O121 2.414715 1_555
Na27 O137 2.447717 1_555
Na27 O135 2.494516 1_555
Na27 O125 2.588536 1_555
Na27 O133 2.616849 1_555
Na27 O123 2.757868 1_555
Na28 O126 2.326434 1_555
Na28 O128 2.461743 1_555
Na28 O140 2.570311 1_555
Na28 O130 2.606378 1_555
Na28 O142 2.633584 1_555
Na28 O138 2.767065 1_555
Na29 O127 2.389150 1_555
Na29 O129 2.499030 1_555
Na29 O141 2.550527 1_555
Na29 O131 2.572760 1_555
Na29 O139 2.619919 1_555
Na29 O143 2.647616 1_555
Ga0 O86 1.828950 1_565
Ga0 O13 1.876914 1_455
Ga0 O16 2.076180 1_555
Ga0 O14 2.163897 1_565
Ga0 O85 2.176937 1_465
Ga0 O89 2.193890 1_455
Ga1 O12 1.858997 1_545
Ga1 O87 1.864363 1_555
Ga1 O15 2.055094 1_555
Ga1 O84 2.096906 1_555
Ga1 O17 2.126660 1_545
Ga1 O88 2.310619 1_545
Ga2 O19 1.834649 1_545
Ga2 O94 1.864830 1_655
Ga2 O20 1.957726 1_655
Ga2 O93 2.176490 1_555
Ga2 O22 2.229026 1_645
Ga2 O91 2.378590 1_545
Ga3 O18 1.833312 1_545
Ga3 O95 1.863087 1_555
Ga3 O21 1.929200 1_555
Ga3 O23 2.174149 1_545
Ga3 O92 2.179531 1_555
Ga3 O90 2.355671 1_545
Ga4 O36 1.837038 1_556
Ga4 O40 1.994937 1_556
Ga4 O38 2.073969 1_556
Ga4 O108 2.094118 1_555
Ga4 O110 2.097369 1_555
Ga4 O112 2.151051 1_555
Ga5 O37 1.830072 1_556
Ga5 O41 1.991777 1_556
Ga5 O39 2.077632 1_556
Ga5 O109 2.107087 1_555
Ga5 O111 2.121466 1_555
Ga5 O113 2.150475 1_555
Ga6 O42 1.808693 1_555
Ga6 O118 1.884225 1_555
Ga6 O44 2.082055 1_555
Ga6 O114 2.116053 1_555
Ga6 O46 2.123217 1_555
Ga6 O116 2.245540 1_555
Ga7 O43 1.843346 1_555
Ga7 O45 1.952663 1_555
Ga7 O47 2.050042 1_555
Ga7 O119 2.079412 1_555
Ga7 O117 2.146846 1_555
Ga7 O115 2.188948 1_555
Ga8 O134 1.871561 1_555
Ga8 O62 1.956529 1_555
Ga8 O64 1.980247 1_555
Ga8 O60 2.065441 1_555
Ga8 O132 2.090069 1_555
Ga8 O136 2.280609 1_555
Ga9 O61 1.856534 1_555
Ga9 O135 1.880392 1_555
Ga9 O65 2.022922 1_555
Ga9 O63 2.041872 1_555
Ga9 O133 2.208668 1_555
Ga9 O137 2.338673 1_555
Ga10 O142 1.877265 1_555
Ga10 O68 1.959377 1_555
Ga10 O70 1.999345 1_555
Ga10 O66 2.036281 1_555
Ga10 O138 2.195790 1_555
Ga10 O140 2.302249 1_555
Ga11 O143 1.900687 1_555
Ga11 O67 1.972928 1_555
Ga11 O69 1.988441 1_555
Ga11 O71 2.084439 1_555
Ga11 O139 2.127937 1_555
Ga11 O141 2.163737 1_555
O0 S0 1.467038 1_545
O0 Zn0 2.058177 1_445
O1 S1 1.479316 1_545
O1 Zn1 2.052267 1_545
O2 Si0 1.600033 1_555
O2 Zn1 1.907424 1_555
O3 Si1 1.593130 1_555
O3 Zn0 1.872047 1_555
O4 S3 1.457767 1_555
O4 Zn1 2.118983 1_545
O5 S2 1.453281 1_555
O5 Zn0 2.098433 1_545
O6 S4 1.469780 1_555
O6 Zn2 2.046307 1_455
O7 S5 1.464743 1_555
O7 Zn3 2.029048 1_555
O8 S7 1.463399 1_555
O8 Zn3 2.121086 1_565
O9 S6 1.462762 1_655
O9 Zn2 2.110289 1_565
O10 Si2 1.575553 1_555
O10 Zn3 1.857645 1_555
O11 Si3 1.592299 1_545
O11 Zn2 1.882206 1_555
O12 Si2 1.684844 1_565
O13 Si3 1.679128 1_555
O14 S4 1.486078 1_555
O15 S5 1.483968 1_555
O16 S6 1.489746 1_555
O17 S7 1.508889 1_555
O18 Si0 1.665889 1_555
O19 Si1 1.681931 1_555
O20 S2 1.509028 1_455
O21 S3 1.505941 1_555
O22 S0 1.505315 1_555
O23 S1 1.502970 1_555
O24 S8 1.478268 1_555
O24 Zn4 1.998617 1_555
O25 S9 1.483864 1_555
O25 Zn5 2.015337 1_555
O26 Si4 1.622541 1_555
O26 Zn4 1.902144 1_555
O27 Si5 1.607723 1_555
O27 Zn5 1.885428 1_555
O28 S10 1.475601 1_555
O28 Zn4 2.207425 1_555
O29 S11 1.479792 1_555
O29 Zn5 2.124362 1_555
O30 S12 1.469324 1_555
O30 Zn6 2.039761 1_555
O31 S13 1.470524 1_555
O31 Zn7 2.037146 1_555
O32 S14 1.461290 1_555
O32 Zn6 2.131712 1_555
O33 S15 1.459734 1_555
O33 Zn7 2.139743 1_555
O34 Si6 1.612846 1_555
O34 Zn6 1.924397 1_555
O35 Si7 1.612352 1_555
O35 Zn7 1.917180 1_555
O36 Si6 1.665192 1_555
O37 Si7 1.666704 1_555
O38 S12 1.493178 1_555
O39 S13 1.492783 1_555
O40 S14 1.496161 1_555
O41 S15 1.498877 1_555
O42 Si4 1.645564 1_555
O43 Si5 1.655685 1_555
O44 S10 1.494480 1_555
O45 S11 1.493859 1_555
O46 S8 1.485945 1_555
O47 S9 1.497676 1_555
O48 S16 1.466115 1_555
O48 Zn8 2.022369 1_556
O49 S17 1.466033 1_555
O49 Zn9 2.024675 1_556
O50 S18 1.450203 1_555
O50 Zn8 1.980994 1_556
O51 S19 1.454211 1_555
O51 Zn9 1.977205 1_556
O52 S20 1.470551 1_555
O52 Zn8 2.181057 1_556
O53 S21 1.470450 1_555
O53 Zn9 2.176860 1_556
O54 S22 1.476608 1_555
O54 Zn10 2.031961 1_555
O55 S23 1.472892 1_555
O55 Zn11 2.039386 1_555
O56 S24 1.457347 1_555
O56 Zn10 2.168709 1_555
O57 S25 1.454558 1_555
O57 Zn11 2.109783 1_555
O58 S26 1.448076 1_555
O58 Zn10 1.985307 1_555
O59 Si8 1.605303 1_555
O59 Zn11 1.906382 1_555
O60 S26 1.523592 1_555
O61 Si8 1.667694 1_555
O62 S22 1.503727 1_555
O63 S23 1.499274 1_555
O64 S24 1.534679 1_555
O65 S25 1.501132 1_555
O66 S18 1.528559 1_555
O67 S19 1.514328 1_555
O68 S20 1.522846 1_555
O69 S21 1.518910 1_555
O70 S16 1.521381 1_555
O71 S17 1.512231 1_555
O72 S26 1.469460 1_555
O72 Zn0 2.175657 1_455
O73 Si8 1.651978 1_555
O73 Zn1 2.016150 1_555
O74 S22 1.473055 1_555
O74 Zn1 2.118824 1_555
O75 S23 1.461838 1_555
O75 Zn0 2.045379 1_555
O76 S24 1.469362 1_555
O76 Zn0 2.287845 1_445
O77 S25 1.481837 1_555
O77 Zn1 2.353032 1_545
O78 S18 1.469951 1_555
O78 Zn2 2.175363 1_455
O79 S19 1.469300 1_555
O79 Zn3 2.168288 1_555
O80 S20 1.473175 1_555
O80 Zn2 2.300286 1_465
O81 S21 1.471960 1_555
O81 Zn3 2.302748 1_565
O82 S16 1.465243 1_555
O82 Zn3 2.089458 1_565
O83 S17 1.471565 1_555
O83 Zn2 2.065768 1_565
O84 S8 1.499807 1_555
O85 S9 1.497351 1_555
O86 Si4 1.660128 1_555
O87 Si5 1.668105 1_555
O88 S10 1.509217 1_555
O89 S11 1.495882 1_555
O90 S12 1.498752 1_555
O91 S13 1.496586 1_555
O92 S14 1.493580 1_555
O93 S15 1.494959 1_555
O94 Si6 1.675757 1_555
O95 Si7 1.672018 1_555
O96 Si2 1.615200 1_555
O96 Zn4 1.974598 1_555
O97 Si3 1.635236 1_545
O97 Zn5 2.033745 1_555
O98 S4 1.476903 1_555
O98 Zn4 2.225210 1_555
O99 S5 1.492046 1_555
O99 Zn5 2.205903 1_555
O100 S7 1.472429 1_555
O100 Zn4 2.381824 1_555
O101 S6 1.488209 1_655
O101 Zn5 2.376234 1_555
O102 Si0 1.647644 1_555
O102 Zn6 2.006905 1_555
O103 Si1 1.649893 1_555
O103 Zn7 2.009370 1_555
O104 S3 1.473041 1_555
O104 Zn6 2.315648 1_555
O105 S2 1.469043 1_555
O105 Zn7 2.322786 1_555
O106 S0 1.465981 1_545
O106 Zn6 2.144794 1_555
O107 S1 1.467954 1_545
O107 Zn7 2.114783 1_555
O108 S16 1.499518 1_555
O109 S17 1.505077 1_555
O110 S19 1.510548 1_555
O111 S18 1.508130 1_655
O112 S20 1.500536 1_545
O113 S21 1.506163 1_545
O114 S22 1.476022 1_545
O115 S23 1.511129 1_545
O116 S24 1.501371 1_555
O117 S25 1.521922 1_555
O118 Si8 1.674267 1_555
O119 S26 1.516510 1_655
O120 Si6 1.622460 1_555
O120 Zn8 1.930736 1_555
O121 Si7 1.621914 1_555
O121 Zn9 1.929676 1_555
O122 S13 1.478556 1_455
O122 Zn8 2.065915 1_555
O123 S12 1.477603 1_555
O123 Zn9 2.070805 1_555
O124 S14 1.496685 1_565
O124 Zn8 2.355121 1_555
O125 S15 1.495020 1_565
O125 Zn9 2.365965 1_555
O126 Si4 1.640630 1_565
O126 Zn10 1.937212 1_555
O127 Si5 1.644962 1_565
O127 Zn11 2.052628 1_555
O128 S10 1.473351 1_555
O128 Zn10 2.326026 1_555
O129 S11 1.477572 1_555
O129 Zn11 2.323245 1_555
O130 S9 1.456070 1_455
O130 Zn10 2.039449 1_555
O131 S8 1.465944 1_555
O131 Zn11 2.112723 1_555
O132 S0 1.508890 1_555
O133 S1 1.489388 1_555
O134 Si0 1.670676 1_555
O135 Si1 1.670757 1_555
O136 S2 1.512958 1_455
O137 S3 1.504794 1_555
O138 S4 1.514177 1_555
O139 S5 1.500582 1_555
O140 S6 1.504785 1_555
O141 S7 1.508544 1_555
O142 Si2 1.724250 1_565
O143 Si3 1.688289 1_555
