# generated using pymatgen
data_ThZr2F12
_symmetry_space_group_name_H-M   'P 1'
_cell_length_a   8.20345620
_cell_length_b   8.20345620
_cell_length_c   7.86962973
_cell_angle_alpha   61.85957969
_cell_angle_beta   61.85957969
_cell_angle_gamma   79.87548995
_symmetry_Int_Tables_number   1
_chemical_formula_structural   ThZr2F12
_chemical_formula_sum   'Th2 Zr4 F24'
_cell_volume   411.05469964
_cell_formula_units_Z   2
loop_
 _symmetry_equiv_pos_site_id
 _symmetry_equiv_pos_as_xyz
  1  'x, y, z'
loop_
 _atom_site_type_symbol
 _atom_site_label
 _atom_site_symmetry_multiplicity
 _atom_site_fract_x
 _atom_site_fract_y
 _atom_site_fract_z
 _atom_site_occupancy
  Th  Th0  1  0.77817022  0.22182978  -0.00000000  1
  Th  Th1  1  0.22182978  0.77817022  -0.00000000  1
  Zr  Zr0  1  0.35110708  0.35110708  0.77359629  1
  Zr  Zr1  1  0.64889292  0.64889292  0.22640371  1
  Zr  Zr2  1  0.18899088  0.18899088  0.42925885  1
  Zr  Zr3  1  0.81100912  0.81100912  0.57074115  1
  F  F0  1  0.44036063  0.69367362  0.13396115  1
  F  F1  1  0.30632638  0.55963937  0.86603885  1
  F  F2  1  0.55963937  0.30632638  0.86603885  1
  F  F3  1  0.69367362  0.44036063  0.13396115  1
  F  F4  1  0.22254760  0.22254760  0.13845827  1
  F  F5  1  0.77745240  0.77745240  0.86154173  1
  F  F6  1  -0.00000000  -0.00000000  -0.00000000  1
  F  F7  1  -0.00000000  -0.00000000  0.50000000  1
  F  F8  1  0.38790795  0.61209205  0.50000000  1
  F  F9  1  0.61209205  0.38790795  0.50000000  1
  F  F10  1  0.83115422  0.53429994  0.72039951  1
  F  F11  1  0.46570006  0.16884578  0.27960049  1
  F  F12  1  0.16884578  0.46570006  0.27960049  1
  F  F13  1  0.53429994  0.83115422  0.72039951  1
  F  F14  1  0.71174950  0.71174950  0.42880354  1
  F  F15  1  0.28825050  0.28825050  0.57119646  1
  F  F16  1  0.93299112  0.64366260  0.11205107  1
  F  F17  1  0.35633740  0.06700888  0.88794893  1
  F  F18  1  0.06700888  0.35633740  0.88794893  1
  F  F19  1  0.64366260  0.93299112  0.11205107  1
  F  F20  1  0.78039742  0.05912633  0.33710015  1
  F  F21  1  0.94087367  0.21960258  0.66289985  1
  F  F22  1  0.21960258  0.94087367  0.66289985  1
  F  F23  1  0.05912633  0.78039742  0.33710015  1
loop_
_geom_bond_atom_site_label_1
_geom_bond_atom_site_label_2
_geom_bond_distance
_geom_bond_site_symmetry_2
F0 Zr1 2.071596 1_555
F0 Th1 2.337133 1_555
F1 Zr0 2.071596 1_555
F1 Th1 2.337133 1_556
F2 Zr0 2.071596 1_555
F2 Th0 2.337133 1_556
F3 Zr1 2.071596 1_555
F3 Th0 2.337133 1_555
F4 Zr2 2.055948 1_555
F4 Zr0 2.268759 1_554
F5 Zr3 2.055948 1_555
F5 Zr1 2.268759 1_556
F6 Th0 2.336422 1_455
F6 Th1 2.336422 1_545
F7 Zr3 2.081841 1_445
F7 Zr2 2.081841 1_555
F8 Zr0 2.139313 1_555
F8 Zr1 2.139313 1_555
F9 Zr0 2.139313 1_555
F9 Zr1 2.139313 1_555
F10 Zr3 2.024128 1_555
F10 Th0 2.402183 1_556
F11 Zr2 2.024128 1_555
F11 Th0 2.402183 1_555
F12 Zr2 2.024128 1_555
F12 Th1 2.402183 1_555
F13 Zr3 2.024128 1_555
F13 Th1 2.402183 1_556
F14 Zr3 2.126675 1_555
F14 Zr1 2.170656 1_555
F15 Zr2 2.126675 1_555
F15 Zr0 2.170656 1_555
F16 Zr1 2.065489 1_555
F16 Th1 2.374884 1_655
F17 Zr0 2.065489 1_555
F17 Th1 2.374884 1_546
F18 Zr0 2.065489 1_555
F18 Th0 2.374884 1_456
F19 Zr1 2.065489 1_555
F19 Th0 2.374884 1_565
F20 Zr3 2.076627 1_545
F20 Th0 2.348755 1_555
F21 Zr2 2.076627 1_655
F21 Th0 2.348755 1_556
F22 Zr2 2.076627 1_565
F22 Th1 2.348755 1_556
F23 Zr3 2.076627 1_455
F23 Th1 2.348755 1_555
