# generated using pymatgen
data_FeSn
_symmetry_space_group_name_H-M   'P 1'
_cell_length_a   5.30784070
_cell_length_b   5.30791015
_cell_length_c   4.50949031
_cell_angle_alpha   90.00000000
_cell_angle_beta   90.00000000
_cell_angle_gamma   119.99701071
_symmetry_Int_Tables_number   1
_chemical_formula_structural   FeSn
_chemical_formula_sum   'Fe3 Sn3'
_cell_volume   110.03038025
_cell_formula_units_Z   3
loop_
 _symmetry_equiv_pos_site_id
 _symmetry_equiv_pos_as_xyz
  1  'x, y, z'
loop_
 _atom_site_type_symbol
 _atom_site_label
 _atom_site_symmetry_multiplicity
 _atom_site_fract_x
 _atom_site_fract_y
 _atom_site_fract_z
 _atom_site_occupancy
  Fe  Fe0  1  0.50000000  -0.00000000  -0.00000000  1
  Fe  Fe1  1  0.50000000  0.50000000  -0.00000000  1
  Fe  Fe2  1  0.00000000  0.50000000  -0.00000000  1
  Sn  Sn0  1  0.00000000  -0.00000000  -0.00000000  1
  Sn  Sn1  1  0.33332329  0.66668878  0.50000000  1
  Sn  Sn2  1  0.66667671  0.33331122  0.50000000  1
loop_
_geom_bond_atom_site_label_1
_geom_bond_atom_site_label_2
_geom_bond_distance
_geom_bond_site_symmetry_2
Fe0 Sn0 2.653920 1_555
Fe0 Sn0 2.653920 1_655
Fe0 Fe1 2.653955 1_555
Fe0 Fe1 2.653955 1_545
Fe0 Fe2 2.654058 1_655
Fe0 Fe2 2.654058 1_545
Fe0 Sn1 2.726084 1_545
Fe0 Sn2 2.726084 1_555
Fe0 Sn2 2.726084 1_554
Fe0 Sn1 2.726084 1_544
Fe1 Fe2 2.653920 1_655
Fe1 Fe2 2.653920 1_555
Fe1 Sn0 2.654058 1_555
Fe1 Sn0 2.654058 1_665
Fe1 Sn2 2.726179 1_555
Fe1 Sn2 2.726179 1_554
Fe1 Sn1 2.726179 1_555
Fe1 Sn1 2.726179 1_554
Fe2 Sn0 2.653955 1_565
Fe2 Sn0 2.653955 1_555
Fe2 Sn2 2.726103 1_455
Fe2 Sn1 2.726103 1_554
Fe2 Sn2 2.726103 1_454
Fe2 Sn1 2.726103 1_555
Sn1 Sn2 3.064412 1_565
Sn1 Sn2 3.064483 1_455
Sn1 Sn2 3.064753 1_555
