# generated using pymatgen
data_NaY2Ta2P5SO24
_symmetry_space_group_name_H-M   'P 1'
_cell_length_a   8.96353925
_cell_length_b   8.96515922
_cell_length_c   23.36378339
_cell_angle_alpha   89.82790468
_cell_angle_beta   90.00207634
_cell_angle_gamma   119.90666085
_symmetry_Int_Tables_number   1
_chemical_formula_structural   NaY2Ta2P5SO24
_chemical_formula_sum   'Na3 Y6 Ta6 P15 S3 O72'
_cell_volume   1627.48301339
_cell_formula_units_Z   3
loop_
 _symmetry_equiv_pos_site_id
 _symmetry_equiv_pos_as_xyz
  1  'x, y, z'
loop_
 _atom_site_type_symbol
 _atom_site_label
 _atom_site_symmetry_multiplicity
 _atom_site_fract_x
 _atom_site_fract_y
 _atom_site_fract_z
 _atom_site_occupancy
  Na  Na0  1  0.00079633  0.99954725  0.00492669  1
  Na  Na1  1  0.66629847  0.33200877  0.83124927  1
  Na  Na2  1  0.66882635  0.33255644  0.33772367  1
  Y  Y0  1  0.99471793  0.99489257  0.64793948  1
  Y  Y1  1  0.00330542  0.00226668  0.14507739  1
  Y  Y2  1  0.66375578  0.34098110  0.68743571  1
  Y  Y3  1  0.66686013  0.33315555  0.97273870  1
  Y  Y4  1  0.66975249  0.33903412  0.48059935  1
  Y  Y5  1  0.33042278  0.66747580  0.30754341  1
  Ta  Ta0  1  0.00769268  0.01069283  0.35694690  1
  Ta  Ta1  1  0.99928886  -0.00002344  0.85545756  1
  Ta  Ta2  1  0.66412476  0.32538274  0.18390121  1
  Ta  Ta3  1  0.33166231  0.66554491  0.02336129  1
  Ta  Ta4  1  0.33868794  0.66813061  0.51354227  1
  Ta  Ta5  1  0.33421884  0.66666465  0.81226043  1
  P  P0  1  0.29855103  0.02305624  0.25100877  1
  P  P1  1  0.97814399  0.27633543  0.25073048  1
  P  P2  1  0.28762042  0.29054050  0.75523428  1
  P  P3  1  0.00243587  0.71105595  0.75588966  1
  P  P4  1  0.70854925  0.00026589  0.75577364  1
  P  P5  1  0.65423769  0.62890182  0.58199488  1
  P  P6  1  0.95676860  0.61268541  0.08114887  1
  P  P7  1  0.65435885  0.03811491  0.08059461  1
  P  P8  1  0.38616927  0.34450562  0.08080295  1
  P  P9  1  0.61968114  0.68044350  0.91605207  1
  P  P10  1  0.06087548  0.37985839  0.91598716  1
  P  P11  1  0.31985342  0.93933060  0.91565488  1
  P  P12  1  0.63081379  0.95354492  0.41335899  1
  P  P13  1  0.32683040  0.37406726  0.41420462  1
  P  P14  1  0.04873971  0.67879065  0.41419821  1
  S  S0  1  0.72168287  0.69870848  0.25090660  1
  S  S1  1  0.97807930  0.34908602  0.58148304  1
  S  S2  1  0.37240031  0.02330923  0.58141856  1
  O  O0  1  0.20248667  0.04733430  0.30426187  1
  O  O1  1  0.83225161  0.78405115  0.30194724  1
  O  O2  1  0.95309907  0.15692497  0.30446148  1
  O  O3  1  0.18380227  0.17121368  0.80821501  1
  O  O4  1  0.98543259  0.81420297  0.80847525  1
  O  O5  1  0.82800735  0.01493094  0.80860027  1
  O  O6  1  0.77822412  0.96608032  0.70192588  1
  O  O7  1  0.18538503  0.22112173  0.70118387  1
  O  O8  1  0.03763441  0.81415013  0.70160988  1
  O  O9  1  0.79441905  0.79751077  0.19855643  1
  O  O10  1  0.99952544  0.19573577  0.19735274  1
  O  O11  1  0.19344442  0.99317983  0.19769632  1
  O  O12  1  0.90176174  0.38019133  0.63310423  1
  O  O13  1  0.48080765  0.09684809  0.63299142  1
  O  O14  1  0.61687455  0.51506459  0.63575753  1
  O  O15  1  0.86315775  0.49606598  0.13588540  1
  O  O16  1  0.63181474  0.13177860  0.13592750  1
  O  O17  1  0.50063411  0.36472175  0.13544867  1
  O  O18  1  0.46584212  0.31695266  0.02814468  1
  O  O19  1  0.85036726  0.53412698  0.02831708  1
  O  O20  1  0.68501124  0.14867035  0.02856041  1
  O  O21  1  0.45334586  0.13203386  0.53132180  1
  O  O22  1  0.68368911  0.54333228  0.53076201  1
  O  O23  1  0.86658153  0.31477996  0.53170695  1
  O  O24  1  0.53096262  0.70003692  0.97072390  1
  O  O25  1  0.16840313  0.46767568  0.97089840  1
  O  O26  1  0.29920764  0.83071717  0.97058885  1
  O  O27  1  0.53495968  0.83496877  0.46734598  1
  O  O28  1  0.30181967  0.46722212  0.46759114  1
  O  O29  1  0.16516083  0.70245833  0.46792983  1
  O  O30  1  0.12684905  0.64881799  0.36178763  1
  O  O31  1  0.52332223  0.87438779  0.36122898  1
  O  O32  1  0.35727033  0.48059963  0.36149355  1
  O  O33  1  0.15763484  0.48993999  0.86346327  1
  O  O34  1  0.33366680  0.84320231  0.86323459  1
  O  O35  1  0.51026884  0.66724411  0.86338335  1
  O  O36  1  0.04315510  0.85095207  0.40447632  1
  O  O37  1  0.80697312  0.95606978  0.40472162  1
  O  O38  1  0.15067175  0.19784712  0.40691648  1
  O  O39  1  0.04695604  0.19849621  0.91031322  1
  O  O40  1  0.15226647  0.95307423  0.90977586  1
  O  O41  1  0.80059172  0.84802141  0.91015815  1
  O  O42  1  0.01237975  0.20700566  0.58975367  1
  O  O43  1  0.19889914  0.99666507  0.58956725  1
  O  O44  1  0.80076810  0.81097929  0.59101636  1
  O  O45  1  0.99345386  0.79588790  0.08892225  1
  O  O46  1  0.79849444  0.99834194  0.08890331  1
  O  O47  1  0.20158295  0.19897624  0.08785451  1
  O  O48  1  0.69184765  0.16090939  0.75498822  1
  O  O49  1  0.46474228  0.30539963  0.75533195  1
  O  O50  1  0.84117535  0.53379129  0.75513593  1
  O  O51  1  0.71238566  0.52549081  0.24414082  1
  O  O52  1  0.80627173  0.28642114  0.24190832  1
  O  O53  1  0.47712587  0.19679986  0.24126300  1
  O  O54  1  0.63963986  0.52211998  0.91573278  1
  O  O55  1  0.88297332  0.36071059  0.91587128  1
  O  O56  1  0.47835098  0.11713560  0.91578726  1
  O  O57  1  0.66843533  0.13644444  0.42344838  1
  O  O58  1  0.46862838  0.33046220  0.42315791  1
  O  O59  1  0.86461460  0.53172371  0.42223710  1
  O  O60  1  0.38106950  0.51717709  0.07203518  1
  O  O61  1  0.13503414  0.61872334  0.07199553  1
  O  O62  1  0.48129401  0.86307771  0.07193535  1
  O  O63  1  0.35556789  0.85032516  0.56950508  1
  O  O64  1  0.48881834  0.64289076  0.56617617  1
  O  O65  1  0.14713441  0.50879046  0.56884513  1
  O  O66  1  0.34060333  0.88296348  0.26122160  1
  O  O67  1  0.54755525  0.66729530  0.25832941  1
  O  O68  1  0.12394197  0.45554501  0.26031548  1
  O  O69  1  0.30965569  0.47188929  0.76832325  1
  O  O70  1  0.16247024  0.69041649  0.76890539  1
  O  O71  1  0.52847798  0.83866116  0.76866744  1
loop_
_geom_bond_atom_site_label_1
_geom_bond_atom_site_label_2
_geom_bond_distance
_geom_bond_site_symmetry_2
Na0 O47 2.646040 1_565
Na0 O45 2.654788 1_455
Na0 O46 2.668033 1_455
Na0 O39 2.734845 1_564
Na0 O40 2.743887 1_554
Na0 O41 2.748655 1_454
Na1 O48 2.438598 1_555
Na1 O49 2.457544 1_555
Na1 O50 2.458697 1_555
Na1 O56 2.681679 1_555
Na1 O55 2.692874 1_555
Na1 O54 2.698975 1_555
Na2 O59 2.657661 1_555
Na2 O57 2.659947 1_555
Na2 O58 2.677917 1_555
Na2 O52 2.685917 1_555
Na2 O51 2.688629 1_555
Na2 O53 2.728326 1_555
O0 P0 1.589163 1_555
O0 Ta0 2.024234 1_555
O1 S0 1.496314 1_555
O1 Ta0 2.254334 1_665
O2 P1 1.588920 1_555
O2 Ta0 2.022846 1_655
O3 P2 1.594383 1_555
O3 Ta1 1.941267 1_455
O4 P3 1.592227 1_655
O4 Ta1 1.949075 1_565
O5 P4 1.596136 1_555
O5 Ta1 1.943667 1_555
O6 P4 1.503328 1_565
O6 Y0 2.218509 1_555
O7 P2 1.502579 1_555
O7 Y0 2.267247 1_445
O8 P3 1.504752 1_555
O8 Y0 2.226059 1_455
O9 S0 1.457161 1_555
O9 Y1 2.235097 1_665
O10 P1 1.502553 1_555
O10 Y1 2.138364 1_655
O11 P0 1.503696 1_565
O11 Y1 2.135510 1_565
O12 S1 1.480752 1_555
O12 Y2 2.352851 1_555
O13 S2 1.482099 1_555
O13 Y2 2.352683 1_555
O14 P5 1.543699 1_555
O14 Y2 2.170890 1_555
O15 P6 1.596831 1_555
O15 Ta2 2.012566 1_555
O16 P7 1.610276 1_555
O16 Ta2 1.965504 1_555
O17 P8 1.591054 1_555
O17 Ta2 2.016508 1_555
O18 P8 1.504146 1_555
O18 Y3 2.163667 1_554
O19 P6 1.504852 1_555
O19 Y3 2.167179 1_554
O20 P7 1.502352 1_555
O20 Y3 2.172165 1_554
O21 S2 1.460983 1_555
O21 Y4 2.237937 1_555
O22 P5 1.516074 1_555
O22 Y4 2.128033 1_555
O23 S1 1.463368 1_555
O23 Y4 2.228590 1_555
O24 P9 1.560630 1_555
O24 Ta3 2.060686 1_556
O25 P10 1.563337 1_555
O25 Ta3 2.053059 1_556
O26 P11 1.562854 1_555
O26 Ta3 2.053327 1_556
O27 P12 1.593897 1_555
O27 Ta4 1.965626 1_555
O28 P13 1.580029 1_555
O28 Ta4 1.980930 1_555
O29 P14 1.578188 1_555
O29 Ta4 2.030997 1_555
O30 P14 1.500487 1_555
O30 Y5 2.158325 1_555
O31 P12 1.496211 1_555
O31 Y5 2.195315 1_555
O32 P13 1.495457 1_555
O32 Y5 2.200666 1_555
O33 P10 1.539928 1_555
O33 Ta5 1.983610 1_555
O34 P11 1.539732 1_555
O34 Ta5 1.985553 1_555
O35 P9 1.541139 1_555
O35 Ta5 1.977014 1_555
O36 P14 1.584704 1_555
O36 Ta0 1.956898 1_565
O37 P12 1.580780 1_555
O37 Ta0 1.959840 1_665
O38 P13 1.591293 1_555
O38 Ta0 1.920447 1_555
O39 P10 1.573476 1_555
O39 Ta1 2.061085 1_455
O40 P11 1.573219 1_555
O40 Ta1 2.058942 1_465
O41 P9 1.573232 1_555
O41 Ta1 2.057062 1_565
O42 S1 1.464036 1_455
O42 Y0 2.274558 1_445
O43 S2 1.463289 1_565
O43 Y0 2.276142 1_455
O44 P5 1.515988 1_555
O44 Y0 2.159698 1_555
O45 P6 1.517218 1_555
O45 Y1 2.236983 1_665
O46 P7 1.514247 1_565
O46 Y1 2.242699 1_665
O47 P8 1.520868 1_555
O47 Y1 2.217371 1_555
O48 P4 1.520443 1_555
O48 Y2 2.355970 1_555
O49 P2 1.525598 1_555
O49 Y2 2.286931 1_555
O50 P3 1.524718 1_655
O50 Y2 2.300862 1_555
O51 S0 1.521818 1_555
O51 Ta2 2.151201 1_555
O52 P1 1.600884 1_555
O52 Ta2 2.005745 1_555
O53 P0 1.597462 1_555
O53 Ta2 1.999657 1_555
O54 P9 1.516583 1_555
O54 Y3 2.258756 1_555
O55 P10 1.516366 1_655
O55 Y3 2.258282 1_555
O56 P11 1.516954 1_545
O56 Y3 2.264601 1_555
O57 P12 1.519508 1_545
O57 Y4 2.252778 1_555
O58 P13 1.518885 1_555
O58 Y4 2.217955 1_555
O59 P14 1.525178 1_655
O59 Y4 2.207157 1_555
O60 P8 1.584013 1_555
O60 Ta3 1.958807 1_555
O61 P6 1.586071 1_455
O61 Ta3 1.957863 1_555
O62 P7 1.576174 1_565
O62 Ta3 1.966325 1_555
O63 S2 1.508170 1_565
O63 Ta4 2.041283 1_555
O64 P5 1.592470 1_555
O64 Ta4 1.917340 1_555
O65 S1 1.505788 1_455
O65 Ta4 2.049744 1_555
O66 P0 1.498903 1_565
O66 Y5 2.173342 1_555
O67 S0 1.451514 1_555
O67 Y5 2.261283 1_555
O68 P1 1.499250 1_455
O68 Y5 2.181477 1_555
O69 P2 1.567989 1_555
O69 Ta5 1.943918 1_555
O70 P3 1.564845 1_555
O70 Ta5 1.940838 1_555
O71 P4 1.568620 1_565
O71 Ta5 1.939145 1_555
