# generated using pymatgen
data_Na2Nd2MgTi2O8
_symmetry_space_group_name_H-M   'P 1'
_cell_length_a   3.68413875
_cell_length_b   3.68413875
_cell_length_c   16.54658055
_cell_angle_alpha   90.00000000
_cell_angle_beta   90.00000000
_cell_angle_gamma   90.00000000
_symmetry_Int_Tables_number   1
_chemical_formula_structural   Na2Nd2MgTi2O8
_chemical_formula_sum   'Na2 Nd2 Mg1 Ti2 O8'
_cell_volume   224.58472457
_cell_formula_units_Z   1
loop_
 _symmetry_equiv_pos_site_id
 _symmetry_equiv_pos_as_xyz
  1  'x, y, z'
loop_
 _atom_site_type_symbol
 _atom_site_label
 _atom_site_symmetry_multiplicity
 _atom_site_fract_x
 _atom_site_fract_y
 _atom_site_fract_z
 _atom_site_occupancy
  Na  Na0  1  0.25000000  0.25000000  0.53158809  1
  Na  Na1  1  0.75000000  0.75000000  0.40447528  1
  Nd  Nd0  1  0.75000000  0.75000000  0.14914128  1
  Nd  Nd1  1  0.25000000  0.25000000  0.97898816  1
  Mg  Mg0  1  0.25000000  0.25000000  0.75536726  1
  Ti  Ti0  1  0.25000000  0.25000000  0.28370542  1
  Ti  Ti1  1  0.75000000  0.75000000  0.65376961  1
  O  O0  1  0.75000000  0.75000000  0.00279894  1
  O  O1  1  0.25000000  0.25000000  0.11501713  1
  O  O2  1  0.75000000  0.75000000  0.54611471  1
  O  O3  1  0.25000000  0.25000000  0.39126347  1
  O  O4  1  0.75000000  0.25000000  0.24891500  1
  O  O5  1  0.25000000  0.75000000  0.24891500  1
  O  O6  1  0.75000000  0.25000000  0.69190933  1
  O  O7  1  0.25000000  0.75000000  0.69190933  1
loop_
_geom_bond_atom_site_label_1
_geom_bond_atom_site_label_2
_geom_bond_distance
_geom_bond_site_symmetry_2
Na0 O3 2.321893 1_555
Na0 O2 2.616145 1_455
Na0 O2 2.616145 1_555
Na0 O2 2.616145 1_445
Na0 O2 2.616145 1_545
Na1 O2 2.343648 1_555
Na1 O3 2.614236 1_655
Na1 O3 2.614236 1_665
Na1 O3 2.614236 1_565
Na1 O3 2.614236 1_555
Nd0 O0 2.421465 1_555
Nd0 O5 2.473608 1_555
Nd0 O5 2.473608 1_655
Nd0 O4 2.473608 1_555
Nd0 O4 2.473608 1_565
Nd0 O1 2.665568 1_665
Nd0 O1 2.665568 1_555
Nd0 O1 2.665568 1_565
Nd0 O1 2.665568 1_655
Nd1 O1 2.250814 1_556
Nd1 O0 2.634704 1_456
Nd1 O0 2.634704 1_556
Nd1 O0 2.634704 1_446
Nd1 O0 2.634704 1_546
Mg0 O6 2.120317 1_555
Mg0 O6 2.120317 1_455
Mg0 O7 2.120317 1_545
Mg0 O7 2.120317 1_555
O2 Ti1 1.781320 1_555
O3 Ti0 1.779718 1_555
O4 Ti0 1.929924 1_555
O4 Ti0 1.929924 1_655
O5 Ti0 1.929924 1_565
O5 Ti0 1.929924 1_555
O6 Ti1 1.947173 1_545
O6 Ti1 1.947173 1_555
O7 Ti1 1.947173 1_455
O7 Ti1 1.947173 1_555
