# generated using pymatgen
data_Na3MgNbSi2SO12
_symmetry_space_group_name_H-M   'P 1'
_cell_length_a   9.04833513
_cell_length_b   9.04833483
_cell_length_c   22.56820392
_cell_angle_alpha   89.51864090
_cell_angle_beta   90.48135910
_cell_angle_gamma   119.67945921
_symmetry_Int_Tables_number   1
_chemical_formula_structural   Na3MgNbSi2SO12
_chemical_formula_sum   'Na18 Mg6 Nb6 Si12 S6 O72'
_cell_volume   1605.23340216
_cell_formula_units_Z   6
loop_
 _symmetry_equiv_pos_site_id
 _symmetry_equiv_pos_as_xyz
  1  'x, y, z'
loop_
 _atom_site_type_symbol
 _atom_site_label
 _atom_site_symmetry_multiplicity
 _atom_site_fract_x
 _atom_site_fract_y
 _atom_site_fract_z
 _atom_site_occupancy
  Na  Na0  1  0.65651509  0.01165434  0.25305874  1
  Na  Na1  1  0.97655379  0.61666125  0.24669030  1
  Na  Na2  1  0.98834566  0.34348491  0.75305874  1
  Na  Na3  1  0.38333875  0.02344621  0.74669030  1
  Na  Na4  1  0.32318209  0.34498734  0.58639174  1
  Na  Na5  1  0.64322079  0.94999425  0.58002330  1
  Na  Na6  1  0.65501266  0.67681791  0.08639174  1
  Na  Na7  1  0.05000575  0.35677921  0.08002330  1
  Na  Na8  1  0.98984809  0.67832134  0.91972574  1
  Na  Na9  1  0.30988679  0.28332825  0.91335730  1
  Na  Na10  1  0.32167866  0.01015191  0.41972574  1
  Na  Na11  1  0.71667175  0.69011321  0.41335730  1
  Na  Na12  1  0.98897832  0.98244378  0.49336053  1
  Na  Na13  1  0.01755622  0.01102168  0.99336053  1
  Na  Na14  1  0.65564532  0.31577678  0.82669353  1
  Na  Na15  1  0.68422322  0.34435468  0.32669353  1
  Na  Na16  1  0.32231132  0.64911078  0.16002753  1
  Na  Na17  1  0.35088922  0.67768868  0.66002753  1
  Mg  Mg0  1  0.98177327  0.99363024  0.35218601  1
  Mg  Mg1  1  0.00636976  0.01822673  0.85218601  1
  Mg  Mg2  1  0.64844027  0.32696324  0.68551901  1
  Mg  Mg3  1  0.67303676  0.35155973  0.18551901  1
  Mg  Mg4  1  0.31510627  0.66029724  0.01885301  1
  Mg  Mg5  1  0.33970276  0.68489373  0.51885301  1
  Nb  Nb0  1  0.99554163  0.99825201  0.64696442  1
  Nb  Nb1  1  0.00174799  0.00445837  0.14696442  1
  Nb  Nb2  1  0.66220863  0.33158501  0.98029742  1
  Nb  Nb3  1  0.66841499  0.33779137  0.48029742  1
  Nb  Nb4  1  0.32887463  0.66491901  0.31363142  1
  Nb  Nb5  1  0.33508099  0.67112537  0.81363142  1
  Si  Si0  1  0.70449278  0.70262437  0.25305084  1
  Si  Si1  1  0.99801389  0.29117520  0.25197812  1
  Si  Si2  1  0.29737563  0.29550722  0.75305084  1
  Si  Si3  1  0.70882480  0.00198611  0.75197812  1
  Si  Si4  1  0.37115978  0.03595737  0.58638384  1
  Si  Si5  1  0.66468089  0.62450820  0.58531112  1
  Si  Si6  1  0.96404263  0.62884022  0.08638384  1
  Si  Si7  1  0.37549180  0.33531911  0.08531112  1
  Si  Si8  1  0.03782578  0.36929137  0.91971784  1
  Si  Si9  1  0.33134689  0.95784220  0.91864512  1
  Si  Si10  1  0.63070863  0.96217422  0.41971784  1
  Si  Si11  1  0.04215780  0.66865311  0.41864512  1
  S  S0  1  0.29200429  0.00268491  0.25155610  1
  S  S1  1  0.99731509  0.70799571  0.75155610  1
  S  S2  1  0.95867129  0.33601791  0.58488910  1
  S  S3  1  0.66398209  0.04132871  0.08488910  1
  S  S4  1  0.62533729  0.66935191  0.91822310  1
  S  S5  1  0.33064809  0.37466271  0.41822310  1
  O  O0  1  0.21769722  0.02421033  0.30546649  1
  O  O1  1  0.82281991  0.78875476  0.30940730  1
  O  O2  1  0.97790652  0.17206202  0.30603257  1
  O  O3  1  0.21124524  0.17718009  0.80940730  1
  O  O4  1  0.97578967  0.78230278  0.80546649  1
  O  O5  1  0.82793798  0.02209348  0.80603257  1
  O  O6  1  0.80137287  0.97132070  0.69044895  1
  O  O7  1  0.16342041  0.19588145  0.69302138  1
  O  O8  1  0.02670094  0.82250913  0.69843580  1
  O  O9  1  0.80411855  0.83657959  0.19302138  1
  O  O10  1  0.02867930  0.19862713  0.19044895  1
  O  O11  1  0.17749087  0.97329906  0.19843580  1
  O  O12  1  0.88436422  0.35754333  0.63879949  1
  O  O13  1  0.48948691  0.12208776  0.64274030  1
  O  O14  1  0.64457352  0.50539502  0.63936557  1
  O  O15  1  0.87791224  0.51051309  0.14274030  1
  O  O16  1  0.64245667  0.11563578  0.13879949  1
  O  O17  1  0.49460498  0.35542648  0.13936557  1
  O  O18  1  0.46803987  0.30465370  0.02378195  1
  O  O19  1  0.83008741  0.52921445  0.02635438  1
  O  O20  1  0.69336794  0.15584213  0.03176880  1
  O  O21  1  0.47078555  0.16991259  0.52635438  1
  O  O22  1  0.69534630  0.53196013  0.52378195  1
  O  O23  1  0.84415787  0.30663206  0.53176880  1
  O  O24  1  0.55103022  0.69087733  0.97213349  1
  O  O25  1  0.15615291  0.45542176  0.97607430  1
  O  O26  1  0.31123952  0.83872902  0.97269957  1
  O  O27  1  0.54457824  0.84384709  0.47607430  1
  O  O28  1  0.30912267  0.44896978  0.47213349  1
  O  O29  1  0.16127098  0.68876048  0.47269957  1
  O  O30  1  0.13470587  0.63798770  0.35711595  1
  O  O31  1  0.49675341  0.86254845  0.35968838  1
  O  O32  1  0.36003394  0.48917613  0.36510280  1
  O  O33  1  0.13745155  0.50324659  0.85968838  1
  O  O34  1  0.36201230  0.86529413  0.85711595  1
  O  O35  1  0.51082387  0.63996606  0.86510280  1
  O  O36  1  0.02667793  0.83842373  0.40995041  1
  O  O37  1  0.81614443  0.98472314  0.41255947  1
  O  O38  1  0.19196185  0.20197842  0.40900683  1
  O  O39  1  0.01527686  0.18385557  0.91255947  1
  O  O40  1  0.16157627  0.97332207  0.90995041  1
  O  O41  1  0.79802158  0.80803815  0.90900683  1
  O  O42  1  0.96525466  0.16979336  0.58669404  1
  O  O43  1  0.18484262  0.03612366  0.59030365  1
  O  O44  1  0.83707751  0.82084314  0.58982806  1
  O  O45  1  0.96387634  0.81515738  0.09030365  1
  O  O46  1  0.83020664  0.03474534  0.08669404  1
  O  O47  1  0.17915686  0.16292249  0.08982806  1
  O  O48  1  0.69334493  0.17175673  0.74328341  1
  O  O49  1  0.48281143  0.31805614  0.74589247  1
  O  O50  1  0.85862885  0.53531142  0.74233983  1
  O  O51  1  0.68194386  0.51718857  0.24589247  1
  O  O52  1  0.82824327  0.30665507  0.24328341  1
  O  O53  1  0.46468858  0.14137115  0.24233983  1
  O  O54  1  0.63192166  0.50312636  0.92002704  1
  O  O55  1  0.85150962  0.36945666  0.92363665  1
  O  O56  1  0.50374451  0.15417614  0.92316106  1
  O  O57  1  0.63054334  0.14849038  0.42363665  1
  O  O58  1  0.49687364  0.36807834  0.42002704  1
  O  O59  1  0.84582386  0.49625549  0.42316106  1
  O  O60  1  0.36001093  0.50509073  0.07661741  1
  O  O61  1  0.14947743  0.65139014  0.07922647  1
  O  O62  1  0.52529485  0.86864542  0.07567383  1
  O  O63  1  0.34860986  0.85052257  0.57922647  1
  O  O64  1  0.49490927  0.63998907  0.57661741  1
  O  O65  1  0.13135458  0.47470515  0.57567383  1
  O  O66  1  0.29858766  0.83646036  0.25336104  1
  O  O67  1  0.51817562  0.70279066  0.25697065  1
  O  O68  1  0.17041051  0.48751014  0.25649506  1
  O  O69  1  0.29720934  0.48182438  0.75697065  1
  O  O70  1  0.16353964  0.70141234  0.75336104  1
  O  O71  1  0.51248986  0.82958949  0.75649506  1
loop_
_geom_bond_atom_site_label_1
_geom_bond_atom_site_label_2
_geom_bond_distance
_geom_bond_site_symmetry_2
Na0 O52 2.340210 1_555
Na0 O67 2.432782 1_545
Na0 O53 2.540566 1_555
Na0 O16 2.760970 1_555
Na0 O31 2.788080 1_545
Na0 O2 2.789908 1_555
Na0 O66 2.813868 1_545
Na0 O9 2.879361 1_545
Na1 O51 2.353716 1_555
Na1 O52 2.439096 1_555
Na1 O15 2.525157 1_555
Na1 O68 2.551559 1_655
Na1 O66 2.593732 1_655
Na1 O30 2.823179 1_655
Na1 O1 2.928868 1_555
Na1 O11 3.011486 1_655
Na2 O48 2.340210 1_555
Na2 O69 2.432782 1_655
Na2 O50 2.540565 1_555
Na2 O12 2.760970 1_555
Na2 O33 2.788080 1_655
Na2 O5 2.789908 1_555
Na2 O70 2.813868 1_655
Na2 O7 2.879361 1_655
Na3 O49 2.353716 1_555
Na3 O48 2.439096 1_555
Na3 O13 2.525157 1_555
Na3 O71 2.551559 1_545
Na3 O70 2.593732 1_545
Na3 O34 2.823179 1_545
Na3 O3 2.928868 1_555
Na3 O8 3.011486 1_545
Na4 O64 2.340214 1_555
Na4 O43 2.432782 1_555
Na4 O65 2.540579 1_555
Na4 O28 2.760954 1_555
Na4 O7 2.788080 1_555
Na4 O14 2.789908 1_555
Na4 O42 2.813868 1_455
Na4 O21 2.879361 1_555
Na5 O63 2.353726 1_555
Na5 O64 2.439087 1_555
Na5 O27 2.525135 1_555
Na5 O44 2.551559 1_555
Na5 O42 2.593732 1_565
Na5 O6 2.823179 1_555
Na5 O13 2.928868 1_565
Na5 O23 3.011486 1_565
Na6 O60 2.340214 1_555
Na6 O45 2.432782 1_555
Na6 O62 2.540579 1_555
Na6 O24 2.760954 1_554
Na6 O9 2.788080 1_555
Na6 O17 2.789908 1_555
Na6 O46 2.813868 1_565
Na6 O19 2.879361 1_555
Na7 O61 2.353726 1_555
Na7 O60 2.439087 1_555
Na7 O25 2.525135 1_554
Na7 O47 2.551559 1_555
Na7 O46 2.593732 1_455
Na7 O10 2.823179 1_555
Na7 O15 2.928868 1_455
Na7 O20 3.011486 1_455
Na8 O40 2.340210 1_655
Na8 O55 2.432790 1_555
Na8 O41 2.540566 1_555
Na8 O4 2.760970 1_555
Na8 O19 2.788060 1_556
Na8 O26 2.789908 1_655
Na8 O54 2.813860 1_555
Na8 O33 2.879361 1_655
Na9 O39 2.353716 1_555
Na9 O40 2.439096 1_545
Na9 O3 2.525157 1_555
Na9 O56 2.551573 1_555
Na9 O54 2.593736 1_555
Na9 O18 2.823165 1_556
Na9 O25 2.928868 1_555
Na9 O35 3.011486 1_555
Na10 O36 2.340210 1_545
Na10 O57 2.432790 1_555
Na10 O38 2.540565 1_555
Na10 O0 2.760970 1_555
Na10 O21 2.788060 1_555
Na10 O29 2.789908 1_545
Na10 O58 2.813860 1_555
Na10 O31 2.879361 1_545
Na11 O37 2.353716 1_555
Na11 O36 2.439096 1_655
Na11 O1 2.525157 1_555
Na11 O59 2.551573 1_555
Na11 O58 2.593736 1_555
Na11 O22 2.823165 1_555
Na11 O27 2.928868 1_555
Na11 O32 3.011486 1_555
Na12 O37 2.398906 1_555
Na12 O36 2.418729 1_655
Na12 O44 2.602595 1_555
Na12 O43 2.695114 1_665
Na12 O38 2.706576 1_665
Na12 O42 2.790078 1_565
Na13 O39 2.398906 1_555
Na13 O40 2.418729 1_545
Na13 O47 2.602595 1_556
Na13 O45 2.695114 1_446
Na13 O41 2.706576 1_445
Na13 O46 2.790078 1_456
Na14 O49 2.398906 1_555
Na14 O48 2.418729 1_555
Na14 O56 2.602595 1_555
Na14 O55 2.695114 1_555
Na14 O50 2.706576 1_555
Na14 O54 2.790078 1_555
Na15 O51 2.398906 1_555
Na15 O52 2.418729 1_555
Na15 O59 2.602595 1_555
Na15 O57 2.695114 1_555
Na15 O53 2.706576 1_555
Na15 O58 2.790078 1_555
Na16 O61 2.398906 1_555
Na16 O60 2.418729 1_555
Na16 O68 2.602595 1_555
Na16 O67 2.695114 1_555
Na16 O62 2.706576 1_555
Na16 O66 2.790078 1_555
Na17 O63 2.398906 1_555
Na17 O64 2.418729 1_555
Na17 O71 2.602595 1_555
Na17 O69 2.695114 1_555
Na17 O65 2.706576 1_555
Na17 O70 2.790078 1_555
Mg0 O2 1.928697 1_565
Mg0 O1 1.950275 1_555
Mg0 O37 2.005445 1_555
Mg0 O36 2.088588 1_655
Mg0 O0 2.278875 1_665
Mg0 O38 2.294452 1_665
Mg1 O5 1.928697 1_455
Mg1 O3 1.950275 1_555
Mg1 O39 2.005445 1_555
Mg1 O40 2.088588 1_545
Mg1 O4 2.278875 1_445
Mg1 O41 2.294452 1_445
Mg2 O14 1.928697 1_555
Mg2 O13 1.950275 1_555
Mg2 O49 2.005445 1_555
Mg2 O48 2.088588 1_555
Mg2 O12 2.278875 1_555
Mg2 O50 2.294452 1_555
Mg3 O17 1.928697 1_555
Mg3 O15 1.950275 1_555
Mg3 O51 2.005445 1_555
Mg3 O52 2.088588 1_555
Mg3 O16 2.278875 1_555
Mg3 O53 2.294452 1_555
Mg4 O26 1.928697 1_554
Mg4 O25 1.950275 1_554
Mg4 O61 2.005445 1_555
Mg4 O60 2.088588 1_555
Mg4 O24 2.278875 1_554
Mg4 O62 2.294452 1_555
Mg5 O29 1.928697 1_555
Mg5 O27 1.950275 1_555
Mg5 O63 2.005445 1_555
Mg5 O64 2.088588 1_555
Mg5 O28 2.278875 1_555
Mg5 O65 2.294452 1_555
Nb0 O6 1.926176 1_555
Nb0 O7 1.974911 1_665
Nb0 O44 2.004951 1_555
Nb0 O43 2.033383 1_665
Nb0 O8 2.089249 1_655
Nb0 O42 2.171161 1_565
Nb1 O10 1.926176 1_555
Nb1 O9 1.974911 1_445
Nb1 O47 2.004951 1_555
Nb1 O45 2.033383 1_445
Nb1 O11 2.089249 1_545
Nb1 O46 2.171161 1_455
Nb2 O18 1.926176 1_556
Nb2 O19 1.974911 1_556
Nb2 O56 2.004951 1_555
Nb2 O55 2.033383 1_555
Nb2 O20 2.089249 1_556
Nb2 O54 2.171161 1_555
Nb3 O22 1.926176 1_555
Nb3 O21 1.974911 1_555
Nb3 O59 2.004951 1_555
Nb3 O57 2.033383 1_555
Nb3 O23 2.089249 1_555
Nb3 O58 2.171161 1_555
Nb4 O30 1.926176 1_555
Nb4 O31 1.974911 1_555
Nb4 O68 2.004951 1_555
Nb4 O67 2.033383 1_555
Nb4 O32 2.089249 1_555
Nb4 O66 2.171161 1_555
Nb5 O34 1.926176 1_555
Nb5 O33 1.974911 1_555
Nb5 O71 2.004951 1_555
Nb5 O69 2.033383 1_555
Nb5 O35 2.089249 1_555
Nb5 O70 2.171161 1_555
O0 S0 1.455221 1_555
O1 Si0 1.593358 1_555
O2 Si1 1.571731 1_555
O3 Si2 1.593358 1_555
O4 S1 1.455221 1_555
O5 Si3 1.571731 1_555
O6 Si3 1.721212 1_565
O7 Si2 1.740117 1_555
O8 S1 1.514319 1_455
O9 Si0 1.740117 1_555
O10 Si1 1.721212 1_455
O11 S0 1.514319 1_565
O12 S2 1.455221 1_555
O13 Si4 1.593358 1_555
O14 Si5 1.571731 1_555
O15 Si6 1.593358 1_555
O16 S3 1.455221 1_555
O17 Si7 1.571731 1_555
O18 Si7 1.721212 1_555
O19 Si6 1.740117 1_555
O20 S3 1.514319 1_555
O21 Si4 1.740117 1_555
O22 Si5 1.721212 1_555
O23 S2 1.514319 1_555
O24 S4 1.455221 1_555
O25 Si8 1.593358 1_555
O26 Si9 1.571731 1_555
O27 Si10 1.593358 1_555
O28 S5 1.455221 1_555
O29 Si11 1.571731 1_555
O30 Si11 1.721212 1_555
O31 Si10 1.740117 1_555
O32 S5 1.514319 1_555
O33 Si8 1.740117 1_555
O34 Si9 1.721212 1_555
O35 S4 1.514319 1_555
O36 Si11 1.620309 1_555
O37 Si10 1.596249 1_555
O38 S5 1.455595 1_555
O39 Si8 1.596249 1_555
O40 Si9 1.620309 1_555
O41 S4 1.455595 1_555
O42 S2 1.534616 1_555
O43 Si4 1.689666 1_555
O44 Si5 1.689896 1_555
O45 Si6 1.689666 1_555
O46 S3 1.534616 1_555
O47 Si7 1.689896 1_555
O48 Si3 1.620309 1_555
O49 Si2 1.596249 1_555
O50 S1 1.455595 1_555
O51 Si0 1.596249 1_555
O52 Si1 1.620309 1_555
O53 S0 1.455595 1_555
O54 S4 1.534629 1_555
O55 Si8 1.689651 1_655
O56 Si9 1.689893 1_545
O57 Si10 1.689651 1_545
O58 S5 1.534629 1_555
O59 Si11 1.689893 1_655
O60 Si7 1.620320 1_555
O61 Si6 1.596234 1_455
O62 S3 1.455589 1_565
O63 Si4 1.596234 1_565
O64 Si5 1.620320 1_555
O65 S2 1.455589 1_455
O66 S0 1.534616 1_565
O67 Si0 1.689666 1_555
O68 Si1 1.689896 1_455
O69 Si2 1.689666 1_555
O70 S1 1.534616 1_455
O71 Si3 1.689896 1_565
