# generated using pymatgen
data_Na9Ca2Ta4Si6(PO12)3
_symmetry_space_group_name_H-M   'P 1'
_cell_length_a   9.14723066
_cell_length_b   27.38428855
_cell_length_c   22.47998826
_cell_angle_alpha   89.91624556
_cell_angle_beta   89.97700764
_cell_angle_gamma   119.96286016
_symmetry_Int_Tables_number   1
_chemical_formula_structural   Na9Ca2Ta4Si6(PO12)3
_chemical_formula_sum   'Na54 Ca12 Ta24 Si36 P18 O216'
_cell_volume   4878.42218145
_cell_formula_units_Z   6
loop_
 _symmetry_equiv_pos_site_id
 _symmetry_equiv_pos_as_xyz
  1  'x, y, z'
loop_
 _atom_site_type_symbol
 _atom_site_label
 _atom_site_symmetry_multiplicity
 _atom_site_fract_x
 _atom_site_fract_y
 _atom_site_fract_z
 _atom_site_occupancy
  Na  Na0  1  0.02234278  0.99949838  0.49606046  1
  Na  Na1  1  0.01467055  0.32862910  0.50281778  1
  Na  Na2  1  0.99818037  0.66666754  0.49930517  1
  Na  Na3  1  0.97970048  0.00768981  0.00200778  1
  Na  Na4  1  0.02447900  0.34404898  0.00258459  1
  Na  Na5  1  0.99801857  0.66675961  0.00318400  1
  Na  Na6  1  0.69758435  0.10989465  0.83563144  1
  Na  Na7  1  0.64615893  0.44677499  0.84151695  1
  Na  Na8  1  0.68171924  0.77751535  0.83088312  1
  Na  Na9  1  0.66121719  0.10414112  0.32657891  1
  Na  Na10  1  0.67295490  0.44289189  0.33488773  1
  Na  Na11  1  0.66889184  0.78118194  0.33358716  1
  Na  Na12  1  0.31736860  0.21786467  0.16091115  1
  Na  Na13  1  0.31176862  0.55648886  0.16799272  1
  Na  Na14  1  0.34066446  0.89518284  0.16424903  1
  Na  Na15  1  0.31597400  0.21684339  0.66377127  1
  Na  Na16  1  0.34388668  0.55617842  0.66763582  1
  Na  Na17  1  0.27433717  0.88385293  0.66376166  1
  Na  Na18  1  0.64137851  0.66295896  0.25442939  1
  Na  Na19  1  0.37876426  0.12062642  0.24501895  1
  Na  Na20  1  0.34743838  0.45457870  0.25785454  1
  Na  Na21  1  0.33865180  0.78510843  0.23267266  1
  Na  Na22  1  0.99887604  0.21429926  0.24730489  1
  Na  Na23  1  0.02683533  0.54955025  0.24847686  1
  Na  Na24  1  0.60818068  0.20705996  0.74991645  1
  Na  Na25  1  0.61896096  0.54072320  0.75925597  1
  Na  Na26  1  0.62177877  0.86965076  0.74447101  1
  Na  Na27  1  0.98821696  0.12492258  0.74655088  1
  Na  Na28  1  0.01904616  0.46164848  0.75572285  1
  Na  Na29  1  0.38920088  0.00452036  0.74178380  1
  Na  Na30  1  0.37519249  0.32888689  0.75643915  1
  Na  Na31  1  0.37580279  0.66769862  0.75059322  1
  Na  Na32  1  0.32250181  0.78121269  0.57463032  1
  Na  Na33  1  0.00879247  0.56287194  0.57187115  1
  Na  Na34  1  0.67577499  0.32774806  0.57220363  1
  Na  Na35  1  0.65888052  0.99020315  0.57384571  1
  Na  Na36  1  0.30830156  0.32653703  0.06965366  1
  Na  Na37  1  0.30701061  0.98770990  0.07234138  1
  Na  Na38  1  0.65804837  0.22481921  0.09104046  1
  Na  Na39  1  0.68035679  0.57104416  0.08979481  1
  Na  Na40  1  0.66173913  0.89894140  0.07177058  1
  Na  Na41  1  0.05350457  0.78033978  0.08343372  1
  Na  Na42  1  0.96797953  0.55018891  0.92900427  1
  Na  Na43  1  0.99973032  0.89388054  0.92037403  1
  Na  Na44  1  0.68948923  0.34180124  0.92256070  1
  Na  Na45  1  0.35017829  0.10802912  0.90788818  1
  Na  Na46  1  0.32668196  0.77235021  0.92754937  1
  Na  Na47  1  0.98819586  0.10096598  0.40928527  1
  Na  Na48  1  0.95162250  0.43387665  0.42322988  1
  Na  Na49  1  0.00191614  0.77478249  0.43354544  1
  Na  Na50  1  0.30646318  0.00696816  0.41712436  1
  Na  Na51  1  0.34182236  0.34256354  0.42678344  1
  Na  Na52  1  0.69174495  0.55224420  0.43025618  1
  Na  Na53  1  0.69027766  0.89330652  0.40914750  1
  Ca  Ca0  1  0.98691964  0.99592727  0.34431105  1
  Ca  Ca1  1  0.01248447  0.67118376  0.14401854  1
  Ca  Ca2  1  0.68116947  0.11728944  0.68318924  1
  Ca  Ca3  1  0.66739791  0.77332555  0.69116478  1
  Ca  Ca4  1  0.68478181  0.11932427  0.18133864  1
  Ca  Ca5  1  0.64575976  0.43823237  0.98559809  1
  Ca  Ca6  1  0.65798082  0.44152631  0.48782397  1
  Ca  Ca7  1  0.33212427  0.88774417  0.01572200  1
  Ca  Ca8  1  0.32642635  0.88749514  0.51751547  1
  Ca  Ca9  1  0.34301514  0.55918750  0.31981139  1
  Ca  Ca10  1  0.31837530  0.21528269  0.81689724  1
  Ca  Ca11  1  0.34169263  0.56129434  0.81331640  1
  Ta  Ta0  1  0.99099899  0.33351461  0.35460462  1
  Ta  Ta1  1  0.00987851  0.66610289  0.34856378  1
  Ta  Ta2  1  0.00390835  0.00322360  0.85434633  1
  Ta  Ta3  1  0.01038037  0.33669255  0.85478508  1
  Ta  Ta4  1  0.98873002  0.66214388  0.85482760  1
  Ta  Ta5  1  0.00126210  0.99760278  0.64365964  1
  Ta  Ta6  1  -0.00018222  0.33128583  0.64586070  1
  Ta  Ta7  1  0.00262465  0.67187073  0.64586793  1
  Ta  Ta8  1  0.99339980  0.99851742  0.15261805  1
  Ta  Ta9  1  0.98890449  0.32959749  0.14943199  1
  Ta  Ta10  1  0.66803807  0.44472057  0.68345947  1
  Ta  Ta11  1  0.66533292  0.44045147  0.18308792  1
  Ta  Ta12  1  0.65749090  0.77299958  0.18727775  1
  Ta  Ta13  1  0.67051905  0.11021094  0.98686938  1
  Ta  Ta14  1  0.67232964  0.78177063  0.97796243  1
  Ta  Ta15  1  0.66985569  0.11555117  0.48515565  1
  Ta  Ta16  1  0.67351206  0.77833540  0.48372513  1
  Ta  Ta17  1  0.33181236  0.22158122  0.01069304  1
  Ta  Ta18  1  0.33047367  0.55544565  0.01746652  1
  Ta  Ta19  1  0.33825729  0.22425184  0.51990486  1
  Ta  Ta20  1  0.33551819  0.55621389  0.51682632  1
  Ta  Ta21  1  0.34320306  0.22179493  0.31253561  1
  Ta  Ta22  1  0.32453379  0.88968468  0.31712113  1
  Ta  Ta23  1  0.33279700  0.88954044  0.81483009  1
  Si  Si0  1  0.28784556  0.33383681  0.25112519  1
  Si  Si1  1  0.30194617  0.66421695  0.24553887  1
  Si  Si2  1  0.70324054  0.23460006  0.25163492  1
  Si  Si3  1  0.68076029  0.89795846  0.25048849  1
  Si  Si4  1  0.98485240  0.42662986  0.25237031  1
  Si  Si5  1  0.99544594  0.76564182  0.24840488  1
  Si  Si6  1  0.29690297  0.42807636  0.74949910  1
  Si  Si7  1  0.28151634  0.76262373  0.75209527  1
  Si  Si8  1  0.99755498  0.57075341  0.74825437  1
  Si  Si9  1  0.00963187  0.90575276  0.75215759  1
  Si  Si10  1  0.70872189  0.99690189  0.74955971  1
  Si  Si11  1  0.71718889  0.33586110  0.74796389  1
  Si  Si12  1  0.96775354  0.11037320  0.58458402  1
  Si  Si13  1  0.96990988  0.44359248  0.58074612  1
  Si  Si14  1  0.36342525  0.34138674  0.58390122  1
  Si  Si15  1  0.36844457  0.67886611  0.58665080  1
  Si  Si16  1  0.66734949  0.21273896  0.58890659  1
  Si  Si17  1  0.66146072  0.54523373  0.58390262  1
  Si  Si18  1  0.97520691  0.21298373  0.08595875  1
  Si  Si19  1  0.95388332  0.87425334  0.08516537  1
  Si  Si20  1  0.66079341  0.34097093  0.07905875  1
  Si  Si21  1  0.65995024  0.68107509  0.08111594  1
  Si  Si22  1  0.36300175  0.11068589  0.08502019  1
  Si  Si23  1  0.36421292  0.44411957  0.08781919  1
  Si  Si24  1  0.63855374  0.22222949  0.91533532  1
  Si  Si25  1  0.63959074  0.89177759  0.91607932  1
  Si  Si26  1  0.02609189  0.12311486  0.90946077  1
  Si  Si27  1  0.03299608  0.78833801  0.91837865  1
  Si  Si28  1  0.33063718  0.65621015  0.91381375  1
  Si  Si29  1  0.34297778  0.99134325  0.91744208  1
  Si  Si30  1  0.62805743  0.31993038  0.41691018  1
  Si  Si31  1  0.64285845  0.65574139  0.41505595  1
  Si  Si32  1  0.34817216  0.12849558  0.41570442  1
  Si  Si33  1  0.34063150  0.78985417  0.41747742  1
  Si  Si34  1  0.04879055  0.22194311  0.41564846  1
  Si  Si35  1  0.02836694  0.89063281  0.42151372  1
  P  P0  1  0.29579760  0.99775426  0.25336785  1
  P  P1  1  0.71200922  0.56464154  0.24768627  1
  P  P2  1  0.01367204  0.10294515  0.25276466  1
  P  P3  1  0.27949833  0.09648341  0.74754412  1
  P  P4  1  0.98878668  0.23708733  0.75237710  1
  P  P5  1  0.71599817  0.66602431  0.75009208  1
  P  P6  1  0.96768721  0.77779201  0.58711051  1
  P  P7  1  0.36950483  0.01420851  0.58668938  1
  P  P8  1  0.68043748  0.87753693  0.58548119  1
  P  P9  1  0.96578223  0.53953349  0.07923099  1
  P  P10  1  0.67039546  0.01238720  0.08963534  1
  P  P11  1  0.38233286  0.77792516  0.08241470  1
  P  P12  1  0.63028775  0.55570958  0.91569510  1
  P  P13  1  0.04037585  0.45616453  0.91310885  1
  P  P14  1  0.32931459  0.32225391  0.91021247  1
  P  P15  1  0.62214009  0.99218233  0.41797543  1
  P  P16  1  0.31746481  0.45330742  0.41573484  1
  P  P17  1  0.03067825  0.55559151  0.41021995  1
  O  O0  1  0.23096184  0.00478978  0.31310459  1
  O  O1  1  0.19935391  0.34848208  0.30764168  1
  O  O2  1  0.18343653  0.66474380  0.30447348  1
  O  O3  1  0.83457986  0.27947285  0.30226366  1
  O  O4  1  0.82727452  0.59701468  0.30336677  1
  O  O5  1  0.77204591  0.91324717  0.31314538  1
  O  O6  1  0.01932743  0.07772589  0.31191096  1
  O  O7  1  0.97805183  0.39704911  0.31826551  1
  O  O8  1  0.96245054  0.71503538  0.29831555  1
  O  O9  1  0.17598717  0.06964337  0.80566943  1
  O  O10  1  0.20521216  0.39362508  0.81232904  1
  O  O11  1  0.15826185  0.71556181  0.80269857  1
  O  O12  1  0.00112081  0.27622567  0.80651993  1
  O  O13  1  0.97417322  0.59548349  0.81295506  1
  O  O14  1  0.02927423  0.94974197  0.80589142  1
  O  O15  1  0.82684011  0.99960878  0.80604799  1
  O  O16  1  0.84630751  0.34555975  0.80589034  1
  O  O17  1  0.80338992  0.65478211  0.80425267  1
  O  O18  1  0.81362751  0.33192977  0.68876352  1
  O  O19  1  0.83956577  0.67800748  0.69677801  1
  O  O20  1  0.80652957  0.98900401  0.69033982  1
  O  O21  1  0.16791278  0.05772015  0.69499421  1
  O  O22  1  0.17189815  0.38368128  0.69943348  1
  O  O23  1  0.18680246  0.73704951  0.68709150  1
  O  O24  1  0.96360147  0.26617516  0.69715258  1
  O  O25  1  0.01140655  0.61660848  0.69707313  1
  O  O26  1  0.02476072  0.94187914  0.69020529  1
  O  O27  1  0.79871334  0.26228833  0.18835680  1
  O  O28  1  0.77879783  0.59975173  0.19145775  1
  O  O29  1  0.80034963  0.94497454  0.19795989  1
  O  O30  1  0.02353849  0.06434074  0.20111847  1
  O  O31  1  0.97683302  0.37879991  0.20625879  1
  O  O32  1  0.05277814  0.75296963  0.18598533  1
  O  O33  1  0.16209184  0.31951682  0.19382563  1
  O  O34  1  0.18955743  0.65750595  0.18975023  1
  O  O35  1  0.16236370  0.99021928  0.20178606  1
  O  O36  1  0.91962343  0.12451914  0.64776889  1
  O  O37  1  0.86419595  0.45502313  0.63578215  1
  O  O38  1  0.87977751  0.77831246  0.64311772  1
  O  O39  1  0.45997156  0.04330606  0.64356242  1
  O  O40  1  0.50283582  0.38022447  0.63790935  1
  O  O41  1  0.44501398  0.69183282  0.65165864  1
  O  O42  1  0.63878066  0.18562546  0.65292776  1
  O  O43  1  0.63185057  0.50052750  0.63943255  1
  O  O44  1  0.65748717  0.84434504  0.64204462  1
  O  O45  1  0.94591201  0.18917067  0.15188795  1
  O  O46  1  0.86863192  0.50035383  0.13546333  1
  O  O47  1  0.82622114  0.82676837  0.13408240  1
  O  O48  1  0.65373136  0.04044007  0.14444491  1
  O  O49  1  0.63417687  0.38039170  0.13205759  1
  O  O50  1  0.64028349  0.70562473  0.14634150  1
  O  O51  1  0.47647340  0.13747504  0.14351896  1
  O  O52  1  0.50448894  0.45891616  0.14344641  1
  O  O53  1  0.46730588  0.76515120  0.13586566  1
  O  O54  1  0.46160126  0.09453901  0.03339971  1
  O  O55  1  0.41093956  0.41656036  0.03411784  1
  O  O56  1  0.50240438  0.79055868  0.02747012  1
  O  O57  1  0.81611508  0.16945190  0.04281143  1
  O  O58  1  0.87506714  0.51159699  0.02267823  1
  O  O59  1  0.85490241  0.85038280  0.02046293  1
  O  O60  1  0.68397993  0.04754966  0.03232301  1
  O  O61  1  0.69516894  0.37089585  0.01652136  1
  O  O62  1  0.67616827  0.72880131  0.03226025  1
  O  O63  1  0.46661052  0.05165992  0.52975830  1
  O  O64  1  0.41610390  0.37290627  0.52155154  1
  O  O65  1  0.48991256  0.72944117  0.53804949  1
  O  O66  1  0.68867394  0.17287073  0.53612346  1
  O  O67  1  0.72679953  0.52843904  0.52539234  1
  O  O68  1  0.69551233  0.84539715  0.52920494  1
  O  O69  1  0.82211619  0.09809874  0.53171842  1
  O  O70  1  0.85476871  0.42243709  0.52223594  1
  O  O71  1  0.86755980  0.77994308  0.53019579  1
  O  O72  1  0.53997884  0.23727610  0.96871167  1
  O  O73  1  0.52253136  0.55902405  0.96931939  1
  O  O74  1  0.57457815  0.90148955  0.97796394  1
  O  O75  1  0.18649265  0.16755997  0.95280939  1
  O  O76  1  0.15450303  0.49019422  0.96806543  1
  O  O77  1  0.13739054  0.80321294  0.97923589  1
  O  O78  1  0.33371369  0.28846908  0.96668390  1
  O  O79  1  0.30192228  0.60674347  0.96419788  1
  O  O80  1  0.27719757  0.95189438  0.97550895  1
  O  O81  1  0.53756821  0.29038863  0.47947327  1
  O  O82  1  0.52153681  0.60453351  0.46338131  1
  O  O83  1  0.56037856  0.95962147  0.47575801  1
  O  O84  1  0.34293926  0.17309003  0.46297876  1
  O  O85  1  0.29728630  0.48827321  0.46773687  1
  O  O86  1  0.27814976  0.80263677  0.47873733  1
  O  O87  1  0.18279811  0.23955909  0.47038265  1
  O  O88  1  0.14668382  0.55763507  0.46317196  1
  O  O89  1  0.14001593  0.90062400  0.47851433  1
  O  O90  1  0.13196597  0.20703007  0.35743070  1
  O  O91  1  0.10134180  0.55173622  0.35072256  1
  O  O92  1  0.14494574  0.88711868  0.36391254  1
  O  O93  1  0.49839302  0.27673089  0.36462483  1
  O  O94  1  0.56152557  0.64208778  0.35076472  1
  O  O95  1  0.49723322  0.95734860  0.36535035  1
  O  O96  1  0.35993024  0.16035888  0.35027901  1
  O  O97  1  0.31835748  0.47962866  0.35655298  1
  O  O98  1  0.37645482  0.83964650  0.36716972  1
  O  O99  1  0.05564647  0.14589891  0.84310209  1
  O  O100  1  0.12261401  0.48654054  0.85554337  1
  O  O101  1  0.14520054  0.83784986  0.86747673  1
  O  O102  1  0.32664060  0.29205279  0.85347194  1
  O  O103  1  0.36672349  0.64100583  0.84944244  1
  O  O104  1  0.36138185  0.95622316  0.85977100  1
  O  O105  1  0.52405896  0.20077617  0.85651067  1
  O  O106  1  0.54505100  0.55143164  0.85669344  1
  O  O107  1  0.50963194  0.88349420  0.86020495  1
  O  O108  1  0.02795188  0.27752705  0.40297855  1
  O  O109  1  0.01462304  0.61065663  0.41380446  1
  O  O110  1  0.98432285  0.94017501  0.41607070  1
  O  O111  1  0.81566129  0.32411519  0.41291979  1
  O  O112  1  0.83390364  0.66184140  0.41476135  1
  O  O113  1  0.80067038  0.00410658  0.40542658  1
  O  O114  1  0.18377948  0.06708935  0.42164554  1
  O  O115  1  0.15674196  0.39240812  0.42047807  1
  O  O116  1  0.17791485  0.73013263  0.39333735  1
  O  O117  1  0.02160335  0.06187367  0.91525675  1
  O  O118  1  0.02437339  0.39580525  0.91544803  1
  O  O119  1  0.00159089  0.72620977  0.89827307  1
  O  O120  1  0.16435704  0.32685710  0.91550522  1
  O  O121  1  0.15173158  0.65964600  0.91534959  1
  O  O122  1  0.19238217  0.00672703  0.90285935  1
  O  O123  1  0.82090331  0.28150585  0.90837033  1
  O  O124  1  0.80912881  0.61156951  0.91874988  1
  O  O125  1  0.83847827  0.94234108  0.90604557  1
  O  O126  1  0.97372968  0.05022017  0.58713778  1
  O  O127  1  0.01336723  0.39400848  0.59782502  1
  O  O128  1  0.97496746  0.72079720  0.58098832  1
  O  O129  1  0.18905706  0.00829714  0.58548839  1
  O  O130  1  0.17276034  0.32765821  0.60002319  1
  O  O131  1  0.17471579  0.67221764  0.58445284  1
  O  O132  1  0.83339666  0.27740068  0.58376779  1
  O  O133  1  0.81892887  0.60807666  0.60222706  1
  O  O134  1  0.84667764  0.93681928  0.58538400  1
  O  O135  1  0.99494877  0.27717781  0.08232964  1
  O  O136  1  0.97440489  0.59654124  0.08475175  1
  O  O137  1  0.96139881  0.93589258  0.09656129  1
  O  O138  1  0.83679676  0.00705042  0.09150241  1
  O  O139  1  0.81535828  0.33003775  0.09763692  1
  O  O140  1  0.82224124  0.67332713  0.07628744  1
  O  O141  1  0.18121913  0.05147087  0.09639889  1
  O  O142  1  0.17289706  0.39515681  0.10835515  1
  O  O143  1  0.20895323  0.72880980  0.06785793  1
  O  O144  1  0.69090622  0.05216506  0.75000115  1
  O  O145  1  0.71186346  0.39571374  0.74167700  1
  O  O146  1  0.69063929  0.71549252  0.76302860  1
  O  O147  1  0.44773313  0.09799388  0.75385746  1
  O  O148  1  0.48352419  0.43124071  0.74561951  1
  O  O149  1  0.46480521  0.76883369  0.75731505  1
  O  O150  1  0.83172715  0.17989146  0.76319313  1
  O  O151  1  0.82063208  0.50979597  0.73889489  1
  O  O152  1  0.83689896  0.84776016  0.75907592  1
  O  O153  1  0.68386920  0.17387542  0.26270120  1
  O  O154  1  0.71824049  0.50794140  0.24430104  1
  O  O155  1  0.65004949  0.83583284  0.22780482  1
  O  O156  1  0.86411118  0.11211992  0.24876379  1
  O  O157  1  0.81301868  0.43161693  0.24197153  1
  O  O158  1  0.82072808  0.76968718  0.24656466  1
  O  O159  1  0.46280881  0.05061985  0.23981073  1
  O  O160  1  0.47193996  0.39086889  0.23807163  1
  O  O161  1  0.47992820  0.72623292  0.24904071  1
  O  O162  1  0.65710103  0.16872086  0.93980970  1
  O  O163  1  0.66494960  0.50711667  0.92291478  1
  O  O164  1  0.64860678  0.83233854  0.91683403  1
  O  O165  1  0.85288616  0.11727893  0.93750457  1
  O  O166  1  0.86263740  0.44814020  0.91648632  1
  O  O167  1  0.84908750  0.78608027  0.92276551  1
  O  O168  1  0.51285626  0.05391171  0.92501991  1
  O  O169  1  0.48887247  0.38006834  0.91024809  1
  O  O170  1  0.48043648  0.71943660  0.93515065  1
  O  O171  1  0.62279988  0.04988321  0.42044186  1
  O  O172  1  0.64388371  0.38056167  0.40717953  1
  O  O173  1  0.66490203  0.71547742  0.44123389  1
  O  O174  1  0.52082436  0.12443226  0.42666909  1
  O  O175  1  0.47884065  0.45019427  0.42182117  1
  O  O176  1  0.51512954  0.78583982  0.42389154  1
  O  O177  1  0.86807399  0.16498493  0.43176867  1
  O  O178  1  0.85217107  0.50410880  0.41660113  1
  O  O179  1  0.84934917  0.82749291  0.42273346  1
  O  O180  1  0.33183772  0.16128638  0.05753988  1
  O  O181  1  0.36795048  0.50422270  0.07330269  1
  O  O182  1  0.37690170  0.83179472  0.09781364  1
  O  O183  1  0.15310321  0.22110741  0.05871595  1
  O  O184  1  0.14816157  0.54604167  0.07755434  1
  O  O185  1  0.13858840  0.88175167  0.08931998  1
  O  O186  1  0.48476908  0.27827306  0.07925136  1
  O  O187  1  0.49015748  0.61839627  0.06779987  1
  O  O188  1  0.51863970  0.95255601  0.08430573  1
  O  O189  1  0.36018504  0.28076586  0.58461680  1
  O  O190  1  0.33791762  0.61777643  0.56003966  1
  O  O191  1  0.36068238  0.95698893  0.58437018  1
  O  O192  1  0.50581887  0.21982799  0.57030607  1
  O  O193  1  0.48775097  0.54924456  0.57336140  1
  O  O194  1  0.53175963  0.88757698  0.57772311  1
  O  O195  1  0.15067721  0.16269339  0.56240690  1
  O  O196  1  0.14446077  0.50502359  0.57201125  1
  O  O197  1  0.15157406  0.82456498  0.58645922  1
  O  O198  1  0.30435540  0.27785278  0.26344013  1
  O  O199  1  0.34250356  0.61365413  0.24780713  1
  O  O200  1  0.30707806  0.94239204  0.25312187  1
  O  O201  1  0.51965929  0.23258347  0.25347478  1
  O  O202  1  0.53071169  0.55054528  0.25871102  1
  O  O203  1  0.48970288  0.89093592  0.25316111  1
  O  O204  1  0.18343150  0.16196819  0.24556313  1
  O  O205  1  0.15008332  0.48722667  0.24316258  1
  O  O206  1  0.15524980  0.82402624  0.27427027  1
  O  O207  1  0.29506857  0.15411685  0.73764068  1
  O  O208  1  0.31597437  0.48928217  0.74428145  1
  O  O209  1  0.29520066  0.82430408  0.76375199  1
  O  O210  1  0.15092582  0.23464290  0.74480963  1
  O  O211  1  0.15936541  0.56296817  0.74293930  1
  O  O212  1  0.18694857  0.90279512  0.75536880  1
  O  O213  1  0.53291636  0.28160256  0.75376488  1
  O  O214  1  0.55107792  0.61141328  0.73693257  1
  O  O215  1  0.52245405  0.93856573  0.75543425  1
loop_
_geom_bond_atom_site_label_1
_geom_bond_atom_site_label_2
_geom_bond_distance
_geom_bond_site_symmetry_2
Na0 O110 2.331985 1_455
Na0 O114 2.379867 1_565
Na0 O129 2.462095 1_565
Na0 O134 2.606243 1_455
Na0 O126 2.635043 1_465
Na0 O113 2.921780 1_465
Na1 O132 2.386538 1_455
Na1 O115 2.426290 1_555
Na1 O130 2.628237 1_555
Na1 O108 2.681251 1_555
Na1 O111 2.681800 1_455
Na1 O127 2.792761 1_555
Na2 O112 2.385839 1_555
Na2 O128 2.436412 1_555
Na2 O131 2.460232 1_655
Na2 O109 2.511641 1_655
Na2 O133 2.823862 1_555
Na2 O116 2.920402 1_655
Na3 O117 2.361042 1_654
Na3 O138 2.394040 1_555
Na3 O141 2.672237 1_655
Na3 O125 2.688717 1_544
Na3 O137 2.840840 1_545
Na3 O122 2.966680 1_654
Na4 O118 2.416408 1_554
Na4 O135 2.477076 1_455
Na4 O120 2.508607 1_554
Na4 O142 2.751331 1_555
Na4 O139 2.762846 1_455
Na4 O123 2.777526 1_454
Na5 O143 2.336336 1_655
Na5 O140 2.367667 1_555
Na5 O121 2.487192 1_654
Na5 O124 2.504962 1_554
Na5 O136 2.584737 1_555
Na5 O119 2.854656 1_654
Na6 O150 2.339109 1_555
Na6 O144 2.474057 1_555
Na6 O168 2.577616 1_555
Na6 O165 2.649634 1_555
Na6 O147 2.823099 1_555
Na6 O99 2.915996 1_655
Na6 O162 2.970352 1_555
Na7 O169 2.271312 1_555
Na7 O163 2.415296 1_555
Na7 O148 2.532700 1_555
Na7 O166 2.586831 1_555
Na7 O151 2.842816 1_555
Na7 O145 2.863785 1_555
Na8 O146 2.316041 1_555
Na8 O152 2.362735 1_555
Na8 O149 2.502220 1_555
Na8 O167 2.512065 1_555
Na8 O164 2.557567 1_555
Na8 O170 2.911033 1_555
Na9 O153 2.312600 1_555
Na9 O156 2.478586 1_555
Na9 O171 2.500417 1_555
Na9 O159 2.569196 1_555
Na9 O174 2.781128 1_555
Na9 O177 2.968843 1_555
Na10 O172 2.272287 1_555
Na10 O178 2.477556 1_555
Na10 O157 2.548443 1_555
Na10 O154 2.596781 1_555
Na10 O175 2.713843 1_555
Na10 O160 2.746455 1_555
Na11 O179 2.503631 1_555
Na11 O161 2.505436 1_555
Na11 O158 2.508259 1_555
Na11 O176 2.508634 1_555
Na11 O155 2.858643 1_555
Na11 O173 3.002702 1_555
Na12 O204 2.362564 1_555
Na12 O186 2.430994 1_555
Na12 O201 2.678963 1_555
Na12 O183 2.771077 1_555
Na12 O180 2.834274 1_555
Na12 O198 2.869014 1_555
Na13 O199 2.306050 1_555
Na13 O205 2.413900 1_555
Na13 O184 2.455870 1_555
Na13 O181 2.754352 1_555
Na13 O187 2.798634 1_555
Na13 O202 2.919628 1_555
Na14 O185 2.390487 1_555
Na14 O188 2.404770 1_555
Na14 O182 2.436261 1_555
Na14 O203 2.454981 1_555
Na14 O200 2.482121 1_555
Na15 O207 2.325505 1_555
Na15 O189 2.382674 1_555
Na15 O210 2.563410 1_555
Na15 O192 2.700316 1_555
Na15 O195 2.729550 1_555
Na15 O213 2.770215 1_555
Na16 O214 2.335010 1_555
Na16 O208 2.431665 1_555
Na16 O211 2.461947 1_555
Na16 O193 2.551022 1_555
Na16 O196 2.714848 1_555
Na16 O190 2.962923 1_555
Na17 O197 2.259523 1_555
Na17 O212 2.358996 1_555
Na17 O191 2.495700 1_555
Na17 O209 2.837009 1_555
Na17 O215 2.873823 1_555
Na17 O194 3.008629 1_555
Na18 O94 2.264552 1_555
Na18 O199 2.373409 1_555
Na18 O158 2.544316 1_555
Na18 O50 2.696776 1_555
Na18 O202 2.719687 1_555
Na18 O8 2.730451 1_555
Na18 O161 2.784518 1_555
Na18 O28 2.959558 1_555
Na19 O159 2.398468 1_555
Na19 O51 2.408592 1_555
Na19 O153 2.451692 1_555
Na19 O204 2.548506 1_555
Na19 O96 2.647088 1_555
Na19 O201 2.674269 1_555
Na20 O202 2.305767 1_555
Na20 O97 2.377052 1_555
Na20 O205 2.403976 1_555
Na20 O160 2.554418 1_555
Na20 O1 2.754431 1_555
Na20 O52 2.918595 1_555
Na20 O154 2.963039 1_555
Na21 O155 2.470245 1_555
Na21 O32 2.533799 1_555
Na21 O161 2.546490 1_555
Na21 O203 2.554295 1_555
Na21 O206 2.571418 1_555
Na21 O53 2.657704 1_555
Na22 O45 2.231879 1_555
Na22 O156 2.429891 1_555
Na22 O198 2.472556 1_655
Na22 O153 2.541625 1_555
Na22 O204 2.705866 1_655
Na22 O33 2.769074 1_655
Na22 O90 2.809532 1_655
Na23 O91 2.389977 1_555
Na23 O154 2.462319 1_455
Na23 O205 2.473953 1_555
Na23 O199 2.521142 1_555
Na23 O157 2.822901 1_455
Na24 O42 2.311703 1_555
Na24 O213 2.460202 1_555
Na24 O105 2.495739 1_555
Na24 O207 2.497053 1_555
Na24 O150 2.518611 1_555
Na24 O147 2.588981 1_555
Na25 O106 2.353637 1_555
Na25 O214 2.362793 1_555
Na25 O208 2.425123 1_555
Na25 O151 2.427109 1_555
Na25 O148 2.628741 1_555
Na26 O152 2.348916 1_555
Na26 O149 2.409307 1_555
Na26 O44 2.473616 1_555
Na26 O215 2.482242 1_555
Na26 O209 2.635480 1_555
Na26 O107 2.890340 1_555
Na27 O99 2.252144 1_655
Na27 O36 2.306342 1_555
Na27 O144 2.441054 1_555
Na27 O207 2.513018 1_655
Na27 O150 2.570685 1_555
Na27 O210 2.603293 1_655
Na28 O100 2.399718 1_555
Na28 O211 2.422476 1_555
Na28 O208 2.441655 1_555
Na28 O145 2.487935 1_455
Na28 O151 2.750434 1_455
Na28 O16 2.974094 1_455
Na28 O37 3.009467 1_455
Na29 O147 2.354914 1_555
Na29 O39 2.393261 1_555
Na29 O144 2.399411 1_555
Na29 O212 2.474901 1_545
Na29 O215 2.653230 1_545
Na29 O104 2.915815 1_545
Na30 O102 2.349051 1_555
Na30 O213 2.372323 1_555
Na30 O210 2.377237 1_555
Na30 O148 2.474012 1_555
Na30 O145 2.703897 1_555
Na30 O40 2.964190 1_555
Na31 O41 2.315300 1_555
Na31 O103 2.326699 1_555
Na31 O149 2.470820 1_555
Na31 O146 2.514276 1_555
Na31 O211 2.550402 1_555
Na31 O214 2.740426 1_555
Na32 O86 2.321738 1_555
Na32 O197 2.404024 1_555
Na32 O194 2.565982 1_555
Na32 O131 2.598544 1_555
Na32 O65 2.683690 1_555
Na32 O128 2.758427 1_455
Na32 O23 2.807817 1_555
Na33 O196 2.452188 1_555
Na33 O67 2.491974 1_455
Na33 O131 2.610165 1_555
Na33 O190 2.621398 1_555
Na33 O133 2.676430 1_455
Na33 O88 2.785984 1_555
Na33 O37 2.936001 1_455
Na34 O81 2.388887 1_555
Na34 O132 2.456040 1_555
Na34 O189 2.520919 1_555
Na34 O70 2.532858 1_555
Na34 O192 2.561979 1_555
Na34 O127 2.750934 1_655
Na34 O18 2.885869 1_555
Na34 O40 3.004040 1_555
Na35 O83 2.372450 1_555
Na35 O191 2.417479 1_555
Na35 O194 2.448007 1_555
Na35 O126 2.521694 1_565
Na35 O69 2.727669 1_565
Na35 O134 2.768206 1_555
Na35 O20 2.954670 1_555
Na36 O55 2.297539 1_555
Na36 O135 2.500442 1_455
Na36 O183 2.513874 1_555
Na36 O186 2.555281 1_555
Na36 O78 2.597604 1_554
Na37 O80 2.348250 1_554
Na37 O185 2.543516 1_555
Na37 O188 2.570520 1_555
Na37 O141 2.583453 1_565
Na37 O54 2.680208 1_565
Na37 O137 2.796388 1_455
Na38 O51 2.427615 1_555
Na38 O27 2.486839 1_555
Na38 O139 2.500927 1_555
Na38 O186 2.653675 1_555
Na38 O135 2.678833 1_555
Na38 O180 2.705160 1_555
Na38 O57 2.785349 1_555
Na39 O136 2.420455 1_555
Na39 O28 2.439595 1_555
Na39 O140 2.447036 1_555
Na39 O181 2.536063 1_555
Na39 O187 2.684231 1_555
Na39 O52 2.919656 1_555
Na39 O73 3.009719 1_554
Na40 O74 2.268025 1_554
Na40 O182 2.392165 1_555
Na40 O188 2.422596 1_555
Na40 O137 2.465813 1_555
Na40 O138 2.606628 1_565
Na40 O56 2.759316 1_555
Na40 O59 2.927499 1_555
Na41 O32 2.422076 1_555
Na41 O77 2.445809 1_554
Na41 O143 2.478103 1_555
Na41 O185 2.485498 1_555
Na41 O182 2.584442 1_555
Na41 O140 2.626382 1_455
Na42 O58 2.316982 1_556
Na42 O163 2.414190 1_555
Na42 O166 2.475855 1_555
Na42 O121 2.620738 1_655
Na42 O124 2.725535 1_555
Na42 O79 2.763220 1_655
Na42 O13 2.875359 1_555
Na43 O125 2.448437 1_555
Na43 O80 2.546070 1_655
Na43 O167 2.559771 1_555
Na43 O59 2.578739 1_556
Na43 O122 2.714086 1_665
Na43 O101 2.753614 1_655
Na43 O164 2.784976 1_555
Na43 O14 2.934508 1_655
Na44 O61 2.250040 1_556
Na44 O123 2.501366 1_555
Na44 O166 2.529567 1_555
Na44 O169 2.542186 1_555
Na44 O118 2.658954 1_655
Na44 O72 2.686957 1_555
Na45 O122 2.406899 1_555
Na45 O105 2.503840 1_555
Na45 O162 2.550195 1_555
Na45 O168 2.600078 1_555
Na45 O117 2.619683 1_555
Na45 O9 2.694623 1_555
Na45 O75 2.891519 1_555
Na46 O170 2.478294 1_555
Na46 O77 2.554483 1_555
Na46 O164 2.567935 1_555
Na46 O56 2.661459 1_556
Na46 O119 2.668955 1_555
Na46 O121 2.689034 1_555
Na47 O113 2.332674 1_555
Na47 O6 2.337160 1_655
Na47 O114 2.407481 1_655
Na47 O177 2.542136 1_555
Na47 O90 2.774500 1_655
Na48 O70 2.357059 1_555
Na48 O172 2.466354 1_555
Na48 O178 2.509102 1_555
Na48 O7 2.625499 1_555
Na48 O111 2.627398 1_555
Na48 O115 2.634802 1_655
Na48 O85 2.918837 1_655
Na49 O86 2.465283 1_555
Na49 O179 2.470138 1_455
Na49 O71 2.534412 1_455
Na49 O116 2.621463 1_555
Na49 O173 2.677418 1_455
Na49 O112 2.713335 1_455
Na50 O114 2.413745 1_555
Na50 O0 2.430848 1_555
Na50 O171 2.522556 1_555
Na50 O110 2.577904 1_445
Na50 O174 2.817791 1_555
Na50 O89 2.874194 1_545
Na50 O63 2.876813 1_555
Na50 O95 2.935555 1_545
Na51 O64 2.265619 1_555
Na51 O172 2.457053 1_555
Na51 O175 2.565036 1_555
Na51 O108 2.568588 1_555
Na51 O87 2.631584 1_555
Na51 O115 2.656545 1_555
Na52 O67 2.303673 1_555
Na52 O178 2.432727 1_555
Na52 O175 2.490749 1_555
Na52 O109 2.587794 1_655
Na52 O112 2.630206 1_555
Na52 O82 2.694061 1_555
Na53 O5 2.258853 1_555
Na53 O110 2.336375 1_555
Na53 O176 2.573799 1_555
Na53 O98 2.661377 1_555
Na53 O113 2.677998 1_565
Na53 O179 2.841976 1_555
Na53 O68 3.009992 1_555
Na53 O83 3.018903 1_555
Ca0 O110 2.211403 1_555
Ca0 O6 2.228842 1_665
Ca0 O0 2.234128 1_665
Ca0 O5 2.245201 1_555
Ca0 O113 2.284812 1_565
Ca0 O114 2.563138 1_665
Ca1 O34 2.104020 1_555
Ca1 O32 2.285564 1_555
Ca1 O28 2.312648 1_455
Ca1 O136 2.317675 1_455
Ca1 O140 2.335363 1_455
Ca1 O143 2.409990 1_555
Ca2 O42 2.199153 1_555
Ca2 O39 2.214530 1_555
Ca2 O36 2.235534 1_555
Ca2 O144 2.365402 1_555
Ca2 O150 2.392235 1_555
Ca2 O147 2.496040 1_555
Ca3 O38 2.166142 1_555
Ca3 O44 2.275907 1_555
Ca3 O41 2.319395 1_555
Ca3 O149 2.330287 1_555
Ca3 O146 2.343564 1_555
Ca3 O152 2.396576 1_555
Ca4 O48 2.197158 1_555
Ca4 O45 2.287722 1_555
Ca4 O156 2.313331 1_555
Ca4 O51 2.355140 1_555
Ca4 O159 2.359029 1_555
Ca4 O153 2.365887 1_555
Ca5 O55 2.208733 1_556
Ca5 O61 2.217355 1_556
Ca5 O58 2.219842 1_556
Ca5 O169 2.278647 1_555
Ca5 O163 2.288236 1_555
Ca5 O166 2.425204 1_555
Ca6 O64 2.200616 1_555
Ca6 O70 2.247615 1_555
Ca6 O67 2.298666 1_555
Ca6 O175 2.309200 1_555
Ca6 O178 2.367424 1_555
Ca6 O172 2.425763 1_555
Ca7 O74 2.223601 1_554
Ca7 O80 2.243435 1_554
Ca7 O77 2.256572 1_554
Ca7 O188 2.328797 1_555
Ca7 O185 2.367474 1_555
Ca7 O182 2.557334 1_555
Ca8 O89 2.101920 1_555
Ca8 O83 2.265585 1_555
Ca8 O197 2.273095 1_555
Ca8 O86 2.310003 1_555
Ca8 O194 2.314622 1_555
Ca8 O191 2.321966 1_555
Ca9 O199 2.201056 1_555
Ca9 O91 2.226930 1_555
Ca9 O97 2.232349 1_555
Ca9 O94 2.259689 1_555
Ca9 O202 2.301150 1_555
Ca9 O205 2.550543 1_555
Ca10 O102 2.224344 1_555
Ca10 O99 2.273144 1_555
Ca10 O105 2.288556 1_555
Ca10 O213 2.365138 1_555
Ca10 O207 2.382806 1_555
Ca10 O210 2.462501 1_555
Ca11 O103 2.232231 1_555
Ca11 O106 2.233055 1_555
Ca11 O100 2.236655 1_555
Ca11 O211 2.316215 1_555
Ca11 O214 2.421823 1_555
Ca11 O208 2.428660 1_555
O0 P0 1.518693 1_545
O1 Si0 1.659859 1_555
O1 Ta0 2.032665 1_455
O2 Si1 1.716127 1_555
O2 Ta1 1.887332 1_555
O3 Si2 1.667101 1_555
O3 Ta0 1.874329 1_555
O4 P1 1.592160 1_555
O4 Ta1 2.062059 1_655
O5 Si3 1.584279 1_555
O6 P2 1.510144 1_555
O7 Si4 1.673455 1_555
O7 Ta0 1.977414 1_555
O8 Si5 1.687556 1_555
O8 Ta1 1.958662 1_655
O9 P3 1.563692 1_555
O9 Ta2 2.028869 1_555
O10 Si6 1.671284 1_555
O10 Ta3 1.933027 1_555
O11 Si7 1.664145 1_555
O11 Ta4 1.909324 1_455
O12 P4 1.589332 1_455
O12 Ta3 1.947164 1_555
O13 Si8 1.663478 1_555
O13 Ta4 1.999588 1_555
O14 Si9 1.652489 1_555
O14 Ta2 1.931103 1_565
O15 Si10 1.645232 1_555
O15 Ta2 1.911438 1_665
O16 Si11 1.688220 1_555
O16 Ta3 1.970813 1_655
O17 P5 1.568978 1_555
O17 Ta4 1.966791 1_555
O18 Si11 1.629479 1_555
O18 Ta6 1.964650 1_655
O19 P5 1.564908 1_555
O19 Ta7 1.952504 1_655
O20 Si10 1.677091 1_555
O20 Ta5 1.976951 1_655
O21 P3 1.576868 1_555
O21 Ta5 1.966194 1_545
O22 Si6 1.633595 1_555
O22 Ta6 1.933224 1_555
O23 Si7 1.665640 1_555
O23 Ta7 1.971113 1_555
O24 P4 1.552221 1_555
O24 Ta6 2.005503 1_655
O25 Si8 1.659327 1_455
O25 Ta7 1.933392 1_555
O26 Si9 1.672273 1_555
O26 Ta5 1.947489 1_555
O27 Si2 1.641793 1_555
O27 Ta9 1.995177 1_555
O28 P1 1.518055 1_555
O29 Si3 1.684155 1_555
O29 Ta8 1.927434 1_555
O30 P2 1.603889 1_555
O30 Ta8 2.005852 1_445
O31 Si4 1.644232 1_555
O31 Ta9 1.900804 1_555
O32 Si5 1.595936 1_455
O33 Si0 1.639585 1_555
O33 Ta9 2.004763 1_455
O34 Si1 1.573683 1_555
O35 P0 1.620853 1_555
O35 Ta8 2.003372 1_455
O36 Si12 1.591499 1_555
O37 Si13 1.693002 1_555
O37 Ta10 1.984882 1_555
O38 P6 1.497565 1_555
O39 P7 1.516399 1_555
O40 Si14 1.697541 1_555
O40 Ta10 1.947313 1_555
O41 Si15 1.583091 1_555
O42 Si16 1.579119 1_555
O43 Si17 1.671667 1_555
O43 Ta10 1.981354 1_555
O44 P8 1.514223 1_555
O45 Si18 1.586171 1_555
O46 P9 1.606721 1_555
O46 Ta11 2.059475 1_555
O47 Si19 1.655836 1_555
O47 Ta12 1.924455 1_555
O48 P10 1.500359 1_555
O49 Si20 1.705914 1_555
O49 Ta11 1.907826 1_555
O50 Si21 1.660643 1_555
O50 Ta12 1.997674 1_555
O51 Si22 1.608789 1_555
O52 Si23 1.690504 1_555
O52 Ta11 1.989297 1_555
O53 P11 1.562500 1_555
O53 Ta12 2.009288 1_555
O54 Si22 1.659688 1_555
O54 Ta13 2.026859 1_554
O55 Si23 1.591868 1_555
O56 P11 1.571533 1_555
O56 Ta14 2.021276 1_554
O57 Si18 1.658706 1_555
O57 Ta13 1.958609 1_554
O58 P9 1.503205 1_555
O59 Si19 1.665925 1_555
O59 Ta14 2.025909 1_554
O60 P10 1.574569 1_555
O60 Ta13 2.051751 1_554
O61 Si20 1.576605 1_555
O62 Si21 1.654792 1_555
O62 Ta14 1.908113 1_554
O63 P7 1.601255 1_555
O63 Ta15 2.065703 1_555
O64 Si14 1.588148 1_555
O65 Si15 1.674467 1_555
O65 Ta16 1.962659 1_555
O66 Si16 1.689453 1_555
O66 Ta15 1.881949 1_555
O67 Si17 1.604516 1_555
O68 P8 1.586956 1_555
O68 Ta16 2.023556 1_555
O69 Si12 1.689727 1_555
O69 Ta15 1.982027 1_555
O70 Si13 1.602747 1_555
O71 P6 1.591824 1_555
O71 Ta16 2.041431 1_555
O72 Si24 1.671607 1_555
O72 Ta17 1.970037 1_556
O73 P12 1.587981 1_555
O73 Ta18 2.023268 1_556
O74 Si25 1.586860 1_555
O75 Si26 1.674676 1_555
O75 Ta17 1.921292 1_556
O76 P13 1.586555 1_555
O76 Ta18 2.037493 1_556
O77 Si27 1.601109 1_555
O78 P14 1.582066 1_555
O78 Ta17 2.072914 1_556
O79 Si28 1.681277 1_555
O79 Ta18 1.958901 1_556
O80 Si29 1.605908 1_555
O81 Si30 1.626182 1_555
O81 Ta19 2.031188 1_555
O82 Si31 1.678770 1_555
O82 Ta20 1.958151 1_555
O83 P15 1.514709 1_555
O84 Si32 1.638633 1_555
O84 Ta19 1.915066 1_555
O85 P16 1.580225 1_555
O85 Ta20 2.039108 1_555
O86 Si33 1.595701 1_555
O87 Si34 1.631416 1_555
O87 Ta19 2.008113 1_555
O88 P17 1.577333 1_555
O88 Ta20 2.123346 1_555
O89 Si35 1.575675 1_555
O90 Si34 1.664193 1_555
O90 Ta21 2.032841 1_555
O91 P17 1.511866 1_555
O92 Si35 1.710225 1_555
O92 Ta22 1.921727 1_555
O93 Si30 1.670742 1_555
O93 Ta21 1.876911 1_555
O94 Si31 1.583247 1_555
O95 P15 1.590783 1_555
O95 Ta22 2.046402 1_555
O96 Si32 1.684767 1_555
O96 Ta21 1.956217 1_555
O97 P16 1.510263 1_555
O98 Si33 1.671660 1_555
O98 Ta22 2.003741 1_555
O99 Si26 1.586233 1_555
O100 P13 1.517718 1_555
O101 Si27 1.674992 1_555
O101 Ta23 1.978926 1_555
O102 P14 1.514747 1_555
O103 Si28 1.585867 1_555
O104 Si29 1.673095 1_555
O104 Ta23 1.988010 1_555
O105 Si24 1.606074 1_555
O106 P12 1.513570 1_555
O107 Si25 1.665823 1_555
O107 Ta23 1.988136 1_555
O108 Si34 1.650127 1_555
O108 Ta0 2.039733 1_455
O109 P17 1.588532 1_555
O109 Ta1 2.125464 1_555
O110 Si35 1.601056 1_655
O111 Si30 1.664163 1_555
O111 Ta0 1.985469 1_555
O112 Si31 1.670396 1_555
O112 Ta1 2.151542 1_655
O113 P15 1.523085 1_545
O114 Si32 1.606274 1_555
O115 P16 1.582487 1_555
O115 Ta0 2.158432 1_455
O116 Si33 1.660202 1_555
O116 Ta1 1.940206 1_555
O117 Si26 1.661844 1_555
O117 Ta2 2.056101 1_555
O118 P13 1.585661 1_555
O118 Ta3 2.072698 1_555
O119 Si27 1.641801 1_555
O119 Ta4 1.960753 1_455
O120 P14 1.580105 1_555
O120 Ta3 2.073376 1_555
O121 Si28 1.685797 1_555
O121 Ta4 2.045014 1_455
O122 Si29 1.661975 1_545
O122 Ta2 2.001843 1_555
O123 Si24 1.654135 1_555
O123 Ta3 2.028678 1_655
O124 P12 1.587960 1_555
O124 Ta4 2.097977 1_555
O125 Si25 1.661447 1_555
O125 Ta2 1.973085 1_665
O126 Si12 1.676121 1_555
O126 Ta5 2.027664 1_645
O127 Si13 1.639162 1_455
O127 Ta6 1.978244 1_555
O128 P6 1.601186 1_555
O128 Ta7 2.078334 1_655
O129 P7 1.576248 1_555
O129 Ta5 2.059426 1_545
O130 Si14 1.630514 1_555
O130 Ta6 1.931363 1_555
O131 Si15 1.689287 1_555
O131 Ta7 2.089839 1_555
O132 Si16 1.663893 1_555
O132 Ta6 2.051128 1_655
O133 Si17 1.653028 1_555
O133 Ta7 1.977864 1_655
O134 P8 1.575416 1_555
O134 Ta5 2.035460 1_655
O135 Si18 1.676898 1_555
O135 Ta9 2.103482 1_555
O136 P9 1.528493 1_555
O137 Si19 1.674780 1_555
O137 Ta8 2.029745 1_555
O138 P10 1.600679 1_555
O138 Ta8 2.080661 1_545
O139 Si20 1.638883 1_555
O139 Ta9 1.973949 1_555
O140 Si21 1.604723 1_555
O141 Si22 1.662814 1_555
O141 Ta8 2.038624 1_445
O142 Si23 1.651415 1_555
O142 Ta9 1.970814 1_455
O143 P11 1.517339 1_555
O144 Si10 1.601015 1_545
O145 Si11 1.669677 1_555
O145 Ta10 2.051136 1_555
O146 P5 1.512757 1_555
O147 P3 1.525327 1_555
O148 Si6 1.667722 1_555
O148 Ta10 2.076483 1_555
O149 Si7 1.602826 1_555
O150 P4 1.525531 1_555
O151 Si8 1.659119 1_555
O151 Ta10 2.049448 1_555
O152 Si9 1.592285 1_655
O153 Si2 1.600923 1_555
O154 P1 1.583869 1_555
O154 Ta11 2.158248 1_555
O155 Si3 1.660879 1_555
O155 Ta12 1.979086 1_555
O156 P2 1.512015 1_655
O157 Si4 1.660867 1_555
O157 Ta11 1.990640 1_555
O158 Si5 1.656823 1_555
O158 Ta12 2.037299 1_555
O159 P0 1.520433 1_545
O160 Si0 1.652944 1_555
O160 Ta11 2.023575 1_555
O161 Si1 1.667205 1_555
O161 Ta12 2.030064 1_555
O162 Si24 1.650640 1_555
O162 Ta13 1.973073 1_555
O163 P12 1.522638 1_555
O164 Si25 1.670477 1_555
O164 Ta14 2.036622 1_555
O165 Si26 1.636807 1_655
O165 Ta13 1.930558 1_555
O166 P13 1.529810 1_655
O167 Si27 1.655139 1_655
O167 Ta14 1.993772 1_555
O168 Si29 1.649539 1_545
O168 Ta13 2.043734 1_555
O169 P14 1.525979 1_555
O170 Si28 1.654868 1_555
O170 Ta14 1.983513 1_555
O171 P15 1.578148 1_545
O171 Ta15 2.184120 1_555
O172 Si30 1.607598 1_555
O173 Si31 1.654188 1_555
O173 Ta16 1.936753 1_555
O174 Si32 1.656217 1_555
O174 Ta15 1.994451 1_555
O175 P16 1.526700 1_555
O176 Si33 1.660137 1_555
O176 Ta16 2.061182 1_555
O177 Si34 1.648987 1_655
O177 Ta15 2.025377 1_555
O178 P17 1.540825 1_655
O179 Si35 1.686258 1_655
O179 Ta16 2.027096 1_555
O180 Si22 1.665873 1_555
O180 Ta17 1.957189 1_555
O181 Si23 1.660964 1_555
O181 Ta18 2.033748 1_555
O182 P11 1.540500 1_555
O183 Si18 1.646123 1_455
O183 Ta17 1.953250 1_555
O184 P9 1.587210 1_455
O184 Ta18 2.059167 1_555
O185 Si19 1.599712 1_455
O186 Si20 1.667034 1_555
O186 Ta17 2.140571 1_555
O187 Si21 1.669419 1_555
O187 Ta18 1.969107 1_555
O188 P10 1.534485 1_565
O189 Si14 1.645512 1_555
O189 Ta19 2.061130 1_555
O190 Si15 1.664594 1_555
O190 Ta20 1.937548 1_555
O191 P7 1.529181 1_565
O192 Si16 1.637826 1_555
O192 Ta19 1.958090 1_555
O193 Si17 1.663602 1_555
O193 Ta20 1.963895 1_555
O194 P8 1.526148 1_555
O195 Si12 1.644281 1_455
O195 Ta19 1.950244 1_555
O196 Si13 1.653377 1_455
O196 Ta20 2.025927 1_555
O197 P6 1.522492 1_455
O198 Si0 1.637024 1_555
O198 Ta21 2.059403 1_555
O199 Si1 1.603226 1_555
O200 P0 1.570154 1_555
O200 Ta22 2.098320 1_555
O201 Si2 1.652871 1_555
O201 Ta21 1.994020 1_555
O202 P1 1.523343 1_555
O203 Si3 1.661034 1_555
O203 Ta22 2.073051 1_555
O204 P2 1.594344 1_555
O204 Ta21 2.168855 1_555
O205 Si4 1.604474 1_455
O206 Si5 1.643163 1_455
O206 Ta22 1.945188 1_555
O207 P3 1.528117 1_555
O208 Si6 1.600241 1_555
O209 Si7 1.651494 1_555
O209 Ta23 2.005183 1_555
O210 P4 1.527114 1_455
O211 Si8 1.601750 1_455
O212 Si9 1.665476 1_555
O212 Ta23 2.045004 1_555
O213 Si11 1.601084 1_555
O214 P5 1.532286 1_555
O215 Si10 1.659179 1_555
O215 Ta23 2.064289 1_555
