# generated using pymatgen
data_NaMgCu2H2(SeO5)2
_symmetry_space_group_name_H-M   'P 1'
_cell_length_a   5.99170088
_cell_length_b   6.01256217
_cell_length_c   7.72475708
_cell_angle_alpha   69.01013139
_cell_angle_beta   110.81562607
_cell_angle_gamma   118.33963525
_symmetry_Int_Tables_number   1
_chemical_formula_structural   NaMgCu2H2(SeO5)2
_chemical_formula_sum   'Na1 Mg1 Cu2 H2 Se2 O10'
_cell_volume   222.79059354
_cell_formula_units_Z   1
loop_
 _symmetry_equiv_pos_site_id
 _symmetry_equiv_pos_as_xyz
  1  'x, y, z'
loop_
 _atom_site_type_symbol
 _atom_site_label
 _atom_site_symmetry_multiplicity
 _atom_site_fract_x
 _atom_site_fract_y
 _atom_site_fract_z
 _atom_site_occupancy
  Na  Na0  1  0.49149027  0.49149975  0.49987766  1
  Mg  Mg0  1  0.29964992  0.29983898  -0.00066884  1
  Cu  Cu0  1  0.96662781  0.55833872  0.98419620  1
  Cu  Cu1  1  0.55666545  0.96623544  0.01581663  1
  H  H0  1  0.26468378  0.71984497  0.77440061  1
  H  H1  1  0.71881359  0.26318734  0.22558805  1
  Se  Se0  1  0.89995204  0.08864643  0.68392257  1
  Se  Se1  1  0.08878874  0.90017047  0.31625048  1
  O  O0  1  0.85234289  0.16670419  0.85788771  1
  O  O1  1  0.16823543  0.85434625  0.14193618  1
  O  O2  1  0.77390868  0.22953287  0.47115102  1
  O  O3  1  0.22850445  0.77332036  0.52919811  1
  O  O4  1  0.23184554  0.21511932  0.73790031  1
  O  O5  1  0.78820783  0.76500522  0.72086112  1
  O  O6  1  0.76424589  0.78738753  0.27981007  1
  O  O7  1  0.21513509  0.23114152  0.26185173  1
  O  O8  1  0.29920410  0.66247593  0.91567804  1
  O  O9  1  0.66253151  0.29803773  0.08434237  1
loop_
_geom_bond_atom_site_label_1
_geom_bond_atom_site_label_2
_geom_bond_distance
_geom_bond_site_symmetry_2
Na0 O6 2.402774 1_555
Na0 O5 2.420223 1_555
Na0 O4 2.439682 1_555
Na0 O7 2.451615 1_555
Na0 O2 2.905392 1_555
Na0 O3 2.910145 1_555
Mg0 O9 2.039930 1_555
Mg0 O8 2.041211 1_554
Mg0 O4 2.111928 1_554
Mg0 O7 2.114388 1_555
Mg0 O1 2.346995 1_545
Mg0 O0 2.350784 1_454
Cu0 O9 1.948044 1_556
Cu0 O8 1.992653 1_655
Cu0 O1 2.139603 1_656
Cu0 O5 2.174764 1_555
Cu0 O0 2.570195 1_555
Cu1 O8 1.950103 1_554
Cu1 O9 1.994746 1_565
Cu1 O0 2.129569 1_564
Cu1 O6 2.181298 1_555
Cu1 O1 2.544367 1_555
H0 O8 0.995185 1_555
H1 O9 0.994934 1_555
O0 Se0 1.720156 1_555
O1 Se1 1.720909 1_555
O2 Se0 1.648354 1_555
O3 Se1 1.648353 1_555
O4 Se0 1.705531 1_455
O5 Se0 1.678495 1_565
O6 Se1 1.678158 1_655
O7 Se1 1.704843 1_545
