# generated using pymatgen
data_Ba2SrMgWO6
_symmetry_space_group_name_H-M   'P 1'
_cell_length_a   6.24820827
_cell_length_b   6.57867969
_cell_length_c   7.21048990
_cell_angle_alpha   47.92146334
_cell_angle_beta   64.32460106
_cell_angle_gamma   61.64825459
_symmetry_Int_Tables_number   1
_chemical_formula_structural   Ba2SrMgWO6
_chemical_formula_sum   'Ba2 Sr1 Mg1 W1 O6'
_cell_volume   190.57311174
_cell_formula_units_Z   1
loop_
 _symmetry_equiv_pos_site_id
 _symmetry_equiv_pos_as_xyz
  1  'x, y, z'
loop_
 _atom_site_type_symbol
 _atom_site_label
 _atom_site_symmetry_multiplicity
 _atom_site_fract_x
 _atom_site_fract_y
 _atom_site_fract_z
 _atom_site_occupancy
  Ba  Ba0  1  0.21606860  0.74228540  0.82557639  1
  Ba  Ba1  1  0.78393140  0.25771460  0.17442361  1
  Sr  Sr0  1  -0.00000000  0.50000000  0.50000000  1
  Mg  Mg0  1  0.50000000  0.50000000  0.50000000  1
  W  W0  1  0.50000000  0.00000000  0.00000000  1
  O  O0  1  0.19886551  0.34927266  0.80994751  1
  O  O1  1  0.35808568  0.65072734  0.19005249  1
  O  O2  1  0.80113449  0.65072734  0.19005249  1
  O  O3  1  0.64191432  0.34927266  0.80994751  1
  O  O4  1  0.64746132  0.04454039  0.66053797  1
  O  O5  1  0.35253868  0.95545961  0.33946203  1
loop_
_geom_bond_atom_site_label_1
_geom_bond_atom_site_label_2
_geom_bond_distance
_geom_bond_site_symmetry_2
Ba0 O5 2.633851 1_555
Ba0 O0 2.715521 1_555
Ba0 O3 2.715524 1_555
Ba0 O2 2.729167 1_456
Ba0 O1 2.729171 1_556
Ba1 O4 2.633851 1_555
Ba1 O2 2.715521 1_555
Ba1 O1 2.715524 1_555
Ba1 O0 2.729167 1_654
Ba1 O3 2.729171 1_554
Mg0 O2 2.162429 1_555
Mg0 O0 2.162429 1_555
Mg0 O3 2.162429 1_555
Mg0 O1 2.162429 1_555
Mg0 O4 2.195511 1_555
Mg0 O5 2.195511 1_555
O0 W0 2.146085 1_556
O0 Sr0 2.405783 1_555
O1 W0 2.146085 1_565
O1 Sr0 2.405783 1_555
O2 W0 2.146085 1_565
O2 Sr0 2.405783 1_655
O3 W0 2.146085 1_556
O3 Sr0 2.405783 1_655
O4 W0 2.065633 1_556
O5 W0 2.065633 1_565
