# generated using pymatgen
data_Ba2Cr7O14
_symmetry_space_group_name_H-M   'P 1'
_cell_length_a   9.95558456
_cell_length_b   9.95558456
_cell_length_c   9.95558536
_cell_angle_alpha   34.39628439
_cell_angle_beta   34.39628439
_cell_angle_gamma   34.39628290
_symmetry_Int_Tables_number   1
_chemical_formula_structural   Ba2Cr7O14
_chemical_formula_sum   'Ba2 Cr7 O14'
_cell_volume   280.87505013
_cell_formula_units_Z   1
loop_
 _symmetry_equiv_pos_site_id
 _symmetry_equiv_pos_as_xyz
  1  'x, y, z'
loop_
 _atom_site_type_symbol
 _atom_site_label
 _atom_site_symmetry_multiplicity
 _atom_site_fract_x
 _atom_site_fract_y
 _atom_site_fract_z
 _atom_site_occupancy
  Ba  Ba0  1  0.71094800  0.71094800  0.71094800  1
  Ba  Ba1  1  0.28905200  0.28905200  0.28905200  1
  Cr  Cr0  1  0.93787400  0.93787400  0.93787400  1
  Cr  Cr1  1  0.06212600  0.06212600  0.06212600  1
  Cr  Cr2  1  0.57255600  0.57255600  0.57255600  1
  Cr  Cr3  1  0.42744400  0.42744400  0.42744400  1
  Cr  Cr4  1  0.50000000  0.00000000  0.00000000  1
  Cr  Cr5  1  0.00000000  0.50000000  0.00000000  1
  Cr  Cr6  1  0.00000000  0.00000000  0.50000000  1
  O  O0  1  0.87074900  0.87074900  0.87074900  1
  O  O1  1  0.12925100  0.12925100  0.12925100  1
  O  O2  1  0.36445300  0.36445300  0.88688800  1
  O  O3  1  0.88688800  0.36445300  0.36445300  1
  O  O4  1  0.36445300  0.88688800  0.36445300  1
  O  O5  1  0.63554700  0.11311200  0.63554700  1
  O  O6  1  0.63554700  0.63554700  0.11311200  1
  O  O7  1  0.11311200  0.63554700  0.63554700  1
  O  O8  1  0.21918800  0.21918800  0.70676100  1
  O  O9  1  0.29323900  0.78081200  0.78081200  1
  O  O10  1  0.78081200  0.78081200  0.29323900  1
  O  O11  1  0.78081200  0.29323900  0.78081200  1
  O  O12  1  0.21918800  0.70676100  0.21918800  1
  O  O13  1  0.70676100  0.21918800  0.21918800  1
loop_
_geom_bond_atom_site_label_1
_geom_bond_atom_site_label_2
_geom_bond_distance
_geom_bond_site_symmetry_2
Ba0 O7 2.857842 1_655
Ba0 O5 2.857842 1_565
Ba0 O6 2.857843 1_556
Ba0 O8 2.946188 1_655
Ba0 O8 2.946188 1_565
Ba0 O13 2.946188 1_565
Ba0 O12 2.946188 1_655
Ba0 O13 2.946188 1_556
Ba0 O12 2.946188 1_556
Ba0 O9 3.084256 1_555
Ba0 O11 3.084256 1_555
Ba0 O10 3.084256 1_555
Ba1 O4 2.857842 1_545
Ba1 O3 2.857842 1_455
Ba1 O2 2.857843 1_554
Ba1 O10 2.946188 1_545
Ba1 O10 2.946188 1_455
Ba1 O11 2.946188 1_455
Ba1 O9 2.946188 1_545
Ba1 O11 2.946188 1_554
Ba1 O9 2.946188 1_554
Ba1 O13 3.084256 1_555
Ba1 O12 3.084256 1_555
Ba1 O8 3.084256 1_555
Cr0 O9 1.783989 1_655
Cr0 O11 1.783989 1_565
Cr0 O10 1.783989 1_556
Cr0 O0 1.884340 1_555
Cr1 O12 1.783989 1_545
Cr1 O13 1.783989 1_455
Cr1 O8 1.783989 1_554
Cr1 O1 1.884340 1_555
Cr2 O2 2.015460 1_555
Cr2 O3 2.015460 1_555
Cr2 O4 2.015460 1_555
Cr2 O10 2.096341 1_555
Cr2 O9 2.096341 1_555
Cr2 O11 2.096341 1_555
Cr3 O6 2.015460 1_555
Cr3 O7 2.015460 1_555
Cr3 O5 2.015460 1_555
Cr3 O8 2.096341 1_555
Cr3 O13 2.096341 1_555
Cr3 O12 2.096341 1_555
Cr4 O2 1.984586 1_554
Cr4 O6 1.984586 1_545
Cr4 O4 1.984586 1_545
Cr4 O5 1.984586 1_554
Cr4 O0 1.997884 1_544
Cr4 O1 1.997884 1_555
Cr5 O2 1.984586 1_554
Cr5 O6 1.984586 1_455
Cr5 O3 1.984586 1_455
Cr5 O7 1.984586 1_554
Cr5 O0 1.997884 1_454
Cr5 O1 1.997884 1_555
Cr6 O4 1.984586 1_545
Cr6 O3 1.984586 1_455
Cr6 O7 1.984586 1_545
Cr6 O5 1.984586 1_455
Cr6 O1 1.997885 1_555
Cr6 O0 1.997885 1_445
