# generated using pymatgen
data_Na4ZrTi(SiO4)3
_symmetry_space_group_name_H-M   'P 1'
_cell_length_a   9.13651767
_cell_length_b   9.13651736
_cell_length_c   22.28175633
_cell_angle_alpha   90.00000000
_cell_angle_beta   90.00000000
_cell_angle_gamma   120.00000117
_symmetry_Int_Tables_number   1
_chemical_formula_structural   Na4ZrTi(SiO4)3
_chemical_formula_sum   'Na24 Zr6 Ti6 Si18 O72'
_cell_volume   1610.79928886
_cell_formula_units_Z   6
loop_
 _symmetry_equiv_pos_site_id
 _symmetry_equiv_pos_as_xyz
  1  'x, y, z'
loop_
 _atom_site_type_symbol
 _atom_site_label
 _atom_site_symmetry_multiplicity
 _atom_site_fract_x
 _atom_site_fract_y
 _atom_site_fract_z
 _atom_site_occupancy
  Na  Na0  1  0.63283183  0.00033858  0.24958440  1
  Na  Na1  1  0.36750675  0.36716817  0.24958440  1
  Na  Na2  1  0.99966142  0.63249325  0.24958440  1
  Na  Na3  1  0.62793424  0.63344274  0.75222359  1
  Na  Na4  1  0.00550850  0.37206576  0.75222359  1
  Na  Na5  1  0.36655726  0.99449150  0.75222359  1
  Na  Na6  1  0.30007266  0.33350940  0.58342026  1
  Na  Na7  1  0.03343774  0.69992734  0.58342026  1
  Na  Na8  1  0.66649060  0.96656226  0.58342026  1
  Na  Na9  1  0.29740569  0.96001659  0.08221392  1
  Na  Na10  1  0.66261190  0.70259431  0.08221392  1
  Na  Na11  1  0.03998341  0.33738810  0.08221392  1
  Na  Na12  1  0.96106447  0.66597659  0.91695274  1
  Na  Na13  1  0.70491112  0.03893553  0.91695274  1
  Na  Na14  1  0.33402341  0.29508888  0.91695274  1
  Na  Na15  1  0.96656919  0.29805951  0.41556865  1
  Na  Na16  1  0.33148932  0.03343081  0.41556865  1
  Na  Na17  1  0.70194049  0.66851068  0.41556865  1
  Na  Na18  1  0.00000000  0.00000000  0.49991429  1
  Na  Na19  1  0.00000000  0.00000000  0.99733854  1
  Na  Na20  1  0.66666700  0.33333300  0.83688752  1
  Na  Na21  1  0.66666700  0.33333300  0.32957428  1
  Na  Na22  1  0.33333300  0.66666700  0.16643468  1
  Na  Na23  1  0.33333300  0.66666700  0.66937738  1
  Zr  Zr0  1  0.00000000  0.00000000  0.34888637  1
  Zr  Zr1  1  0.00000000  0.00000000  0.64992832  1
  Zr  Zr2  1  0.00000000  0.00000000  0.14673248  1
  Zr  Zr3  1  0.66666700  0.33333300  0.68866706  1
  Zr  Zr4  1  0.66666700  0.33333300  0.47899658  1
  Zr  Zr5  1  0.33333300  0.66666700  0.51887916  1
  Ti  Ti0  1  0.00000000  0.00000000  0.85326791  1
  Ti  Ti1  1  0.66666700  0.33333300  0.18388227  1
  Ti  Ti2  1  0.66666700  0.33333300  0.98092475  1
  Ti  Ti3  1  0.33333300  0.66666700  0.01800889  1
  Ti  Ti4  1  0.33333300  0.66666700  0.31364330  1
  Ti  Ti5  1  0.33333300  0.66666700  0.81736505  1
  Si  Si0  1  0.30222424  0.00037016  0.24881668  1
  Si  Si1  1  0.69814592  0.69777576  0.24881668  1
  Si  Si2  1  0.99962984  0.30185408  0.24881668  1
  Si  Si3  1  0.29005045  0.29542107  0.75412354  1
  Si  Si4  1  0.00537062  0.70994955  0.75412354  1
  Si  Si5  1  0.70457893  0.99462938  0.75412354  1
  Si  Si6  1  0.96143566  0.33264864  0.58379375  1
  Si  Si7  1  0.37121398  0.03856434  0.58379375  1
  Si  Si8  1  0.66735136  0.62878602  0.58379375  1
  Si  Si9  1  0.95515570  0.61745292  0.08162546  1
  Si  Si10  1  0.66229823  0.04484430  0.08162546  1
  Si  Si11  1  0.38254708  0.33770177  0.08162546  1
  Si  Si12  1  0.62282797  0.66685823  0.91729824  1
  Si  Si13  1  0.04402925  0.37717203  0.91729824  1
  Si  Si14  1  0.33314177  0.95597075  0.91729824  1
  Si  Si15  1  0.62455566  0.95709828  0.41430974  1
  Si  Si16  1  0.33254163  0.37544434  0.41430974  1
  Si  Si17  1  0.04290172  0.66745837  0.41430974  1
  O  O0  1  0.21710955  0.03814509  0.30725130  1
  O  O1  1  0.82103553  0.78289045  0.30725130  1
  O  O2  1  0.96185491  0.17896447  0.30725130  1
  O  O3  1  0.19029942  0.16694224  0.81054844  1
  O  O4  1  0.97664282  0.80970058  0.81054844  1
  O  O5  1  0.83305776  0.02335718  0.81054844  1
  O  O6  1  0.78401588  0.96177087  0.69307076  1
  O  O7  1  0.17775499  0.21598412  0.69307076  1
  O  O8  1  0.03822913  0.82224501  0.69307076  1
  O  O9  1  0.78741224  0.82399757  0.19130609  1
  O  O10  1  0.03658533  0.21258776  0.19130609  1
  O  O11  1  0.17600243  0.96341467  0.19130609  1
  O  O12  1  0.87270440  0.36138685  0.64286565  1
  O  O13  1  0.48868345  0.12729560  0.64286565  1
  O  O14  1  0.63861315  0.51131655  0.64286565  1
  O  O15  1  0.86301437  0.49939470  0.14096944  1
  O  O16  1  0.63638133  0.13698563  0.14096944  1
  O  O17  1  0.50060530  0.36361867  0.14096944  1
  O  O18  1  0.47487281  0.30821692  0.02296568  1
  O  O19  1  0.83334511  0.52512719  0.02296568  1
  O  O20  1  0.69178308  0.16665489  0.02296568  1
  O  O21  1  0.45853452  0.15489439  0.52427845  1
  O  O22  1  0.69636087  0.54146548  0.52427845  1
  O  O23  1  0.84510561  0.30363913  0.52427845  1
  O  O24  1  0.52925186  0.69778015  0.97571864  1
  O  O25  1  0.16852729  0.47074814  0.97571864  1
  O  O26  1  0.30221985  0.83147271  0.97571864  1
  O  O27  1  0.54460250  0.84681799  0.47542678  1
  O  O28  1  0.30221449  0.45539750  0.47542678  1
  O  O29  1  0.15318201  0.69778551  0.47542678  1
  O  O30  1  0.14235803  0.64402376  0.35701248  1
  O  O31  1  0.50166473  0.85764197  0.35701248  1
  O  O32  1  0.35597624  0.49833527  0.35701248  1
  O  O33  1  0.13636795  0.50031773  0.85893800  1
  O  O34  1  0.36394878  0.86363205  0.85893800  1
  O  O35  1  0.49968227  0.63605122  0.85893800  1
  O  O36  1  0.02292354  0.83480702  0.41101124  1
  O  O37  1  0.81188348  0.97707646  0.41101124  1
  O  O38  1  0.16519298  0.18811652  0.41101124  1
  O  O39  1  0.02700488  0.18941665  0.91241546  1
  O  O40  1  0.16241177  0.97299512  0.91241546  1
  O  O41  1  0.81058335  0.83758823  0.91241546  1
  O  O42  1  0.97872199  0.16415865  0.58709898  1
  O  O43  1  0.18543666  0.02127801  0.58709898  1
  O  O44  1  0.83584135  0.81456334  0.58709898  1
  O  O45  1  0.97181529  0.80465641  0.08501510  1
  O  O46  1  0.83284112  0.02818471  0.08501510  1
  O  O47  1  0.19534359  0.16715888  0.08501510  1
  O  O48  1  0.68994221  0.16578174  0.75138239  1
  O  O49  1  0.47584053  0.31005779  0.75138239  1
  O  O50  1  0.83421826  0.52415947  0.75138239  1
  O  O51  1  0.68154572  0.51179106  0.24217033  1
  O  O52  1  0.83024634  0.31845428  0.24217033  1
  O  O53  1  0.48820894  0.16975366  0.24217033  1
  O  O54  1  0.64044378  0.49650972  0.92178445  1
  O  O55  1  0.85606693  0.35955622  0.92178445  1
  O  O56  1  0.50349028  0.14393307  0.92178445  1
  O  O57  1  0.63904636  0.14260572  0.41617011  1
  O  O58  1  0.50356037  0.36095364  0.41617011  1
  O  O59  1  0.85739428  0.49643963  0.41617011  1
  O  O60  1  0.36438304  0.50742277  0.07699857  1
  O  O61  1  0.14303873  0.63561696  0.07699857  1
  O  O62  1  0.49257723  0.85696127  0.07699857  1
  O  O63  1  0.35321605  0.85244703  0.58123046  1
  O  O64  1  0.49922998  0.64678395  0.58123046  1
  O  O65  1  0.14755297  0.50077002  0.58123046  1
  O  O66  1  0.31871395  0.83094440  0.25537078  1
  O  O67  1  0.51222945  0.68128605  0.25537078  1
  O  O68  1  0.16905560  0.48777055  0.25537078  1
  O  O69  1  0.30947444  0.48275319  0.75949984  1
  O  O70  1  0.17327775  0.69052556  0.75949984  1
  O  O71  1  0.51724681  0.82672225  0.75949984  1
loop_
_geom_bond_atom_site_label_1
_geom_bond_atom_site_label_2
_geom_bond_distance
_geom_bond_site_symmetry_2
Na0 O66 2.491336 1_545
Na0 O53 2.492871 1_555
Na0 O52 2.546719 1_555
Na0 O67 2.552673 1_545
Na0 O31 2.702454 1_545
Na0 O16 2.715935 1_555
Na0 O2 2.906069 1_555
Na0 O9 2.924401 1_545
Na1 O67 2.491337 1_555
Na1 O51 2.492879 1_555
Na1 O53 2.546726 1_555
Na1 O68 2.552682 1_555
Na1 O32 2.702457 1_555
Na1 O17 2.715939 1_555
Na1 O0 2.906069 1_555
Na1 O10 2.924401 1_555
Na2 O68 2.491329 1_655
Na2 O52 2.492879 1_555
Na2 O51 2.546718 1_555
Na2 O66 2.552675 1_655
Na2 O30 2.702452 1_655
Na2 O15 2.715937 1_555
Na2 O1 2.906070 1_555
Na2 O11 2.924401 1_655
Na3 O71 2.439932 1_555
Na3 O69 2.526215 1_555
Na3 O50 2.535997 1_555
Na3 O49 2.560340 1_555
Na3 O35 2.656203 1_555
Na3 O14 2.702010 1_555
Na3 O6 2.914043 1_555
Na4 O69 2.439924 1_555
Na4 O70 2.526215 1_555
Na4 O48 2.535990 1_455
Na4 O50 2.560332 1_455
Na4 O33 2.656201 1_555
Na4 O12 2.702006 1_455
Na4 O7 2.914043 1_555
Na5 O70 2.439925 1_555
Na5 O71 2.526207 1_555
Na5 O49 2.535989 1_565
Na5 O48 2.560340 1_565
Na5 O34 2.656199 1_555
Na5 O13 2.702008 1_565
Na5 O8 2.914043 1_555
Na6 O43 2.500760 1_555
Na6 O64 2.509503 1_555
Na6 O65 2.531614 1_555
Na6 O42 2.545228 1_455
Na6 O28 2.647446 1_555
Na6 O7 2.677905 1_555
Na7 O44 2.500768 1_455
Na7 O65 2.509489 1_555
Na7 O63 2.531598 1_555
Na7 O43 2.545229 1_565
Na7 O29 2.647439 1_555
Na7 O8 2.677906 1_555
Na8 O42 2.500761 1_565
Na8 O63 2.509506 1_555
Na8 O64 2.531598 1_555
Na8 O44 2.545221 1_555
Na8 O27 2.647443 1_555
Na8 O6 2.677903 1_555
Na9 O62 2.399751 1_555
Na9 O47 2.493996 1_565
Na9 O61 2.570423 1_555
Na9 O45 2.577871 1_455
Na9 O26 2.657738 1_554
Na9 O11 2.678498 1_555
Na10 O60 2.399765 1_555
Na10 O45 2.493987 1_555
Na10 O62 2.570440 1_555
Na10 O46 2.577871 1_565
Na10 O24 2.657747 1_554
Na10 O9 2.678496 1_555
Na11 O61 2.399768 1_555
Na11 O46 2.493989 1_455
Na11 O60 2.570424 1_555
Na11 O47 2.577863 1_555
Na11 O25 2.657743 1_554
Na11 O10 2.678494 1_555
Na12 O55 2.466579 1_555
Na12 O40 2.470346 1_655
Na12 O54 2.540558 1_555
Na12 O41 2.552375 1_555
Na12 O19 2.663800 1_556
Na12 O4 2.679316 1_555
Na13 O56 2.466562 1_555
Na13 O41 2.470353 1_545
Na13 O55 2.540558 1_555
Na13 O39 2.552383 1_655
Na13 O20 2.663795 1_556
Na13 O5 2.679320 1_555
Na14 O54 2.466575 1_555
Na14 O39 2.470345 1_555
Na14 O56 2.540574 1_555
Na14 O40 2.552383 1_545
Na14 O18 2.663804 1_556
Na14 O3 2.679317 1_555
Na15 O59 2.467437 1_555
Na15 O38 2.476985 1_655
Na15 O37 2.542347 1_545
Na15 O57 2.592656 1_555
Na15 O2 2.638933 1_555
Na15 O23 2.675444 1_555
Na16 O57 2.467454 1_555
Na16 O36 2.476978 1_545
Na16 O38 2.542339 1_555
Na16 O58 2.592656 1_555
Na16 O0 2.638929 1_555
Na16 O21 2.675448 1_555
Na17 O58 2.467451 1_555
Na17 O37 2.476977 1_555
Na17 O36 2.542347 1_655
Na17 O59 2.592672 1_555
Na17 O1 2.638931 1_555
Na17 O22 2.675451 1_555
Na18 O44 2.520455 1_445
Na18 O42 2.520455 1_455
Na18 O43 2.520455 1_555
Na18 O38 2.561631 1_555
Na18 O36 2.561631 1_545
Na18 O37 2.561631 1_445
Na19 O39 2.491875 1_555
Na19 O41 2.491875 1_445
Na19 O40 2.491875 1_545
Na19 O45 2.570718 1_446
Na19 O47 2.570718 1_556
Na19 O46 2.570718 1_456
Na20 O56 2.493117 1_555
Na20 O55 2.493117 1_555
Na20 O54 2.493117 1_555
Na20 O50 2.518734 1_555
Na20 O48 2.518734 1_555
Na20 O49 2.518734 1_555
Na21 O51 2.499625 1_555
Na21 O53 2.499625 1_555
Na21 O52 2.499625 1_555
Na21 O58 2.526564 1_555
Na21 O59 2.526564 1_555
Na21 O57 2.526564 1_555
Na22 O68 2.529433 1_555
Na22 O66 2.529433 1_555
Na22 O67 2.529433 1_555
Na22 O62 2.565404 1_555
Na22 O60 2.565404 1_555
Na22 O61 2.565404 1_555
Na23 O63 2.542307 1_555
Na23 O65 2.542307 1_555
Na23 O64 2.542307 1_555
Na23 O69 2.556787 1_555
Na23 O71 2.556787 1_555
Na23 O70 2.556787 1_555
O0 Si0 1.639366 1_555
O0 Zr0 2.055612 1_555
O1 Si1 1.639366 1_555
O1 Zr0 2.055612 1_665
O2 Si2 1.639366 1_555
O2 Zr0 2.055613 1_655
O3 Si3 1.649054 1_555
O3 Ti0 1.898298 1_555
O4 Si4 1.649054 1_655
O4 Ti0 1.898298 1_665
O5 Si5 1.649054 1_545
O5 Ti0 1.898298 1_655
O6 Si5 1.638705 1_555
O6 Zr1 2.061772 1_665
O7 Si3 1.638705 1_555
O7 Zr1 2.061772 1_555
O8 Si4 1.638705 1_555
O8 Zr1 2.061772 1_565
O9 Si1 1.642144 1_555
O9 Zr2 2.054621 1_665
O10 Si2 1.642144 1_455
O10 Zr2 2.054621 1_555
O11 Si0 1.642144 1_565
O11 Zr2 2.054621 1_565
O12 Si6 1.634466 1_555
O12 Zr3 2.041656 1_555
O13 Si7 1.634466 1_555
O13 Zr3 2.041656 1_555
O14 Si8 1.634466 1_555
O14 Zr3 2.041656 1_555
O15 Si9 1.646988 1_555
O15 Ti1 1.926819 1_555
O16 Si10 1.646988 1_555
O16 Ti1 1.926819 1_555
O17 Si11 1.646988 1_555
O17 Ti1 1.926819 1_555
O18 Si11 1.649158 1_555
O18 Ti2 1.897024 1_554
O19 Si9 1.649158 1_555
O19 Ti2 1.897024 1_554
O20 Si10 1.649158 1_555
O20 Ti2 1.897024 1_554
O21 Si7 1.636079 1_555
O21 Zr4 2.047390 1_555
O22 Si8 1.636079 1_555
O22 Zr4 2.047390 1_555
O23 Si6 1.636079 1_555
O23 Zr4 2.047390 1_555
O24 Si12 1.657336 1_555
O24 Ti3 1.914172 1_556
O25 Si13 1.657336 1_555
O25 Ti3 1.914172 1_556
O26 Si14 1.657336 1_555
O26 Ti3 1.914172 1_556
O27 Si15 1.633184 1_555
O27 Zr5 2.048259 1_555
O28 Si16 1.633184 1_555
O28 Zr5 2.048259 1_555
O29 Si17 1.633184 1_555
O29 Zr5 2.048259 1_555
O30 Si17 1.641959 1_555
O30 Ti4 1.913146 1_555
O31 Si15 1.641959 1_555
O31 Ti4 1.913146 1_555
O32 Si16 1.641959 1_555
O32 Ti4 1.913146 1_555
O33 Si13 1.649060 1_555
O33 Ti5 1.916089 1_555
O34 Si14 1.649060 1_555
O34 Ti5 1.916089 1_555
O35 Si12 1.649060 1_555
O35 Ti5 1.916089 1_555
O36 Si17 1.629601 1_555
O36 Zr0 2.134028 1_565
O37 Si15 1.629610 1_555
O37 Zr0 2.134028 1_665
O38 Si16 1.629606 1_555
O38 Zr0 2.134028 1_555
O39 Si13 1.646787 1_555
O39 Ti0 2.089444 1_555
O40 Si14 1.646778 1_555
O40 Ti0 2.089444 1_565
O41 Si12 1.646783 1_555
O41 Ti0 2.089444 1_665
O42 Si6 1.625819 1_555
O42 Zr1 2.130432 1_655
O43 Si7 1.625828 1_555
O43 Zr1 2.130433 1_555
O44 Si8 1.625824 1_555
O44 Zr1 2.130432 1_665
O45 Si9 1.641329 1_555
O45 Zr2 2.164066 1_665
O46 Si10 1.641320 1_555
O46 Zr2 2.164066 1_655
O47 Si11 1.641325 1_555
O47 Zr2 2.164066 1_555
O48 Si5 1.635849 1_545
O48 Zr3 2.160316 1_555
O49 Si3 1.635858 1_555
O49 Zr3 2.160316 1_555
O50 Si4 1.635854 1_655
O50 Zr3 2.160316 1_555
O51 Si1 1.635442 1_555
O51 Ti1 2.035213 1_555
O52 Si2 1.635433 1_555
O52 Ti1 2.035213 1_555
O53 Si0 1.635438 1_555
O53 Ti1 2.035213 1_555
O54 Si12 1.645828 1_555
O54 Ti2 2.091350 1_555
O55 Si13 1.645810 1_655
O55 Ti2 2.091350 1_555
O56 Si14 1.645817 1_545
O56 Ti2 2.091350 1_555
O57 Si15 1.633252 1_545
O57 Zr4 2.149466 1_555
O58 Si16 1.633270 1_555
O58 Zr4 2.149466 1_555
O59 Si17 1.633260 1_655
O59 Zr4 2.149466 1_555
O60 Si11 1.643184 1_555
O60 Ti3 2.082716 1_555
O61 Si9 1.643166 1_455
O61 Ti3 2.082716 1_555
O62 Si10 1.643174 1_565
O62 Ti3 2.082716 1_555
O63 Si7 1.625503 1_565
O63 Zr5 2.129766 1_555
O64 Si8 1.625521 1_555
O64 Zr5 2.129766 1_555
O65 Si6 1.625510 1_455
O65 Zr5 2.129766 1_555
O66 Si0 1.635060 1_565
O66 Ti4 2.038863 1_555
O67 Si1 1.635070 1_555
O67 Ti4 2.038864 1_555
O68 Si2 1.635066 1_455
O68 Ti4 2.038863 1_555
O69 Si3 1.634487 1_555
O69 Ti5 2.041357 1_555
O70 Si4 1.634478 1_555
O70 Ti5 2.041357 1_555
O71 Si5 1.634483 1_555
O71 Ti5 2.041357 1_555
