# generated using pymatgen
data_MgMo3(SeS2)2
_symmetry_space_group_name_H-M   'P 1'
_cell_length_a   3.24197600
_cell_length_b   3.24199967
_cell_length_c   36.50725700
_cell_angle_alpha   90.00108638
_cell_angle_beta   90.00049698
_cell_angle_gamma   119.99811157
_symmetry_Int_Tables_number   1
_chemical_formula_structural   MgMo3(SeS2)2
_chemical_formula_sum   'Mg1 Mo3 Se2 S4'
_cell_volume   332.30804890
_cell_formula_units_Z   1
loop_
 _symmetry_equiv_pos_site_id
 _symmetry_equiv_pos_as_xyz
  1  'x, y, z'
loop_
 _atom_site_type_symbol
 _atom_site_label
 _atom_site_symmetry_multiplicity
 _atom_site_fract_x
 _atom_site_fract_y
 _atom_site_fract_z
 _atom_site_occupancy
  Mg  Mg0  1  0.66671100  0.33340700  0.22587100  1
  Mo  Mo0  1  0.33327900  0.66656000  0.10927000  1
  Mo  Mo1  1  0.33334900  0.66668500  0.57837200  1
  Mo  Mo2  1  0.66667000  0.33334500  0.35839900  1
  Se  Se0  1  0.33335100  0.66669700  0.40507700  1
  Se  Se1  1  0.33332600  0.66666400  0.31149600  1
  S  S0  1  0.66659700  0.33322600  0.06713000  1
  S  S1  1  0.66666600  0.33333100  0.53596000  1
  S  S2  1  0.66662300  0.33325200  0.15157200  1
  S  S3  1  0.66669300  0.33336700  0.62076600  1
loop_
_geom_bond_atom_site_label_1
_geom_bond_atom_site_label_2
_geom_bond_distance
_geom_bond_site_symmetry_2
Mg0 S2 2.712453 1_555
Mo0 S0 2.422801 1_555
Mo0 S0 2.422884 1_455
Mo0 S0 2.422917 1_565
Mo0 S2 2.426574 1_555
Mo0 S2 2.426637 1_455
Mo0 S2 2.426668 1_565
Mo1 S3 2.428735 1_555
Mo1 S3 2.428776 1_455
Mo1 S3 2.428786 1_565
Mo1 S1 2.429159 1_555
Mo1 S1 2.429191 1_565
Mo1 S1 2.429203 1_455
Mo2 Se0 2.531273 1_555
Mo2 Se0 2.531310 1_655
Mo2 Se0 2.531311 1_545
Mo2 Se1 2.536809 1_555
Mo2 Se1 2.536848 1_655
Mo2 Se1 2.536849 1_545
