# generated using pymatgen
data_Sr8MgMn6O20
_symmetry_space_group_name_H-M   'P 1'
_cell_length_a   5.61634744
_cell_length_b   6.72871584
_cell_length_c   13.60473994
_cell_angle_alpha   89.71290227
_cell_angle_beta   91.61410971
_cell_angle_gamma   110.85641405
_symmetry_Int_Tables_number   1
_chemical_formula_structural   Sr8MgMn6O20
_chemical_formula_sum   'Sr8 Mg1 Mn6 O20'
_cell_volume   480.24818488
_cell_formula_units_Z   1
loop_
 _symmetry_equiv_pos_site_id
 _symmetry_equiv_pos_as_xyz
  1  'x, y, z'
loop_
 _atom_site_type_symbol
 _atom_site_label
 _atom_site_symmetry_multiplicity
 _atom_site_fract_x
 _atom_site_fract_y
 _atom_site_fract_z
 _atom_site_occupancy
  Sr  Sr0  1  0.18025800  0.47001900  0.15994900  1
  Sr  Sr1  1  0.68818600  0.49286400  0.94394800  1
  Sr  Sr2  1  0.72583800  0.47658500  0.40487300  1
  Sr  Sr3  1  0.26720700  0.52078400  0.60091200  1
  Sr  Sr4  1  0.99387700  0.93141100  0.61756700  1
  Sr  Sr5  1  0.00816000  0.05818700  0.35937800  1
  Sr  Sr6  1  0.47431000  0.06519400  0.14491700  1
  Sr  Sr7  1  0.61404900  0.96442100  0.81104600  1
  Mg  Mg0  1  0.27035900  0.78375600  0.94803200  1
  Mn  Mn0  1  0.66604300  0.26793800  0.64354400  1
  Mn  Mn1  1  0.33952200  0.74366500  0.34875200  1
  Mn  Mn2  1  0.80650500  0.74419200  0.15850100  1
  Mn  Mn3  1  0.18957600  0.28134800  0.83566100  1
  Mn  Mn4  1  0.50351100  0.00117100  0.49620000  1
  Mn  Mn5  1  0.97711900  0.99984100  0.99667300  1
  O  O0  1  0.46076200  0.25511900  0.75794000  1
  O  O1  1  0.05261800  0.73974300  0.27150000  1
  O  O2  1  0.55048100  0.77744200  0.23824200  1
  O  O3  1  0.94766400  0.23420100  0.71683000  1
  O  O4  1  0.16966400  0.78805000  0.46877100  1
  O  O5  1  0.38608700  0.22105500  0.54267700  1
  O  O6  1  0.33565500  0.12969700  0.96935800  1
  O  O7  1  0.05390900  0.74619600  0.05843100  1
  O  O8  1  0.83550600  0.20835800  0.52244400  1
  O  O9  1  0.62645700  0.78818000  0.45179200  1
  O  O10  1  0.61707500  0.83833600  0.01564900  1
  O  O11  1  0.92914700  0.23550700  0.93336300  1
  O  O12  1  0.79768300  0.55124900  0.62406500  1
  O  O13  1  0.22257200  0.44607800  0.34801300  1
  O  O14  1  0.98840600  0.07552200  0.14194700  1
  O  O15  1  0.97480000  0.85979100  0.87187800  1
  O  O16  1  0.50350100  0.92596400  0.63393800  1
  O  O17  1  0.63803500  0.44944800  0.14025300  1
  O  O18  1  0.33449800  0.58602500  0.85450800  1
  O  O19  1  0.49001000  0.07414500  0.35907500  1
loop_
_geom_bond_atom_site_label_1
_geom_bond_atom_site_label_2
_geom_bond_distance
_geom_bond_site_symmetry_2
Mg0 O7 1.917770 1_556
Mg0 O18 1.975578 1_555
Mg0 O10 2.041140 1_556
Mg0 O15 2.143167 1_455
Mg0 O6 2.242759 1_565
Mn0 O12 1.803690 1_555
Mn0 O3 1.926626 1_555
Mn0 O0 1.946220 1_555
Mn0 O5 1.996111 1_555
Mn0 O8 2.036563 1_555
Mn0 O16 2.155414 1_545
Mn1 O13 1.871995 1_555
Mn1 O1 1.891120 1_555
Mn1 O2 1.902900 1_555
Mn1 O4 1.990204 1_555
Mn1 O9 2.045752 1_555
Mn1 O19 2.082572 1_565
Mn2 O17 1.883000 1_555
Mn2 O2 1.901043 1_555
Mn2 O7 1.969121 1_655
Mn2 O1 2.045526 1_655
Mn2 O14 2.109716 1_565
Mn2 O10 2.379348 1_555
Mn3 O18 1.932986 1_555
Mn3 O0 1.937252 1_555
Mn3 O11 1.945632 1_455
Mn3 O3 2.033395 1_455
Mn3 O6 2.348670 1_555
Mn3 O15 2.706823 1_445
Mn4 O9 1.905932 1_545
Mn4 O8 1.914228 1_555
Mn4 O19 1.933000 1_555
Mn4 O5 1.936860 1_555
Mn4 O16 1.938563 1_545
Mn4 O4 1.939766 1_545
Mn5 O11 1.899066 1_565
Mn5 O6 1.934545 1_665
Mn5 O15 1.943397 1_555
Mn5 O10 1.948972 1_556
Mn5 O14 2.037056 1_566
Mn5 O7 2.072225 1_656
O0 Sr7 2.497813 1_545
O0 Sr1 2.999665 1_555
O0 Sr3 3.186794 1_555
O1 Sr5 2.550765 1_565
O1 Sr0 2.669501 1_555
O1 Sr2 2.763619 1_455
O1 Sr6 3.141558 1_565
O2 Sr6 2.465462 1_565
O2 Sr0 2.563522 1_555
O2 Sr5 3.037575 1_665
O3 Sr7 2.477705 1_545
O3 Sr4 2.542809 1_545
O3 Sr3 2.662909 1_655
O4 Sr4 2.610260 1_455
O4 Sr3 2.716566 1_555
O4 Sr5 2.722585 1_565
O4 Sr2 2.745495 1_455
O5 Sr3 2.479024 1_555
O5 Sr4 2.595826 1_445
O5 Sr2 2.818736 1_555
O5 Sr5 3.161942 1_555
O6 Sr1 2.568278 1_555
O6 Sr6 2.573892 1_556
O7 Sr0 2.592771 1_555
O7 Sr1 2.627508 1_454
O7 Sr6 2.797614 1_565
O8 Sr2 2.627234 1_555
O8 Sr4 2.651369 1_545
O8 Sr3 2.772167 1_655
O8 Sr5 2.779257 1_655
O9 Sr2 2.445739 1_555
O9 Sr5 2.613981 1_665
O9 Sr4 2.935487 1_555
O9 Sr3 3.005511 1_555
O10 Sr6 2.654004 1_565
O10 Sr1 2.687096 1_554
O11 Sr1 2.555999 1_555
O11 Sr7 2.606570 1_545
O12 Sr4 2.400323 1_555
O12 Sr3 2.743613 1_655
O12 Sr3 2.920718 1_555
O12 Sr2 3.018397 1_555
O13 Sr5 2.460616 1_555
O13 Sr0 2.572458 1_555
O13 Sr2 2.845173 1_555
O13 Sr2 2.992431 1_455
O14 Sr0 2.494431 1_655
O14 Sr6 2.753677 1_655
O14 Sr6 2.864764 1_555
O14 Sr5 2.960320 1_655
O15 Sr7 2.490194 1_555
O15 Sr1 2.623547 1_555
O16 Sr7 2.462874 1_555
O16 Sr3 2.607374 1_555
O16 Sr4 2.756580 1_555
O16 Sr4 2.877844 1_455
O17 Sr6 2.417293 1_555
O17 Sr0 2.644573 1_555
O17 Sr1 2.696881 1_554
O17 Sr0 3.003189 1_655
O18 Sr7 2.547187 1_555
O18 Sr1 2.561705 1_555
O19 Sr2 2.625225 1_555
O19 Sr5 2.670014 1_555
O19 Sr6 2.912690 1_555
O19 Sr5 2.949934 1_655
