# generated using pymatgen
data_PdF2
_symmetry_space_group_name_H-M   'P 1'
_cell_length_a   5.33132410
_cell_length_b   5.33132410
_cell_length_c   5.33132410
_cell_angle_alpha   89.89377944
_cell_angle_beta   90.10619820
_cell_angle_gamma   89.89380180
_symmetry_Int_Tables_number   1
_chemical_formula_structural   PdF2
_chemical_formula_sum   'Pd4 F8'
_cell_volume   151.53153208
_cell_formula_units_Z   4
loop_
 _symmetry_equiv_pos_site_id
 _symmetry_equiv_pos_as_xyz
  1  'x, y, z'
loop_
 _atom_site_type_symbol
 _atom_site_label
 _atom_site_symmetry_multiplicity
 _atom_site_fract_x
 _atom_site_fract_y
 _atom_site_fract_z
 _atom_site_occupancy
  Pd  Pd0  1  0.00000000  0.50000000  0.50000000  1
  Pd  Pd1  1  0.50000000  0.50000000  0.00000000  1
  Pd  Pd2  1  0.50000000  -0.00000000  0.50000000  1
  Pd  Pd3  1  0.00000000  -0.00000000  0.00000000  1
  F  F0  1  0.34251229  0.15748971  0.84251429  1
  F  F1  1  0.15613928  0.84055053  0.34400292  1
  F  F2  1  0.84400292  0.34386072  0.15944747  1
  F  F3  1  0.65944747  0.65599408  0.65614228  1
  F  F4  1  0.34055253  0.34400592  0.34385772  1
  F  F5  1  0.15599708  0.65613928  0.84055253  1
  F  F6  1  0.84386072  0.15944947  0.65599708  1
  F  F7  1  0.65748771  0.84251029  0.15748571  1
loop_
_geom_bond_atom_site_label_1
_geom_bond_atom_site_label_2
_geom_bond_distance
_geom_bond_site_symmetry_2
F0 Pd1 2.180149 1_556
F0 Pd3 2.180162 1_556
F0 Pd2 2.180176 1_555
F1 Pd0 2.164148 1_555
F1 Pd3 2.182895 1_565
F1 Pd2 2.185817 1_565
F2 Pd0 2.164157 1_655
F2 Pd1 2.182891 1_555
F2 Pd3 2.185813 1_655
F3 Pd0 2.164157 1_655
F3 Pd2 2.182910 1_565
F3 Pd1 2.185793 1_556
F4 Pd0 2.164157 1_555
F4 Pd2 2.182910 1_555
F4 Pd1 2.185793 1_555
F5 Pd0 2.164157 1_555
F5 Pd1 2.182891 1_556
F5 Pd3 2.185813 1_566
F6 Pd0 2.164148 1_655
F6 Pd3 2.182895 1_656
F6 Pd2 2.185817 1_555
F7 Pd1 2.180149 1_555
F7 Pd3 2.180162 1_665
F7 Pd2 2.180176 1_565
