# generated using pymatgen
data_MgCo5SnO12
_symmetry_space_group_name_H-M   'P 1'
_cell_length_a   5.05878976
_cell_length_b   5.08941260
_cell_length_c   9.89470596
_cell_angle_alpha   94.15698026
_cell_angle_beta   98.38687910
_cell_angle_gamma   60.19883743
_symmetry_Int_Tables_number   1
_chemical_formula_structural   MgCo5SnO12
_chemical_formula_sum   'Mg1 Co5 Sn1 O12'
_cell_volume   218.69811092
_cell_formula_units_Z   1
loop_
 _symmetry_equiv_pos_site_id
 _symmetry_equiv_pos_as_xyz
  1  'x, y, z'
loop_
 _atom_site_type_symbol
 _atom_site_label
 _atom_site_symmetry_multiplicity
 _atom_site_fract_x
 _atom_site_fract_y
 _atom_site_fract_z
 _atom_site_occupancy
  Mg  Mg0  1  0.90811888  1.00000000  0.74779233  1
  Co  Co0  1  0.18029003  0.66821331  0.49850986  1
  Co  Co1  1  0.64622196  0.66532634  0.98520116  1
  Co  Co2  1  0.31154930  0.33467366  0.98520116  1
  Co  Co3  1  0.84850434  0.33178669  0.49850986  1
  Co  Co4  1  0.50493745  1.00000000  0.48545000  1
  Sn  Sn0  1  0.99533363  0.00000000  0.04753147  1
  O  O0  1  0.00331783  0.61752240  0.09895618  1
  O  O1  1  0.27319322  0.68476292  0.89362133  1
  O  O2  1  0.13946335  0.34842419  0.40571689  1
  O  O3  1  0.48788654  0.65157581  0.40571689  1
  O  O4  1  0.56106738  0.32426552  0.59895921  1
  O  O5  1  0.18139096  1.00000000  0.60240836  1
  O  O6  1  0.88533189  0.67573448  0.59895921  1
  O  O7  1  0.62084023  0.38247760  0.09895618  1
  O  O8  1  0.39492604  1.00000000  0.10049826  1
  O  O9  1  0.95795614  0.31523708  0.89362133  1
  O  O10  1  0.63871832  0.00000000  0.89307125  1
  O  O11  1  0.84845252  0.00000000  0.39881908  1
loop_
_geom_bond_atom_site_label_1
_geom_bond_atom_site_label_2
_geom_bond_distance
_geom_bond_site_symmetry_2
Mg0 O10 2.120190 1_565
Mg0 O5 2.135555 1_655
Mg0 O1 2.163316 1_655
Mg0 O9 2.163317 1_565
Mg0 O4 2.166285 1_565
Mg0 O6 2.166287 1_555
Co0 O3 1.883100 1_555
Co0 O11 1.892947 1_465
Co0 O6 1.893708 1_455
Co0 O2 1.896499 1_555
Co0 O5 1.914230 1_555
Co0 O4 2.026012 1_555
Co1 O0 1.897142 1_656
Co1 O1 1.928879 1_555
Co1 O8 1.951370 1_556
Co1 O7 1.953574 1_556
Co1 O9 1.967878 1_555
Co1 O10 1.970890 1_565
Co2 O7 1.897138 1_556
Co2 O9 1.928884 1_455
Co2 O8 1.951372 1_546
Co2 O0 1.953577 1_556
Co2 O1 1.967876 1_555
Co2 O10 1.970888 1_555
Co3 O2 1.883100 1_655
Co3 O11 1.892949 1_555
Co3 O4 1.893708 1_555
Co3 O3 1.896504 1_555
Co3 O5 1.914228 1_645
Co3 O6 2.026007 1_555
Co4 O2 1.924503 1_565
Co4 O3 1.924506 1_555
Co4 O6 2.041973 1_555
Co4 O4 2.041975 1_565
Co4 O11 2.046742 1_565
Co4 O5 2.137939 1_555
O0 Sn0 2.027115 1_465
O1 Sn0 2.213066 1_466
O7 Sn0 2.027115 1_555
O8 Sn0 2.012933 1_465
O9 Sn0 2.213066 1_556
O10 Sn0 2.187711 1_556
