# generated using pymatgen
data_Na10Nb7Ga(SiO4)12
_symmetry_space_group_name_H-M   'P 1'
_cell_length_a   18.05914975
_cell_length_b   9.03196300
_cell_length_c   22.51866256
_cell_angle_alpha   90.00713537
_cell_angle_beta   90.01239296
_cell_angle_gamma   120.00292876
_symmetry_Int_Tables_number   1
_chemical_formula_structural   Na10Nb7Ga(SiO4)12
_chemical_formula_sum   'Na30 Nb21 Ga3 Si36 O144'
_cell_volume   3180.82539713
_cell_formula_units_Z   3
loop_
 _symmetry_equiv_pos_site_id
 _symmetry_equiv_pos_as_xyz
  1  'x, y, z'
loop_
 _atom_site_type_symbol
 _atom_site_label
 _atom_site_symmetry_multiplicity
 _atom_site_fract_x
 _atom_site_fract_y
 _atom_site_fract_z
 _atom_site_occupancy
  Na  Na0  1  0.81617906  0.00973097  0.24624738  1
  Na  Na1  1  0.18315891  0.36618667  0.24910523  1
  Na  Na2  1  0.68861572  0.36671348  0.24567400  1
  Na  Na3  1  0.99470512  0.62029521  0.24631294  1
  Na  Na4  1  0.31619186  0.62280155  0.74680644  1
  Na  Na5  1  0.81655969  0.62289989  0.74629401  1
  Na  Na6  1  0.99466776  0.36598360  0.74592527  1
  Na  Na7  1  0.49459512  0.36535741  0.74602518  1
  Na  Na8  1  0.18863462  0.01050090  0.74721051  1
  Na  Na9  1  0.68872011  0.01105686  0.74663914  1
  Na  Na10  1  0.15211129  0.33656895  0.58462197  1
  Na  Na11  1  0.65320803  0.33638236  0.58391312  1
  Na  Na12  1  0.33361702  0.97050201  0.58396351  1
  Na  Na13  1  0.83413290  0.97270486  0.58379961  1
  Na  Na14  1  0.65181750  0.96965572  0.08505712  1
  Na  Na15  1  0.83245100  0.69511892  0.08412215  1
  Na  Na16  1  0.01587827  0.33567643  0.08315378  1
  Na  Na17  1  0.48297323  0.29847097  0.41687717  1
  Na  Na18  1  -0.00000419  0.99124395  0.49692533  1
  Na  Na19  1  0.50131724  0.98482458  0.49804695  1
  Na  Na20  1  0.00485948  0.99936654  0.99707669  1
  Na  Na21  1  0.49568329  0.00114485  0.99908357  1
  Na  Na22  1  0.33299007  0.33300957  0.83346870  1
  Na  Na23  1  0.83346773  0.33307385  0.83285602  1
  Na  Na24  1  0.33311950  0.33318128  0.33246983  1
  Na  Na25  1  0.83293923  0.33222024  0.33209940  1
  Na  Na26  1  0.17489902  0.68484965  0.16443749  1
  Na  Na27  1  0.65764524  0.65570770  0.16622301  1
  Na  Na28  1  0.16224649  0.66697907  0.66570214  1
  Na  Na29  1  0.66230015  0.66716120  0.66551225  1
  Nb  Nb0  1  0.99908072  -0.00019848  0.35593915  1
  Nb  Nb1  1  0.50038314  0.99666905  0.35402561  1
  Nb  Nb2  1  0.00012459  0.00089240  0.85627216  1
  Nb  Nb3  1  0.49988215  0.99917916  0.85634631  1
  Nb  Nb4  1  0.99982229  0.99575123  0.64517692  1
  Nb  Nb5  1  0.50041962  0.99678257  0.64521083  1
  Nb  Nb6  1  0.00322090  0.00006399  0.14480337  1
  Nb  Nb7  1  0.49697142  0.99924589  0.14419937  1
  Nb  Nb8  1  0.33666246  0.33375848  0.18724321  1
  Nb  Nb9  1  0.33281415  0.33274013  0.97719448  1
  Nb  Nb10  1  0.83356013  0.33390781  0.97763546  1
  Nb  Nb11  1  0.33026024  0.33495022  0.47895525  1
  Nb  Nb12  1  0.83434848  0.33421054  0.47759851  1
  Nb  Nb13  1  0.16949333  0.67314408  0.02134732  1
  Nb  Nb14  1  0.66375926  0.65970460  0.02031092  1
  Nb  Nb15  1  0.16378295  0.66598460  0.52014998  1
  Nb  Nb16  1  0.66536364  0.66859687  0.52077927  1
  Nb  Nb17  1  0.16907686  0.67135293  0.31282109  1
  Nb  Nb18  1  0.66500828  0.66694030  0.31212423  1
  Nb  Nb19  1  0.16678824  0.66628951  0.81476284  1
  Nb  Nb20  1  0.66685659  0.66661318  0.81449774  1
  Ga  Ga0  1  0.33384337  0.33355434  0.68534288  1
  Ga  Ga1  1  0.83383823  0.33395278  0.68500396  1
  Ga  Ga2  1  0.83270122  0.33323760  0.18509867  1
  Si  Si0  1  0.14578595  0.00052195  0.25120276  1
  Si  Si1  1  0.64553097  0.00163212  0.24789456  1
  Si  Si2  1  0.35579996  0.71032245  0.24984865  1
  Si  Si3  1  0.85545972  0.70761311  0.24913905  1
  Si  Si4  1  0.99808365  0.28962327  0.24942564  1
  Si  Si5  1  0.49871428  0.28712433  0.25100494  1
  Si  Si6  1  0.14633025  0.28956776  0.74931514  1
  Si  Si7  1  0.64633846  0.28954312  0.74952113  1
  Si  Si8  1  0.99825845  0.70638160  0.75052518  1
  Si  Si9  1  0.49823200  0.70627589  0.75032925  1
  Si  Si10  1  0.35506814  0.00325068  0.74962690  1
  Si  Si11  1  0.85500562  0.00345518  0.74968431  1
  Si  Si12  1  0.47641949  0.33746451  0.58558508  1
  Si  Si13  1  0.97628963  0.33752323  0.58656325  1
  Si  Si14  1  0.19025606  0.04534476  0.58649529  1
  Si  Si15  1  0.69138381  0.04842721  0.58568742  1
  Si  Si16  1  0.33404001  0.61952041  0.58622651  1
  Si  Si17  1  0.83431220  0.61761661  0.58534047  1
  Si  Si18  1  0.47690022  0.62186580  0.08212725  1
  Si  Si19  1  0.97661310  0.61749543  0.08578069  1
  Si  Si20  1  0.33305284  0.04621825  0.08241386  1
  Si  Si21  1  0.83274112  0.04727620  0.08577204  1
  Si  Si22  1  0.19106653  0.33619580  0.08379876  1
  Si  Si23  1  0.69022509  0.33318438  0.08582441  1
  Si  Si24  1  0.31210947  0.66529675  0.91678996  1
  Si  Si25  1  0.81225442  0.66682039  0.91750120  1
  Si  Si26  1  0.02188064  0.37733562  0.91824918  1
  Si  Si27  1  0.51961513  0.37398101  0.91577100  1
  Si  Si28  1  0.16697836  0.95802642  0.91666047  1
  Si  Si29  1  0.66694140  0.95782575  0.91755061  1
  Si  Si30  1  0.31209283  0.95716662  0.41807633  1
  Si  Si31  1  0.81131193  0.95627143  0.41664908  1
  Si  Si32  1  0.16603611  0.37628247  0.41632374  1
  Si  Si33  1  0.66867520  0.37762246  0.41623834  1
  Si  Si34  1  0.02099155  0.66585134  0.41504836  1
  Si  Si35  1  0.52118751  0.66920241  0.41683861  1
  O  O0  1  0.09847444  0.03241953  0.30738912  1
  O  O1  1  0.59491045  0.02744306  0.30513154  1
  O  O2  1  0.41539733  0.80764643  0.30790647  1
  O  O3  1  0.91895947  0.80791633  0.30545203  1
  O  O4  1  0.48647122  0.17454440  0.31111008  1
  O  O5  1  0.98551188  0.16350493  0.30572433  1
  O  O6  1  0.09638987  0.16282289  0.80527726  1
  O  O7  1  0.59638517  0.16247085  0.80529031  1
  O  O8  1  0.48476596  0.80465525  0.80656629  1
  O  O9  1  0.98482792  0.80545384  0.80658944  1
  O  O10  1  0.41854309  0.02929830  0.80539413  1
  O  O11  1  0.91822607  0.02910519  0.80552061  1
  O  O12  1  0.39946732  0.96821973  0.69050982  1
  O  O13  1  0.89921195  0.96800715  0.69065960  1
  O  O14  1  0.08423103  0.20182960  0.69033109  1
  O  O15  1  0.58428226  0.20253633  0.69043719  1
  O  O16  1  0.01609010  0.83665480  0.69310048  1
  O  O17  1  0.51606838  0.83676129  0.69308317  1
  O  O18  1  0.40305469  0.83136809  0.19234282  1
  O  O19  1  0.89978975  0.83228974  0.19072132  1
  O  O20  1  0.01621169  0.20056576  0.19107207  1
  O  O21  1  0.51544059  0.19309112  0.19449376  1
  O  O22  1  0.08266877  0.96842189  0.19346562  1
  O  O23  1  0.58626338  0.97203804  0.18919490  1
  O  O24  1  0.43605484  0.36421788  0.64555186  1
  O  O25  1  0.93732198  0.36516554  0.64700781  1
  O  O26  1  0.24835493  0.12302431  0.64513719  1
  O  O27  1  0.74846749  0.12291352  0.64529034  1
  O  O28  1  0.31300186  0.50110831  0.64449269  1
  O  O29  1  0.81277162  0.50169926  0.64460672  1
  O  O30  1  0.43027059  0.50271723  0.14084864  1
  O  O31  1  0.93774186  0.50217436  0.14508932  1
  O  O32  1  0.32044835  0.14028310  0.14108957  1
  O  O33  1  0.81255542  0.12354313  0.14495891  1
  O  O34  1  0.24661298  0.35924140  0.14423056  1
  O  O35  1  0.74883464  0.37571666  0.14494333  1
  O  O36  1  0.23734992  0.30773159  0.02652309  1
  O  O37  1  0.73636786  0.30037945  0.02826164  1
  O  O38  1  0.41740907  0.52711268  0.02489740  1
  O  O39  1  0.91364310  0.52875485  0.02819674  1
  O  O40  1  0.34664701  0.16588280  0.02498783  1
  O  O41  1  0.85048984  0.17266290  0.02835143  1
  O  O42  1  0.23653520  0.16984017  0.52822553  1
  O  O43  1  0.73593576  0.17157019  0.52795158  1
  O  O44  1  0.34691517  0.52616940  0.52728489  1
  O  O45  1  0.84717755  0.52570926  0.52690596  1
  O  O46  1  0.41695439  0.30239575  0.52583133  1
  O  O47  1  0.91411759  0.30056914  0.52877862  1
  O  O48  1  0.26240586  0.69063786  0.97337800  1
  O  O49  1  0.76513975  0.69185896  0.97576224  1
  O  O50  1  0.08067244  0.46829626  0.97667316  1
  O  O51  1  0.58244822  0.47477696  0.97245826  1
  O  O52  1  0.15402211  0.83326781  0.97314765  1
  O  O53  1  0.65440730  0.83866840  0.97589201  1
  O  O54  1  0.26637342  0.84103936  0.47702427  1
  O  O55  1  0.76491386  0.83770842  0.47554730  1
  O  O56  1  0.15554163  0.47048166  0.47555808  1
  O  O57  1  0.65232149  0.46922373  0.47434926  1
  O  O58  1  0.08329120  0.69027829  0.47241275  1
  O  O59  1  0.58181439  0.69176803  0.47438724  1
  O  O60  1  0.06779534  0.64071331  0.35636659  1
  O  O61  1  0.56866426  0.63708598  0.36003600  1
  O  O62  1  0.25063954  0.85873786  0.36068792  1
  O  O63  1  0.75167422  0.86138635  0.35809307  1
  O  O64  1  0.17910169  0.49426228  0.35746671  1
  O  O65  1  0.67909602  0.49487017  0.35751067  1
  O  O66  1  0.06897995  0.49585649  0.85857512  1
  O  O67  1  0.56780669  0.49343462  0.85675757  1
  O  O68  1  0.17904010  0.86410365  0.85697458  1
  O  O69  1  0.67885343  0.86227498  0.85833693  1
  O  O70  1  0.25316748  0.64194549  0.85699880  1
  O  O71  1  0.75247318  0.64224173  0.85825404  1
  O  O72  1  0.01351610  0.83737059  0.41019593  1
  O  O73  1  0.51287121  0.83882644  0.41143970  1
  O  O74  1  0.40777830  0.98209434  0.41204876  1
  O  O75  1  0.90506631  0.97234727  0.41028542  1
  O  O76  1  0.08109197  0.18886845  0.41087020  1
  O  O77  1  0.58003623  0.19265028  0.41105299  1
  O  O78  1  0.01337912  0.18977797  0.90983583  1
  O  O79  1  0.51365509  0.18906831  0.91005519  1
  O  O80  1  0.08116726  0.97323925  0.91006328  1
  O  O81  1  0.58136348  0.97304461  0.91010046  1
  O  O82  1  0.40515418  0.83780747  0.90999558  1
  O  O83  1  0.90545598  0.83807446  0.91035162  1
  O  O84  1  0.48669160  0.16360258  0.58891234  1
  O  O85  1  0.98693434  0.16409247  0.58950751  1
  O  O86  1  0.09639598  0.03395563  0.58908027  1
  O  O87  1  0.59639198  0.03320626  0.58956297  1
  O  O88  1  0.41736563  0.81447908  0.58878097  1
  O  O89  1  0.91694244  0.81429143  0.58912075  1
  O  O90  1  0.49055240  0.81485643  0.08838006  1
  O  O91  1  0.98348967  0.80710372  0.09003464  1
  O  O92  1  0.41833647  0.02738409  0.08997883  1
  O  O93  1  0.91877135  0.02698390  0.08950852  1
  O  O94  1  0.09383342  0.16650212  0.08936799  1
  O  O95  1  0.59569407  0.15984107  0.08957513  1
  O  O96  1  0.34525490  0.17166898  0.74587512  1
  O  O97  1  0.84495580  0.17155072  0.74617425  1
  O  O98  1  0.24025472  0.30871447  0.74507526  1
  O  O99  1  0.74030243  0.30879961  0.74521255  1
  O  O100  1  0.41390243  0.51950285  0.74498999  1
  O  O101  1  0.91371162  0.51974854  0.74531541  1
  O  O102  1  0.34225880  0.51816599  0.24554683  1
  O  O103  1  0.84621368  0.51967799  0.24558562  1
  O  O104  1  0.41499444  0.30945028  0.24478251  1
  O  O105  1  0.91317164  0.30701327  0.24560471  1
  O  O106  1  0.23803442  0.17376617  0.24472619  1
  O  O107  1  0.73935472  0.17228603  0.24600413  1
  O  O108  1  0.31985158  0.49484344  0.92175871  1
  O  O109  1  0.81961969  0.49526733  0.92290817  1
  O  O110  1  0.42704772  0.35923690  0.92136568  1
  O  O111  1  0.92809541  0.36111601  0.92316697  1
  O  O112  1  0.25199255  0.14454942  0.92186825  1
  O  O113  1  0.75257855  0.14413945  0.92301911  1
  O  O114  1  0.32365691  0.14841501  0.42257897  1
  O  O115  1  0.81972554  0.14325529  0.42343809  1
  O  O116  1  0.25206986  0.35953810  0.42251526  1
  O  O117  1  0.75266782  0.35840809  0.42225357  1
  O  O118  1  0.42963133  0.49242680  0.42283476  1
  O  O119  1  0.92833024  0.49503086  0.42304699  1
  O  O120  1  0.17552458  0.49979777  0.07863011  1
  O  O121  1  0.68084990  0.50462193  0.07627470  1
  O  O122  1  0.07136725  0.63779792  0.07661244  1
  O  O123  1  0.57395605  0.64803365  0.07816510  1
  O  O124  1  0.24836592  0.85602724  0.07773185  1
  O  O125  1  0.74927759  0.85365033  0.07725346  1
  O  O126  1  0.18071409  0.85610813  0.57691560  1
  O  O127  1  0.68136661  0.85759855  0.57685320  1
  O  O128  1  0.24967945  0.64429646  0.57730565  1
  O  O129  1  0.74983681  0.64381265  0.57656640  1
  O  O130  1  0.07507302  0.49860159  0.57760281  1
  O  O131  1  0.57526871  0.49820700  0.57755764  1
  O  O132  1  0.15025699  0.82463695  0.25536590  1
  O  O133  1  0.65615263  0.83166381  0.25585965  1
  O  O134  1  0.25956285  0.68688110  0.25554824  1
  O  O135  1  0.76121447  0.69414844  0.25502912  1
  O  O136  1  0.08580218  0.47739783  0.25522826  1
  O  O137  1  0.58715236  0.47385673  0.25556712  1
  O  O138  1  0.15240038  0.47777869  0.75467773  1
  O  O139  1  0.65284918  0.47818523  0.75487123  1
  O  O140  1  0.08616455  0.69436739  0.75455451  1
  O  O141  1  0.58646218  0.69520789  0.75452170  1
  O  O142  1  0.26093928  0.82718668  0.75455247  1
  O  O143  1  0.76085940  0.82710841  0.75482751  1
loop_
_geom_bond_atom_site_label_1
_geom_bond_atom_site_label_2
_geom_bond_distance
_geom_bond_site_symmetry_2
Na0 O105 2.360986 1_555
Na0 O107 2.473372 1_555
Na0 O135 2.513855 1_545
Na0 O33 2.516182 1_555
Na0 O133 2.517398 1_545
Na0 O63 2.817230 1_545
Na0 O5 2.970591 1_555
Na0 O19 2.971907 1_545
Na1 O106 2.394721 1_555
Na1 O136 2.425980 1_555
Na1 O102 2.490338 1_555
Na1 O134 2.513459 1_555
Na1 O34 2.639590 1_555
Na1 O64 2.716982 1_555
Na1 O20 2.919362 1_555
Na1 O0 2.922372 1_555
Na2 O107 2.352158 1_555
Na2 O103 2.465062 1_555
Na2 O137 2.473265 1_555
Na2 O35 2.499445 1_555
Na2 O135 2.575157 1_555
Na2 O65 2.812517 1_555
Na2 O21 2.943010 1_555
Na2 O1 2.976943 1_555
Na3 O103 2.362211 1_555
Na3 O105 2.451113 1_555
Na3 O132 2.480666 1_655
Na3 O31 2.508583 1_555
Na3 O136 2.556547 1_655
Na3 O60 2.770032 1_655
Na3 O22 2.971971 1_655
Na3 O3 2.972332 1_555
Na4 O100 2.373256 1_555
Na4 O98 2.457440 1_555
Na4 O142 2.505174 1_555
Na4 O28 2.540800 1_555
Na4 O138 2.573324 1_555
Na4 O70 2.771375 1_555
Na4 O8 2.962010 1_555
Na4 O12 2.985221 1_555
Na5 O101 2.362502 1_555
Na5 O99 2.457255 1_555
Na5 O143 2.511181 1_555
Na5 O29 2.524061 1_555
Na5 O139 2.573349 1_555
Na5 O71 2.815977 1_555
Na5 O9 2.963639 1_555
Na5 O13 2.976910 1_555
Na6 O97 2.376012 1_555
Na6 O25 2.454711 1_555
Na6 O101 2.469209 1_555
Na6 O138 2.509117 1_655
Na6 O140 2.581352 1_655
Na6 O66 2.834673 1_655
Na6 O11 2.960687 1_555
Na6 O14 2.963151 1_655
Na7 O96 2.369705 1_555
Na7 O100 2.468079 1_555
Na7 O24 2.494965 1_555
Na7 O139 2.516544 1_555
Na7 O141 2.592550 1_555
Na7 O67 2.787878 1_555
Na7 O10 2.952833 1_555
Na7 O15 2.955575 1_555
Na8 O98 2.369595 1_555
Na8 O96 2.449962 1_555
Na8 O140 2.514066 1_545
Na8 O26 2.526829 1_555
Na8 O142 2.575994 1_545
Na8 O68 2.767626 1_545
Na8 O6 2.944511 1_555
Na8 O16 2.960478 1_545
Na9 O99 2.365444 1_555
Na9 O97 2.443737 1_555
Na9 O27 2.510969 1_555
Na9 O141 2.512282 1_545
Na9 O143 2.579949 1_545
Na9 O69 2.815272 1_545
Na9 O7 2.945545 1_555
Na9 O17 2.956913 1_545
Na10 O86 2.396374 1_555
Na10 O128 2.441166 1_555
Na10 O130 2.477598 1_555
Na10 O85 2.586463 1_455
Na10 O14 2.675853 1_555
Na10 O56 2.724773 1_555
Na10 O28 2.854445 1_555
Na10 O42 2.915731 1_555
Na11 O87 2.399459 1_555
Na11 O129 2.436585 1_555
Na11 O131 2.489019 1_555
Na11 O84 2.607275 1_555
Na11 O15 2.694822 1_555
Na11 O57 2.747177 1_555
Na11 O29 2.845305 1_555
Na11 O43 2.874090 1_555
Na12 O126 2.421569 1_555
Na12 O84 2.423672 1_565
Na12 O88 2.533080 1_555
Na12 O128 2.556190 1_555
Na12 O12 2.682250 1_555
Na12 O54 2.686816 1_555
Na12 O26 2.878887 1_565
Na12 O46 2.907669 1_565
Na13 O127 2.418221 1_555
Na13 O85 2.418385 1_565
Na13 O89 2.537278 1_555
Na13 O129 2.577861 1_555
Na13 O13 2.687421 1_555
Na13 O55 2.732264 1_555
Na13 O47 2.848600 1_565
Na13 O27 2.872416 1_565
Na14 O95 2.393624 1_565
Na14 O125 2.463897 1_555
Na14 O123 2.520794 1_555
Na14 O90 2.523864 1_555
Na14 O23 2.632083 1_555
Na14 O53 2.738524 1_554
Na14 O33 2.853149 1_565
Na14 O37 2.886216 1_565
Na15 O91 2.391951 1_555
Na15 O121 2.403290 1_555
Na15 O125 2.545798 1_555
Na15 O93 2.599234 1_565
Na15 O19 2.695788 1_555
Na15 O49 2.719486 1_554
Na15 O35 2.850190 1_555
Na15 O39 2.863115 1_555
Na16 O122 2.395294 1_555
Na16 O93 2.445343 1_455
Na16 O120 2.499185 1_555
Na16 O94 2.547048 1_555
Na16 O50 2.674625 1_554
Na16 O20 2.720852 1_555
Na16 O41 2.865583 1_455
Na16 O31 2.884487 1_455
Na17 O77 2.383029 1_555
Na17 O118 2.387980 1_555
Na17 O74 2.477970 1_545
Na17 O114 2.496323 1_555
Na17 O4 2.645674 1_555
Na17 O46 2.736035 1_555
Na17 O61 2.941986 1_555
Na17 O57 2.947426 1_555
Na18 O72 2.478774 1_555
Na18 O76 2.544378 1_565
Na18 O75 2.545667 1_455
Na18 O89 2.592111 1_455
Na18 O86 2.610103 1_565
Na18 O85 2.684594 1_465
Na19 O73 2.420881 1_555
Na19 O88 2.551415 1_555
Na19 O74 2.561506 1_555
Na19 O87 2.575617 1_565
Na19 O77 2.591413 1_565
Na19 O84 2.699965 1_565
Na20 O80 2.473933 1_555
Na20 O83 2.557560 1_455
Na20 O78 2.564593 1_565
Na20 O94 2.598423 1_566
Na20 O91 2.622461 1_456
Na20 O93 2.683420 1_466
Na21 O79 2.540798 1_555
Na21 O82 2.541571 1_545
Na21 O92 2.555190 1_556
Na21 O90 2.593845 1_546
Na21 O81 2.620626 1_545
Na21 O95 2.622517 1_556
Na22 O96 2.526962 1_555
Na22 O98 2.538872 1_555
Na22 O110 2.540689 1_555
Na22 O100 2.546114 1_555
Na22 O108 2.547931 1_555
Na22 O112 2.551801 1_555
Na23 O97 2.506719 1_555
Na23 O101 2.527308 1_555
Na23 O99 2.530519 1_555
Na23 O113 2.584060 1_555
Na23 O111 2.585700 1_555
Na23 O109 2.585847 1_555
Na24 O102 2.524931 1_555
Na24 O104 2.539553 1_555
Na24 O106 2.539880 1_555
Na24 O114 2.578235 1_555
Na24 O116 2.580748 1_555
Na24 O118 2.595758 1_555
Na25 O107 2.501606 1_555
Na25 O105 2.505185 1_555
Na25 O103 2.512884 1_555
Na25 O117 2.573511 1_555
Na25 O119 2.605508 1_555
Na25 O115 2.606561 1_555
Na26 O124 2.431723 1_555
Na26 O134 2.553050 1_555
Na26 O120 2.558396 1_555
Na26 O132 2.558582 1_555
Na26 O122 2.605998 1_555
Na26 O136 2.695718 1_555
Na27 O123 2.472849 1_555
Na27 O137 2.505382 1_555
Na27 O133 2.577358 1_555
Na27 O121 2.590759 1_555
Na27 O135 2.639466 1_555
Na27 O125 2.644266 1_555
Na28 O140 2.508650 1_555
Na28 O130 2.516039 1_555
Na28 O126 2.541260 1_555
Na28 O138 2.581351 1_555
Na28 O142 2.586907 1_555
Na28 O128 2.611942 1_555
Na29 O141 2.511062 1_555
Na29 O131 2.514170 1_555
Na29 O127 2.543981 1_555
Na29 O139 2.588662 1_555
Na29 O143 2.593525 1_555
Na29 O129 2.624873 1_555
Nb0 O3 1.969944 1_545
Nb0 O5 1.971668 1_555
Nb0 O0 1.994000 1_655
Nb0 O75 2.005422 1_545
Nb0 O72 2.023813 1_645
Nb0 O76 2.027072 1_655
Nb1 O2 1.930592 1_555
Nb1 O1 1.931325 1_565
Nb1 O4 1.995506 1_565
Nb1 O73 2.019087 1_555
Nb1 O74 2.074167 1_555
Nb1 O77 2.074543 1_565
Nb2 O11 1.983633 1_455
Nb2 O6 1.984556 1_555
Nb2 O9 1.988872 1_445
Nb2 O78 2.003397 1_555
Nb2 O80 2.009113 1_545
Nb2 O83 2.013812 1_445
Nb3 O8 1.984350 1_555
Nb3 O10 1.986746 1_565
Nb3 O7 1.991227 1_565
Nb3 O82 2.004523 1_555
Nb3 O81 2.008206 1_555
Nb3 O79 2.009687 1_565
Nb4 O16 1.933442 1_655
Nb4 O13 1.989621 1_555
Nb4 O14 1.995822 1_665
Nb4 O89 2.016224 1_555
Nb4 O86 2.038547 1_665
Nb4 O85 2.071646 1_565
Nb5 O17 1.933816 1_555
Nb5 O12 1.990313 1_555
Nb5 O15 1.992119 1_565
Nb5 O88 2.025917 1_555
Nb5 O87 2.028115 1_565
Nb5 O84 2.076725 1_565
Nb6 O22 1.936617 1_545
Nb6 O20 1.998650 1_555
Nb6 O19 2.006215 1_445
Nb6 O94 2.009254 1_555
Nb6 O91 2.015847 1_445
Nb6 O93 2.074980 1_455
Nb7 O18 1.944300 1_555
Nb7 O21 1.968397 1_565
Nb7 O92 1.982992 1_565
Nb7 O23 2.020637 1_555
Nb7 O90 2.042871 1_555
Nb7 O95 2.051996 1_565
Nb8 O30 1.923329 1_555
Nb8 O32 1.925419 1_555
Nb8 O34 2.002353 1_555
Nb8 O104 2.009494 1_555
Nb8 O102 2.083056 1_555
Nb8 O106 2.088922 1_555
Nb9 O36 1.966865 1_556
Nb9 O40 1.966900 1_556
Nb9 O38 1.971400 1_556
Nb9 O112 2.022182 1_555
Nb9 O108 2.024813 1_555
Nb9 O110 2.031637 1_555
Nb10 O39 1.984545 1_556
Nb10 O37 1.985327 1_556
Nb10 O41 1.991057 1_556
Nb10 O111 2.015158 1_555
Nb10 O109 2.018266 1_555
Nb10 O113 2.020145 1_555
Nb11 O44 1.933289 1_555
Nb11 O42 1.948496 1_555
Nb11 O116 1.992846 1_555
Nb11 O46 2.027717 1_555
Nb11 O114 2.064667 1_555
Nb11 O118 2.071059 1_555
Nb12 O45 1.968941 1_555
Nb12 O47 1.983163 1_555
Nb12 O43 1.998125 1_555
Nb12 O119 2.008808 1_555
Nb12 O115 2.018823 1_555
Nb12 O117 2.024492 1_555
Nb13 O48 1.934661 1_554
Nb13 O52 1.937032 1_554
Nb13 O124 2.003778 1_555
Nb13 O50 2.009713 1_554
Nb13 O122 2.055775 1_555
Nb13 O120 2.073176 1_555
Nb14 O51 1.911332 1_554
Nb14 O49 1.977830 1_554
Nb14 O53 1.978663 1_554
Nb14 O121 2.019413 1_555
Nb14 O123 2.041694 1_555
Nb14 O125 2.095439 1_555
Nb15 O58 1.906587 1_555
Nb15 O56 1.971065 1_555
Nb15 O54 1.986718 1_555
Nb15 O130 2.026096 1_555
Nb15 O126 2.037260 1_555
Nb15 O128 2.098639 1_555
Nb16 O59 1.930518 1_555
Nb16 O55 1.964047 1_555
Nb16 O57 1.991613 1_555
Nb16 O127 2.024332 1_555
Nb16 O131 2.036569 1_555
Nb16 O129 2.072734 1_555
Nb17 O62 1.923950 1_555
Nb17 O60 1.969319 1_555
Nb17 O64 1.972755 1_555
Nb17 O134 2.031023 1_555
Nb17 O132 2.043775 1_555
Nb17 O136 2.091956 1_555
Nb18 O61 1.948247 1_555
Nb18 O63 1.963511 1_555
Nb18 O65 1.979982 1_555
Nb18 O133 2.020566 1_555
Nb18 O137 2.046130 1_555
Nb18 O135 2.075102 1_555
Nb19 O70 1.931000 1_555
Nb19 O66 1.935144 1_555
Nb19 O68 1.936172 1_555
Nb19 O138 2.086620 1_555
Nb19 O142 2.090825 1_555
Nb19 O140 2.095462 1_555
Nb20 O71 1.936421 1_555
Nb20 O67 1.937728 1_555
Nb20 O69 1.939356 1_555
Nb20 O143 2.080653 1_555
Nb20 O139 2.081339 1_555
Nb20 O141 2.091145 1_555
Ga0 O24 1.943266 1_555
Ga0 O28 1.961607 1_555
Ga0 O26 1.970268 1_555
Ga0 O100 2.070095 1_555
Ga0 O98 2.082785 1_555
Ga0 O96 2.083293 1_555
Ga1 O25 1.943693 1_555
Ga1 O29 1.960713 1_555
Ga1 O27 1.967215 1_555
Ga1 O101 2.078220 1_555
Ga1 O99 2.088170 1_555
Ga1 O97 2.093843 1_555
Ga2 O35 1.959435 1_555
Ga2 O31 1.960788 1_555
Ga2 O33 1.961317 1_555
Ga2 O103 2.082967 1_555
Ga2 O105 2.089947 1_555
Ga2 O107 2.094461 1_555
O0 Si0 1.631072 1_555
O1 Si1 1.662790 1_555
O2 Si2 1.641116 1_555
O3 Si3 1.644362 1_555
O4 Si5 1.640234 1_555
O5 Si4 1.642612 1_555
O6 Si6 1.637151 1_555
O7 Si7 1.635113 1_555
O8 Si9 1.633511 1_555
O9 Si8 1.634109 1_555
O10 Si10 1.635849 1_555
O11 Si11 1.634901 1_555
O12 Si10 1.664114 1_565
O13 Si11 1.662067 1_565
O14 Si6 1.661381 1_555
O15 Si7 1.661933 1_555
O16 Si8 1.667916 1_455
O17 Si9 1.665955 1_555
O18 Si2 1.633460 1_555
O19 Si3 1.654904 1_555
O20 Si4 1.656553 1_455
O21 Si5 1.639641 1_555
O22 Si0 1.656046 1_565
O23 Si1 1.636299 1_565
O24 Si12 1.609274 1_555
O25 Si13 1.608190 1_555
O26 Si14 1.612417 1_555
O27 Si15 1.619366 1_555
O28 Si16 1.613662 1_555
O29 Si17 1.619217 1_555
O30 Si18 1.646299 1_555
O31 Si19 1.621997 1_555
O32 Si20 1.647029 1_555
O33 Si21 1.623231 1_555
O34 Si22 1.640730 1_555
O35 Si23 1.622589 1_555
O36 Si22 1.625890 1_555
O37 Si23 1.646117 1_555
O38 Si18 1.620834 1_555
O39 Si19 1.644575 1_555
O40 Si20 1.623512 1_555
O41 Si21 1.641562 1_555
O42 Si14 1.656989 1_555
O43 Si15 1.637252 1_555
O44 Si16 1.650017 1_555
O45 Si17 1.633187 1_555
O46 Si12 1.650221 1_555
O47 Si13 1.640033 1_555
O48 Si24 1.639443 1_555
O49 Si25 1.639870 1_555
O50 Si26 1.630915 1_555
O51 Si27 1.646769 1_555
O52 Si28 1.636855 1_555
O53 Si29 1.640835 1_555
O54 Si30 1.636650 1_555
O55 Si31 1.646632 1_555
O56 Si32 1.643199 1_555
O57 Si33 1.651773 1_555
O58 Si34 1.653543 1_555
O59 Si35 1.641900 1_555
O60 Si34 1.644536 1_555
O61 Si35 1.644541 1_555
O62 Si30 1.644516 1_555
O63 Si31 1.645944 1_555
O64 Si32 1.642202 1_555
O65 Si33 1.645272 1_555
O66 Si26 1.662947 1_555
O67 Si27 1.658083 1_555
O68 Si28 1.660775 1_555
O69 Si29 1.659687 1_555
O70 Si24 1.662873 1_555
O71 Si25 1.659648 1_555
O72 Si34 1.624573 1_555
O73 Si35 1.616980 1_555
O74 Si30 1.632824 1_555
O75 Si31 1.631729 1_555
O76 Si32 1.623749 1_555
O77 Si33 1.640872 1_555
O78 Si26 1.633692 1_555
O79 Si27 1.624079 1_555
O80 Si28 1.629508 1_555
O81 Si29 1.627221 1_555
O82 Si24 1.629842 1_555
O83 Si25 1.627232 1_555
O84 Si12 1.672503 1_555
O85 Si13 1.672181 1_555
O86 Si14 1.647050 1_555
O87 Si15 1.653352 1_555
O88 Si16 1.648729 1_555
O89 Si17 1.654808 1_555
O90 Si18 1.639844 1_555
O91 Si19 1.656695 1_555
O92 Si20 1.640710 1_555
O93 Si21 1.655043 1_555
O94 Si22 1.660352 1_555
O95 Si23 1.643102 1_555
O96 Si10 1.619278 1_555
O97 Si11 1.618583 1_555
O98 Si6 1.619513 1_555
O99 Si7 1.619901 1_555
O100 Si9 1.615566 1_555
O101 Si8 1.616285 1_555
O102 Si2 1.629974 1_555
O103 Si3 1.622355 1_555
O104 Si5 1.628183 1_555
O105 Si4 1.619977 1_555
O106 Si0 1.624247 1_555
O107 Si1 1.623780 1_555
O108 Si24 1.617875 1_555
O109 Si25 1.624653 1_555
O110 Si27 1.614190 1_555
O111 Si26 1.629181 1_655
O112 Si28 1.619308 1_545
O113 Si29 1.623526 1_545
O114 Si30 1.636095 1_545
O115 Si31 1.625395 1_545
O116 Si32 1.640484 1_555
O117 Si33 1.616302 1_555
O118 Si35 1.631345 1_555
O119 Si34 1.622105 1_655
O120 Si22 1.640295 1_555
O121 Si23 1.653710 1_555
O122 Si19 1.640347 1_455
O123 Si18 1.649763 1_555
O124 Si20 1.635062 1_565
O125 Si21 1.652472 1_565
O126 Si14 1.644038 1_565
O127 Si15 1.652582 1_565
O128 Si16 1.658991 1_555
O129 Si17 1.668291 1_555
O130 Si13 1.656620 1_455
O131 Si12 1.653917 1_555
O132 Si0 1.633165 1_565
O133 Si1 1.649300 1_565
O134 Si2 1.647396 1_555
O135 Si3 1.649924 1_555
O136 Si4 1.647978 1_455
O137 Si5 1.646765 1_555
O138 Si6 1.652237 1_555
O139 Si7 1.652543 1_555
O140 Si8 1.646940 1_455
O141 Si9 1.648315 1_555
O142 Si10 1.651480 1_565
O143 Si11 1.653135 1_565
