# generated using pymatgen
data_Na10Ta2In6Si7S5O48
_symmetry_space_group_name_H-M   'P 1'
_cell_length_a   18.28472008
_cell_length_b   9.10804222
_cell_length_c   22.82600211
_cell_angle_alpha   90.01182027
_cell_angle_beta   90.15687767
_cell_angle_gamma   119.86868508
_symmetry_Int_Tables_number   1
_chemical_formula_structural   Na10Ta2In6Si7S5O48
_chemical_formula_sum   'Na30 Ta6 In18 Si21 S15 O144'
_cell_volume   3296.43595692
_cell_formula_units_Z   3
loop_
 _symmetry_equiv_pos_site_id
 _symmetry_equiv_pos_as_xyz
  1  'x, y, z'
loop_
 _atom_site_type_symbol
 _atom_site_label
 _atom_site_symmetry_multiplicity
 _atom_site_fract_x
 _atom_site_fract_y
 _atom_site_fract_z
 _atom_site_occupancy
  Na  Na0  1  0.31572572  0.00156416  0.24345332  1
  Na  Na1  1  0.81703139  0.01382783  0.24513763  1
  Na  Na2  1  0.18737550  0.36510999  0.24523603  1
  Na  Na3  1  0.31772385  0.62053150  0.74561662  1
  Na  Na4  1  0.81483913  0.62880731  0.74310270  1
  Na  Na5  1  0.68623515  0.00834040  0.74610813  1
  Na  Na6  1  0.16565702  0.33996980  0.58560042  1
  Na  Na7  1  0.65786140  0.33617694  0.57727335  1
  Na  Na8  1  0.01241689  0.69558768  0.57089872  1
  Na  Na9  1  0.16148170  0.98654717  0.08287786  1
  Na  Na10  1  0.66469252  0.98895593  0.08471895  1
  Na  Na11  1  0.51188084  0.32882887  0.06974527  1
  Na  Na12  1  0.85017837  0.02038026  0.92160723  1
  Na  Na13  1  0.66371626  0.30658670  0.91883787  1
  Na  Na14  1  0.48538613  0.29459027  0.42254552  1
  Na  Na15  1  0.16574698  0.02328094  0.42007219  1
  Na  Na16  1  0.66654293  0.05552247  0.41456505  1
  Na  Na17  1  0.84970343  0.65540613  0.41500113  1
  Na  Na18  1  0.99733813  0.98928773  0.49748431  1
  Na  Na19  1  0.47983497  0.97124078  0.49398766  1
  Na  Na20  1  0.99239452  0.99029171  0.99611102  1
  Na  Na21  1  0.48550398  0.00350581  0.99398919  1
  Na  Na22  1  0.33694533  0.33292553  0.83077394  1
  Na  Na23  1  0.83941620  0.33931373  0.83103137  1
  Na  Na24  1  0.33360753  0.35348425  0.33167249  1
  Na  Na25  1  0.83626261  0.34271113  0.32963892  1
  Na  Na26  1  0.16844945  0.64813384  0.15953834  1
  Na  Na27  1  0.67855490  0.66883422  0.16178139  1
  Na  Na28  1  0.18032465  0.68962245  0.66212383  1
  Na  Na29  1  0.66820803  0.68793243  0.65923967  1
  Ta  Ta0  1  0.99880601  0.00708430  0.65207522  1
  Ta  Ta1  1  0.50446346  0.98963666  0.64661399  1
  Ta  Ta2  1  0.00493069  0.01967097  0.14653922  1
  Ta  Ta3  1  0.49799949  0.98846170  0.15138362  1
  Ta  Ta4  1  0.16416637  0.67665626  0.31055989  1
  Ta  Ta5  1  0.66264496  0.64894671  0.81065472  1
  In  In0  1  0.00299816  0.00346905  0.34796686  1
  In  In1  1  0.50061437  0.99503781  0.35038054  1
  In  In2  1  0.00145592  0.00829938  0.84928108  1
  In  In3  1  0.49851963  0.00317515  0.84946625  1
  In  In4  1  0.32879129  0.33461160  0.68461458  1
  In  In5  1  0.82569911  0.31598764  0.68125903  1
  In  In6  1  0.32649390  0.33350276  0.18098969  1
  In  In7  1  0.82916118  0.32399336  0.18411800  1
  In  In8  1  0.33439723  0.31942330  0.98109213  1
  In  In9  1  0.82928028  0.33602628  0.98766345  1
  In  In10  1  0.32539951  0.32762421  0.48786915  1
  In  In11  1  0.83351478  0.34693591  0.48282578  1
  In  In12  1  0.17214280  0.66644532  0.01958658  1
  In  In13  1  0.67742342  0.65400241  0.01641799  1
  In  In14  1  0.17818239  0.69980631  0.51679641  1
  In  In15  1  0.67047223  0.66651620  0.52028157  1
  In  In16  1  0.66315212  0.66399041  0.31207568  1
  In  In17  1  0.16345009  0.65465696  0.81338478  1
  Si  Si0  1  0.14675813  0.99921157  0.25020693  1
  Si  Si1  1  0.64826385  0.99502379  0.25500065  1
  Si  Si2  1  0.35290281  0.70060191  0.25360541  1
  Si  Si3  1  0.99804656  0.29524054  0.25290475  1
  Si  Si4  1  0.14872624  0.29797272  0.75368852  1
  Si  Si5  1  0.64530528  0.29085959  0.75062594  1
  Si  Si6  1  0.49797337  0.70252459  0.75365437  1
  Si  Si7  1  0.85183726  0.00451895  0.75559980  1
  Si  Si8  1  0.18132232  0.03193323  0.58608288  1
  Si  Si9  1  0.68289014  0.02772842  0.58141054  1
  Si  Si10  1  0.33305811  0.63339560  0.58437072  1
  Si  Si11  1  0.83702303  0.63694495  0.58702762  1
  Si  Si12  1  0.33678234  0.03862743  0.08698721  1
  Si  Si13  1  0.83345159  0.03244569  0.08176781  1
  Si  Si14  1  0.18478267  0.33444324  0.08226093  1
  Si  Si15  1  0.68199015  0.33039293  0.08628408  1
  Si  Si16  1  0.82001440  0.66823142  0.91263389  1
  Si  Si17  1  0.51619011  0.37111303  0.91783076  1
  Si  Si18  1  0.31693915  0.97290694  0.41315179  1
  Si  Si19  1  0.66571716  0.37530755  0.41628867  1
  Si  Si20  1  0.01854822  0.66416288  0.41736615  1
  S  S0  1  0.85580819  0.71057866  0.24842608  1
  S  S1  1  0.50179678  0.29543420  0.24671961  1
  S  S2  1  0.00253409  0.71009718  0.74793050  1
  S  S3  1  0.35395258  0.99902704  0.74854766  1
  S  S4  1  0.48046714  0.32421335  0.58521937  1
  S  S5  1  0.97911652  0.32471457  0.58380001  1
  S  S6  1  0.47982561  0.63373517  0.08388476  1
  S  S7  1  0.98227266  0.63858274  0.08489742  1
  S  S8  1  0.31644989  0.66696090  0.91535481  1
  S  S9  1  0.01734915  0.37614153  0.91857364  1
  S  S10  1  0.16518745  0.95237548  0.91585726  1
  S  S11  1  0.66626709  0.95311537  0.91612690  1
  S  S12  1  0.81666654  0.96475692  0.41544935  1
  S  S13  1  0.16602681  0.37892473  0.41590356  1
  S  S14  1  0.51747246  0.65964329  0.41858379  1
  O  O0  1  0.11158566  0.03842679  0.30956814  1
  O  O1  1  0.60943566  0.01032357  0.31657567  1
  O  O2  1  0.40626082  0.78642568  0.31112314  1
  O  O3  1  0.89591447  0.77688242  0.30683702  1
  O  O4  1  0.49134060  0.20276710  0.30135584  1
  O  O5  1  0.97178633  0.16411022  0.30705781  1
  O  O6  1  0.10601846  0.18924532  0.81146952  1
  O  O7  1  0.60941367  0.17871825  0.80907457  1
  O  O8  1  0.47359977  0.78369720  0.80764302  1
  O  O9  1  0.98746020  0.78287750  0.80039832  1
  O  O10  1  0.39714470  0.01890370  0.80514101  1
  O  O11  1  0.89974290  0.02713738  0.81679887  1
  O  O12  1  0.40163898  0.97782975  0.69923423  1
  O  O13  1  0.90536610  0.97617152  0.70099078  1
  O  O14  1  0.08583553  0.19275111  0.69571948  1
  O  O15  1  0.58584461  0.19153945  0.69297029  1
  O  O16  1  0.01050266  0.81838605  0.69500254  1
  O  O17  1  0.51468000  0.83325430  0.69533011  1
  O  O18  1  0.40179347  0.82811688  0.19649652  1
  O  O19  1  0.90792913  0.82912272  0.20088343  1
  O  O20  1  0.01438852  0.19635328  0.19499298  1
  O  O21  1  0.50699235  0.19560285  0.19550081  1
  O  O22  1  0.08720644  0.98186066  0.19284505  1
  O  O23  1  0.58315703  0.97831029  0.19897099  1
  O  O24  1  0.43692088  0.34320352  0.63519112  1
  O  O25  1  0.94200090  0.35622144  0.63645377  1
  O  O26  1  0.24684673  0.12635044  0.63770447  1
  O  O27  1  0.73242156  0.09875825  0.64290061  1
  O  O28  1  0.31602665  0.52597318  0.64448664  1
  O  O29  1  0.82673081  0.52449026  0.64487236  1
  O  O30  1  0.44221266  0.52734652  0.13643064  1
  O  O31  1  0.94426857  0.53478857  0.13665789  1
  O  O32  1  0.32101630  0.11583835  0.14700389  1
  O  O33  1  0.81757221  0.11370701  0.14019495  1
  O  O34  1  0.23102928  0.36294102  0.14527433  1
  O  O35  1  0.74774390  0.37087201  0.13829577  1
  O  O36  1  0.22920457  0.28599590  0.02998132  1
  O  O37  1  0.71330657  0.28482763  0.02433182  1
  O  O38  1  0.42869034  0.56565565  0.03125658  1
  O  O39  1  0.93309362  0.56776638  0.03047444  1
  O  O40  1  0.36828533  0.17289536  0.03290342  1
  O  O41  1  0.85285402  0.14836157  0.02223280  1
  O  O42  1  0.21031349  0.13887489  0.52373860  1
  O  O43  1  0.72491898  0.15386239  0.52561849  1
  O  O44  1  0.35539812  0.55304094  0.52796703  1
  O  O45  1  0.86452642  0.57294288  0.52814131  1
  O  O46  1  0.43584020  0.30296175  0.52854007  1
  O  O47  1  0.92784956  0.29269598  0.53130500  1
  O  O48  1  0.27345823  0.68945947  0.96635404  1
  O  O49  1  0.78327636  0.72050420  0.96840283  1
  O  O50  1  0.06660587  0.46821634  0.97044583  1
  O  O51  1  0.57049560  0.45234441  0.97768274  1
  O  O52  1  0.15955819  0.86022078  0.97117250  1
  O  O53  1  0.65849818  0.86103820  0.97051988  1
  O  O54  1  0.28093700  0.86712867  0.47221613  1
  O  O55  1  0.77379718  0.85418351  0.46595700  1
  O  O56  1  0.15931573  0.45633528  0.47034038  1
  O  O57  1  0.64899675  0.45051451  0.47708677  1
  O  O58  1  0.07273641  0.69577670  0.47717498  1
  O  O59  1  0.57137091  0.68047328  0.46966333  1
  O  O60  1  0.07644755  0.65865070  0.36091004  1
  O  O61  1  0.55524812  0.63909401  0.36364744  1
  O  O62  1  0.25372443  0.86422485  0.35543071  1
  O  O63  1  0.76834894  0.89382490  0.35995399  1
  O  O64  1  0.16952775  0.47788898  0.36270315  1
  O  O65  1  0.68313100  0.50391139  0.36101879  1
  O  O66  1  0.05597804  0.46847486  0.86327721  1
  O  O67  1  0.57594818  0.49503967  0.86138814  1
  O  O68  1  0.17051762  0.85971678  0.86339526  1
  O  O69  1  0.67120106  0.86011945  0.86342471  1
  O  O70  1  0.27029258  0.65444013  0.85932757  1
  O  O71  1  0.75582614  0.64751928  0.85462527  1
  O  O72  1  0.00760482  0.83533485  0.41154283  1
  O  O73  1  0.50868930  0.81262356  0.41736829  1
  O  O74  1  0.41305266  0.01245810  0.40626207  1
  O  O75  1  0.90038843  0.97308670  0.41323879  1
  O  O76  1  0.09093128  0.20365119  0.41374857  1
  O  O77  1  0.58277356  0.18559404  0.41209556  1
  O  O78  1  0.01002297  0.20519393  0.91899077  1
  O  O79  1  0.51250997  0.18621692  0.91233258  1
  O  O80  1  0.08808980  0.96657923  0.91358591  1
  O  O81  1  0.59376797  0.98373669  0.91281145  1
  O  O82  1  0.40176064  0.81977331  0.91467625  1
  O  O83  1  0.91449473  0.83243398  0.90737777  1
  O  O84  1  0.48985102  0.16895640  0.59158069  1
  O  O85  1  0.98733068  0.16735977  0.59283900  1
  O  O86  1  0.08737810  0.02449422  0.59767615  1
  O  O87  1  0.58882764  0.02338847  0.59057968  1
  O  O88  1  0.41504224  0.82873966  0.59592129  1
  O  O89  1  0.92053893  0.82877744  0.59745527  1
  O  O90  1  0.48904085  0.80818390  0.09342925  1
  O  O91  1  0.99123064  0.81217374  0.09194614  1
  O  O92  1  0.41987701  0.01153191  0.09658399  1
  O  O93  1  0.91574761  0.00250188  0.09508424  1
  O  O94  1  0.08921106  0.15263743  0.09030088  1
  O  O95  1  0.58845982  0.15036789  0.09804763  1
  O  O96  1  0.34323105  0.14660632  0.74124154  1
  O  O97  1  0.83669094  0.16362997  0.74619521  1
  O  O98  1  0.24357412  0.32680121  0.75011205  1
  O  O99  1  0.74234139  0.33033195  0.74584909  1
  O  O100  1  0.42143358  0.51413814  0.74299552  1
  O  O101  1  0.92884514  0.53968111  0.74069390  1
  O  O102  1  0.33654980  0.50985036  0.24588246  1
  O  O103  1  0.84580230  0.54321692  0.24207381  1
  O  O104  1  0.42624158  0.31312350  0.24012610  1
  O  O105  1  0.92110304  0.32921894  0.24221555  1
  O  O106  1  0.24305879  0.15454782  0.24590051  1
  O  O107  1  0.74261654  0.15839077  0.24956642  1
  O  O108  1  0.32156847  0.51054023  0.92006986  1
  O  O109  1  0.81533882  0.48302572  0.91793606  1
  O  O110  1  0.42480307  0.36050258  0.91604105  1
  O  O111  1  0.93052441  0.35277302  0.92034085  1
  O  O112  1  0.24235686  0.12102775  0.91586184  1
  O  O113  1  0.74655461  0.12048029  0.91489330  1
  O  O114  1  0.31781767  0.15754033  0.41655913  1
  O  O115  1  0.82535568  0.13394969  0.42235891  1
  O  O116  1  0.24333791  0.36243915  0.41431223  1
  O  O117  1  0.75093151  0.35688966  0.41835255  1
  O  O118  1  0.43419830  0.50130063  0.42322863  1
  O  O119  1  0.92551088  0.49646162  0.41671580  1
  O  O120  1  0.16261838  0.48455923  0.07589988  1
  O  O121  1  0.65621232  0.47768273  0.08387358  1
  O  O122  1  0.07077383  0.67262158  0.07926880  1
  O  O123  1  0.56655488  0.66485655  0.07830730  1
  O  O124  1  0.24801904  0.86130936  0.07802127  1
  O  O125  1  0.74482038  0.85164245  0.07642601  1
  O  O126  1  0.15563143  0.83316539  0.58460633  1
  O  O127  1  0.66146496  0.83401525  0.57533951  1
  O  O128  1  0.24430754  0.63595913  0.57707972  1
  O  O129  1  0.74893433  0.63907337  0.58233914  1
  O  O130  1  0.06590030  0.46697893  0.57765892  1
  O  O131  1  0.56811471  0.47045819  0.58393210  1
  O  O132  1  0.15157430  0.82017332  0.25388752  1
  O  O133  1  0.65796335  0.82250836  0.25007840  1
  O  O134  1  0.25808436  0.68881730  0.25708072  1
  O  O135  1  0.77344967  0.70872442  0.24598665  1
  O  O136  1  0.09007787  0.47038217  0.26098764  1
  O  O137  1  0.57997704  0.46172906  0.24488622  1
  O  O138  1  0.15640917  0.48801599  0.75012094  1
  O  O139  1  0.65065794  0.48013510  0.75473150  1
  O  O140  1  0.08216920  0.70432071  0.74959182  1
  O  O141  1  0.59006842  0.70985819  0.76153925  1
  O  O142  1  0.26996560  0.83759689  0.74909480  1
  O  O143  1  0.75763452  0.82642058  0.75651793  1
loop_
_geom_bond_atom_site_label_1
_geom_bond_atom_site_label_2
_geom_bond_distance
_geom_bond_site_symmetry_2
Na0 O106 2.356790 1_555
Na0 O32 2.416883 1_555
Na0 O134 2.516641 1_545
Na0 O104 2.535971 1_555
Na0 O132 2.619160 1_545
Na0 O62 2.826267 1_545
Na0 O18 2.933578 1_545
Na1 O107 2.319568 1_555
Na1 O135 2.480344 1_545
Na1 O105 2.536440 1_555
Na1 O133 2.542131 1_545
Na1 O33 2.560815 1_555
Na1 O63 2.810778 1_545
Na1 O5 2.828015 1_555
Na2 O102 2.365637 1_555
Na2 O34 2.422693 1_555
Na2 O136 2.432295 1_555
Na2 O134 2.576507 1_555
Na2 O106 2.580630 1_555
Na2 O64 2.947637 1_555
Na2 O20 2.969760 1_555
Na2 O0 2.972540 1_555
Na3 O98 2.322519 1_555
Na3 O28 2.458362 1_555
Na3 O100 2.523779 1_555
Na3 O142 2.529319 1_555
Na3 O138 2.573566 1_555
Na3 O70 2.804154 1_555
Na3 O8 2.845105 1_555
Na4 O99 2.358536 1_555
Na4 O29 2.486979 1_555
Na4 O143 2.510779 1_555
Na4 O101 2.587175 1_555
Na4 O139 2.621398 1_555
Na4 O71 2.805628 1_555
Na4 O13 2.909881 1_555
Na5 O97 2.386025 1_555
Na5 O141 2.418503 1_545
Na5 O27 2.502047 1_555
Na5 O99 2.580047 1_555
Na5 O143 2.580560 1_545
Na5 O7 2.937374 1_555
Na5 O69 2.950414 1_545
Na5 O17 2.953493 1_545
Na6 O128 2.348179 1_555
Na6 O86 2.507389 1_555
Na6 O130 2.607307 1_555
Na6 O42 2.740469 1_555
Na6 O28 2.752402 1_555
Na6 O85 2.833367 1_455
Na6 O56 2.860140 1_555
Na6 O14 2.884168 1_555
Na7 O129 2.412540 1_555
Na7 O131 2.492409 1_555
Na7 O87 2.494480 1_555
Na7 O57 2.550994 1_555
Na7 O84 2.684977 1_555
Na7 O43 2.772365 1_555
Na7 O15 2.955745 1_555
Na8 O126 2.291811 1_555
Na8 O58 2.409201 1_555
Na8 O45 2.547377 1_455
Na8 O89 2.587754 1_455
Na8 O86 2.670464 1_565
Na8 O130 2.709809 1_555
Na9 O124 2.369760 1_555
Na9 O94 2.460809 1_565
Na9 O122 2.491720 1_555
Na9 O36 2.659989 1_565
Na9 O91 2.708357 1_455
Na9 O52 2.790070 1_554
Na9 O22 2.847436 1_555
Na9 O32 2.931361 1_565
Na10 O125 2.360728 1_555
Na10 O95 2.498011 1_565
Na10 O123 2.584104 1_555
Na10 O33 2.743179 1_565
Na10 O37 2.752177 1_565
Na10 O90 2.793256 1_555
Na10 O53 2.833878 1_554
Na10 O23 2.985078 1_555
Na11 O121 2.310447 1_555
Na11 O51 2.375416 1_554
Na11 O40 2.427204 1_555
Na11 O92 2.592522 1_555
Na11 O95 2.698595 1_555
Na11 O123 2.712156 1_555
Na12 O113 2.482696 1_555
Na12 O83 2.534917 1_545
Na12 O78 2.545595 1_655
Na12 O11 2.550464 1_555
Na12 O41 2.564817 1_556
Na12 O49 2.603419 1_545
Na12 O111 2.625803 1_555
Na13 O109 2.414904 1_555
Na13 O79 2.417962 1_555
Na13 O81 2.560149 1_545
Na13 O37 2.612887 1_556
Na13 O7 2.730008 1_555
Na13 O113 2.780927 1_555
Na13 O51 2.955950 1_555
Na14 O74 2.258849 1_555
Na14 O77 2.444651 1_555
Na14 O118 2.485182 1_555
Na14 O46 2.600174 1_555
Na14 O114 2.674472 1_555
Na14 O57 2.874636 1_555
Na14 O4 2.907743 1_555
Na15 O114 2.418246 1_555
Na15 O72 2.529044 1_545
Na15 O42 2.550629 1_555
Na15 O76 2.613142 1_555
Na15 O116 2.684858 1_555
Na15 O0 2.735807 1_555
Na15 O58 2.906881 1_545
Na16 O77 2.357909 1_555
Na16 O117 2.388155 1_555
Na16 O1 2.412744 1_555
Na16 O73 2.621116 1_545
Na16 O115 2.627796 1_555
Na16 O43 2.720169 1_555
Na17 O117 2.402069 1_555
Na17 O119 2.452960 1_555
Na17 O72 2.513225 1_655
Na17 O75 2.561623 1_555
Na17 O3 2.667438 1_555
Na17 O45 2.739855 1_555
Na17 O65 2.914031 1_555
Na17 O55 3.011276 1_555
Na18 O72 2.472400 1_655
Na18 O75 2.565695 1_555
Na18 O76 2.661835 1_665
Na18 O89 2.700105 1_555
Na18 O86 2.738035 1_665
Na18 O85 2.774485 1_565
Na19 O74 2.466824 1_565
Na19 O73 2.487445 1_555
Na19 O88 2.643221 1_555
Na19 O77 2.684987 1_565
Na19 O84 2.811852 1_565
Na19 O87 2.844493 1_565
Na20 O83 2.478224 1_555
Na20 O78 2.531801 1_665
Na20 O80 2.655370 1_655
Na20 O93 2.693097 1_566
Na20 O94 2.704309 1_666
Na20 O91 2.717528 1_556
Na21 O79 2.382254 1_555
Na21 O82 2.419489 1_545
Na21 O92 2.651816 1_556
Na21 O81 2.785604 1_545
Na21 O90 2.904575 1_546
Na21 O95 2.905336 1_556
Na22 O110 2.452076 1_555
Na22 O98 2.489123 1_555
Na22 O100 2.569804 1_555
Na22 O112 2.680209 1_555
Na22 O96 2.695130 1_555
Na22 O108 2.702856 1_555
Na23 O97 2.496319 1_555
Na23 O109 2.533736 1_555
Na23 O111 2.593050 1_555
Na23 O99 2.602739 1_555
Na23 O113 2.677405 1_555
Na23 O101 2.702599 1_555
Na24 O102 2.406520 1_555
Na24 O116 2.537778 1_555
Na24 O114 2.552263 1_555
Na24 O106 2.617279 1_555
Na24 O118 2.659774 1_555
Na24 O104 2.830173 1_555
Na25 O107 2.491856 1_555
Na25 O119 2.505916 1_555
Na25 O105 2.571076 1_555
Na25 O117 2.601824 1_555
Na25 O103 2.654556 1_555
Na25 O115 2.785797 1_555
Na26 O120 2.390666 1_555
Na26 O124 2.559594 1_555
Na26 O122 2.641120 1_555
Na26 O134 2.674987 1_555
Na26 O132 2.769908 1_555
Na26 O136 2.783144 1_555
Na27 O121 2.376296 1_555
Na27 O125 2.457888 1_555
Na27 O135 2.488083 1_555
Na27 O133 2.586665 1_555
Na27 O137 2.653149 1_555
Na27 O123 2.780349 1_555
Na28 O126 2.372447 1_555
Na28 O128 2.440798 1_555
Na28 O142 2.494951 1_555
Na28 O138 2.608470 1_555
Na28 O140 2.735698 1_555
Na28 O130 2.820844 1_555
Na29 O127 2.369871 1_555
Na29 O129 2.475094 1_555
Na29 O131 2.568746 1_555
Na29 O143 2.668307 1_555
Na29 O141 2.799313 1_555
Na29 O139 2.799410 1_555
In0 O5 2.041503 1_455
In0 O0 2.047381 1_555
In0 O72 2.141696 1_545
In0 O3 2.222298 1_445
In0 O76 2.286880 1_555
In0 O75 2.305388 1_445
In1 O2 2.028647 1_555
In1 O1 2.075210 1_565
In1 O74 2.116521 1_565
In1 O77 2.154988 1_565
In1 O4 2.275978 1_565
In1 O73 2.316106 1_555
In2 O6 1.996896 1_555
In2 O83 2.080433 1_445
In2 O11 2.085267 1_455
In2 O9 2.236088 1_445
In2 O80 2.322763 1_545
In2 O78 2.343097 1_555
In3 O8 2.050522 1_545
In3 O7 2.073546 1_555
In3 O79 2.115714 1_555
In3 O10 2.175857 1_555
In3 O82 2.282077 1_545
In3 O81 2.334221 1_545
In4 O26 2.036946 1_555
In4 O28 2.082289 1_555
In4 O100 2.132334 1_555
In4 O98 2.137877 1_555
In4 O24 2.246323 1_555
In4 O96 2.263178 1_555
In5 O27 2.054300 1_555
In5 O29 2.064373 1_555
In5 O97 2.107148 1_555
In5 O99 2.173567 1_555
In5 O25 2.222236 1_555
In5 O101 2.388747 1_555
In6 O34 2.059585 1_555
In6 O32 2.084058 1_555
In6 O102 2.123930 1_555
In6 O106 2.171644 1_555
In6 O30 2.218172 1_555
In6 O104 2.346660 1_555
In7 O35 2.029103 1_555
In7 O33 2.076596 1_555
In7 O105 2.120182 1_555
In7 O107 2.155804 1_555
In7 O103 2.284954 1_555
In7 O31 2.297395 1_555
In8 O40 2.093803 1_556
In8 O36 2.113335 1_556
In8 O110 2.115416 1_555
In8 O112 2.295790 1_555
In8 O108 2.330477 1_555
In8 O38 2.334574 1_556
In9 O37 2.107056 1_556
In9 O41 2.112470 1_556
In9 O109 2.174709 1_555
In9 O39 2.238641 1_556
In9 O111 2.355032 1_555
In9 O113 2.434827 1_555
In10 O44 2.056362 1_555
In10 O42 2.112041 1_555
In10 O114 2.202799 1_555
In10 O46 2.330624 1_555
In10 O118 2.349365 1_555
In10 O116 2.373052 1_555
In11 O45 2.112371 1_555
In11 O43 2.126663 1_555
In11 O117 2.139718 1_555
In11 O119 2.166661 1_555
In11 O47 2.298333 1_555
In11 O115 2.323775 1_555
In12 O120 2.035131 1_555
In12 O124 2.095293 1_555
In12 O48 2.139598 1_554
In12 O50 2.181472 1_554
In12 O52 2.189300 1_554
In12 O122 2.326406 1_555
In13 O49 2.039221 1_554
In13 O51 2.095459 1_554
In13 O125 2.101300 1_555
In13 O121 2.117581 1_555
In13 O53 2.328509 1_554
In13 O123 2.515995 1_555
In14 O54 2.011768 1_555
In14 O128 2.094046 1_555
In14 O58 2.111070 1_555
In14 O126 2.131366 1_555
In14 O56 2.322939 1_555
In14 O130 2.514437 1_555
In15 O127 2.045623 1_555
In15 O57 2.055338 1_555
In15 O129 2.115053 1_555
In15 O55 2.196781 1_555
In15 O59 2.202874 1_555
In15 O131 2.342985 1_555
In16 O65 2.009044 1_555
In16 O133 2.057357 1_555
In16 O61 2.212936 1_555
In16 O63 2.292005 1_555
In16 O137 2.292224 1_555
In16 O135 2.389041 1_555
In17 O138 2.051578 1_555
In17 O68 2.136821 1_555
In17 O66 2.174425 1_555
In17 O70 2.215598 1_555
In17 O140 2.278542 1_555
In17 O142 2.346781 1_555
O0 Si0 1.615707 1_545
O1 Si1 1.613336 1_545
O2 Si2 1.587311 1_555
O3 S0 1.494437 1_555
O4 S1 1.464669 1_555
O5 Si3 1.617901 1_555
O6 Si4 1.601855 1_555
O7 Si5 1.609841 1_555
O8 Si6 1.610808 1_555
O9 S2 1.460536 1_655
O10 S3 1.475515 1_545
O11 Si7 1.604547 1_555
O12 S3 1.495840 1_555
O12 Ta1 2.190915 1_555
O13 Si7 1.684238 1_565
O13 Ta0 1.943307 1_565
O14 Si4 1.698571 1_555
O14 Ta0 1.922168 1_455
O15 Si5 1.656630 1_555
O15 Ta1 1.995148 1_545
O16 S2 1.520501 1_555
O16 Ta0 2.079749 1_465
O17 Si6 1.709984 1_555
O17 Ta1 1.888041 1_555
O18 Si2 1.679345 1_555
O18 Ta3 1.933744 1_555
O19 S0 1.494302 1_555
O19 Ta2 2.154893 1_665
O20 Si3 1.708106 1_455
O20 Ta2 1.887805 1_555
O21 S1 1.512892 1_555
O21 Ta3 2.071205 1_545
O22 Si0 1.657026 1_555
O22 Ta2 2.001611 1_565
O23 Si1 1.699153 1_555
O23 Ta3 1.935748 1_555
O24 S4 1.451571 1_555
O25 S5 1.478417 1_555
O26 Si8 1.590288 1_555
O27 Si9 1.617981 1_555
O28 Si10 1.623769 1_555
O29 Si11 1.624125 1_555
O30 S6 1.480457 1_555
O31 S7 1.457097 1_555
O32 Si12 1.630361 1_555
O33 Si13 1.620647 1_555
O34 Si14 1.620440 1_555
O35 Si15 1.594181 1_555
O36 Si14 1.624984 1_555
O37 Si15 1.655521 1_555
O38 S6 1.455295 1_555
O39 S7 1.477733 1_555
O40 Si12 1.629186 1_555
O41 Si13 1.648456 1_555
O42 Si8 1.656892 1_555
O43 Si9 1.630590 1_555
O44 Si10 1.631054 1_555
O45 Si11 1.641581 1_555
O46 S4 1.487927 1_555
O47 S5 1.456363 1_555
O48 S8 1.476630 1_555
O49 Si16 1.619067 1_555
O50 S9 1.468958 1_555
O51 Si17 1.631023 1_555
O52 S10 1.491450 1_555
O53 S11 1.465519 1_555
O54 Si18 1.597779 1_555
O55 S12 1.475460 1_555
O56 S13 1.463833 1_555
O57 Si19 1.642901 1_555
O58 Si20 1.623778 1_555
O59 S14 1.474465 1_555
O60 Si20 1.686522 1_555
O60 Ta4 1.915330 1_555
O61 S14 1.489292 1_555
O62 Si18 1.703907 1_555
O62 Ta4 1.962857 1_555
O63 S12 1.492502 1_555
O64 S13 1.494866 1_555
O64 Ta4 2.209239 1_555
O65 Si19 1.642053 1_555
O66 S9 1.487598 1_555
O67 Si17 1.705197 1_555
O67 Ta5 1.901687 1_555
O68 S10 1.495954 1_555
O69 S11 1.499671 1_555
O69 Ta5 2.207492 1_555
O70 S8 1.502994 1_555
O71 Si16 1.713822 1_555
O71 Ta5 1.980691 1_555
O72 Si20 1.673015 1_555
O73 S14 1.480155 1_555
O74 Si18 1.616774 1_545
O75 S12 1.495490 1_555
O76 S13 1.500867 1_555
O77 Si19 1.638269 1_555
O78 S9 1.494841 1_555
O79 Si17 1.656282 1_555
O80 S10 1.479173 1_555
O81 S11 1.486104 1_555
O82 S8 1.486045 1_555
O83 Si16 1.631974 1_555
O84 S4 1.513863 1_555
O84 Ta1 2.179580 1_545
O85 S5 1.527589 1_555
O85 Ta0 2.075480 1_555
O86 Si8 1.706410 1_555
O86 Ta0 1.986236 1_455
O87 Si9 1.713973 1_555
O87 Ta1 1.910138 1_545
O88 Si10 1.680284 1_555
O88 Ta1 1.939641 1_555
O89 Si11 1.667835 1_555
O89 Ta0 1.978479 1_565
O90 S6 1.527551 1_555
O90 Ta3 2.050102 1_555
O91 S7 1.514701 1_555
O91 Ta2 2.170967 1_665
O92 Si12 1.670037 1_555
O92 Ta3 1.984576 1_545
O93 Si13 1.684449 1_555
O93 Ta2 1.948979 1_655
O94 Si14 1.717301 1_555
O94 Ta2 1.908390 1_555
O95 Si15 1.701482 1_555
O95 Ta3 1.993727 1_545
O96 S3 1.461294 1_545
O97 Si7 1.619410 1_555
O98 Si4 1.621886 1_555
O99 Si5 1.629396 1_555
O100 Si6 1.602522 1_555
O101 S2 1.472260 1_655
O102 Si2 1.618983 1_555
O103 S0 1.449168 1_555
O104 S1 1.475715 1_555
O105 Si3 1.602021 1_555
O106 Si0 1.622200 1_545
O107 Si1 1.627931 1_545
O108 S8 1.477461 1_555
O109 Si16 1.650442 1_555
O110 Si17 1.625418 1_555
O111 S9 1.493684 1_655
O112 S10 1.480442 1_545
O113 S11 1.500308 1_545
O114 Si18 1.675495 1_545
O115 S12 1.476735 1_545
O116 S13 1.494609 1_555
O117 Si19 1.648647 1_555
O118 S14 1.491083 1_555
O119 Si20 1.624495 1_655
O120 Si14 1.614434 1_555
O121 Si15 1.629282 1_555
O122 S7 1.494226 1_455
O123 S6 1.471319 1_555
O124 Si12 1.634504 1_565
O125 Si13 1.641258 1_565
O126 Si8 1.628538 1_565
O127 Si9 1.611445 1_565
O128 Si10 1.642534 1_555
O129 Si11 1.623659 1_555
O130 S5 1.473074 1_455
O131 S4 1.489137 1_555
O132 Si0 1.678393 1_555
O132 Ta4 1.932336 1_555
O133 Si1 1.670506 1_555
O134 Si2 1.684944 1_555
O134 Ta4 2.067243 1_555
O135 S0 1.498445 1_555
O136 Si3 1.653752 1_455
O136 Ta4 2.025088 1_555
O137 S1 1.477534 1_555
O138 Si4 1.667448 1_555
O139 Si5 1.679917 1_555
O139 Ta5 1.924458 1_555
O140 S2 1.483392 1_555
O141 Si6 1.660960 1_555
O141 Ta5 2.012739 1_555
O142 S3 1.507129 1_555
O143 Si7 1.678060 1_565
O143 Ta5 2.091118 1_555
