# generated using pymatgen
data_Na10Ca6Hf2Si3(S3O16)3
_symmetry_space_group_name_H-M   'P 1'
_cell_length_a   18.67780349
_cell_length_b   9.35124912
_cell_length_c   23.22095031
_cell_angle_alpha   89.99416545
_cell_angle_beta   90.02435427
_cell_angle_gamma   120.13244641
_symmetry_Int_Tables_number   1
_chemical_formula_structural   Na10Ca6Hf2Si3(S3O16)3
_chemical_formula_sum   'Na30 Ca18 Hf6 Si9 S27 O144'
_cell_volume   3507.71936893
_cell_formula_units_Z   3
loop_
 _symmetry_equiv_pos_site_id
 _symmetry_equiv_pos_as_xyz
  1  'x, y, z'
loop_
 _atom_site_type_symbol
 _atom_site_label
 _atom_site_symmetry_multiplicity
 _atom_site_fract_x
 _atom_site_fract_y
 _atom_site_fract_z
 _atom_site_occupancy
  Na  Na0  1  0.31493891  0.99638092  0.24458236  1
  Na  Na1  1  0.19112983  0.35393841  0.24993184  1
  Na  Na2  1  0.48952071  0.63539315  0.25628571  1
  Na  Na3  1  0.30757627  0.61169059  0.73073259  1
  Na  Na4  1  0.81499254  0.63555536  0.74303832  1
  Na  Na5  1  0.99695044  0.33126839  0.75452337  1
  Na  Na6  1  0.18090768  0.02677028  0.75664126  1
  Na  Na7  1  0.69069034  0.02788786  0.75015240  1
  Na  Na8  1  0.17300224  0.36000347  0.59411620  1
  Na  Na9  1  0.83299061  0.68987596  0.08353071  1
  Na  Na10  1  0.48558809  0.65635235  0.91706929  1
  Na  Na11  1  0.35596454  0.04990761  0.91589769  1
  Na  Na12  1  0.85129357  0.02847907  0.92177373  1
  Na  Na13  1  0.65725137  0.30692723  0.91405189  1
  Na  Na14  1  0.98363946  0.31129925  0.41606507  1
  Na  Na15  1  0.15502073  0.00796839  0.41098975  1
  Na  Na16  1  0.35211519  0.67021017  0.42407213  1
  Na  Na17  1  0.85474409  0.66164467  0.41430157  1
  Na  Na18  1  0.99329130  0.94949218  0.49976062  1
  Na  Na19  1  0.50421961  0.99357643  0.50609000  1
  Na  Na20  1  0.01073930  0.03712177  0.00395819  1
  Na  Na21  1  0.50254720  0.03842731  0.99843241  1
  Na  Na22  1  0.32590778  0.33366978  0.83689946  1
  Na  Na23  1  0.82914698  0.32451826  0.82706651  1
  Na  Na24  1  0.32760864  0.32948573  0.32681219  1
  Na  Na25  1  0.83202316  0.33869380  0.33772304  1
  Na  Na26  1  0.16162196  0.67243644  0.16369077  1
  Na  Na27  1  0.68341905  0.71164823  0.16144396  1
  Na  Na28  1  0.17763911  0.66937518  0.66182234  1
  Na  Na29  1  0.66359397  0.65028294  0.66256310  1
  Ca  Ca0  1  0.00138271  0.99092798  0.34507323  1
  Ca  Ca1  1  0.50325558  0.00389589  0.35150784  1
  Ca  Ca2  1  0.00375805  0.00811795  0.85149694  1
  Ca  Ca3  1  0.50377969  0.01607982  0.84608691  1
  Ca  Ca4  1  0.33720683  0.33881869  0.67897664  1
  Ca  Ca5  1  0.83154775  0.32857323  0.67967921  1
  Ca  Ca6  1  0.33033638  0.33170409  0.18009518  1
  Ca  Ca7  1  0.83362100  0.31840934  0.18074737  1
  Ca  Ca8  1  0.33373491  0.33461325  0.98621470  1
  Ca  Ca9  1  0.83574362  0.31143947  0.99419094  1
  Ca  Ca10  1  0.34192536  0.35148278  0.49077958  1
  Ca  Ca11  1  0.83268187  0.33347373  0.48599652  1
  Ca  Ca12  1  0.16355864  0.65949076  0.01661886  1
  Ca  Ca13  1  0.66272364  0.66416933  0.02060853  1
  Ca  Ca14  1  0.16575703  0.67665004  0.52031713  1
  Ca  Ca15  1  0.66412569  0.66737497  0.51664791  1
  Ca  Ca16  1  0.67033423  0.67097328  0.31377571  1
  Ca  Ca17  1  0.16455595  0.65182506  0.81671408  1
  Hf  Hf0  1  0.99572641  0.00490092  0.65426287  1
  Hf  Hf1  1  0.50276611  0.01017984  0.64952935  1
  Hf  Hf2  1  0.00179574  -0.00046561  0.15177824  1
  Hf  Hf3  1  0.49506256  0.99419235  0.15236839  1
  Hf  Hf4  1  0.16103315  0.67224622  0.31046386  1
  Hf  Hf5  1  0.66101673  0.64970663  0.81121591  1
  Si  Si0  1  0.15162699  0.00314087  0.25398278  1
  Si  Si1  1  0.34954361  0.70110414  0.25617773  1
  Si  Si2  1  0.15163332  0.29877017  0.74775553  1
  Si  Si3  1  0.65231002  0.30145957  0.75352748  1
  Si  Si4  1  0.84838116  0.99871431  0.75742473  1
  Si  Si5  1  0.33589628  0.65123522  0.58460285  1
  Si  Si6  1  0.83718362  0.01894034  0.08088368  1
  Si  Si7  1  0.51550583  0.36954482  0.91668040  1
  Si  Si8  1  0.01531634  0.66195740  0.41561253  1
  S  S0  1  0.64490484  0.99511534  0.24746826  1
  S  S1  1  0.84808705  0.69895885  0.24713437  1
  S  S2  1  0.00348961  0.29988143  0.25331637  1
  S  S3  1  0.50359675  0.29987403  0.24629757  1
  S  S4  1  0.00279596  0.71115053  0.74685865  1
  S  S5  1  0.50366361  0.71025637  0.75206889  1
  S  S6  1  0.34937537  0.99376808  0.74893619  1
  S  S7  1  0.49041105  0.32956743  0.58617729  1
  S  S8  1  0.98489676  0.31688501  0.58475117  1
  S  S9  1  0.17274909  0.03020337  0.58624152  1
  S  S10  1  0.67559710  0.02295104  0.58790110  1
  S  S11  1  0.83811012  0.65387601  0.58489674  1
  S  S12  1  0.48536816  0.65279085  0.08706640  1
  S  S13  1  0.98628234  0.64562490  0.08781285  1
  S  S14  1  0.33771125  0.02237740  0.08491626  1
  S  S15  1  0.17611628  0.32892402  0.08843947  1
  S  S16  1  0.67578101  0.31940546  0.08408158  1
  S  S17  1  0.31944729  0.66885300  0.91560411  1
  S  S18  1  0.80944980  0.65720368  0.91376023  1
  S  S19  1  0.00995199  0.36044496  0.91527697  1
  S  S20  1  0.16882825  0.96699844  0.91565539  1
  S  S21  1  0.66693866  0.95979897  0.91187141  1
  S  S22  1  0.31019318  0.96107154  0.41138147  1
  S  S23  1  0.81808370  0.96797549  0.41690854  1
  S  S24  1  0.16708159  0.37539957  0.41387862  1
  S  S25  1  0.66874263  0.37167936  0.41768250  1
  S  S26  1  0.51277665  0.66258518  0.41281827  1
  O  O0  1  0.12220340  0.04157248  0.31453949  1
  O  O1  1  0.60700211  0.00644583  0.30151447  1
  O  O2  1  0.40217683  0.77785125  0.31416580  1
  O  O3  1  0.88794711  0.77325212  0.30272842  1
  O  O4  1  0.49621404  0.20524591  0.29880094  1
  O  O5  1  0.99263052  0.21555311  0.30868443  1
  O  O6  1  0.10590553  0.17503663  0.80029167  1
  O  O7  1  0.62347679  0.20320212  0.81400871  1
  O  O8  1  0.49047610  0.77272622  0.80717400  1
  O  O9  1  0.98553485  0.77744142  0.79897146  1
  O  O10  1  0.38843029  0.00526834  0.80532034  1
  O  O11  1  0.89847190  0.02553527  0.81640982  1
  O  O12  1  0.40329982  0.98799981  0.70189614  1
  O  O13  1  0.90347924  0.97449323  0.70320128  1
  O  O14  1  0.09145413  0.19676841  0.68887939  1
  O  O15  1  0.58783987  0.18696404  0.70127245  1
  O  O16  1  0.00772796  0.81571814  0.69555608  1
  O  O17  1  0.51276075  0.82468461  0.70383141  1
  O  O18  1  0.40435256  0.83693231  0.20159219  1
  O  O19  1  0.90188206  0.81033224  0.19839415  1
  O  O20  1  0.01059897  0.20123240  0.20498678  1
  O  O21  1  0.50915975  0.20648494  0.19498861  1
  O  O22  1  0.08845623  0.99228487  0.20154624  1
  O  O23  1  0.59074055  0.99318082  0.19795329  1
  O  O24  1  0.44830235  0.33866265  0.63806235  1
  O  O25  1  0.94556611  0.33576607  0.63685923  1
  O  O26  1  0.22036353  0.11575616  0.63844462  1
  O  O27  1  0.72043510  0.09465697  0.64229604  1
  O  O28  1  0.32338252  0.53066174  0.63929467  1
  O  O29  1  0.83278889  0.55787709  0.63702191  1
  O  O30  1  0.44317492  0.55351928  0.13844232  1
  O  O31  1  0.94569794  0.54961252  0.13919599  1
  O  O32  1  0.33165480  0.10568724  0.13710284  1
  O  O33  1  0.82886879  0.12968456  0.13024121  1
  O  O34  1  0.22118709  0.34823435  0.14275605  1
  O  O35  1  0.73246343  0.33966161  0.13118429  1
  O  O36  1  0.21838756  0.30868134  0.03823256  1
  O  O37  1  0.70690719  0.29454141  0.02769440  1
  O  O38  1  0.43753877  0.57919123  0.03352606  1
  O  O39  1  0.93430376  0.57383153  0.03556273  1
  O  O40  1  0.34637271  0.11714366  0.03173076  1
  O  O41  1  0.85101862  0.10354221  0.01682699  1
  O  O42  1  0.21423046  0.12932258  0.53352239  1
  O  O43  1  0.71800160  0.12786767  0.53778146  1
  O  O44  1  0.34956711  0.57674368  0.52395598  1
  O  O45  1  0.84541982  0.57469068  0.53151518  1
  O  O46  1  0.44236792  0.30631850  0.53311304  1
  O  O47  1  0.93805092  0.30301986  0.53179051  1
  O  O48  1  0.27261682  0.68177248  0.96440868  1
  O  O49  1  0.77156000  0.67541337  0.96669904  1
  O  O50  1  0.06030834  0.46451701  0.96349237  1
  O  O51  1  0.57230253  0.45754724  0.97151466  1
  O  O52  1  0.16892262  0.86561188  0.96432924  1
  O  O53  1  0.66496985  0.86497022  0.96253999  1
  O  O54  1  0.27157206  0.85873129  0.46212889  1
  O  O55  1  0.77531120  0.86734568  0.46803963  1
  O  O56  1  0.16543731  0.46177518  0.46628594  1
  O  O57  1  0.66588495  0.45819754  0.46994527  1
  O  O58  1  0.07227583  0.68931664  0.47057327  1
  O  O59  1  0.56159302  0.65913290  0.46174885  1
  O  O60  1  0.06978430  0.64948904  0.35834273  1
  O  O61  1  0.55244973  0.66427576  0.35687639  1
  O  O62  1  0.26048043  0.86747460  0.35794890  1
  O  O63  1  0.77228440  0.88678288  0.36362885  1
  O  O64  1  0.17411712  0.47690254  0.36111233  1
  O  O65  1  0.67267124  0.46636170  0.36523230  1
  O  O66  1  0.04875619  0.43651450  0.85894103  1
  O  O67  1  0.56851666  0.48990963  0.85885248  1
  O  O68  1  0.17227150  0.89076940  0.85960338  1
  O  O69  1  0.67267112  0.87578620  0.85775819  1
  O  O70  1  0.27797876  0.66029956  0.86006896  1
  O  O71  1  0.75712566  0.65415373  0.86197283  1
  O  O72  1  0.00101610  0.82195375  0.41164994  1
  O  O73  1  0.50342224  0.81243672  0.41860184  1
  O  O74  1  0.39523472  0.99015628  0.40671126  1
  O  O75  1  0.90302571  0.98753826  0.41545916  1
  O  O76  1  0.08927141  0.21254700  0.41156150  1
  O  O77  1  0.59627325  0.20160396  0.41686487  1
  O  O78  1  0.00184234  0.19348475  0.92151304  1
  O  O79  1  0.50202368  0.18124701  0.91301866  1
  O  O80  1  0.09541618  0.98710073  0.91919048  1
  O  O81  1  0.58910026  0.96753968  0.91125638  1
  O  O82  1  0.40457373  0.81882326  0.91646728  1
  O  O83  1  0.89342421  0.80088325  0.90869015  1
  O  O84  1  0.50036207  0.17756660  0.59132875  1
  O  O85  1  0.98758271  0.15707118  0.58935516  1
  O  O86  1  0.08912981  0.02122433  0.58860626  1
  O  O87  1  0.59102383  0.01016820  0.59193702  1
  O  O88  1  0.41999831  0.83749701  0.59757633  1
  O  O89  1  0.91634335  0.82127793  0.58867260  1
  O  O90  1  0.49149323  0.82144579  0.09368410  1
  O  O91  1  0.99469417  0.81640840  0.09396304  1
  O  O92  1  0.41675712  0.01250961  0.08952932  1
  O  O93  1  0.92296811  0.00214177  0.09518242  1
  O  O94  1  0.09172507  0.17299243  0.09270173  1
  O  O95  1  0.59121730  0.16847006  0.09393054  1
  O  O96  1  0.33532790  0.13427803  0.74192533  1
  O  O97  1  0.83883477  0.16043566  0.74573808  1
  O  O98  1  0.24534110  0.32450994  0.74486427  1
  O  O99  1  0.74761168  0.34578934  0.74264725  1
  O  O100  1  0.43504788  0.54287804  0.74230383  1
  O  O101  1  0.93488229  0.53890907  0.73836916  1
  O  O102  1  0.33936424  0.51911068  0.24571214  1
  O  O103  1  0.83958111  0.53462087  0.24166547  1
  O  O104  1  0.42722529  0.31176675  0.24089574  1
  O  O105  1  0.93726645  0.33767455  0.24421677  1
  O  O106  1  0.24708649  0.15061845  0.24415339  1
  O  O107  1  0.72893005  0.13431214  0.24263072  1
  O  O108  1  0.32892373  0.52018527  0.92040829  1
  O  O109  1  0.80861307  0.49779988  0.91254297  1
  O  O110  1  0.42468909  0.35906237  0.91661727  1
  O  O111  1  0.92529736  0.34064652  0.91593352  1
  O  O112  1  0.24768502  0.13166065  0.91833616  1
  O  O113  1  0.74027406  0.13026367  0.91256318  1
  O  O114  1  0.30868938  0.11867117  0.41266925  1
  O  O115  1  0.82852824  0.13675286  0.42047595  1
  O  O116  1  0.24048534  0.35122721  0.41357895  1
  O  O117  1  0.74787434  0.36565597  0.41834981  1
  O  O118  1  0.42733430  0.51270426  0.41299189  1
  O  O119  1  0.92479376  0.48981844  0.41499766  1
  O  O120  1  0.16218953  0.47040196  0.08220498  1
  O  O121  1  0.66701937  0.46781987  0.08264236  1
  O  O122  1  0.07063783  0.67038758  0.08184521  1
  O  O123  1  0.56981870  0.68082241  0.08406128  1
  O  O124  1  0.26606302  0.85255534  0.08229365  1
  O  O125  1  0.76252725  0.82541708  0.08314836  1
  O  O126  1  0.15987443  0.86228082  0.58457716  1
  O  O127  1  0.66119246  0.85347064  0.58206838  1
  O  O128  1  0.25123920  0.66225660  0.58388202  1
  O  O129  1  0.76561977  0.67783591  0.58293116  1
  O  O130  1  0.07190741  0.45323173  0.58160521  1
  O  O131  1  0.57451742  0.47577770  0.58324756  1
  O  O132  1  0.15613580  0.82732733  0.25434840  1
  O  O133  1  0.64207699  0.83256102  0.24390450  1
  O  O134  1  0.25687934  0.68700618  0.25655974  1
  O  O135  1  0.76680945  0.69043981  0.24209768  1
  O  O136  1  0.08729708  0.45997145  0.25355016  1
  O  O137  1  0.57601387  0.46840952  0.24650030  1
  O  O138  1  0.15313773  0.47640392  0.74651771  1
  O  O139  1  0.65622303  0.48560708  0.75488166  1
  O  O140  1  0.08340782  0.71565758  0.74937656  1
  O  O141  1  0.58523926  0.71219465  0.75413084  1
  O  O142  1  0.26833948  0.83613328  0.74479644  1
  O  O143  1  0.75541340  0.82641228  0.75687219  1
loop_
_geom_bond_atom_site_label_1
_geom_bond_atom_site_label_2
_geom_bond_distance
_geom_bond_site_symmetry_2
Na0 O106 2.349829 1_565
Na0 O134 2.544262 1_555
Na0 O132 2.577017 1_555
Na0 O104 2.625628 1_565
Na0 O32 2.655354 1_565
Na0 O62 2.861510 1_555
Na0 O18 2.917299 1_555
Na1 O102 2.401584 1_555
Na1 O34 2.557938 1_555
Na1 O136 2.584990 1_555
Na1 O106 2.592396 1_555
Na1 O134 2.718873 1_555
Na1 O64 2.908019 1_555
Na1 O0 2.943749 1_555
Na2 O102 2.458867 1_555
Na2 O133 2.515396 1_555
Na2 O61 2.567010 1_555
Na2 O104 2.665453 1_555
Na2 O137 2.762765 1_555
Na2 O30 2.855975 1_555
Na2 O2 2.902880 1_555
Na3 O28 2.322725 1_555
Na3 O98 2.353037 1_555
Na3 O138 2.528344 1_555
Na3 O142 2.567763 1_555
Na3 O100 2.773539 1_555
Na4 O99 2.345732 1_555
Na4 O143 2.553687 1_555
Na4 O139 2.581005 1_555
Na4 O29 2.634781 1_555
Na4 O101 2.806244 1_555
Na4 O13 2.893847 1_555
Na4 O71 3.002862 1_555
Na4 O9 3.057354 1_555
Na5 O138 2.532214 1_655
Na5 O97 2.564797 1_555
Na5 O66 2.612724 1_655
Na5 O101 2.741236 1_555
Na5 O11 2.888575 1_555
Na5 O25 2.902839 1_555
Na6 O98 2.431271 1_555
Na6 O140 2.547422 1_545
Na6 O96 2.556522 1_555
Na6 O6 2.619867 1_555
Na6 O68 2.674599 1_545
Na6 O26 2.855545 1_555
Na7 O97 2.400002 1_555
Na7 O27 2.573665 1_555
Na7 O141 2.601005 1_545
Na7 O99 2.612459 1_555
Na7 O143 2.705897 1_545
Na7 O69 2.810559 1_545
Na7 O7 2.920758 1_555
Na8 O128 2.456422 1_555
Na8 O130 2.462128 1_555
Na8 O28 2.652179 1_555
Na8 O14 2.675824 1_555
Na8 O86 2.742979 1_555
Na9 O125 2.239083 1_555
Na9 O93 2.548944 1_565
Na9 O91 2.644276 1_555
Na9 O121 2.731161 1_555
Na9 O39 2.839507 1_555
Na10 O110 2.418197 1_555
Na10 O108 2.539493 1_555
Na10 O81 2.564320 1_555
Na10 O82 2.627987 1_555
Na10 O8 2.757633 1_555
Na10 O38 2.826743 1_556
Na11 O79 2.364615 1_555
Na11 O112 2.496052 1_555
Na11 O110 2.505985 1_555
Na11 O10 2.718599 1_555
Na11 O82 2.732006 1_545
Na11 O40 2.788554 1_556
Na12 O41 2.317010 1_556
Na12 O78 2.435497 1_655
Na12 O111 2.529706 1_555
Na12 O11 2.605676 1_555
Na12 O83 2.631164 1_545
Na12 O113 2.689362 1_555
Na13 O109 2.472528 1_555
Na13 O7 2.473952 1_555
Na13 O79 2.523229 1_555
Na13 O81 2.764208 1_545
Na13 O113 2.776160 1_555
Na13 O37 2.818339 1_556
Na13 O51 2.920220 1_555
Na14 O119 2.416115 1_555
Na14 O115 2.514074 1_555
Na14 O76 2.566276 1_655
Na14 O75 2.618520 1_545
Na14 O5 2.683107 1_555
Na14 O47 2.808574 1_555
Na15 O0 2.383830 1_555
Na15 O72 2.505303 1_545
Na15 O114 2.515544 1_555
Na16 O73 2.449148 1_555
Na16 O44 2.470570 1_555
Na16 O118 2.507457 1_555
Na16 O116 2.657016 1_555
Na16 O74 2.709866 1_555
Na16 O2 2.730827 1_555
Na16 O54 2.969182 1_555
Na17 O72 2.367122 1_655
Na17 O117 2.471312 1_555
Na17 O119 2.530721 1_555
Na17 O75 2.709623 1_555
Na17 O3 2.745405 1_555
Na17 O45 2.820911 1_555
Na18 O72 2.408921 1_655
Na18 O89 2.457177 1_555
Na18 O86 2.588849 1_665
Na18 O75 2.720363 1_555
Na18 O85 2.883833 1_565
Na18 O76 3.005664 1_665
Na19 O87 2.524148 1_565
Na19 O88 2.610544 1_555
Na19 O73 2.640461 1_555
Na19 O84 2.647347 1_565
Na19 O77 2.770798 1_565
Na20 O78 2.464520 1_554
Na20 O94 2.493434 1_555
Na20 O93 2.597347 1_455
Na20 O80 2.709304 1_544
Na20 O91 2.845420 1_445
Na21 O79 2.393774 1_555
Na21 O92 2.591126 1_556
Na21 O95 2.667323 1_556
Na21 O82 2.722736 1_545
Na21 O81 2.868745 1_545
Na21 O90 2.937814 1_546
Na22 O110 2.538594 1_555
Na22 O112 2.551418 1_555
Na22 O98 2.589800 1_555
Na22 O108 2.589887 1_555
Na22 O96 2.949887 1_555
Na22 O100 2.967626 1_555
Na23 O97 2.496639 1_555
Na23 O99 2.550111 1_555
Na23 O113 2.640327 1_555
Na23 O111 2.689098 1_555
Na23 O109 2.708811 1_555
Na23 O101 2.861661 1_555
Na24 O106 2.493258 1_555
Na24 O102 2.519492 1_555
Na24 O116 2.661546 1_555
Na24 O118 2.683857 1_555
Na24 O114 2.699326 1_555
Na24 O104 2.789693 1_555
Na25 O119 2.399740 1_555
Na25 O117 2.537630 1_555
Na25 O115 2.671792 1_555
Na25 O103 2.844619 1_555
Na25 O107 2.922113 1_555
Na25 O105 2.932768 1_555
Na26 O122 2.542610 1_555
Na26 O132 2.586490 1_555
Na26 O124 2.630311 1_555
Na26 O120 2.677809 1_555
Na26 O136 2.731487 1_555
Na26 O134 2.754641 1_555
Na27 O125 2.245924 1_555
Na27 O135 2.506086 1_555
Na27 O133 2.533673 1_555
Na27 O123 2.682682 1_555
Na27 O121 2.817834 1_555
Na27 O137 2.918954 1_555
Na28 O128 2.294290 1_555
Na28 O142 2.521800 1_555
Na28 O138 2.550411 1_555
Na28 O126 2.679802 1_555
Na28 O130 2.728571 1_555
Na28 O140 2.861207 1_555
Na29 O131 2.468868 1_555
Na29 O129 2.574294 1_555
Na29 O139 2.602422 1_555
Na29 O127 2.681563 1_555
Na29 O143 2.758869 1_555
Na29 O141 2.802086 1_555
Ca0 O0 2.178949 1_565
Ca0 O72 2.208056 1_555
Ca0 O3 2.295193 1_455
Ca0 O5 2.344610 1_465
Ca0 O76 2.440536 1_565
Ca0 O75 2.447723 1_455
Ca1 O2 2.185550 1_545
Ca1 O1 2.249147 1_555
Ca1 O4 2.304013 1_555
Ca1 O74 2.339294 1_545
Ca1 O77 2.348029 1_555
Ca1 O73 2.374410 1_545
Ca2 O6 2.121760 1_555
Ca2 O11 2.208556 1_455
Ca2 O9 2.349397 1_445
Ca2 O78 2.390031 1_555
Ca2 O83 2.399655 1_445
Ca2 O80 2.403297 1_545
Ca3 O7 2.165284 1_555
Ca3 O79 2.203090 1_555
Ca3 O10 2.308180 1_555
Ca3 O8 2.342939 1_545
Ca3 O81 2.399942 1_545
Ca3 O82 2.465204 1_545
Ca4 O28 2.144438 1_555
Ca4 O98 2.252675 1_555
Ca4 O24 2.283212 1_555
Ca4 O26 2.329771 1_555
Ca4 O100 2.374962 1_555
Ca4 O96 2.393413 1_555
Ca5 O99 2.208415 1_555
Ca5 O97 2.248962 1_555
Ca5 O27 2.299221 1_555
Ca5 O25 2.320866 1_555
Ca5 O29 2.351450 1_555
Ca5 O101 2.374457 1_555
Ca6 O106 2.203587 1_555
Ca6 O102 2.263825 1_555
Ca6 O34 2.290569 1_555
Ca6 O30 2.300455 1_555
Ca6 O32 2.348832 1_555
Ca6 O104 2.374763 1_555
Ca7 O33 2.083498 1_555
Ca7 O35 2.304128 1_555
Ca7 O31 2.333402 1_555
Ca7 O107 2.339730 1_555
Ca7 O105 2.366362 1_555
Ca7 O103 2.423997 1_555
Ca8 O110 2.272095 1_555
Ca8 O108 2.347425 1_555
Ca8 O112 2.367578 1_555
Ca8 O36 2.374247 1_556
Ca8 O38 2.396565 1_556
Ca8 O40 2.406177 1_556
Ca9 O41 2.166506 1_556
Ca9 O111 2.391335 1_555
Ca9 O39 2.407558 1_556
Ca9 O37 2.457782 1_556
Ca9 O113 2.570505 1_555
Ca9 O109 2.788106 1_555
Ca10 O44 2.179326 1_555
Ca10 O46 2.336260 1_555
Ca10 O118 2.380698 1_555
Ca10 O42 2.452834 1_555
Ca10 O116 2.606923 1_555
Ca10 O114 2.656662 1_555
Ca11 O119 2.300446 1_555
Ca11 O117 2.354476 1_555
Ca11 O115 2.358408 1_555
Ca11 O43 2.365935 1_555
Ca11 O47 2.376135 1_555
Ca11 O45 2.392358 1_555
Ca12 O52 2.237256 1_554
Ca12 O50 2.243533 1_554
Ca12 O48 2.288758 1_554
Ca12 O120 2.323957 1_555
Ca12 O122 2.344447 1_555
Ca12 O124 2.403833 1_555
Ca13 O51 2.146568 1_554
Ca13 O125 2.243575 1_555
Ca13 O53 2.294843 1_554
Ca13 O123 2.340921 1_555
Ca13 O49 2.344791 1_554
Ca13 O121 2.366435 1_555
Ca14 O58 2.145410 1_555
Ca14 O128 2.227041 1_555
Ca14 O54 2.292190 1_555
Ca14 O126 2.333261 1_555
Ca14 O56 2.366461 1_555
Ca14 O130 2.405749 1_555
Ca15 O57 2.251307 1_555
Ca15 O59 2.269004 1_555
Ca15 O55 2.277317 1_555
Ca15 O131 2.322486 1_555
Ca15 O127 2.331408 1_555
Ca15 O129 2.404907 1_555
Ca16 O65 2.274635 1_555
Ca16 O63 2.275780 1_555
Ca16 O61 2.391032 1_555
Ca16 O135 2.392412 1_555
Ca16 O137 2.404161 1_555
Ca16 O133 2.448207 1_555
Ca17 O138 2.245531 1_555
Ca17 O66 2.307075 1_555
Ca17 O70 2.310292 1_555
Ca17 O68 2.383769 1_555
Ca17 O140 2.450443 1_555
Ca17 O142 2.482906 1_555
Hf0 O14 1.959698 1_655
Hf0 O13 1.962295 1_545
Hf0 O16 2.120613 1_645
Hf0 O85 2.129883 1_555
Hf0 O89 2.215640 1_545
Hf0 O86 2.264091 1_655
Hf1 O88 1.986282 1_545
Hf1 O15 2.015662 1_555
Hf1 O84 2.085346 1_555
Hf1 O87 2.123200 1_555
Hf1 O12 2.141997 1_545
Hf1 O17 2.226696 1_545
Hf2 O93 1.982392 1_455
Hf2 O22 2.017093 1_545
Hf2 O19 2.114475 1_445
Hf2 O91 2.127143 1_445
Hf2 O94 2.144837 1_555
Hf2 O20 2.190900 1_555
Hf3 O18 1.959444 1_555
Hf3 O23 2.080743 1_555
Hf3 O90 2.088818 1_555
Hf3 O21 2.113101 1_565
Hf3 O92 2.132449 1_565
Hf3 O95 2.187658 1_565
Hf4 O60 1.955383 1_555
Hf4 O132 1.985472 1_555
Hf4 O134 2.131762 1_555
Hf4 O62 2.143122 1_555
Hf4 O136 2.199528 1_555
Hf4 O64 2.286333 1_555
Hf5 O67 1.962330 1_555
Hf5 O139 1.984036 1_555
Hf5 O143 2.123183 1_555
Hf5 O71 2.129916 1_555
Hf5 O141 2.220457 1_555
Hf5 O69 2.285426 1_555
O0 Si0 1.614804 1_555
O1 S0 1.470895 1_545
O2 Si1 1.607911 1_555
O3 S1 1.477682 1_555
O4 S3 1.471685 1_555
O5 S2 1.468143 1_655
O6 Si2 1.601539 1_555
O7 Si3 1.615635 1_555
O8 S5 1.477894 1_555
O9 S4 1.467557 1_655
O10 S6 1.475934 1_545
O11 Si4 1.605510 1_545
O12 S6 1.505319 1_555
O13 Si4 1.711998 1_555
O14 Si2 1.721885 1_555
O15 Si3 1.665327 1_555
O16 S4 1.514349 1_555
O17 S5 1.498637 1_555
O18 Si1 1.721400 1_555
O19 S1 1.524892 1_555
O20 S2 1.500470 1_555
O21 S3 1.511428 1_555
O22 Si0 1.662410 1_565
O23 S0 1.525270 1_555
O24 S7 1.464716 1_555
O25 S8 1.471715 1_555
O26 S9 1.478290 1_555
O27 S10 1.477119 1_555
O28 Si5 1.635291 1_555
O29 S11 1.480244 1_555
O30 S12 1.473818 1_555
O31 S13 1.456572 1_555
O32 S14 1.475472 1_555
O33 Si6 1.603764 1_555
O34 S15 1.476019 1_555
O35 S16 1.466554 1_555
O36 S15 1.472850 1_555
O37 S16 1.497634 1_555
O38 S12 1.483027 1_555
O39 S13 1.486649 1_555
O40 S14 1.480801 1_555
O41 Si6 1.643177 1_555
O42 S9 1.495865 1_555
O43 S10 1.471305 1_555
O44 Si5 1.647048 1_555
O45 S11 1.485032 1_555
O46 S7 1.474467 1_555
O47 S8 1.476487 1_555
O48 S17 1.473428 1_555
O49 S18 1.470632 1_555
O50 S19 1.471596 1_555
O51 Si7 1.595767 1_555
O52 S20 1.475740 1_555
O53 S21 1.462572 1_555
O54 S22 1.460220 1_555
O55 S23 1.476229 1_555
O56 S24 1.469508 1_555
O57 S25 1.474392 1_555
O58 Si8 1.597410 1_555
O59 S26 1.466983 1_555
O60 Si8 1.713878 1_555
O61 S26 1.491930 1_555
O62 S22 1.533294 1_555
O63 S23 1.478549 1_555
O64 S24 1.514662 1_555
O65 S25 1.485708 1_555
O66 S19 1.491851 1_555
O67 Si7 1.712401 1_555
O68 S20 1.500891 1_555
O69 S21 1.514061 1_555
O70 S17 1.485361 1_555
O71 S18 1.540482 1_555
O72 Si8 1.649088 1_555
O73 S26 1.502689 1_555
O74 S22 1.474828 1_555
O75 S23 1.503438 1_555
O76 S24 1.487298 1_555
O77 S25 1.483431 1_555
O78 S19 1.498021 1_555
O79 Si7 1.651049 1_555
O80 S20 1.476850 1_555
O81 S21 1.491565 1_555
O82 S17 1.502143 1_555
O83 S18 1.470876 1_555
O84 S7 1.527879 1_555
O85 S8 1.524005 1_555
O86 S9 1.522422 1_555
O87 S10 1.526070 1_555
O88 Si5 1.686651 1_555
O89 S11 1.515499 1_555
O90 S12 1.530666 1_555
O91 S13 1.530921 1_555
O92 S14 1.528529 1_555
O93 Si6 1.718842 1_555
O94 S15 1.520873 1_555
O95 S16 1.516961 1_555
O96 S6 1.472358 1_545
O97 Si4 1.631896 1_545
O98 Si2 1.644069 1_555
O99 Si3 1.632080 1_555
O100 S5 1.459312 1_555
O101 S4 1.480115 1_655
O102 Si1 1.633014 1_555
O103 S1 1.468983 1_555
O104 S3 1.490632 1_555
O105 S2 1.462234 1_655
O106 Si0 1.632346 1_555
O107 S0 1.455710 1_545
O108 S17 1.491146 1_555
O109 S18 1.483113 1_555
O110 Si7 1.649230 1_555
O111 S19 1.496896 1_655
O112 S20 1.505704 1_545
O113 S21 1.491736 1_545
O114 S22 1.488355 1_545
O115 S23 1.492238 1_545
O116 S24 1.497330 1_555
O117 S25 1.507143 1_555
O118 S26 1.505178 1_555
O119 Si8 1.648488 1_655
O120 S15 1.477966 1_555
O121 S16 1.477183 1_555
O122 S13 1.479573 1_455
O123 S12 1.465121 1_555
O124 S14 1.477410 1_565
O125 Si6 1.639699 1_565
O126 S9 1.464924 1_565
O127 S10 1.474584 1_565
O128 Si5 1.635456 1_555
O129 S11 1.479870 1_555
O130 S8 1.480488 1_455
O131 S7 1.478320 1_555
O132 Si0 1.687945 1_565
O133 S0 1.496567 1_555
O134 Si1 1.668512 1_555
O135 S1 1.484266 1_555
O136 S2 1.529278 1_555
O137 S3 1.474150 1_555
O138 Si2 1.647419 1_555
O139 Si3 1.686801 1_555
O140 S4 1.486068 1_555
O141 S5 1.515372 1_555
O142 S6 1.494292 1_555
O143 Si4 1.674049 1_555
