# generated using pymatgen
data_Mg(CoO2)2
_symmetry_space_group_name_H-M   'P 1'
_cell_length_a   3.01590276
_cell_length_b   3.01590259
_cell_length_c   9.88090180
_cell_angle_alpha   90.00000000
_cell_angle_beta   90.00000000
_cell_angle_gamma   59.99999814
_symmetry_Int_Tables_number   1
_chemical_formula_structural   Mg(CoO2)2
_chemical_formula_sum   'Mg1 Co2 O4'
_cell_volume   77.83265618
_cell_formula_units_Z   1
loop_
 _symmetry_equiv_pos_site_id
 _symmetry_equiv_pos_as_xyz
  1  'x, y, z'
loop_
 _atom_site_type_symbol
 _atom_site_label
 _atom_site_symmetry_multiplicity
 _atom_site_fract_x
 _atom_site_fract_y
 _atom_site_fract_z
 _atom_site_occupancy
  Mg  Mg0  1  0.00000000  0.00000000  0.25002455  1
  Co  Co0  1  0.00000000  0.00000000  0.98239383  1
  Co  Co1  1  0.00000000  0.00000000  0.51767366  1
  O  O0  1  0.33333400  0.33333300  0.37463192  1
  O  O1  1  0.33333400  0.33333300  0.90176884  1
  O  O2  1  0.66666600  0.66666700  0.12538436  1
  O  O3  1  0.66666600  0.66666700  0.59812284  1
loop_
_geom_bond_atom_site_label_1
_geom_bond_atom_site_label_2
_geom_bond_distance
_geom_bond_site_symmetry_2
Mg0 O0 2.132562 1_455
Mg0 O0 2.132564 1_545
Mg0 O0 2.132564 1_555
Mg0 O2 2.132749 1_545
Mg0 O2 2.132751 1_455
Mg0 O2 2.132751 1_445
Co0 O1 1.914819 1_455
Co0 O1 1.914821 1_545
Co0 O1 1.914821 1_555
Co0 O2 2.242343 1_546
Co0 O2 2.242345 1_456
Co0 O2 2.242345 1_446
Co1 O3 1.914097 1_545
Co1 O3 1.914099 1_455
Co1 O3 1.914099 1_445
Co1 O0 2.242661 1_455
Co1 O0 2.242663 1_545
Co1 O0 2.242664 1_555
