# generated using pymatgen
data_Rb3B12H12Br
_symmetry_space_group_name_H-M   'P 1'
_cell_length_a   7.13287682
_cell_length_b   7.13287682
_cell_length_c   7.13287673
_cell_angle_alpha   93.11222868
_cell_angle_beta   93.11222868
_cell_angle_gamma   93.11222260
_symmetry_Int_Tables_number   1
_chemical_formula_structural   Rb3B12H12Br
_chemical_formula_sum   'Rb3 B12 H12 Br1'
_cell_volume   361.23955507
_cell_formula_units_Z   1
loop_
 _symmetry_equiv_pos_site_id
 _symmetry_equiv_pos_as_xyz
  1  'x, y, z'
loop_
 _atom_site_type_symbol
 _atom_site_label
 _atom_site_symmetry_multiplicity
 _atom_site_fract_x
 _atom_site_fract_y
 _atom_site_fract_z
 _atom_site_occupancy
  Rb  Rb0  1  0.00000000  0.50000000  0.50000000  1
  Rb  Rb1  1  0.50000000  0.00000000  0.50000000  1
  Rb  Rb2  1  0.50000000  0.50000000  0.00000000  1
  B  B0  1  0.11997300  0.84199900  0.11997300  1
  B  B1  1  0.88002700  0.15800100  0.88002700  1
  B  B2  1  0.15800100  0.88002700  0.88002700  1
  B  B3  1  0.88002700  0.88002700  0.15800100  1
  B  B4  1  0.05811200  0.05811200  0.22951600  1
  B  B5  1  0.22951600  0.05811200  0.05811200  1
  B  B6  1  0.05811200  0.22951600  0.05811200  1
  B  B7  1  0.94188800  0.77048400  0.94188800  1
  B  B8  1  0.94188800  0.94188800  0.77048400  1
  B  B9  1  0.77048400  0.94188800  0.94188800  1
  B  B10  1  0.11997300  0.11997300  0.84199900  1
  B  B11  1  0.84199900  0.11997300  0.11997300  1
  H  H0  1  0.79369000  0.79369000  0.26939600  1
  H  H1  1  0.26939600  0.79369000  0.79369000  1
  H  H2  1  0.79369000  0.26939600  0.79369000  1
  H  H3  1  0.20631000  0.73060400  0.20631000  1
  H  H4  1  0.90051000  0.90051000  0.60735300  1
  H  H5  1  0.60735300  0.90051000  0.90051000  1
  H  H6  1  0.90051000  0.60735300  0.90051000  1
  H  H7  1  0.09949000  0.39264700  0.09949000  1
  H  H8  1  0.09949000  0.09949000  0.39264700  1
  H  H9  1  0.39264700  0.09949000  0.09949000  1
  H  H10  1  0.20631000  0.20631000  0.73060400  1
  H  H11  1  0.73060400  0.20631000  0.20631000  1
  Br  Br0  1  0.50000000  0.50000000  0.50000000  1
loop_
_geom_bond_atom_site_label_1
_geom_bond_atom_site_label_2
_geom_bond_distance
_geom_bond_site_symmetry_2
B0 H3 1.206199 1_555
B1 H2 1.206199 1_555
B2 H1 1.206199 1_555
B3 H0 1.206199 1_555
B4 H8 1.201719 1_555
B5 H9 1.201719 1_555
B6 H7 1.201719 1_555
B7 H6 1.201719 1_555
B8 H4 1.201719 1_555
B9 H5 1.201719 1_555
B10 H10 1.206199 1_555
B11 H11 1.206199 1_555
H0 Rb1 3.115386 1_565
H0 Rb0 3.115386 1_655
H1 Rb2 3.115386 1_556
H1 Rb1 3.115386 1_565
H2 Rb2 3.115386 1_556
H2 Rb0 3.115386 1_655
H3 Rb2 3.115386 1_555
H3 Rb0 3.115386 1_555
H4 Rb1 3.048410 1_565
H4 Rb0 3.048410 1_655
H5 Rb1 3.048410 1_565
H5 Rb2 3.048410 1_556
H6 Rb0 3.048410 1_655
H6 Rb2 3.048410 1_556
H7 Rb0 3.048410 1_555
H7 Rb2 3.048410 1_555
H8 Rb0 3.048410 1_555
H8 Rb1 3.048410 1_555
H9 Rb1 3.048410 1_555
H9 Rb2 3.048410 1_555
H10 Rb1 3.115386 1_555
H10 Rb0 3.115386 1_555
H11 Rb2 3.115386 1_555
H11 Rb1 3.115386 1_555
Br0 Rb2 3.566438 1_555
Br0 Rb2 3.566438 1_556
Br0 Rb0 3.566438 1_555
Br0 Rb1 3.566438 1_555
Br0 Rb1 3.566438 1_565
Br0 Rb0 3.566438 1_655
