# generated using pymatgen
data_YbCuBi
_symmetry_space_group_name_H-M   'P 1'
_cell_length_a   4.70466758
_cell_length_b   4.70466758
_cell_length_c   6.87332685
_cell_angle_alpha   90.00000000
_cell_angle_beta   90.00000000
_cell_angle_gamma   119.99999333
_symmetry_Int_Tables_number   1
_chemical_formula_structural   YbCuBi
_chemical_formula_sum   'Yb2 Cu2 Bi2'
_cell_volume   131.75149202
_cell_formula_units_Z   2
loop_
 _symmetry_equiv_pos_site_id
 _symmetry_equiv_pos_as_xyz
  1  'x, y, z'
loop_
 _atom_site_type_symbol
 _atom_site_label
 _atom_site_symmetry_multiplicity
 _atom_site_fract_x
 _atom_site_fract_y
 _atom_site_fract_z
 _atom_site_occupancy
  Yb  Yb0  1  0.00000000  0.00000000  0.98482169  1
  Yb  Yb1  1  0.00000000  0.00000000  0.48482169  1
  Cu  Cu0  1  0.66666700  0.33333300  0.80850226  1
  Cu  Cu1  1  0.33333300  0.66666700  0.30850226  1
  Bi  Bi0  1  0.33333300  0.66666700  0.73187605  1
  Bi  Bi1  1  0.66666700  0.33333300  0.23187605  1
loop_
_geom_bond_atom_site_label_1
_geom_bond_atom_site_label_2
_geom_bond_distance
_geom_bond_site_symmetry_2
Cu0 Yb0 2.974333 1_655
Cu0 Yb0 2.974337 1_555
Cu0 Yb0 2.974337 1_665
Cu0 Yb1 3.511057 1_655
Cu0 Yb1 3.511060 1_555
Cu0 Yb1 3.511060 1_665
Cu1 Yb1 2.974333 1_565
Cu1 Yb1 2.974337 1_555
Cu1 Yb1 2.974337 1_665
Cu1 Yb0 3.511057 1_564
Cu1 Yb0 3.511060 1_554
Cu1 Yb0 3.511060 1_664
Bi0 Cu0 2.766829 1_455
Bi0 Cu0 2.766829 1_565
Bi0 Cu0 2.766836 1_555
Bi0 Cu1 2.909986 1_555
Bi0 Yb1 3.203349 1_565
Bi0 Yb1 3.203353 1_555
Bi0 Yb1 3.203353 1_665
Bi0 Yb0 3.224997 1_565
Bi0 Yb0 3.225000 1_555
Bi0 Yb0 3.225000 1_665
Bi1 Cu1 2.766829 1_655
Bi1 Cu1 2.766829 1_545
Bi1 Cu1 2.766836 1_555
Bi1 Cu0 2.909986 1_554
Bi1 Yb0 3.203349 1_654
Bi1 Yb0 3.203353 1_554
Bi1 Yb0 3.203353 1_664
Bi1 Yb1 3.224997 1_655
Bi1 Yb1 3.225000 1_555
Bi1 Yb1 3.225000 1_665
