# generated using pymatgen
data_TaBi4ClO8
_symmetry_space_group_name_H-M   'P 1'
_cell_length_a   5.47500400
_cell_length_b   5.52374689
_cell_length_c   28.94630290
_cell_angle_alpha   90.00000000
_cell_angle_beta   90.00000000
_cell_angle_gamma   90.00000000
_symmetry_Int_Tables_number   1
_chemical_formula_structural   TaBi4ClO8
_chemical_formula_sum   'Ta4 Bi16 Cl4 O32'
_cell_volume   875.40961672
_cell_formula_units_Z   4
loop_
 _symmetry_equiv_pos_site_id
 _symmetry_equiv_pos_as_xyz
  1  'x, y, z'
loop_
 _atom_site_type_symbol
 _atom_site_label
 _atom_site_symmetry_multiplicity
 _atom_site_fract_x
 _atom_site_fract_y
 _atom_site_fract_z
 _atom_site_occupancy
  Ta  Ta0  1  0.00000000  0.98886283  0.75000000  1
  Ta  Ta1  1  0.50000000  0.48886283  0.75000000  1
  Ta  Ta2  1  0.00000000  0.01113717  0.25000000  1
  Ta  Ta3  1  0.50000000  0.51113717  0.25000000  1
  Bi  Bi0  1  0.49122540  0.48195410  0.06794447  1
  Bi  Bi1  1  0.47858013  0.06101863  0.84315226  1
  Bi  Bi2  1  0.97858013  0.56101863  0.65684774  1
  Bi  Bi3  1  0.47858013  0.93898137  0.34315226  1
  Bi  Bi4  1  0.97858013  0.43898137  0.15684774  1
  Bi  Bi5  1  0.50877460  0.51804590  0.93205553  1
  Bi  Bi6  1  0.00877460  0.01804590  0.56794447  1
  Bi  Bi7  1  0.50877460  0.48195410  0.43205553  1
  Bi  Bi8  1  0.02141987  0.43898137  0.34315226  1
  Bi  Bi9  1  0.52141987  0.06101863  0.65684774  1
  Bi  Bi10  1  0.02141987  0.56101863  0.84315226  1
  Bi  Bi11  1  0.52141987  0.93898137  0.15684774  1
  Bi  Bi12  1  0.99122540  0.01804590  0.93205553  1
  Bi  Bi13  1  0.49122540  0.51804590  0.56794447  1
  Bi  Bi14  1  0.99122540  0.98195410  0.43205553  1
  Bi  Bi15  1  0.00877460  0.98195410  0.06794447  1
  Cl  Cl0  1  0.50000000  0.00000000  0.50000000  1
  Cl  Cl1  1  0.00000000  0.50000000  0.50000000  1
  Cl  Cl2  1  0.50000000  0.00000000  0.00000000  1
  Cl  Cl3  1  0.00000000  0.50000000  0.00000000  1
  O  O0  1  0.24644764  0.28800773  0.23553402  1
  O  O1  1  0.74644764  0.21199227  0.76446598  1
  O  O2  1  0.24644764  0.71199227  0.73553402  1
  O  O3  1  0.74644764  0.78800773  0.26446598  1
  O  O4  1  0.75355236  0.28800773  0.26446598  1
  O  O5  1  0.25355236  0.21199227  0.73553402  1
  O  O6  1  0.75355236  0.71199227  0.76446598  1
  O  O7  1  0.25355236  0.78800773  0.23553402  1
  O  O8  1  0.40543444  0.55895645  0.31578755  1
  O  O9  1  0.90543444  0.94104355  0.68421245  1
  O  O10  1  0.40543444  0.44104355  0.81578755  1
  O  O11  1  0.90543444  0.05895645  0.18421245  1
  O  O12  1  0.59456556  0.55895645  0.18421245  1
  O  O13  1  0.09456556  0.94104355  0.81578755  1
  O  O14  1  0.59456556  0.44104355  0.68421245  1
  O  O15  1  0.09456556  0.05895645  0.31578755  1
  O  O16  1  0.74891707  0.24329551  0.10504707  1
  O  O17  1  0.24891707  0.25670449  0.89495293  1
  O  O18  1  0.74891707  0.75670449  0.60504707  1
  O  O19  1  0.24891707  0.74329551  0.39495293  1
  O  O20  1  0.24489103  0.23530817  0.10611423  1
  O  O21  1  0.74489103  0.26469183  0.89388577  1
  O  O22  1  0.24489103  0.76469183  0.60611423  1
  O  O23  1  0.74489103  0.73530817  0.39388577  1
  O  O24  1  0.75510897  0.23530817  0.39388577  1
  O  O25  1  0.25510897  0.26469183  0.60611423  1
  O  O26  1  0.75510897  0.76469183  0.89388577  1
  O  O27  1  0.25510897  0.73530817  0.10611423  1
  O  O28  1  0.25108293  0.24329551  0.39495293  1
  O  O29  1  0.75108293  0.25670449  0.60504707  1
  O  O30  1  0.25108293  0.75670449  0.89495293  1
  O  O31  1  0.75108293  0.74329551  0.10504707  1
loop_
_geom_bond_atom_site_label_1
_geom_bond_atom_site_label_2
_geom_bond_distance
_geom_bond_site_symmetry_2
Bi0 O27 2.202366 1_555
Bi0 O16 2.209493 1_555
Bi0 O20 2.212656 1_555
Bi0 O31 2.293798 1_555
Bi1 O17 2.235569 1_555
Bi1 O10 2.279099 1_555
Bi1 O13 2.342445 1_545
Bi1 O21 2.355475 1_555
Bi1 O30 2.573968 1_545
Bi1 O26 2.669840 1_545
Bi1 O1 2.834451 1_555
Bi2 O18 2.235569 1_555
Bi2 O9 2.279099 1_555
Bi2 O14 2.342445 1_555
Bi2 O22 2.355475 1_655
Bi2 O29 2.573968 1_555
Bi2 O25 2.669840 1_655
Bi2 O2 2.834451 1_655
Bi3 O19 2.235569 1_555
Bi3 O8 2.279099 1_555
Bi3 O15 2.342445 1_565
Bi3 O23 2.355475 1_555
Bi3 O28 2.573968 1_565
Bi3 O24 2.669840 1_565
Bi3 O3 2.834451 1_555
Bi4 O16 2.235569 1_555
Bi4 O11 2.279099 1_555
Bi4 O12 2.342445 1_555
Bi4 O20 2.355475 1_655
Bi4 O31 2.573968 1_555
Bi4 O27 2.669840 1_655
Bi4 O0 2.834451 1_655
Bi5 O21 2.202366 1_555
Bi5 O30 2.209493 1_555
Bi5 O26 2.212656 1_555
Bi5 O17 2.293798 1_555
Bi6 O22 2.202366 1_545
Bi6 O29 2.209493 1_455
Bi6 O25 2.212656 1_555
Bi6 O18 2.293798 1_445
Bi7 O23 2.202366 1_555
Bi7 O28 2.209493 1_555
Bi7 O24 2.212656 1_555
Bi7 O19 2.293798 1_555
Bi8 O28 2.235569 1_555
Bi8 O15 2.279099 1_555
Bi8 O8 2.342445 1_555
Bi8 O24 2.355475 1_455
Bi8 O19 2.573968 1_555
Bi8 O23 2.669840 1_455
Bi8 O4 2.834451 1_455
Bi9 O29 2.235569 1_555
Bi9 O14 2.279099 1_555
Bi9 O9 2.342445 1_545
Bi9 O25 2.355475 1_555
Bi9 O18 2.573968 1_545
Bi9 O22 2.669840 1_545
Bi9 O5 2.834451 1_555
Bi10 O30 2.235569 1_555
Bi10 O13 2.279099 1_555
Bi10 O10 2.342445 1_555
Bi10 O26 2.355475 1_455
Bi10 O17 2.573968 1_555
Bi10 O21 2.669840 1_455
Bi10 O6 2.834451 1_455
Bi11 O31 2.235569 1_555
Bi11 O12 2.279099 1_555
Bi11 O11 2.342445 1_565
Bi11 O27 2.355475 1_555
Bi11 O16 2.573968 1_565
Bi11 O20 2.669840 1_565
Bi11 O7 2.834451 1_555
Bi12 O26 2.202366 1_545
Bi12 O17 2.209493 1_655
Bi12 O21 2.212656 1_555
Bi12 O30 2.293798 1_645
Bi13 O25 2.202366 1_555
Bi13 O18 2.209493 1_555
Bi13 O22 2.212656 1_555
Bi13 O29 2.293798 1_555
Bi14 O24 2.202366 1_565
Bi14 O19 2.209493 1_655
Bi14 O23 2.212656 1_555
Bi14 O28 2.293798 1_665
Bi15 O20 2.202366 1_565
Bi15 O31 2.209493 1_455
Bi15 O27 2.212656 1_555
Bi15 O16 2.293798 1_465
O0 Ta3 1.903030 1_555
O0 Ta2 2.082044 1_555
O1 Ta0 1.903030 1_645
O1 Ta1 2.082044 1_555
O2 Ta1 1.903030 1_555
O2 Ta0 2.082044 1_555
O3 Ta2 1.903030 1_665
O3 Ta3 2.082044 1_555
O4 Ta3 1.903030 1_555
O4 Ta2 2.082044 1_655
O5 Ta0 1.903030 1_545
O5 Ta1 2.082044 1_555
O6 Ta1 1.903030 1_555
O6 Ta0 2.082044 1_655
O7 Ta2 1.903030 1_565
O7 Ta3 2.082044 1_555
O8 Ta3 1.991034 1_555
O9 Ta0 1.991034 1_655
O10 Ta1 1.991034 1_555
O11 Ta2 1.991034 1_655
O12 Ta3 1.991034 1_555
O13 Ta0 1.991034 1_555
O14 Ta1 1.991034 1_555
O15 Ta2 1.991034 1_555
