# generated using pymatgen
data_Ba4Mg(CuO2)4
_symmetry_space_group_name_H-M   'P 1'
_cell_length_a   6.22767632
_cell_length_b   15.26247858
_cell_length_c   3.90697618
_cell_angle_alpha   88.64889320
_cell_angle_beta   80.46701334
_cell_angle_gamma   83.83275503
_symmetry_Int_Tables_number   1
_chemical_formula_structural   Ba4Mg(CuO2)4
_chemical_formula_sum   'Ba4 Mg1 Cu4 O8'
_cell_volume   364.10304781
_cell_formula_units_Z   1
loop_
 _symmetry_equiv_pos_site_id
 _symmetry_equiv_pos_as_xyz
  1  'x, y, z'
loop_
 _atom_site_type_symbol
 _atom_site_label
 _atom_site_symmetry_multiplicity
 _atom_site_fract_x
 _atom_site_fract_y
 _atom_site_fract_z
 _atom_site_occupancy
  Ba  Ba0  1  0.18230358  0.06254351  0.52952795  1
  Ba  Ba1  1  0.31804581  0.43778617  0.44987115  1
  Ba  Ba2  1  0.91740329  0.83590820  0.64030577  1
  Ba  Ba3  1  0.58292281  0.66446250  0.34031771  1
  Mg  Mg0  1  0.24979442  0.25029266  0.98919925  1
  Cu  Cu0  1  0.33501924  0.86697085  0.96691397  1
  Cu  Cu1  1  0.16524954  0.63337121  0.01316576  1
  Cu  Cu2  1  0.67976628  0.17658722  0.98863509  1
  Cu  Cu3  1  0.81987146  0.32395273  0.98824850  1
  O  O0  1  0.95750048  0.72063362  0.14680596  1
  O  O1  1  0.96746682  0.19367377  0.97871373  1
  O  O2  1  0.08379208  0.36766837  0.99317730  1
  O  O3  1  0.41546250  0.13290181  0.98614318  1
  O  O4  1  0.54296298  0.77966344  0.83390337  1
  O  O5  1  0.53216669  0.30723230  0.99648325  1
  O  O6  1  0.40420465  0.55429035  0.90444183  1
  O  O7  1  0.09606634  0.94606128  0.07557423  1
loop_
_geom_bond_atom_site_label_1
_geom_bond_atom_site_label_2
_geom_bond_distance
_geom_bond_site_symmetry_2
Ba0 O3 2.641039 1_554
Ba0 O7 2.695178 1_545
Ba0 O7 2.765350 1_546
Ba0 O1 2.772724 1_455
Ba0 O3 2.779846 1_555
Ba0 O1 3.256070 1_454
Ba1 O2 2.642332 1_555
Ba1 O6 2.696930 1_555
Ba1 O6 2.763755 1_554
Ba1 O5 2.774787 1_554
Ba1 O2 2.782971 1_554
Ba1 O5 3.237437 1_555
Ba2 O4 2.561642 1_555
Ba2 O0 2.604111 1_555
Ba2 O0 2.641749 1_556
Ba2 O7 2.849551 1_656
Ba2 O7 2.889026 1_655
Ba3 O0 2.561885 1_555
Ba3 O4 2.603678 1_555
Ba3 O4 2.640655 1_554
Ba3 O6 2.851532 1_554
Ba3 O6 2.887685 1_555
Mg0 O3 1.968364 1_555
Mg0 O2 1.968842 1_555
Mg0 O1 2.047397 1_455
Mg0 O5 2.048059 1_555
Cu0 O4 1.778117 1_555
Cu0 O7 1.811300 1_556
Cu1 O0 1.777393 1_455
Cu1 O6 1.811253 1_554
Cu2 O1 1.832112 1_555
Cu2 O3 1.842655 1_555
Cu2 O5 2.102740 1_555
Cu3 O5 1.831728 1_555
Cu3 O2 1.842204 1_655
Cu3 O1 2.097470 1_555
