# generated using pymatgen
data_Na6Ta3Al(SiO4)6
_symmetry_space_group_name_H-M   'P 1'
_cell_length_a   15.54918714
_cell_length_b   8.99450583
_cell_length_c   8.98800650
_cell_angle_alpha   90.53258876
_cell_angle_beta   124.78663014
_cell_angle_gamma   89.61869511
_symmetry_Int_Tables_number   1
_chemical_formula_structural   Na6Ta3Al(SiO4)6
_chemical_formula_sum   'Na12 Ta6 Al2 Si12 O48'
_cell_volume   1032.33706474
_cell_formula_units_Z   2
loop_
 _symmetry_equiv_pos_site_id
 _symmetry_equiv_pos_as_xyz
  1  'x, y, z'
loop_
 _atom_site_type_symbol
 _atom_site_label
 _atom_site_symmetry_multiplicity
 _atom_site_fract_x
 _atom_site_fract_y
 _atom_site_fract_z
 _atom_site_occupancy
  Na  Na0  1  0.24956829  0.74988350  0.99900775  1
  Na  Na1  1  0.74440095  0.74706700  0.48178438  1
  Na  Na2  1  0.74956829  0.24988350  0.99900775  1
  Na  Na3  1  0.24440095  0.24706700  0.48178438  1
  Na  Na4  1  0.50486550  0.10323031  0.76514241  1
  Na  Na5  1  0.49919244  0.87468590  0.23195815  1
  Na  Na6  1  0.00486550  0.60323031  0.76514241  1
  Na  Na7  1  0.99919244  0.37468590  0.23195815  1
  Na  Na8  1  0.80083868  0.93500287  0.21243235  1
  Na  Na9  1  0.18929327  0.06916019  0.80420908  1
  Na  Na10  1  0.30083868  0.43500287  0.21243235  1
  Na  Na11  1  0.68929327  0.56916019  0.80420908  1
  Ta  Ta0  1  0.10691598  0.75209478  0.56541974  1
  Ta  Ta1  1  0.89366567  0.75351310  0.92869838  1
  Ta  Ta2  1  0.89219691  0.25010981  0.43285533  1
  Ta  Ta3  1  0.60691598  0.25209478  0.56541974  1
  Ta  Ta4  1  0.39366567  0.25351310  0.92869838  1
  Ta  Ta5  1  0.39219691  0.75010981  0.43285533  1
  Al  Al0  1  0.10567917  0.24734043  0.06721902  1
  Al  Al1  1  0.60567917  0.74734043  0.06721902  1
  Si  Si0  1  0.99955735  0.96903863  0.75497939  1
  Si  Si1  1  0.00685690  0.04366050  0.25121724  1
  Si  Si2  1  0.49955735  0.46903863  0.75497939  1
  Si  Si3  1  0.50685690  0.54366050  0.25121724  1
  Si  Si4  1  0.36114223  0.88675996  0.76711206  1
  Si  Si5  1  0.64363744  0.89408284  0.75347906  1
  Si  Si6  1  0.64363698  0.10276690  0.24044965  1
  Si  Si7  1  0.35139478  0.10754401  0.25074029  1
  Si  Si8  1  0.86114223  0.38675996  0.76711206  1
  Si  Si9  1  0.14363744  0.39408284  0.75347906  1
  Si  Si10  1  0.14363698  0.60276690  0.24044965  1
  Si  Si11  1  0.85139478  0.60754401  0.25074029  1
  O  O0  1  0.14802180  0.57540708  0.73502031  1
  O  O1  1  0.84906561  0.57123862  0.76109270  1
  O  O2  1  0.85255446  0.42485838  0.26169664  1
  O  O3  1  0.15226372  0.42350677  0.23856721  1
  O  O4  1  0.64802180  0.07540708  0.73502031  1
  O  O5  1  0.34906561  0.07123862  0.76109270  1
  O  O6  1  0.35255446  0.92485838  0.26169664  1
  O  O7  1  0.65226372  0.92350677  0.23856721  1
  O  O8  1  0.42886200  0.56328848  0.56400276  1
  O  O9  1  0.57210468  0.57924675  0.92176807  1
  O  O10  1  0.57121317  0.43877637  0.43372401  1
  O  O11  1  0.43515379  0.42580197  0.08189964  1
  O  O12  1  0.92886200  0.06328848  0.56400276  1
  O  O13  1  0.07210468  0.07924675  0.92176807  1
  O  O14  1  0.07121317  0.93877637  0.43372401  1
  O  O15  1  0.93515379  0.92580197  0.08189964  1
  O  O16  1  0.25584346  0.82175274  0.74595786  1
  O  O17  1  0.74147536  0.81144684  0.76222944  1
  O  O18  1  0.74363927  0.17906262  0.25372942  1
  O  O19  1  0.25435463  0.19114960  0.23290878  1
  O  O20  1  0.75584346  0.32175274  0.74595786  1
  O  O21  1  0.24147536  0.31144684  0.76222944  1
  O  O22  1  0.24363927  0.67906262  0.25372942  1
  O  O23  1  0.75435463  0.69114960  0.23290878  1
  O  O24  1  0.36008785  0.84803881  0.58556789  1
  O  O25  1  0.64319990  0.86366356  0.92969061  1
  O  O26  1  0.63941870  0.15207438  0.41338970  1
  O  O27  1  0.35647064  0.14059781  0.07424216  1
  O  O28  1  0.86008785  0.34803881  0.58556789  1
  O  O29  1  0.14319990  0.36366356  0.92969061  1
  O  O30  1  0.13941870  0.65207438  0.41338970  1
  O  O31  1  0.85647064  0.64059781  0.07424216  1
  O  O32  1  0.46749517  0.82961164  0.94588835  1
  O  O33  1  0.53685056  0.82696426  0.56757125  1
  O  O34  1  0.53609062  0.16868390  0.05873846  1
  O  O35  1  0.46232004  0.17305791  0.43079930  1
  O  O36  1  0.96749517  0.32961164  0.94588835  1
  O  O37  1  0.03685056  0.32696426  0.56757125  1
  O  O38  1  0.03609062  0.66868390  0.05873846  1
  O  O39  1  0.96232004  0.67305791  0.43079930  1
  O  O40  1  0.08048076  0.85723772  0.74006657  1
  O  O41  1  0.91919205  0.85414501  0.76105432  1
  O  O42  1  0.91813067  0.14201823  0.25735635  1
  O  O43  1  0.08286855  0.15242982  0.23633394  1
  O  O44  1  0.58048076  0.35723772  0.74006657  1
  O  O45  1  0.41919205  0.35414501  0.76105432  1
  O  O46  1  0.41813067  0.64201823  0.25735635  1
  O  O47  1  0.58286855  0.65242982  0.23633394  1
loop_
_geom_bond_atom_site_label_1
_geom_bond_atom_site_label_2
_geom_bond_distance
_geom_bond_site_symmetry_2
Na0 O16 2.425231 1_555
Na0 O22 2.434036 1_556
Na0 O6 2.503216 1_556
Na0 O46 2.503273 1_556
Na0 O0 2.504921 1_555
Na0 O40 2.507479 1_555
Na1 O47 2.360305 1_555
Na1 O23 2.377751 1_555
Na1 O7 2.410490 1_555
Na1 O17 2.606602 1_555
Na1 O41 2.611608 1_555
Na1 O1 2.613360 1_555
Na2 O20 2.425231 1_555
Na2 O18 2.434036 1_556
Na2 O2 2.503216 1_556
Na2 O42 2.503273 1_556
Na2 O4 2.504921 1_555
Na2 O44 2.507479 1_555
Na3 O43 2.360305 1_555
Na3 O19 2.377751 1_555
Na3 O3 2.410490 1_555
Na3 O21 2.606602 1_555
Na3 O45 2.611608 1_555
Na3 O5 2.613360 1_555
Na4 O4 2.402045 1_555
Na4 O5 2.421032 1_555
Na4 O34 2.461465 1_556
Na4 O45 2.602891 1_555
Na4 O44 2.645868 1_555
Na4 O35 2.761117 1_555
Na4 O25 2.797285 1_545
Na4 O24 2.965693 1_545
Na5 O32 2.357037 1_554
Na5 O47 2.366260 1_555
Na5 O7 2.390291 1_555
Na5 O6 2.480610 1_555
Na5 O46 2.528371 1_555
Na5 O33 2.762539 1_555
Na6 O0 2.402045 1_555
Na6 O1 2.421032 1_455
Na6 O38 2.461465 1_556
Na6 O41 2.602891 1_455
Na6 O40 2.645868 1_555
Na6 O39 2.761117 1_455
Na6 O29 2.797285 1_555
Na6 O28 2.965693 1_455
Na7 O36 2.357037 1_554
Na7 O43 2.366260 1_655
Na7 O3 2.390291 1_655
Na7 O2 2.480610 1_555
Na7 O42 2.528371 1_555
Na7 O37 2.762539 1_655
Na8 O23 2.355297 1_555
Na8 O25 2.400204 1_554
Na8 O7 2.454756 1_555
Na8 O18 2.466426 1_565
Na8 O42 2.479367 1_565
Na8 O12 2.839800 1_565
Na8 O15 2.921794 1_555
Na9 O40 2.395391 1_545
Na9 O27 2.419721 1_556
Na9 O21 2.436799 1_555
Na9 O13 2.576429 1_555
Na9 O16 2.619698 1_545
Na9 O5 2.724284 1_555
Na9 O14 2.968940 1_545
Na10 O19 2.355297 1_555
Na10 O29 2.400204 1_554
Na10 O3 2.454756 1_555
Na10 O22 2.466426 1_555
Na10 O46 2.479367 1_555
Na10 O8 2.839800 1_555
Na10 O11 2.921794 1_555
Na11 O44 2.395391 1_555
Na11 O31 2.419721 1_556
Na11 O17 2.436799 1_555
Na11 O9 2.576429 1_555
Na11 O20 2.619698 1_555
Na11 O1 2.724284 1_555
Na11 O10 2.968940 1_555
Al0 O13 1.860785 1_554
Al0 O36 1.916695 1_454
Al0 O43 1.951486 1_555
Al0 O29 1.953986 1_554
Al0 O19 1.971716 1_555
Al0 O3 2.025900 1_555
Al1 O9 1.860785 1_554
Al1 O32 1.916695 1_554
Al1 O47 1.951486 1_555
Al1 O25 1.953986 1_554
Al1 O23 1.971716 1_555
Al1 O7 2.025900 1_555
O0 Si9 1.646662 1_555
O0 Ta0 2.043924 1_555
O1 Si8 1.666546 1_555
O1 Ta1 2.053124 1_555
O2 Si11 1.646392 1_555
O2 Ta2 2.041343 1_555
O3 Si10 1.617769 1_555
O4 Si5 1.646662 1_545
O4 Ta3 2.043924 1_555
O5 Si4 1.666546 1_545
O5 Ta4 2.053124 1_555
O6 Si7 1.646392 1_565
O6 Ta5 2.041343 1_555
O7 Si6 1.617769 1_565
O8 Si2 1.653791 1_555
O8 Ta5 1.948174 1_555
O9 Si2 1.600028 1_555
O10 Si3 1.650862 1_555
O10 Ta3 1.950241 1_555
O11 Si3 1.653024 1_555
O11 Ta4 1.916689 1_554
O12 Si0 1.653791 1_545
O12 Ta2 1.948174 1_555
O13 Si0 1.600028 1_445
O14 Si1 1.650862 1_565
O14 Ta0 1.950241 1_555
O15 Si1 1.653024 1_665
O15 Ta1 1.916689 1_554
O16 Si4 1.647507 1_555
O16 Ta0 2.025065 1_555
O17 Si5 1.650001 1_555
O17 Ta1 2.016978 1_555
O18 Si6 1.644373 1_555
O18 Ta2 2.023186 1_555
O19 Si7 1.605971 1_555
O20 Si8 1.647507 1_555
O20 Ta3 2.025065 1_555
O21 Si9 1.650001 1_555
O21 Ta4 2.016978 1_555
O22 Si10 1.644373 1_555
O22 Ta5 2.023186 1_555
O23 Si11 1.605971 1_555
O24 Si4 1.656220 1_555
O24 Ta5 1.913822 1_555
O25 Si5 1.613591 1_555
O26 Si6 1.649315 1_555
O26 Ta3 1.921205 1_555
O27 Si7 1.662264 1_555
O27 Ta4 1.993244 1_554
O28 Si8 1.656220 1_555
O28 Ta2 1.913822 1_555
O29 Si9 1.613591 1_555
O30 Si10 1.649315 1_555
O30 Ta0 1.921205 1_555
O31 Si11 1.662264 1_555
O31 Ta1 1.993244 1_554
O32 Si4 1.597781 1_555
O33 Si5 1.656000 1_555
O33 Ta5 1.975000 1_555
O34 Si6 1.644324 1_555
O34 Ta4 1.973137 1_554
O35 Si7 1.658921 1_555
O35 Ta3 1.981319 1_555
O36 Si8 1.597781 1_555
O37 Si9 1.656000 1_555
O37 Ta2 1.975000 1_455
O38 Si10 1.644324 1_555
O38 Ta1 1.973137 1_454
O39 Si11 1.658921 1_555
O39 Ta0 1.981319 1_655
O40 Si0 1.669007 1_455
O40 Ta0 2.056898 1_555
O41 Si0 1.651832 1_555
O41 Ta1 1.989917 1_555
O42 Si1 1.660953 1_655
O42 Ta2 2.070762 1_555
O43 Si1 1.603178 1_555
O44 Si2 1.669007 1_555
O44 Ta3 2.056898 1_555
O45 Si2 1.651832 1_555
O45 Ta4 1.989917 1_555
O46 Si3 1.660953 1_555
O46 Ta5 2.070762 1_555
O47 Si3 1.603178 1_555
