# generated using pymatgen
data_Cs2VF6
_symmetry_space_group_name_H-M   'P 1'
_cell_length_a   6.17963799
_cell_length_b   7.23785164
_cell_length_c   7.92885807
_cell_angle_alpha   90.00000000
_cell_angle_beta   112.93538700
_cell_angle_gamma   90.00000000
_symmetry_Int_Tables_number   1
_chemical_formula_structural   Cs2VF6
_chemical_formula_sum   'Cs4 V2 F12'
_cell_volume   326.60061790
_cell_formula_units_Z   2
loop_
 _symmetry_equiv_pos_site_id
 _symmetry_equiv_pos_as_xyz
  1  'x, y, z'
loop_
 _atom_site_type_symbol
 _atom_site_label
 _atom_site_symmetry_multiplicity
 _atom_site_fract_x
 _atom_site_fract_y
 _atom_site_fract_z
 _atom_site_occupancy
  Cs  Cs0  1  0.95361891  0.75000000  0.90723583  1
  Cs  Cs1  1  0.04638109  0.25000000  0.09276417  1
  Cs  Cs2  1  0.27169351  0.75000000  0.54338602  1
  Cs  Cs3  1  0.72830649  0.25000000  0.45661398  1
  V  V0  1  0.61508936  0.75000000  0.23017673  1
  V  V1  1  0.38491064  0.25000000  0.76982327  1
  F  F0  1  0.74137566  0.75000000  0.48275232  1
  F  F1  1  0.25862434  0.25000000  0.51724768  1
  F  F2  1  0.49239995  0.75000000  0.98480090  1
  F  F3  1  0.50760005  0.25000000  0.01519910  1
  F  F4  1  0.83758353  0.56956061  0.23650600  1
  F  F5  1  0.60107753  0.43043939  0.76349400  1
  F  F6  1  0.60107753  0.06956061  0.76349400  1
  F  F7  1  0.83758353  0.93043939  0.23650600  1
  F  F8  1  0.39892247  0.56956061  0.23650600  1
  F  F9  1  0.16241647  0.43043939  0.76349400  1
  F  F10  1  0.39892247  0.93043939  0.23650600  1
  F  F11  1  0.16241647  0.06956061  0.76349400  1
loop_
_geom_bond_atom_site_label_1
_geom_bond_atom_site_label_2
_geom_bond_distance
_geom_bond_site_symmetry_2
Cs0 F11 3.075643 1_665
Cs0 F9 3.075643 1_655
Cs0 F6 3.075650 1_565
Cs0 F5 3.075650 1_555
Cs0 F0 3.099596 1_555
Cs0 F2 3.141292 1_655
Cs0 F2 3.141310 1_555
Cs0 F8 3.239558 1_656
Cs0 F10 3.239558 1_656
Cs0 F4 3.239565 1_556
Cs0 F7 3.239565 1_556
Cs1 F7 3.075643 1_445
Cs1 F4 3.075643 1_455
Cs1 F8 3.075650 1_555
Cs1 F10 3.075650 1_545
Cs1 F1 3.099596 1_555
Cs1 F3 3.141292 1_455
Cs1 F3 3.141310 1_555
Cs1 F5 3.239558 1_454
Cs1 F6 3.239558 1_454
Cs1 F11 3.239565 1_554
Cs1 F9 3.239565 1_554
Cs2 F10 3.120142 1_555
Cs2 F8 3.120142 1_555
Cs2 F4 3.120146 1_455
Cs2 F7 3.120146 1_455
Cs2 F0 3.121373 1_555
Cs2 F0 3.121385 1_455
Cs2 F6 3.125688 1_565
Cs2 F5 3.125688 1_555
Cs2 F11 3.125690 1_565
Cs2 F9 3.125690 1_555
Cs2 F2 3.223230 1_555
Cs3 F5 3.120142 1_555
Cs3 F6 3.120142 1_555
Cs3 F11 3.120146 1_655
Cs3 F9 3.120146 1_655
Cs3 F1 3.121373 1_555
Cs3 F1 3.121385 1_655
Cs3 F8 3.125688 1_555
Cs3 F10 3.125688 1_545
Cs3 F4 3.125690 1_555
Cs3 F7 3.125690 1_545
Cs3 F3 3.223230 1_555
F0 V0 1.844317 1_555
F1 V1 1.844317 1_555
F2 V0 1.791744 1_556
F3 V1 1.791744 1_554
F4 V0 1.882765 1_555
F5 V1 1.882773 1_555
F6 V1 1.882773 1_555
F7 V0 1.882765 1_555
F8 V0 1.882773 1_555
F9 V1 1.882765 1_555
F10 V0 1.882773 1_555
F11 V1 1.882765 1_555
