# generated using pymatgen
data_Ga3Bi5Cl12
_symmetry_space_group_name_H-M   'P 1'
_cell_length_a   12.22153651
_cell_length_b   12.22153651
_cell_length_c   12.22153664
_cell_angle_alpha   58.18940720
_cell_angle_beta   58.18940720
_cell_angle_gamma   58.18940156
_symmetry_Int_Tables_number   1
_chemical_formula_structural   Ga3Bi5Cl12
_chemical_formula_sum   'Ga6 Bi10 Cl24'
_cell_volume   1237.25426711
_cell_formula_units_Z   2
loop_
 _symmetry_equiv_pos_site_id
 _symmetry_equiv_pos_as_xyz
  1  'x, y, z'
loop_
 _atom_site_type_symbol
 _atom_site_label
 _atom_site_symmetry_multiplicity
 _atom_site_fract_x
 _atom_site_fract_y
 _atom_site_fract_z
 _atom_site_occupancy
  Ga  Ga0  1  0.22502830  0.74997809  0.27595754  1
  Ga  Ga1  1  0.74997809  0.27595754  0.22502830  1
  Ga  Ga2  1  0.72502830  0.77595754  0.24997809  1
  Ga  Ga3  1  0.27595754  0.22502830  0.74997809  1
  Ga  Ga4  1  0.24997809  0.72502830  0.77595754  1
  Ga  Ga5  1  0.77595754  0.24997809  0.72502830  1
  Bi  Bi0  1  0.40906438  0.25006755  0.09082545  1
  Bi  Bi1  1  0.90906438  0.59082545  0.75006755  1
  Bi  Bi2  1  0.17181931  0.17181931  0.17181931  1
  Bi  Bi3  1  0.67181931  0.67181931  0.67181931  1
  Bi  Bi4  1  0.59082545  0.75006755  0.90906438  1
  Bi  Bi5  1  0.82808787  0.82808787  0.82808787  1
  Bi  Bi6  1  0.32808787  0.32808787  0.32808787  1
  Bi  Bi7  1  0.09082545  0.40906438  0.25006755  1
  Bi  Bi8  1  0.75006755  0.90906438  0.59082545  1
  Bi  Bi9  1  0.25006755  0.09082545  0.40906438  1
  Cl  Cl0  1  0.07217630  0.69196343  0.96313481  1
  Cl  Cl1  1  0.46313481  0.19196343  0.57217630  1
  Cl  Cl2  1  0.19196343  0.57217630  0.46313481  1
  Cl  Cl3  1  0.30432749  0.89075369  0.73304258  1
  Cl  Cl4  1  0.60950222  0.19639265  0.76843395  1
  Cl  Cl5  1  0.69196343  0.96313481  0.07217630  1
  Cl  Cl6  1  0.73304258  0.30432749  0.89075369  1
  Cl  Cl7  1  0.19639265  0.76843395  0.60950222  1
  Cl  Cl8  1  0.80883449  0.42771981  0.53754109  1
  Cl  Cl9  1  0.69639265  0.10950222  0.26843395  1
  Cl  Cl10  1  0.96313481  0.07217630  0.69196343  1
  Cl  Cl11  1  0.53754109  0.80883449  0.42771981  1
  Cl  Cl12  1  0.92771981  0.30883449  0.03754109  1
  Cl  Cl13  1  0.30883449  0.03754109  0.92771981  1
  Cl  Cl14  1  0.26843395  0.69639265  0.10950222  1
  Cl  Cl15  1  0.80432749  0.23304258  0.39075369  1
  Cl  Cl16  1  0.23304258  0.39075369  0.80432749  1
  Cl  Cl17  1  0.76843395  0.60950222  0.19639265  1
  Cl  Cl18  1  0.10950222  0.26843395  0.69639265  1
  Cl  Cl19  1  0.03754109  0.92771981  0.30883449  1
  Cl  Cl20  1  0.57217630  0.46313481  0.19196343  1
  Cl  Cl21  1  0.42771981  0.53754109  0.80883449  1
  Cl  Cl22  1  0.89075369  0.73304258  0.30432749  1
  Cl  Cl23  1  0.39075369  0.80432749  0.23304258  1
loop_
_geom_bond_atom_site_label_1
_geom_bond_atom_site_label_2
_geom_bond_distance
_geom_bond_site_symmetry_2
Cl0 Ga4 2.197505 1_555
Cl1 Ga3 2.197505 1_555
Cl2 Ga0 2.197505 1_555
Cl3 Ga4 2.179389 1_555
Cl4 Ga5 2.179315 1_555
Cl5 Ga2 2.197505 1_555
Cl6 Ga5 2.179389 1_555
Cl7 Ga4 2.179315 1_555
Cl8 Ga5 2.198360 1_555
Cl9 Ga1 2.179315 1_555
Cl10 Ga5 2.197504 1_555
Cl11 Ga2 2.198360 1_555
Cl12 Ga1 2.198360 1_555
Cl13 Ga3 2.198360 1_555
Cl14 Ga0 2.179315 1_555
Cl15 Ga1 2.179389 1_555
Cl16 Ga3 2.179389 1_555
Cl17 Ga2 2.179315 1_555
Cl18 Ga3 2.179315 1_555
Cl19 Ga0 2.198360 1_555
Cl20 Ga1 2.197504 1_555
Cl21 Ga4 2.198360 1_555
Cl22 Ga2 2.179389 1_555
Cl23 Ga0 2.179389 1_555
