# generated using pymatgen
data_NaZnSn3P3(SO8)3
_symmetry_space_group_name_H-M   'P 1'
_cell_length_a   8.76645316
_cell_length_b   8.76289816
_cell_length_c   22.71624887
_cell_angle_alpha   90.30788270
_cell_angle_beta   89.95317655
_cell_angle_gamma   120.15488135
_symmetry_Int_Tables_number   1
_chemical_formula_structural   NaZnSn3P3(SO8)3
_chemical_formula_sum   'Na3 Zn3 Sn9 P9 S9 O72'
_cell_volume   1508.86962544
_cell_formula_units_Z   3
loop_
 _symmetry_equiv_pos_site_id
 _symmetry_equiv_pos_as_xyz
  1  'x, y, z'
loop_
 _atom_site_type_symbol
 _atom_site_label
 _atom_site_symmetry_multiplicity
 _atom_site_fract_x
 _atom_site_fract_y
 _atom_site_fract_z
 _atom_site_occupancy
  Na  Na0  1  0.66291744  0.33284767  0.83242812  1
  Na  Na1  1  0.66958320  0.33262139  0.33197774  1
  Na  Na2  1  0.33255271  0.66960769  0.16696083  1
  Zn  Zn0  1  0.65709235  0.33904999  0.68521881  1
  Zn  Zn1  1  0.67319861  0.33219327  0.18095372  1
  Zn  Zn2  1  0.33151508  0.67331625  0.31780019  1
  Sn  Sn0  1  0.99506795  0.99368011  0.35560973  1
  Sn  Sn1  1  0.00539516  0.00447193  0.85654185  1
  Sn  Sn2  1  0.99935088  0.99981812  0.64645125  1
  Sn  Sn3  1  0.99448660  0.99549006  0.14341776  1
  Sn  Sn4  1  0.67253028  0.33433787  0.98122993  1
  Sn  Sn5  1  0.67383567  0.33879045  0.48199608  1
  Sn  Sn6  1  0.33328845  0.67237998  0.01802855  1
  Sn  Sn7  1  0.33947733  0.67222211  0.51870905  1
  Sn  Sn8  1  0.33316940  0.66066536  0.81456060  1
  P  P0  1  0.29248195  0.29002112  0.75009025  1
  P  P1  1  0.66485022  0.62279297  0.58488127  1
  P  P2  1  0.95671253  0.62068063  0.08496573  1
  P  P3  1  0.66456613  0.04397457  0.08486980  1
  P  P4  1  0.62488464  0.66631489  0.91690620  1
  P  P5  1  0.04327115  0.37755412  0.91682285  1
  P  P6  1  0.33483375  0.95772515  0.91588835  1
  P  P7  1  0.62192882  0.95755517  0.41528886  1
  P  P8  1  0.04601009  0.66589029  0.41552291  1
  S  S0  1  0.29259048  0.00143578  0.24975680  1
  S  S1  1  0.70437091  0.70433749  0.24979249  1
  S  S2  1  0.00119072  0.29246420  0.25027446  1
  S  S3  1  0.99951927  0.70712212  0.75047342  1
  S  S4  1  0.70799299  0.00190740  0.75041127  1
  S  S5  1  0.95856000  0.33516447  0.58515307  1
  S  S6  1  0.37776443  0.04375765  0.58446941  1
  S  S7  1  0.37763170  0.33473249  0.08463958  1
  S  S8  1  0.33379178  0.37696475  0.41522499  1
  O  O0  1  0.21058756  0.03393185  0.30373776  1
  O  O1  1  0.81992686  0.78637862  0.30322397  1
  O  O2  1  0.96932902  0.17798646  0.30377940  1
  O  O3  1  0.20551277  0.17235148  0.80475759  1
  O  O4  1  0.96649548  0.78792191  0.80337533  1
  O  O5  1  0.81971887  0.03130606  0.80345355  1
  O  O6  1  0.78417443  0.96442526  0.69687425  1
  O  O7  1  0.17212627  0.20810660  0.69433749  1
  O  O8  1  0.03456106  0.81942929  0.69706469  1
  O  O9  1  0.78709940  0.82033796  0.19724902  1
  O  O10  1  0.03353157  0.20992136  0.19669567  1
  O  O11  1  0.17734737  0.96905072  0.19653497  1
  O  O12  1  0.88020863  0.36484019  0.63661245  1
  O  O13  1  0.48641326  0.11898351  0.63605391  1
  O  O14  1  0.63343106  0.51056139  0.63790853  1
  O  O15  1  0.87965325  0.51208249  0.13942397  1
  O  O16  1  0.62832506  0.11878002  0.13936049  1
  O  O17  1  0.48380073  0.36693384  0.13703470  1
  O  O18  1  0.44952737  0.30032533  0.02988805  1
  O  O19  1  0.84468079  0.54730813  0.02807151  1
  O  O20  1  0.69913964  0.15349396  0.02796382  1
  O  O21  1  0.45093827  0.15101444  0.52956195  1
  O  O22  1  0.70159045  0.54666171  0.52751591  1
  O  O23  1  0.84966395  0.29706666  0.53017156  1
  O  O24  1  0.54484058  0.70024752  0.97204051  1
  O  O25  1  0.15774188  0.45584905  0.97206003  1
  O  O26  1  0.29881863  0.84540745  0.97103765  1
  O  O27  1  0.54836309  0.84709456  0.47207191  1
  O  O28  1  0.29955813  0.44870406  0.47019428  1
  O  O29  1  0.15528936  0.69865691  0.47311037  1
  O  O30  1  0.12003015  0.62844154  0.36122477  1
  O  O31  1  0.51179493  0.88056078  0.36089187  1
  O  O32  1  0.36706330  0.48379583  0.36335285  1
  O  O33  1  0.11919605  0.49162797  0.86115970  1
  O  O34  1  0.37088923  0.87839064  0.86002965  1
  O  O35  1  0.51083082  0.62976311  0.86105486  1
  O  O36  1  0.02506605  0.83092557  0.40964780  1
  O  O37  1  0.80919085  0.98148060  0.40938666  1
  O  O38  1  0.17507059  0.19803767  0.40956462  1
  O  O39  1  0.02317964  0.19503520  0.90912527  1
  O  O40  1  0.17030222  0.97397418  0.90868274  1
  O  O41  1  0.80675267  0.83033842  0.90758173  1
  O  O42  1  0.97728167  0.17506293  0.58988968  1
  O  O43  1  0.19867618  0.02385948  0.58979288  1
  O  O44  1  0.83211345  0.81085756  0.59129912  1
  O  O45  1  0.98017814  0.80828453  0.09067428  1
  O  O46  1  0.83075137  0.02463587  0.09074422  1
  O  O47  1  0.19860854  0.17532774  0.09041654  1
  O  O48  1  0.69275455  0.15879502  0.74312232  1
  O  O49  1  0.47275456  0.30695885  0.74422282  1
  O  O50  1  0.84427650  0.53254454  0.74376141  1
  O  O51  1  0.69145841  0.53182021  0.24368681  1
  O  O52  1  0.84148740  0.30513883  0.24495170  1
  O  O53  1  0.46539052  0.16156949  0.24424717  1
  O  O54  1  0.64160690  0.49922328  0.92348196  1
  O  O55  1  0.85856323  0.35818566  0.92213967  1
  O  O56  1  0.49990349  0.14343872  0.92304125  1
  O  O57  1  0.64236012  0.14513648  0.42474312  1
  O  O58  1  0.49194085  0.35512406  0.42340758  1
  O  O59  1  0.85665951  0.50096901  0.42325251  1
  O  O60  1  0.35648429  0.49284775  0.07703182  1
  O  O61  1  0.14368328  0.64212132  0.07697888  1
  O  O62  1  0.50103308  0.85444394  0.07710950  1
  O  O63  1  0.35539343  0.86492909  0.57603989  1
  O  O64  1  0.50052999  0.64293492  0.57438283  1
  O  O65  1  0.13604433  0.49270610  0.57518502  1
  O  O66  1  0.30484667  0.84123668  0.25531075  1
  O  O67  1  0.53201664  0.69180177  0.25647435  1
  O  O68  1  0.16183147  0.46554730  0.25632852  1
  O  O69  1  0.30526730  0.47219357  0.75719973  1
  O  O70  1  0.16217884  0.69607024  0.75721363  1
  O  O71  1  0.53241830  0.84015025  0.75701930  1
loop_
_geom_bond_atom_site_label_1
_geom_bond_atom_site_label_2
_geom_bond_distance
_geom_bond_site_symmetry_2
Na0 O49 2.542821 1_555
Na0 O54 2.584445 1_555
Na0 O56 2.585134 1_555
Na0 O55 2.600435 1_555
Na0 O48 2.622394 1_555
Na0 O50 2.623796 1_555
Na1 O52 2.567451 1_555
Na1 O53 2.588579 1_555
Na1 O59 2.589775 1_555
Na1 O51 2.609028 1_555
Na1 O57 2.615190 1_555
Na1 O58 2.660182 1_555
Na2 O61 2.564593 1_555
Na2 O62 2.568671 1_555
Na2 O66 2.585080 1_555
Na2 O67 2.624891 1_555
Na2 O68 2.627550 1_555
Na2 O60 2.628346 1_555
O0 S0 1.517240 1_555
O0 Sn0 2.100905 1_445
O1 S1 1.509044 1_555
O1 Sn0 2.061791 1_555
O2 S2 1.514152 1_655
O2 Sn0 2.105367 1_545
O3 P0 1.552110 1_555
O3 Sn1 2.011951 1_555
O4 S3 1.491817 1_555
O4 Sn1 2.121733 1_665
O5 S4 1.490838 1_555
O5 Sn1 2.133056 1_655
O6 S4 1.499232 1_565
O6 Sn2 2.092594 1_555
O7 P0 1.569711 1_555
O7 Sn2 2.003172 1_445
O8 S3 1.497781 1_455
O8 Sn2 2.103857 1_455
O9 S1 1.501623 1_555
O9 Sn3 2.090324 1_555
O10 S2 1.510273 1_555
O10 Sn3 2.107788 1_445
O11 S0 1.507692 1_565
O11 Sn3 2.111554 1_455
O12 S5 1.442482 1_555
O12 Zn0 2.156612 1_555
O13 S6 1.441382 1_555
O13 Zn0 2.070167 1_555
O14 P1 1.494704 1_555
O14 Zn0 1.946222 1_555
O15 P2 1.502583 1_555
O15 Zn1 1.948687 1_555
O16 P3 1.504232 1_555
O16 Zn1 1.946105 1_555
O17 S7 1.448048 1_555
O17 Zn1 2.087721 1_555
O18 S7 1.490190 1_555
O18 Sn4 2.132372 1_554
O19 P2 1.551464 1_555
O19 Sn4 2.011040 1_554
O20 P3 1.550614 1_555
O20 Sn4 2.020559 1_554
O21 S6 1.502053 1_555
O21 Sn5 2.116272 1_555
O22 P1 1.566136 1_555
O22 Sn5 1.995342 1_555
O23 S5 1.503325 1_555
O23 Sn5 2.068927 1_555
O24 P4 1.534147 1_555
O24 Sn6 2.033458 1_556
O25 P5 1.534049 1_555
O25 Sn6 2.026483 1_556
O26 P6 1.529139 1_555
O26 Sn6 2.001984 1_556
O27 P7 1.549702 1_555
O27 Sn7 2.004718 1_555
O28 S8 1.491642 1_555
O28 Sn7 2.112390 1_555
O29 P8 1.559859 1_555
O29 Sn7 2.028516 1_555
O30 P8 1.502807 1_555
O30 Zn2 1.957969 1_555
O31 P7 1.500950 1_555
O31 Zn2 1.963127 1_555
O32 S8 1.444611 1_555
O32 Zn2 2.113040 1_555
O33 P5 1.544299 1_555
O33 Sn8 2.013784 1_555
O34 P6 1.550467 1_555
O34 Sn8 2.040058 1_555
O35 P4 1.545292 1_555
O35 Sn8 2.010971 1_555
O36 P8 1.553018 1_555
O36 Sn0 2.001555 1_455
O37 P7 1.552745 1_555
O37 Sn0 1.995523 1_555
O38 S8 1.489041 1_555
O38 Sn0 2.083183 1_445
O39 P5 1.527640 1_555
O39 Sn1 1.989210 1_555
O40 P6 1.527886 1_555
O40 Sn1 1.989621 1_565
O41 P4 1.533980 1_555
O41 Sn1 2.012762 1_665
O42 S5 1.496588 1_555
O42 Sn2 2.089651 1_545
O43 S6 1.494897 1_555
O43 Sn2 2.093713 1_445
O44 P1 1.567541 1_555
O44 Sn2 2.000647 1_555
O45 P2 1.555542 1_555
O45 Sn3 1.978577 1_555
O46 P3 1.554848 1_555
O46 Sn3 1.982842 1_545
O47 S7 1.493514 1_555
O47 Sn3 2.078176 1_445
O48 S4 1.456814 1_555
O48 Zn0 2.200457 1_555
O49 P0 1.517074 1_555
O49 Zn0 2.007732 1_555
O50 S3 1.456645 1_555
O50 Zn0 2.126073 1_555
O51 S1 1.463998 1_555
O51 Zn1 2.192889 1_555
O52 S2 1.464134 1_655
O52 Zn1 2.169060 1_555
O53 S0 1.464731 1_555
O53 Zn1 2.214444 1_555
O54 P4 1.551045 1_555
O54 Sn4 2.072797 1_555
O55 P5 1.545672 1_655
O55 Sn4 2.040139 1_555
O56 P6 1.549321 1_545
O56 Sn4 2.066850 1_555
O57 P7 1.574997 1_545
O57 Sn5 2.038079 1_555
O58 S8 1.503559 1_555
O58 Sn5 2.137589 1_555
O59 P8 1.570634 1_655
O59 Sn5 2.024257 1_555
O60 S7 1.498222 1_555
O60 Sn6 2.158097 1_555
O61 P2 1.563731 1_455
O61 Sn6 2.045423 1_555
O62 P3 1.565191 1_565
O62 Sn6 2.032768 1_555
O63 S6 1.489587 1_565
O63 Sn7 2.075359 1_555
O64 P1 1.555487 1_555
O64 Sn7 2.007267 1_555
O65 S5 1.490883 1_455
O65 Sn7 2.121403 1_555
O66 S0 1.466834 1_565
O66 Zn2 2.145587 1_555
O67 S1 1.466658 1_555
O67 Zn2 2.183754 1_555
O68 S2 1.467878 1_555
O68 Zn2 2.175454 1_555
O69 P0 1.550646 1_555
O69 Sn8 2.014169 1_555
O70 S3 1.485062 1_455
O70 Sn8 2.124856 1_555
O71 S4 1.486862 1_565
O71 Sn8 2.119328 1_555
