# generated using pymatgen
data_Na3Sc2In2P3(SO8)3
_symmetry_space_group_name_H-M   'P 1'
_cell_length_a   8.92974228
_cell_length_b   8.93754104
_cell_length_c   23.21125384
_cell_angle_alpha   89.46200179
_cell_angle_beta   90.42528379
_cell_angle_gamma   120.16385794
_symmetry_Int_Tables_number   1
_chemical_formula_structural   Na3Sc2In2P3(SO8)3
_chemical_formula_sum   'Na9 Sc6 In6 P9 S9 O72'
_cell_volume   1601.56837277
_cell_formula_units_Z   3
loop_
 _symmetry_equiv_pos_site_id
 _symmetry_equiv_pos_as_xyz
  1  'x, y, z'
loop_
 _atom_site_type_symbol
 _atom_site_label
 _atom_site_symmetry_multiplicity
 _atom_site_fract_x
 _atom_site_fract_y
 _atom_site_fract_z
 _atom_site_occupancy
  Na  Na0  1  0.36005247  0.36023704  0.25116741  1
  Na  Na1  1  0.69197366  0.02509258  0.91672236  1
  Na  Na2  1  0.97462127  0.30639063  0.41674396  1
  Na  Na3  1  0.00431636  0.99833086  0.50003840  1
  Na  Na4  1  0.00124509  0.99411309  0.00058540  1
  Na  Na5  1  0.66195821  0.33484865  0.83309483  1
  Na  Na6  1  0.66635323  0.33371845  0.33320071  1
  Na  Na7  1  0.33261871  0.67725465  0.16634087  1
  Na  Na8  1  0.33335381  0.66680560  0.66667151  1
  Sc  Sc0  1  0.01373922  0.00211000  0.35087287  1
  Sc  Sc1  1  0.99972983  0.00498939  0.14882318  1
  Sc  Sc2  1  0.67092710  0.31687423  0.18491135  1
  Sc  Sc3  1  0.66048578  0.33207528  0.98172851  1
  Sc  Sc4  1  0.66855380  0.33952021  0.48123534  1
  Sc  Sc5  1  0.31999676  0.66457057  0.31498934  1
  In  In0  1  0.99919639  0.99345130  0.85036732  1
  In  In1  1  0.99357072  0.00575668  0.64851250  1
  In  In2  1  0.67305421  0.32725601  0.68399564  1
  In  In3  1  0.34221946  0.67842962  0.01796403  1
  In  In4  1  0.32273856  0.65748627  0.51686424  1
  In  In5  1  0.34522012  0.67678843  0.81634604  1
  P  P0  1  0.29066320  0.99840252  0.24872933  1
  P  P1  1  0.99878505  0.28962149  0.25082112  1
  P  P2  1  0.70595441  0.00000802  0.75069958  1
  P  P3  1  0.95990709  0.33384199  0.58224436  1
  P  P4  1  0.66880397  0.04115513  0.08250994  1
  P  P5  1  0.62640091  0.66260512  0.91705908  1
  P  P6  1  0.33073220  0.96120150  0.91679540  1
  P  P7  1  0.33648538  0.37489976  0.41543673  1
  P  P8  1  0.04000368  0.66947441  0.41676733  1
  S  S0  1  0.70867098  0.70852685  0.24988751  1
  S  S1  1  0.29570811  0.29551945  0.74980469  1
  S  S2  1  0.00022057  0.70542107  0.74904620  1
  S  S3  1  0.37307730  0.03978907  0.58294661  1
  S  S4  1  0.66624845  0.62493911  0.58345720  1
  S  S5  1  0.95707703  0.62420728  0.08347852  1
  S  S6  1  0.37478709  0.33356708  0.08416271  1
  S  S7  1  0.04121133  0.37559325  0.91698352  1
  S  S8  1  0.62530573  0.95764345  0.41666936  1
  O  O0  1  0.20956909  0.03236431  0.30242439  1
  O  O1  1  0.81514747  0.78790849  0.30185088  1
  O  O2  1  0.97061787  0.18117321  0.30612931  1
  O  O3  1  0.21930362  0.18831704  0.80232006  1
  O  O4  1  0.97243856  0.78105583  0.80156434  1
  O  O5  1  0.81442691  0.03171085  0.80668871  1
  O  O6  1  0.78642019  0.96818474  0.69713711  1
  O  O7  1  0.19048402  0.21697139  0.69725738  1
  O  O8  1  0.03057902  0.81399943  0.69681375  1
  O  O9  1  0.78877072  0.81553934  0.19788598  1
  O  O10  1  0.03148579  0.20570069  0.19795190  1
  O  O11  1  0.17689362  0.97205100  0.19550491  1
  O  O12  1  0.88133081  0.36482366  0.63639768  1
  O  O13  1  0.47535573  0.11592005  0.63618965  1
  O  O14  1  0.63656602  0.51962725  0.63642388  1
  O  O15  1  0.87449018  0.51760659  0.13559788  1
  O  O16  1  0.64232455  0.12970031  0.13543425  1
  O  O17  1  0.48035089  0.36020103  0.13684779  1
  O  O18  1  0.45702920  0.30957378  0.03250474  1
  O  O19  1  0.85108121  0.54391272  0.03125456  1
  O  O20  1  0.69396462  0.15101450  0.02747530  1
  O  O21  1  0.45549795  0.14928008  0.53146128  1
  O  O22  1  0.68969152  0.54187879  0.53195203  1
  O  O23  1  0.84814206  0.30799128  0.52753988  1
  O  O24  1  0.54916185  0.70169235  0.97028298  1
  O  O25  1  0.14732782  0.45169839  0.96926785  1
  O  O26  1  0.29588877  0.84883630  0.97104210  1
  O  O27  1  0.55084634  0.85379804  0.46973793  1
  O  O28  1  0.29736522  0.45039361  0.46908192  1
  O  O29  1  0.15092216  0.70455749  0.47116116  1
  O  O30  1  0.12331858  0.63322434  0.36417479  1
  O  O31  1  0.51682007  0.87721977  0.36516915  1
  O  O32  1  0.36356420  0.48555904  0.36050799  1
  O  O33  1  0.11633413  0.48013908  0.86408451  1
  O  O34  1  0.37082428  0.88667572  0.86309868  1
  O  O35  1  0.51586196  0.62775165  0.86230549  1
  O  O36  1  0.01498847  0.82586766  0.40815003  1
  O  O37  1  0.80218156  0.98226835  0.40988574  1
  O  O38  1  0.16683720  0.19521950  0.40897594  1
  O  O39  1  0.01791873  0.19809219  0.91161601  1
  O  O40  1  0.17167429  0.98468601  0.91035010  1
  O  O41  1  0.80535579  0.83411301  0.91145454  1
  O  O42  1  0.97633710  0.16848500  0.58625284  1
  O  O43  1  0.19802685  0.02162230  0.58848054  1
  O  O44  1  0.82693297  0.79761574  0.58784437  1
  O  O45  1  0.97637386  0.79860552  0.08964089  1
  O  O46  1  0.83160882  0.02365612  0.09062962  1
  O  O47  1  0.20113759  0.17535371  0.08949029  1
  O  O48  1  0.68781075  0.16380845  0.74605941  1
  O  O49  1  0.47048360  0.31448198  0.74375746  1
  O  O50  1  0.84041974  0.53296862  0.74397912  1
  O  O51  1  0.68463671  0.53137629  0.24299751  1
  O  O52  1  0.84057688  0.31417001  0.24319528  1
  O  O53  1  0.46982154  0.16954416  0.24247210  1
  O  O54  1  0.64935349  0.50435135  0.92520901  1
  O  O55  1  0.86447840  0.35296161  0.92324953  1
  O  O56  1  0.50083579  0.13980394  0.92436236  1
  O  O57  1  0.64661813  0.13473557  0.42270086  1
  O  O58  1  0.49585470  0.35278881  0.42381096  1
  O  O59  1  0.86134380  0.49817182  0.42340111  1
  O  O60  1  0.35428173  0.48843403  0.07785197  1
  O  O61  1  0.13101904  0.63895208  0.07836127  1
  O  O62  1  0.50295189  0.85949465  0.08020898  1
  O  O63  1  0.35859099  0.86722254  0.57741035  1
  O  O64  1  0.51248829  0.64678856  0.57714713  1
  O  O65  1  0.14284421  0.49723355  0.57891664  1
  O  O66  1  0.31478093  0.84067172  0.25717229  1
  O  O67  1  0.53193690  0.68654784  0.25615501  1
  O  O68  1  0.16827996  0.46985844  0.25640240  1
  O  O69  1  0.30818118  0.46708116  0.75541246  1
  O  O70  1  0.15511217  0.68545497  0.75532644  1
  O  O71  1  0.52372769  0.83557851  0.75380625  1
loop_
_geom_bond_atom_site_label_1
_geom_bond_atom_site_label_2
_geom_bond_distance
_geom_bond_site_symmetry_2
Na0 O53 2.365276 1_555
Na0 O68 2.366152 1_555
Na0 O51 2.514749 1_555
Na0 O67 2.525855 1_555
Na0 O32 2.777327 1_555
Na0 O0 2.794516 1_555
Na0 O10 2.819149 1_555
Na0 O17 2.870144 1_555
Na1 O41 2.386631 1_545
Na1 O56 2.400463 1_555
Na1 O39 2.520998 1_655
Na1 O55 2.539947 1_555
Na1 O5 2.774135 1_555
Na1 O34 2.777486 1_545
Na1 O24 2.788920 1_545
Na1 O20 2.812300 1_556
Na2 O38 2.384901 1_655
Na2 O59 2.394738 1_555
Na2 O37 2.512065 1_545
Na2 O57 2.537316 1_555
Na2 O28 2.772739 1_655
Na2 O30 2.800712 1_655
Na2 O2 2.803251 1_555
Na2 O23 2.819496 1_555
Na3 O42 2.612686 1_465
Na3 O43 2.615939 1_565
Na3 O44 2.646616 1_455
Na3 O38 2.660751 1_565
Na3 O36 2.673273 1_555
Na3 O37 2.710467 1_455
Na4 O41 2.621619 1_454
Na4 O40 2.624798 1_554
Na4 O45 2.631431 1_455
Na4 O47 2.677850 1_565
Na4 O46 2.681780 1_465
Na4 O39 2.696561 1_564
Na5 O48 2.625060 1_555
Na5 O49 2.626451 1_555
Na5 O56 2.655568 1_555
Na5 O50 2.664209 1_555
Na5 O54 2.667372 1_555
Na5 O55 2.707706 1_555
Na6 O59 2.647140 1_555
Na6 O53 2.661427 1_555
Na6 O58 2.661858 1_555
Na6 O57 2.670310 1_555
Na6 O52 2.672774 1_555
Na6 O51 2.678976 1_555
Na7 O62 2.541196 1_555
Na7 O61 2.620591 1_555
Na7 O66 2.626815 1_555
Na7 O68 2.683005 1_555
Na7 O67 2.705619 1_555
Na7 O60 2.739181 1_555
Na8 O71 2.585553 1_555
Na8 O65 2.599128 1_555
Na8 O69 2.648440 1_555
Na8 O63 2.661483 1_555
Na8 O70 2.667830 1_555
Na8 O64 2.693083 1_555
In0 O5 2.098272 1_565
In0 O40 2.098596 1_655
In0 O4 2.127049 1_555
In0 O41 2.134473 1_555
In0 O3 2.167061 1_665
In0 O39 2.265450 1_665
In1 O6 2.051338 1_545
In1 O42 2.099875 1_555
In1 O7 2.147181 1_655
In1 O8 2.197952 1_645
In1 O44 2.212254 1_545
In1 O43 2.251429 1_655
In2 O12 2.046553 1_555
In2 O48 2.092303 1_555
In2 O13 2.138885 1_555
In2 O14 2.191687 1_555
In2 O50 2.192763 1_555
In2 O49 2.244120 1_555
In3 O26 2.066955 1_554
In3 O24 2.079162 1_554
In3 O62 2.108368 1_555
In3 O25 2.209621 1_554
In3 O60 2.228159 1_555
In3 O61 2.237835 1_555
In4 O29 2.066995 1_555
In4 O28 2.078608 1_555
In4 O65 2.095198 1_555
In4 O27 2.197620 1_555
In4 O64 2.227816 1_555
In4 O63 2.242999 1_555
In5 O35 2.071290 1_555
In5 O34 2.086227 1_555
In5 O71 2.093916 1_555
In5 O33 2.209376 1_555
In5 O70 2.233452 1_555
In5 O69 2.245552 1_555
O0 P0 1.552823 1_545
O0 Sc0 1.985953 1_555
O1 S0 1.477594 1_555
O1 Sc0 2.168821 1_665
O2 P1 1.545066 1_555
O2 Sc0 2.090514 1_655
O3 S1 1.484186 1_555
O4 S2 1.480877 1_655
O5 P2 1.555586 1_555
O6 P2 1.538880 1_565
O7 S1 1.483083 1_555
O8 S2 1.484415 1_555
O9 S0 1.478821 1_555
O9 Sc1 2.121971 1_565
O10 P1 1.548054 1_455
O10 Sc1 2.030061 1_455
O11 P0 1.536292 1_555
O11 Sc1 2.049423 1_465
O12 P3 1.537483 1_555
O13 S3 1.482882 1_555
O14 S4 1.483254 1_555
O15 S5 1.483443 1_555
O15 Sc2 2.132624 1_555
O16 P4 1.549797 1_555
O16 Sc2 1.945498 1_555
O17 S6 1.484443 1_555
O17 Sc2 2.217345 1_555
O18 S6 1.482973 1_555
O18 Sc3 2.095343 1_554
O19 S5 1.482218 1_555
O19 Sc3 2.139235 1_554
O20 P4 1.550926 1_555
O20 Sc3 2.069969 1_554
O21 S3 1.481461 1_555
O21 Sc4 2.148149 1_555
O22 S4 1.483472 1_555
O22 Sc4 2.094285 1_555
O23 P3 1.554576 1_555
O23 Sc4 2.056506 1_555
O24 P5 1.544945 1_555
O25 S7 1.477862 1_555
O26 P6 1.535850 1_555
O27 S8 1.480315 1_555
O28 P7 1.544945 1_555
O29 P8 1.533020 1_555
O30 P8 1.553004 1_555
O30 Sc5 1.998923 1_555
O31 S8 1.477582 1_555
O31 Sc5 2.170736 1_555
O32 P7 1.550074 1_555
O32 Sc5 2.101208 1_555
O33 S7 1.480362 1_555
O34 P6 1.545032 1_555
O35 P5 1.538299 1_555
O36 P8 1.533471 1_555
O36 Sc0 2.055945 1_565
O37 S8 1.490508 1_555
O37 Sc0 2.274596 1_665
O38 P7 1.566103 1_555
O38 Sc0 2.076487 1_555
O39 S7 1.499081 1_555
O40 P6 1.542619 1_555
O41 P5 1.567778 1_555
O42 P3 1.558667 1_555
O43 S3 1.494606 1_555
O44 S4 1.492110 1_555
O45 S5 1.487809 1_555
O45 Sc1 2.233758 1_565
O46 P4 1.548356 1_555
O46 Sc1 2.079315 1_555
O47 S6 1.488400 1_555
O47 Sc1 2.166817 1_455
O48 P2 1.554417 1_555
O49 S1 1.490369 1_555
O50 S2 1.488736 1_655
O51 S0 1.497065 1_555
O51 Sc2 2.306156 1_555
O52 P1 1.543506 1_555
O52 Sc2 2.032618 1_555
O53 P0 1.568529 1_545
O53 Sc2 2.090478 1_555
O54 P5 1.537547 1_555
O54 Sc3 2.053201 1_555
O55 S7 1.494916 1_655
O55 Sc3 2.210374 1_555
O56 P6 1.565511 1_545
O56 Sc3 2.076355 1_555
O57 S8 1.504003 1_545
O57 Sc4 2.217358 1_555
O58 P7 1.542700 1_555
O58 Sc4 2.078274 1_555
O59 P8 1.567660 1_655
O59 Sc4 2.078897 1_555
O60 S6 1.490400 1_555
O61 S5 1.496938 1_455
O62 P4 1.554449 1_565
O63 S3 1.488279 1_565
O64 S4 1.486860 1_555
O65 P3 1.552251 1_455
O66 P0 1.539937 1_555
O66 Sc5 2.076878 1_555
O67 S0 1.497249 1_555
O67 Sc5 2.268274 1_555
O68 P1 1.566311 1_455
O68 Sc5 2.088286 1_555
O69 S1 1.487408 1_555
O70 S2 1.486854 1_555
O71 P2 1.552207 1_565
