# generated using pymatgen
data_Ba2SmMgCu3O7
_symmetry_space_group_name_H-M   'P 1'
_cell_length_a   3.76541511
_cell_length_b   3.97423578
_cell_length_c   14.52992113
_cell_angle_alpha   90.00000000
_cell_angle_beta   90.00000000
_cell_angle_gamma   90.00000000
_symmetry_Int_Tables_number   1
_chemical_formula_structural   Ba2SmMgCu3O7
_chemical_formula_sum   'Ba2 Sm1 Mg1 Cu3 O7'
_cell_volume   217.43514728
_cell_formula_units_Z   1
loop_
 _symmetry_equiv_pos_site_id
 _symmetry_equiv_pos_as_xyz
  1  'x, y, z'
loop_
 _atom_site_type_symbol
 _atom_site_label
 _atom_site_symmetry_multiplicity
 _atom_site_fract_x
 _atom_site_fract_y
 _atom_site_fract_z
 _atom_site_occupancy
  Ba  Ba0  1  0.50000000  0.50000000  0.77929567  1
  Ba  Ba1  1  0.50000000  0.50000000  0.08639531  1
  Sm  Sm0  1  0.50000000  0.50000000  0.52050423  1
  Mg  Mg0  1  0.50000000  0.00000000  0.27589435  1
  Cu  Cu0  1  0.00000000  0.00000000  0.63982805  1
  Cu  Cu1  1  0.00000000  0.00000000  0.41549908  1
  Cu  Cu2  1  0.00000000  0.00000000  0.93569044  1
  O  O0  1  0.00000000  0.00000000  0.80259621  1
  O  O1  1  0.00000000  0.00000000  0.20835789  1
  O  O2  1  0.00000000  0.50000000  0.62928452  1
  O  O3  1  0.00000000  0.50000000  0.42146544  1
  O  O4  1  0.50000000  0.00000000  0.61387121  1
  O  O5  1  0.50000000  0.00000000  0.40936257  1
  O  O6  1  0.00000000  0.50000000  0.97306603  1
loop_
_geom_bond_atom_site_label_1
_geom_bond_atom_site_label_2
_geom_bond_distance
_geom_bond_site_symmetry_2
Ba0 O0 2.758232 1_555
Ba0 O0 2.758232 1_565
Ba0 O0 2.758232 1_665
Ba0 O0 2.758232 1_655
Ba0 O2 2.880184 1_555
Ba0 O2 2.880184 1_655
Ba0 O4 3.118646 1_565
Ba0 O4 3.118646 1_555
Ba0 O6 3.386953 1_555
Ba0 O6 3.386953 1_655
Ba1 O6 2.501219 1_554
Ba1 O6 2.501219 1_654
Mg0 O5 1.939283 1_555
Mg0 O1 2.123096 1_555
Mg0 O1 2.123096 1_655
Cu0 O4 1.920112 1_555
Cu0 O4 1.920112 1_455
Cu0 O2 1.993014 1_545
Cu0 O2 1.993014 1_555
Cu0 O0 2.365009 1_555
Cu1 O5 1.884818 1_555
Cu1 O5 1.884818 1_455
Cu1 O3 1.989008 1_555
Cu1 O3 1.989008 1_545
Cu2 O0 1.933849 1_555
Cu2 O6 2.059989 1_545
Cu2 O6 2.059989 1_555
O2 Sm0 2.458208 1_555
O2 Sm0 2.458208 1_455
O3 Sm0 2.369680 1_555
O3 Sm0 2.369680 1_455
O4 Sm0 2.406043 1_545
O4 Sm0 2.406043 1_555
O5 Sm0 2.560561 1_555
O5 Sm0 2.560561 1_545
