# generated using pymatgen
data_Na3MgZr3P5SO24
_symmetry_space_group_name_H-M   'P 1'
_cell_length_a   8.92138884
_cell_length_b   8.91715301
_cell_length_c   23.04488220
_cell_angle_alpha   89.91176933
_cell_angle_beta   90.18531102
_cell_angle_gamma   119.92968112
_symmetry_Int_Tables_number   1
_chemical_formula_structural   Na3MgZr3P5SO24
_chemical_formula_sum   'Na9 Mg3 Zr9 P15 S3 O72'
_cell_volume   1588.79855166
_cell_formula_units_Z   3
loop_
 _symmetry_equiv_pos_site_id
 _symmetry_equiv_pos_as_xyz
  1  'x, y, z'
loop_
 _atom_site_type_symbol
 _atom_site_label
 _atom_site_symmetry_multiplicity
 _atom_site_fract_x
 _atom_site_fract_y
 _atom_site_fract_z
 _atom_site_occupancy
  Na  Na0  1  0.99122488  0.36407098  0.74099894  1
  Na  Na1  1  0.31739695  0.97910327  0.08765064  1
  Na  Na2  1  0.32717923  0.03358555  0.40555042  1
  Na  Na3  1  0.97200945  0.99868405  0.49084195  1
  Na  Na4  1  0.98118775  0.00124075  0.99777677  1
  Na  Na5  1  0.64580331  0.33271798  0.82484636  1
  Na  Na6  1  0.66871840  0.33631447  0.32163446  1
  Na  Na7  1  0.33248392  0.65489449  0.16753996  1
  Na  Na8  1  0.35142620  0.67335256  0.66499265  1
  Mg  Mg0  1  0.99911244  0.00114724  0.35222581  1
  Mg  Mg1  1  0.66529500  0.34096393  0.68647367  1
  Mg  Mg2  1  0.66216299  0.32823269  0.18438996  1
  Zr  Zr0  1  0.00195297  0.99849022  0.85243090  1
  Zr  Zr1  1  0.99421851  0.99537866  0.64609469  1
  Zr  Zr2  1  0.00120124  0.99864723  0.14848749  1
  Zr  Zr3  1  0.67144827  0.33588916  0.98063384  1
  Zr  Zr4  1  0.68002763  0.34494860  0.48031128  1
  Zr  Zr5  1  0.33208630  0.65986341  0.01964882  1
  Zr  Zr6  1  0.33363355  0.65756894  0.51933822  1
  Zr  Zr7  1  0.33338505  0.67002692  0.31359530  1
  Zr  Zr8  1  0.33844318  0.67203386  0.81311819  1
  P  P0  1  0.30133182  0.00844022  0.25339734  1
  P  P1  1  0.29617830  0.29116893  0.74933504  1
  P  P2  1  0.99594724  0.70232991  0.74966564  1
  P  P3  1  0.70626106  0.00444207  0.74903303  1
  P  P4  1  0.95985689  0.33523006  0.58830234  1
  P  P5  1  0.66602804  0.62263036  0.58594539  1
  P  P6  1  0.95636485  0.62071256  0.08729484  1
  P  P7  1  0.66736328  0.04344995  0.08524018  1
  P  P8  1  0.37984025  0.33441088  0.08678839  1
  P  P9  1  0.62769400  0.66700605  0.91680886  1
  P  P10  1  0.03888039  0.37276417  0.91410619  1
  P  P11  1  0.33389315  0.96108808  0.91908426  1
  P  P12  1  0.63001252  0.95876209  0.41711454  1
  P  P13  1  0.32884715  0.36728676  0.41533377  1
  P  P14  1  0.04269557  0.67201040  0.41594549  1
  S  S0  1  0.70988436  0.70408275  0.25224687  1
  S  S1  1  0.99507942  0.29095425  0.25189926  1
  S  S2  1  0.37848651  0.04363732  0.58348388  1
  O  O0  1  0.20875303  0.01645507  0.30776334  1
  O  O1  1  0.80801793  0.79444706  0.30374182  1
  O  O2  1  0.98081248  0.19028723  0.30340331  1
  O  O3  1  0.20172509  0.18407131  0.80431499  1
  O  O4  1  0.98558455  0.79839773  0.80416584  1
  O  O5  1  0.81987971  0.02108668  0.80264753  1
  O  O6  1  0.79570912  0.97961237  0.69492252  1
  O  O7  1  0.17621220  0.20068593  0.69637189  1
  O  O8  1  0.01795097  0.81372088  0.69547809  1
  O  O9  1  0.79258390  0.81066706  0.19869094  1
  O  O10  1  0.01214357  0.20387380  0.19842434  1
  O  O11  1  0.18688954  0.98840417  0.19777970  1
  O  O12  1  0.88158633  0.35292828  0.64431138  1
  O  O13  1  0.48382408  0.12977002  0.63378249  1
  O  O14  1  0.64295897  0.51731077  0.63944137  1
  O  O15  1  0.87388317  0.51567990  0.14048004  1
  O  O16  1  0.63010719  0.12211692  0.13721677  1
  O  O17  1  0.48359584  0.35768839  0.14047605  1
  O  O18  1  0.46238605  0.30454490  0.03156371  1
  O  O19  1  0.85247490  0.53913735  0.03055713  1
  O  O20  1  0.69175801  0.15046452  0.02907374  1
  O  O21  1  0.45572492  0.13882241  0.52821021  1
  O  O22  1  0.67968765  0.53243445  0.52970500  1
  O  O23  1  0.84619887  0.31808680  0.53410496  1
  O  O24  1  0.53674865  0.68510396  0.97105030  1
  O  O25  1  0.15282700  0.47023774  0.96716519  1
  O  O26  1  0.31737353  0.85946804  0.97541798  1
  O  O27  1  0.53673205  0.84728470  0.47110294  1
  O  O28  1  0.31456984  0.46126639  0.47015969  1
  O  O29  1  0.15589990  0.68886580  0.46943552  1
  O  O30  1  0.13184168  0.64713378  0.36175728  1
  O  O31  1  0.50928184  0.87053060  0.36337498  1
  O  O32  1  0.35446135  0.48230086  0.36169091  1
  O  O33  1  0.12468556  0.47435100  0.85805783  1
  O  O34  1  0.34935163  0.86239051  0.86632588  1
  O  O35  1  0.51947427  0.64929135  0.86211565  1
  O  O36  1  0.02931542  0.83478558  0.41154831  1
  O  O37  1  0.80801915  0.98184049  0.41020317  1
  O  O38  1  0.17078205  0.18752111  0.41136485  1
  O  O39  1  0.02068043  0.19162026  0.91246953  1
  O  O40  1  0.17042607  0.97764139  0.91348426  1
  O  O41  1  0.80748357  0.83025885  0.91270166  1
  O  O42  1  0.98264906  0.17289654  0.58744035  1
  O  O43  1  0.20264744  0.02517828  0.58646800  1
  O  O44  1  0.83208052  0.80490887  0.58680840  1
  O  O45  1  0.98352618  0.80984085  0.09063673  1
  O  O46  1  0.82750046  0.01964214  0.09081385  1
  O  O47  1  0.19595190  0.16560086  0.09036109  1
  O  O48  1  0.69381551  0.16788476  0.74490219  1
  O  O49  1  0.47343990  0.31054697  0.74477218  1
  O  O50  1  0.83940488  0.52092298  0.74737262  1
  O  O51  1  0.69345564  0.53320976  0.24715088  1
  O  O52  1  0.84595484  0.31667400  0.24657607  1
  O  O53  1  0.48137221  0.16547759  0.24733064  1
  O  O54  1  0.64426903  0.50376971  0.92144209  1
  O  O55  1  0.85990911  0.35712142  0.92040618  1
  O  O56  1  0.49674613  0.14156783  0.92154798  1
  O  O57  1  0.63156210  0.13413413  0.42344536  1
  O  O58  1  0.49306055  0.34831900  0.42162505  1
  O  O59  1  0.86337564  0.50590431  0.42116130  1
  O  O60  1  0.34779251  0.48878149  0.07806674  1
  O  O61  1  0.14580213  0.65453826  0.07935511  1
  O  O62  1  0.50384539  0.85983631  0.07661487  1
  O  O63  1  0.35638186  0.86608865  0.57947070  1
  O  O64  1  0.50837096  0.65206391  0.57862355  1
  O  O65  1  0.14162489  0.49826549  0.57915716  1
  O  O66  1  0.31300152  0.83631366  0.25376949  1
  O  O67  1  0.53192321  0.68598811  0.25354261  1
  O  O68  1  0.16000821  0.46462508  0.25312733  1
  O  O69  1  0.30082609  0.46909620  0.75420107  1
  O  O70  1  0.16271096  0.68627263  0.75401614  1
  O  O71  1  0.52624709  0.83968200  0.75413557  1
loop_
_geom_bond_atom_site_label_1
_geom_bond_atom_site_label_2
_geom_bond_distance
_geom_bond_site_symmetry_2
Na0 O48 2.340465 1_555
Na0 O50 2.388451 1_555
Na0 O12 2.412650 1_555
Na0 O69 2.452117 1_655
Na0 O70 2.509751 1_655
Na1 O62 2.394041 1_555
Na1 O47 2.396287 1_565
Na1 O61 2.516957 1_555
Na1 O45 2.582577 1_455
Na1 O16 2.673528 1_565
Na1 O26 2.799241 1_554
Na1 O11 2.814179 1_555
Na1 O18 2.831768 1_565
Na2 O36 2.350339 1_545
Na2 O38 2.400403 1_555
Na2 O57 2.431527 1_555
Na2 O0 2.458133 1_555
Na2 O58 2.461509 1_555
Na3 O37 2.319550 1_555
Na3 O38 2.523190 1_665
Na3 O36 2.548789 1_655
Na3 O42 2.690718 1_565
Na3 O44 2.699744 1_555
Na3 O43 2.938201 1_665
Na4 O41 2.490321 1_545
Na4 O39 2.503641 1_655
Na4 O46 2.597751 1_556
Na4 O40 2.654219 1_645
Na4 O45 2.741673 1_546
Na4 O47 2.748153 1_656
Na5 O49 2.342693 1_555
Na5 O50 2.470932 1_555
Na5 O48 2.525804 1_555
Na5 O54 2.704337 1_555
Na5 O56 2.717623 1_555
Na5 O55 2.846917 1_555
Na6 O53 2.344152 1_555
Na6 O51 2.384138 1_555
Na6 O52 2.411994 1_555
Na6 O59 2.815595 1_555
Na6 O58 2.822850 1_555
Na6 O57 2.874131 1_555
Na7 O68 2.557476 1_555
Na7 O67 2.580176 1_555
Na7 O60 2.584047 1_555
Na7 O61 2.622307 1_555
Na7 O66 2.624649 1_555
Na7 O62 2.699717 1_555
Na8 O64 2.498496 1_555
Na8 O71 2.555928 1_555
Na8 O63 2.598898 1_555
Na8 O69 2.630881 1_555
Na8 O65 2.631194 1_555
Na8 O70 2.696890 1_555
Mg0 O0 2.079346 1_655
Mg0 O2 2.098773 1_555
Mg0 O1 2.100124 1_545
Mg0 O38 2.102033 1_655
Mg0 O37 2.107677 1_545
Mg0 O36 2.128955 1_645
Mg1 O14 1.998319 1_555
Mg1 O49 2.087733 1_555
Mg1 O50 2.112571 1_555
Mg1 O12 2.117840 1_555
Mg1 O13 2.143365 1_555
Mg1 O48 2.154761 1_555
Mg2 O17 2.009298 1_555
Mg2 O16 2.030105 1_555
Mg2 O15 2.059667 1_555
Mg2 O53 2.117641 1_555
Mg2 O52 2.214916 1_555
Mg2 O51 2.237634 1_555
O0 P0 1.524072 1_555
O1 S0 1.454747 1_555
O2 S1 1.454107 1_555
O3 P1 1.558062 1_555
O3 Zr0 2.051459 1_545
O4 P2 1.550130 1_555
O4 Zr0 2.046236 1_655
O5 P3 1.555115 1_555
O5 Zr0 2.075843 1_645
O6 P3 1.557036 1_565
O6 Zr1 2.046028 1_555
O7 P1 1.555327 1_555
O7 Zr1 2.087701 1_445
O8 P2 1.545225 1_455
O8 Zr1 2.073387 1_455
O9 S0 1.507789 1_555
O9 Zr2 2.122978 1_655
O10 S1 1.505618 1_455
O10 Zr2 2.123763 1_545
O11 P0 1.589750 1_565
O11 Zr2 2.044872 1_555
O12 P4 1.514890 1_555
O13 S2 1.446400 1_555
O14 P5 1.499793 1_555
O15 P6 1.495147 1_555
O16 P7 1.508341 1_555
O17 P8 1.494084 1_555
O18 P8 1.560669 1_555
O18 Zr3 2.104109 1_554
O19 P6 1.555664 1_555
O19 Zr3 2.071284 1_554
O20 P7 1.556954 1_555
O20 Zr3 2.074808 1_554
O21 S2 1.495484 1_555
O21 Zr4 2.222385 1_555
O22 P5 1.563178 1_555
O22 Zr4 2.025257 1_555
O23 P4 1.564989 1_555
O23 Zr4 2.033086 1_555
O24 P9 1.544234 1_555
O24 Zr5 2.059398 1_556
O25 P10 1.548387 1_555
O25 Zr5 2.043275 1_556
O26 P11 1.546781 1_555
O26 Zr5 2.109723 1_556
O27 P12 1.551136 1_555
O27 Zr6 2.080643 1_555
O28 P13 1.557453 1_555
O28 Zr6 2.021193 1_555
O29 P14 1.550191 1_555
O29 Zr6 2.084084 1_555
O30 P14 1.557064 1_555
O30 Zr7 2.037751 1_555
O31 P12 1.568938 1_555
O31 Zr7 2.042091 1_555
O32 P13 1.547999 1_555
O32 Zr7 2.091185 1_555
O33 P10 1.544575 1_555
O33 Zr8 2.114063 1_555
O34 P11 1.548319 1_555
O34 Zr8 2.057923 1_555
O35 P9 1.544748 1_555
O35 Zr8 2.058835 1_555
O36 P14 1.517797 1_555
O37 P12 1.505021 1_555
O38 P13 1.520020 1_555
O39 P10 1.541225 1_555
O39 Zr0 2.151002 1_545
O40 P11 1.542326 1_555
O40 Zr0 2.130146 1_555
O41 P9 1.539946 1_555
O41 Zr0 2.145139 1_655
O42 P4 1.559160 1_555
O42 Zr1 2.121082 1_545
O43 S2 1.495235 1_555
O43 Zr1 2.222324 1_445
O44 P5 1.560148 1_555
O44 Zr1 2.094396 1_555
O45 P6 1.581571 1_555
O45 Zr2 2.092220 1_655
O46 P7 1.550478 1_555
O46 Zr2 2.116210 1_645
O47 P8 1.581241 1_555
O47 Zr2 2.111206 1_545
O48 P3 1.518721 1_555
O49 P1 1.506698 1_555
O50 P2 1.521642 1_555
O51 S0 1.461002 1_555
O52 S1 1.463195 1_555
O53 P0 1.522099 1_555
O54 P9 1.538263 1_555
O54 Zr3 2.124694 1_555
O55 P10 1.539185 1_655
O55 Zr3 2.117955 1_555
O56 P11 1.539688 1_545
O56 Zr3 2.141113 1_555
O57 P12 1.564009 1_545
O57 Zr4 2.151977 1_555
O58 P13 1.562594 1_555
O58 Zr4 2.155803 1_555
O59 P14 1.550430 1_655
O59 Zr4 2.063811 1_555
O60 P8 1.551944 1_555
O60 Zr5 2.089279 1_555
O61 P6 1.572849 1_455
O61 Zr5 2.143180 1_555
O62 P7 1.569745 1_565
O62 Zr5 2.125736 1_555
O63 S2 1.497609 1_565
O63 Zr6 2.246868 1_555
O64 P5 1.562805 1_555
O64 Zr6 2.088427 1_555
O65 P4 1.560894 1_455
O65 Zr6 2.105615 1_555
O66 P0 1.589395 1_565
O66 Zr7 2.096113 1_555
O67 S0 1.514020 1_555
O67 Zr7 2.199187 1_555
O68 S1 1.513325 1_455
O68 Zr7 2.203611 1_555
O69 P1 1.570503 1_555
O69 Zr8 2.151611 1_555
O70 P2 1.567022 1_455
O70 Zr8 2.124471 1_555
O71 P3 1.548459 1_565
O71 Zr8 2.097303 1_555
