# generated using pymatgen
data_Na9TaZn5Si3(SO6)6
_symmetry_space_group_name_H-M   'P 1'
_cell_length_a   9.14676284
_cell_length_b   9.05237576
_cell_length_c   22.26910115
_cell_angle_alpha   90.01364477
_cell_angle_beta   90.00000000
_cell_angle_gamma   120.34551851
_symmetry_Int_Tables_number   1
_chemical_formula_structural   Na9TaZn5Si3(SO6)6
_chemical_formula_sum   'Na18 Ta2 Zn10 Si6 S12 O72'
_cell_volume   1591.25825428
_cell_formula_units_Z   2
loop_
 _symmetry_equiv_pos_site_id
 _symmetry_equiv_pos_as_xyz
  1  'x, y, z'
loop_
 _atom_site_type_symbol
 _atom_site_label
 _atom_site_symmetry_multiplicity
 _atom_site_fract_x
 _atom_site_fract_y
 _atom_site_fract_z
 _atom_site_occupancy
  Na  Na0  1  0.64859151  0.00968423  0.23687792  1
  Na  Na1  1  0.37804111  0.34709637  0.24845651  1
  Na  Na2  1  0.99256637  0.65150148  0.24297100  1
  Na  Na3  1  0.65893511  0.65150148  0.74297100  1
  Na  Na4  1  0.96905527  0.34709637  0.74845651  1
  Na  Na5  1  0.36109273  0.00968423  0.73687792  1
  Na  Na6  1  0.29632031  0.33197351  0.57644792  1
  Na  Na7  1  0.03565419  0.33197351  0.07644792  1
  Na  Na8  1  0.95718100  0.66046180  0.91226109  1
  Na  Na9  1  0.71969157  0.04759999  0.91162450  1
  Na  Na10  1  0.32790743  0.04759999  0.41162450  1
  Na  Na11  1  0.70327980  0.66046180  0.41226109  1
  Na  Na12  1  0.99917473  0.01718062  0.50068083  1
  Na  Na13  1  0.01800589  0.01718062  0.00068083  1
  Na  Na14  1  0.67781945  0.33360264  0.83152132  1
  Na  Na15  1  0.65578419  0.33360264  0.33152132  1
  Na  Na16  1  0.35545863  0.69432713  0.15448274  1
  Na  Na17  1  0.33886749  0.69432713  0.65448274  1
  Ta  Ta0  1  0.33899320  0.66210948  0.31562284  1
  Ta  Ta1  1  0.32311528  0.66210948  0.81562284  1
  Zn  Zn0  1  0.02166678  0.00803434  0.34497820  1
  Zn  Zn1  1  0.98636757  0.00803434  0.84497820  1
  Zn  Zn2  1  0.96709357  0.95652322  0.65769916  1
  Zn  Zn3  1  0.98942965  0.95652322  0.15769916  1
  Zn  Zn4  1  0.68537178  0.33540510  0.68201748  1
  Zn  Zn5  1  0.65003432  0.33540510  0.18201748  1
  Zn  Zn6  1  0.67718667  0.33495852  0.98439388  1
  Zn  Zn7  1  0.65777285  0.33495852  0.48439388  1
  Zn  Zn8  1  0.32938437  0.65198294  0.01442465  1
  Zn  Zn9  1  0.32259757  0.65198294  0.51442465  1
  Si  Si0  1  0.30292532  0.00040239  0.25125049  1
  Si  Si1  1  0.71165199  0.71229132  0.25411739  1
  Si  Si2  1  0.00063933  0.71229132  0.75411739  1
  Si  Si3  1  0.69747707  0.00040239  0.75125049  1
  Si  Si4  1  0.03311640  0.35927168  0.92268121  1
  Si  Si5  1  0.32615428  0.35927168  0.42268121  1
  S  S0  1  0.00539138  0.30001295  0.24976130  1
  S  S1  1  0.29462157  0.30001295  0.74976130  1
  S  S2  1  0.96548784  0.33405766  0.58265092  1
  S  S3  1  0.36658619  0.03480050  0.58183232  1
  S  S4  1  0.66735568  0.63085817  0.58321756  1
  S  S5  1  0.96350349  0.63085817  0.08321756  1
  S  S6  1  0.66821531  0.03480050  0.08183232  1
  S  S7  1  0.36857082  0.33405766  0.08265092  1
  S  S8  1  0.61933637  0.66066674  0.91849850  1
  S  S9  1  0.33474903  0.95803691  0.91892236  1
  S  S10  1  0.62328688  0.95803691  0.41892236  1
  S  S11  1  0.04132937  0.66066674  0.41849850  1
  O  O0  1  0.24037882  0.05281550  0.31168383  1
  O  O1  1  0.82099464  0.79226143  0.31514756  1
  O  O2  1  0.97483642  0.19238599  0.30274175  1
  O  O3  1  0.21754957  0.19238599  0.80274175  1
  O  O4  1  0.97126679  0.79226143  0.81514756  1
  O  O5  1  0.81243667  0.05281550  0.81168383  1
  O  O6  1  0.77259822  0.94196314  0.69642238  1
  O  O7  1  0.19220739  0.23904262  0.69503974  1
  O  O8  1  0.07218782  0.84648784  0.69864351  1
  O  O9  1  0.77430002  0.84648784  0.19864351  1
  O  O10  1  0.04683523  0.23904262  0.19503974  1
  O  O11  1  0.16936492  0.94196314  0.19642238  1
  O  O12  1  0.89027240  0.34652084  0.64082916  1
  O  O13  1  0.46708725  0.11868276  0.63726587  1
  O  O14  1  0.65025748  0.52486866  0.63734060  1
  O  O15  1  0.87461218  0.52486866  0.13734060  1
  O  O16  1  0.65159651  0.11868276  0.13726587  1
  O  O17  1  0.45624944  0.34652084  0.14082916  1
  O  O18  1  0.46203975  0.32199383  0.03040837  1
  O  O19  1  0.86912805  0.54784776  0.02694413  1
  O  O20  1  0.68264718  0.13765528  0.02700900  1
  O  O21  1  0.45500910  0.13765528  0.52700900  1
  O  O22  1  0.67872071  0.54784776  0.52694413  1
  O  O23  1  0.85995508  0.32199383  0.53040837  1
  O  O24  1  0.53786945  0.68831284  0.97056340  1
  O  O25  1  0.13496016  0.45059114  0.98313036  1
  O  O26  1  0.31668229  0.85162056  0.97125294  1
  O  O27  1  0.53493727  0.85162056  0.47125294  1
  O  O28  1  0.31562998  0.45059114  0.48313036  1
  O  O29  1  0.15044239  0.68831284  0.47056340  1
  O  O30  1  0.13238420  0.65321876  0.36200338  1
  O  O31  1  0.51213566  0.86554968  0.36254280  1
  O  O32  1  0.34402764  0.49198189  0.36451873  1
  O  O33  1  0.14795325  0.49198189  0.86451873  1
  O  O34  1  0.35341302  0.86554968  0.86254280  1
  O  O35  1  0.52083356  0.65321876  0.86200338  1
  O  O36  1  0.01921293  0.81184896  0.41467150  1
  O  O37  1  0.78778088  0.96984166  0.41179252  1
  O  O38  1  0.15991875  0.17025339  0.41475179  1
  O  O39  1  0.01033464  0.17025339  0.91475179  1
  O  O40  1  0.18206078  0.96984166  0.91179252  1
  O  O41  1  0.79263603  0.81184896  0.91467150  1
  O  O42  1  0.98988780  0.18321108  0.58359555  1
  O  O43  1  0.20082991  0.02867827  0.58421292  1
  O  O44  1  0.82316766  0.80276000  0.58538594  1
  O  O45  1  0.97959233  0.80276000  0.08538594  1
  O  O46  1  0.82784836  0.02867827  0.08421292  1
  O  O47  1  0.19332328  0.18321108  0.08359555  1
  O  O48  1  0.65582862  0.15520141  0.74195275  1
  O  O49  1  0.47012125  0.33263176  0.74333673  1
  O  O50  1  0.83543978  0.52142568  0.74451222  1
  O  O51  1  0.68598690  0.52142568  0.24451222  1
  O  O52  1  0.86251152  0.33263176  0.24333673  1
  O  O53  1  0.49937379  0.15520141  0.24195275  1
  O  O54  1  0.62657328  0.50127534  0.91951421  1
  O  O55  1  0.84967039  0.35727886  0.91808000  1
  O  O56  1  0.49341573  0.12467486  0.91806873  1
  O  O57  1  0.63126013  0.12467486  0.41806873  1
  O  O58  1  0.50760947  0.35727886  0.41808000  1
  O  O59  1  0.87470306  0.50127534  0.41951421  1
  O  O60  1  0.35417162  0.49320482  0.08088852  1
  O  O61  1  0.13391943  0.64542285  0.08277666  1
  O  O62  1  0.51590015  0.86075971  0.07747044  1
  O  O63  1  0.34485856  0.86075971  0.57747044  1
  O  O64  1  0.51150242  0.64542285  0.58277666  1
  O  O65  1  0.13903220  0.49320482  0.58088852  1
  O  O66  1  0.31543170  0.82152897  0.26194920  1
  O  O67  1  0.50914093  0.67609334  0.26266266  1
  O  O68  1  0.16214270  0.47923585  0.26016508  1
  O  O69  1  0.31709215  0.47923585  0.76016508  1
  O  O70  1  0.16695140  0.67609334  0.76266266  1
  O  O71  1  0.50609627  0.82152897  0.76194920  1
loop_
_geom_bond_atom_site_label_1
_geom_bond_atom_site_label_2
_geom_bond_distance
_geom_bond_site_symmetry_2
Na0 O53 2.329678 1_555
Na0 O16 2.422538 1_555
Na0 O9 2.438296 1_545
Na0 O52 2.572102 1_555
Na0 O67 2.680420 1_545
Na0 O66 2.693508 1_545
Na1 O51 2.437340 1_555
Na1 O53 2.493590 1_555
Na1 O17 2.501998 1_555
Na1 O67 2.607441 1_555
Na1 O0 2.697602 1_555
Na1 O68 2.790197 1_555
Na1 O10 2.924845 1_555
Na1 O32 2.984598 1_555
Na2 O51 2.432059 1_555
Na2 O52 2.505527 1_555
Na2 O11 2.511604 1_655
Na2 O66 2.583747 1_655
Na2 O15 2.600082 1_555
Na2 O68 2.725524 1_655
Na2 O30 2.939747 1_655
Na2 O1 2.947773 1_555
Na3 O50 2.432068 1_555
Na3 O49 2.505526 1_555
Na3 O6 2.511604 1_555
Na3 O71 2.583754 1_555
Na3 O14 2.600084 1_555
Na3 O69 2.725532 1_555
Na3 O35 2.939751 1_555
Na3 O4 2.947773 1_555
Na4 O50 2.437332 1_555
Na4 O48 2.493583 1_555
Na4 O12 2.501996 1_555
Na4 O70 2.607440 1_655
Na4 O5 2.697602 1_555
Na4 O69 2.790189 1_655
Na4 O7 2.924845 1_655
Na4 O33 2.984595 1_655
Na5 O48 2.329686 1_555
Na5 O13 2.422539 1_555
Na5 O8 2.438296 1_545
Na5 O49 2.572101 1_555
Na5 O70 2.680421 1_545
Na5 O71 2.693500 1_545
Na6 O28 2.304801 1_555
Na6 O42 2.425103 1_455
Na6 O43 2.430632 1_555
Na6 O64 2.510333 1_555
Na6 O65 2.516227 1_555
Na6 O7 2.789387 1_555
Na7 O25 2.304798 1_554
Na7 O47 2.425095 1_555
Na7 O46 2.430633 1_455
Na7 O61 2.510336 1_555
Na7 O60 2.516212 1_555
Na7 O10 2.789385 1_555
Na8 O55 2.406111 1_555
Na8 O4 2.441919 1_555
Na8 O41 2.496020 1_555
Na8 O40 2.500762 1_655
Na8 O54 2.616140 1_555
Na8 O19 2.716961 1_556
Na9 O39 2.307044 1_655
Na9 O5 2.373752 1_555
Na9 O55 2.434130 1_555
Na9 O56 2.500014 1_555
Na9 O41 2.538303 1_545
Na9 O20 2.767647 1_556
Na10 O38 2.307036 1_555
Na10 O0 2.373749 1_555
Na10 O58 2.434132 1_555
Na10 O57 2.500032 1_555
Na10 O36 2.538297 1_545
Na10 O21 2.767652 1_555
Na11 O58 2.406108 1_555
Na11 O1 2.441921 1_555
Na11 O36 2.496028 1_655
Na11 O37 2.500760 1_555
Na11 O59 2.616156 1_555
Na11 O22 2.716963 1_555
Na12 O38 2.384583 1_655
Na12 O42 2.408971 1_555
Na12 O43 2.584415 1_655
Na12 O44 2.600344 1_545
Na12 O37 2.646312 1_545
Na12 O36 2.738541 1_645
Na13 O39 2.384583 1_554
Na13 O47 2.408971 1_555
Na13 O46 2.584415 1_455
Na13 O45 2.600344 1_445
Na13 O40 2.646312 1_544
Na13 O41 2.738541 1_444
Na14 O55 2.427286 1_555
Na14 O50 2.499693 1_555
Na14 O48 2.509433 1_555
Na14 O56 2.629636 1_555
Na14 O54 2.660965 1_555
Na14 O49 2.729247 1_555
Na15 O58 2.427286 1_555
Na15 O51 2.499693 1_555
Na15 O53 2.509433 1_555
Na15 O57 2.629636 1_555
Na15 O59 2.660965 1_555
Na15 O52 2.729247 1_555
Na16 O62 2.265368 1_555
Na16 O61 2.438288 1_555
Na16 O60 2.444932 1_555
Na16 O66 2.758971 1_555
Na16 O67 2.835749 1_555
Na16 O68 2.996645 1_555
Na17 O63 2.265368 1_555
Na17 O64 2.438288 1_555
Na17 O65 2.444932 1_555
Na17 O71 2.758971 1_555
Na17 O70 2.835749 1_555
Na17 O69 2.996645 1_555
O0 Si0 1.624052 1_555
O0 Zn0 1.974035 1_555
O1 Si1 1.624625 1_555
O1 Zn0 2.000592 1_665
O2 S0 1.464493 1_655
O2 Zn0 2.139192 1_655
O3 S1 1.464493 1_555
O3 Zn1 2.139192 1_455
O4 Si2 1.624625 1_655
O4 Zn1 2.000592 1_565
O5 Si3 1.624052 1_555
O5 Zn1 1.974036 1_555
O6 Si3 1.615467 1_565
O6 Zn2 1.920669 1_555
O7 S1 1.464374 1_555
O7 Zn2 2.479909 1_445
O8 Si2 1.620967 1_555
O8 Zn2 1.927567 1_455
O9 Si1 1.620967 1_555
O9 Zn3 1.927567 1_555
O10 S0 1.464374 1_555
O10 Zn3 2.479909 1_445
O11 Si0 1.615467 1_565
O11 Zn3 1.920669 1_455
O12 S2 1.497638 1_555
O12 Zn4 2.042905 1_555
O13 S3 1.496582 1_555
O13 Zn4 2.206724 1_555
O14 S4 1.498876 1_555
O14 Zn4 2.142890 1_555
O15 S5 1.498876 1_555
O15 Zn5 2.142890 1_555
O16 S6 1.496582 1_555
O16 Zn5 2.206724 1_555
O17 S7 1.497638 1_555
O17 Zn5 2.042905 1_555
O18 S7 1.480071 1_555
O18 Zn6 2.168664 1_554
O19 S5 1.491428 1_555
O19 Zn6 2.067492 1_554
O20 S6 1.500401 1_555
O20 Zn6 2.045498 1_554
O21 S3 1.500401 1_555
O21 Zn7 2.045498 1_555
O22 S4 1.491428 1_555
O22 Zn7 2.067492 1_555
O23 S2 1.480071 1_555
O23 Zn7 2.168664 1_555
O24 S8 1.466452 1_555
O24 Zn8 2.016228 1_556
O25 Si4 1.607676 1_555
O25 Zn8 1.922322 1_556
O26 S9 1.467321 1_555
O26 Zn8 2.101598 1_556
O27 S10 1.467321 1_555
O27 Zn9 2.101598 1_555
O28 Si5 1.607676 1_555
O28 Zn9 1.922322 1_555
O29 S11 1.466452 1_555
O29 Zn9 2.016228 1_555
O30 S11 1.528953 1_555
O30 Ta0 2.119193 1_555
O31 S10 1.565359 1_555
O31 Ta0 2.010845 1_555
O32 Si5 1.717514 1_555
O32 Ta0 1.905778 1_555
O33 Si4 1.717514 1_555
O33 Ta1 1.905778 1_555
O34 S9 1.565359 1_555
O34 Ta1 2.010845 1_555
O35 S8 1.528953 1_555
O35 Ta1 2.119193 1_555
O36 S11 1.483553 1_555
O36 Zn0 2.350371 1_565
O37 S10 1.462177 1_555
O37 Zn0 2.482512 1_665
O38 Si5 1.625399 1_555
O38 Zn0 2.071804 1_555
O39 Si4 1.625402 1_555
O39 Zn1 2.071804 1_455
O40 S9 1.462168 1_555
O40 Zn1 2.482512 1_465
O41 S8 1.483559 1_555
O41 Zn1 2.350371 1_565
O42 S2 1.490921 1_555
O42 Zn2 2.558705 1_545
O43 S3 1.489846 1_555
O43 Zn2 2.502985 1_445
O44 S4 1.487972 1_555
O44 Zn2 2.100275 1_555
O45 S5 1.487976 1_555
O45 Zn3 2.100275 1_555
O46 S6 1.489837 1_555
O46 Zn3 2.502985 1_545
O47 S7 1.490927 1_555
O47 Zn3 2.558705 1_445
O48 Si3 1.640475 1_555
O48 Zn4 2.017706 1_555
O49 S1 1.485120 1_555
O49 Zn4 2.385731 1_555
O50 Si2 1.635876 1_655
O50 Zn4 2.078447 1_555
O51 Si1 1.635880 1_555
O51 Zn5 2.078447 1_555
O52 S0 1.485111 1_655
O52 Zn5 2.385731 1_555
O53 Si0 1.640481 1_555
O53 Zn5 2.017706 1_555
O54 S8 1.477596 1_555
O54 Zn6 2.296480 1_555
O55 Si4 1.672038 1_655
O55 Zn6 2.094922 1_555
O56 S9 1.473105 1_545
O56 Zn6 2.322957 1_555
O57 S10 1.473097 1_545
O57 Zn7 2.322957 1_555
O58 Si5 1.672056 1_555
O58 Zn7 2.094922 1_555
O59 S11 1.477586 1_655
O59 Zn7 2.296480 1_555
O60 S7 1.511998 1_555
O60 Zn8 2.153658 1_555
O61 S5 1.496509 1_455
O61 Zn8 2.325872 1_555
O62 S6 1.488171 1_565
O62 Zn8 2.279106 1_555
O63 S3 1.488164 1_565
O63 Zn9 2.279106 1_555
O64 S4 1.496527 1_555
O64 Zn9 2.325872 1_555
O65 S2 1.511987 1_455
O65 Zn9 2.153658 1_555
O66 Si0 1.696790 1_565
O66 Ta0 1.967939 1_555
O67 Si1 1.720876 1_555
O67 Ta0 1.905265 1_555
O68 S0 1.546272 1_555
O68 Ta0 2.043430 1_555
O69 S1 1.546276 1_555
O69 Ta1 2.043430 1_555
O70 Si2 1.720867 1_555
O70 Ta1 1.905265 1_555
O71 Si3 1.696795 1_565
O71 Ta1 1.967939 1_555
