# generated using pymatgen
data_NaTiNbSi2SO12
_symmetry_space_group_name_H-M   'P 1'
_cell_length_a   8.85500657
_cell_length_b   8.80856673
_cell_length_c   22.80518280
_cell_angle_alpha   90.77464524
_cell_angle_beta   90.00000000
_cell_angle_gamma   120.17455416
_symmetry_Int_Tables_number   1
_chemical_formula_structural   NaTiNbSi2SO12
_chemical_formula_sum   'Na6 Ti6 Nb6 Si12 S6 O72'
_cell_volume   1537.58321738
_cell_formula_units_Z   6
loop_
 _symmetry_equiv_pos_site_id
 _symmetry_equiv_pos_as_xyz
  1  'x, y, z'
loop_
 _atom_site_type_symbol
 _atom_site_label
 _atom_site_symmetry_multiplicity
 _atom_site_fract_x
 _atom_site_fract_y
 _atom_site_fract_z
 _atom_site_occupancy
  Na  Na0  1  0.00722124  0.00585224  0.49768803  1
  Na  Na1  1  0.99863100  0.00585224  0.99768803  1
  Na  Na2  1  0.67388824  0.33918524  0.83102103  1
  Na  Na3  1  0.66529800  0.33918524  0.33102103  1
  Na  Na4  1  0.34055424  0.67251924  0.16435503  1
  Na  Na5  1  0.33196400  0.67251924  0.66435503  1
  Ti  Ti0  1  0.01725426  0.98776324  0.35432122  1
  Ti  Ti1  1  0.97050898  0.98776324  0.85432122  1
  Ti  Ti2  1  0.68392126  0.32109624  0.68765422  1
  Ti  Ti3  1  0.63717598  0.32109624  0.18765422  1
  Ti  Ti4  1  0.35058726  0.65443024  0.02098822  1
  Ti  Ti5  1  0.30384198  0.65443024  0.52098822  1
  Nb  Nb0  1  -0.00003892  0.99363324  0.64502136  1
  Nb  Nb1  1  0.99367215  0.99363324  0.14502136  1
  Nb  Nb2  1  0.66662808  0.32696624  0.97835436  1
  Nb  Nb3  1  0.66033915  0.32696624  0.47835436  1
  Nb  Nb4  1  0.33329408  0.66030024  0.31168836  1
  Nb  Nb5  1  0.32700515  0.66030024  0.81168836  1
  Si  Si0  1  0.28868118  0.99840386  0.24976607  1
  Si  Si1  1  0.71560328  0.70837984  0.25127686  1
  Si  Si2  1  0.99277655  0.70837984  0.75127686  1
  Si  Si3  1  0.70972269  0.99840386  0.74976607  1
  Si  Si4  1  0.95534818  0.33173686  0.58309907  1
  Si  Si5  1  0.38227028  0.04171284  0.58460986  1
  Si  Si6  1  0.65944355  0.04171284  0.08460986  1
  Si  Si7  1  0.37638969  0.33173686  0.08309907  1
  Si  Si8  1  0.62201418  0.66507086  0.91643307  1
  Si  Si9  1  0.04893628  0.37504684  0.91794386  1
  Si  Si10  1  0.32610955  0.37504684  0.41794386  1
  Si  Si11  1  0.04305569  0.66507086  0.41643307  1
  S  S0  1  0.99433414  0.28465359  0.25085212  1
  S  S1  1  0.29031945  0.28465359  0.75085212  1
  S  S2  1  0.66100114  0.61798659  0.58418512  1
  S  S3  1  0.95698645  0.61798659  0.08418512  1
  S  S4  1  0.32766714  0.95132059  0.91751912  1
  S  S5  1  0.62365245  0.95132059  0.41751912  1
  O  O0  1  0.20025484  0.03344237  0.30750547  1
  O  O1  1  0.83708542  0.81267405  0.30800605  1
  O  O2  1  0.97171040  0.18122532  0.30330862  1
  O  O3  1  0.20951492  0.18122532  0.80330862  1
  O  O4  1  0.97558863  0.81267405  0.80800605  1
  O  O5  1  0.83318754  0.03344237  0.80750547  1
  O  O6  1  0.80650329  0.97119111  0.69271127  1
  O  O7  1  0.17912319  0.20896645  0.69671956  1
  O  O8  1  0.03082242  0.83408860  0.69318152  1
  O  O9  1  0.80326619  0.83408860  0.19318152  1
  O  O10  1  0.02984326  0.20896645  0.19671956  1
  O  O11  1  0.16468781  0.97119111  0.19271127  1
  O  O12  1  0.86692184  0.36677537  0.64083847  1
  O  O13  1  0.50375242  0.14600705  0.64133905  1
  O  O14  1  0.63837740  0.51455832  0.63664162  1
  O  O15  1  0.87618192  0.51455832  0.13664162  1
  O  O16  1  0.64225563  0.14600705  0.14133905  1
  O  O17  1  0.49985454  0.36677537  0.14083847  1
  O  O18  1  0.47317029  0.30452411  0.02604427  1
  O  O19  1  0.84579019  0.54229945  0.03005256  1
  O  O20  1  0.69748942  0.16742160  0.02651452  1
  O  O21  1  0.46993319  0.16742160  0.52651452  1
  O  O22  1  0.69651026  0.54229945  0.53005256  1
  O  O23  1  0.83135481  0.30452411  0.52604427  1
  O  O24  1  0.53358784  0.70010937  0.97417247  1
  O  O25  1  0.17041842  0.47934105  0.97467305  1
  O  O26  1  0.30504340  0.84789232  0.96997562  1
  O  O27  1  0.54284792  0.84789232  0.46997562  1
  O  O28  1  0.30892163  0.47934105  0.47467305  1
  O  O29  1  0.16652054  0.70010937  0.47417247  1
  O  O30  1  0.13983629  0.63785811  0.35937827  1
  O  O31  1  0.51245619  0.87563345  0.36338656  1
  O  O32  1  0.36415542  0.50075560  0.35984852  1
  O  O33  1  0.13659919  0.50075560  0.85984852  1
  O  O34  1  0.36317626  0.87563345  0.86338656  1
  O  O35  1  0.49802081  0.63785811  0.85937827  1
  O  O36  1  0.02195705  0.83799491  0.41019439  1
  O  O37  1  0.79852962  0.97736705  0.40954203  1
  O  O38  1  0.15206865  0.18491132  0.40781487  1
  O  O39  1  0.03284267  0.18491132  0.90781487  1
  O  O40  1  0.17883743  0.97736705  0.90954203  1
  O  O41  1  0.81603786  0.83799491  0.91019439  1
  O  O42  1  0.97561714  0.15915742  0.59175203  1
  O  O43  1  0.18789304  0.02329578  0.59166843  1
  O  O44  1  0.82572759  0.79699960  0.58867007  1
  O  O45  1  0.97127201  0.79699960  0.08867007  1
  O  O46  1  0.83540274  0.02329578  0.09166843  1
  O  O47  1  0.18354028  0.15915742  0.09175203  1
  O  O48  1  0.68862405  0.17132791  0.74352739  1
  O  O49  1  0.46519662  0.31070005  0.74287503  1
  O  O50  1  0.81873565  0.51824432  0.74114787  1
  O  O51  1  0.69950967  0.51824432  0.24114787  1
  O  O52  1  0.84550443  0.31070005  0.24287503  1
  O  O53  1  0.48270486  0.17132791  0.24352739  1
  O  O54  1  0.64228414  0.49249042  0.92508503  1
  O  O55  1  0.85456004  0.35662878  0.92500143  1
  O  O56  1  0.49239459  0.13033260  0.92200307  1
  O  O57  1  0.63793901  0.13033260  0.42200307  1
  O  O58  1  0.50206974  0.35662878  0.42500143  1
  O  O59  1  0.85020728  0.49249042  0.42508503  1
  O  O60  1  0.35529005  0.50466191  0.07686139  1
  O  O61  1  0.13186262  0.64403405  0.07620903  1
  O  O62  1  0.48540165  0.85157832  0.07448187  1
  O  O63  1  0.36617567  0.85157832  0.57448187  1
  O  O64  1  0.51217043  0.64403405  0.57620903  1
  O  O65  1  0.14937086  0.50466191  0.57686139  1
  O  O66  1  0.30895014  0.82582442  0.25841903  1
  O  O67  1  0.52122604  0.68996278  0.25833543  1
  O  O68  1  0.15906059  0.46366660  0.25533707  1
  O  O69  1  0.30460501  0.46366660  0.75533707  1
  O  O70  1  0.16873574  0.68996278  0.75833543  1
  O  O71  1  0.51687328  0.82582442  0.75841903  1
loop_
_geom_bond_atom_site_label_1
_geom_bond_atom_site_label_2
_geom_bond_distance
_geom_bond_site_symmetry_2
Na0 O36 2.509715 1_545
Na0 O38 2.527316 1_555
Na0 O42 2.608664 1_455
Na0 O43 2.630701 1_555
Na0 O37 2.653115 1_445
Na0 O44 2.720916 1_445
Na1 O41 2.509715 1_545
Na1 O39 2.527316 1_655
Na1 O47 2.608664 1_656
Na1 O46 2.630701 1_556
Na1 O40 2.653115 1_645
Na1 O45 2.720916 1_546
Na2 O48 2.509715 1_555
Na2 O50 2.527316 1_555
Na2 O54 2.608664 1_555
Na2 O55 2.630701 1_555
Na2 O49 2.653115 1_555
Na2 O56 2.720916 1_555
Na3 O53 2.509715 1_555
Na3 O51 2.527316 1_555
Na3 O59 2.608664 1_555
Na3 O58 2.630701 1_555
Na3 O52 2.653115 1_555
Na3 O57 2.720916 1_555
Na4 O60 2.509715 1_555
Na4 O62 2.527316 1_555
Na4 O66 2.608664 1_555
Na4 O67 2.630701 1_555
Na4 O61 2.653115 1_555
Na4 O68 2.720916 1_555
Na5 O65 2.509715 1_555
Na5 O63 2.527316 1_555
Na5 O71 2.608664 1_555
Na5 O70 2.630701 1_555
Na5 O64 2.653115 1_555
Na5 O69 2.720916 1_555
Nb0 O8 1.919322 1_555
Nb0 O6 1.954967 1_455
Nb0 O43 1.972190 1_565
Nb0 O42 2.002986 1_465
Nb0 O44 2.070098 1_455
Nb0 O7 2.102180 1_565
Nb1 O9 1.919321 1_555
Nb1 O11 1.954967 1_655
Nb1 O46 1.972190 1_565
Nb1 O47 2.002986 1_665
Nb1 O45 2.070098 1_555
Nb1 O10 2.102180 1_665
Nb2 O20 1.919322 1_556
Nb2 O18 1.954967 1_556
Nb2 O55 1.972190 1_555
Nb2 O54 2.002986 1_555
Nb2 O56 2.070098 1_555
Nb2 O19 2.102180 1_556
Nb3 O21 1.919321 1_555
Nb3 O23 1.954967 1_555
Nb3 O58 1.972190 1_555
Nb3 O59 2.002986 1_555
Nb3 O57 2.070098 1_555
Nb3 O22 2.102180 1_555
Nb4 O32 1.919322 1_555
Nb4 O30 1.954967 1_555
Nb4 O67 1.972190 1_555
Nb4 O66 2.002986 1_555
Nb4 O68 2.070098 1_555
Nb4 O31 2.102180 1_555
Nb5 O33 1.919321 1_555
Nb5 O35 1.954967 1_555
Nb5 O70 1.972190 1_555
Nb5 O71 2.002986 1_555
Nb5 O69 2.070098 1_555
Nb5 O34 2.102180 1_555
O0 Si0 1.635291 1_545
O0 Ti0 1.812137 1_545
O1 Si1 1.627660 1_555
O1 Ti0 1.876691 1_655
O2 S0 1.465344 1_555
O2 Ti0 2.272566 1_645
O3 S1 1.465344 1_555
O3 Ti1 2.272566 1_445
O4 Si2 1.627660 1_555
O4 Ti1 1.876691 1_555
O5 Si3 1.635291 1_545
O5 Ti1 1.812136 1_545
O6 Si3 1.637971 1_555
O7 S1 1.501942 1_555
O8 Si2 1.661201 1_455
O9 Si1 1.661201 1_555
O10 S0 1.501942 1_455
O11 Si0 1.637971 1_555
O12 Si4 1.635291 1_555
O12 Ti2 1.812137 1_555
O13 Si5 1.627660 1_555
O13 Ti2 1.876691 1_555
O14 S2 1.465344 1_555
O14 Ti2 2.272566 1_555
O15 S3 1.465344 1_555
O15 Ti3 2.272566 1_555
O16 Si6 1.627660 1_555
O16 Ti3 1.876691 1_555
O17 Si7 1.635291 1_555
O17 Ti3 1.812136 1_555
O18 Si7 1.637971 1_555
O19 S3 1.501942 1_555
O20 Si6 1.661201 1_555
O21 Si5 1.661201 1_555
O22 S2 1.501942 1_555
O23 Si4 1.637971 1_555
O24 Si8 1.635291 1_555
O24 Ti4 1.812137 1_556
O25 Si9 1.627660 1_555
O25 Ti4 1.876691 1_556
O26 S4 1.465344 1_555
O26 Ti4 2.272566 1_556
O27 S5 1.465344 1_555
O27 Ti5 2.272566 1_555
O28 Si10 1.627660 1_555
O28 Ti5 1.876691 1_555
O29 Si11 1.635291 1_555
O29 Ti5 1.812136 1_555
O30 Si11 1.637971 1_555
O31 S5 1.501942 1_555
O32 Si10 1.661201 1_555
O33 Si9 1.661201 1_555
O34 S4 1.501942 1_555
O35 Si8 1.637971 1_555
O36 Si11 1.633176 1_555
O36 Ti0 1.861827 1_555
O37 S5 1.458656 1_555
O37 Ti0 2.273834 1_655
O38 Si10 1.621199 1_555
O38 Ti0 1.946221 1_545
O39 Si9 1.621202 1_555
O39 Ti1 1.946221 1_445
O40 S4 1.458647 1_555
O40 Ti1 2.273834 1_455
O41 Si8 1.633181 1_555
O41 Ti1 1.861827 1_555
O42 Si4 1.632326 1_555
O43 Si5 1.653725 1_555
O44 S2 1.519217 1_555
O45 S3 1.519221 1_555
O46 Si6 1.653716 1_555
O47 Si7 1.632331 1_555
O48 Si3 1.633176 1_545
O48 Ti2 1.861827 1_555
O49 S1 1.458656 1_555
O49 Ti2 2.273834 1_555
O50 Si2 1.621199 1_555
O50 Ti2 1.946221 1_555
O51 Si1 1.621202 1_555
O51 Ti3 1.946221 1_555
O52 S0 1.458647 1_555
O52 Ti3 2.273834 1_555
O53 Si0 1.633181 1_545
O53 Ti3 1.861827 1_555
O54 Si8 1.632337 1_555
O55 Si9 1.653710 1_655
O56 S4 1.519214 1_545
O57 S5 1.519207 1_545
O58 Si10 1.653728 1_555
O59 Si11 1.632326 1_655
O60 Si7 1.633188 1_555
O60 Ti4 1.861827 1_555
O61 S3 1.458641 1_455
O61 Ti4 2.273834 1_555
O62 Si6 1.621195 1_565
O62 Ti4 1.946221 1_555
O63 Si5 1.621187 1_565
O63 Ti5 1.946221 1_555
O64 S2 1.458658 1_555
O64 Ti5 2.273834 1_555
O65 Si4 1.633178 1_455
O65 Ti5 1.861827 1_555
O66 Si0 1.632326 1_555
O67 Si1 1.653725 1_555
O68 S0 1.519217 1_455
O69 S1 1.519221 1_555
O70 Si2 1.653716 1_455
O71 Si3 1.632331 1_555
