# generated using pymatgen
data_Ge(BiTe2)2
_symmetry_space_group_name_H-M   'P 1'
_cell_length_a   14.48606426
_cell_length_b   14.48606426
_cell_length_c   14.48606432
_cell_angle_alpha   17.30676117
_cell_angle_beta   17.30676117
_cell_angle_gamma   17.30675994
_symmetry_Int_Tables_number   1
_chemical_formula_structural   Ge(BiTe2)2
_chemical_formula_sum   'Ge1 Bi2 Te4'
_cell_volume   234.75156153
_cell_formula_units_Z   1
loop_
 _symmetry_equiv_pos_site_id
 _symmetry_equiv_pos_as_xyz
  1  'x, y, z'
loop_
 _atom_site_type_symbol
 _atom_site_label
 _atom_site_symmetry_multiplicity
 _atom_site_fract_x
 _atom_site_fract_y
 _atom_site_fract_z
 _atom_site_occupancy
  Ge  Ge0  1  -0.00000000  -0.00000000  0.00000000  1
  Bi  Bi0  1  0.57873126  0.57873126  0.57873126  1
  Bi  Bi1  1  0.42126874  0.42126874  0.42126874  1
  Te  Te0  1  0.87144900  0.87144900  0.87144900  1
  Te  Te1  1  0.12855100  0.12855100  0.12855100  1
  Te  Te2  1  0.70551065  0.70551065  0.70551065  1
  Te  Te3  1  0.29448935  0.29448935  0.29448935  1
loop_
_geom_bond_atom_site_label_1
_geom_bond_atom_site_label_2
_geom_bond_distance
_geom_bond_site_symmetry_2
Ge0 Te2 3.016188 1_544
Ge0 Te2 3.016188 1_454
Ge0 Te3 3.016188 1_455
Ge0 Te3 3.016188 1_545
Ge0 Te3 3.016188 1_554
Ge0 Te2 3.016188 1_445
Bi0 Te0 3.058632 1_455
Bi0 Te0 3.058632 1_545
Bi0 Te0 3.058632 1_554
Bi0 Te3 3.278396 1_655
Bi0 Te3 3.278396 1_565
Bi0 Te3 3.278396 1_556
Bi1 Te1 3.058632 1_565
Bi1 Te1 3.058632 1_655
Bi1 Te1 3.058632 1_556
Bi1 Te2 3.278396 1_545
Bi1 Te2 3.278396 1_455
Bi1 Te2 3.278396 1_554
