# generated using pymatgen
data_GdMgPt
_symmetry_space_group_name_H-M   'P 1'
_cell_length_a   7.38838593
_cell_length_b   7.39013662
_cell_length_c   4.09917855
_cell_angle_alpha   90.00000000
_cell_angle_beta   90.00000000
_cell_angle_gamma   120.00783831
_symmetry_Int_Tables_number   1
_chemical_formula_structural   GdMgPt
_chemical_formula_sum   'Gd3 Mg3 Pt3'
_cell_volume   193.81848711
_cell_formula_units_Z   3
loop_
 _symmetry_equiv_pos_site_id
 _symmetry_equiv_pos_as_xyz
  1  'x, y, z'
loop_
 _atom_site_type_symbol
 _atom_site_label
 _atom_site_symmetry_multiplicity
 _atom_site_fract_x
 _atom_site_fract_y
 _atom_site_fract_z
 _atom_site_occupancy
  Gd  Gd0  1  0.59006624  0.58909526  0.00000000  1
  Gd  Gd1  1  0.40993376  0.99902902  0.00000000  1
  Gd  Gd2  1  0.00000000  0.41104631  0.00000000  1
  Mg  Mg0  1  0.00000000  0.75761314  0.50000000  1
  Mg  Mg1  1  0.24251025  0.24241455  0.50000000  1
  Mg  Mg2  1  0.75748975  0.99990430  0.50000000  1
  Pt  Pt0  1  0.00000000  0.00059764  -0.00000000  1
  Pt  Pt1  1  0.33332132  0.66681106  0.50000000  1
  Pt  Pt2  1  0.66667868  0.33348873  0.50000000  1
loop_
_geom_bond_atom_site_label_1
_geom_bond_atom_site_label_2
_geom_bond_distance
_geom_bond_site_symmetry_2
Gd0 Pt2 3.026368 1_555
Gd0 Pt2 3.026368 1_554
Gd0 Pt0 3.034563 1_665
Gd0 Pt1 3.036238 1_555
Gd0 Pt1 3.036238 1_554
Gd0 Mg1 3.283023 1_554
Gd0 Mg1 3.283023 1_555
Gd0 Mg0 3.339502 1_654
Gd0 Mg0 3.339502 1_655
Gd0 Mg2 3.345378 1_555
Gd0 Mg2 3.345378 1_554
Gd1 Pt1 3.026363 1_555
Gd1 Pt1 3.026363 1_554
Gd1 Pt0 3.034563 1_565
Gd1 Pt2 3.036234 1_565
Gd1 Pt2 3.036234 1_564
Gd1 Mg2 3.283023 1_555
Gd1 Mg2 3.283023 1_554
Gd1 Mg0 3.339502 1_555
Gd1 Mg0 3.339502 1_554
Gd1 Mg1 3.345377 1_564
Gd1 Mg1 3.345377 1_565
Gd2 Pt2 3.030246 1_455
Gd2 Pt2 3.030246 1_454
Gd2 Pt1 3.030248 1_555
Gd2 Pt1 3.030248 1_554
Gd2 Pt0 3.033272 1_555
Gd2 Mg0 3.280311 1_554
Gd2 Mg0 3.280311 1_555
Gd2 Mg1 3.346297 1_554
Gd2 Mg1 3.346297 1_555
Gd2 Mg2 3.346297 1_444
Gd2 Mg2 3.346297 1_445
Mg0 Pt0 2.724943 1_565
Mg0 Pt0 2.724943 1_566
Mg0 Pt1 2.858003 1_555
Mg0 Pt2 2.858008 1_455
Mg0 Mg2 3.102506 1_455
Mg0 Mg1 3.102506 1_565
Mg1 Pt0 2.720673 1_556
Mg1 Pt0 2.720673 1_555
Mg1 Pt2 2.857388 1_555
Mg1 Pt1 2.860424 1_555
Mg1 Mg2 3.103173 1_445
Mg2 Pt0 2.720673 1_665
Mg2 Pt0 2.720673 1_666
Mg2 Pt1 2.857386 1_555
Mg2 Pt2 2.860417 1_565
