# generated using pymatgen
data_MgV4O5F7
_symmetry_space_group_name_H-M   'P 1'
_cell_length_a   5.13941055
_cell_length_b   5.48539971
_cell_length_c   9.14724862
_cell_angle_alpha   72.23730118
_cell_angle_beta   91.11321987
_cell_angle_gamma   62.83169206
_symmetry_Int_Tables_number   1
_chemical_formula_structural   MgV4O5F7
_chemical_formula_sum   'Mg1 V4 O5 F7'
_cell_volume   214.61940396
_cell_formula_units_Z   1
loop_
 _symmetry_equiv_pos_site_id
 _symmetry_equiv_pos_as_xyz
  1  'x, y, z'
loop_
 _atom_site_type_symbol
 _atom_site_label
 _atom_site_symmetry_multiplicity
 _atom_site_fract_x
 _atom_site_fract_y
 _atom_site_fract_z
 _atom_site_occupancy
  Mg  Mg0  1  0.95340300  0.10527500  0.64623400  1
  V  V0  1  0.71560000  0.48577100  0.25545600  1
  V  V1  1  0.45070600  0.01966900  0.48482900  1
  V  V2  1  0.29995200  0.48399100  0.75731000  1
  V  V3  1  0.00703800  0.98999900  0.01740000  1
  O  O0  1  0.39393900  0.77135600  0.08081400  1
  O  O1  1  0.41143500  0.78342900  0.65635100  1
  O  O2  1  0.56371500  0.25800400  0.32764200  1
  O  O3  1  0.62256500  0.23392300  0.91470200  1
  O  O4  1  0.04253500  0.28113000  0.43707500  1
  F  F0  1  0.91954600  0.78502100  0.57995700  1
  F  F1  1  0.90558700  0.74567900  0.18079100  1
  F  F2  1  0.96558900  0.25856900  0.13435200  1
  F  F3  1  0.49196500  0.76856500  0.36712100  1
  F  F4  1  0.51560000  0.25670800  0.61551200  1
  F  F5  1  0.03368600  0.77402600  0.85957000  1
  F  F6  1  0.08213900  0.24888200  0.79917200  1
loop_
_geom_bond_atom_site_label_1
_geom_bond_atom_site_label_2
_geom_bond_distance
_geom_bond_site_symmetry_2
Mg0 O4 2.027887 1_655
Mg0 O1 2.182522 1_645
O0 V3 1.755465 1_555
O0 V0 1.935053 1_555
O1 V1 1.786687 1_565
O1 V2 1.957937 1_555
O2 V0 1.735978 1_555
O2 V1 1.921666 1_555
O3 V3 1.823113 1_646
O3 V2 1.824489 1_555
O4 V1 1.866278 1_555
O4 V0 1.968382 1_455
F0 Mg0 2.099705 1_565
F0 V2 2.115396 1_655
F0 V1 2.150063 1_565
F1 V3 1.935975 1_655
F1 V0 2.038514 1_555
F2 V0 1.966345 1_555
F2 V3 2.010986 1_645
F3 V1 1.936114 1_565
F3 V0 2.038349 1_555
F4 Mg0 1.989440 1_555
F4 V2 2.060521 1_555
F4 V1 2.135355 1_555
F5 V2 2.061147 1_555
F5 Mg0 2.097745 1_465
F5 V3 2.099919 1_556
F6 V2 2.024038 1_555
F6 Mg0 2.031692 1_455
F6 V3 2.225133 1_546
