# generated using pymatgen
data_As2Os
_symmetry_space_group_name_H-M   'P 1'
_cell_length_a   3.04327858
_cell_length_b   5.41927134
_cell_length_c   6.20976018
_cell_angle_alpha   90.00000000
_cell_angle_beta   90.00000000
_cell_angle_gamma   90.00000000
_symmetry_Int_Tables_number   1
_chemical_formula_structural   As2Os
_chemical_formula_sum   'As4 Os2'
_cell_volume   102.41355313
_cell_formula_units_Z   2
loop_
 _symmetry_equiv_pos_site_id
 _symmetry_equiv_pos_as_xyz
  1  'x, y, z'
loop_
 _atom_site_type_symbol
 _atom_site_label
 _atom_site_symmetry_multiplicity
 _atom_site_fract_x
 _atom_site_fract_y
 _atom_site_fract_z
 _atom_site_occupancy
  As  As0  1  0.50000000  0.32910561  0.86618519  1
  As  As1  1  0.50000000  0.67089439  0.13381481  1
  As  As2  1  -0.00000000  0.17089439  0.36618519  1
  As  As3  1  0.00000000  0.82910561  0.63381481  1
  Os  Os0  1  0.50000000  0.50000000  0.50000000  1
  Os  Os1  1  -0.00000000  -0.00000000  -0.00000000  1
loop_
_geom_bond_atom_site_label_1
_geom_bond_atom_site_label_2
_geom_bond_distance
_geom_bond_site_symmetry_2
As0 Os0 2.455285 1_555
As0 Os1 2.487327 1_556
As0 Os1 2.487327 1_656
As0 As1 2.488530 1_556
As1 Os0 2.455285 1_555
As1 Os1 2.487327 1_565
As1 Os1 2.487327 1_665
As2 Os1 2.455285 1_555
As2 Os0 2.487327 1_555
As2 Os0 2.487327 1_455
As2 As3 2.488530 1_545
As3 Os1 2.455285 1_566
As3 Os0 2.487327 1_555
As3 Os0 2.487327 1_455
