# generated using pymatgen
data_Na5Sc3Ti(PO4)6
_symmetry_space_group_name_H-M   'P 1'
_cell_length_a   8.93332386
_cell_length_b   8.92469524
_cell_length_c   22.45662043
_cell_angle_alpha   89.96000468
_cell_angle_beta   90.03516076
_cell_angle_gamma   120.01391169
_symmetry_Int_Tables_number   1
_chemical_formula_structural   Na5Sc3Ti(PO4)6
_chemical_formula_sum   'Na15 Sc9 Ti3 P18 O72'
_cell_volume   1550.31689377
_cell_formula_units_Z   3
loop_
 _symmetry_equiv_pos_site_id
 _symmetry_equiv_pos_as_xyz
  1  'x, y, z'
loop_
 _atom_site_type_symbol
 _atom_site_label
 _atom_site_symmetry_multiplicity
 _atom_site_fract_x
 _atom_site_fract_y
 _atom_site_fract_z
 _atom_site_occupancy
  Na  Na0  1  0.63721161  0.00024185  0.25360073  1
  Na  Na1  1  0.36341944  0.36372743  0.25420706  1
  Na  Na2  1  0.99937486  0.63669506  0.25383418  1
  Na  Na3  1  0.64180707  0.63827178  0.74960208  1
  Na  Na4  1  0.99875086  0.36028384  0.74992139  1
  Na  Na5  1  0.03302154  0.70047921  0.58096667  1
  Na  Na6  1  0.66426512  0.96520723  0.58076880  1
  Na  Na7  1  0.66424039  0.69998855  0.08076196  1
  Na  Na8  1  0.03402590  0.33236118  0.08073437  1
  Na  Na9  1  0.01093932  0.01217520  0.49605888  1
  Na  Na10  1  0.01072799  0.99895532  0.99442156  1
  Na  Na11  1  0.65534606  0.32142134  0.83474594  1
  Na  Na12  1  0.66705679  0.33370237  0.34071204  1
  Na  Na13  1  0.33256863  0.67835738  0.16553208  1
  Na  Na14  1  0.33343237  0.66553311  0.66529580  1
  Sc  Sc0  1  0.99924256  0.99903614  0.35645586  1
  Sc  Sc1  1  0.00164171  0.00080270  0.85363759  1
  Sc  Sc2  1  0.00982032  0.00762906  0.64835139  1
  Sc  Sc3  1  0.00686367  0.99922959  0.14613066  1
  Sc  Sc4  1  0.65797217  0.32676805  0.68487779  1
  Sc  Sc5  1  0.66430169  0.33053044  0.18295155  1
  Sc  Sc6  1  0.33292400  0.67256802  0.01574077  1
  Sc  Sc7  1  0.33237240  0.65903439  0.51538883  1
  Sc  Sc8  1  0.33332163  0.66599987  0.32299150  1
  Ti  Ti0  1  0.66551321  0.33314097  0.97682474  1
  Ti  Ti1  1  0.66383136  0.33249236  0.47939739  1
  Ti  Ti2  1  0.33361646  0.67372506  0.81925324  1
  P  P0  1  0.29246604  0.99832254  0.25071661  1
  P  P1  1  0.70600735  0.70752623  0.24863091  1
  P  P2  1  0.00158550  0.29402277  0.24881643  1
  P  P3  1  0.29403045  0.29885623  0.75279489  1
  P  P4  1  0.00713340  0.70815957  0.75044736  1
  P  P5  1  0.70157750  0.99498241  0.75067399  1
  P  P6  1  0.95495775  0.33336057  0.58325707  1
  P  P7  1  0.37625957  0.04423513  0.58091252  1
  P  P8  1  0.66516296  0.62239276  0.58340681  1
  P  P9  1  0.95540120  0.62141928  0.08144651  1
  P  P10  1  0.66478930  0.04294799  0.08169861  1
  P  P11  1  0.37703956  0.33186939  0.08086460  1
  P  P12  1  0.62416923  0.66237408  0.91769036  1
  P  P13  1  0.03772886  0.37589249  0.91808715  1
  P  P14  1  0.33786764  0.96319434  0.91759387  1
  P  P15  1  0.63074111  0.96931607  0.41874885  1
  P  P16  1  0.33868771  0.36872350  0.41690327  1
  P  P17  1  0.03050625  0.66104080  0.41890598  1
  O  O0  1  0.20833621  0.03069970  0.30447114  1
  O  O1  1  0.82541663  0.79547966  0.30159424  1
  O  O2  1  0.97088102  0.17465389  0.30173530  1
  O  O3  1  0.20778618  0.18618725  0.80686421  1
  O  O4  1  0.97218307  0.79580477  0.80262199  1
  O  O5  1  0.82321131  0.02678030  0.80307864  1
  O  O6  1  0.77656834  0.95936558  0.69315813  1
  O  O7  1  0.17862566  0.21894308  0.69686057  1
  O  O8  1  0.03450404  0.81114703  0.69200165  1
  O  O9  1  0.78487918  0.81428991  0.19067055  1
  O  O10  1  0.02978208  0.21538413  0.19087628  1
  O  O11  1  0.17988714  0.96826507  0.19456339  1
  O  O12  1  0.87698441  0.35998460  0.64114441  1
  O  O13  1  0.48706013  0.12494922  0.63684251  1
  O  O14  1  0.64475852  0.52349201  0.64188226  1
  O  O15  1  0.87715456  0.51744558  0.13954834  1
  O  O16  1  0.64437104  0.12053258  0.14046581  1
  O  O17  1  0.48106267  0.35935502  0.13894338  1
  O  O18  1  0.47733783  0.31530804  0.02727921  1
  O  O19  1  0.83369704  0.52226471  0.02824379  1
  O  O20  1  0.68720691  0.16471669  0.02865089  1
  O  O21  1  0.47205915  0.15861910  0.52646913  1
  O  O22  1  0.68771771  0.52396642  0.53026917  1
  O  O23  1  0.83333222  0.30965037  0.53010531  1
  O  O24  1  0.54259398  0.68548475  0.97431795  1
  O  O25  1  0.14279454  0.45693886  0.97472172  1
  O  O26  1  0.31278122  0.85423678  0.97252408  1
  O  O27  1  0.54209977  0.85752515  0.47363570  1
  O  O28  1  0.31425665  0.46214600  0.46952326  1
  O  O29  1  0.14253946  0.68492544  0.47377912  1
  O  O30  1  0.11178634  0.63351795  0.36149601  1
  O  O31  1  0.52232528  0.88765608  0.36132930  1
  O  O32  1  0.36717570  0.47407292  0.35857572  1
  O  O33  1  0.13303385  0.49499084  0.86273026  1
  O  O34  1  0.36102877  0.86526216  0.86271803  1
  O  O35  1  0.50611839  0.63976630  0.86225663  1
  O  O36  1  0.00930928  0.82039681  0.41281441  1
  O  O37  1  0.81119869  0.99054501  0.41277337  1
  O  O38  1  0.17943995  0.18827525  0.41216066  1
  O  O39  1  0.01451835  0.19539480  0.91060324  1
  O  O40  1  0.18035128  0.98456641  0.90968629  1
  O  O41  1  0.80475992  0.81953799  0.91032070  1
  O  O42  1  0.96439311  0.16484381  0.58684734  1
  O  O43  1  0.19338961  0.02170844  0.58539387  1
  O  O44  1  0.83369147  0.80345865  0.58579791  1
  O  O45  1  0.96404638  0.79867528  0.08423674  1
  O  O46  1  0.83312146  0.03078865  0.08388678  1
  O  O47  1  0.19373619  0.17207498  0.08362957  1
  O  O48  1  0.68542891  0.15867204  0.74512752  1
  O  O49  1  0.47961721  0.33001484  0.74628518  1
  O  O50  1  0.84568559  0.52315407  0.74580924  1
  O  O51  1  0.68392827  0.52331171  0.24405265  1
  O  O52  1  0.83924462  0.31553146  0.24439384  1
  O  O53  1  0.47568521  0.16048677  0.24448035  1
  O  O54  1  0.63647532  0.49335985  0.92293562  1
  O  O55  1  0.85669048  0.36344496  0.92351323  1
  O  O56  1  0.50659779  0.14233598  0.92257754  1
  O  O57  1  0.64697677  0.15100048  0.42560778  1
  O  O58  1  0.50445747  0.35472593  0.42571323  1
  O  O59  1  0.84929784  0.49570724  0.42635298  1
  O  O60  1  0.35814752  0.49535816  0.07651208  1
  O  O61  1  0.13367157  0.63589583  0.07650325  1
  O  O62  1  0.51004852  0.85779768  0.07728916  1
  O  O63  1  0.35602086  0.86118203  0.57639715  1
  O  O64  1  0.51022141  0.65276389  0.57787518  1
  O  O65  1  0.13392503  0.49739894  0.57712387  1
  O  O66  1  0.31312222  0.83590994  0.25599332  1
  O  O67  1  0.52400420  0.68867661  0.25496345  1
  O  O68  1  0.16397379  0.47702830  0.25498080  1
  O  O69  1  0.31122069  0.48301278  0.75958962  1
  O  O70  1  0.16721057  0.68269904  0.75999167  1
  O  O71  1  0.52130290  0.82809581  0.76040373  1
loop_
_geom_bond_atom_site_label_1
_geom_bond_atom_site_label_2
_geom_bond_distance
_geom_bond_site_symmetry_2
Na0 O67 2.437666 1_545
Na0 O52 2.477287 1_555
Na0 O53 2.496624 1_555
Na0 O66 2.507621 1_545
Na0 O31 2.623651 1_545
Na0 O16 2.745744 1_555
Na0 O2 2.798755 1_555
Na0 O9 2.947404 1_545
Na1 O68 2.449433 1_555
Na1 O53 2.482810 1_555
Na1 O51 2.489812 1_555
Na1 O67 2.511301 1_555
Na1 O32 2.536586 1_555
Na1 O17 2.801874 1_555
Na1 O0 2.811600 1_555
Na1 O10 2.951028 1_555
Na2 O66 2.456375 1_655
Na2 O51 2.481947 1_555
Na2 O52 2.491065 1_555
Na2 O68 2.507875 1_655
Na2 O30 2.622980 1_655
Na2 O15 2.783780 1_555
Na2 O1 2.789410 1_555
Na2 O11 2.889967 1_655
Na3 O49 2.384495 1_555
Na3 O71 2.431694 1_555
Na3 O50 2.500453 1_555
Na3 O69 2.568743 1_555
Na3 O14 2.632920 1_555
Na3 O6 2.795257 1_555
Na3 O35 2.808837 1_555
Na3 O4 2.819869 1_555
Na4 O50 2.445239 1_555
Na4 O69 2.445318 1_655
Na4 O48 2.458670 1_555
Na4 O70 2.502801 1_655
Na4 O12 2.672865 1_555
Na4 O7 2.761402 1_655
Na4 O33 2.803522 1_655
Na4 O5 2.840961 1_555
Na5 O44 2.380101 1_455
Na5 O65 2.395748 1_555
Na5 O43 2.484472 1_565
Na5 O63 2.500684 1_555
Na5 O29 2.628624 1_555
Na5 O8 2.680184 1_555
Na5 O22 2.903444 1_455
Na5 O12 2.960164 1_455
Na6 O42 2.366958 1_565
Na6 O64 2.415516 1_555
Na6 O63 2.428244 1_555
Na6 O44 2.563743 1_555
Na6 O27 2.617911 1_555
Na6 O6 2.725479 1_555
Na6 O23 2.894435 1_565
Na6 O13 2.896006 1_565
Na7 O45 2.365349 1_555
Na7 O60 2.413602 1_555
Na7 O62 2.414032 1_555
Na7 O46 2.557593 1_565
Na7 O24 2.601555 1_554
Na7 O9 2.682232 1_555
Na7 O19 2.933477 1_555
Na7 O17 2.940587 1_555
Na8 O46 2.374319 1_455
Na8 O61 2.393150 1_555
Na8 O47 2.475429 1_555
Na8 O60 2.509040 1_555
Na8 O25 2.601214 1_554
Na8 O10 2.676946 1_555
Na8 O20 2.926808 1_455
Na8 O15 2.959380 1_455
Na9 O38 2.432739 1_555
Na9 O37 2.524091 1_445
Na9 O36 2.530569 1_545
Na9 O43 2.558506 1_555
Na9 O42 2.599574 1_455
Na9 O44 2.661973 1_445
Na10 O40 2.476304 1_555
Na10 O47 2.558614 1_566
Na10 O39 2.560034 1_565
Na10 O41 2.562979 1_455
Na10 O45 2.585961 1_456
Na10 O46 2.662735 1_466
Na11 O56 2.466723 1_555
Na11 O49 2.555973 1_555
Na11 O54 2.562948 1_555
Na11 O48 2.574385 1_555
Na11 O55 2.582897 1_555
Na11 O50 2.656706 1_555
Na12 O57 2.455402 1_555
Na12 O58 2.462791 1_555
Na12 O59 2.466743 1_555
Na12 O52 2.706475 1_555
Na12 O51 2.708890 1_555
Na12 O53 2.709011 1_555
Na13 O66 2.526444 1_555
Na13 O62 2.542553 1_555
Na13 O61 2.573110 1_555
Na13 O67 2.608633 1_555
Na13 O68 2.612118 1_555
Na13 O60 2.663536 1_555
Na14 O64 2.558405 1_555
Na14 O65 2.583215 1_555
Na14 O63 2.591950 1_555
Na14 O69 2.617069 1_555
Na14 O70 2.642454 1_555
Na14 O71 2.654663 1_555
O0 P0 1.524597 1_545
O0 Sc0 2.099020 1_445
O1 P1 1.526675 1_555
O1 Sc0 2.099538 1_555
O2 P2 1.526010 1_655
O2 Sc0 2.103563 1_545
O3 P3 1.517700 1_555
O3 Sc1 2.045432 1_555
O4 P4 1.525839 1_655
O4 Sc1 2.061518 1_665
O5 P5 1.528581 1_545
O5 Sc1 2.061729 1_655
O6 P5 1.559732 1_555
O6 Sc2 2.154975 1_665
O7 P3 1.553501 1_555
O7 Sc2 2.042820 1_555
O8 P4 1.549550 1_555
O8 Sc2 2.113898 1_565
O9 P1 1.557639 1_555
O9 Sc3 2.093528 1_655
O10 P2 1.558046 1_555
O10 Sc3 2.092944 1_545
O11 P0 1.550022 1_555
O11 Sc3 2.018235 1_555
O12 P6 1.548761 1_555
O12 Sc4 2.074135 1_555
O13 P7 1.537074 1_555
O13 Sc4 1.997116 1_555
O14 P8 1.540916 1_555
O14 Sc4 2.057548 1_555
O15 P9 1.550039 1_555
O15 Sc5 2.043309 1_555
O16 P10 1.543464 1_555
O16 Sc5 2.030503 1_555
O17 P11 1.547807 1_555
O17 Sc5 2.035032 1_555
O18 P11 1.551374 1_555
O18 Ti0 1.967079 1_554
O19 P9 1.558829 1_555
O19 Ti0 1.975643 1_554
O20 P10 1.555961 1_555
O20 Ti0 1.984995 1_554
O21 P7 1.547528 1_555
O21 Ti1 1.949537 1_555
O22 P8 1.554027 1_555
O22 Ti1 1.976973 1_555
O23 P6 1.555235 1_555
O23 Ti1 1.984302 1_555
O24 P12 1.530557 1_555
O24 Sc6 2.042764 1_556
O25 P13 1.530456 1_555
O25 Sc6 2.041410 1_556
O26 P14 1.515948 1_555
O26 Sc6 1.972929 1_556
O27 P15 1.533230 1_555
O27 Sc7 2.051093 1_555
O28 P16 1.524099 1_555
O28 Sc7 1.972951 1_555
O29 P17 1.533297 1_555
O29 Sc7 2.047478 1_555
O30 P17 1.558751 1_555
O30 Sc8 2.043560 1_555
O31 P15 1.557393 1_555
O31 Sc8 2.040699 1_555
O32 P16 1.556842 1_555
O32 Sc8 2.044518 1_555
O33 P13 1.579286 1_555
O33 Ti2 1.961892 1_555
O34 P14 1.583689 1_555
O34 Ti2 1.875639 1_555
O35 P12 1.577464 1_555
O35 Ti2 1.965751 1_555
O36 P17 1.531780 1_555
O36 Sc0 2.071754 1_455
O37 P15 1.532122 1_555
O37 Sc0 2.074186 1_555
O38 P16 1.528644 1_555
O38 Sc0 2.071034 1_445
O39 P13 1.527212 1_555
O39 Sc1 2.113962 1_555
O40 P14 1.521883 1_555
O40 Sc1 2.093481 1_565
O41 P12 1.527630 1_555
O41 Sc1 2.117584 1_665
O42 P6 1.549886 1_555
O42 Sc2 2.146449 1_655
O43 P7 1.546259 1_555
O43 Sc2 2.121398 1_555
O44 P8 1.564268 1_555
O44 Sc2 2.214009 1_665
O45 P9 1.546086 1_555
O45 Sc3 2.144714 1_655
O46 P10 1.561621 1_555
O46 Sc3 2.208227 1_645
O47 P11 1.543645 1_555
O47 Sc3 2.135423 1_545
O48 P5 1.543067 1_545
O48 Sc4 2.122802 1_555
O49 P3 1.544787 1_555
O49 Sc4 2.118972 1_555
O50 P4 1.560408 1_655
O50 Sc4 2.194632 1_555
O51 P1 1.558269 1_555
O51 Sc5 2.138890 1_555
O52 P2 1.558274 1_655
O52 Sc5 2.137879 1_555
O53 P0 1.556709 1_545
O53 Sc5 2.119703 1_555
O54 P12 1.570625 1_555
O54 Ti0 1.986128 1_555
O55 P13 1.569474 1_655
O55 Ti0 1.990764 1_555
O56 P14 1.558782 1_545
O56 Ti0 1.995366 1_555
O57 P15 1.561729 1_545
O57 Ti1 1.965685 1_555
O58 P16 1.559621 1_555
O58 Ti1 1.949354 1_555
O59 P17 1.560795 1_655
O59 Ti1 1.967594 1_555
O60 P11 1.553417 1_555
O60 Sc6 2.183492 1_555
O61 P9 1.536091 1_455
O61 Sc6 2.134696 1_555
O62 P10 1.538196 1_565
O62 Sc6 2.128510 1_555
O63 P7 1.554554 1_565
O63 Sc7 2.190489 1_555
O64 P8 1.542669 1_555
O64 Sc7 2.140684 1_555
O65 P6 1.541665 1_455
O65 Sc7 2.141856 1_555
O66 P0 1.554481 1_555
O66 Sc8 2.205884 1_555
O67 P1 1.555207 1_555
O67 Sc8 2.221330 1_555
O68 P2 1.555927 1_555
O68 Sc8 2.216730 1_555
O69 P3 1.579847 1_555
O69 Ti2 2.096274 1_555
O70 P4 1.570721 1_555
O70 Ti2 2.025800 1_555
O71 P5 1.568434 1_555
O71 Ti2 2.035942 1_555
