# generated using pymatgen
data_MnF3
_symmetry_space_group_name_H-M   'P 1'
_cell_length_a   8.35467472
_cell_length_b   8.35468907
_cell_length_c   4.59122892
_cell_angle_alpha   90.00013639
_cell_angle_beta   90.00007131
_cell_angle_gamma   60.00010243
_symmetry_Int_Tables_number   1
_chemical_formula_structural   MnF3
_chemical_formula_sum   'Mn6 F18'
_cell_volume   277.53634486
_cell_formula_units_Z   6
loop_
 _symmetry_equiv_pos_site_id
 _symmetry_equiv_pos_as_xyz
  1  'x, y, z'
loop_
 _atom_site_type_symbol
 _atom_site_label
 _atom_site_symmetry_multiplicity
 _atom_site_fract_x
 _atom_site_fract_y
 _atom_site_fract_z
 _atom_site_occupancy
  Mn  Mn0  1  -0.00000550  0.66671446  0.00001444  1
  Mn  Mn1  1  0.33329131  0.66670869  0.50000000  1
  Mn  Mn2  1  0.00000065  0.33330229  0.50001326  1
  Mn  Mn3  1  0.66670883  0.33329117  -0.00000000  1
  Mn  Mn4  1  0.33328654  0.00000350  -0.00001244  1
  Mn  Mn5  1  0.66669771  0.00000135  0.49998874  1
  F  F0  1  0.23954970  0.87993228  0.25056112  1
  F  F1  1  0.12006772  0.76045030  0.74943788  1
  F  F2  1  0.42681393  0.78615540  0.74961691  1
  F  F3  1  0.21384260  0.57318707  0.25038209  1
  F  F4  1  0.54708920  0.90650465  0.25066405  1
  F  F5  1  0.09349535  0.45291180  0.74933895  1
  F  F6  1  0.54645422  0.54708330  0.25064724  1
  F  F7  1  0.45291670  0.45354578  0.74935376  1
  F  F8  1  0.87987942  0.88055478  0.25061981  1
  F  F9  1  0.11944522  0.12012158  0.74937819  1
  F  F10  1  0.78611764  0.78708546  0.74958798  1
  F  F11  1  0.21291554  0.21387936  0.25041202  1
  F  F12  1  0.78709061  0.42680299  0.74956394  1
  F  F13  1  0.57319701  0.21290939  0.25043506  1
  F  F14  1  0.45358342  0.09350845  0.74932416  1
  F  F15  1  0.90649055  0.54641558  0.25067384  1
  F  F16  1  0.88057402  0.23955241  0.25063883  1
  F  F17  1  0.76044859  0.11942498  0.74935917  1
loop_
_geom_bond_atom_site_label_1
_geom_bond_atom_site_label_2
_geom_bond_distance
_geom_bond_site_symmetry_2
F0 Mn1 1.924373 1_555
F0 Mn4 1.931002 1_565
F1 Mn1 1.924366 1_555
F1 Mn0 1.931016 1_556
F2 Mn1 1.923422 1_555
F2 Mn4 1.930788 1_566
F3 Mn1 1.923431 1_555
F3 Mn0 1.930779 1_555
F4 Mn5 1.923455 1_565
F4 Mn4 1.931363 1_565
F5 Mn2 1.923453 1_555
F5 Mn0 1.931360 1_556
F6 Mn1 1.923864 1_555
F6 Mn3 1.931202 1_555
F7 Mn1 1.923870 1_555
F7 Mn3 1.931199 1_556
F8 Mn5 1.923929 1_565
F8 Mn0 1.931288 1_655
F9 Mn2 1.923915 1_555
F9 Mn4 1.931306 1_556
F10 Mn5 1.923071 1_565
F10 Mn0 1.931125 1_656
F11 Mn2 1.923068 1_555
F11 Mn4 1.931114 1_555
F12 Mn2 1.922896 1_655
F12 Mn3 1.931250 1_556
F13 Mn5 1.922896 1_555
F13 Mn3 1.931248 1_555
F14 Mn5 1.923537 1_555
F14 Mn4 1.931321 1_556
F15 Mn2 1.923545 1_655
F15 Mn0 1.931317 1_655
F16 Mn2 1.923902 1_655
F16 Mn3 1.931522 1_555
F17 Mn5 1.923879 1_555
F17 Mn3 1.931534 1_556
