# generated using pymatgen
data_MgV4O10
_symmetry_space_group_name_H-M   'P 1'
_cell_length_a   3.72646200
_cell_length_b   6.60506564
_cell_length_c   7.37688116
_cell_angle_alpha   89.66837728
_cell_angle_beta   90.00000000
_cell_angle_gamma   90.00000000
_symmetry_Int_Tables_number   1
_chemical_formula_structural   MgV4O10
_chemical_formula_sum   'Mg1 V4 O10'
_cell_volume   181.56801583
_cell_formula_units_Z   1
loop_
 _symmetry_equiv_pos_site_id
 _symmetry_equiv_pos_as_xyz
  1  'x, y, z'
loop_
 _atom_site_type_symbol
 _atom_site_label
 _atom_site_symmetry_multiplicity
 _atom_site_fract_x
 _atom_site_fract_y
 _atom_site_fract_z
 _atom_site_occupancy
  Mg  Mg0  1  0.25000000  0.98084800  0.56638600  1
  V  V0  1  0.75000100  0.71178500  0.75634400  1
  V  V1  1  0.25000100  0.27359300  0.24886300  1
  V  V2  1  0.75000100  0.19509600  0.91254900  1
  V  V3  1  0.25000100  0.80510800  0.09197100  1
  O  O0  1  0.25000100  0.75686700  0.81792600  1
  O  O1  1  0.75000100  0.25885700  0.16633400  1
  O  O2  1  0.75000100  0.03689600  0.71222600  1
  O  O3  1  0.25000100  0.95867100  0.28489600  1
  O  O4  1  0.75000100  0.42995600  0.81923300  1
  O  O5  1  0.25000100  0.56761400  0.17425500  1
  O  O6  1  0.25000100  0.14923400  0.96589000  1
  O  O7  1  0.75000100  0.72420200  0.53024300  1
  O  O8  1  0.25000100  0.27727900  0.47491800  1
  O  O9  1  0.75000100  0.84274300  0.02796700  1
loop_
_geom_bond_atom_site_label_1
_geom_bond_atom_site_label_2
_geom_bond_distance
_geom_bond_site_symmetry_2
Mg0 O8 2.067256 1_565
Mg0 O3 2.082524 1_555
Mg0 O2 2.184197 1_465
Mg0 O2 2.184203 1_565
Mg0 O0 2.366443 1_555
Mg0 O7 2.534071 1_455
Mg0 O7 2.534076 1_555
O0 V0 1.941194 1_455
O0 V0 1.941194 1_555
O0 V3 2.048375 1_556
O1 V2 1.921303 1_554
O1 V1 1.962762 1_655
O1 V1 1.962762 1_555
O2 V2 1.814802 1_555
O2 V0 2.170039 1_545
O3 V3 1.752415 1_555
O3 V1 2.095469 1_565
O4 V2 1.693497 1_555
O4 V0 1.915831 1_555
O5 V3 1.678729 1_555
O5 V1 2.015443 1_555
O6 V2 1.927912 1_455
O6 V2 1.927912 1_555
O6 V1 2.247671 1_556
O6 V3 2.450918 1_546
O7 V0 1.669461 1_555
O8 V1 1.667899 1_555
O9 V3 1.937780 1_655
O9 V3 1.937780 1_555
O9 V0 2.187053 1_554
O9 V2 2.473536 1_564
