# generated using pymatgen
data_Rb4MgTi2(CuS2)4
_symmetry_space_group_name_H-M   'P 1'
_cell_length_a   5.91277093
_cell_length_b   5.78789193
_cell_length_c   13.40529348
_cell_angle_alpha   90.00000000
_cell_angle_beta   90.00000000
_cell_angle_gamma   83.84814378
_symmetry_Int_Tables_number   1
_chemical_formula_structural   Rb4MgTi2(CuS2)4
_chemical_formula_sum   'Rb4 Mg1 Ti2 Cu4 S8'
_cell_volume   456.12052939
_cell_formula_units_Z   1
loop_
 _symmetry_equiv_pos_site_id
 _symmetry_equiv_pos_as_xyz
  1  'x, y, z'
loop_
 _atom_site_type_symbol
 _atom_site_label
 _atom_site_symmetry_multiplicity
 _atom_site_fract_x
 _atom_site_fract_y
 _atom_site_fract_z
 _atom_site_occupancy
  Rb  Rb0  1  0.75888593  0.75984345  0.00000000  1
  Rb  Rb1  1  0.31173355  0.84004380  0.50000000  1
  Rb  Rb2  1  0.68826645  0.15995620  0.50000000  1
  Rb  Rb3  1  0.24111407  0.24015655  0.00000000  1
  Mg  Mg0  1  -0.00000000  0.50000000  0.50000000  1
  Ti  Ti0  1  0.50000000  0.50000000  0.75405480  1
  Ti  Ti1  1  0.50000000  0.50000000  0.24594520  1
  Cu  Cu0  1  -0.00000000  0.50000000  0.75479819  1
  Cu  Cu1  1  0.50000000  -0.00000000  0.75475982  1
  Cu  Cu2  1  -0.00000000  0.50000000  0.24520181  1
  Cu  Cu3  1  0.50000000  -0.00000000  0.24524018  1
  S  S0  1  0.72734853  0.71471537  0.65542347  1
  S  S1  1  0.27265147  0.28528463  0.65542347  1
  S  S2  1  0.72734853  0.71471537  0.34457653  1
  S  S3  1  0.74559114  0.25154712  0.15603146  1
  S  S4  1  0.25440886  0.74845288  0.84396854  1
  S  S5  1  0.27265147  0.28528463  0.34457653  1
  S  S6  1  0.25440886  0.74845288  0.15603146  1
  S  S7  1  0.74559114  0.25154712  0.84396854  1
loop_
_geom_bond_atom_site_label_1
_geom_bond_atom_site_label_2
_geom_bond_distance
_geom_bond_site_symmetry_2
Rb0 S3 3.525979 1_565
Rb0 S7 3.525979 1_564
Rb0 S4 3.594764 1_654
Rb0 S6 3.594764 1_655
Rb0 S3 3.617442 1_555
Rb0 S7 3.617442 1_554
Rb0 S6 3.649510 1_555
Rb0 S4 3.649510 1_554
Rb1 S0 3.244084 1_555
Rb1 S2 3.244084 1_555
Rb1 S1 3.302679 1_565
Rb1 S5 3.302679 1_565
Rb2 S1 3.244084 1_555
Rb2 S5 3.244084 1_555
Rb2 S2 3.302679 1_545
Rb2 S0 3.302679 1_545
Rb3 S4 3.525979 1_544
Rb3 S6 3.525979 1_545
Rb3 S3 3.594764 1_455
Rb3 S7 3.594764 1_454
Rb3 S6 3.617442 1_555
Rb3 S4 3.617442 1_554
Rb3 S3 3.649510 1_555
Rb3 S7 3.649510 1_554
Mg0 Rb1 2.836987 1_555
Mg0 Rb2 2.836987 1_455
Mg0 S0 2.838122 1_455
Mg0 S1 2.838122 1_555
Mg0 S5 2.838122 1_555
Mg0 S2 2.838122 1_455
Cu0 S0 2.342775 1_455
Cu0 S1 2.342775 1_555
Cu0 S7 2.494634 1_455
Cu0 S4 2.494634 1_555
Cu1 S0 2.414746 1_545
Cu1 S1 2.414746 1_555
Cu1 S7 2.472169 1_555
Cu1 S4 2.472169 1_545
Cu2 S2 2.342775 1_455
Cu2 S5 2.342775 1_555
Cu2 S6 2.494634 1_555
Cu2 S3 2.494634 1_455
Cu3 S5 2.414746 1_555
Cu3 S2 2.414746 1_545
Cu3 S3 2.472169 1_555
Cu3 S6 2.472169 1_545
S0 Ti0 2.336167 1_555
S1 Ti0 2.336167 1_555
S2 Ti1 2.336167 1_555
S3 Ti1 2.276357 1_555
S4 Ti0 2.276357 1_555
S5 Ti1 2.336167 1_555
S6 Ti1 2.276357 1_555
S7 Ti0 2.276357 1_555
