# generated using pymatgen
data_MgTi2(CoO2)4
_symmetry_space_group_name_H-M   'P 1'
_cell_length_a   6.21203819
_cell_length_b   6.04325307
_cell_length_c   6.41656521
_cell_angle_alpha   57.93060370
_cell_angle_beta   58.89564786
_cell_angle_gamma   61.37077480
_symmetry_Int_Tables_number   1
_chemical_formula_structural   MgTi2(CoO2)4
_chemical_formula_sum   'Mg1 Ti2 Co4 O8'
_cell_volume   167.66791485
_cell_formula_units_Z   1
loop_
 _symmetry_equiv_pos_site_id
 _symmetry_equiv_pos_as_xyz
  1  'x, y, z'
loop_
 _atom_site_type_symbol
 _atom_site_label
 _atom_site_symmetry_multiplicity
 _atom_site_fract_x
 _atom_site_fract_y
 _atom_site_fract_z
 _atom_site_occupancy
  Mg  Mg0  1  0.16148932  0.17057878  0.83429305  1
  Ti  Ti0  1  0.17796713  0.71239295  0.55477791  1
  Ti  Ti1  1  0.69682230  0.11938834  0.59190746  1
  Co  Co0  1  0.82575389  0.86859815  0.15281671  1
  Co  Co1  1  0.26704957  0.32045667  0.20628849  1
  Co  Co2  1  0.64038406  0.60172826  0.10718490  1
  Co  Co3  1  0.64086495  0.60144453  0.65073370  1
  O  O0  1  0.34780410  0.39367048  0.43068712  1
  O  O1  1  0.41972231  0.90429424  0.33758507  1
  O  O2  1  0.34803030  0.39388966  0.82771718  1
  O  O3  1  0.85625506  0.42295491  0.36027579  1
  O  O4  1  0.46665486  0.86857062  0.83234477  1
  O  O5  1  0.79576463  0.34265227  0.93092132  1
  O  O6  1  0.91743410  0.87918584  0.39477347  1
  O  O7  1  0.91716943  0.87936030  0.80852703  1
loop_
_geom_bond_atom_site_label_1
_geom_bond_atom_site_label_2
_geom_bond_distance
_geom_bond_site_symmetry_2
Mg0 O5 1.895421 1_455
Mg0 O4 1.899762 1_545
Mg0 O2 2.133872 1_555
Mg0 O0 2.134217 1_555
Co0 O6 1.947501 1_555
Co0 O7 1.947751 1_554
Co0 O1 2.115322 1_555
Co0 O3 2.241783 1_555
Co0 O5 2.387546 1_564
Co1 O0 2.038656 1_555
Co1 O2 2.038955 1_554
Co1 O1 2.055292 1_545
Co1 O3 2.098108 1_455
Co2 O5 1.991586 1_554
Co2 O4 2.038138 1_554
Co2 O3 2.145086 1_555
Co2 O0 2.171067 1_555
Co2 O7 2.321552 1_554
Co2 O1 2.404748 1_555
Co3 O5 1.990880 1_555
Co3 O4 2.038541 1_555
Co3 O3 2.145354 1_555
Co3 O2 2.170620 1_555
Co3 O6 2.321010 1_555
Co3 O1 2.410762 1_555
O0 Ti0 2.066474 1_555
O0 Ti1 2.360300 1_555
O1 Ti0 1.825604 1_555
O2 Ti0 2.066755 1_555
O2 Ti1 2.360027 1_555
O3 Ti1 1.969843 1_555
O4 Ti1 2.009114 1_565
O6 Ti0 1.934945 1_655
O6 Ti1 1.959009 1_565
O7 Ti0 1.935593 1_655
O7 Ti1 1.957488 1_565
