# generated using pymatgen
data_CeSe
_symmetry_space_group_name_H-M   'P 1'
_cell_length_a   4.27226876
_cell_length_b   4.27226839
_cell_length_c   4.27226769
_cell_angle_alpha   59.99999677
_cell_angle_beta   59.99999975
_cell_angle_gamma   60.00000689
_symmetry_Int_Tables_number   1
_chemical_formula_structural   CeSe
_chemical_formula_sum   'Ce1 Se1'
_cell_volume   55.13921303
_cell_formula_units_Z   1
loop_
 _symmetry_equiv_pos_site_id
 _symmetry_equiv_pos_as_xyz
  1  'x, y, z'
loop_
 _atom_site_type_symbol
 _atom_site_label
 _atom_site_symmetry_multiplicity
 _atom_site_fract_x
 _atom_site_fract_y
 _atom_site_fract_z
 _atom_site_occupancy
  Ce  Ce0  1  -0.00000000  -0.00000000  0.00000000  1
  Se  Se0  1  0.50000000  0.50000000  0.50000000  1
loop_
_geom_bond_atom_site_label_1
_geom_bond_atom_site_label_2
_geom_bond_distance
_geom_bond_site_symmetry_2
Ce0 Se0 3.020950 1_554
Ce0 Se0 3.020950 1_445
Ce0 Se0 3.020950 1_454
Ce0 Se0 3.020950 1_545
Ce0 Se0 3.020950 1_455
Ce0 Se0 3.020950 1_544
