# generated using pymatgen
data_CdCoH18N6Cl5
_symmetry_space_group_name_H-M   'P 1'
_cell_length_a   16.04982289
_cell_length_b   16.04982286
_cell_length_c   16.04982318
_cell_angle_alpha   60.00000149
_cell_angle_beta   60.00000154
_cell_angle_gamma   60.00000220
_symmetry_Int_Tables_number   1
_chemical_formula_structural   CdCoH18N6Cl5
_chemical_formula_sum   'Cd8 Co8 H144 N48 Cl40'
_cell_volume   2923.45059884
_cell_formula_units_Z   8
loop_
 _symmetry_equiv_pos_site_id
 _symmetry_equiv_pos_as_xyz
  1  'x, y, z'
loop_
 _atom_site_type_symbol
 _atom_site_label
 _atom_site_symmetry_multiplicity
 _atom_site_fract_x
 _atom_site_fract_y
 _atom_site_fract_z
 _atom_site_occupancy
  H  H0  1  0.95373254  0.05192819  0.15038552  1
  H  H1  1  0.44807181  0.34961448  0.15604625  1
  H  H2  1  0.15604625  0.54626746  0.44807181  1
  H  H3  1  0.44807181  0.15604625  0.54626746  1
  H  H4  1  0.34961448  0.54626746  0.15604625  1
  H  H5  1  0.34961448  0.15604625  0.44807181  1
  H  H6  1  0.15604625  0.34961448  0.54626746  1
  H  H7  1  0.15038552  0.95373254  0.05192819  1
  H  H8  1  0.05192819  0.15038552  0.95373254  1
  H  H9  1  0.34395375  0.95373254  0.15038552  1
  H  H10  1  0.05192819  0.34395375  0.15038552  1
  H  H11  1  0.34395375  0.05192819  0.95373254  1
  H  H12  1  0.15038552  0.05192819  0.34395375  1
  H  H13  1  0.95373254  0.15038552  0.34395375  1
  H  H14  1  0.95373254  0.34395375  0.05192819  1
  H  H15  1  0.15604625  0.44807181  0.34961448  1
  H  H16  1  0.54626746  0.15604625  0.34961448  1
  H  H17  1  0.54626746  0.44807181  0.15604625  1
  H  H18  1  0.44807181  0.54626746  0.34961448  1
  H  H19  1  0.34961448  0.44807181  0.54626746  1
  H  H20  1  0.54626746  0.34961448  0.44807181  1
  H  H21  1  0.15038552  0.34395375  0.95373254  1
  H  H22  1  0.34395375  0.15038552  0.05192819  1
  H  H23  1  0.05192819  0.95373254  0.34395375  1
  H  H24  1  0.04626746  0.94807181  0.84961448  1
  H  H25  1  0.55192819  0.65038552  0.84395375  1
  H  H26  1  0.84395375  0.45373254  0.55192819  1
  H  H27  1  0.55192819  0.84395375  0.45373254  1
  H  H28  1  0.65038552  0.45373254  0.84395375  1
  H  H29  1  0.65038552  0.84395375  0.55192819  1
  H  H30  1  0.84395375  0.65038552  0.45373254  1
  H  H31  1  0.84961448  0.04626746  0.94807181  1
  H  H32  1  0.94807181  0.84961448  0.04626746  1
  H  H33  1  0.65604625  0.04626746  0.84961448  1
  H  H34  1  0.94807181  0.65604625  0.84961448  1
  H  H35  1  0.65604625  0.94807181  0.04626746  1
  H  H36  1  0.84961448  0.94807181  0.65604625  1
  H  H37  1  0.04626746  0.84961448  0.65604625  1
  H  H38  1  0.04626746  0.65604625  0.94807181  1
  H  H39  1  0.84395375  0.55192819  0.65038552  1
  H  H40  1  0.45373254  0.84395375  0.65038552  1
  H  H41  1  0.45373254  0.55192819  0.84395375  1
  H  H42  1  0.55192819  0.45373254  0.65038552  1
  H  H43  1  0.65038552  0.55192819  0.45373254  1
  H  H44  1  0.45373254  0.65038552  0.55192819  1
  H  H45  1  0.84961448  0.65604625  0.04626746  1
  H  H46  1  0.65604625  0.84961448  0.94807181  1
  H  H47  1  0.94807181  0.04626746  0.65604625  1
  H  H48  1  0.87975589  0.98878489  0.18197448  1
  H  H49  1  0.51121511  0.31802552  0.05051526  1
  H  H50  1  0.05051526  0.62024411  0.51121511  1
  H  H51  1  0.51121511  0.05051526  0.62024411  1
  H  H52  1  0.31802552  0.62024411  0.05051526  1
  H  H53  1  0.31802552  0.05051526  0.51121511  1
  H  H54  1  0.05051526  0.31802552  0.62024411  1
  H  H55  1  0.18197448  0.87975589  0.98878489  1
  H  H56  1  0.98878489  0.18197448  0.87975589  1
  H  H57  1  0.44948474  0.87975589  0.18197448  1
  H  H58  1  0.98878489  0.44948474  0.18197448  1
  H  H59  1  0.44948474  0.98878489  0.87975589  1
  H  H60  1  0.18197448  0.98878489  0.44948474  1
  H  H61  1  0.87975589  0.18197448  0.44948474  1
  H  H62  1  0.87975589  0.44948474  0.98878489  1
  H  H63  1  0.05051526  0.51121511  0.31802552  1
  H  H64  1  0.62024411  0.05051526  0.31802552  1
  H  H65  1  0.62024411  0.51121511  0.05051526  1
  H  H66  1  0.51121511  0.62024411  0.31802552  1
  H  H67  1  0.31802552  0.51121511  0.62024411  1
  H  H68  1  0.62024411  0.31802552  0.51121511  1
  H  H69  1  0.18197448  0.44948474  0.87975589  1
  H  H70  1  0.44948474  0.18197448  0.98878489  1
  H  H71  1  0.98878489  0.87975589  0.44948474  1
  H  H72  1  0.12024411  0.01121511  0.81802552  1
  H  H73  1  0.48878489  0.68197448  0.94948474  1
  H  H74  1  0.94948474  0.37975589  0.48878489  1
  H  H75  1  0.48878489  0.94948474  0.37975589  1
  H  H76  1  0.68197448  0.37975589  0.94948474  1
  H  H77  1  0.68197448  0.94948474  0.48878489  1
  H  H78  1  0.94948474  0.68197448  0.37975589  1
  H  H79  1  0.81802552  0.12024411  0.01121511  1
  H  H80  1  0.01121511  0.81802552  0.12024411  1
  H  H81  1  0.55051526  0.12024411  0.81802552  1
  H  H82  1  0.01121511  0.55051526  0.81802552  1
  H  H83  1  0.55051526  0.01121511  0.12024411  1
  H  H84  1  0.81802552  0.01121511  0.55051526  1
  H  H85  1  0.12024411  0.81802552  0.55051526  1
  H  H86  1  0.12024411  0.55051526  0.01121511  1
  H  H87  1  0.94948474  0.48878489  0.68197448  1
  H  H88  1  0.37975589  0.94948474  0.68197448  1
  H  H89  1  0.37975589  0.48878489  0.94948474  1
  H  H90  1  0.48878489  0.37975589  0.68197448  1
  H  H91  1  0.68197448  0.48878489  0.37975589  1
  H  H92  1  0.37975589  0.68197448  0.48878489  1
  H  H93  1  0.81802552  0.55051526  0.12024411  1
  H  H94  1  0.55051526  0.81802552  0.01121511  1
  H  H95  1  0.01121511  0.12024411  0.55051526  1
  H  H96  1  0.99784920  0.92561918  0.18225312  1
  H  H97  1  0.57438082  0.31774688  0.10572150  1
  H  H98  1  0.10572150  0.50215080  0.57438082  1
  H  H99  1  0.57438082  0.10572150  0.50215080  1
  H  H100  1  0.31774688  0.50215080  0.10572150  1
  H  H101  1  0.31774688  0.10572150  0.57438082  1
  H  H102  1  0.10572150  0.31774688  0.50215080  1
  H  H103  1  0.18225312  0.99784920  0.92561918  1
  H  H104  1  0.92561918  0.18225312  0.99784920  1
  H  H105  1  0.39427850  0.99784920  0.18225312  1
  H  H106  1  0.92561918  0.39427850  0.18225312  1
  H  H107  1  0.39427850  0.92561918  0.99784920  1
  H  H108  1  0.18225312  0.92561918  0.39427850  1
  H  H109  1  0.99784920  0.18225312  0.39427850  1
  H  H110  1  0.99784920  0.39427850  0.92561918  1
  H  H111  1  0.10572150  0.57438082  0.31774688  1
  H  H112  1  0.50215080  0.10572150  0.31774688  1
  H  H113  1  0.50215080  0.57438082  0.10572150  1
  H  H114  1  0.57438082  0.50215080  0.31774688  1
  H  H115  1  0.31774688  0.57438082  0.50215080  1
  H  H116  1  0.50215080  0.31774688  0.57438082  1
  H  H117  1  0.18225312  0.39427850  0.99784920  1
  H  H118  1  0.39427850  0.18225312  0.92561918  1
  H  H119  1  0.92561918  0.99784920  0.39427850  1
  H  H120  1  0.00215080  0.07438082  0.81774688  1
  H  H121  1  0.42561918  0.68225312  0.89427850  1
  H  H122  1  0.89427850  0.49784920  0.42561918  1
  H  H123  1  0.42561918  0.89427850  0.49784920  1
  H  H124  1  0.68225312  0.49784920  0.89427850  1
  H  H125  1  0.68225312  0.89427850  0.42561918  1
  H  H126  1  0.89427850  0.68225312  0.49784920  1
  H  H127  1  0.81774688  0.00215080  0.07438082  1
  H  H128  1  0.07438082  0.81774688  0.00215080  1
  H  H129  1  0.60572150  0.00215080  0.81774688  1
  H  H130  1  0.07438082  0.60572150  0.81774688  1
  H  H131  1  0.60572150  0.07438082  0.00215080  1
  H  H132  1  0.81774688  0.07438082  0.60572150  1
  H  H133  1  0.00215080  0.81774688  0.60572150  1
  H  H134  1  0.00215080  0.60572150  0.07438082  1
  H  H135  1  0.89427850  0.42561918  0.68225312  1
  H  H136  1  0.49784920  0.89427850  0.68225312  1
  H  H137  1  0.49784920  0.42561918  0.89427850  1
  H  H138  1  0.42561918  0.49784920  0.68225312  1
  H  H139  1  0.68225312  0.42561918  0.49784920  1
  H  H140  1  0.49784920  0.68225312  0.42561918  1
  H  H141  1  0.81774688  0.60572150  0.00215080  1
  H  H142  1  0.60572150  0.81774688  0.07438082  1
  H  H143  1  0.07438082  0.00215080  0.60572150  1
  N  N0  1  0.95274760  0.99195496  0.14317280  1
  N  N1  1  0.50804504  0.35682720  0.08787535  1
  N  N2  1  0.08787535  0.54725240  0.50804504  1
  N  N3  1  0.50804504  0.08787535  0.54725240  1
  N  N4  1  0.35682720  0.54725240  0.08787535  1
  N  N5  1  0.35682720  0.08787535  0.50804504  1
  N  N6  1  0.08787535  0.35682720  0.54725240  1
  N  N7  1  0.14317280  0.95274760  0.99195496  1
  N  N8  1  0.99195496  0.14317280  0.95274760  1
  N  N9  1  0.41212465  0.95274760  0.14317280  1
  N  N10  1  0.99195496  0.41212465  0.14317280  1
  N  N11  1  0.41212465  0.99195496  0.95274760  1
  N  N12  1  0.14317280  0.99195496  0.41212465  1
  N  N13  1  0.95274760  0.14317280  0.41212465  1
  N  N14  1  0.95274760  0.41212465  0.99195496  1
  N  N15  1  0.08787535  0.50804504  0.35682720  1
  N  N16  1  0.54725240  0.08787535  0.35682720  1
  N  N17  1  0.54725240  0.50804504  0.08787535  1
  N  N18  1  0.50804504  0.54725240  0.35682720  1
  N  N19  1  0.35682720  0.50804504  0.54725240  1
  N  N20  1  0.54725240  0.35682720  0.50804504  1
  N  N21  1  0.14317280  0.41212465  0.95274760  1
  N  N22  1  0.41212465  0.14317280  0.99195496  1
  N  N23  1  0.99195496  0.95274760  0.41212465  1
  N  N24  1  0.04725240  0.00804504  0.85682720  1
  N  N25  1  0.49195496  0.64317280  0.91212465  1
  N  N26  1  0.91212465  0.45274760  0.49195496  1
  N  N27  1  0.49195496  0.91212465  0.45274760  1
  N  N28  1  0.64317280  0.45274760  0.91212465  1
  N  N29  1  0.64317280  0.91212465  0.49195496  1
  N  N30  1  0.91212465  0.64317280  0.45274760  1
  N  N31  1  0.85682720  0.04725240  0.00804504  1
  N  N32  1  0.00804504  0.85682720  0.04725240  1
  N  N33  1  0.58787535  0.04725240  0.85682720  1
  N  N34  1  0.00804504  0.58787535  0.85682720  1
  N  N35  1  0.58787535  0.00804504  0.04725240  1
  N  N36  1  0.85682720  0.00804504  0.58787535  1
  N  N37  1  0.04725240  0.85682720  0.58787535  1
  N  N38  1  0.04725240  0.58787535  0.00804504  1
  N  N39  1  0.91212465  0.49195496  0.64317280  1
  N  N40  1  0.45274760  0.91212465  0.64317280  1
  N  N41  1  0.45274760  0.49195496  0.91212465  1
  N  N42  1  0.49195496  0.45274760  0.64317280  1
  N  N43  1  0.64317280  0.49195496  0.45274760  1
  N  N44  1  0.45274760  0.64317280  0.49195496  1
  N  N45  1  0.85682720  0.58787535  0.04725240  1
  N  N46  1  0.58787535  0.85682720  0.00804504  1
  N  N47  1  0.00804504  0.04725240  0.58787535  1
  Cl  Cl0  1  0.18528407  0.18528407  0.18528407  1
  Cl  Cl1  1  0.31471593  0.31471593  0.55585221  1
  Cl  Cl2  1  0.55585221  0.31471593  0.31471593  1
  Cl  Cl3  1  0.31471593  0.55585221  0.31471593  1
  Cl  Cl4  1  0.94414779  0.18528407  0.18528407  1
  Cl  Cl5  1  0.18528407  0.94414779  0.18528407  1
  Cl  Cl6  1  0.18528407  0.18528407  0.94414779  1
  Cl  Cl7  1  0.31471593  0.31471593  0.31471593  1
  Cl  Cl8  1  0.81471593  0.81471593  0.81471593  1
  Cl  Cl9  1  0.68528407  0.68528407  0.44414779  1
  Cl  Cl10  1  0.44414779  0.68528407  0.68528407  1
  Cl  Cl11  1  0.68528407  0.44414779  0.68528407  1
  Cl  Cl12  1  0.05585221  0.81471593  0.81471593  1
  Cl  Cl13  1  0.81471593  0.05585221  0.81471593  1
  Cl  Cl14  1  0.81471593  0.81471593  0.05585221  1
  Cl  Cl15  1  0.68528407  0.68528407  0.68528407  1
  Cl  Cl16  1  0.75000000  0.08514587  0.41485413  1
  Cl  Cl17  1  0.41485413  0.08514587  0.25000000  1
  Cl  Cl18  1  0.25000000  0.75000000  0.41485413  1
  Cl  Cl19  1  0.41485413  0.25000000  0.75000000  1
  Cl  Cl20  1  0.08514587  0.75000000  0.25000000  1
  Cl  Cl21  1  0.08514587  0.25000000  0.41485413  1
  Cl  Cl22  1  0.25000000  0.08514587  0.75000000  1
  Cl  Cl23  1  0.41485413  0.75000000  0.08514587  1
  Cl  Cl24  1  0.08514587  0.41485413  0.75000000  1
  Cl  Cl25  1  0.75000000  0.41485413  0.25000000  1
  Cl  Cl26  1  0.75000000  0.25000000  0.08514587  1
  Cl  Cl27  1  0.25000000  0.41485413  0.08514587  1
  Cl  Cl28  1  0.25000000  0.91485413  0.58514587  1
  Cl  Cl29  1  0.58514587  0.91485413  0.75000000  1
  Cl  Cl30  1  0.75000000  0.25000000  0.58514587  1
  Cl  Cl31  1  0.58514587  0.75000000  0.25000000  1
  Cl  Cl32  1  0.91485413  0.25000000  0.75000000  1
  Cl  Cl33  1  0.91485413  0.75000000  0.58514587  1
  Cl  Cl34  1  0.75000000  0.91485413  0.25000000  1
  Cl  Cl35  1  0.58514587  0.25000000  0.91485413  1
  Cl  Cl36  1  0.91485413  0.58514587  0.25000000  1
  Cl  Cl37  1  0.25000000  0.58514587  0.75000000  1
  Cl  Cl38  1  0.25000000  0.75000000  0.91485413  1
  Cl  Cl39  1  0.75000000  0.58514587  0.91485413  1
  Co  Co0  1  0.00000000  0.00000000  0.00000000  1
  Co  Co1  1  0.50000000  0.50000000  0.00000000  1
  Co  Co2  1  0.00000000  0.50000000  0.50000000  1
  Co  Co3  1  0.50000000  0.00000000  0.50000000  1
  Co  Co4  1  0.50000000  0.00000000  0.00000000  1
  Co  Co5  1  0.00000000  0.50000000  0.00000000  1
  Co  Co6  1  0.00000000  0.00000000  0.50000000  1
  Co  Co7  1  0.50000000  0.50000000  0.50000000  1
  Cd  Cd0  1  0.25000000  0.25000000  0.25000000  1
  Cd  Cd1  1  0.25000000  0.25000000  0.75000000  1
  Cd  Cd2  1  0.75000000  0.25000000  0.25000000  1
  Cd  Cd3  1  0.25000000  0.75000000  0.25000000  1
  Cd  Cd4  1  0.75000000  0.75000000  0.75000000  1
  Cd  Cd5  1  0.75000000  0.75000000  0.25000000  1
  Cd  Cd6  1  0.25000000  0.75000000  0.75000000  1
  Cd  Cd7  1  0.75000000  0.25000000  0.75000000  1
loop_
_geom_bond_atom_site_label_1
_geom_bond_atom_site_label_2
_geom_bond_distance
_geom_bond_site_symmetry_2
H0 N0 1.033754 1_545
H1 N1 1.033754 1_555
H2 N2 1.033754 1_555
H3 N3 1.033754 1_555
H4 N4 1.033754 1_555
H5 N5 1.033754 1_555
H6 N6 1.033754 1_555
H7 N7 1.033754 1_554
H8 N8 1.033754 1_455
H9 N9 1.033754 1_555
H10 N10 1.033754 1_455
H11 N11 1.033754 1_545
H12 N12 1.033754 1_545
H13 N13 1.033754 1_555
H14 N14 1.033754 1_554
H15 N15 1.033754 1_555
H16 N16 1.033754 1_555
H17 N17 1.033754 1_555
H18 N18 1.033754 1_555
H19 N19 1.033754 1_555
H20 N20 1.033754 1_555
H21 N21 1.033754 1_555
H22 N22 1.033754 1_554
H23 N23 1.033754 1_455
H24 N24 1.033754 1_565
H25 N25 1.033754 1_555
H26 N26 1.033754 1_555
H27 N27 1.033754 1_555
H28 N28 1.033754 1_555
H29 N29 1.033754 1_555
H30 N30 1.033754 1_555
H31 N31 1.033754 1_556
H32 N32 1.033754 1_655
H33 N33 1.033754 1_555
H34 N34 1.033754 1_655
H35 N35 1.033754 1_565
H36 N36 1.033754 1_565
H37 N37 1.033754 1_555
H38 N38 1.033754 1_556
H39 N39 1.033754 1_555
H40 N40 1.033754 1_555
H41 N41 1.033754 1_555
H42 N42 1.033754 1_555
H43 N43 1.033754 1_555
H44 N44 1.033754 1_555
H45 N45 1.033754 1_555
H46 N46 1.033754 1_556
H47 N47 1.033754 1_655
H48 N0 1.030143 1_555
H49 N1 1.030143 1_555
H50 N2 1.030143 1_555
H51 N3 1.030143 1_555
H52 N4 1.030143 1_555
H53 N5 1.030143 1_555
H54 N6 1.030143 1_555
H55 N7 1.030143 1_555
H56 N8 1.030143 1_555
H57 N9 1.030143 1_555
H58 N10 1.030143 1_555
H59 N11 1.030143 1_555
H60 N12 1.030143 1_555
H61 N13 1.030143 1_555
H62 N14 1.030143 1_555
H63 N15 1.030143 1_555
H64 N16 1.030143 1_555
H65 N17 1.030143 1_555
H66 N18 1.030143 1_555
H67 N19 1.030143 1_555
H68 N20 1.030143 1_555
H69 N21 1.030143 1_555
H70 N22 1.030143 1_555
H71 N23 1.030143 1_555
H72 N24 1.030143 1_555
H73 N25 1.030143 1_555
H74 N26 1.030143 1_555
H75 N27 1.030143 1_555
H76 N28 1.030143 1_555
H77 N29 1.030143 1_555
H78 N30 1.030143 1_555
H79 N31 1.030143 1_555
H80 N32 1.030143 1_555
H81 N33 1.030143 1_555
H82 N34 1.030143 1_555
H83 N35 1.030143 1_555
H84 N36 1.030143 1_555
H85 N37 1.030143 1_555
H86 N38 1.030143 1_555
H87 N39 1.030143 1_555
H88 N40 1.030143 1_555
H89 N41 1.030143 1_555
H90 N42 1.030143 1_555
H91 N43 1.030143 1_555
H92 N44 1.030143 1_555
H93 N45 1.030143 1_555
H94 N46 1.030143 1_555
H95 N47 1.030143 1_555
H96 N0 1.032713 1_555
H97 N1 1.032713 1_555
H98 N2 1.032713 1_555
H99 N3 1.032713 1_555
H100 N4 1.032713 1_555
H101 N5 1.032713 1_555
H102 N6 1.032713 1_555
H103 N7 1.032713 1_555
H104 N8 1.032713 1_555
H105 N9 1.032713 1_555
H106 N10 1.032713 1_555
H107 N11 1.032713 1_555
H108 N12 1.032713 1_555
H109 N13 1.032713 1_555
H110 N14 1.032713 1_555
H111 N15 1.032713 1_555
H112 N16 1.032713 1_555
H113 N17 1.032713 1_555
H114 N18 1.032713 1_555
H115 N19 1.032713 1_555
H116 N20 1.032713 1_555
H117 N21 1.032713 1_555
H118 N22 1.032713 1_555
H119 N23 1.032713 1_555
H120 N24 1.032713 1_555
H121 N25 1.032713 1_555
H122 N26 1.032713 1_555
H123 N27 1.032713 1_555
H124 N28 1.032713 1_555
H125 N29 1.032713 1_555
H126 N30 1.032713 1_555
H127 N31 1.032713 1_555
H128 N32 1.032713 1_555
H129 N33 1.032713 1_555
H130 N34 1.032713 1_555
H131 N35 1.032713 1_555
H132 N36 1.032713 1_555
H133 N37 1.032713 1_555
H134 N38 1.032713 1_555
H135 N39 1.032713 1_555
H136 N40 1.032713 1_555
H137 N41 1.032713 1_555
H138 N42 1.032713 1_555
H139 N43 1.032713 1_555
H140 N44 1.032713 1_555
H141 N45 1.032713 1_555
H142 N46 1.032713 1_555
H143 N47 1.032713 1_555
Co0 N32 1.982593 1_545
Co0 N8 1.982593 1_454
Co0 N31 1.982593 1_455
Co0 N7 1.982593 1_544
Co0 N24 1.982593 1_554
Co0 N0 1.982593 1_445
Co1 N17 1.982593 1_555
Co1 N41 1.982593 1_554
Co1 N4 1.982593 1_555
Co1 N28 1.982593 1_554
Co1 N25 1.982593 1_554
Co1 N1 1.982593 1_555
Co2 N2 1.982593 1_555
Co2 N26 1.982593 1_455
Co2 N6 1.982593 1_555
Co2 N30 1.982593 1_455
Co2 N15 1.982593 1_555
Co2 N39 1.982593 1_455
Co3 N3 1.982593 1_555
Co3 N27 1.982593 1_545
Co3 N16 1.982593 1_555
Co3 N40 1.982593 1_545
Co3 N29 1.982593 1_545
Co3 N5 1.982593 1_555
Co4 N11 1.982593 1_544
Co4 N35 1.982593 1_555
Co4 N9 1.982593 1_545
Co4 N33 1.982593 1_554
Co4 N46 1.982593 1_545
Co4 N22 1.982593 1_554
Co5 N14 1.982593 1_454
Co5 N38 1.982593 1_555
Co5 N45 1.982593 1_455
Co5 N21 1.982593 1_554
Co5 N34 1.982593 1_554
Co5 N10 1.982593 1_455
Co6 N23 1.982593 1_445
Co6 N47 1.982593 1_555
Co6 N13 1.982593 1_455
Co6 N37 1.982593 1_545
Co6 N36 1.982593 1_455
Co6 N12 1.982593 1_545
Co7 N43 1.982593 1_555
Co7 N19 1.982593 1_555
Co7 N44 1.982593 1_555
Co7 N20 1.982593 1_555
Co7 N42 1.982593 1_555
Co7 N18 1.982593 1_555
Cd0 Cl7 2.544234 1_555
Cd0 Cl0 2.544234 1_555
Cd0 Cl27 2.645880 1_555
Cd0 Cl21 2.645880 1_555
Cd0 Cl17 2.645880 1_555
Cd1 Cl1 2.544234 1_555
Cd1 Cl6 2.544234 1_555
Cd1 Cl22 2.645880 1_555
Cd1 Cl19 2.645880 1_555
Cd1 Cl24 2.645880 1_555
Cd2 Cl4 2.544234 1_555
Cd2 Cl2 2.544234 1_555
Cd2 Cl25 2.645880 1_555
Cd2 Cl26 2.645880 1_555
Cd2 Cl16 2.645880 1_555
Cd3 Cl5 2.544234 1_555
Cd3 Cl3 2.544234 1_555
Cd3 Cl20 2.645880 1_555
Cd3 Cl18 2.645880 1_555
Cd3 Cl23 2.645880 1_555
Cd4 Cl15 2.544234 1_555
Cd4 Cl8 2.544234 1_555
Cd4 Cl39 2.645880 1_555
Cd4 Cl33 2.645880 1_555
Cd4 Cl29 2.645880 1_555
Cd5 Cl9 2.544234 1_555
Cd5 Cl14 2.544234 1_555
Cd5 Cl34 2.645880 1_555
Cd5 Cl31 2.645880 1_555
Cd5 Cl36 2.645880 1_555
Cd6 Cl10 2.544234 1_555
Cd6 Cl12 2.544234 1_555
Cd6 Cl37 2.645880 1_555
Cd6 Cl38 2.645880 1_555
Cd6 Cl28 2.645880 1_555
Cd7 Cl11 2.544234 1_555
Cd7 Cl13 2.544234 1_555
Cd7 Cl32 2.645880 1_555
Cd7 Cl30 2.645880 1_555
Cd7 Cl35 2.645880 1_555
