# generated using pymatgen
data_Rb3H(SeO4)2
_symmetry_space_group_name_H-M   'P 1'
_cell_length_a   8.53215420
_cell_length_b   8.53215420
_cell_length_c   10.68957198
_cell_angle_alpha   77.97114339
_cell_angle_beta   77.97114339
_cell_angle_gamma   42.86340528
_symmetry_Int_Tables_number   1
_chemical_formula_structural   Rb3H(SeO4)2
_chemical_formula_sum   'Rb6 H2 Se4 O16'
_cell_volume   515.91887225
_cell_formula_units_Z   2
loop_
 _symmetry_equiv_pos_site_id
 _symmetry_equiv_pos_as_xyz
  1  'x, y, z'
loop_
 _atom_site_type_symbol
 _atom_site_label
 _atom_site_symmetry_multiplicity
 _atom_site_fract_x
 _atom_site_fract_y
 _atom_site_fract_z
 _atom_site_occupancy
  Rb  Rb0  1  0.07870300  0.53719000  0.15219500  1
  Rb  Rb1  1  0.46281000  0.92129700  0.34780500  1
  Rb  Rb2  1  0.92129700  0.46281000  0.84780500  1
  Rb  Rb3  1  0.53719000  0.07870300  0.65219500  1
  Rb  Rb4  1  0.24663700  0.75336300  0.75000000  1
  Rb  Rb5  1  0.75336300  0.24663700  0.25000000  1
  H  H0  1  0.00000000  0.00000000  0.50000000  1
  H  H1  1  0.00000000  0.00000000  0.00000000  1
  Se  Se0  1  0.66186300  0.10588200  0.96333600  1
  Se  Se1  1  0.89411800  0.33813700  0.53666400  1
  Se  Se2  1  0.33813700  0.89411800  0.03666400  1
  Se  Se3  1  0.10588200  0.66186300  0.46333600  1
  O  O0  1  0.42513400  0.32405200  0.88697200  1
  O  O1  1  0.67594800  0.57486600  0.61302800  1
  O  O2  1  0.57486600  0.67594800  0.11302800  1
  O  O3  1  0.32405200  0.42513400  0.38697200  1
  O  O4  1  0.60407100  0.08590400  0.12123700  1
  O  O5  1  0.91409600  0.39592900  0.37876300  1
  O  O6  1  0.39592900  0.91409600  0.87876300  1
  O  O7  1  0.08590400  0.60407100  0.62123700  1
  O  O8  1  0.85563500  0.83001400  0.40048600  1
  O  O9  1  0.16998600  0.14436500  0.09951400  1
  O  O10  1  0.14436500  0.16998600  0.59951400  1
  O  O11  1  0.83001400  0.85563500  0.90048600  1
  O  O12  1  0.16170900  0.82535700  0.44376300  1
  O  O13  1  0.17464300  0.83829100  0.05623700  1
  O  O14  1  0.83829100  0.17464300  0.55623700  1
  O  O15  1  0.82535700  0.16170900  0.94376300  1
loop_
_geom_bond_atom_site_label_1
_geom_bond_atom_site_label_2
_geom_bond_distance
_geom_bond_site_symmetry_2
H0 O14 1.224400 1_455
H0 O12 1.224400 1_545
H1 O13 1.224400 1_545
H1 O15 1.224400 1_454
O0 Se0 1.659275 1_555
O0 Rb4 2.897677 1_555
O0 Rb3 3.138521 1_555
O0 Rb0 3.295145 1_556
O1 Se1 1.659275 1_555
O1 Rb4 2.897677 1_555
O1 Rb2 3.138521 1_555
O1 Rb1 3.295145 1_555
O2 Se2 1.659275 1_555
O2 Rb5 2.897677 1_555
O2 Rb1 3.138521 1_555
O2 Rb2 3.295145 1_554
O3 Se3 1.659275 1_555
O3 Rb5 2.897677 1_555
O3 Rb0 3.138521 1_555
O3 Rb3 3.295145 1_555
O4 Se0 1.666604 1_554
O4 Rb1 3.022886 1_545
O4 Rb5 3.078338 1_555
O4 Rb0 3.104722 1_555
O4 Rb0 3.247603 1_645
O5 Se1 1.666604 1_555
O5 Rb0 3.022886 1_655
O5 Rb5 3.078338 1_555
O5 Rb1 3.104722 1_555
O5 Rb1 3.247603 1_645
O6 Se2 1.666604 1_556
O6 Rb3 3.022886 1_565
O6 Rb4 3.078338 1_555
O6 Rb2 3.104722 1_555
O6 Rb2 3.247603 1_465
O7 Se3 1.666604 1_555
O7 Rb2 3.022886 1_455
O7 Rb4 3.078338 1_555
O7 Rb3 3.104722 1_555
O7 Rb3 3.247603 1_465
O8 Se3 1.665557 1_655
O8 Rb1 2.989046 1_555
O8 Rb5 3.104755 1_565
O8 Rb3 3.163106 1_565
O8 Rb0 3.255221 1_655
O9 Se2 1.665557 1_545
O9 Rb0 2.989046 1_555
O9 Rb5 3.104755 1_455
O9 Rb2 3.163106 1_454
O9 Rb1 3.255221 1_545
O10 Se1 1.665557 1_455
O10 Rb3 2.989046 1_555
O10 Rb4 3.104755 1_545
O10 Rb1 3.163106 1_545
O10 Rb2 3.255221 1_455
O11 Se0 1.665557 1_565
O11 Rb2 2.989046 1_555
O11 Rb4 3.104755 1_655
O11 Rb0 3.163106 1_656
O11 Rb3 3.255221 1_565
O12 Se3 1.739951 1_555
O12 Rb1 3.155421 1_555
O13 Se2 1.739951 1_555
O13 Rb0 3.155421 1_555
O14 Se1 1.739951 1_555
O14 Rb3 3.155421 1_555
O15 Se0 1.739951 1_555
O15 Rb2 3.155421 1_555
