# generated using pymatgen
data_Na3Ta2Zn4P3(SO6)6
_symmetry_space_group_name_H-M   'P 1'
_cell_length_a   8.74040335
_cell_length_b   8.74040307
_cell_length_c   22.58968065
_cell_angle_alpha   90.00000000
_cell_angle_beta   90.00000000
_cell_angle_gamma   120.00000102
_symmetry_Int_Tables_number   1
_chemical_formula_structural   Na3Ta2Zn4P3(SO6)6
_chemical_formula_sum   'Na6 Ta4 Zn8 P6 S12 O72'
_cell_volume   1494.52661771
_cell_formula_units_Z   2
loop_
 _symmetry_equiv_pos_site_id
 _symmetry_equiv_pos_as_xyz
  1  'x, y, z'
loop_
 _atom_site_type_symbol
 _atom_site_label
 _atom_site_symmetry_multiplicity
 _atom_site_fract_x
 _atom_site_fract_y
 _atom_site_fract_z
 _atom_site_occupancy
  Na  Na0  1  -0.00000000  0.00000000  0.49434228  1
  Na  Na1  1  -0.00000000  0.00000000  0.99434228  1
  Na  Na2  1  0.66666700  0.33333300  0.82647526  1
  Na  Na3  1  0.66666700  0.33333300  0.32647526  1
  Na  Na4  1  0.33333300  0.66666700  0.15818723  1
  Na  Na5  1  0.33333300  0.66666700  0.65818723  1
  Ta  Ta0  1  0.66666700  0.33333300  0.97753882  1
  Ta  Ta1  1  0.66666700  0.33333300  0.47753882  1
  Ta  Ta2  1  0.33333300  0.66666700  0.31774695  1
  Ta  Ta3  1  0.33333300  0.66666700  0.81774695  1
  Zn  Zn0  1  -0.00000000  0.00000000  0.35347938  1
  Zn  Zn1  1  -0.00000000  0.00000000  0.85347938  1
  Zn  Zn2  1  -0.00000000  0.00000000  0.64831989  1
  Zn  Zn3  1  -0.00000000  0.00000000  0.14831989  1
  Zn  Zn4  1  0.66666700  0.33333300  0.68320169  1
  Zn  Zn5  1  0.66666700  0.33333300  0.18320169  1
  Zn  Zn6  1  0.33333300  0.66666700  0.01364622  1
  Zn  Zn7  1  0.33333300  0.66666700  0.51364622  1
  P  P0  1  0.62850379  0.67226431  0.92016792  1
  P  P1  1  0.04375951  0.37149621  0.92016792  1
  P  P2  1  0.32773569  0.95624049  0.92016792  1
  P  P3  1  0.62850379  0.95624049  0.42016792  1
  P  P4  1  0.32773569  0.37149621  0.42016792  1
  P  P5  1  0.04375951  0.67226431  0.42016792  1
  S  S0  1  0.29425505  0.00028701  0.25007942  1
  S  S1  1  0.70603196  0.70574495  0.25007942  1
  S  S2  1  -0.00028701  0.29396804  0.25007942  1
  S  S3  1  0.29425505  0.29396804  0.75007942  1
  S  S4  1  -0.00028701  0.70574495  0.75007942  1
  S  S5  1  0.70603196  0.00028701  0.75007942  1
  S  S6  1  0.95966872  0.33246895  0.58450072  1
  S  S7  1  0.37280123  0.04033128  0.58450072  1
  S  S8  1  0.66753105  0.62719877  0.58450072  1
  S  S9  1  0.95966872  0.62719877  0.08450072  1
  S  S10  1  0.66753105  0.04033128  0.08450072  1
  S  S11  1  0.37280123  0.33246895  0.08450072  1
  O  O0  1  0.21203076  0.02209458  0.30295156  1
  O  O1  1  0.81006382  0.78796924  0.30295156  1
  O  O2  1  0.97790542  0.18993618  0.30295156  1
  O  O3  1  0.21203076  0.18993618  0.80295156  1
  O  O4  1  0.97790542  0.78796924  0.80295156  1
  O  O5  1  0.81006382  0.02209458  0.80295156  1
  O  O6  1  0.77573025  0.96584055  0.69556206  1
  O  O7  1  0.19011030  0.22426975  0.69556206  1
  O  O8  1  0.03415945  0.80988970  0.69556206  1
  O  O9  1  0.77573025  0.80988970  0.19556206  1
  O  O10  1  0.03415945  0.22426975  0.19556206  1
  O  O11  1  0.19011030  0.96584055  0.19556206  1
  O  O12  1  0.87514036  0.35098797  0.63787506  1
  O  O13  1  0.47584861  0.12485964  0.63787506  1
  O  O14  1  0.64901203  0.52415139  0.63787506  1
  O  O15  1  0.87514036  0.52415139  0.13787506  1
  O  O16  1  0.64901203  0.12485964  0.13787506  1
  O  O17  1  0.47584861  0.35098797  0.13787506  1
  O  O18  1  0.47387088  0.32032140  0.03014442  1
  O  O19  1  0.84645153  0.52612912  0.03014442  1
  O  O20  1  0.67967860  0.15354847  0.03014442  1
  O  O21  1  0.47387088  0.15354847  0.53014442  1
  O  O22  1  0.67967860  0.52612912  0.53014442  1
  O  O23  1  0.84645153  0.32032140  0.53014442  1
  O  O24  1  0.54824560  0.69729015  0.97504256  1
  O  O25  1  0.14904355  0.45175440  0.97504256  1
  O  O26  1  0.30270985  0.85095645  0.97504256  1
  O  O27  1  0.54824560  0.85095645  0.47504256  1
  O  O28  1  0.30270985  0.45175440  0.47504256  1
  O  O29  1  0.14904355  0.69729015  0.47504256  1
  O  O30  1  0.13411483  0.63718208  0.36399306  1
  O  O31  1  0.50306625  0.86588517  0.36399306  1
  O  O32  1  0.36281792  0.49693375  0.36399306  1
  O  O33  1  0.13411483  0.49693375  0.86399306  1
  O  O34  1  0.36281792  0.86588517  0.86399306  1
  O  O35  1  0.50306625  0.63718208  0.86399306  1
  O  O36  1  0.00732327  0.81989690  0.40828814  1
  O  O37  1  0.81257363  0.99267673  0.40828814  1
  O  O38  1  0.18010310  0.18742637  0.40828814  1
  O  O39  1  0.00732327  0.18742637  0.90828814  1
  O  O40  1  0.18010310  0.99267673  0.90828814  1
  O  O41  1  0.81257363  0.81989690  0.90828814  1
  O  O42  1  0.96427972  0.16598752  0.58365638  1
  O  O43  1  0.20170780  0.03572028  0.58365638  1
  O  O44  1  0.83401248  0.79829220  0.58365638  1
  O  O45  1  0.96427972  0.79829220  0.08365638  1
  O  O46  1  0.83401248  0.03572028  0.08365638  1
  O  O47  1  0.20170780  0.16598752  0.08365638  1
  O  O48  1  0.67381997  0.15069742  0.74508586  1
  O  O49  1  0.47687844  0.32618003  0.74508586  1
  O  O50  1  0.84930258  0.52312156  0.74508586  1
  O  O51  1  0.67381997  0.52312156  0.24508586  1
  O  O52  1  0.84930258  0.32618003  0.24508586  1
  O  O53  1  0.47687844  0.15069742  0.24508586  1
  O  O54  1  0.63230315  0.49188750  0.92473580  1
  O  O55  1  0.85958536  0.36769685  0.92473580  1
  O  O56  1  0.50811250  0.14041464  0.92473580  1
  O  O57  1  0.63230315  0.14041464  0.42473580  1
  O  O58  1  0.50811250  0.36769685  0.42473580  1
  O  O59  1  0.85958536  0.49188750  0.42473580  1
  O  O60  1  0.35520939  0.48973241  0.07858325  1
  O  O61  1  0.13452203  0.64479061  0.07858325  1
  O  O62  1  0.51026759  0.86547797  0.07858325  1
  O  O63  1  0.35520939  0.86547797  0.57858325  1
  O  O64  1  0.51026759  0.64479061  0.57858325  1
  O  O65  1  0.13452203  0.48973241  0.57858325  1
  O  O66  1  0.31284873  0.83419852  0.25835454  1
  O  O67  1  0.52134879  0.68715127  0.25835454  1
  O  O68  1  0.16580148  0.47865121  0.25835454  1
  O  O69  1  0.31284873  0.47865121  0.75835454  1
  O  O70  1  0.16580148  0.68715127  0.75835454  1
  O  O71  1  0.52134879  0.83419852  0.75835454  1
loop_
_geom_bond_atom_site_label_1
_geom_bond_atom_site_label_2
_geom_bond_distance
_geom_bond_site_symmetry_2
Na0 O38 2.522254 1_555
Na0 O36 2.522254 1_545
Na0 O37 2.522254 1_445
Na0 O44 2.593426 1_445
Na0 O42 2.593426 1_455
Na0 O43 2.593426 1_555
Na1 O39 2.522254 1_555
Na1 O41 2.522254 1_445
Na1 O40 2.522254 1_545
Na1 O45 2.593426 1_446
Na1 O47 2.593426 1_556
Na1 O46 2.593426 1_456
Na2 O48 2.456057 1_555
Na2 O50 2.456057 1_555
Na2 O49 2.456057 1_555
Na2 O54 2.711813 1_555
Na2 O56 2.711813 1_555
Na2 O55 2.711813 1_555
Na3 O53 2.456057 1_555
Na3 O52 2.456057 1_555
Na3 O51 2.456057 1_555
Na3 O58 2.711813 1_555
Na3 O59 2.711813 1_555
Na3 O57 2.711813 1_555
Na4 O62 2.440796 1_555
Na4 O61 2.440796 1_555
Na4 O60 2.440796 1_555
Na4 O68 2.749255 1_555
Na4 O66 2.749255 1_555
Na4 O67 2.749255 1_555
Na5 O63 2.440796 1_555
Na5 O65 2.440796 1_555
Na5 O64 2.440796 1_555
Na5 O69 2.749255 1_555
Na5 O71 2.749255 1_555
Na5 O70 2.749255 1_555
O0 S0 1.454756 1_555
O0 Zn0 2.101593 1_555
O1 S1 1.454756 1_555
O1 Zn0 2.101593 1_665
O2 S2 1.454756 1_655
O2 Zn0 2.101593 1_655
O3 S3 1.454756 1_555
O3 Zn1 2.101593 1_555
O4 S4 1.454756 1_655
O4 Zn1 2.101593 1_665
O5 S5 1.454756 1_555
O5 Zn1 2.101593 1_655
O6 S5 1.470319 1_565
O6 Zn2 2.117826 1_665
O7 S3 1.470319 1_555
O7 Zn2 2.117826 1_555
O8 S4 1.470319 1_555
O8 Zn2 2.117826 1_565
O9 S1 1.470319 1_555
O9 Zn3 2.117826 1_665
O10 S2 1.470319 1_555
O10 Zn3 2.117826 1_555
O11 S0 1.470319 1_565
O11 Zn3 2.117826 1_565
O12 S6 1.464706 1_555
O12 Zn4 2.027618 1_555
O13 S7 1.464706 1_555
O13 Zn4 2.027618 1_555
O14 S8 1.464706 1_555
O14 Zn4 2.027618 1_555
O15 S9 1.464706 1_555
O15 Zn5 2.027618 1_555
O16 S10 1.464706 1_555
O16 Zn5 2.027618 1_555
O17 S11 1.464706 1_555
O17 Zn5 2.027618 1_555
O18 S11 1.546984 1_555
O18 Ta0 2.018184 1_554
O19 S9 1.546984 1_555
O19 Ta0 2.018184 1_554
O20 S10 1.546984 1_555
O20 Ta0 2.018184 1_554
O21 S7 1.546984 1_555
O21 Ta1 2.018184 1_555
O22 S8 1.546984 1_555
O22 Ta1 2.018184 1_555
O23 S6 1.546984 1_555
O23 Ta1 2.018184 1_555
O24 P0 1.493313 1_555
O24 Zn6 1.964128 1_556
O25 P1 1.493313 1_555
O25 Zn6 1.964128 1_556
O26 P2 1.493313 1_555
O26 Zn6 1.964128 1_556
O27 P3 1.493313 1_555
O27 Zn7 1.964128 1_555
O28 P4 1.493313 1_555
O28 Zn7 1.964128 1_555
O29 P5 1.493313 1_555
O29 Zn7 1.964128 1_555
O30 P5 1.603174 1_555
O30 Ta2 1.934163 1_555
O31 P3 1.603174 1_555
O31 Ta2 1.934163 1_555
O32 P4 1.603174 1_555
O32 Ta2 1.934163 1_555
O33 P1 1.603174 1_555
O33 Ta3 1.934163 1_555
O34 P2 1.603174 1_555
O34 Ta3 1.934163 1_555
O35 P0 1.603174 1_555
O35 Ta3 1.934163 1_555
O36 P5 1.499810 1_555
O36 Zn0 2.028744 1_565
O37 P3 1.499818 1_555
O37 Zn0 2.028744 1_665
O38 P4 1.499816 1_555
O38 Zn0 2.028744 1_555
O39 P1 1.499818 1_555
O39 Zn1 2.028744 1_555
O40 P2 1.499810 1_555
O40 Zn1 2.028744 1_565
O41 P0 1.499816 1_555
O41 Zn1 2.028744 1_665
O42 S6 1.475802 1_555
O42 Zn2 2.188371 1_655
O43 S7 1.475811 1_555
O43 Zn2 2.188371 1_555
O44 S8 1.475806 1_555
O44 Zn2 2.188371 1_665
O45 S9 1.475811 1_555
O45 Zn3 2.188371 1_665
O46 S10 1.475802 1_555
O46 Zn3 2.188371 1_655
O47 S11 1.475806 1_555
O47 Zn3 2.188371 1_555
O48 S5 1.480008 1_555
O48 Zn4 2.146196 1_555
O49 S3 1.480017 1_555
O49 Zn4 2.146196 1_555
O50 S4 1.480014 1_655
O50 Zn4 2.146196 1_555
O51 S1 1.480017 1_555
O51 Zn5 2.146196 1_555
O52 S2 1.480008 1_655
O52 Zn5 2.146196 1_555
O53 S0 1.480014 1_555
O53 Zn5 2.146196 1_555
O54 P0 1.596767 1_555
O54 Ta0 1.962080 1_555
O55 P1 1.596750 1_655
O55 Ta0 1.962080 1_555
O56 P2 1.596758 1_545
O56 Ta0 1.962080 1_555
O57 P3 1.596750 1_545
O57 Ta1 1.962080 1_555
O58 P4 1.596767 1_555
O58 Ta1 1.962080 1_555
O59 P5 1.596758 1_655
O59 Ta1 1.962080 1_555
O60 S11 1.463638 1_555
O60 Zn6 2.208093 1_555
O61 S9 1.463621 1_455
O61 Zn6 2.208093 1_555
O62 S10 1.463628 1_565
O62 Zn6 2.208093 1_555
O63 S7 1.463621 1_565
O63 Zn7 2.208093 1_555
O64 S8 1.463638 1_555
O64 Zn7 2.208093 1_555
O65 S6 1.463628 1_455
O65 Zn7 2.208093 1_555
O66 S0 1.550694 1_565
O66 Ta2 2.058742 1_555
O67 S1 1.550703 1_555
O67 Ta2 2.058742 1_555
O68 S2 1.550699 1_555
O68 Ta2 2.058742 1_555
O69 S3 1.550703 1_555
O69 Ta3 2.058742 1_555
O70 S4 1.550694 1_555
O70 Ta3 2.058742 1_555
O71 S5 1.550699 1_565
O71 Ta3 2.058742 1_555
