# generated using pymatgen
data_Hf7Zr6Ta4Ti3Nb7B54
_symmetry_space_group_name_H-M   'P 1'
_cell_length_a   9.37431012
_cell_length_b   9.37370567
_cell_length_c   10.24415603
_cell_angle_alpha   90.00622587
_cell_angle_beta   90.00299198
_cell_angle_gamma   119.98437311
_symmetry_Int_Tables_number   1
_chemical_formula_structural   Hf7Zr6Ta4Ti3Nb7B54
_chemical_formula_sum   'Hf7 Zr6 Ta4 Ti3 Nb7 B54'
_cell_volume   779.69689631
_cell_formula_units_Z   1
loop_
 _symmetry_equiv_pos_site_id
 _symmetry_equiv_pos_as_xyz
  1  'x, y, z'
loop_
 _atom_site_type_symbol
 _atom_site_label
 _atom_site_symmetry_multiplicity
 _atom_site_fract_x
 _atom_site_fract_y
 _atom_site_fract_z
 _atom_site_occupancy
  Hf  Hf0  1  0.66726200  0.99902700  0.50057600  1
  Hf  Hf1  1  0.33078100  0.99909200  0.49959000  1
  Hf  Hf2  1  0.66670600  0.66667200  0.50074600  1
  Hf  Hf3  1  0.66648700  0.66644600  0.16647400  1
  Hf  Hf4  1  0.00136900  0.33387500  0.16672500  1
  Hf  Hf5  1  0.66763100  0.99900300  0.83356100  1
  Hf  Hf6  1  0.99980300  0.66662300  0.83278500  1
  Zr  Zr0  1  0.00155700  0.00024400  0.16657400  1
  Zr  Zr1  1  0.66665900  0.33430200  0.49966800  1
  Zr  Zr2  1  0.00255700  0.33449300  0.50047100  1
  Zr  Zr3  1  0.66561400  0.33333000  0.16603800  1
  Zr  Zr4  1  0.33284000  0.66628400  0.16679100  1
  Zr  Zr5  1  0.33189100  0.00077900  0.83371200  1
  Ta  Ta0  1  0.33178000  0.33369100  0.50058900  1
  Ta  Ta1  1  0.33247600  0.66545700  0.49706400  1
  Ta  Ta2  1  0.66581800  0.33463900  0.83453600  1
  Ta  Ta3  1  0.66625200  0.99939500  0.16513800  1
  Ti  Ti0  1  0.33313500  0.33301600  0.16646900  1
  Ti  Ti1  1  0.00110700  0.66746900  0.16525400  1
  Ti  Ti2  1  0.00147400  0.00044600  0.49841300  1
  Nb  Nb0  1  0.00402200  0.33411600  0.83255700  1
  Nb  Nb1  1  0.00086300  0.66768900  0.50219100  1
  Nb  Nb2  1  0.33180800  0.99967000  0.16725200  1
  Nb  Nb3  1  0.00096300  0.00195200  0.83470800  1
  Nb  Nb4  1  0.66419100  0.66437500  0.83240700  1
  Nb  Nb5  1  0.33318200  0.66285100  0.83588300  1
  Nb  Nb6  1  0.33267400  0.33555100  0.83331300  1
  B  B0  1  0.77866600  0.55613700  0.99965900  1
  B  B1  1  0.44153700  0.22230700  0.33241600  1
  B  B2  1  0.11324100  0.22203100  0.33398100  1
  B  B3  1  0.77769400  0.88832000  0.99906900  1
  B  B4  1  0.44496300  0.88932200  0.99957900  1
  B  B5  1  0.11014200  0.88683400  0.00124800  1
  B  B6  1  0.11021700  0.55565900  0.00050900  1
  B  B7  1  0.44346200  0.55293900  0.00120500  1
  B  B8  1  0.11045700  0.55717300  0.33193700  1
  B  B9  1  0.77843300  0.22303100  0.99764700  1
  B  B10  1  0.44323800  0.22388400  0.00099200  1
  B  B11  1  0.11362000  0.22374100  0.00068800  1
  B  B12  1  0.77770700  0.22055400  0.33204900  1
  B  B13  1  0.88971800  0.77986200  0.66630700  1
  B  B14  1  0.55444500  0.77663400  0.66644600  1
  B  B15  1  0.78045000  0.55813100  0.33166800  1
  B  B16  1  0.88906300  0.77679200  0.99937200  1
  B  B17  1  0.22182300  0.11178400  0.33459100  1
  B  B18  1  0.55436200  0.10930800  0.33286800  1
  B  B19  1  0.88933800  0.10977800  0.33431800  1
  B  B20  1  0.22377700  0.44357600  0.33190100  1
  B  B21  1  0.55280400  0.44408100  0.33217000  1
  B  B22  1  0.89075300  0.44763100  0.33067600  1
  B  B23  1  0.22003600  0.77728000  0.33258900  1
  B  B24  1  0.55609500  0.77805600  0.33394000  1
  B  B25  1  0.89069200  0.77794600  0.33433400  1
  B  B26  1  0.22041500  0.11168000  0.66404500  1
  B  B27  1  0.55555500  0.11123900  0.66787100  1
  B  B28  1  0.89068000  0.10997400  0.66644400  1
  B  B29  1  0.22386300  0.44531800  0.66667700  1
  B  B30  1  0.55392400  0.44433100  0.66797400  1
  B  B31  1  0.88900500  0.44418100  0.66979600  1
  B  B32  1  0.22236900  0.77673000  0.66653600  1
  B  B33  1  0.55573500  0.77732400  0.99915600  1
  B  B34  1  0.22007600  0.77667700  0.00099600  1
  B  B35  1  0.88962000  0.44545700  0.99937800  1
  B  B36  1  0.44344000  0.55548300  0.66597900  1
  B  B37  1  0.10962200  0.88790500  0.33456400  1
  B  B38  1  0.44401900  0.88898900  0.33401400  1
  B  B39  1  0.77915000  0.88927000  0.33507600  1
  B  B40  1  0.11169800  0.22101900  0.66562600  1
  B  B41  1  0.44305200  0.22325800  0.66698700  1
  B  B42  1  0.77813900  0.22238400  0.66993400  1
  B  B43  1  0.11300900  0.55668000  0.66777200  1
  B  B44  1  0.77756500  0.55619700  0.66864700  1
  B  B45  1  0.55379800  0.44369200  0.99973600  1
  B  B46  1  0.10961900  0.88981300  0.66458200  1
  B  B47  1  0.44345800  0.88654500  0.66671500  1
  B  B48  1  0.77984200  0.88914300  0.66588900  1
  B  B49  1  0.22361900  0.11388000  0.00149100  1
  B  B50  1  0.55593000  0.11119300  0.99897300  1
  B  B51  1  0.88904800  0.11163700  0.99936300  1
  B  B52  1  0.22293100  0.44305200  0.00128200  1
  B  B53  1  0.44328000  0.55378000  0.33291500  1
loop_
_geom_bond_atom_site_label_1
_geom_bond_atom_site_label_2
_geom_bond_distance
_geom_bond_site_symmetry_2
B0 B16 1.791533 1_555
B0 B35 1.799114 1_555
B0 B45 1.825854 1_555
B0 Ta2 2.468793 1_555
B0 Ti1 2.477726 1_656
B0 Hf6 2.479339 1_555
B0 Zr3 2.485705 1_556
B0 Hf3 2.486352 1_556
B0 Nb4 2.490990 1_555
B1 B17 1.784159 1_555
B1 B21 1.800622 1_555
B1 B18 1.833130 1_555
B1 Ti0 2.460448 1_555
B1 Nb2 2.475783 1_545
B1 Ta0 2.488027 1_555
B1 Zr3 2.493222 1_555
B1 Hf1 2.493663 1_545
B1 Zr1 2.505219 1_555
B2 B20 1.798886 1_555
B2 Ta0 2.462014 1_555
B2 Ti2 2.464784 1_555
B2 Ti0 2.476585 1_555
B2 Zr0 2.486509 1_555
B2 Zr2 2.487946 1_555
B2 Hf4 2.496764 1_555
B3 B33 1.802234 1_555
B3 B51 1.813147 1_565
B3 Hf5 2.466944 1_555
B3 Nb3 2.474389 1_665
B3 Ta3 2.481261 1_556
B3 Hf3 2.487383 1_556
B3 Nb4 2.494027 1_555
B3 Zr0 2.499543 1_666
B4 B50 1.801415 1_565
B4 Ta3 2.470668 1_556
B4 Hf5 2.482385 1_555
B4 Nb5 2.488434 1_555
B4 Zr5 2.491855 1_565
B4 Zr4 2.492883 1_556
B4 Nb2 2.498397 1_556
B5 Ti1 2.448646 1_555
B5 Zr0 2.473058 1_565
B5 Nb2 2.476091 1_555
B5 Hf6 2.484748 1_454
B5 Zr5 2.487789 1_564
B5 Nb3 2.495333 1_564
B6 Ti1 2.462555 1_555
B6 Nb5 2.474672 1_554
B6 Hf4 2.478535 1_555
B6 Zr4 2.483631 1_555
B6 Hf6 2.486306 1_454
B6 Nb0 2.489280 1_554
B7 Ti0 2.460791 1_555
B7 Nb5 2.462367 1_554
B7 Nb6 2.464305 1_554
B7 Hf3 2.478974 1_555
B7 Zr4 2.486494 1_555
B7 Nb4 2.490609 1_554
B8 Ti1 2.468778 1_555
B8 Ta1 2.472076 1_555
B8 Zr4 2.474611 1_555
B8 Hf4 2.480109 1_555
B8 Nb1 2.496832 1_555
B8 Zr2 2.500299 1_555
B9 Ta2 2.470851 1_555
B9 Hf5 2.476514 1_545
B9 Nb0 2.493258 1_655
B9 Ta3 2.498371 1_546
B9 Zr3 2.501189 1_556
B9 Hf4 2.505195 1_656
B10 B49 1.783243 1_555
B10 B45 1.784714 1_554
B10 B50 1.829660 1_554
B10 Ti0 2.457753 1_555
B10 Zr3 2.473546 1_555
B10 Ta2 2.484901 1_554
B10 Nb6 2.491002 1_554
B10 Nb2 2.493154 1_545
B10 Zr5 2.493362 1_554
B11 B52 1.780629 1_555
B11 B49 1.784731 1_555
B11 B51 1.823500 1_454
B11 Ti0 2.461780 1_555
B11 Nb6 2.470774 1_554
B11 Nb3 2.476509 1_554
B11 Hf4 2.480277 1_555
B11 Nb0 2.480969 1_554
B11 Zr0 2.486281 1_555
B12 B19 1.805542 1_555
B12 B18 1.813511 1_555
B12 B22 1.843731 1_555
B12 Ta3 2.479316 1_545
B12 Hf4 2.483414 1_655
B12 Hf0 2.493288 1_545
B12 Zr3 2.494871 1_555
B12 Zr1 2.505644 1_555
B12 Zr2 2.511861 1_655
B13 B48 1.779012 1_555
B13 B46 1.785613 1_655
B13 B44 1.816134 1_555
B13 Nb1 2.472353 1_655
B13 Hf2 2.480920 1_555
B13 Ti2 2.483314 1_665
B13 Hf6 2.489027 1_555
B13 Nb3 2.495307 1_665
B13 Nb4 2.500009 1_555
B14 B47 1.793147 1_555
B14 B36 1.795569 1_555
B14 B48 1.830159 1_555
B14 Hf2 2.476957 1_555
B14 Nb4 2.477586 1_555
B14 Hf0 2.479681 1_555
B14 Hf5 2.487936 1_555
B14 Nb5 2.498434 1_555
B14 Ta1 2.501681 1_555
B15 B25 1.784918 1_555
B15 B22 1.792395 1_555
B15 B21 1.848420 1_555
B15 Ti1 2.473282 1_655
B15 Hf3 2.473928 1_555
B15 Zr3 2.491953 1_555
B15 Nb1 2.500751 1_655
B15 Hf2 2.501258 1_555
B15 Zr1 2.503156 1_555
B16 B5 1.795194 1_656
B16 B3 1.809367 1_555
B16 Ti1 2.473269 1_656
B16 Hf6 2.475431 1_555
B16 Nb3 2.487651 1_665
B16 Hf3 2.489434 1_556
B16 Zr0 2.494872 1_666
B16 Nb4 2.501722 1_555
B17 B2 1.776370 1_555
B17 B37 1.817709 1_545
B17 Ti2 2.453239 1_555
B17 Hf1 2.468767 1_545
B17 Ta0 2.477289 1_555
B17 Zr0 2.482058 1_555
B17 Nb2 2.487756 1_545
B17 Ti0 2.488696 1_555
B18 B38 1.788844 1_545
B18 Nb2 2.478588 1_545
B18 Ta3 2.488780 1_545
B18 Hf1 2.492722 1_545
B18 Zr3 2.496013 1_555
B18 Hf0 2.496821 1_545
B18 Zr1 2.501164 1_555
B19 B39 1.790355 1_545
B19 B2 1.818025 1_655
B19 Ti2 2.461327 1_655
B19 Hf0 2.480530 1_545
B19 Zr0 2.488600 1_655
B19 Zr2 2.494999 1_655
B19 Hf4 2.501806 1_655
B19 Ta3 2.506813 1_545
B20 B53 1.782327 1_555
B20 B8 1.841997 1_555
B20 Ti0 2.461453 1_555
B20 Ta1 2.471342 1_555
B20 Ta0 2.472813 1_555
B20 Hf4 2.474632 1_555
B20 Zr4 2.476256 1_555
B20 Zr2 2.491875 1_555
B21 B53 1.779557 1_555
B21 Ti0 2.462145 1_555
B21 Hf3 2.478361 1_555
B21 Zr3 2.487898 1_555
B21 Ta0 2.489618 1_555
B21 Zr1 2.498054 1_555
B21 Hf2 2.499609 1_555
B22 B8 1.783971 1_655
B22 Ti1 2.461406 1_655
B22 Hf4 2.477525 1_655
B22 Zr3 2.487135 1_555
B22 Nb1 2.505674 1_655
B22 Zr1 2.511723 1_555
B22 Zr2 2.521890 1_655
B23 B8 1.787096 1_555
B23 B37 1.794395 1_555
B23 B38 1.818726 1_555
B23 Ti1 2.469359 1_555
B23 Nb2 2.475881 1_555
B23 Ta1 2.480558 1_555
B23 Hf1 2.483778 1_555
B23 Zr4 2.486971 1_555
B23 Nb1 2.487256 1_555
B24 B38 1.810282 1_555
B24 B39 1.811170 1_555
B24 B53 1.820971 1_555
B24 Ta1 2.467810 1_555
B24 Hf0 2.476263 1_555
B24 Hf2 2.483450 1_555
B24 Hf3 2.488070 1_555
B24 Zr4 2.493451 1_555
B24 Ta3 2.494142 1_555
B25 B37 1.777648 1_655
B25 B39 1.809129 1_555
B25 Ti2 2.467348 1_665
B25 Nb1 2.481680 1_655
B25 Zr0 2.492383 1_665
B25 Hf2 2.492913 1_555
B25 Ti1 2.493005 1_655
B25 Hf3 2.504065 1_555
B26 B40 1.770143 1_555
B26 B46 1.801380 1_545
B26 B41 1.807988 1_555
B26 Ti2 2.457408 1_555
B26 Ta0 2.460478 1_555
B26 Hf1 2.472569 1_545
B26 Nb3 2.496478 1_555
B26 Zr5 2.505938 1_555
B26 Nb6 2.511898 1_555
B27 B42 1.807430 1_555
B27 B41 1.822579 1_555
B27 B47 1.824361 1_545
B27 Zr5 2.487029 1_555
B27 Hf5 2.489319 1_545
B27 Ta2 2.490814 1_555
B27 Hf0 2.498157 1_545
B27 Zr1 2.500012 1_555
B27 Hf1 2.510380 1_545
B28 B48 1.792973 1_545
B28 B40 1.794622 1_655
B28 B42 1.826386 1_555
B28 Nb3 2.472211 1_655
B28 Ti2 2.482223 1_655
B28 Hf0 2.485434 1_545
B28 Nb0 2.491336 1_655
B28 Hf5 2.492320 1_545
B28 Zr2 2.492952 1_655
B29 B36 1.782912 1_555
B29 B43 1.803872 1_555
B29 B40 1.821146 1_555
B29 Nb6 2.462190 1_555
B29 Ta0 2.463941 1_555
B29 Nb0 2.464728 1_555
B29 Nb5 2.474482 1_555
B29 Zr2 2.475318 1_555
B29 Ta1 2.492945 1_555
B30 B41 1.794955 1_555
B30 B36 1.799247 1_555
B30 B44 1.815903 1_555
B30 Nb4 2.455273 1_555
B30 Nb6 2.469246 1_555
B30 Ta2 2.479339 1_555
B30 Ta0 2.488569 1_555
B30 Hf2 2.488930 1_555
B30 Zr1 2.498512 1_555
B31 B42 1.800803 1_555
B31 B44 1.813942 1_555
B31 B43 1.818966 1_655
B31 Hf6 2.459410 1_555
B31 Nb0 2.473678 1_655
B31 Ta2 2.476541 1_555
B31 Nb1 2.498415 1_655
B31 Zr2 2.508551 1_655
B31 Zr1 2.509216 1_555
B32 B43 1.786674 1_555
B32 B47 1.795182 1_555
B32 B46 1.833308 1_555
B32 Nb1 2.463480 1_555
B32 Hf6 2.483382 1_455
B32 Hf1 2.487144 1_555
B32 Zr5 2.498310 1_565
B32 Ta1 2.498649 1_555
B32 Nb5 2.517289 1_555
B33 B4 1.808347 1_555
B33 B7 1.821939 1_556
B33 Nb5 2.462355 1_555
B33 Hf5 2.473501 1_555
B33 Ta3 2.478133 1_556
B33 Nb4 2.479577 1_555
B33 Hf3 2.484913 1_556
B33 Zr4 2.495059 1_556
B34 B5 1.786588 1_555
B34 B6 1.794492 1_555
B34 B4 1.826069 1_554
B34 Ti1 2.448120 1_555
B34 Zr4 2.483229 1_555
B34 Hf6 2.483441 1_454
B34 Nb2 2.485504 1_555
B34 Zr5 2.499665 1_564
B34 Nb5 2.500837 1_554
B35 B6 1.791211 1_656
B35 B9 1.805993 1_555
B35 Ti1 2.477041 1_656
B35 Hf6 2.477484 1_555
B35 Ta2 2.480554 1_555
B35 Zr3 2.494763 1_556
B35 Hf4 2.495132 1_656
B35 Nb0 2.505678 1_655
B36 Ta0 2.472335 1_555
B36 Nb4 2.473652 1_555
B36 Nb6 2.475493 1_555
B36 Nb5 2.479961 1_555
B36 Hf2 2.480387 1_555
B36 Ta1 2.492184 1_555
B37 Ti2 2.454957 1_565
B37 Hf1 2.466157 1_555
B37 Nb1 2.479251 1_555
B37 Zr0 2.482566 1_565
B37 Nb2 2.488613 1_555
B37 Ti1 2.492140 1_555
B38 Ta1 2.466719 1_555
B38 Hf1 2.482726 1_555
B38 Nb2 2.488436 1_555
B38 Hf0 2.489297 1_555
B38 Zr4 2.490603 1_555
B38 Ta3 2.499949 1_555
B39 Ti2 2.461251 1_665
B39 Hf0 2.472133 1_555
B39 Hf2 2.479466 1_555
B39 Zr0 2.498314 1_665
B39 Hf3 2.501067 1_555
B39 Ta3 2.511674 1_555
B40 Ta0 2.460299 1_555
B40 Zr2 2.475596 1_555
B40 Nb0 2.477188 1_555
B40 Ti2 2.477995 1_555
B40 Nb3 2.482907 1_555
B40 Nb6 2.484132 1_555
B41 Ta0 2.478866 1_555
B41 Nb6 2.483990 1_555
B41 Zr5 2.486149 1_555
B41 Ta2 2.493384 1_555
B41 Zr1 2.497039 1_555
B41 Hf1 2.500449 1_545
B42 Hf5 2.469847 1_545
B42 Nb0 2.477623 1_655
B42 Ta2 2.483225 1_555
B42 Hf0 2.509525 1_545
B42 Zr1 2.516165 1_555
B42 Zr2 2.516924 1_655
B43 Nb0 2.473129 1_555
B43 Hf6 2.477654 1_455
B43 Nb1 2.481699 1_555
B43 Nb5 2.482413 1_555
B43 Zr2 2.488107 1_555
B43 Ta1 2.496902 1_555
B44 Nb4 2.459494 1_555
B44 Hf6 2.466334 1_555
B44 Ta2 2.474850 1_555
B44 Hf2 2.487301 1_555
B44 Nb1 2.489141 1_655
B44 Zr1 2.498261 1_555
B45 B7 1.782533 1_556
B45 Ta2 2.466666 1_555
B45 Ti0 2.475559 1_556
B45 Nb6 2.475876 1_555
B45 Nb4 2.479847 1_555
B45 Zr3 2.480986 1_556
B45 Hf3 2.487510 1_556
B46 Nb1 2.453446 1_555
B46 Ti2 2.460071 1_565
B46 Hf1 2.466259 1_555
B46 Nb3 2.499947 1_565
B46 Hf6 2.500809 1_455
B46 Zr5 2.501665 1_565
B47 Hf0 2.489922 1_555
B47 Hf5 2.496751 1_555
B47 Ta1 2.498328 1_555
B47 Hf1 2.504765 1_555
B47 Zr5 2.507238 1_565
B47 Nb5 2.510579 1_555
B48 Hf2 2.474678 1_555
B48 Hf0 2.475755 1_555
B48 Ti2 2.486509 1_665
B48 Hf5 2.489951 1_555
B48 Nb3 2.492812 1_665
B48 Nb4 2.498434 1_555
B49 B5 1.843421 1_545
B49 Ti0 2.453754 1_555
B49 Zr0 2.472322 1_555
B49 Nb2 2.478643 1_545
B49 Zr5 2.486683 1_554
B49 Nb3 2.487348 1_554
B49 Nb6 2.491708 1_554
B50 B9 1.806713 1_555
B50 Ta2 2.475907 1_555
B50 Ta3 2.479681 1_546
B50 Hf5 2.484797 1_545
B50 Zr5 2.484910 1_555
B50 Zr3 2.486174 1_556
B50 Nb2 2.506831 1_546
B51 B9 1.802246 1_555
B51 Nb3 2.465940 1_655
B51 Hf5 2.473195 1_545
B51 Ta3 2.481408 1_546
B51 Nb0 2.486975 1_655
B51 Hf4 2.488860 1_656
B51 Zr0 2.497552 1_656
B52 B7 1.790642 1_555
B52 B6 1.829058 1_555
B52 Nb5 2.461013 1_554
B52 Ti0 2.461698 1_555
B52 Nb6 2.463855 1_554
B52 Hf4 2.471806 1_555
B52 Nb0 2.479150 1_554
B52 Zr4 2.481731 1_555
B53 Ta1 2.467605 1_555
B53 Ti0 2.473695 1_555
B53 Ta0 2.478853 1_555
B53 Zr4 2.484271 1_555
B53 Hf3 2.488520 1_555
B53 Hf2 2.499286 1_555
