# generated using pymatgen
data_Ca2InPd2
_symmetry_space_group_name_H-M   'P 1'
_cell_length_a   5.74794886
_cell_length_b   5.83819131
_cell_length_c   8.16682829
_cell_angle_alpha   102.78826744
_cell_angle_beta   90.00000000
_cell_angle_gamma   119.48998171
_symmetry_Int_Tables_number   1
_chemical_formula_structural   Ca2InPd2
_chemical_formula_sum   'Ca4 In2 Pd4'
_cell_volume   230.71071806
_cell_formula_units_Z   2
loop_
 _symmetry_equiv_pos_site_id
 _symmetry_equiv_pos_as_xyz
  1  'x, y, z'
loop_
 _atom_site_type_symbol
 _atom_site_label
 _atom_site_symmetry_multiplicity
 _atom_site_fract_x
 _atom_site_fract_y
 _atom_site_fract_z
 _atom_site_occupancy
  Ca  Ca0  1  0.20458492  0.70219807  0.35079819  1
  Ca  Ca1  1  0.50238785  0.29780193  0.14920181  1
  Ca  Ca2  1  0.79541508  0.29780193  0.64920181  1
  Ca  Ca3  1  0.49761215  0.70219807  0.85079819  1
  In  In0  1  0.84783774  -0.00000000  0.25000000  1
  In  In1  1  0.15216226  -0.00000000  0.75000000  1
  Pd  Pd0  1  0.99586617  0.26776049  0.00281116  1
  Pd  Pd1  1  0.72810568  0.73223951  0.49718884  1
  Pd  Pd2  1  0.00413383  0.73223951  0.99718884  1
  Pd  Pd3  1  0.27189432  0.26776049  0.50281116  1
loop_
_geom_bond_atom_site_label_1
_geom_bond_atom_site_label_2
_geom_bond_distance
_geom_bond_site_symmetry_2
Ca0 Pd1 3.056321 1_455
Ca0 Pd3 3.085581 1_565
Ca0 Pd0 3.124438 1_455
Ca0 Pd1 3.146865 1_555
Ca0 Pd2 3.181390 1_554
Ca0 Pd3 3.237893 1_555
Ca0 In0 3.416977 1_565
Ca0 In1 3.427689 1_565
Ca0 In0 3.452309 1_455
Ca0 In0 3.471160 1_465
Ca1 Pd0 3.056326 1_455
Ca1 Pd2 3.085584 1_544
Ca1 Pd1 3.124437 1_555
Ca1 Pd0 3.146860 1_555
Ca1 Pd3 3.181392 1_555
Ca1 Pd2 3.237890 1_654
Ca1 In0 3.416973 1_555
Ca1 In1 3.427691 1_554
Ca1 In0 3.452309 1_565
Ca1 In0 3.471165 1_455
Ca2 Pd3 3.056321 1_655
Ca2 Pd1 3.085581 1_545
Ca2 Pd2 3.124438 1_655
Ca2 Pd3 3.146865 1_555
Ca2 Pd0 3.181390 1_556
Ca2 Pd1 3.237893 1_555
Ca2 In1 3.416977 1_555
Ca2 In0 3.427689 1_555
Ca2 In1 3.452309 1_665
Ca2 In1 3.471160 1_655
Ca3 Pd2 3.056326 1_655
Ca3 Pd0 3.085584 1_566
Ca3 Pd3 3.124437 1_555
Ca3 Pd2 3.146860 1_555
Ca3 Pd1 3.181392 1_555
Ca3 Pd0 3.237890 1_456
Ca3 In1 3.416973 1_565
Ca3 In0 3.427691 1_566
Ca3 In1 3.452309 1_555
Ca3 In1 3.471165 1_665
In0 Pd0 2.707497 1_555
In0 Pd1 2.707497 1_545
In0 Pd3 2.732670 1_655
In0 Pd2 2.732670 1_644
In1 Pd2 2.707497 1_545
In1 Pd3 2.707497 1_555
In1 Pd0 2.732670 1_456
In1 Pd1 2.732670 1_445
Pd0 Pd2 2.699264 1_654
Pd1 Pd3 2.699264 1_555
