# generated using pymatgen
data_MgMnV4O12
_symmetry_space_group_name_H-M   'P 1'
_cell_length_a   5.47422104
_cell_length_b   10.79667355
_cell_length_c   9.46255024
_cell_angle_alpha   28.21791438
_cell_angle_beta   49.09983782
_cell_angle_gamma   55.31764693
_symmetry_Int_Tables_number   1
_chemical_formula_structural   MgMnV4O12
_chemical_formula_sum   'Mg1 Mn1 V4 O12'
_cell_volume   199.82619630
_cell_formula_units_Z   1
loop_
 _symmetry_equiv_pos_site_id
 _symmetry_equiv_pos_as_xyz
  1  'x, y, z'
loop_
 _atom_site_type_symbol
 _atom_site_label
 _atom_site_symmetry_multiplicity
 _atom_site_fract_x
 _atom_site_fract_y
 _atom_site_fract_z
 _atom_site_occupancy
  Mg  Mg0  1  0.78965000  0.00928500  0.77679900  1
  Mn  Mn0  1  0.30663600  0.99980000  0.29720500  1
  V  V0  1  0.02889000  0.02211000  0.96744000  1
  V  V1  1  0.98969600  0.48104900  0.01060700  1
  V  V2  1  0.51711800  0.97249800  0.52741700  1
  V  V3  1  0.49772400  0.51503700  0.48058900  1
  O  O0  1  0.34949400  0.28509500  0.12187600  1
  O  O1  1  0.22324900  0.10323900  0.62655500  1
  O  O2  1  0.12006500  0.30443600  0.73070400  1
  O  O3  1  0.89131200  0.16051200  0.24505500  1
  O  O4  1  0.34356100  0.82360400  0.10295900  1
  O  O5  1  0.73442200  0.37746300  0.35444800  1
  O  O6  1  0.21622300  0.65431300  0.59344000  1
  O  O7  1  0.58864400  0.17114600  0.87851500  1
  O  O8  1  0.11868900  0.82469900  0.71034600  1
  O  O9  1  0.82652700  0.69943000  0.22306200  1
  O  O10  1  0.69962300  0.89170500  0.34299300  1
  O  O11  1  0.60528000  0.69267300  0.85400800  1
loop_
_geom_bond_atom_site_label_1
_geom_bond_atom_site_label_2
_geom_bond_distance
_geom_bond_site_symmetry_2
Mg0 O5 2.020501 1_555
Mg0 O8 2.061938 1_645
Mg0 O4 2.075064 1_546
Mg0 O1 2.112814 1_655
Mg0 O9 2.125106 1_546
Mg0 O7 2.140121 1_555
Mn0 O0 1.897941 1_565
Mn0 O10 1.910491 1_555
Mn0 O7 1.956161 1_564
Mn0 O8 1.958982 1_555
Mn0 O6 1.968200 1_555
Mn0 O3 1.973320 1_465
O0 V1 1.873930 1_455
O0 V2 2.284921 1_545
O1 V2 1.798237 1_545
O1 V0 1.972628 1_555
O2 V0 1.671045 1_555
O2 V3 2.122350 1_555
O3 V2 1.860778 1_545
O3 V1 2.052978 1_555
O4 V0 1.747193 1_564
O4 V3 2.085553 1_555
O5 V1 1.789329 1_555
O5 V3 2.053963 1_555
O6 V3 1.952955 1_555
O6 V1 1.958555 1_456
O7 V3 1.981036 1_555
O7 V0 2.227433 1_655
O8 V1 2.028289 1_456
O8 V2 2.109279 1_555
O9 V3 1.710627 1_555
O9 V0 2.290807 1_664
O10 V0 1.882206 1_664
O10 V2 2.052390 1_555
O11 V2 1.658497 1_555
O11 V1 2.118831 1_556
