# generated using pymatgen
data_Ba2Mg3Si4
_symmetry_space_group_name_H-M   'P 1'
_cell_length_a   4.63945441
_cell_length_b   6.47582891
_cell_length_c   15.69649057
_cell_angle_alpha   94.65981627
_cell_angle_beta   90.00000000
_cell_angle_gamma   110.99049640
_symmetry_Int_Tables_number   1
_chemical_formula_structural   Ba2Mg3Si4
_chemical_formula_sum   'Ba4 Mg6 Si8'
_cell_volume   438.62548486
_cell_formula_units_Z   2
loop_
 _symmetry_equiv_pos_site_id
 _symmetry_equiv_pos_as_xyz
  1  'x, y, z'
loop_
 _atom_site_type_symbol
 _atom_site_label
 _atom_site_symmetry_multiplicity
 _atom_site_fract_x
 _atom_site_fract_y
 _atom_site_fract_z
 _atom_site_occupancy
  Ba  Ba0  1  0.15804605  0.31609110  0.58989234  1
  Ba  Ba1  1  0.84195395  0.68390890  0.41010766  1
  Ba  Ba2  1  0.05918199  0.11836499  0.86540923  1
  Ba  Ba3  1  0.94081801  0.88163501  0.13459077  1
  Mg  Mg0  1  0.33852599  0.67705398  0.79507081  1
  Mg  Mg1  1  0.66147401  0.32294602  0.20492919  1
  Mg  Mg2  1  0.89407813  0.78815727  0.65497130  1
  Mg  Mg3  1  0.10592187  0.21184273  0.34502870  1
  Mg  Mg4  1  0.78056412  0.56112723  0.93049775  1
  Mg  Mg5  1  0.21943588  0.43887277  0.06950225  1
  Si  Si0  1  0.72055790  0.44111380  0.75411039  1
  Si  Si1  1  0.44061807  0.88123514  0.55752228  1
  Si  Si2  1  0.40054000  0.80108200  0.97042186  1
  Si  Si3  1  0.59946000  0.19891800  0.02957814  1
  Si  Si4  1  0.47671465  0.95342931  0.29545070  1
  Si  Si5  1  0.52328535  0.04657069  0.70454930  1
  Si  Si6  1  0.55938193  0.11876486  0.44247772  1
  Si  Si7  1  0.27944210  0.55888620  0.24588961  1
loop_
_geom_bond_atom_site_label_1
_geom_bond_atom_site_label_2
_geom_bond_distance
_geom_bond_site_symmetry_2
Ba0 Si6 3.417333 1_555
Ba0 Si6 3.417339 1_455
Ba0 Si5 3.433056 1_555
Ba0 Si5 3.433060 1_455
Ba0 Mg2 3.435022 1_445
Ba0 Si1 3.497941 1_555
Ba0 Si0 3.501098 1_455
Ba0 Si0 3.501101 1_555
Ba0 Si1 3.509900 1_545
Ba0 Si1 3.509900 1_445
Ba0 Mg0 3.729867 1_555
Ba0 Mg2 3.750122 1_555
Ba0 Mg2 3.750128 1_455
Ba0 Mg3 3.840335 1_555
Ba1 Si1 3.417333 1_555
Ba1 Si1 3.417339 1_655
Ba1 Si4 3.433056 1_555
Ba1 Si4 3.433060 1_655
Ba1 Mg3 3.435022 1_665
Ba1 Si6 3.497941 1_555
Ba1 Si7 3.501098 1_655
Ba1 Si7 3.501101 1_555
Ba1 Si6 3.509900 1_565
Ba1 Si6 3.509900 1_665
Ba1 Mg1 3.729867 1_555
Ba1 Mg3 3.750122 1_555
Ba1 Mg3 3.750128 1_655
Ba1 Mg2 3.840335 1_555
Ba2 Si5 3.428427 1_455
Ba2 Si5 3.428430 1_555
Ba2 Si3 3.469897 1_456
Ba2 Si3 3.469906 1_556
Ba2 Si2 3.511176 1_545
Ba2 Si2 3.511179 1_445
Ba2 Si0 3.582488 1_455
Ba2 Si0 3.582498 1_555
Ba2 Mg5 3.596873 1_556
Ba2 Mg4 3.604680 1_445
Ba2 Mg4 3.621488 1_455
Ba2 Mg4 3.621494 1_555
Ba2 Mg0 3.634109 1_545
Ba2 Mg0 3.634112 1_445
Ba2 Mg0 3.643911 1_555
Ba2 Mg2 3.707958 1_445
Ba3 Si4 3.428427 1_655
Ba3 Si4 3.428430 1_555
Ba3 Si2 3.469897 1_654
Ba3 Si2 3.469906 1_554
Ba3 Si3 3.511176 1_565
Ba3 Si3 3.511179 1_665
Ba3 Si7 3.582488 1_655
Ba3 Si7 3.582498 1_555
Ba3 Mg4 3.596873 1_554
Ba3 Mg5 3.604680 1_665
Ba3 Mg5 3.621488 1_655
Ba3 Mg5 3.621494 1_555
Ba3 Mg1 3.634109 1_565
Ba3 Mg1 3.634112 1_665
Ba3 Mg1 3.643911 1_555
Ba3 Mg3 3.707958 1_665
Mg0 Si5 2.750028 1_565
Mg0 Si0 2.769439 1_455
Mg0 Si0 2.769455 1_555
Mg0 Si2 2.789054 1_555
Mg1 Si4 2.750028 1_545
Mg1 Si7 2.769439 1_655
Mg1 Si7 2.769455 1_555
Mg1 Si3 2.789054 1_555
Mg2 Si0 2.718910 1_555
Mg2 Si1 2.861348 1_555
Mg2 Si1 2.861355 1_655
Mg2 Si5 2.866390 1_565
Mg2 Si5 2.866394 1_665
Mg3 Si7 2.718910 1_555
Mg3 Si6 2.861348 1_555
Mg3 Si6 2.861355 1_455
Mg3 Si4 2.866390 1_545
Mg3 Si4 2.866394 1_445
Mg4 Si2 2.778558 1_655
Mg4 Si2 2.778569 1_555
Mg4 Si3 2.794152 1_556
Mg4 Si0 2.800426 1_555
Mg5 Si3 2.778558 1_455
Mg5 Si3 2.778569 1_555
Mg5 Si2 2.794152 1_554
Mg5 Si7 2.800426 1_555
Si0 Si5 2.443886 1_555
Si1 Si6 2.403055 1_565
Si1 Si5 2.433880 1_565
Si2 Si3 2.501846 1_566
Si4 Si6 2.433880 1_565
Si4 Si7 2.443886 1_555
