# generated using pymatgen
data_Si2H6Se
_symmetry_space_group_name_H-M   'P 1'
_cell_length_a   8.41493554
_cell_length_b   8.41493554
_cell_length_c   15.77839810
_cell_angle_alpha   90.00000000
_cell_angle_beta   90.00000000
_cell_angle_gamma   90.00000000
_symmetry_Int_Tables_number   1
_chemical_formula_structural   Si2H6Se
_chemical_formula_sum   'Si16 H48 Se8'
_cell_volume   1117.28635908
_cell_formula_units_Z   8
loop_
 _symmetry_equiv_pos_site_id
 _symmetry_equiv_pos_as_xyz
  1  'x, y, z'
loop_
 _atom_site_type_symbol
 _atom_site_label
 _atom_site_symmetry_multiplicity
 _atom_site_fract_x
 _atom_site_fract_y
 _atom_site_fract_z
 _atom_site_occupancy
  Si  Si0  1  0.76662433  0.60861993  0.34858892  1
  Si  Si1  1  0.23337567  0.39138007  0.84858892  1
  Si  Si2  1  0.60861993  0.76662433  0.65141108  1
  Si  Si3  1  0.10861993  0.73337567  0.59858892  1
  Si  Si4  1  0.89138007  0.26662433  0.09858892  1
  Si  Si5  1  0.73337567  0.10861993  0.40141108  1
  Si  Si6  1  0.26662433  0.89138007  0.90141108  1
  Si  Si7  1  0.39138007  0.23337567  0.15141108  1
  Si  Si8  1  0.15787367  0.72716087  0.08890508  1
  Si  Si9  1  0.84212633  0.27283913  0.58890508  1
  Si  Si10  1  0.72716087  0.15787367  0.91109492  1
  Si  Si11  1  0.27283913  0.84212633  0.41109492  1
  Si  Si12  1  0.22716087  0.34212633  0.33890508  1
  Si  Si13  1  0.77283913  0.65787367  0.83890508  1
  Si  Si14  1  0.34212633  0.22716087  0.66109492  1
  Si  Si15  1  0.65787367  0.77283913  0.16109492  1
  H  H0  1  0.87592575  0.61304505  0.42171643  1
  H  H1  1  0.12407425  0.38695495  0.92171643  1
  H  H2  1  0.61304505  0.87592575  0.57828357  1
  H  H3  1  0.11304505  0.62407425  0.67171643  1
  H  H4  1  0.88695495  0.37592575  0.17171643  1
  H  H5  1  0.62407425  0.11304505  0.32828357  1
  H  H6  1  0.37592575  0.88695495  0.82828357  1
  H  H7  1  0.38695495  0.12407425  0.07828357  1
  H  H8  1  0.60280391  0.65117146  0.37394567  1
  H  H9  1  0.39719609  0.34882854  0.87394567  1
  H  H10  1  0.65117146  0.60280391  0.62605433  1
  H  H11  1  0.15117146  0.89719609  0.62394567  1
  H  H12  1  0.84882854  0.10280391  0.12394567  1
  H  H13  1  0.89719609  0.15117146  0.37605433  1
  H  H14  1  0.10280391  0.84882854  0.87605433  1
  H  H15  1  0.34882854  0.39719609  0.12605433  1
  H  H16  1  0.76699976  0.45126309  0.30692986  1
  H  H17  1  0.72368921  0.81998614  0.07812716  1
  H  H18  1  0.23300024  0.54873691  0.80692986  1
  H  H19  1  0.95126309  0.73300024  0.55692986  1
  H  H20  1  0.04873691  0.26699976  0.05692986  1
  H  H21  1  0.73300024  0.95126309  0.44307014  1
  H  H22  1  0.26699976  0.04873691  0.94307014  1
  H  H23  1  0.54873691  0.23300024  0.19307014  1
  H  H24  1  0.39461911  0.39623576  0.33982296  1
  H  H25  1  0.10376424  0.89461911  0.08982296  1
  H  H26  1  0.89623576  0.10538089  0.58982296  1
  H  H27  1  0.89461911  0.10376424  0.91017704  1
  H  H28  1  0.10538089  0.89623576  0.41017704  1
  H  H29  1  0.60538089  0.60376424  0.83982296  1
  H  H30  1  0.39623576  0.39461911  0.66017704  1
  H  H31  1  0.60376424  0.60538089  0.16017704  1
  H  H32  1  0.12244099  0.47571286  0.31419162  1
  H  H33  1  0.02428714  0.62244099  0.06419162  1
  H  H34  1  0.97571286  0.37755901  0.56419162  1
  H  H35  1  0.62244099  0.02428714  0.93580838  1
  H  H36  1  0.37755901  0.97571286  0.43580838  1
  H  H37  1  0.87755901  0.52428714  0.81419162  1
  H  H38  1  0.47571286  0.12244099  0.68580838  1
  H  H39  1  0.52428714  0.87755901  0.18580838  1
  H  H40  1  0.18001386  0.27631079  0.42187284  1
  H  H41  1  0.22368921  0.68001386  0.17187284  1
  H  H42  1  0.77631079  0.31998614  0.67187284  1
  H  H43  1  0.68001386  0.22368921  0.82812716  1
  H  H44  1  0.31998614  0.77631079  0.32812716  1
  H  H45  1  0.81998614  0.72368921  0.92187284  1
  H  H46  1  0.27631079  0.18001386  0.57812716  1
  H  H47  1  0.45126309  0.76699976  0.69307014  1
  Se  Se0  1  0.20372754  0.13790433  0.24368642  1
  Se  Se1  1  0.36209567  0.70372754  0.99368642  1
  Se  Se2  1  0.63790433  0.29627246  0.49368642  1
  Se  Se3  1  0.29627246  0.63790433  0.50631358  1
  Se  Se4  1  0.79627246  0.86209567  0.74368642  1
  Se  Se5  1  0.13790433  0.20372754  0.75631358  1
  Se  Se6  1  0.86209567  0.79627246  0.25631358  1
  Se  Se7  1  0.70372754  0.36209567  0.00631358  1
loop_
_geom_bond_atom_site_label_1
_geom_bond_atom_site_label_2
_geom_bond_distance
_geom_bond_site_symmetry_2
H0 Si0 1.476038 1_555
H1 Si1 1.476038 1_555
H2 Si2 1.476038 1_555
H3 Si3 1.476038 1_555
H4 Si4 1.476038 1_555
H5 Si5 1.476038 1_555
H6 Si6 1.476038 1_555
H7 Si7 1.476038 1_555
H8 Si0 1.479409 1_555
H9 Si1 1.479409 1_555
H10 Si2 1.479409 1_555
H11 Si3 1.479409 1_555
H12 Si4 1.479409 1_555
H13 Si5 1.479409 1_555
H14 Si6 1.479409 1_555
H15 Si7 1.479409 1_555
H16 Si0 1.478323 1_555
H17 Si15 1.475761 1_555
H18 Si1 1.478323 1_555
H19 Si3 1.478323 1_655
H20 Si4 1.478323 1_455
H21 Si5 1.478323 1_565
H22 Si6 1.478323 1_545
H23 Si7 1.478323 1_555
H24 Si12 1.480958 1_555
H25 Si8 1.480958 1_555
H26 Si9 1.480958 1_555
H27 Si10 1.480958 1_555
H28 Si11 1.480958 1_555
H29 Si13 1.480958 1_555
H30 Si14 1.480958 1_555
H31 Si15 1.480958 1_555
H32 Si12 1.480620 1_555
H33 Si8 1.480620 1_555
H34 Si9 1.480620 1_555
H35 Si10 1.480620 1_555
H36 Si11 1.480620 1_555
H37 Si13 1.480620 1_555
H38 Si14 1.480620 1_555
H39 Si15 1.480620 1_555
H40 Si12 1.475761 1_555
H41 Si8 1.475761 1_555
H42 Si9 1.475761 1_555
H43 Si10 1.475761 1_555
H44 Si11 1.475761 1_555
H45 Si13 1.475761 1_555
H46 Si14 1.475761 1_555
H47 Si2 1.478323 1_555
Se0 Si12 2.291152 1_555
Se0 Si7 2.293195 1_555
Se1 Si8 2.291152 1_556
Se1 Si6 2.293195 1_555
Se2 Si9 2.291152 1_555
Se2 Si5 2.293195 1_555
Se3 Si11 2.291152 1_555
Se3 Si3 2.293195 1_555
Se4 Si13 2.291152 1_555
Se4 Si2 2.293195 1_555
Se5 Si14 2.291152 1_555
Se5 Si1 2.293195 1_555
Se6 Si15 2.291152 1_555
Se6 Si0 2.293195 1_555
Se7 Si10 2.291152 1_554
Se7 Si4 2.293195 1_555
