# generated using pymatgen
data_Th3Co3Sb4
_symmetry_space_group_name_H-M   'P 1'
_cell_length_a   8.34377470
_cell_length_b   8.34377470
_cell_length_c   8.34377470
_cell_angle_alpha   109.47122063
_cell_angle_beta   109.47122063
_cell_angle_gamma   109.47122063
_symmetry_Int_Tables_number   1
_chemical_formula_structural   Th3Co3Sb4
_chemical_formula_sum   'Th6 Co6 Sb8'
_cell_volume   447.16295304
_cell_formula_units_Z   2
loop_
 _symmetry_equiv_pos_site_id
 _symmetry_equiv_pos_as_xyz
  1  'x, y, z'
loop_
 _atom_site_type_symbol
 _atom_site_label
 _atom_site_symmetry_multiplicity
 _atom_site_fract_x
 _atom_site_fract_y
 _atom_site_fract_z
 _atom_site_occupancy
  Th  Th0  1  0.37500000  0.25000000  0.62500000  1
  Th  Th1  1  0.75000000  0.87500000  0.12500000  1
  Th  Th2  1  0.25000000  0.62500000  0.37500000  1
  Th  Th3  1  0.62500000  0.37500000  0.25000000  1
  Th  Th4  1  0.87500000  0.12500000  0.75000000  1
  Th  Th5  1  0.12500000  0.75000000  0.87500000  1
  Co  Co0  1  0.12500000  0.87500000  0.25000000  1
  Co  Co1  1  0.62500000  0.75000000  0.37500000  1
  Co  Co2  1  0.87500000  0.25000000  0.12500000  1
  Co  Co3  1  0.25000000  0.12500000  0.87500000  1
  Co  Co4  1  0.75000000  0.37500000  0.62500000  1
  Co  Co5  1  0.37500000  0.62500000  0.75000000  1
  Sb  Sb0  1  0.00000000  0.34643632  0.50000000  1
  Sb  Sb1  1  0.84643632  0.50000000  -0.00000000  1
  Sb  Sb2  1  0.50000000  -0.00000000  0.84643632  1
  Sb  Sb3  1  0.65356368  0.65356368  0.65356368  1
  Sb  Sb4  1  0.15356368  0.15356368  0.15356368  1
  Sb  Sb5  1  0.34643632  0.50000000  -0.00000000  1
  Sb  Sb6  1  0.50000000  0.00000000  0.34643632  1
  Sb  Sb7  1  -0.00000000  0.84643632  0.50000000  1
loop_
_geom_bond_atom_site_label_1
_geom_bond_atom_site_label_2
_geom_bond_distance
_geom_bond_site_symmetry_2
Co0 Sb4 2.666806 1_565
Co0 Sb1 2.666806 1_455
Co0 Sb6 2.666806 1_565
Co0 Sb7 2.666806 1_555
Co0 Th1 2.949970 1_455
Co0 Th2 2.949970 1_555
Co0 Th0 2.949970 1_565
Co0 Th5 2.949970 1_554
Co1 Sb7 2.666806 1_655
Co1 Sb3 2.666806 1_555
Co1 Sb6 2.666806 1_565
Co1 Sb5 2.666806 1_555
Co1 Th3 2.949970 1_555
Co1 Th2 2.949970 1_555
Co1 Th4 2.949970 1_565
Co1 Th1 2.949970 1_555
Co2 Sb2 2.666806 1_554
Co2 Sb0 2.666806 1_655
Co2 Sb4 2.666806 1_655
Co2 Sb1 2.666806 1_555
Co2 Th3 2.949970 1_555
Co2 Th2 2.949970 1_655
Co2 Th4 2.949970 1_554
Co2 Th1 2.949970 1_545
Co3 Sb2 2.666806 1_555
Co3 Sb4 2.666806 1_556
Co3 Sb7 2.666806 1_545
Co3 Sb5 2.666806 1_556
Co3 Th3 2.949970 1_556
Co3 Th4 2.949970 1_455
Co3 Th0 2.949970 1_555
Co3 Th5 2.949970 1_545
Co4 Sb3 2.666806 1_555
Co4 Sb6 2.666806 1_555
Co4 Sb1 2.666806 1_556
Co4 Sb0 2.666806 1_655
Co4 Th4 2.949970 1_555
Co4 Th5 2.949970 1_655
Co4 Th0 2.949970 1_555
Co4 Th3 2.949970 1_555
Co5 Sb5 2.666806 1_556
Co5 Sb0 2.666806 1_555
Co5 Sb2 2.666806 1_565
Co5 Sb3 2.666806 1_555
Co5 Th1 2.949970 1_556
Co5 Th5 2.949970 1_555
Co5 Th0 2.949970 1_555
Co5 Th2 2.949970 1_555
Sb0 Th3 3.267335 1_455
Sb0 Th5 3.267335 1_555
Sb0 Th2 3.267335 1_555
Sb0 Th0 3.404070 1_555
Sb0 Th4 3.404070 1_455
Sb0 Th1 3.404070 1_445
Sb1 Th2 3.267335 1_655
Sb1 Th4 3.267335 1_554
Sb1 Th5 3.267335 1_654
Sb1 Th3 3.404070 1_555
Sb1 Th1 3.404070 1_555
Sb1 Th0 3.404070 1_554
Sb2 Th5 3.267335 1_545
Sb2 Th3 3.267335 1_556
Sb2 Th1 3.267335 1_546
Sb2 Th4 3.404070 1_555
Sb2 Th2 3.404070 1_545
Sb2 Th0 3.404070 1_555
Sb3 Th3 3.267335 1_555
Sb3 Th2 3.267335 1_555
Sb3 Th0 3.267335 1_555
Sb3 Th1 3.404070 1_556
Sb3 Th5 3.404070 1_655
Sb3 Th4 3.404070 1_565
Sb4 Th1 3.267335 1_445
Sb4 Th4 3.267335 1_454
Sb4 Th5 3.267335 1_544
Sb4 Th2 3.404070 1_555
Sb4 Th3 3.404070 1_555
Sb4 Th0 3.404070 1_555
Sb5 Th0 3.267335 1_554
Sb5 Th3 3.267335 1_555
Sb5 Th1 3.267335 1_555
Sb5 Th5 3.404070 1_554
Sb5 Th2 3.404070 1_555
Sb5 Th4 3.404070 1_454
Sb6 Th0 3.267335 1_555
Sb6 Th4 3.267335 1_555
Sb6 Th2 3.267335 1_545
Sb6 Th5 3.404070 1_544
Sb6 Th3 3.404070 1_555
Sb6 Th1 3.404070 1_545
Sb7 Th4 3.267335 1_465
Sb7 Th1 3.267335 1_455
Sb7 Th0 3.267335 1_565
Sb7 Th5 3.404070 1_555
Sb7 Th3 3.404070 1_455
Sb7 Th2 3.404070 1_555
