# generated using pymatgen
data_Na7Ca2SiSn2P5O24
_symmetry_space_group_name_H-M   'P 1'
_cell_length_a   9.29254956
_cell_length_b   9.30271937
_cell_length_c   22.27914303
_cell_angle_alpha   89.89945244
_cell_angle_beta   90.08282232
_cell_angle_gamma   119.92181233
_symmetry_Int_Tables_number   1
_chemical_formula_structural   Na7Ca2SiSn2P5O24
_chemical_formula_sum   'Na21 Ca6 Si3 Sn6 P15 O72'
_cell_volume   1669.22463637
_cell_formula_units_Z   3
loop_
 _symmetry_equiv_pos_site_id
 _symmetry_equiv_pos_as_xyz
  1  'x, y, z'
loop_
 _atom_site_type_symbol
 _atom_site_label
 _atom_site_symmetry_multiplicity
 _atom_site_fract_x
 _atom_site_fract_y
 _atom_site_fract_z
 _atom_site_occupancy
  Na  Na0  1  0.34696506  0.35836081  0.25633425  1
  Na  Na1  1  0.01350873  0.64178604  0.25448032  1
  Na  Na2  1  0.63262566  0.65371678  0.75191190  1
  Na  Na3  1  0.00465438  0.35882011  0.75842051  1
  Na  Na4  1  0.35466563  0.98875114  0.75298909  1
  Na  Na5  1  0.29726910  0.30739402  0.58371722  1
  Na  Na6  1  0.02205668  0.69751785  0.58698805  1
  Na  Na7  1  0.67530899  0.98195555  0.59415457  1
  Na  Na8  1  0.30188917  0.98187883  0.08827394  1
  Na  Na9  1  0.69117195  0.70166748  0.08513218  1
  Na  Na10  1  0.01685030  0.32820723  0.09039768  1
  Na  Na11  1  0.96976308  0.65447973  0.92899547  1
  Na  Na12  1  0.69119687  0.03639472  0.91954954  1
  Na  Na13  1  0.96752107  0.31275162  0.42130944  1
  Na  Na14  1  0.34607137  0.02761695  0.42773747  1
  Na  Na15  1  0.99295787  0.98173281  0.50250737  1
  Na  Na16  1  0.01753621  0.00657733  0.00238201  1
  Na  Na17  1  0.64591996  0.33228521  0.83641661  1
  Na  Na18  1  0.66546422  0.33582432  0.33593852  1
  Na  Na19  1  0.35387129  0.68870943  0.16978284  1
  Na  Na20  1  0.34399654  0.68081993  0.66905833  1
  Ca  Ca0  1  0.00048901  0.00079205  0.65050465  1
  Ca  Ca1  1  0.99336189  0.99647951  0.15160973  1
  Ca  Ca2  1  0.65896923  0.33544909  0.98130164  1
  Ca  Ca3  1  0.66350008  0.33921549  0.47970458  1
  Ca  Ca4  1  0.34593391  0.67551568  0.31437902  1
  Ca  Ca5  1  0.33276024  0.66436869  0.81769490  1
  Si  Si0  1  0.70145412  0.01205790  0.74728622  1
  Si  Si1  1  0.36862128  0.02391336  0.57868282  1
  Si  Si2  1  0.97642706  0.63074045  0.08000945  1
  Sn  Sn0  1  0.99406766  0.99651836  0.34987901  1
  Sn  Sn1  1  0.00028677  0.00383823  0.85061073  1
  Sn  Sn2  1  0.66465237  0.32858161  0.68354643  1
  Sn  Sn3  1  0.67054072  0.33168619  0.18405385  1
  Sn  Sn4  1  0.33059702  0.66137435  0.01649128  1
  Sn  Sn5  1  0.34255833  0.67179416  0.51646179  1
  P  P0  1  0.30981315  0.01828960  0.24757214  1
  P  P1  1  0.70584155  0.68552944  0.24537371  1
  P  P2  1  0.98336402  0.29448305  0.24933064  1
  P  P3  1  0.30778157  0.29191571  0.74690170  1
  P  P4  1  0.98288766  0.68991560  0.74941370  1
  P  P5  1  0.97571945  0.35018355  0.57983549  1
  P  P6  1  0.65342283  0.62378207  0.58527910  1
  P  P7  1  0.65082233  0.02755589  0.07873751  1
  P  P8  1  0.37391219  0.34679777  0.08659744  1
  P  P9  1  0.64626905  0.68488914  0.91344192  1
  P  P10  1  0.03722823  0.35291089  0.91562477  1
  P  P11  1  0.31562407  0.95927251  0.91336708  1
  P  P12  1  0.64550533  0.96178052  0.41832567  1
  P  P13  1  0.31430818  0.35485087  0.41214120  1
  P  P14  1  0.04427687  0.68286745  0.41189894  1
  O  O0  1  0.21475324  0.04336282  0.30324927  1
  O  O1  1  0.83075849  0.79302535  0.29753458  1
  O  O2  1  0.97258913  0.18772023  0.30685830  1
  O  O3  1  0.20859804  0.16604226  0.79969101  1
  O  O4  1  0.96374953  0.78422304  0.80574017  1
  O  O5  1  0.82831523  0.03817528  0.80656593  1
  O  O6  1  0.77905453  0.99166169  0.68646940  1
  O  O7  1  0.22546987  0.22504739  0.68662084  1
  O  O8  1  0.01452731  0.78993502  0.69208173  1
  O  O9  1  0.77271393  0.76200855  0.18427351  1
  O  O10  1  -0.00405468  0.21590105  0.19158547  1
  O  O11  1  0.22180543  0.01137034  0.18917283  1
  O  O12  1  0.88768793  0.37737083  0.63687391  1
  O  O13  1  0.49195656  0.12526219  0.63845945  1
  O  O14  1  0.63175946  0.52228769  0.64584949  1
  O  O15  1  0.87746357  0.50293350  0.13919742  1
  O  O16  1  0.61944225  0.12050062  0.13263389  1
  O  O17  1  0.47875476  0.36936509  0.14625512  1
  O  O18  1  0.44893608  0.30260139  0.03499971  1
  O  O19  1  0.87481878  0.55173226  0.01981916  1
  O  O20  1  0.66800505  0.11406672  0.01944045  1
  O  O21  1  0.44732901  0.12405078  0.51827152  1
  O  O22  1  0.68664624  0.54117177  0.53370111  1
  O  O23  1  0.88119751  0.33417177  0.52266929  1
  O  O24  1  0.54783642  0.69897634  0.97019478  1
  O  O25  1  0.14402549  0.44896073  0.97314863  1
  O  O26  1  0.29441814  0.84089135  0.96927385  1
  O  O27  1  0.56542248  0.86300566  0.47924698  1
  O  O28  1  0.30032393  0.45088128  0.46974151  1
  O  O29  1  0.16342054  0.70730033  0.46803142  1
  O  O30  1  0.12294997  0.67363844  0.35369249  1
  O  O31  1  0.53292634  0.87401852  0.36648678  1
  O  O32  1  0.31423269  0.44005333  0.35441754  1
  O  O33  1  0.11641643  0.44389982  0.85783413  1
  O  O34  1  0.32150635  0.87901002  0.85488322  1
  O  O35  1  0.56434489  0.68576421  0.85468179  1
  O  O36  1  0.03888887  0.85172611  0.41392554  1
  O  O37  1  0.81939052  0.96829687  0.41517921  1
  O  O38  1  0.14384778  0.18099783  0.41649865  1
  O  O39  1  0.02768094  0.17851163  0.91794202  1
  O  O40  1  0.14671260  0.96354748  0.91620384  1
  O  O41  1  0.81959158  0.85342391  0.91851047  1
  O  O42  1  0.00261809  0.20130809  0.58618432  1
  O  O43  1  0.17900460  0.98781231  0.58358295  1
  O  O44  1  0.79223335  0.80457658  0.58871293  1
  O  O45  1  0.01088225  0.81971143  0.08541487  1
  O  O46  1  0.80123293  0.00424536  0.08793768  1
  O  O47  1  0.18999061  0.21525007  0.09188886  1
  O  O48  1  0.70400112  0.19448580  0.74901771  1
  O  O49  1  0.48173514  0.29990954  0.74996296  1
  O  O50  1  0.80839709  0.52422648  0.74789394  1
  O  O51  1  0.70747215  0.51553581  0.25095711  1
  O  O52  1  0.81837173  0.30411690  0.25110386  1
  O  O53  1  0.48415952  0.18510143  0.24985978  1
  O  O54  1  0.67614725  0.53827268  0.91656972  1
  O  O55  1  0.86069679  0.32717992  0.91954995  1
  O  O56  1  0.46902997  0.12989899  0.91854729  1
  O  O57  1  0.67955282  0.14134283  0.42046539  1
  O  O58  1  0.45952213  0.32188288  0.41455337  1
  O  O59  1  0.87333309  0.53002052  0.41828265  1
  O  O60  1  0.39072820  0.52535016  0.07989804  1
  O  O61  1  0.15914745  0.63117021  0.08145443  1
  O  O62  1  0.48539038  0.85154028  0.07979035  1
  O  O63  1  0.36995887  0.84269812  0.58141439  1
  O  O64  1  0.47717563  0.61327694  0.58057734  1
  O  O65  1  0.15085130  0.51706030  0.57943670  1
  O  O66  1  0.32535437  0.86332546  0.25252898  1
  O  O67  1  0.52782591  0.64975839  0.25285443  1
  O  O68  1  0.13413104  0.47124340  0.25319167  1
  O  O69  1  0.33121372  0.46556233  0.75568116  1
  O  O70  1  0.12177788  0.64767994  0.75636532  1
  O  O71  1  0.51292515  0.85693426  0.75254698  1
loop_
_geom_bond_atom_site_label_1
_geom_bond_atom_site_label_2
_geom_bond_distance
_geom_bond_site_symmetry_2
Na0 O67 2.373501 1_555
Na0 O32 2.384024 1_555
Na0 O53 2.509047 1_555
Na0 O68 2.662806 1_555
Na0 O17 2.721692 1_555
Na0 O0 2.755015 1_555
Na0 O51 2.913557 1_555
Na1 O68 2.355543 1_555
Na1 O30 2.388081 1_555
Na1 O51 2.478029 1_455
Na1 O66 2.586255 1_555
Na1 O52 2.734778 1_455
Na1 O1 2.859471 1_455
Na1 O15 2.869940 1_455
Na2 O35 2.434988 1_555
Na2 O69 2.454580 1_555
Na2 O50 2.467935 1_555
Na2 O71 2.628563 1_555
Na2 O14 2.660615 1_555
Na3 O70 2.342983 1_555
Na3 O33 2.406251 1_555
Na3 O48 2.434119 1_455
Na3 O69 2.681886 1_555
Na3 O5 2.801921 1_455
Na3 O50 2.923315 1_455
Na3 O12 2.953161 1_455
Na4 O71 2.337896 1_555
Na4 O34 2.443490 1_555
Na4 O49 2.523354 1_565
Na4 O3 2.808662 1_565
Na4 O70 2.811700 1_555
Na4 O48 2.830328 1_565
Na4 O13 2.851811 1_565
Na5 O7 2.403410 1_555
Na5 O42 2.403833 1_555
Na5 O64 2.480046 1_555
Na5 O43 2.605163 1_545
Na5 O28 2.860247 1_555
Na5 O65 2.882902 1_555
Na6 O43 2.344357 1_555
Na6 O65 2.506969 1_555
Na6 O8 2.508729 1_555
Na6 O44 2.770678 1_455
Na6 O63 2.817043 1_555
Na6 O12 2.818988 1_455
Na6 O29 2.940697 1_555
Na6 O22 2.951647 1_455
Na7 O6 2.252918 1_555
Na7 O44 2.389103 1_555
Na7 O63 2.478283 1_555
Na7 O42 2.693493 1_665
Na7 O27 2.774186 1_555
Na7 O13 2.816041 1_565
Na8 O45 2.350009 1_555
Na8 O11 2.427550 1_565
Na8 O62 2.545186 1_555
Na8 O16 2.747197 1_565
Na8 O47 2.837933 1_565
Na8 O18 2.846528 1_565
Na8 O61 2.847902 1_555
Na8 O26 2.945306 1_554
Na9 O9 2.311528 1_555
Na9 O60 2.435121 1_555
Na9 O46 2.470104 1_565
Na9 O45 2.603371 1_655
Na9 O62 2.876319 1_555
Na9 O24 2.879070 1_554
Na10 O47 2.319547 1_555
Na10 O10 2.449895 1_555
Na10 O61 2.451999 1_555
Na10 O46 2.660120 1_455
Na10 O15 2.759058 1_455
Na10 O25 2.855933 1_554
Na11 O19 2.223405 1_556
Na11 O54 2.397072 1_555
Na11 O40 2.516658 1_655
Na11 O55 2.695400 1_555
Na11 O26 2.773510 1_655
Na11 O41 2.828633 1_555
Na11 O4 3.009275 1_555
Na12 O55 2.355365 1_555
Na12 O20 2.384051 1_556
Na12 O41 2.519432 1_545
Na12 O56 2.609716 1_555
Na12 O39 2.720678 1_655
Na12 O5 2.819231 1_555
Na12 O24 2.953099 1_545
Na13 O57 2.333840 1_555
Na13 O23 2.439052 1_555
Na13 O38 2.490587 1_655
Na13 O59 2.572942 1_555
Na13 O37 2.789619 1_545
Na13 O2 2.814667 1_555
Na13 O28 2.900046 1_655
Na14 O21 2.217492 1_555
Na14 O58 2.410477 1_555
Na14 O36 2.501962 1_545
Na14 O57 2.734733 1_555
Na14 O29 2.741414 1_545
Na15 O36 2.462815 1_655
Na15 O43 2.479637 1_655
Na15 O37 2.488579 1_555
Na15 O38 2.544868 1_665
Na15 O44 2.610810 1_555
Na15 O42 2.736028 1_665
Na16 O40 2.403368 1_544
Na16 O39 2.438397 1_554
Na16 O41 2.507958 1_444
Na16 O45 2.515883 1_545
Na16 O47 2.685866 1_555
Na16 O46 2.764287 1_455
Na17 O49 2.379808 1_555
Na17 O54 2.532459 1_555
Na17 O48 2.535372 1_555
Na17 O56 2.550291 1_555
Na17 O50 2.581507 1_555
Na17 O55 2.738532 1_555
Na18 O51 2.423203 1_555
Na18 O52 2.471047 1_555
Na18 O53 2.475009 1_555
Na18 O58 2.551099 1_555
Na18 O59 2.623066 1_555
Na18 O57 2.657139 1_555
Na19 O62 2.440809 1_555
Na19 O61 2.541736 1_555
Na19 O66 2.559065 1_555
Na19 O67 2.596726 1_555
Na19 O60 2.639867 1_555
Na19 O68 2.755360 1_555
Na20 O63 2.401525 1_555
Na20 O71 2.458592 1_555
Na20 O64 2.568951 1_555
Na20 O65 2.607960 1_555
Na20 O69 2.738299 1_555
Na20 O70 2.741730 1_555
Ca0 O6 2.171059 1_445
Ca0 O8 2.229633 1_545
Ca0 O7 2.240597 1_555
Ca0 O43 2.279689 1_545
Ca0 O44 2.334352 1_445
Ca0 O42 2.342494 1_555
Ca1 O10 2.217609 1_665
Ca1 O11 2.219871 1_665
Ca1 O9 2.242397 1_555
Ca1 O45 2.276371 1_655
Ca1 O46 2.307826 1_565
Ca1 O47 2.353400 1_665
Ca2 O18 2.178165 1_556
Ca2 O19 2.186953 1_556
Ca2 O20 2.266401 1_556
Ca2 O54 2.314311 1_555
Ca2 O56 2.315520 1_555
Ca2 O55 2.358887 1_555
Ca3 O22 2.151089 1_555
Ca3 O21 2.183486 1_555
Ca3 O23 2.258271 1_555
Ca3 O59 2.317672 1_555
Ca3 O58 2.326731 1_555
Ca3 O57 2.331422 1_555
Ca4 O31 2.139540 1_555
Ca4 O30 2.242789 1_555
Ca4 O32 2.242916 1_555
Ca4 O67 2.281465 1_555
Ca4 O66 2.304773 1_555
Ca4 O68 2.369226 1_555
Ca5 O34 2.213316 1_555
Ca5 O35 2.217643 1_555
Ca5 O33 2.221056 1_555
Ca5 O71 2.263741 1_555
Ca5 O69 2.304752 1_555
Ca5 O70 2.328996 1_555
O0 P0 1.607214 1_555
O0 Sn0 2.141885 1_445
O1 P1 1.593755 1_555
O1 Sn0 2.093610 1_555
O2 P2 1.592421 1_555
O2 Sn0 2.114211 1_545
O3 P3 1.589168 1_555
O3 Sn1 2.096973 1_555
O4 P4 1.592565 1_555
O4 Sn1 2.145397 1_665
O5 Si0 1.704078 1_555
O5 Sn1 2.030356 1_655
O6 Si0 1.591258 1_565
O7 P3 1.516890 1_555
O8 P4 1.519110 1_455
O9 P1 1.517677 1_555
O10 P2 1.513996 1_455
O11 P0 1.520031 1_555
O12 P5 1.599543 1_555
O12 Sn2 2.156129 1_555
O13 Si1 1.702367 1_555
O13 Sn2 2.033640 1_555
O14 P6 1.599911 1_555
O14 Sn2 2.142289 1_555
O15 Si2 1.704515 1_555
O15 Sn3 2.043991 1_555
O16 P7 1.590804 1_555
O16 Sn3 2.114988 1_555
O17 P8 1.597810 1_555
O17 Sn3 2.150821 1_555
O18 P8 1.505485 1_555
O19 Si2 1.592933 1_555
O20 P7 1.512326 1_555
O21 Si1 1.591518 1_555
O22 P6 1.499064 1_555
O23 P5 1.510856 1_555
O24 P9 1.605012 1_555
O24 Sn4 2.135814 1_556
O25 P10 1.594184 1_555
O25 Sn4 2.104045 1_556
O26 P11 1.606992 1_555
O26 Sn4 2.135760 1_556
O27 P12 1.598961 1_555
O27 Sn5 2.113085 1_555
O28 P13 1.606889 1_555
O28 Sn5 2.159295 1_555
O29 P14 1.608522 1_555
O29 Sn5 2.141602 1_555
O30 P14 1.513028 1_555
O31 P12 1.497518 1_555
O32 P13 1.509667 1_555
O33 P10 1.514333 1_555
O34 P11 1.517418 1_555
O35 P9 1.515484 1_555
O36 P14 1.597128 1_555
O36 Sn0 2.138937 1_455
O37 P12 1.588115 1_555
O37 Sn0 2.097755 1_555
O38 P13 1.605714 1_555
O38 Sn0 2.169183 1_445
O39 P10 1.580760 1_555
O39 Sn1 2.133133 1_555
O40 P11 1.591178 1_555
O40 Sn1 2.151417 1_565
O41 P9 1.595560 1_555
O41 Sn1 2.172953 1_665
O42 P5 1.531382 1_455
O43 Si1 1.624654 1_565
O44 P6 1.527828 1_555
O45 Si2 1.626805 1_455
O46 P7 1.531009 1_555
O47 P8 1.531665 1_555
O48 Si0 1.685903 1_555
O48 Sn2 2.065094 1_555
O49 P3 1.582068 1_555
O49 Sn2 2.168746 1_555
O50 P4 1.585167 1_555
O50 Sn2 2.174910 1_555
O51 P1 1.593659 1_555
O51 Sn3 2.164842 1_555
O52 P2 1.580367 1_555
O52 Sn3 2.128051 1_555
O53 P0 1.589767 1_555
O53 Sn3 2.157029 1_555
O54 P9 1.523042 1_555
O55 P10 1.537709 1_655
O56 P11 1.519123 1_545
O57 P12 1.538069 1_545
O58 P13 1.526583 1_555
O59 P14 1.520510 1_655
O60 P8 1.595602 1_555
O60 Sn4 2.146128 1_555
O61 Si2 1.696207 1_455
O61 Sn4 2.066550 1_555
O62 P7 1.591756 1_565
O62 Sn4 2.156778 1_555
O63 Si1 1.693016 1_565
O63 Sn5 2.071169 1_555
O64 P6 1.594594 1_555
O64 Sn5 2.138478 1_555
O65 P5 1.593140 1_455
O65 Sn5 2.157764 1_555
O66 P0 1.522603 1_565
O67 P1 1.525249 1_555
O68 P2 1.541416 1_455
O69 P3 1.531411 1_555
O70 P4 1.532722 1_455
O71 Si0 1.625804 1_565
