# generated using pymatgen
data_B3H5
_symmetry_space_group_name_H-M   'P 1'
_cell_length_a   6.04146141
_cell_length_b   6.04146134
_cell_length_c   8.59665606
_cell_angle_alpha   90.00000000
_cell_angle_beta   90.00000000
_cell_angle_gamma   101.36890627
_symmetry_Int_Tables_number   1
_chemical_formula_structural   B3H5
_chemical_formula_sum   'B12 H20'
_cell_volume   307.61481407
_cell_formula_units_Z   4
loop_
 _symmetry_equiv_pos_site_id
 _symmetry_equiv_pos_as_xyz
  1  'x, y, z'
loop_
 _atom_site_type_symbol
 _atom_site_label
 _atom_site_symmetry_multiplicity
 _atom_site_fract_x
 _atom_site_fract_y
 _atom_site_fract_z
 _atom_site_occupancy
  B  B0  1  0.69795863  0.30204137  0.36691940  1
  B  B1  1  0.30204137  0.69795863  0.86691940  1
  B  B2  1  0.97631321  0.39174803  0.29099037  1
  B  B3  1  0.02368679  0.60825197  0.79099037  1
  B  B4  1  0.60825197  0.02368679  0.29099037  1
  B  B5  1  0.39174803  0.97631321  0.79099037  1
  B  B6  1  0.03708647  0.17688181  0.17525715  1
  B  B7  1  0.96291353  0.82311819  0.67525715  1
  B  B8  1  0.82311819  0.96291353  0.17525715  1
  B  B9  1  0.17688181  0.03708647  0.67525715  1
  B  B10  1  0.75877954  0.24122046  0.17522198  1
  B  B11  1  0.24122046  0.75877954  0.67522198  1
  H  H0  1  0.10806887  0.24153981  0.31749186  1
  H  H1  1  0.89193113  0.75846019  0.81749186  1
  H  H2  1  0.75846019  0.89193113  0.31749186  1
  H  H3  1  0.24153981  0.10806887  0.81749186  1
  H  H4  1  0.89137080  0.35709283  0.43874752  1
  H  H5  1  0.10862920  0.64290717  0.93874752  1
  H  H6  1  0.64290717  0.10862920  0.43874752  1
  H  H7  1  0.35709283  0.89137080  0.93874752  1
  H  H8  1  0.57861881  0.42138119  0.41258480  1
  H  H9  1  0.42138119  0.57861881  0.91258480  1
  H  H10  1  0.07256583  0.58234462  0.29292740  1
  H  H11  1  0.92743417  0.41765538  0.79292740  1
  H  H12  1  0.32157642  0.67842358  0.56851326  1
  H  H13  1  0.67842358  0.32157642  0.06851326  1
  H  H14  1  0.23438625  0.18743023  0.58606698  1
  H  H15  1  0.76561375  0.81256977  0.08606698  1
  H  H16  1  0.81256977  0.76561375  0.58606698  1
  H  H17  1  0.18743023  0.23438625  0.08606698  1
  H  H18  1  0.58234462  0.07256583  0.79292740  1
  H  H19  1  0.41765538  0.92743417  0.29292740  1
loop_
_geom_bond_atom_site_label_1
_geom_bond_atom_site_label_2
_geom_bond_distance
_geom_bond_site_symmetry_2
B0 H8 1.182665 1_555
B0 H6 1.305395 1_555
B0 H4 1.305395 1_555
B1 H9 1.182665 1_555
B1 H7 1.305395 1_555
B1 H5 1.305395 1_555
B2 H10 1.183364 1_655
B2 H0 1.339334 1_655
B2 H4 1.370503 1_555
B3 H11 1.183364 1_455
B3 H1 1.339334 1_455
B3 H5 1.370503 1_555
B4 H19 1.183364 1_545
B4 H2 1.339334 1_545
B4 H6 1.370503 1_555
B5 H18 1.183364 1_565
B5 H3 1.339334 1_565
B5 H7 1.370503 1_555
B6 H17 1.187087 1_555
B6 H0 1.328740 1_555
B7 H16 1.187087 1_555
B7 H1 1.328740 1_555
B8 H15 1.187087 1_555
B8 H2 1.328740 1_555
B9 H14 1.187087 1_555
B9 H3 1.328740 1_555
B10 H13 1.185657 1_555
B11 H12 1.185657 1_555
