# generated using pymatgen
data_Na10Nb2Ga6Si7S5O48
_symmetry_space_group_name_H-M   'P 1'
_cell_length_a   17.82268662
_cell_length_b   8.85727090
_cell_length_c   22.07275555
_cell_angle_alpha   90.08526403
_cell_angle_beta   90.39750733
_cell_angle_gamma   119.84154196
_symmetry_Int_Tables_number   1
_chemical_formula_structural   Na10Nb2Ga6Si7S5O48
_chemical_formula_sum   'Na30 Nb6 Ga18 Si21 S15 O144'
_cell_volume   3022.27532450
_cell_formula_units_Z   3
loop_
 _symmetry_equiv_pos_site_id
 _symmetry_equiv_pos_as_xyz
  1  'x, y, z'
loop_
 _atom_site_type_symbol
 _atom_site_label
 _atom_site_symmetry_multiplicity
 _atom_site_fract_x
 _atom_site_fract_y
 _atom_site_fract_z
 _atom_site_occupancy
  Na  Na0  1  0.31968290  0.00458413  0.24361458  1
  Na  Na1  1  0.81513984  0.00154801  0.24851341  1
  Na  Na2  1  0.18709149  0.36817697  0.24583233  1
  Na  Na3  1  0.31505590  0.62828325  0.74913821  1
  Na  Na4  1  0.81880065  0.63318105  0.74306957  1
  Na  Na5  1  0.68543669  0.00418580  0.74686542  1
  Na  Na6  1  0.15719954  0.33661677  0.58211350  1
  Na  Na7  1  0.65254794  0.33199024  0.57619422  1
  Na  Na8  1  0.01734193  0.69749449  0.57152016  1
  Na  Na9  1  0.15544290  0.97629242  0.07981428  1
  Na  Na10  1  0.65627116  0.97556208  0.08115429  1
  Na  Na11  1  0.51687955  0.33582565  0.07048573  1
  Na  Na12  1  0.85195592  0.03104447  0.92202150  1
  Na  Na13  1  0.66504077  0.30634035  0.91977846  1
  Na  Na14  1  0.48587838  0.30053728  0.42224819  1
  Na  Na15  1  0.16642043  0.02429467  0.42068469  1
  Na  Na16  1  0.66744428  0.05409595  0.41562205  1
  Na  Na17  1  0.84929907  0.66284177  0.41402862  1
  Na  Na18  1  0.99436102  0.99896309  0.49539801  1
  Na  Na19  1  0.48030382  0.96641597  0.49299074  1
  Na  Na20  1  0.99917292  0.99637979  0.99271609  1
  Na  Na21  1  0.48211690  0.98838833  0.99252549  1
  Na  Na22  1  0.33368857  0.32353345  0.83282753  1
  Na  Na23  1  0.84687574  0.34811713  0.83230948  1
  Na  Na24  1  0.33958031  0.36051442  0.33345420  1
  Na  Na25  1  0.83698893  0.34543840  0.33036995  1
  Na  Na26  1  0.16441282  0.64572235  0.15864939  1
  Na  Na27  1  0.67613193  0.66714000  0.16475843  1
  Na  Na28  1  0.17768183  0.68622798  0.66591894  1
  Na  Na29  1  0.66465818  0.68347325  0.65926557  1
  Nb  Nb0  1  0.00031582  0.00776607  0.64908114  1
  Nb  Nb1  1  0.50283824  0.98563585  0.64069284  1
  Nb  Nb2  1  0.00358257  0.01958340  0.14010233  1
  Nb  Nb3  1  0.49923723  0.99060152  0.14846804  1
  Nb  Nb4  1  0.16369614  0.67639066  0.31071470  1
  Nb  Nb5  1  0.66207301  0.64700401  0.81140331  1
  Ga  Ga0  1  0.00340501  0.99961066  0.34791658  1
  Ga  Ga1  1  0.50086387  0.99711943  0.35389745  1
  Ga  Ga2  1  0.99732915  0.00601532  0.84954913  1
  Ga  Ga3  1  0.49768030  0.00770563  0.84844416  1
  Ga  Ga4  1  0.32106753  0.34150210  0.68862011  1
  Ga  Ga5  1  0.81894808  0.30721151  0.68296959  1
  Ga  Ga6  1  0.32029473  0.32850675  0.18375500  1
  Ga  Ga7  1  0.82085510  0.30034218  0.18804365  1
  Ga  Ga8  1  0.33344719  0.31113087  0.98024542  1
  Ga  Ga9  1  0.82994717  0.34116060  0.98810238  1
  Ga  Ga10  1  0.32587999  0.32112581  0.48748429  1
  Ga  Ga11  1  0.83033269  0.35329975  0.47916487  1
  Ga  Ga12  1  0.17711251  0.67141177  0.01993361  1
  Ga  Ga13  1  0.68526527  0.65129876  0.01792877  1
  Ga  Ga14  1  0.18437191  0.71593663  0.51996390  1
  Ga  Ga15  1  0.67363619  0.66651820  0.52113364  1
  Ga  Ga16  1  0.66238728  0.66647653  0.31568317  1
  Ga  Ga17  1  0.16349376  0.65225133  0.81687609  1
  Si  Si0  1  0.14546382  0.00408399  0.24929008  1
  Si  Si1  1  0.64556012  0.99144407  0.25847758  1
  Si  Si2  1  0.35913034  0.70099891  0.25500099  1
  Si  Si3  1  0.99289330  0.28599257  0.25365790  1
  Si  Si4  1  0.14562840  0.29530709  0.75849491  1
  Si  Si5  1  0.64398648  0.28326872  0.74982769  1
  Si  Si6  1  0.49242506  0.69994360  0.75478492  1
  Si  Si7  1  0.85614448  0.01639963  0.75530125  1
  Si  Si8  1  0.19258496  0.04464280  0.58659138  1
  Si  Si9  1  0.69135210  0.03367797  0.57720700  1
  Si  Si10  1  0.32747954  0.61710143  0.57989174  1
  Si  Si11  1  0.83275660  0.62022440  0.58592432  1
  Si  Si12  1  0.33277147  0.04511475  0.08505765  1
  Si  Si13  1  0.82823568  0.03713174  0.07798537  1
  Si  Si14  1  0.19374520  0.34508084  0.07764549  1
  Si  Si15  1  0.69331210  0.34007469  0.08659298  1
  Si  Si16  1  0.82466449  0.66936707  0.91562673  1
  Si  Si17  1  0.51447568  0.36711219  0.92116970  1
  Si  Si18  1  0.31938624  0.97368946  0.41675591  1
  Si  Si19  1  0.66516761  0.38312988  0.41567757  1
  Si  Si20  1  0.01851080  0.66446952  0.42099550  1
  S  S0  1  0.85583614  0.70696556  0.25073762  1
  S  S1  1  0.50394105  0.30170644  0.25027442  1
  S  S2  1  0.00516210  0.71081859  0.75182629  1
  S  S3  1  0.35362791  0.00282004  0.75139491  1
  S  S4  1  0.47653208  0.33498121  0.58434964  1
  S  S5  1  0.97270136  0.32908050  0.58282837  1
  S  S6  1  0.47331557  0.61641395  0.08288032  1
  S  S7  1  0.97858624  0.61990624  0.08361742  1
  S  S8  1  0.31317730  0.66811634  0.91558234  1
  S  S9  1  0.02413068  0.38468758  0.91870783  1
  S  S10  1  0.16576466  0.94503668  0.91594708  1
  S  S11  1  0.66354027  0.95457117  0.91805356  1
  S  S12  1  0.81482453  0.96104387  0.41600569  1
  S  S13  1  0.16473911  0.37309991  0.41779266  1
  S  S14  1  0.52146293  0.66409709  0.41827777  1
  O  O0  1  0.10340717  0.03403447  0.30947536  1
  O  O1  1  0.60180270  0.01610637  0.31834656  1
  O  O2  1  0.41633134  0.80075353  0.31259188  1
  O  O3  1  0.90175963  0.78279549  0.30973544  1
  O  O4  1  0.49173536  0.19639684  0.30494041  1
  O  O5  1  0.97290231  0.15097962  0.30886250  1
  O  O6  1  0.09651244  0.16817577  0.81398837  1
  O  O7  1  0.60139457  0.16795130  0.80942425  1
  O  O8  1  0.47281556  0.79658283  0.80949237  1
  O  O9  1  0.98760885  0.79356154  0.80376966  1
  O  O10  1  0.40305455  0.02545138  0.80835217  1
  O  O11  1  0.90731108  0.03698212  0.81777813  1
  O  O12  1  0.39658728  0.97047873  0.69871384  1
  O  O13  1  0.90441113  0.97074737  0.69941814  1
  O  O14  1  0.08570743  0.20226885  0.69517772  1
  O  O15  1  0.58667040  0.19234144  0.68830185  1
  O  O16  1  0.01627252  0.81629122  0.69494764  1
  O  O17  1  0.51059895  0.82736401  0.69282736  1
  O  O18  1  0.40134416  0.83247442  0.19553282  1
  O  O19  1  0.90380608  0.82535803  0.19952344  1
  O  O20  1  0.01009677  0.19331198  0.19197731  1
  O  O21  1  0.51292849  0.21064065  0.19503089  1
  O  O22  1  0.08821900  0.98307469  0.18810042  1
  O  O23  1  0.58335626  0.96701523  0.19717355  1
  O  O24  1  0.43226950  0.34976148  0.63679750  1
  O  O25  1  0.93229591  0.34949948  0.63777503  1
  O  O26  1  0.25404403  0.14348765  0.64277144  1
  O  O27  1  0.73782677  0.10439043  0.64282491  1
  O  O28  1  0.31082153  0.51363907  0.64387738  1
  O  O29  1  0.82234114  0.50332321  0.64574691  1
  O  O30  1  0.43167399  0.51333323  0.13729652  1
  O  O31  1  0.93957450  0.51910615  0.13765654  1
  O  O32  1  0.31731145  0.12942844  0.14660406  1
  O  O33  1  0.81204675  0.11357814  0.14053431  1
  O  O34  1  0.23759875  0.36633409  0.14433446  1
  O  O35  1  0.75517208  0.36890787  0.14330553  1
  O  O36  1  0.23845129  0.29336544  0.02397650  1
  O  O37  1  0.72471920  0.29415518  0.02285736  1
  O  O38  1  0.42365133  0.54703093  0.02690609  1
  O  O39  1  0.92790185  0.54622068  0.02696476  1
  O  O40  1  0.36426066  0.17710695  0.02819782  1
  O  O41  1  0.84809907  0.16169219  0.01831842  1
  O  O42  1  0.22224119  0.14990553  0.52220011  1
  O  O43  1  0.73441269  0.16747027  0.52102664  1
  O  O44  1  0.34944615  0.52908588  0.52312537  1
  O  O45  1  0.85873989  0.55465351  0.52469057  1
  O  O46  1  0.43021059  0.31206254  0.52543736  1
  O  O47  1  0.92238638  0.30202191  0.52731761  1
  O  O48  1  0.27043628  0.69550857  0.96864068  1
  O  O49  1  0.78245757  0.72067923  0.97132929  1
  O  O50  1  0.07569011  0.48134501  0.97220437  1
  O  O51  1  0.58168805  0.46114707  0.97863813  1
  O  O52  1  0.15868404  0.84884403  0.97347196  1
  O  O53  1  0.65661613  0.85580815  0.97299334  1
  O  O54  1  0.27860641  0.85677128  0.47532585  1
  O  O55  1  0.77118686  0.84460484  0.46794019  1
  O  O56  1  0.15683932  0.45670027  0.47275574  1
  O  O57  1  0.64767398  0.46349120  0.47814715  1
  O  O58  1  0.08331574  0.70605184  0.47913122  1
  O  O59  1  0.57703875  0.68651986  0.47113852  1
  O  O60  1  0.07246429  0.65086511  0.36125196  1
  O  O61  1  0.56042302  0.64254402  0.36129074  1
  O  O62  1  0.25320946  0.87573538  0.35703324  1
  O  O63  1  0.76410508  0.88802224  0.35854001  1
  O  O64  1  0.17089656  0.47362753  0.36193959  1
  O  O65  1  0.68358117  0.51693490  0.35925138  1
  O  O66  1  0.06356222  0.48014122  0.86150187  1
  O  O67  1  0.57155137  0.49223141  0.86179628  1
  O  O68  1  0.17325404  0.85130928  0.86190104  1
  O  O69  1  0.67180628  0.86476327  0.86288212  1
  O  O70  1  0.26355836  0.65262773  0.85821200  1
  O  O71  1  0.75736026  0.63646156  0.85588088  1
  O  O72  1  0.00776273  0.84026375  0.41087334  1
  O  O73  1  0.51337736  0.82282667  0.41687422  1
  O  O74  1  0.41530057  0.00246627  0.40674379  1
  O  O75  1  0.90035150  0.96971197  0.41314146  1
  O  O76  1  0.08638442  0.19414087  0.41454926  1
  O  O77  1  0.58030286  0.18787016  0.41125992  1
  O  O78  1  0.01750324  0.21007023  0.91884337  1
  O  O79  1  0.50994298  0.17762291  0.91066363  1
  O  O80  1  0.08734152  0.95946636  0.91242199  1
  O  O81  1  0.58724700  0.97927830  0.91448468  1
  O  O82  1  0.39954045  0.82610618  0.91320827  1
  O  O83  1  0.91898194  0.84450679  0.90717725  1
  O  O84  1  0.48689408  0.17428330  0.58755696  1
  O  O85  1  0.98304913  0.16658211  0.58757644  1
  O  O86  1  0.09333816  0.02786798  0.59400571  1
  O  O87  1  0.59223194  0.02183379  0.58364157  1
  O  O88  1  0.41220081  0.81837951  0.58766791  1
  O  O89  1  0.92013719  0.81570139  0.59426164  1
  O  O90  1  0.48492209  0.80029302  0.08804501  1
  O  O91  1  0.98760063  0.80021343  0.08720628  1
  O  O92  1  0.41914928  0.02113387  0.09362361  1
  O  O93  1  0.91328499  0.00713001  0.08674160  1
  O  O94  1  0.09342995  0.15975550  0.08312826  1
  O  O95  1  0.59435116  0.16000721  0.09460057  1
  O  O96  1  0.34548882  0.15748149  0.74473113  1
  O  O97  1  0.84495481  0.18381829  0.74361643  1
  O  O98  1  0.24143013  0.31875949  0.75184578  1
  O  O99  1  0.74243442  0.31669174  0.74645526  1
  O  O100  1  0.41187639  0.50861596  0.74300860  1
  O  O101  1  0.92896322  0.53734279  0.74491210  1
  O  O102  1  0.34588385  0.50875167  0.24425602  1
  O  O103  1  0.84765542  0.53555650  0.24528872  1
  O  O104  1  0.42611650  0.31741803  0.24359068  1
  O  O105  1  0.91164539  0.31441370  0.24247544  1
  O  O106  1  0.24346212  0.16886747  0.24722354  1
  O  O107  1  0.74135200  0.16081629  0.25057967  1
  O  O108  1  0.31826949  0.50854654  0.92041909  1
  O  O109  1  0.82306270  0.48320905  0.92309582  1
  O  O110  1  0.42139681  0.35980034  0.92174739  1
  O  O111  1  0.93560996  0.36028692  0.91959762  1
  O  O112  1  0.24557666  0.11798781  0.91690608  1
  O  O113  1  0.74422822  0.12896034  0.91652310  1
  O  O114  1  0.32480960  0.16695855  0.42233348  1
  O  O115  1  0.82355459  0.13411697  0.42283604  1
  O  O116  1  0.24277673  0.35274086  0.41697865  1
  O  O117  1  0.75278830  0.36434452  0.41845459  1
  O  O118  1  0.43594104  0.50454160  0.42131242  1
  O  O119  1  0.92366731  0.49095105  0.42186753  1
  O  O120  1  0.17336276  0.50267109  0.07119229  1
  O  O121  1  0.67166623  0.49800335  0.08249217  1
  O  O122  1  0.06863405  0.65391335  0.07746146  1
  O  O123  1  0.56166546  0.64481632  0.08062014  1
  O  O124  1  0.24417774  0.85726805  0.07613904  1
  O  O125  1  0.73959260  0.84726900  0.07195454  1
  O  O126  1  0.16956006  0.84235517  0.58450866  1
  O  O127  1  0.67237778  0.83679578  0.56976654  1
  O  O128  1  0.23886177  0.62952961  0.57304005  1
  O  O129  1  0.74467292  0.63187755  0.58079213  1
  O  O130  1  0.06130330  0.47672519  0.57993018  1
  O  O131  1  0.56562193  0.48552620  0.58237401  1
  O  O132  1  0.15440137  0.82561887  0.25026160  1
  O  O133  1  0.65916195  0.81866679  0.25847240  1
  O  O134  1  0.26062963  0.68107786  0.25912455  1
  O  O135  1  0.77045364  0.70010380  0.25107903  1
  O  O136  1  0.08659522  0.46663186  0.25862533  1
  O  O137  1  0.58337453  0.47306754  0.25206568  1
  O  O138  1  0.15749859  0.49355286  0.75873422  1
  O  O139  1  0.65357708  0.48019815  0.75130030  1
  O  O140  1  0.08558791  0.70285161  0.75720600  1
  O  O141  1  0.58599696  0.70520270  0.75994490  1
  O  O142  1  0.26680351  0.84012840  0.75534835  1
  O  O143  1  0.75878709  0.83851091  0.75770178  1
loop_
_geom_bond_atom_site_label_1
_geom_bond_atom_site_label_2
_geom_bond_distance
_geom_bond_site_symmetry_2
Na0 O32 2.421148 1_555
Na0 O106 2.436689 1_555
Na0 O104 2.458675 1_555
Na0 O134 2.538099 1_545
Na0 O132 2.563461 1_545
Na0 O62 2.770818 1_545
Na0 O18 2.791618 1_545
Na0 O4 2.978689 1_555
Na1 O107 2.359771 1_555
Na1 O135 2.377202 1_545
Na1 O105 2.432309 1_555
Na1 O133 2.434821 1_545
Na1 O33 2.593818 1_555
Na1 O63 2.619955 1_545
Na1 O5 2.769706 1_555
Na1 O19 2.928291 1_545
Na2 O136 2.368333 1_555
Na2 O134 2.421171 1_555
Na2 O34 2.423260 1_555
Na2 O106 2.427254 1_555
Na2 O102 2.460814 1_555
Na2 O64 2.791969 1_555
Na2 O0 2.933518 1_555
Na2 O20 2.973727 1_555
Na3 O98 2.379672 1_555
Na3 O142 2.426091 1_555
Na3 O100 2.437724 1_555
Na3 O138 2.455275 1_555
Na3 O28 2.519773 1_555
Na3 O70 2.628937 1_555
Na3 O8 2.770083 1_555
Na3 O12 2.861138 1_555
Na4 O99 2.433338 1_555
Na4 O29 2.451192 1_555
Na4 O101 2.496958 1_555
Na4 O143 2.548502 1_555
Na4 O139 2.564689 1_555
Na4 O71 2.733058 1_555
Na4 O13 2.772155 1_555
Na4 O9 2.924013 1_555
Na5 O141 2.361297 1_545
Na5 O143 2.413601 1_545
Na5 O99 2.428052 1_555
Na5 O97 2.474046 1_555
Na5 O27 2.478786 1_555
Na5 O69 2.803788 1_545
Na5 O7 2.905045 1_555
Na5 O17 2.944739 1_545
Na6 O128 2.266508 1_555
Na6 O86 2.398216 1_555
Na6 O130 2.563850 1_555
Na6 O56 2.640473 1_555
Na6 O85 2.696312 1_455
Na6 O28 2.735489 1_555
Na6 O42 2.783917 1_555
Na6 O14 2.794952 1_555
Na7 O129 2.327673 1_555
Na7 O87 2.407116 1_555
Na7 O57 2.480600 1_555
Na7 O131 2.523347 1_555
Na7 O84 2.576388 1_555
Na7 O15 2.763308 1_555
Na7 O43 2.805414 1_555
Na8 O58 2.343505 1_555
Na8 O126 2.369050 1_555
Na8 O130 2.448631 1_555
Na8 O89 2.482983 1_455
Na8 O86 2.585634 1_565
Na8 O45 2.656285 1_455
Na8 O16 2.922659 1_555
Na9 O124 2.297803 1_555
Na9 O94 2.378154 1_565
Na9 O122 2.480236 1_555
Na9 O91 2.602298 1_455
Na9 O52 2.616522 1_554
Na9 O22 2.694985 1_555
Na9 O36 2.737802 1_565
Na9 O32 2.894253 1_565
Na10 O125 2.284863 1_555
Na10 O95 2.402550 1_565
Na10 O123 2.551264 1_555
Na10 O53 2.612277 1_554
Na10 O90 2.654880 1_555
Na10 O33 2.736312 1_565
Na10 O37 2.777329 1_565
Na10 O23 2.863810 1_555
Na11 O51 2.332286 1_554
Na11 O121 2.406053 1_555
Na11 O123 2.449277 1_555
Na11 O92 2.499745 1_555
Na11 O40 2.530152 1_555
Na11 O95 2.597511 1_555
Na12 O41 2.436304 1_556
Na12 O113 2.471339 1_555
Na12 O83 2.496451 1_545
Na12 O11 2.500128 1_555
Na12 O111 2.530707 1_555
Na12 O78 2.563557 1_655
Na12 O49 2.629566 1_545
Na13 O79 2.415909 1_555
Na13 O109 2.448954 1_555
Na13 O81 2.515435 1_545
Na13 O37 2.530030 1_556
Na13 O113 2.583250 1_555
Na13 O7 2.700268 1_555
Na13 O51 2.797068 1_555
Na13 O71 2.915922 1_555
Na14 O74 2.314264 1_555
Na14 O77 2.358626 1_555
Na14 O118 2.378626 1_555
Na14 O114 2.502112 1_555
Na14 O46 2.512771 1_555
Na14 O4 2.767434 1_555
Na14 O57 2.779237 1_555
Na15 O114 2.452628 1_555
Na15 O72 2.470449 1_545
Na15 O42 2.471543 1_555
Na15 O116 2.526660 1_555
Na15 O76 2.539650 1_555
Na15 O0 2.711651 1_555
Na15 O58 2.772339 1_545
Na15 O62 2.854505 1_545
Na16 O77 2.378017 1_555
Na16 O1 2.379777 1_555
Na16 O117 2.388973 1_555
Na16 O73 2.477929 1_545
Na16 O115 2.509958 1_555
Na16 O43 2.570526 1_555
Na17 O117 2.331417 1_555
Na17 O75 2.398986 1_555
Na17 O72 2.457002 1_655
Na17 O119 2.471958 1_555
Na17 O3 2.520104 1_555
Na17 O45 2.659822 1_555
Na17 O65 2.828876 1_555
Na17 O55 2.862493 1_555
Na18 O75 2.386486 1_555
Na18 O72 2.417893 1_655
Na18 O76 2.468035 1_665
Na18 O85 2.584402 1_565
Na18 O89 2.657129 1_555
Na18 O86 2.722191 1_665
Na19 O74 2.325429 1_565
Na19 O73 2.353969 1_555
Na19 O88 2.453402 1_555
Na19 O77 2.618087 1_565
Na19 O87 2.681653 1_565
Na19 O84 2.744176 1_565
Na20 O83 2.336380 1_555
Na20 O78 2.397722 1_665
Na20 O80 2.503102 1_655
Na20 O94 2.534621 1_666
Na20 O93 2.616891 1_566
Na20 O91 2.659234 1_556
Na21 O82 2.269062 1_555
Na21 O79 2.348279 1_565
Na21 O81 2.584447 1_555
Na21 O92 2.584566 1_566
Na21 O90 2.704670 1_556
Na21 O95 2.879144 1_566
Na22 O98 2.406327 1_555
Na22 O110 2.419671 1_555
Na22 O96 2.508702 1_555
Na22 O100 2.516807 1_555
Na22 O112 2.535738 1_555
Na22 O108 2.635336 1_555
Na23 O97 2.427445 1_555
Na23 O111 2.451997 1_555
Na23 O109 2.477406 1_555
Na23 O101 2.505872 1_555
Na23 O99 2.562695 1_555
Na23 O113 2.663432 1_555
Na24 O102 2.340270 1_555
Na24 O118 2.470566 1_555
Na24 O116 2.511296 1_555
Na24 O114 2.534781 1_555
Na24 O106 2.547542 1_555
Na24 O104 2.661753 1_555
Na25 O107 2.420128 1_555
Na25 O105 2.451113 1_555
Na25 O119 2.468583 1_555
Na25 O103 2.468669 1_555
Na25 O117 2.519898 1_555
Na25 O115 2.701565 1_555
Na26 O120 2.357010 1_555
Na26 O122 2.492356 1_555
Na26 O124 2.498769 1_555
Na26 O132 2.634032 1_555
Na26 O136 2.678225 1_555
Na26 O134 2.714397 1_555
Na27 O121 2.327902 1_555
Na27 O135 2.450910 1_555
Na27 O125 2.503362 1_555
Na27 O133 2.564359 1_555
Na27 O137 2.574397 1_555
Na27 O123 2.682359 1_555
Na28 O126 2.316308 1_555
Na28 O142 2.463998 1_555
Na28 O128 2.493380 1_555
Na28 O138 2.578490 1_555
Na28 O140 2.657314 1_555
Na28 O130 2.729916 1_555
Na29 O127 2.364639 1_555
Na29 O129 2.433785 1_555
Na29 O131 2.437161 1_555
Na29 O143 2.658736 1_555
Na29 O139 2.658961 1_555
Na29 O141 2.692859 1_555
Nb0 O14 1.919208 1_555
Nb0 O13 1.932178 1_445
Nb0 O89 1.987642 1_445
Nb0 O86 1.998260 1_555
Nb0 O85 2.084985 1_455
Nb0 O16 2.112623 1_545
Nb1 O17 1.871932 1_555
Nb1 O87 1.935885 1_565
Nb1 O88 1.939327 1_555
Nb1 O15 1.984640 1_565
Nb1 O84 2.173017 1_565
Nb1 O12 2.241727 1_555
Nb2 O20 1.872822 1_555
Nb2 O94 1.934209 1_555
Nb2 O93 1.945781 1_455
Nb2 O22 1.991660 1_545
Nb2 O91 2.158123 1_445
Nb2 O19 2.199219 1_445
Nb3 O18 1.918969 1_555
Nb3 O23 1.933157 1_555
Nb3 O92 1.984235 1_565
Nb3 O95 2.010147 1_565
Nb3 O90 2.060520 1_555
Nb3 O21 2.105116 1_565
Nb4 O60 1.897202 1_555
Nb4 O132 1.942962 1_555
Nb4 O62 1.968912 1_555
Nb4 O136 2.023096 1_555
Nb4 O134 2.058922 1_555
Nb4 O64 2.180286 1_555
Nb5 O67 1.883544 1_555
Nb5 O139 1.932480 1_555
Nb5 O71 1.997907 1_555
Nb5 O141 2.017472 1_555
Nb5 O143 2.092352 1_555
Nb5 O69 2.167734 1_555
Ga0 O0 1.862921 1_565
Ga0 O5 1.886391 1_465
Ga0 O72 2.010602 1_555
Ga0 O3 2.047372 1_455
Ga0 O76 2.178396 1_565
Ga0 O75 2.251675 1_455
Ga1 O2 1.869368 1_555
Ga1 O1 1.897192 1_565
Ga1 O74 1.945456 1_565
Ga1 O77 2.012546 1_565
Ga1 O4 2.144445 1_565
Ga1 O73 2.170243 1_555
Ga2 O6 1.816503 1_655
Ga2 O11 1.887829 1_555
Ga2 O83 1.912156 1_545
Ga2 O9 2.063875 1_545
Ga2 O78 2.252263 1_655
Ga2 O80 2.301878 1_645
Ga3 O7 1.894164 1_555
Ga3 O8 1.896735 1_545
Ga3 O79 1.965004 1_555
Ga3 O10 1.973720 1_555
Ga3 O82 2.220754 1_545
Ga3 O81 2.259496 1_545
Ga4 O26 1.849339 1_555
Ga4 O28 1.900620 1_555
Ga4 O98 1.935593 1_555
Ga4 O100 1.958358 1_555
Ga4 O96 2.254902 1_555
Ga4 O24 2.264773 1_555
Ga5 O27 1.869588 1_555
Ga5 O29 1.896394 1_555
Ga5 O97 1.923849 1_555
Ga5 O99 1.992598 1_555
Ga5 O25 2.119559 1_555
Ga5 O101 2.417795 1_555
Ga6 O34 1.875143 1_555
Ga6 O32 1.919960 1_555
Ga6 O102 1.949536 1_555
Ga6 O106 1.985602 1_555
Ga6 O30 2.114523 1_555
Ga6 O104 2.336936 1_555
Ga7 O35 1.845984 1_555
Ga7 O33 1.896018 1_555
Ga7 O107 1.931288 1_555
Ga7 O105 1.961949 1_555
Ga7 O103 2.271242 1_555
Ga7 O31 2.329660 1_555
Ga8 O40 1.864280 1_556
Ga8 O36 1.892358 1_556
Ga8 O110 1.915039 1_555
Ga8 O112 2.151747 1_555
Ga8 O38 2.153764 1_556
Ga8 O108 2.312380 1_555
Ga9 O37 1.876957 1_556
Ga9 O41 1.894274 1_556
Ga9 O109 1.952807 1_555
Ga9 O39 1.975208 1_556
Ga9 O113 2.337272 1_555
Ga9 O111 2.363115 1_555
Ga10 O44 1.846424 1_555
Ga10 O42 1.879954 1_555
Ga10 O114 1.975049 1_555
Ga10 O46 2.071940 1_555
Ga10 O116 2.253029 1_555
Ga10 O118 2.344298 1_555
Ga11 O45 1.880366 1_555
Ga11 O43 1.926548 1_555
Ga11 O117 1.955656 1_555
Ga11 O119 1.966849 1_555
Ga11 O47 2.178645 1_555
Ga11 O115 2.255368 1_555
Ga12 O120 1.850684 1_555
Ga12 O124 1.921678 1_555
Ga12 O48 1.940987 1_554
Ga12 O52 2.035495 1_554
Ga12 O50 2.037467 1_554
Ga12 O122 2.260706 1_555
Ga13 O49 1.844842 1_554
Ga13 O121 1.901641 1_555
Ga13 O125 1.917721 1_555
Ga13 O51 1.968698 1_554
Ga13 O53 2.333329 1_554
Ga14 O54 1.813616 1_555
Ga14 O128 1.904717 1_555
Ga14 O126 1.909929 1_555
Ga14 O58 1.970845 1_555
Ga14 O56 2.337359 1_555
Ga14 O130 2.544754 1_555
Ga15 O127 1.859208 1_555
Ga15 O57 1.873199 1_555
Ga15 O129 1.948271 1_555
Ga15 O55 2.047922 1_555
Ga15 O59 2.119179 1_555
Ga15 O131 2.252638 1_555
Ga16 O65 1.821687 1_555
Ga16 O133 1.869818 1_555
Ga16 O61 2.000872 1_555
Ga16 O137 2.110475 1_555
Ga16 O63 2.112420 1_555
Ga16 O135 2.302223 1_555
Ga17 O138 1.864799 1_555
Ga17 O66 1.947566 1_555
Ga17 O68 1.952860 1_555
Ga17 O70 1.996137 1_555
Ga17 O140 2.111676 1_555
Ga17 O142 2.235151 1_555
O0 Si0 1.614828 1_555
O1 Si1 1.607854 1_545
O2 Si2 1.586869 1_555
O3 S0 1.500791 1_555
O4 S1 1.475928 1_555
O5 Si3 1.621145 1_555
O6 Si4 1.603936 1_555
O7 Si5 1.611258 1_555
O8 Si6 1.616624 1_555
O9 S2 1.476541 1_655
O10 S3 1.484891 1_555
O11 Si7 1.607152 1_555
O12 S3 1.500019 1_565
O13 Si7 1.668664 1_565
O14 Si4 1.694954 1_555
O15 Si5 1.641693 1_555
O16 S2 1.520191 1_555
O17 Si6 1.701716 1_555
O18 Si2 1.670762 1_555
O19 S0 1.494380 1_555
O20 Si3 1.695410 1_455
O21 S1 1.513769 1_555
O22 Si0 1.640404 1_565
O23 Si1 1.687156 1_555
O24 S4 1.447295 1_555
O25 S5 1.470825 1_555
O26 Si8 1.589834 1_555
O27 Si9 1.624959 1_555
O28 Si10 1.631420 1_555
O29 Si11 1.632892 1_555
O30 S6 1.472534 1_555
O31 S7 1.449203 1_555
O32 Si12 1.638930 1_555
O33 Si13 1.626355 1_555
O34 Si14 1.627856 1_555
O35 Si15 1.596072 1_555
O36 Si14 1.619480 1_555
O37 Si15 1.641248 1_555
O38 S6 1.459054 1_555
O39 S7 1.483518 1_555
O40 Si12 1.618044 1_555
O41 Si13 1.642906 1_555
O42 Si8 1.640926 1_555
O43 Si9 1.625887 1_555
O44 Si10 1.624391 1_555
O45 Si11 1.628677 1_555
O46 S4 1.493733 1_555
O47 S5 1.460441 1_555
O48 S8 1.485324 1_555
O49 Si16 1.623431 1_555
O50 S9 1.473327 1_555
O51 Si17 1.649416 1_555
O52 S10 1.500832 1_555
O53 S11 1.465887 1_555
O54 Si18 1.593726 1_555
O55 S12 1.483321 1_555
O56 S13 1.464034 1_555
O57 Si19 1.651982 1_555
O58 Si20 1.634315 1_555
O59 S14 1.472900 1_555
O60 Si20 1.676486 1_555
O61 S14 1.498045 1_555
O62 Si18 1.684707 1_555
O63 S12 1.498050 1_555
O64 S13 1.494198 1_555
O65 Si19 1.639051 1_555
O66 S9 1.492401 1_555
O67 Si17 1.697447 1_555
O68 S10 1.496549 1_555
O69 S11 1.501227 1_555
O70 S8 1.505875 1_555
O71 Si16 1.700569 1_555
O72 Si20 1.675805 1_555
O73 S14 1.483243 1_555
O74 Si18 1.614873 1_545
O75 S12 1.489405 1_555
O76 S13 1.504375 1_555
O77 Si19 1.637809 1_555
O78 S9 1.491390 1_555
O79 Si17 1.655546 1_555
O80 S10 1.467068 1_555
O81 S11 1.482471 1_555
O82 S8 1.479154 1_555
O83 Si16 1.636148 1_555
O84 S4 1.525368 1_555
O85 S5 1.543019 1_555
O86 Si8 1.708861 1_555
O87 Si9 1.723687 1_555
O88 Si10 1.674576 1_555
O89 Si11 1.663897 1_555
O90 S6 1.540186 1_555
O91 S7 1.525348 1_555
O92 Si12 1.665048 1_555
O93 Si13 1.674096 1_555
O94 Si14 1.728734 1_555
O95 Si15 1.700416 1_555
O96 S3 1.455098 1_555
O97 Si7 1.612433 1_555
O98 Si4 1.621926 1_555
O99 Si5 1.629958 1_555
O100 Si6 1.603952 1_555
O101 S2 1.465698 1_655
O102 Si2 1.615366 1_555
O103 S0 1.455891 1_555
O104 S1 1.467766 1_555
O105 Si3 1.605977 1_555
O106 Si0 1.627027 1_555
O107 Si1 1.628394 1_545
O108 S8 1.464640 1_555
O109 Si16 1.643392 1_555
O110 Si17 1.627800 1_555
O111 S9 1.482317 1_655
O112 S10 1.483708 1_545
O113 S11 1.498412 1_545
O114 Si18 1.670156 1_545
O115 S12 1.469185 1_545
O116 S13 1.489032 1_555
O117 Si19 1.651497 1_555
O118 S14 1.477469 1_555
O119 Si20 1.623219 1_655
O120 Si14 1.614022 1_555
O121 Si15 1.628086 1_555
O122 S7 1.485574 1_455
O123 S6 1.467018 1_555
O124 Si12 1.637185 1_565
O125 Si13 1.641350 1_565
O126 Si8 1.627427 1_565
O127 Si9 1.610525 1_565
O128 Si10 1.642948 1_555
O129 Si11 1.626917 1_555
O130 S5 1.467776 1_455
O131 S4 1.481599 1_555
O132 Si0 1.665872 1_565
O133 Si1 1.664302 1_555
O134 Si2 1.677902 1_555
O135 S0 1.492507 1_555
O136 Si3 1.642760 1_455
O137 S1 1.473124 1_555
O138 Si4 1.660809 1_555
O139 Si5 1.666057 1_555
O140 S2 1.473789 1_555
O141 Si6 1.648154 1_555
O142 S3 1.503913 1_565
O143 Si7 1.666388 1_565
