# generated using pymatgen
data_Na10Hf4In4Si7S5O48
_symmetry_space_group_name_H-M   'P 1'
_cell_length_a   18.29921292
_cell_length_b   9.11549235
_cell_length_c   22.76698536
_cell_angle_alpha   89.84427727
_cell_angle_beta   90.32782183
_cell_angle_gamma   119.67793576
_symmetry_Int_Tables_number   1
_chemical_formula_structural   Na10Hf4In4Si7S5O48
_chemical_formula_sum   'Na30 Hf12 In12 Si21 S15 O144'
_cell_volume   3299.45257684
_cell_formula_units_Z   3
loop_
 _symmetry_equiv_pos_site_id
 _symmetry_equiv_pos_as_xyz
  1  'x, y, z'
loop_
 _atom_site_type_symbol
 _atom_site_label
 _atom_site_symmetry_multiplicity
 _atom_site_fract_x
 _atom_site_fract_y
 _atom_site_fract_z
 _atom_site_occupancy
  Na  Na0  1  0.18466175  0.37418655  0.23668318  1
  Na  Na1  1  0.68445487  0.37507038  0.23778391  1
  Na  Na2  1  0.98970796  0.62859909  0.25683633  1
  Na  Na3  1  0.49075495  0.62873805  0.25650140  1
  Na  Na4  1  0.48965526  0.34509852  0.76395462  1
  Na  Na5  1  0.18554042  0.99758265  0.74217202  1
  Na  Na6  1  0.68341566  -0.00288459  0.74064216  1
  Na  Na7  1  0.66241750  0.34526089  0.57753020  1
  Na  Na8  1  0.01739261  0.70494873  0.57461682  1
  Na  Na9  1  0.82467359  0.95868126  0.59481733  1
  Na  Na10  1  0.49372158  0.67231887  0.90909210  1
  Na  Na11  1  0.99581462  0.67519539  0.90741792  1
  Na  Na12  1  0.85007641  0.03716418  0.90124518  1
  Na  Na13  1  0.15520398  0.29293383  0.92648391  1
  Na  Na14  1  0.49392832  0.31607338  0.40796636  1
  Na  Na15  1  0.99072523  0.31085514  0.40844651  1
  Na  Na16  1  0.34956908  0.66187963  0.40080451  1
  Na  Na17  1  0.85061237  0.66613039  0.40596328  1
  Na  Na18  1  0.03026629  0.00997603  0.49478618  1
  Na  Na19  1  0.52647881  0.98824153  0.49328771  1
  Na  Na20  1  0.01762159  0.02927180  0.99834162  1
  Na  Na21  1  0.52591024  0.06325854  0.99294847  1
  Na  Na22  1  0.34214851  0.31692008  0.83155427  1
  Na  Na23  1  0.85046441  0.34168242  0.82351479  1
  Na  Na24  1  0.33729092  0.33253602  0.32613720  1
  Na  Na25  1  0.83576869  0.33181776  0.32845561  1
  Na  Na26  1  0.17933590  0.66109857  0.16010564  1
  Na  Na27  1  0.67876096  0.66184554  0.16094743  1
  Na  Na28  1  0.17998324  0.68914458  0.66707199  1
  Na  Na29  1  0.67478626  0.68911675  0.66431105  1
  Hf  Hf0  1  0.99778837  0.98750112  0.64886486  1
  Hf  Hf1  1  0.49504436  0.98161007  0.64793535  1
  Hf  Hf2  1  0.99910793  0.01304729  0.14637930  1
  Hf  Hf3  1  0.49838985  0.01121059  0.14602387  1
  Hf  Hf4  1  0.32938349  0.32009034  0.97972748  1
  Hf  Hf5  1  0.82494365  0.32337558  0.98028111  1
  Hf  Hf6  1  0.32664834  0.32829859  0.47993382  1
  Hf  Hf7  1  0.82824761  0.34263272  0.48004461  1
  Hf  Hf8  1  0.16450989  0.65432193  0.31299049  1
  Hf  Hf9  1  0.66350628  0.65404785  0.31340877  1
  Hf  Hf10  1  0.16237584  0.67517802  0.81288359  1
  Hf  Hf11  1  0.66470578  0.67480573  0.81322508  1
  In  In0  1  0.00122039  0.00168778  0.35030333  1
  In  In1  1  0.50140144  0.00090606  0.34954280  1
  In  In2  1  0.99843655  -0.00239429  0.84720277  1
  In  In3  1  0.49657561  -0.00320138  0.85242088  1
  In  In4  1  0.33224316  0.32467218  0.68507381  1
  In  In5  1  0.83461339  0.33316934  0.68518922  1
  In  In6  1  0.33398171  0.34363799  0.18188593  1
  In  In7  1  0.83368249  0.34402156  0.18236941  1
  In  In8  1  0.15925639  0.64778354  0.01659602  1
  In  In9  1  0.65728824  0.64354889  0.01737107  1
  In  In10  1  0.16326263  0.67428507  0.51596812  1
  In  In11  1  0.66104125  0.66891004  0.51784532  1
  Si  Si0  1  0.35223872  0.71021087  0.25036060  1
  Si  Si1  1  0.85262804  0.71134491  0.25069962  1
  Si  Si2  1  0.99614432  0.29379965  0.25258871  1
  Si  Si3  1  0.49620748  0.29325780  0.25251998  1
  Si  Si4  1  0.99772587  0.69602892  0.75269897  1
  Si  Si5  1  0.49635207  0.69736342  0.75348453  1
  Si  Si6  1  0.35235607  0.99395576  0.74904147  1
  Si  Si7  1  0.84955036  0.99671452  0.75047460  1
  Si  Si8  1  0.18513357  0.03318219  0.58702838  1
  Si  Si9  1  0.68421920  0.03863392  0.58641324  1
  Si  Si10  1  0.83193310  0.62924387  0.58247711  1
  Si  Si11  1  0.18400594  0.33580451  0.08452890  1
  Si  Si12  1  0.68335231  0.33584875  0.08681975  1
  Si  Si13  1  0.01832385  0.36685736  0.91692008  1
  Si  Si14  1  0.51545196  0.36236456  0.91565080  1
  Si  Si15  1  0.16551308  0.95889520  0.91755988  1
  Si  Si16  1  0.66500348  0.95664089  0.91946394  1
  Si  Si17  1  0.16492883  0.37177172  0.41840256  1
  Si  Si18  1  0.66390505  0.36586712  0.41958226  1
  Si  Si19  1  0.01680404  0.66875250  0.41792604  1
  Si  Si20  1  0.51682543  0.66751666  0.41598243  1
  S  S0  1  0.14683280  0.99736037  0.24820217  1
  S  S1  1  0.64715649  0.99706228  0.24787465  1
  S  S2  1  0.14769415  0.30118326  0.75015052  1
  S  S3  1  0.64387552  0.29274255  0.74788248  1
  S  S4  1  0.47990612  0.32461164  0.58342976  1
  S  S5  1  0.98167238  0.32997981  0.58085935  1
  S  S6  1  0.33477499  0.62921506  0.58199061  1
  S  S7  1  0.48231874  0.63786632  0.08420477  1
  S  S8  1  0.98224122  0.63764463  0.08331499  1
  S  S9  1  0.33349419  0.03898683  0.08410190  1
  S  S10  1  0.83431870  0.04000977  0.08291923  1
  S  S11  1  0.31123060  0.66094939  0.91863272  1
  S  S12  1  0.81185278  0.66076969  0.91861866  1
  S  S13  1  0.31182184  0.96386543  0.41741754  1
  S  S14  1  0.81184558  0.96441357  0.41792347  1
  O  O0  1  0.11214283  0.03186031  0.30190606  1
  O  O1  1  0.61248237  0.03163794  0.30178132  1
  O  O2  1  0.40596109  0.78115168  0.31107641  1
  O  O3  1  0.90747610  0.78223341  0.31104840  1
  O  O4  1  0.48531534  0.19936323  0.31515880  1
  O  O5  1  0.98634517  0.20028830  0.31490230  1
  O  O6  1  0.11321075  0.20686258  0.80629455  1
  O  O7  1  0.60510865  0.18705063  0.80010710  1
  O  O8  1  0.48685742  0.77350513  0.81498453  1
  O  O9  1  0.99252639  0.77866439  0.81481391  1
  O  O10  1  0.41804789  0.04731881  0.80287599  1
  O  O11  1  0.89877195  0.01421222  0.81173906  1
  O  O12  1  0.40174619  0.98382585  0.68928863  1
  O  O13  1  0.90314601  0.99482258  0.69191317  1
  O  O14  1  0.09320023  0.20660554  0.69945843  1
  O  O15  1  0.59217643  0.20936423  0.69349441  1
  O  O16  1  0.01136893  0.82627663  0.69756360  1
  O  O17  1  0.51248196  0.82982469  0.69860663  1
  O  O18  1  0.40844035  0.82593548  0.19483762  1
  O  O19  1  0.90811174  0.82698945  0.19457811  1
  O  O20  1  0.01566295  0.19686717  0.19909247  1
  O  O21  1  0.51443225  0.19434898  0.19917536  1
  O  O22  1  0.09291179  0.97760927  0.19610342  1
  O  O23  1  0.59305702  0.97710152  0.19608637  1
  O  O24  1  0.44028500  0.34140578  0.63748132  1
  O  O25  1  0.94044310  0.35346868  0.63242869  1
  O  O26  1  0.23202317  0.11422464  0.64878383  1
  O  O27  1  0.73624630  0.11094953  0.64752203  1
  O  O28  1  0.32763306  0.52991671  0.63492984  1
  O  O29  1  0.81263998  0.49775822  0.63491833  1
  O  O30  1  0.44471490  0.54289375  0.13974177  1
  O  O31  1  0.94421023  0.54360918  0.13873388  1
  O  O32  1  0.32702774  0.12102579  0.13788276  1
  O  O33  1  0.82862848  0.12684125  0.13582192  1
  O  O34  1  0.23054057  0.34243496  0.14694143  1
  O  O35  1  0.72910123  0.34292752  0.14948706  1
  O  O36  1  0.23873575  0.32265431  0.02854875  1
  O  O37  1  0.74204329  0.32428838  0.03365279  1
  O  O38  1  0.43175195  0.54043646  0.03221325  1
  O  O39  1  0.93224814  0.54168446  0.03099415  1
  O  O40  1  0.34326826  0.14532453  0.03138633  1
  O  O41  1  0.84427695  0.14285364  0.02877374  1
  O  O42  1  0.24210264  0.15543032  0.53182770  1
  O  O43  1  0.74038340  0.17076665  0.53220736  1
  O  O44  1  0.34313781  0.54393932  0.52773110  1
  O  O45  1  0.85119317  0.55086479  0.52208029  1
  O  O46  1  0.43183303  0.32304245  0.53009324  1
  O  O47  1  0.93252073  0.31438891  0.52586517  1
  O  O48  1  0.27556037  0.68570041  0.97285825  1
  O  O49  1  0.77431718  0.68358194  0.97192317  1
  O  O50  1  0.08151012  0.42887455  0.97292706  1
  O  O51  1  0.56894283  0.44002016  0.97459980  1
  O  O52  1  0.14845627  0.83333679  0.97254388  1
  O  O53  1  0.65690097  0.84146976  0.97518391  1
  O  O54  1  0.27479523  0.86847709  0.47142351  1
  O  O55  1  0.77594413  0.87162434  0.47320384  1
  O  O56  1  0.15437763  0.46909603  0.47372644  1
  O  O57  1  0.65301200  0.44956297  0.47938926  1
  O  O58  1  0.06345085  0.69159230  0.48091173  1
  O  O59  1  0.57266071  0.69661009  0.47385500  1
  O  O60  1  0.07155037  0.65463588  0.36178514  1
  O  O61  1  0.56381265  0.64760198  0.35608461  1
  O  O62  1  0.25978844  0.88005325  0.36485971  1
  O  O63  1  0.75798922  0.87342989  0.36641508  1
  O  O64  1  0.18307774  0.49236684  0.35916929  1
  O  O65  1  0.67757883  0.49353403  0.36326681  1
  O  O66  1  0.06889354  0.49581297  0.86160604  1
  O  O67  1  0.56512610  0.48408437  0.85699803  1
  O  O68  1  0.17770605  0.87570103  0.85682071  1
  O  O69  1  0.68302453  0.87116330  0.86036358  1
  O  O70  1  0.25839434  0.64138945  0.86651027  1
  O  O71  1  0.76025583  0.63992661  0.86533897  1
  O  O72  1  -0.00379247  0.82323574  0.41374823  1
  O  O73  1  0.49375927  0.81877914  0.41269719  1
  O  O74  1  0.39688576  0.98428151  0.41323008  1
  O  O75  1  0.89635284  0.98123979  0.41324826  1
  O  O76  1  0.08151252  0.18799572  0.41376798  1
  O  O77  1  0.58036262  0.18237529  0.41361511  1
  O  O78  1  -0.00193727  0.17116167  0.91017812  1
  O  O79  1  0.49609283  0.17019487  0.91193244  1
  O  O80  1  0.08428709  0.99013641  0.91402513  1
  O  O81  1  0.58103139  0.97246026  0.91404008  1
  O  O82  1  0.39843277  0.79773030  0.91398216  1
  O  O83  1  0.89749116  0.80910093  0.91425986  1
  O  O84  1  0.48533176  0.16698511  0.58415455  1
  O  O85  1  0.98518810  0.17058036  0.58560606  1
  O  O86  1  0.09033911  0.01577696  0.58757931  1
  O  O87  1  0.59298855  0.03916382  0.58781798  1
  O  O88  1  0.41453627  0.79647509  0.58469175  1
  O  O89  1  0.91769254  0.81663035  0.59024684  1
  O  O90  1  0.48403687  0.80260710  0.08596534  1
  O  O91  1  0.98506209  0.80388829  0.08479924  1
  O  O92  1  0.41206329  0.02641651  0.08681667  1
  O  O93  1  0.91366324  0.02877920  0.08636337  1
  O  O94  1  0.08969713  0.16110317  0.08708374  1
  O  O95  1  0.58936022  0.16180203  0.08761234  1
  O  O96  1  0.33447876  0.15503772  0.74762968  1
  O  O97  1  0.82854995  0.15207410  0.74916720  1
  O  O98  1  0.23218405  0.31827565  0.74493936  1
  O  O99  1  0.72872040  0.31598223  0.74409580  1
  O  O100  1  0.41947850  0.50520068  0.74379671  1
  O  O101  1  0.91706961  0.51114135  0.74618458  1
  O  O102  1  0.33506196  0.51331333  0.24821444  1
  O  O103  1  0.83642554  0.51522720  0.24829443  1
  O  O104  1  0.41864242  0.33102171  0.24323769  1
  O  O105  1  0.91839422  0.33031823  0.24297186  1
  O  O106  1  0.23282235  0.13972119  0.24261205  1
  O  O107  1  0.73328025  0.13890291  0.24259610  1
  O  O108  1  0.31404319  0.49679345  0.92245844  1
  O  O109  1  0.82277114  0.50766308  0.92280723  1
  O  O110  1  0.42612007  0.37398289  0.92196766  1
  O  O111  1  0.92825880  0.36890192  0.92574534  1
  O  O112  1  0.24880533  0.15011100  0.92434050  1
  O  O113  1  0.75322748  0.14327596  0.92444715  1
  O  O114  1  0.32221261  0.13807638  0.42097039  1
  O  O115  1  0.82227099  0.13706164  0.41994972  1
  O  O116  1  0.25306845  0.36216111  0.42385289  1
  O  O117  1  0.75287733  0.35982025  0.41961400  1
  O  O118  1  0.42516661  0.48318591  0.42213638  1
  O  O119  1  0.92631489  0.48297779  0.41805554  1
  O  O120  1  0.17608997  0.50722142  0.08248855  1
  O  O121  1  0.67612279  0.50709585  0.08329355  1
  O  O122  1  0.06876304  0.66449131  0.08170965  1
  O  O123  1  0.56903996  0.66687643  0.08280099  1
  O  O124  1  0.25973440  0.86997383  0.07872565  1
  O  O125  1  0.76164520  0.87077842  0.07919868  1
  O  O126  1  0.16940653  0.83748551  0.58373940  1
  O  O127  1  0.67602530  0.85324243  0.58067900  1
  O  O128  1  0.26230211  0.65555270  0.57782327  1
  O  O129  1  0.75092896  0.65815961  0.57794303  1
  O  O130  1  0.06705466  0.47822552  0.57931435  1
  O  O131  1  0.56743667  0.46906593  0.58300287  1
  O  O132  1  0.14732683  0.83555210  0.25376863  1
  O  O133  1  0.64797822  0.83550482  0.25350359  1
  O  O134  1  0.25864805  0.69728077  0.25395872  1
  O  O135  1  0.75855320  0.69583294  0.25505803  1
  O  O136  1  0.08399698  0.48451296  0.25495336  1
  O  O137  1  0.58475884  0.48268734  0.25434250  1
  O  O138  1  0.15481821  0.46935878  0.75271503  1
  O  O139  1  0.64584011  0.45737328  0.75234057  1
  O  O140  1  0.08824653  0.69360790  0.75138725  1
  O  O141  1  0.58534265  0.68722573  0.75399694  1
  O  O142  1  0.26063603  0.82075427  0.75577727  1
  O  O143  1  0.75637513  0.81794735  0.75253635  1
loop_
_geom_bond_atom_site_label_1
_geom_bond_atom_site_label_2
_geom_bond_distance
_geom_bond_site_symmetry_2
Na0 O34 2.286161 1_555
Na0 O102 2.406059 1_555
Na0 O136 2.534407 1_555
Na0 O134 2.591015 1_555
Na0 O106 2.687955 1_555
Na0 O20 2.817127 1_555
Na1 O35 2.247995 1_555
Na1 O103 2.428772 1_555
Na1 O137 2.492954 1_555
Na1 O135 2.572285 1_555
Na1 O107 2.710542 1_555
Na1 O21 2.840363 1_555
Na2 O105 2.383650 1_555
Na2 O103 2.469397 1_555
Na2 O132 2.548794 1_655
Na2 O136 2.636133 1_655
Na2 O60 2.760167 1_655
Na2 O3 2.804720 1_555
Na2 O31 2.805388 1_555
Na3 O104 2.377195 1_555
Na3 O102 2.507244 1_555
Na3 O133 2.542900 1_555
Na3 O61 2.587836 1_555
Na3 O137 2.646327 1_555
Na3 O30 2.778730 1_555
Na3 O2 2.836880 1_555
Na4 O100 2.415595 1_555
Na4 O67 2.499633 1_555
Na4 O96 2.514526 1_555
Na4 O10 2.519586 1_555
Na4 O139 2.529130 1_555
Na4 O141 2.727014 1_555
Na4 O24 3.008157 1_555
Na5 O26 2.342527 1_565
Na5 O96 2.372134 1_565
Na5 O140 2.451033 1_555
Na5 O142 2.601603 1_555
Na5 O98 2.609141 1_565
Na5 O68 2.810492 1_555
Na5 O16 2.944702 1_555
Na6 O97 2.316707 1_555
Na6 O27 2.350349 1_555
Na6 O141 2.504833 1_545
Na6 O143 2.583771 1_545
Na6 O99 2.599281 1_555
Na6 O17 2.876747 1_545
Na6 O69 2.953424 1_545
Na7 O87 2.437997 1_555
Na7 O57 2.464162 1_555
Na7 O129 2.486760 1_555
Na7 O131 2.501129 1_555
Na7 O29 2.716786 1_555
Na7 O43 2.811270 1_555
Na7 O84 2.820312 1_555
Na7 O15 2.932819 1_555
Na8 O58 2.323813 1_555
Na8 O126 2.430553 1_555
Na8 O86 2.480246 1_565
Na8 O89 2.517974 1_455
Na8 O130 2.639331 1_555
Na8 O45 2.896638 1_455
Na9 O129 2.410827 1_555
Na9 O127 2.414400 1_555
Na9 O13 2.560550 1_555
Na9 O89 2.601969 1_555
Na9 O85 2.605609 1_565
Na9 O27 2.870564 1_565
Na9 O55 2.893779 1_555
Na10 O8 2.357528 1_555
Na10 O110 2.383334 1_555
Na10 O81 2.392012 1_555
Na10 O82 2.517272 1_555
Na10 O108 2.874495 1_555
Na10 O67 2.882198 1_555
Na11 O9 2.319939 1_555
Na11 O111 2.465640 1_555
Na11 O80 2.506493 1_655
Na11 O83 2.632573 1_555
Na11 O109 2.775460 1_555
Na11 O66 2.782177 1_655
Na11 O52 2.838228 1_655
Na12 O11 2.279932 1_555
Na12 O78 2.363540 1_655
Na12 O113 2.463035 1_555
Na12 O83 2.634838 1_545
Na12 O111 2.686669 1_555
Na12 O69 2.809857 1_545
Na13 O80 2.415786 1_545
Na13 O50 2.479987 1_555
Na13 O78 2.543233 1_555
Na13 O108 2.561948 1_555
Na13 O112 2.615456 1_555
Na13 O36 2.713343 1_556
Na13 O6 2.843284 1_555
Na14 O4 2.337430 1_555
Na14 O77 2.430883 1_555
Na14 O118 2.431713 1_555
Na14 O74 2.645209 1_545
Na14 O114 2.748346 1_555
Na14 O61 2.886913 1_555
Na15 O5 2.342574 1_555
Na15 O119 2.394761 1_555
Na15 O76 2.422464 1_655
Na15 O75 2.623763 1_545
Na15 O115 2.692909 1_555
Na15 O47 2.889439 1_555
Na15 O60 2.923450 1_655
Na15 O56 2.990142 1_655
Na16 O2 2.306767 1_555
Na16 O73 2.310384 1_555
Na16 O116 2.466433 1_555
Na16 O74 2.635999 1_555
Na16 O118 2.649951 1_555
Na16 O64 2.807390 1_555
Na17 O72 2.323439 1_655
Na17 O3 2.407326 1_555
Na17 O117 2.479526 1_555
Na17 O75 2.568828 1_555
Na17 O119 2.658106 1_555
Na17 O45 2.844034 1_555
Na17 O65 2.913100 1_555
Na18 O76 2.326290 1_555
Na18 O86 2.364499 1_555
Na18 O72 2.375575 1_545
Na18 O85 2.886331 1_455
Na18 O89 2.916928 1_445
Na18 O75 2.972320 1_445
Na19 O73 2.279946 1_555
Na19 O77 2.381010 1_565
Na19 O87 2.396788 1_565
Na19 O88 2.839985 1_555
Na19 O84 2.958458 1_565
Na19 O74 2.968727 1_555
Na20 O94 2.383032 1_556
Na20 O80 2.400404 1_545
Na20 O78 2.503192 1_555
Na20 O91 2.688809 1_446
Na20 O93 2.769489 1_456
Na20 O83 2.851097 1_445
Na21 O79 2.270562 1_555
Na21 O95 2.397714 1_556
Na21 O81 2.405291 1_545
Na22 O96 2.378064 1_555
Na22 O110 2.459077 1_555
Na22 O100 2.559038 1_555
Na22 O112 2.672843 1_555
Na22 O98 2.813728 1_555
Na22 O108 2.846381 1_555
Na23 O101 2.262006 1_555
Na23 O97 2.309764 1_555
Na23 O111 2.668474 1_555
Na23 O99 2.779710 1_555
Na23 O109 2.906405 1_555
Na23 O113 2.924892 1_555
Na24 O104 2.414775 1_555
Na24 O102 2.431934 1_555
Na24 O106 2.647492 1_555
Na24 O118 2.652909 1_555
Na24 O114 2.716888 1_555
Na24 O116 2.802165 1_555
Na25 O103 2.467748 1_555
Na25 O105 2.475537 1_555
Na25 O119 2.553638 1_555
Na25 O117 2.663754 1_555
Na25 O115 2.665208 1_555
Na25 O107 2.672393 1_555
Na26 O120 2.241303 1_555
Na26 O134 2.505042 1_555
Na26 O124 2.541777 1_555
Na26 O122 2.702052 1_555
Na26 O136 2.746102 1_555
Na26 O132 2.893831 1_555
Na27 O121 2.250100 1_555
Na27 O135 2.517663 1_555
Na27 O125 2.558161 1_555
Na27 O123 2.692333 1_555
Na27 O137 2.718167 1_555
Na27 O133 2.859769 1_555
Na28 O126 2.388809 1_555
Na28 O142 2.433475 1_555
Na28 O140 2.570901 1_555
Na28 O128 2.643256 1_555
Na28 O138 2.665182 1_555
Na28 O130 2.828094 1_555
Na29 O127 2.411558 1_555
Na29 O143 2.425911 1_555
Na29 O129 2.512225 1_555
Na29 O141 2.618896 1_555
Na29 O131 2.717684 1_555
Na29 O139 2.764204 1_555
Hf0 O16 1.949493 1_655
Hf0 O89 2.020786 1_555
Hf0 O13 2.024514 1_555
Hf0 O86 2.115273 1_665
Hf0 O14 2.213717 1_665
Hf0 O85 2.297094 1_565
Hf1 O17 1.941993 1_555
Hf1 O12 1.963230 1_555
Hf1 O87 2.110436 1_565
Hf1 O88 2.149086 1_555
Hf1 O15 2.209477 1_565
Hf1 O84 2.297097 1_565
Hf2 O20 1.960570 1_655
Hf2 O19 2.016821 1_545
Hf2 O94 2.047475 1_655
Hf2 O93 2.128107 1_555
Hf2 O22 2.203928 1_645
Hf2 O91 2.278565 1_545
Hf3 O21 1.964440 1_555
Hf3 O18 2.013617 1_545
Hf3 O95 2.043672 1_555
Hf3 O92 2.126771 1_555
Hf3 O23 2.214855 1_545
Hf3 O90 2.251641 1_545
Hf4 O112 1.972822 1_555
Hf4 O36 2.011765 1_556
Hf4 O110 2.065479 1_555
Hf4 O40 2.091152 1_556
Hf4 O108 2.192128 1_555
Hf4 O38 2.287550 1_556
Hf5 O37 1.952316 1_556
Hf5 O113 1.972838 1_555
Hf5 O111 2.129618 1_555
Hf5 O109 2.142272 1_555
Hf5 O41 2.148026 1_556
Hf5 O39 2.294763 1_556
Hf6 O42 1.967022 1_555
Hf6 O116 1.981960 1_555
Hf6 O118 2.114605 1_555
Hf6 O44 2.135326 1_555
Hf6 O114 2.165031 1_555
Hf6 O46 2.253248 1_555
Hf7 O45 1.977670 1_555
Hf7 O43 1.991805 1_555
Hf7 O117 2.002690 1_555
Hf7 O119 2.143503 1_555
Hf7 O115 2.281357 1_555
Hf7 O47 2.292962 1_555
Hf8 O64 1.970901 1_555
Hf8 O136 2.010746 1_555
Hf8 O60 2.038205 1_555
Hf8 O134 2.069489 1_555
Hf8 O62 2.259516 1_555
Hf8 O132 2.267891 1_555
Hf9 O65 1.963770 1_555
Hf9 O137 2.021173 1_555
Hf9 O61 2.046805 1_555
Hf9 O135 2.074293 1_555
Hf9 O63 2.238345 1_555
Hf9 O133 2.263963 1_555
Hf10 O68 1.979742 1_555
Hf10 O140 2.007793 1_555
Hf10 O66 2.017978 1_555
Hf10 O142 2.083022 1_555
Hf10 O138 2.273854 1_555
Hf10 O70 2.276418 1_555
Hf11 O69 1.969779 1_555
Hf11 O141 2.019858 1_555
Hf11 O67 2.051929 1_555
Hf11 O143 2.067565 1_555
Hf11 O71 2.256266 1_555
Hf11 O139 2.302356 1_555
In0 O3 2.082601 1_445
In0 O5 2.116262 1_455
In0 O72 2.140540 1_545
In0 O76 2.156112 1_555
In0 O0 2.209281 1_555
In0 O75 2.333833 1_445
In1 O2 2.087463 1_545
In1 O4 2.118738 1_555
In1 O77 2.138730 1_555
In1 O73 2.145352 1_545
In1 O1 2.202836 1_555
In1 O74 2.350908 1_545
In2 O11 2.063219 1_555
In2 O9 2.081309 1_545
In2 O78 2.140501 1_655
In2 O80 2.205711 1_645
In2 O6 2.227696 1_655
In2 O83 2.360183 1_545
In3 O10 2.045317 1_555
In3 O79 2.087991 1_555
In3 O8 2.133141 1_545
In3 O81 2.172285 1_545
In3 O7 2.230631 1_555
In3 O82 2.295737 1_545
In4 O26 2.057536 1_555
In4 O100 2.104743 1_555
In4 O96 2.114497 1_555
In4 O24 2.197988 1_555
In4 O28 2.225825 1_555
In4 O98 2.266281 1_555
In5 O29 2.074924 1_555
In5 O101 2.097928 1_555
In5 O27 2.111846 1_555
In5 O97 2.160186 1_555
In5 O25 2.213165 1_555
In5 O99 2.303484 1_555
In6 O34 2.044105 1_555
In6 O104 2.124888 1_555
In6 O102 2.157562 1_555
In6 O30 2.166531 1_555
In6 O32 2.211664 1_555
In6 O106 2.324064 1_555
In7 O35 2.046400 1_555
In7 O105 2.118631 1_555
In7 O103 2.150606 1_555
In7 O31 2.181064 1_555
In7 O33 2.209033 1_555
In7 O107 2.316215 1_555
In8 O50 2.043951 1_554
In8 O52 2.055561 1_554
In8 O120 2.088595 1_555
In8 O48 2.221380 1_554
In8 O122 2.289559 1_555
In8 O124 2.404537 1_555
In9 O51 2.006375 1_554
In9 O53 2.044668 1_554
In9 O121 2.080129 1_555
In9 O49 2.244863 1_554
In9 O123 2.289401 1_555
In9 O125 2.446771 1_555
In10 O56 2.038768 1_555
In10 O58 2.065404 1_555
In10 O126 2.109812 1_555
In10 O54 2.182613 1_555
In10 O130 2.296251 1_555
In10 O128 2.360692 1_555
In11 O59 2.016662 1_555
In11 O127 2.120683 1_555
In11 O57 2.122050 1_555
In11 O129 2.172658 1_555
In11 O55 2.243959 1_555
In11 O131 2.318961 1_555
O0 S0 1.485081 1_545
O1 S1 1.489036 1_545
O2 Si0 1.629478 1_555
O3 Si1 1.630796 1_555
O4 Si3 1.622875 1_555
O5 Si2 1.617532 1_555
O6 S2 1.495757 1_555
O7 S3 1.473703 1_555
O8 Si5 1.612413 1_555
O9 Si4 1.629305 1_555
O10 Si6 1.609732 1_545
O11 Si7 1.620736 1_545
O12 Si6 1.665366 1_555
O13 Si7 1.664819 1_555
O14 S2 1.486786 1_555
O15 S3 1.511829 1_555
O16 Si4 1.658192 1_455
O17 Si5 1.658061 1_555
O18 Si0 1.643693 1_555
O19 Si1 1.649947 1_555
O20 Si2 1.647739 1_455
O21 Si3 1.645432 1_555
O22 S0 1.491568 1_555
O23 S1 1.487545 1_555
O24 S4 1.478043 1_555
O25 S5 1.471389 1_555
O26 Si8 1.619544 1_555
O27 Si9 1.626320 1_555
O28 S6 1.472338 1_555
O29 Si10 1.601458 1_555
O30 S7 1.495263 1_555
O31 S8 1.491465 1_555
O32 S9 1.471982 1_555
O33 S10 1.475204 1_555
O34 Si11 1.638147 1_555
O35 Si12 1.635224 1_555
O36 Si11 1.666152 1_555
O37 Si12 1.660546 1_555
O38 S7 1.491814 1_555
O39 S8 1.490558 1_555
O40 S9 1.495475 1_555
O41 S10 1.502932 1_555
O42 Si8 1.662829 1_555
O43 Si9 1.676494 1_555
O44 S6 1.509593 1_555
O45 Si10 1.669038 1_555
O46 S4 1.491321 1_555
O47 S5 1.502770 1_555
O48 S11 1.468896 1_555
O49 S12 1.462931 1_555
O50 Si13 1.619319 1_555
O51 Si14 1.601379 1_555
O52 Si15 1.617822 1_555
O53 Si16 1.604434 1_555
O54 S13 1.465353 1_555
O55 S14 1.477981 1_555
O56 Si17 1.609129 1_555
O57 Si18 1.623319 1_555
O58 Si19 1.624793 1_555
O59 Si20 1.602649 1_555
O60 Si19 1.672449 1_555
O61 Si20 1.673692 1_555
O62 S13 1.481113 1_555
O63 S14 1.488954 1_555
O64 Si17 1.665199 1_555
O65 Si18 1.663728 1_555
O66 Si13 1.658963 1_555
O67 Si14 1.687484 1_555
O68 Si15 1.647405 1_555
O69 Si16 1.670791 1_555
O70 S11 1.480578 1_555
O71 S12 1.486438 1_555
O72 Si19 1.630501 1_555
O73 Si20 1.631052 1_555
O74 S13 1.476981 1_555
O75 S14 1.480938 1_555
O76 Si17 1.616924 1_555
O77 Si18 1.618635 1_555
O78 Si13 1.639844 1_555
O79 Si14 1.608461 1_555
O80 Si15 1.647587 1_555
O81 Si16 1.616913 1_555
O82 S11 1.463954 1_555
O83 S12 1.482128 1_555
O84 S4 1.488545 1_555
O85 S5 1.489521 1_555
O86 Si8 1.661955 1_555
O87 Si9 1.672335 1_555
O88 S6 1.501514 1_555
O89 Si10 1.660050 1_555
O90 S7 1.487023 1_555
O91 S8 1.490979 1_555
O92 S9 1.498721 1_555
O93 S10 1.506854 1_555
O94 Si11 1.672386 1_555
O95 Si12 1.665453 1_555
O96 Si6 1.655105 1_545
O97 Si7 1.640941 1_545
O98 S2 1.480618 1_555
O99 S3 1.462394 1_555
O100 Si5 1.629205 1_555
O101 Si4 1.605125 1_555
O102 Si0 1.662591 1_555
O103 Si1 1.662012 1_555
O104 Si3 1.630278 1_555
O105 Si2 1.627283 1_555
O106 S0 1.468184 1_545
O107 S1 1.467458 1_545
O108 S11 1.524742 1_555
O109 S12 1.507320 1_555
O110 Si14 1.696574 1_555
O111 Si13 1.670701 1_655
O112 Si15 1.659244 1_545
O113 Si16 1.671147 1_545
O114 S13 1.505329 1_545
O115 S14 1.489384 1_545
O116 Si17 1.661940 1_555
O117 Si18 1.656103 1_555
O118 Si20 1.693167 1_555
O119 Si19 1.683124 1_655
O120 Si11 1.639624 1_555
O121 Si12 1.632289 1_555
O122 S8 1.478152 1_455
O123 S7 1.474542 1_555
O124 S9 1.466391 1_565
O125 S10 1.457175 1_565
O126 Si8 1.662146 1_565
O127 Si9 1.626487 1_565
O128 S6 1.462588 1_555
O129 Si10 1.631680 1_555
O130 S5 1.475845 1_455
O131 S4 1.486978 1_555
O132 S0 1.484530 1_555
O133 S1 1.485363 1_555
O134 Si0 1.659936 1_555
O135 Si1 1.659585 1_555
O136 Si2 1.685695 1_455
O137 Si3 1.684631 1_555
O138 S2 1.474110 1_555
O139 S3 1.486952 1_555
O140 Si4 1.667932 1_455
O141 Si5 1.676110 1_555
O142 Si6 1.646450 1_555
O143 Si7 1.677478 1_555
