# generated using pymatgen
data_K2CeNb5O15
_symmetry_space_group_name_H-M   'P 1'
_cell_length_a   12.78501100
_cell_length_b   12.78501100
_cell_length_c   3.97062800
_cell_angle_alpha   90.00000000
_cell_angle_beta   90.00000000
_cell_angle_gamma   90.00000000
_symmetry_Int_Tables_number   1
_chemical_formula_structural   K2CeNb5O15
_chemical_formula_sum   'K4 Ce2 Nb10 O30'
_cell_volume   649.02498058
_cell_formula_units_Z   2
loop_
 _symmetry_equiv_pos_site_id
 _symmetry_equiv_pos_as_xyz
  1  'x, y, z'
loop_
 _atom_site_type_symbol
 _atom_site_label
 _atom_site_symmetry_multiplicity
 _atom_site_fract_x
 _atom_site_fract_y
 _atom_site_fract_z
 _atom_site_occupancy
  K  K0  1  0.32945400  0.82945400  0.00000000  1
  K  K1  1  0.67054600  0.17054600  0.00000000  1
  K  K2  1  0.17054600  0.32945400  0.00000000  1
  K  K3  1  0.82945400  0.67054600  0.00000000  1
  Ce  Ce0  1  0.00000000  0.00000000  0.00000000  1
  Ce  Ce1  1  0.50000000  0.50000000  0.00000000  1
  Nb  Nb0  1  0.07607700  0.78646700  0.50000000  1
  Nb  Nb1  1  0.28646700  0.57607700  0.50000000  1
  Nb  Nb2  1  0.78646700  0.92392300  0.50000000  1
  Nb  Nb3  1  0.71353300  0.42392300  0.50000000  1
  Nb  Nb4  1  0.57607700  0.71353300  0.50000000  1
  Nb  Nb5  1  0.92392300  0.21353300  0.50000000  1
  Nb  Nb6  1  0.00000000  0.50000000  0.50000000  1
  Nb  Nb7  1  0.42392300  0.28646700  0.50000000  1
  Nb  Nb8  1  0.21353300  0.07607700  0.50000000  1
  Nb  Nb9  1  0.50000000  0.00000000  0.50000000  1
  O  O0  1  0.13074800  0.93987700  0.50000000  1
  O  O1  1  0.57622800  0.69013800  0.00000000  1
  O  O2  1  0.00181700  0.34220900  0.50000000  1
  O  O3  1  0.86925200  0.06012300  0.50000000  1
  O  O4  1  0.06012300  0.13074800  0.50000000  1
  O  O5  1  0.49818300  0.84220900  0.50000000  1
  O  O6  1  0.50181700  0.15779100  0.50000000  1
  O  O7  1  0.19013800  0.07622800  0.00000000  1
  O  O8  1  0.63074800  0.56012300  0.50000000  1
  O  O9  1  0.80986200  0.92377200  0.00000000  1
  O  O10  1  0.65779100  0.00181700  0.50000000  1
  O  O11  1  0.36925200  0.43987700  0.50000000  1
  O  O12  1  0.07622800  0.80986200  0.00000000  1
  O  O13  1  0.43987700  0.63074800  0.50000000  1
  O  O14  1  0.30986200  0.57622800  0.00000000  1
  O  O15  1  0.99818300  0.65779100  0.50000000  1
  O  O16  1  0.93987700  0.86925200  0.50000000  1
  O  O17  1  0.15779100  0.49818300  0.50000000  1
  O  O18  1  0.21573700  0.71573700  0.50000000  1
  O  O19  1  0.00000000  0.50000000  0.00000000  1
  O  O20  1  0.69013800  0.42377200  0.00000000  1
  O  O21  1  0.42377200  0.30986200  0.00000000  1
  O  O22  1  0.84220900  0.50181700  0.50000000  1
  O  O23  1  0.56012300  0.36925200  0.50000000  1
  O  O24  1  0.71573700  0.78426300  0.50000000  1
  O  O25  1  0.50000000  0.00000000  0.00000000  1
  O  O26  1  0.78426300  0.28426300  0.50000000  1
  O  O27  1  0.34220900  0.99818300  0.50000000  1
  O  O28  1  0.28426300  0.21573700  0.50000000  1
  O  O29  1  0.92377200  0.19013800  0.00000000  1
loop_
_geom_bond_atom_site_label_1
_geom_bond_atom_site_label_2
_geom_bond_distance
_geom_bond_site_symmetry_2
K0 O18 2.858140 1_554
K0 O18 2.858140 1_555
K0 O5 2.936254 1_554
K0 O5 2.936254 1_555
K0 O27 2.936254 1_554
K0 O27 2.936254 1_555
K0 O25 3.083597 1_565
K0 O12 3.247173 1_555
K0 O14 3.247173 1_555
K1 O26 2.858140 1_555
K1 O26 2.858140 1_554
K1 O6 2.936254 1_555
K1 O6 2.936254 1_554
K1 O10 2.936254 1_554
K1 O10 2.936254 1_555
K1 O25 3.083597 1_555
K1 O20 3.247173 1_555
K1 O29 3.247173 1_555
K2 O28 2.858140 1_554
K2 O28 2.858140 1_555
K2 O17 2.936254 1_555
K2 O17 2.936254 1_554
K2 O2 2.936254 1_554
K2 O2 2.936254 1_555
K2 O19 3.083597 1_555
K2 O21 3.247173 1_555
K2 O7 3.247173 1_555
K3 O24 2.858140 1_555
K3 O24 2.858140 1_554
K3 O15 2.936254 1_555
K3 O15 2.936254 1_554
K3 O22 2.936254 1_555
K3 O22 2.936254 1_554
K3 O19 3.083597 1_655
K3 O9 3.247173 1_555
K3 O1 3.247173 1_555
Ce0 O9 2.618998 1_445
Ce0 O7 2.618998 1_555
Ce0 O29 2.618998 1_455
Ce0 O12 2.618998 1_545
Ce0 O4 2.706774 1_554
Ce0 O0 2.706774 1_544
Ce0 O4 2.706774 1_555
Ce0 O16 2.706774 1_444
Ce0 O16 2.706774 1_445
Ce0 O0 2.706774 1_545
Ce0 O3 2.706774 1_455
Ce0 O3 2.706774 1_454
Ce1 O14 2.618998 1_555
Ce1 O21 2.618998 1_555
Ce1 O1 2.618998 1_555
Ce1 O20 2.618998 1_555
Ce1 O13 2.706774 1_554
Ce1 O23 2.706774 1_554
Ce1 O8 2.706774 1_554
Ce1 O23 2.706774 1_555
Ce1 O11 2.706774 1_555
Ce1 O11 2.706774 1_554
Ce1 O13 2.706774 1_555
Ce1 O8 2.706774 1_555
Nb0 O15 1.923071 1_455
Nb0 O18 2.001483 1_555
Nb0 O12 2.007720 1_555
Nb0 O12 2.007720 1_556
Nb0 O16 2.037748 1_455
Nb0 O0 2.082173 1_555
Nb1 O17 1.923071 1_555
Nb1 O18 2.001483 1_555
Nb1 O14 2.007720 1_556
Nb1 O14 2.007720 1_555
Nb1 O11 2.037748 1_555
Nb1 O13 2.082173 1_555
Nb2 O10 1.923071 1_565
Nb2 O24 2.001483 1_555
Nb2 O9 2.007720 1_555
Nb2 O9 2.007720 1_556
Nb2 O3 2.037748 1_565
Nb2 O16 2.082173 1_555
Nb3 O22 1.923071 1_555
Nb3 O26 2.001483 1_555
Nb3 O20 2.007720 1_555
Nb3 O20 2.007720 1_556
Nb3 O8 2.037748 1_555
Nb3 O23 2.082173 1_555
Nb4 O5 1.923071 1_555
Nb4 O24 2.001483 1_555
Nb4 O1 2.007720 1_556
Nb4 O1 2.007720 1_555
Nb4 O13 2.037748 1_555
Nb4 O8 2.082173 1_555
Nb5 O2 1.923071 1_655
Nb5 O26 2.001483 1_555
Nb5 O29 2.007720 1_556
Nb5 O29 2.007720 1_555
Nb5 O4 2.037748 1_655
Nb5 O3 2.082173 1_555
Nb6 O19 1.985314 1_556
Nb6 O19 1.985314 1_555
Nb6 O17 2.017493 1_555
Nb6 O22 2.017493 1_455
Nb6 O2 2.017493 1_555
Nb6 O15 2.017493 1_455
Nb7 O6 1.923071 1_555
Nb7 O28 2.001483 1_555
Nb7 O21 2.007720 1_555
Nb7 O21 2.007720 1_556
Nb7 O23 2.037748 1_555
Nb7 O11 2.082173 1_555
Nb8 O27 1.923071 1_545
Nb8 O28 2.001483 1_555
Nb8 O7 2.007720 1_556
Nb8 O7 2.007720 1_555
Nb8 O0 2.037748 1_545
Nb8 O4 2.082173 1_555
Nb9 O25 1.985314 1_555
Nb9 O25 1.985314 1_556
Nb9 O6 2.017493 1_555
Nb9 O5 2.017493 1_545
Nb9 O27 2.017493 1_545
Nb9 O10 2.017493 1_555
