# generated using pymatgen
data_KMgAg2SbS4
_symmetry_space_group_name_H-M   'P 1'
_cell_length_a   7.40240866
_cell_length_b   7.40240737
_cell_length_c   6.30708616
_cell_angle_alpha   106.07422590
_cell_angle_beta   121.21687423
_cell_angle_gamma   108.81401867
_symmetry_Int_Tables_number   1
_chemical_formula_structural   KMgAg2SbS4
_chemical_formula_sum   'K1 Mg1 Ag2 Sb1 S4'
_cell_volume   233.92873008
_cell_formula_units_Z   1
loop_
 _symmetry_equiv_pos_site_id
 _symmetry_equiv_pos_as_xyz
  1  'x, y, z'
loop_
 _atom_site_type_symbol
 _atom_site_label
 _atom_site_symmetry_multiplicity
 _atom_site_fract_x
 _atom_site_fract_y
 _atom_site_fract_z
 _atom_site_occupancy
  K  K0  1  0.90465182  0.90465182  0.00000000  1
  Mg  Mg0  1  0.44354003  0.44354003  1.00000000  1
  Ag  Ag0  1  0.69102746  0.31813839  0.73931645  1
  Ag  Ag1  1  0.57882194  0.95171101  0.26068355  1
  Sb  Sb0  1  0.07117935  0.57117935  0.50000000  1
  S  S0  1  0.12898865  0.54917312  0.92183918  1
  S  S1  1  0.62733395  0.20714948  0.07816082  1
  S  S2  1  0.35831552  0.40412418  0.54798291  1
  S  S3  1  0.85614127  0.81033262  0.45201709  1
loop_
_geom_bond_atom_site_label_1
_geom_bond_atom_site_label_2
_geom_bond_distance
_geom_bond_site_symmetry_2
K0 S3 3.126838 1_554
K0 S2 3.126838 1_665
K0 S3 3.278083 1_555
K0 S2 3.278083 1_554
K0 S0 3.587992 1_654
K0 S1 3.587992 1_565
Mg0 S2 2.483378 1_555
Mg0 S3 2.483378 1_556
Mg0 S1 2.544418 1_556
Mg0 S0 2.544418 1_555
Ag0 S0 2.495092 1_655
Ag0 S2 2.506560 1_555
Ag0 S1 2.689147 1_556
Ag0 K0 3.602399 1_556
Ag1 S1 2.495092 1_565
Ag1 S3 2.506560 1_555
Ag1 S0 2.689147 1_554
Ag1 K0 3.602400 1_555
S0 Sb0 2.528464 1_555
S1 Sb0 2.528465 1_655
S2 Sb0 2.715572 1_555
S3 Sb0 2.715572 1_655
