# generated using pymatgen
data_Na3La3NbP5SO24
_symmetry_space_group_name_H-M   'P 1'
_cell_length_a   9.36189621
_cell_length_b   9.37853738
_cell_length_c   24.38849160
_cell_angle_alpha   89.85642820
_cell_angle_beta   90.19525710
_cell_angle_gamma   120.32242644
_symmetry_Int_Tables_number   1
_chemical_formula_structural   Na3La3NbP5SO24
_chemical_formula_sum   'Na9 La9 Nb3 P15 S3 O72'
_cell_volume   1848.38145472
_cell_formula_units_Z   3
loop_
 _symmetry_equiv_pos_site_id
 _symmetry_equiv_pos_as_xyz
  1  'x, y, z'
loop_
 _atom_site_type_symbol
 _atom_site_label
 _atom_site_symmetry_multiplicity
 _atom_site_fract_x
 _atom_site_fract_y
 _atom_site_fract_z
 _atom_site_occupancy
  Na  Na0  1  0.64469210  0.64500771  0.75198639  1
  Na  Na1  1  0.30226667  0.96089100  0.08152259  1
  Na  Na2  1  0.33736391  0.02628457  0.41699481  1
  Na  Na3  1  0.98238875  0.99926821  0.50139525  1
  Na  Na4  1  0.98797681  0.99844412  0.99910867  1
  Na  Na5  1  0.66536043  0.32169208  0.83520119  1
  Na  Na6  1  0.66376638  0.33227692  0.33070586  1
  Na  Na7  1  0.33100072  0.66270271  0.16859592  1
  Na  Na8  1  0.32018517  0.65887253  0.66558165  1
  La  La0  1  0.99903105  0.00290892  0.35177240  1
  La  La1  1  0.00589057  0.00468281  0.85257992  1
  La  La2  1  0.99646688  0.00247804  0.65012886  1
  La  La3  1  0.99756827  0.99949624  0.14386591  1
  La  La4  1  0.66950091  0.32724804  0.68665211  1
  La  La5  1  0.66376900  0.33039643  0.18458901  1
  La  La6  1  0.33567208  0.65803960  0.01594360  1
  La  La7  1  0.33625898  0.65794521  0.51703006  1
  La  La8  1  0.33390699  0.67216400  0.32219020  1
  Nb  Nb0  1  0.67006523  0.33819780  0.97911259  1
  Nb  Nb1  1  0.68074621  0.34799640  0.48368544  1
  Nb  Nb2  1  0.32601242  0.66562231  0.82067579  1
  P  P0  1  0.29941406  0.99532670  0.25027890  1
  P  P1  1  0.30124526  0.31800674  0.75366022  1
  P  P2  1  0.01295621  0.70314392  0.75357886  1
  P  P3  1  0.68288607  0.98176612  0.75510899  1
  P  P4  1  0.95354827  0.32782673  0.58013316  1
  P  P5  1  0.67399506  0.62425722  0.58244214  1
  P  P6  1  0.95281539  0.62302907  0.07820487  1
  P  P7  1  0.66960109  0.05296712  0.07700941  1
  P  P8  1  0.38159056  0.32779729  0.07786938  1
  P  P9  1  0.62039896  0.65015899  0.91564487  1
  P  P10  1  0.02862417  0.38064662  0.91670153  1
  P  P11  1  0.35145524  0.96826849  0.91864925  1
  P  P12  1  0.63646652  0.98612436  0.42180140  1
  P  P13  1  0.34888149  0.36281645  0.41973097  1
  P  P14  1  0.02570171  0.66062111  0.42002576  1
  S  S0  1  0.69560021  0.69948734  0.25028103  1
  S  S1  1  0.00420768  0.30490871  0.24983542  1
  S  S2  1  0.37474170  0.04593368  0.57816566  1
  O  O0  1  0.21007322  0.00425847  0.30255458  1
  O  O1  1  0.78956989  0.78480469  0.30000308  1
  O  O2  1  0.99108989  0.20933313  0.29951248  1
  O  O3  1  0.22271087  0.20526669  0.80273843  1
  O  O4  1  0.97871985  0.78483031  0.80177332  1
  O  O5  1  0.79594859  0.00890989  0.80366393  1
  O  O6  1  0.74915889  0.93923385  0.70277222  1
  O  O7  1  0.19953981  0.24665970  0.70065302  1
  O  O8  1  0.04947919  0.80538111  0.70055529  1
  O  O9  1  0.78089864  0.79622526  0.20031694  1
  O  O10  1  0.01072597  0.21745315  0.19995192  1
  O  O11  1  0.19996393  0.98682126  0.19718583  1
  O  O12  1  0.87077294  0.33753983  0.63260676  1
  O  O13  1  0.46578087  0.12366913  0.62920403  1
  O  O14  1  0.66054046  0.53395286  0.63623036  1
  O  O15  1  0.87318392  0.52974086  0.13083745  1
  O  O16  1  0.65319569  0.12918496  0.13019457  1
  O  O17  1  0.47222128  0.34098845  0.13123668  1
  O  O18  1  0.49080565  0.32529307  0.02710208  1
  O  O19  1  0.84041043  0.51495692  0.02674150  1
  O  O20  1  0.67734750  0.16769846  0.02635073  1
  O  O21  1  0.47000806  0.14745220  0.52892877  1
  O  O22  1  0.67426775  0.50939254  0.53238433  1
  O  O23  1  0.83950104  0.32635191  0.52957112  1
  O  O24  1  0.54883232  0.67797357  0.96692035  1
  O  O25  1  0.12717366  0.45230361  0.96806627  1
  O  O26  1  0.32516335  0.87399709  0.97151048  1
  O  O27  1  0.55057235  0.87410736  0.47049533  1
  O  O28  1  0.31596970  0.44087507  0.46883220  1
  O  O29  1  0.14071464  0.69227106  0.46838067  1
  O  O30  1  0.08715972  0.61939605  0.36737590  1
  O  O31  1  0.52501369  0.91899321  0.36983157  1
  O  O32  1  0.38018954  0.46477457  0.36712512  1
  O  O33  1  0.13303694  0.50010777  0.86641558  1
  O  O34  1  0.36485550  0.86113603  0.86871113  1
  O  O35  1  0.50380803  0.62985332  0.86458853  1
  O  O36  1  0.00454918  0.81206319  0.41386983  1
  O  O37  1  0.81055473  0.01347565  0.41460983  1
  O  O38  1  0.20653419  0.18105041  0.41443294  1
  O  O39  1  0.99917259  0.20732566  0.90718088  1
  O  O40  1  0.20656604  0.99591396  0.90817226  1
  O  O41  1  0.79611183  0.79376088  0.90703674  1
  O  O42  1  0.96018338  0.16735508  0.57714247  1
  O  O43  1  0.21153333  0.03589053  0.57857763  1
  O  O44  1  0.83587622  0.79155930  0.57848053  1
  O  O45  1  0.96495006  0.79456791  0.07594461  1
  O  O46  1  0.82613789  0.03893639  0.07561223  1
  O  O47  1  0.21747684  0.15804591  0.07535463  1
  O  O48  1  0.65193912  0.12601640  0.74877444  1
  O  O49  1  0.48362887  0.36066424  0.74793343  1
  O  O50  1  0.85976206  0.52838199  0.74803262  1
  O  O51  1  0.68224544  0.53544847  0.24952727  1
  O  O52  1  0.85658660  0.32385241  0.24920724  1
  O  O53  1  0.47319052  0.15278281  0.25039925  1
  O  O54  1  0.63092635  0.48603761  0.92466154  1
  O  O55  1  0.85581473  0.37222529  0.92275494  1
  O  O56  1  0.51597710  0.14344080  0.92360004  1
  O  O57  1  0.64709979  0.15916650  0.43322792  1
  O  O58  1  0.50738293  0.34499687  0.43189045  1
  O  O59  1  0.84759331  0.50418282  0.43290151  1
  O  O60  1  0.35350637  0.47329662  0.07546946  1
  O  O61  1  0.12970762  0.65287506  0.07513474  1
  O  O62  1  0.50827448  0.88558377  0.07324204  1
  O  O63  1  0.35543827  0.88015611  0.57538633  1
  O  O64  1  0.52030335  0.64047799  0.57683790  1
  O  O65  1  0.12313289  0.48390099  0.57611644  1
  O  O66  1  0.31522369  0.83781198  0.25197259  1
  O  O67  1  0.52841599  0.68106580  0.25159667  1
  O  O68  1  0.15709862  0.46964355  0.25135615  1
  O  O69  1  0.31518700  0.49314042  0.76700953  1
  O  O70  1  0.16992122  0.68453822  0.76875590  1
  O  O71  1  0.50897444  0.81817872  0.76803444  1
loop_
_geom_bond_atom_site_label_1
_geom_bond_atom_site_label_2
_geom_bond_distance
_geom_bond_site_symmetry_2
Na0 O49 2.309754 1_555
Na0 O71 2.548607 1_555
Na0 O69 2.692115 1_555
Na0 O6 2.697756 1_555
Na0 O50 2.735918 1_555
Na0 O4 2.968904 1_555
Na0 O35 3.022392 1_555
Na0 O14 3.041448 1_555
Na1 O47 2.356151 1_565
Na1 O62 2.374437 1_555
Na1 O61 2.503455 1_555
Na1 O45 2.729181 1_455
Na1 O26 2.846047 1_554
Na2 O38 2.324860 1_555
Na2 O57 2.542428 1_555
Na2 O58 2.607194 1_555
Na2 O31 2.688168 1_545
Na2 O36 2.725558 1_545
Na2 O21 2.975455 1_555
Na2 O29 2.990931 1_545
Na2 O0 2.997374 1_555
Na3 O42 2.507815 1_565
Na3 O44 2.551814 1_555
Na3 O37 2.697649 1_565
Na3 O43 2.737699 1_665
Na3 O36 2.841077 1_655
Na3 O38 2.864950 1_665
Na4 O46 2.554375 1_566
Na4 O45 2.604341 1_556
Na4 O47 2.655941 1_666
Na4 O41 2.909659 1_555
Na4 O39 2.940649 1_565
Na4 O40 3.031044 1_655
Na5 O56 2.653356 1_555
Na5 O55 2.662545 1_555
Na5 O48 2.758844 1_555
Na5 O54 2.786254 1_555
Na5 O50 2.834225 1_555
Na5 O49 2.856098 1_555
Na6 O53 2.610173 1_555
Na6 O51 2.689044 1_555
Na6 O52 2.717495 1_555
Na6 O58 2.906863 1_555
Na6 O57 2.939131 1_555
Na6 O59 2.993721 1_555
Na7 O68 2.651495 1_555
Na7 O66 2.667849 1_555
Na7 O67 2.682896 1_555
Na7 O61 2.924335 1_555
Na7 O60 2.959666 1_555
Na7 O62 3.005144 1_555
Na8 O65 2.791168 1_555
Na8 O69 2.906072 1_555
Na8 O63 2.923207 1_555
Na8 O64 2.929142 1_555
Na8 O70 2.955936 1_555
Na8 O71 2.986909 1_555
La0 O0 2.309858 1_655
La0 O2 2.347387 1_555
La0 O1 2.359959 1_545
La0 O36 2.362009 1_645
La0 O38 2.369779 1_655
La0 O37 2.380674 1_555
La1 O3 2.299218 1_555
La1 O4 2.309230 1_445
La1 O5 2.313063 1_455
La1 O40 2.347894 1_545
La1 O39 2.350112 1_455
La1 O41 2.369775 1_445
La2 O7 2.445232 1_655
La2 O6 2.447546 1_545
La2 O8 2.467069 1_645
La2 O42 2.487447 1_555
La2 O44 2.494622 1_545
La2 O43 2.565414 1_655
La3 O11 2.346340 1_655
La3 O9 2.396995 1_555
La3 O10 2.413137 1_665
La3 O45 2.439456 1_555
La3 O46 2.462032 1_565
La3 O47 2.482201 1_665
La4 O12 2.264917 1_555
La4 O14 2.330001 1_555
La4 O48 2.357599 1_555
La4 O13 2.358843 1_555
La4 O50 2.361195 1_555
La4 O49 2.435292 1_555
La5 O17 2.254331 1_555
La5 O16 2.270183 1_555
La5 O15 2.315526 1_555
La5 O53 2.353569 1_555
La5 O52 2.416169 1_555
La5 O51 2.431862 1_555
La6 O24 2.255040 1_554
La6 O25 2.255949 1_554
La6 O60 2.327069 1_555
La6 O26 2.339993 1_554
La6 O62 2.373945 1_555
La6 O61 2.393453 1_555
La7 O28 2.276470 1_555
La7 O27 2.306593 1_555
La7 O64 2.321602 1_555
La7 O29 2.332612 1_555
La7 O65 2.332652 1_555
La7 O63 2.456867 1_555
La8 O66 2.373969 1_555
La8 O30 2.378201 1_555
La8 O31 2.393135 1_555
La8 O32 2.451292 1_555
La8 O67 2.480766 1_555
La8 O68 2.480772 1_555
Nb0 O19 1.992050 1_556
Nb0 O20 1.997280 1_556
Nb0 O18 2.002109 1_556
Nb0 O54 2.078622 1_555
Nb0 O55 2.113949 1_555
Nb0 O56 2.142130 1_555
Nb1 O23 1.947984 1_555
Nb1 O22 1.951322 1_555
Nb1 O59 1.952765 1_555
Nb1 O58 2.042237 1_555
Nb1 O57 2.048127 1_555
Nb1 O21 2.214725 1_555
Nb2 O70 2.004572 1_555
Nb2 O33 2.022679 1_555
Nb2 O71 2.039725 1_555
Nb2 O69 2.045537 1_555
Nb2 O34 2.049747 1_555
Nb2 O35 2.140078 1_555
O0 P0 1.552599 1_545
O1 S0 1.473603 1_555
O2 S1 1.473368 1_655
O3 P1 1.518520 1_555
O4 P2 1.525188 1_655
O5 P3 1.519329 1_545
O6 P3 1.559211 1_555
O7 P1 1.542144 1_555
O8 P2 1.540881 1_555
O9 S0 1.488360 1_555
O10 S1 1.487475 1_555
O11 P0 1.570724 1_555
O12 P4 1.524864 1_555
O13 S2 1.475543 1_555
O14 P5 1.530307 1_555
O15 P6 1.520277 1_555
O16 P7 1.527706 1_555
O17 P8 1.522016 1_555
O18 P8 1.616163 1_555
O19 P6 1.621851 1_555
O20 P7 1.613893 1_555
O21 S2 1.512625 1_555
O22 P5 1.631051 1_555
O23 P4 1.623880 1_555
O24 P9 1.504858 1_555
O25 P10 1.497465 1_555
O26 P11 1.510308 1_555
O27 P12 1.519168 1_555
O28 P13 1.516429 1_555
O29 P14 1.519412 1_555
O30 P14 1.536702 1_555
O31 P12 1.556673 1_555
O32 P13 1.536135 1_555
O33 P10 1.615629 1_555
O34 P11 1.625736 1_555
O35 P9 1.600060 1_555
O36 P14 1.536798 1_555
O37 P12 1.527214 1_545
O38 P13 1.550709 1_555
O39 P10 1.523511 1_655
O40 P11 1.524747 1_555
O41 P9 1.525728 1_555
O42 P4 1.539204 1_555
O43 S2 1.482685 1_555
O44 P5 1.538576 1_555
O45 P6 1.555373 1_555
O46 P7 1.536617 1_555
O47 P8 1.558494 1_555
O48 P3 1.527233 1_545
O49 P1 1.551313 1_555
O50 P2 1.545255 1_655
O51 S0 1.479422 1_555
O52 S1 1.479705 1_655
O53 P0 1.549707 1_545
O54 P9 1.605801 1_555
O55 P10 1.586801 1_655
O56 P11 1.590788 1_545
O57 P12 1.600084 1_545
O58 P13 1.601533 1_555
O59 P14 1.600801 1_655
O60 P8 1.515377 1_555
O61 P6 1.535946 1_455
O62 P7 1.536102 1_565
O63 S2 1.473515 1_565
O64 P5 1.526982 1_555
O65 P4 1.525309 1_455
O66 P0 1.557668 1_555
O67 S0 1.485895 1_555
O68 S1 1.484616 1_555
O69 P1 1.614544 1_555
O70 P2 1.606779 1_555
O71 P3 1.607133 1_555
