# generated using pymatgen
data_Na(LiSi2)3
_symmetry_space_group_name_H-M   'P 1'
_cell_length_a   3.79969200
_cell_length_b   10.32010500
_cell_length_c   18.00586400
_cell_angle_alpha   90.00000000
_cell_angle_beta   90.00000000
_cell_angle_gamma   90.00000000
_symmetry_Int_Tables_number   1
_chemical_formula_structural   Na(LiSi2)3
_chemical_formula_sum   'Na4 Li12 Si24'
_cell_volume   706.06791366
_cell_formula_units_Z   4
loop_
 _symmetry_equiv_pos_site_id
 _symmetry_equiv_pos_as_xyz
  1  'x, y, z'
loop_
 _atom_site_type_symbol
 _atom_site_label
 _atom_site_symmetry_multiplicity
 _atom_site_fract_x
 _atom_site_fract_y
 _atom_site_fract_z
 _atom_site_occupancy
  Na  Na0  1  0.75000000  0.24965600  0.42451500  1
  Na  Na1  1  0.25000000  0.75034400  0.57548500  1
  Na  Na2  1  0.25000000  0.74965600  0.07548500  1
  Na  Na3  1  0.75000000  0.25034400  0.92451500  1
  Li  Li0  1  0.25000000  0.01548200  0.93227000  1
  Li  Li1  1  0.75000000  0.98451800  0.06773000  1
  Li  Li2  1  0.75000000  0.51548200  0.56773000  1
  Li  Li3  1  0.25000000  0.48451800  0.43227000  1
  Li  Li4  1  0.25000000  0.40880300  0.02790600  1
  Li  Li5  1  0.75000000  0.59119700  0.97209400  1
  Li  Li6  1  0.75000000  0.90880300  0.47209400  1
  Li  Li7  1  0.25000000  0.09119700  0.52790600  1
  Li  Li8  1  0.75000000  0.93901500  0.81261600  1
  Li  Li9  1  0.25000000  0.06098500  0.18738400  1
  Li  Li10  1  0.25000000  0.43901500  0.68738400  1
  Li  Li11  1  0.75000000  0.56098500  0.31261600  1
  Si  Si0  1  0.25000000  0.52255800  0.19654500  1
  Si  Si1  1  0.75000000  0.47744200  0.80345500  1
  Si  Si2  1  0.75000000  0.02255800  0.30345500  1
  Si  Si3  1  0.25000000  0.97744200  0.69654500  1
  Si  Si4  1  0.25000000  0.16578900  0.05464000  1
  Si  Si5  1  0.75000000  0.83421100  0.94536000  1
  Si  Si6  1  0.75000000  0.66578900  0.44536000  1
  Si  Si7  1  0.25000000  0.33421100  0.55464000  1
  Si  Si8  1  0.25000000  0.35853800  0.29518200  1
  Si  Si9  1  0.75000000  0.64146200  0.70481800  1
  Si  Si10  1  0.75000000  0.85853800  0.20481800  1
  Si  Si11  1  0.25000000  0.14146200  0.79518200  1
  Si  Si12  1  0.75000000  0.49608800  0.11794900  1
  Si  Si13  1  0.25000000  0.50391200  0.88205100  1
  Si  Si14  1  0.25000000  0.99608800  0.38205100  1
  Si  Si15  1  0.75000000  0.00391200  0.61794900  1
  Si  Si16  1  0.75000000  0.25821700  0.11732300  1
  Si  Si17  1  0.25000000  0.74178300  0.88267700  1
  Si  Si18  1  0.25000000  0.75821700  0.38267700  1
  Si  Si19  1  0.75000000  0.24178300  0.61732300  1
  Si  Si20  1  0.25000000  0.74108200  0.24907100  1
  Si  Si21  1  0.75000000  0.25891800  0.75092900  1
  Si  Si22  1  0.75000000  0.24108200  0.25092900  1
  Si  Si23  1  0.25000000  0.75891800  0.74907100  1
loop_
_geom_bond_atom_site_label_1
_geom_bond_atom_site_label_2
_geom_bond_distance
_geom_bond_site_symmetry_2
Na0 Si22 3.126818 1_555
Na0 Si7 3.140157 1_555
Na0 Si7 3.140157 1_655
Na0 Si2 3.200671 1_555
Na0 Si8 3.208605 1_655
Na0 Si8 3.208605 1_555
Na0 Si14 3.322939 1_645
Na0 Si14 3.322939 1_545
Na1 Si23 3.126818 1_555
Na1 Si6 3.140157 1_455
Na1 Si6 3.140157 1_555
Na1 Si3 3.200671 1_555
Na1 Si9 3.208605 1_455
Na1 Si9 3.208605 1_555
Na1 Si15 3.322939 1_465
Na1 Si15 3.322939 1_565
Na2 Si20 3.126818 1_555
Na2 Si5 3.140157 1_554
Na2 Si5 3.140157 1_454
Na2 Si0 3.200671 1_555
Na2 Si10 3.208605 1_455
Na2 Si10 3.208605 1_555
Na2 Si12 3.322939 1_555
Na2 Si12 3.322939 1_455
Na3 Si21 3.126818 1_555
Na3 Si4 3.140157 1_656
Na3 Si4 3.140157 1_556
Na3 Si1 3.200671 1_555
Na3 Si11 3.208605 1_655
Na3 Si11 3.208605 1_555
Na3 Si13 3.322939 1_555
Na3 Si13 3.322939 1_655
Li0 Si5 2.676681 1_445
Li0 Si5 2.676681 1_545
Li0 Si4 2.694633 1_556
Li0 Si11 2.789851 1_555
Li0 Si17 2.962392 1_545
Li0 Na3 3.082811 1_455
Li0 Na3 3.082811 1_555
Li1 Si4 2.676681 1_565
Li1 Si4 2.676681 1_665
Li1 Si5 2.694633 1_554
Li1 Si10 2.789851 1_555
Li1 Si16 2.962392 1_565
Li1 Na2 3.082811 1_555
Li1 Na2 3.082811 1_655
Li2 Si7 2.676681 1_555
Li2 Si7 2.676681 1_655
Li2 Si6 2.694633 1_555
Li2 Si9 2.789851 1_555
Li2 Si19 2.962392 1_555
Li2 Na1 3.082811 1_655
Li2 Na1 3.082811 1_555
Li3 Si6 2.676681 1_455
Li3 Si6 2.676681 1_555
Li3 Si7 2.694633 1_555
Li3 Si8 2.789851 1_555
Li3 Si18 2.962392 1_555
Li3 Na0 3.082811 1_455
Li3 Na0 3.082811 1_555
Li4 Si4 2.553709 1_555
Li4 Si12 2.655082 1_555
Li4 Si12 2.655082 1_455
Li4 Si13 2.803672 1_554
Li4 Si16 2.935426 1_455
Li4 Si16 2.935426 1_555
Li4 Na3 3.122400 1_554
Li4 Na3 3.122400 1_454
Li5 Si5 2.553709 1_555
Li5 Si13 2.655082 1_655
Li5 Si13 2.655082 1_555
Li5 Si12 2.803672 1_556
Li5 Si17 2.935426 1_555
Li5 Si17 2.935426 1_655
Li5 Na2 3.122400 1_556
Li5 Na2 3.122400 1_656
Li6 Si6 2.553709 1_555
Li6 Si14 2.655082 1_655
Li6 Si14 2.655082 1_555
Li6 Si15 2.803672 1_565
Li6 Si18 2.935426 1_655
Li6 Si18 2.935426 1_555
Li6 Na1 3.122400 1_555
Li6 Na1 3.122400 1_655
Li7 Si7 2.553709 1_555
Li7 Si15 2.655082 1_455
Li7 Si15 2.655082 1_555
Li7 Si14 2.803672 1_545
Li7 Si19 2.935426 1_555
Li7 Si19 2.935426 1_455
Li7 Na0 3.122400 1_455
Li7 Na0 3.122400 1_555
Li8 Si5 2.623499 1_555
Li8 Si11 2.841307 1_565
Li8 Si11 2.841307 1_665
Li8 Si3 2.852124 1_655
Li8 Si3 2.852124 1_555
Li8 Si23 2.893620 1_655
Li8 Si23 2.893620 1_555
Li8 Si17 3.056779 1_655
Li8 Si17 3.056779 1_555
Li9 Si4 2.623499 1_555
Li9 Si10 2.841307 1_545
Li9 Si10 2.841307 1_445
Li9 Si2 2.852124 1_555
Li9 Si2 2.852124 1_455
Li9 Si22 2.893620 1_555
Li9 Si22 2.893620 1_455
Li9 Si16 3.056779 1_455
Li9 Si16 3.056779 1_555
Li10 Si7 2.623499 1_555
Li10 Si9 2.841307 1_455
Li10 Si9 2.841307 1_555
Li10 Si1 2.852124 1_455
Li10 Si1 2.852124 1_555
Li10 Si21 2.893620 1_455
Li10 Si21 2.893620 1_555
Li10 Si19 3.056779 1_555
Li10 Si19 3.056779 1_455
Li11 Si6 2.623499 1_555
Li11 Si8 2.841307 1_655
Li11 Si8 2.841307 1_555
Li11 Si0 2.852124 1_655
Li11 Si0 2.852124 1_555
Li11 Si20 2.893620 1_555
Li11 Si20 2.893620 1_655
Li11 Si18 3.056779 1_655
Li11 Si18 3.056779 1_555
Si0 Si12 2.384701 1_455
Si0 Si12 2.384701 1_555
Si0 Si20 2.445481 1_555
Si0 Si8 2.453483 1_555
Si1 Si13 2.384701 1_555
Si1 Si13 2.384701 1_655
Si1 Si21 2.445481 1_555
Si1 Si9 2.453483 1_555
Si2 Si22 2.445481 1_555
Si10 Si20 2.390325 1_655
Si10 Si20 2.390325 1_555
Si10 Si2 2.453483 1_565
Si11 Si21 2.390325 1_455
Si11 Si21 2.390325 1_555
Si11 Si3 2.453483 1_545
Si12 Si16 2.454880 1_555
Si13 Si17 2.454880 1_555
Si14 Si2 2.384701 1_465
Si14 Si2 2.384701 1_565
Si14 Si18 2.454880 1_555
Si15 Si3 2.384701 1_545
Si15 Si3 2.384701 1_645
Si15 Si19 2.454880 1_555
Si16 Si4 2.406897 1_655
Si16 Si4 2.406897 1_555
Si16 Si22 2.412182 1_555
Si17 Si5 2.406897 1_555
Si17 Si5 2.406897 1_455
Si17 Si23 2.412182 1_555
Si18 Si6 2.406897 1_455
Si18 Si6 2.406897 1_555
Si18 Si20 2.412182 1_555
Si19 Si7 2.406897 1_555
Si19 Si7 2.406897 1_655
Si19 Si21 2.412182 1_555
Si22 Si8 2.390325 1_655
Si22 Si8 2.390325 1_555
Si23 Si9 2.390325 1_455
Si23 Si9 2.390325 1_555
Si23 Si3 2.445481 1_555
