# generated using pymatgen
data_Eu(CoP)2
_symmetry_space_group_name_H-M   'P 1'
_cell_length_a   3.78151440
_cell_length_b   3.78151275
_cell_length_c   6.05711664
_cell_angle_alpha   108.18912660
_cell_angle_beta   108.18911330
_cell_angle_gamma   90.00000667
_symmetry_Int_Tables_number   1
_chemical_formula_structural   Eu(CoP)2
_chemical_formula_sum   'Eu1 Co2 P2'
_cell_volume   77.71902169
_cell_formula_units_Z   1
loop_
 _symmetry_equiv_pos_site_id
 _symmetry_equiv_pos_as_xyz
  1  'x, y, z'
loop_
 _atom_site_type_symbol
 _atom_site_label
 _atom_site_symmetry_multiplicity
 _atom_site_fract_x
 _atom_site_fract_y
 _atom_site_fract_z
 _atom_site_occupancy
  Eu  Eu0  1  0.00000000  -0.00000000  0.00000000  1
  Co  Co0  1  0.25000000  0.75000000  0.50000000  1
  Co  Co1  1  0.75000000  0.25000000  0.50000000  1
  P  P0  1  0.64789783  0.64789783  0.29579765  1
  P  P1  1  0.35210217  0.35210217  0.70420235  1
loop_
_geom_bond_atom_site_label_1
_geom_bond_atom_site_label_2
_geom_bond_distance
_geom_bond_site_symmetry_2
Eu0 P1 3.120004 1_444
Eu0 P0 3.120004 1_555
Eu0 P1 3.120008 1_544
Eu0 P0 3.120008 1_455
Eu0 P0 3.120009 1_545
Eu0 P1 3.120009 1_454
Eu0 P1 3.120013 1_554
Eu0 P0 3.120013 1_445
Co0 P1 2.192412 1_555
Co0 P0 2.192412 1_555
Co0 P1 2.192418 1_565
Co0 P0 2.192419 1_455
Co1 P0 2.192412 1_555
Co1 P1 2.192412 1_555
Co1 P0 2.192418 1_545
Co1 P1 2.192419 1_655
