# generated using pymatgen
data_KHCO3
_symmetry_space_group_name_H-M   'P 1'
_cell_length_a   3.65058978
_cell_length_b   5.59060325
_cell_length_c   7.80786047
_cell_angle_alpha   107.94605459
_cell_angle_beta   102.58836179
_cell_angle_gamma   90.86866934
_symmetry_Int_Tables_number   1
_chemical_formula_structural   KHCO3
_chemical_formula_sum   'K2 H2 C2 O6'
_cell_volume   147.37090699
_cell_formula_units_Z   2
loop_
 _symmetry_equiv_pos_site_id
 _symmetry_equiv_pos_as_xyz
  1  'x, y, z'
loop_
 _atom_site_type_symbol
 _atom_site_label
 _atom_site_symmetry_multiplicity
 _atom_site_fract_x
 _atom_site_fract_y
 _atom_site_fract_z
 _atom_site_occupancy
  K  K0  1  0.29297239  0.17540165  0.33172921  1
  K  K1  1  0.70702761  0.82459835  0.66827079  1
  H  H0  1  0.45975516  0.29394410  0.97015651  1
  H  H1  1  0.54024484  0.70605590  0.02984349  1
  C  C0  1  0.14276081  0.37802849  0.76319016  1
  C  C1  1  0.85723919  0.62197151  0.23680984  1
  O  O0  1  0.10348229  0.70324917  0.38551807  1
  O  O1  1  0.89651771  0.29675083  0.61448193  1
  O  O2  1  0.27693498  0.20734034  0.84505040  1
  O  O3  1  0.72306502  0.79265966  0.15494960  1
  O  O4  1  0.27317261  0.60744609  0.84086965  1
  O  O5  1  0.72682739  0.39255391  0.15913035  1
loop_
_geom_bond_atom_site_label_1
_geom_bond_atom_site_label_2
_geom_bond_distance
_geom_bond_site_symmetry_2
K0 O1 2.664606 1_555
K0 O5 2.726107 1_455
K0 O3 2.757796 1_445
K0 O5 2.771046 1_555
K0 O1 2.815736 1_455
K0 O3 2.859260 1_545
K0 O0 2.894287 1_545
K0 O0 2.964458 1_555
K1 O0 2.664606 1_555
K1 O4 2.726107 1_655
K1 O2 2.757796 1_665
K1 O4 2.771046 1_555
K1 O0 2.815736 1_655
K1 O2 2.859260 1_565
K1 O1 2.894287 1_565
K1 O1 2.964458 1_555
H0 O2 1.024007 1_555
H0 O5 1.512258 1_556
H1 O3 1.024007 1_555
H1 O4 1.512258 1_554
C0 O1 1.253085 1_455
C0 O4 1.271131 1_555
C0 O2 1.346325 1_555
C1 O0 1.253085 1_655
C1 O5 1.271131 1_555
C1 O3 1.346325 1_555
