# generated using pymatgen
data_Na10Sc4Si7Ge4S5O48
_symmetry_space_group_name_H-M   'P 1'
_cell_length_a   17.75476052
_cell_length_b   9.00581043
_cell_length_c   22.29615785
_cell_angle_alpha   89.98804120
_cell_angle_beta   87.24866245
_cell_angle_gamma   120.33189059
_symmetry_Int_Tables_number   1
_chemical_formula_structural   Na10Sc4Si7Ge4S5O48
_chemical_formula_sum   'Na30 Sc12 Si21 Ge12 S15 O144'
_cell_volume   3072.27775617
_cell_formula_units_Z   3
loop_
 _symmetry_equiv_pos_site_id
 _symmetry_equiv_pos_as_xyz
  1  'x, y, z'
loop_
 _atom_site_type_symbol
 _atom_site_label
 _atom_site_symmetry_multiplicity
 _atom_site_fract_x
 _atom_site_fract_y
 _atom_site_fract_z
 _atom_site_occupancy
  Na  Na0  1  0.18199486  0.36356142  0.24277622  1
  Na  Na1  1  0.68217153  0.36471582  0.24294077  1
  Na  Na2  1  0.99509866  0.63121515  0.25314370  1
  Na  Na3  1  0.49555544  0.63142687  0.25271285  1
  Na  Na4  1  0.49479056  0.35564146  0.75722706  1
  Na  Na5  1  0.18168368  0.00116825  0.74576667  1
  Na  Na6  1  0.68210889  0.00123387  0.74555815  1
  Na  Na7  1  0.65423757  0.34203870  0.58204561  1
  Na  Na8  1  0.01643415  0.69768949  0.58054809  1
  Na  Na9  1  0.82947165  0.96356467  0.58995645  1
  Na  Na10  1  0.48643457  0.67385084  0.91615474  1
  Na  Na11  1  0.98967773  0.67631682  0.91519524  1
  Na  Na12  1  0.84828341  0.02676448  0.91007558  1
  Na  Na13  1  0.16111362  0.29666839  0.92186251  1
  Na  Na14  1  0.48734409  0.30251369  0.41511286  1
  Na  Na15  1  0.98534278  0.29892574  0.41505464  1
  Na  Na16  1  0.34749800  0.66869959  0.40936231  1
  Na  Na17  1  0.84888005  0.67089256  0.41140833  1
  Na  Na18  1  0.01921676  0.00971062  0.49995746  1
  Na  Na19  1  0.51082570  0.99183446  0.49897301  1
  Na  Na20  1  0.00708384  0.00718186  0.00293529  1
  Na  Na21  1  0.51134847  0.02905987  0.99850273  1
  Na  Na22  1  0.33782141  0.33150355  0.83378132  1
  Na  Na23  1  0.83918479  0.33779913  0.82934578  1
  Na  Na24  1  0.33078800  0.31958797  0.33143276  1
  Na  Na25  1  0.83120793  0.31870684  0.33286248  1
  Na  Na26  1  0.17417647  0.66355140  0.16271537  1
  Na  Na27  1  0.67417756  0.66387122  0.16264255  1
  Na  Na28  1  0.17350327  0.67060731  0.66900081  1
  Na  Na29  1  0.67169872  0.67815173  0.66733913  1
  Sc  Sc0  1  0.00137000  0.99937924  0.35338568  1
  Sc  Sc1  1  0.50162719  0.00051012  0.35284728  1
  Sc  Sc2  1  0.99882597  0.99826608  0.85135892  1
  Sc  Sc3  1  0.49667955  0.00412949  0.85548499  1
  Sc  Sc4  1  0.33200461  0.32543665  0.68821648  1
  Sc  Sc5  1  0.83557107  0.33463706  0.68804587  1
  Sc  Sc6  1  0.33408045  0.34242380  0.18568290  1
  Sc  Sc7  1  0.83333185  0.34174543  0.18553999  1
  Sc  Sc8  1  0.16015697  0.65088603  0.02012914  1
  Sc  Sc9  1  0.65858869  0.64852213  0.02102551  1
  Sc  Sc10  1  0.16474615  0.67135396  0.51937236  1
  Sc  Sc11  1  0.66045697  0.66906540  0.52102173  1
  Si  Si0  1  0.35408433  0.72369905  0.25059570  1
  Si  Si1  1  0.85425538  0.72379217  0.25068119  1
  Si  Si2  1  0.99781675  0.29240073  0.25318092  1
  Si  Si3  1  0.49800490  0.29275574  0.25311443  1
  Si  Si4  1  0.99858544  0.69908744  0.75284772  1
  Si  Si5  1  0.49789970  0.70219651  0.75434810  1
  Si  Si6  1  0.35370128  0.98426365  0.75000425  1
  Si  Si7  1  0.85289616  0.98832567  0.75221869  1
  Si  Si8  1  0.18656947  0.04802847  0.58702015  1
  Si  Si9  1  0.68516283  0.04751565  0.58676978  1
  Si  Si10  1  0.83384443  0.62907929  0.58439862  1
  Si  Si11  1  0.18490116  0.32380145  0.08616540  1
  Si  Si12  1  0.68378487  0.32370574  0.08713526  1
  Si  Si13  1  0.02003586  0.38070816  0.91816411  1
  Si  Si14  1  0.51953053  0.37749143  0.91853303  1
  Si  Si15  1  0.16869598  0.95927369  0.91787258  1
  Si  Si16  1  0.66638423  0.96192029  0.91986399  1
  Si  Si17  1  0.16688610  0.37156008  0.41870030  1
  Si  Si18  1  0.66616178  0.36975479  0.41961662  1
  Si  Si19  1  0.02019980  0.66052360  0.41908958  1
  Si  Si20  1  0.52002383  0.66213099  0.41817891  1
  Ge  Ge0  1  0.99471568  0.96145716  0.64941550  1
  Ge  Ge1  1  0.49843545  0.96581173  0.65262402  1
  Ge  Ge2  1  0.99844024  0.02989839  0.14927919  1
  Ge  Ge3  1  0.49867778  0.02827004  0.14928339  1
  Ge  Ge4  1  0.32453456  0.29351344  0.97946238  1
  Ge  Ge5  1  0.82127279  0.30844412  0.97776231  1
  Ge  Ge6  1  0.32342690  0.34108837  0.47885480  1
  Ge  Ge7  1  0.82445980  0.36039251  0.48050194  1
  Ge  Ge8  1  0.16066672  0.62634220  0.31341164  1
  Ge  Ge9  1  0.66028596  0.62820088  0.31379161  1
  Ge  Ge10  1  0.15912376  0.69179986  0.81299701  1
  Ge  Ge11  1  0.66055019  0.69647475  0.81444865  1
  S  S0  1  0.14530199  0.99102257  0.24787235  1
  S  S1  1  0.64551287  0.99059608  0.24798381  1
  S  S2  1  0.14305349  0.30032379  0.74830245  1
  S  S3  1  0.64363034  0.29508651  0.74768226  1
  S  S4  1  0.47613805  0.32120460  0.58112826  1
  S  S5  1  0.97969779  0.32470320  0.58064451  1
  S  S6  1  0.33751226  0.62895793  0.58237987  1
  S  S7  1  0.47873435  0.63830713  0.08208976  1
  S  S8  1  0.97873491  0.63705667  0.08153379  1
  S  S9  1  0.33648065  0.04381598  0.08351109  1
  S  S10  1  0.83664838  0.04478933  0.08239951  1
  S  S11  1  0.30873018  0.66003990  0.91592646  1
  S  S12  1  0.80846078  0.65309299  0.91672175  1
  S  S13  1  0.30914295  0.96418831  0.41519698  1
  S  S14  1  0.80808704  0.96095395  0.41571927  1
  O  O0  1  0.10716728  0.02333455  0.30324737  1
  O  O1  1  0.60736372  0.02307113  0.30337582  1
  O  O2  1  0.41161638  0.79410304  0.30865844  1
  O  O3  1  0.91225651  0.79435089  0.30863177  1
  O  O4  1  0.48844145  0.18819540  0.31374156  1
  O  O5  1  0.98887853  0.18787624  0.31366675  1
  O  O6  1  0.10671212  0.19765839  0.80561034  1
  O  O7  1  0.60178219  0.18503106  0.80173093  1
  O  O8  1  0.48869310  0.79176729  0.81356099  1
  O  O9  1  0.99203892  0.79362266  0.81237079  1
  O  O10  1  0.41869125  0.03763874  0.80318544  1
  O  O11  1  0.90669893  0.01650950  0.81106560  1
  O  O12  1  0.40431646  0.96046882  0.68663230  1
  O  O13  1  0.90400949  0.96784878  0.68900669  1
  O  O14  1  0.09034227  0.21022049  0.69714158  1
  O  O15  1  0.59178502  0.21440903  0.69321762  1
  O  O16  1  0.02107136  0.82584217  0.69107346  1
  O  O17  1  0.52443492  0.83223197  0.69315987  1
  O  O18  1  0.40704203  0.85146207  0.18985788  1
  O  O19  1  0.90750901  0.85195091  0.18978819  1
  O  O20  1  0.02399916  0.21182476  0.19387043  1
  O  O21  1  0.52316513  0.21014848  0.19404338  1
  O  O22  1  0.09101058  0.96709329  0.19599145  1
  O  O23  1  0.59101976  0.96612021  0.19623489  1
  O  O24  1  0.43387328  0.33930791  0.63658995  1
  O  O25  1  0.93600438  0.34780956  0.63431146  1
  O  O26  1  0.23992406  0.13174530  0.64518146  1
  O  O27  1  0.73971750  0.12462210  0.64503125  1
  O  O28  1  0.32624154  0.52069466  0.63418476  1
  O  O29  1  0.81815599  0.49772413  0.63760673  1
  O  O30  1  0.43671327  0.53370369  0.13826153  1
  O  O31  1  0.93609971  0.53281436  0.13737800  1
  O  O32  1  0.32607194  0.12966199  0.13639306  1
  O  O33  1  0.82708207  0.13280016  0.13496304  1
  O  O34  1  0.23650003  0.33768045  0.14524359  1
  O  O35  1  0.73513183  0.33788476  0.14655831  1
  O  O36  1  0.23665655  0.29615878  0.02383792  1
  O  O37  1  0.73661025  0.29521235  0.02662800  1
  O  O38  1  0.42955055  0.54970059  0.02919728  1
  O  O39  1  0.92984054  0.54992081  0.02797132  1
  O  O40  1  0.35347506  0.15174226  0.02644634  1
  O  O41  1  0.85188962  0.14777318  0.02467026  1
  O  O42  1  0.23806545  0.17740569  0.52514125  1
  O  O43  1  0.73505801  0.18867305  0.52691512  1
  O  O44  1  0.35148008  0.55574522  0.52374416  1
  O  O45  1  0.85632896  0.55643923  0.52002392  1
  O  O46  1  0.42787752  0.31140061  0.52707139  1
  O  O47  1  0.92985493  0.30581182  0.52628639  1
  O  O48  1  0.26939741  0.67896319  0.97240175  1
  O  O49  1  0.76939669  0.67829881  0.97248702  1
  O  O50  1  0.08212513  0.45598728  0.97312075  1
  O  O51  1  0.57686969  0.46526479  0.97442538  1
  O  O52  1  0.15243853  0.83254242  0.97290246  1
  O  O53  1  0.65846592  0.83933347  0.97426654  1
  O  O54  1  0.26980287  0.86318739  0.47116690  1
  O  O55  1  0.77033472  0.86059438  0.47235416  1
  O  O56  1  0.15745534  0.47651770  0.47331426  1
  O  O57  1  0.65540922  0.46227768  0.47811887  1
  O  O58  1  0.07307103  0.68684927  0.47828561  1
  O  O59  1  0.57737359  0.69003519  0.47373110  1
  O  O60  1  0.06976080  0.62535547  0.35770994  1
  O  O61  1  0.56537762  0.62214707  0.35564352  1
  O  O62  1  0.25844080  0.88340241  0.36271675  1
  O  O63  1  0.75609427  0.87537523  0.36358522  1
  O  O64  1  0.18973599  0.49154219  0.35480696  1
  O  O65  1  0.68720010  0.49343958  0.35710758  1
  O  O66  1  0.06732063  0.51737008  0.85850070  1
  O  O67  1  0.56592365  0.51171190  0.85596557  1
  O  O68  1  0.18515830  0.88544625  0.85287947  1
  O  O69  1  0.68969582  0.88789514  0.85566315  1
  O  O70  1  0.25561481  0.63578453  0.86370204  1
  O  O71  1  0.75929271  0.63278874  0.86394056  1
  O  O72  1  0.00000591  0.81480507  0.41125562  1
  O  O73  1  0.49714943  0.81299038  0.41109483  1
  O  O74  1  0.39710810  0.98008805  0.41147743  1
  O  O75  1  0.89620093  0.97636145  0.41124419  1
  O  O76  1  0.08123902  0.18570727  0.41413926  1
  O  O77  1  0.58066649  0.18328610  0.41391361  1
  O  O78  1  0.00176695  0.18641125  0.91051493  1
  O  O79  1  0.50157213  0.18682759  0.91086742  1
  O  O80  1  0.08576142  0.99018644  0.91388939  1
  O  O81  1  0.58089439  0.97696197  0.91428342  1
  O  O82  1  0.39720111  0.81085562  0.91188749  1
  O  O83  1  0.89810584  0.81128204  0.91293817  1
  O  O84  1  0.48629893  0.16836813  0.58322881  1
  O  O85  1  0.98645977  0.16889293  0.58532452  1
  O  O86  1  0.08753007  0.03276095  0.59230486  1
  O  O87  1  0.58608082  0.03866443  0.59262329  1
  O  O88  1  0.41990195  0.80184783  0.58503622  1
  O  O89  1  0.92464288  0.82051252  0.58912334  1
  O  O90  1  0.48402714  0.80746102  0.08593304  1
  O  O91  1  0.98460444  0.80650578  0.08516068  1
  O  O92  1  0.41845043  0.03387415  0.08627336  1
  O  O93  1  0.91930485  0.03494900  0.08591360  1
  O  O94  1  0.08551534  0.13797538  0.09117614  1
  O  O95  1  0.58478605  0.13814376  0.09156917  1
  O  O96  1  0.33719829  0.14740759  0.74217113  1
  O  O97  1  0.83240674  0.14327608  0.74422048  1
  O  O98  1  0.23166881  0.31846741  0.74292736  1
  O  O99  1  0.73058880  0.31157901  0.74378569  1
  O  O100  1  0.41951866  0.50861448  0.74536896  1
  O  O101  1  0.91599780  0.51161683  0.74612516  1
  O  O102  1  0.33729020  0.52801165  0.24255145  1
  O  O103  1  0.83792937  0.52861879  0.24239039  1
  O  O104  1  0.41875593  0.32914023  0.24535167  1
  O  O105  1  0.91870320  0.32883958  0.24518046  1
  O  O106  1  0.23381068  0.14484706  0.24231553  1
  O  O107  1  0.73404037  0.14395554  0.24236223  1
  O  O108  1  0.31747833  0.50154613  0.91906258  1
  O  O109  1  0.82277622  0.50197459  0.92173441  1
  O  O110  1  0.42242609  0.37632968  0.92800649  1
  O  O111  1  0.92279188  0.37352616  0.92874467  1
  O  O112  1  0.25706264  0.15631653  0.92181484  1
  O  O113  1  0.76016087  0.15281679  0.92192170  1
  O  O114  1  0.32301634  0.14233046  0.41974224  1
  O  O115  1  0.82126942  0.13665445  0.41962834  1
  O  O116  1  0.25983747  0.36700464  0.42198033  1
  O  O117  1  0.75960552  0.36688614  0.42033351  1
  O  O118  1  0.42179385  0.47170602  0.42702536  1
  O  O119  1  0.92296727  0.47005750  0.42459662  1
  O  O120  1  0.17365024  0.48948736  0.07986463  1
  O  O121  1  0.67300318  0.49015967  0.08084875  1
  O  O122  1  0.06663832  0.65644906  0.08025724  1
  O  O123  1  0.56713981  0.65962873  0.08113399  1
  O  O124  1  0.26016949  0.87325032  0.07904032  1
  O  O125  1  0.76103913  0.87222108  0.07965043  1
  O  O126  1  0.16931737  0.85324138  0.57945352  1
  O  O127  1  0.67553227  0.86199595  0.57756231  1
  O  O128  1  0.26120597  0.65128467  0.57877521  1
  O  O129  1  0.75103931  0.65658399  0.57959914  1
  O  O130  1  0.06724224  0.48340179  0.57859340  1
  O  O131  1  0.56497023  0.47667954  0.58038323  1
  O  O132  1  0.15007951  0.83253381  0.25356282  1
  O  O133  1  0.65033286  0.83210600  0.25382628  1
  O  O134  1  0.25523702  0.70585665  0.25789233  1
  O  O135  1  0.75522365  0.70486700  0.25831616  1
  O  O136  1  0.09074202  0.48773148  0.25475167  1
  O  O137  1  0.59111339  0.48755774  0.25467467  1
  O  O138  1  0.15210605  0.47127225  0.75284636  1
  O  O139  1  0.64932552  0.46359384  0.75201867  1
  O  O140  1  0.09330734  0.69945684  0.75340792  1
  O  O141  1  0.59104172  0.69370630  0.75480655  1
  O  O142  1  0.25648881  0.80521108  0.75802440  1
  O  O143  1  0.75449176  0.80253715  0.75830908  1
loop_
_geom_bond_atom_site_label_1
_geom_bond_atom_site_label_2
_geom_bond_distance
_geom_bond_site_symmetry_2
Na0 O102 2.381181 1_555
Na0 O136 2.394836 1_555
Na0 O34 2.397022 1_555
Na0 O106 2.560374 1_555
Na0 O134 2.702040 1_555
Na0 O20 2.710708 1_555
Na0 O64 2.731438 1_555
Na0 O0 2.947191 1_555
Na1 O35 2.365646 1_555
Na1 O137 2.381613 1_555
Na1 O103 2.387566 1_555
Na1 O107 2.578568 1_555
Na1 O135 2.685876 1_555
Na1 O21 2.724561 1_555
Na1 O65 2.783855 1_555
Na1 O1 2.957253 1_555
Na2 O105 2.362093 1_555
Na2 O132 2.412970 1_655
Na2 O103 2.481587 1_555
Na2 O136 2.603221 1_655
Na2 O60 2.750068 1_655
Na2 O3 2.803757 1_555
Na2 O31 2.804955 1_555
Na2 O22 2.874168 1_655
Na3 O104 2.360036 1_555
Na3 O133 2.410172 1_555
Na3 O102 2.496512 1_555
Na3 O137 2.605085 1_555
Na3 O61 2.681101 1_555
Na3 O30 2.775974 1_555
Na3 O2 2.819721 1_555
Na3 O23 2.859598 1_555
Na4 O100 2.376386 1_555
Na4 O139 2.400398 1_555
Na4 O96 2.499819 1_555
Na4 O67 2.625348 1_555
Na4 O141 2.632236 1_555
Na4 O10 2.652349 1_555
Na4 O24 2.923170 1_555
Na4 O15 2.932125 1_555
Na5 O140 2.354142 1_545
Na5 O96 2.381303 1_555
Na5 O26 2.455555 1_555
Na5 O98 2.527899 1_555
Na5 O68 2.621352 1_545
Na5 O142 2.712010 1_545
Na5 O16 2.810500 1_545
Na5 O6 2.982112 1_555
Na6 O97 2.302770 1_555
Na6 O141 2.402507 1_545
Na6 O27 2.436306 1_555
Na6 O99 2.474034 1_555
Na6 O69 2.693731 1_545
Na6 O143 2.700373 1_545
Na6 O17 2.744016 1_545
Na6 O7 2.925086 1_555
Na7 O87 2.370141 1_555
Na7 O131 2.435218 1_555
Na7 O129 2.460658 1_555
Na7 O57 2.552221 1_555
Na7 O84 2.572882 1_555
Na7 O15 2.672513 1_555
Na7 O43 2.703852 1_555
Na7 O29 2.862856 1_555
Na8 O126 2.341802 1_555
Na8 O89 2.388932 1_455
Na8 O58 2.469518 1_555
Na8 O130 2.508883 1_555
Na8 O86 2.636818 1_565
Na8 O16 2.708540 1_555
Na8 O45 2.869926 1_455
Na8 O25 2.948569 1_455
Na9 O129 2.403812 1_555
Na9 O127 2.435310 1_555
Na9 O85 2.442444 1_565
Na9 O89 2.590558 1_555
Na9 O13 2.618995 1_555
Na9 O55 2.849485 1_555
Na9 O27 2.880722 1_565
Na9 O47 2.983069 1_565
Na10 O110 2.331519 1_555
Na10 O81 2.373880 1_555
Na10 O82 2.455661 1_555
Na10 O8 2.511751 1_555
Na10 O108 2.586610 1_555
Na10 O38 2.690079 1_556
Na10 O67 2.797375 1_555
Na11 O111 2.373156 1_555
Na11 O80 2.454758 1_655
Na11 O83 2.475284 1_555
Na11 O9 2.513724 1_555
Na11 O109 2.554750 1_555
Na11 O39 2.695903 1_556
Na11 O66 2.715469 1_655
Na11 O52 2.870019 1_655
Na12 O78 2.353414 1_655
Na12 O113 2.358130 1_555
Na12 O11 2.415468 1_555
Na12 O83 2.508317 1_545
Na12 O111 2.748897 1_555
Na12 O41 2.768799 1_556
Na12 O69 2.781350 1_545
Na13 O80 2.394394 1_545
Na13 O108 2.434189 1_555
Na13 O78 2.507107 1_555
Na13 O112 2.583485 1_555
Na13 O50 2.685278 1_555
Na13 O36 2.695825 1_556
Na13 O6 2.796030 1_555
Na13 O70 2.904777 1_555
Na14 O118 2.346986 1_555
Na14 O77 2.385726 1_555
Na14 O4 2.487122 1_555
Na14 O74 2.513711 1_545
Na14 O114 2.514772 1_555
Na14 O46 2.680447 1_555
Na14 O61 2.785261 1_555
Na15 O119 2.312657 1_555
Na15 O76 2.385170 1_655
Na15 O5 2.482939 1_555
Na15 O115 2.510725 1_555
Na15 O75 2.514000 1_545
Na15 O47 2.636707 1_555
Na15 O60 2.808479 1_655
Na16 O73 2.296185 1_555
Na16 O116 2.360126 1_555
Na16 O2 2.463299 1_555
Na16 O74 2.480205 1_555
Na16 O118 2.730520 1_555
Na16 O44 2.762709 1_555
Na16 O64 2.772187 1_555
Na17 O72 2.316476 1_655
Na17 O117 2.373626 1_555
Na17 O75 2.437031 1_555
Na17 O3 2.498239 1_555
Na17 O45 2.666833 1_555
Na17 O119 2.743713 1_555
Na17 O65 2.821527 1_555
Na17 O55 2.989207 1_555
Na18 O76 2.327998 1_555
Na18 O86 2.395676 1_555
Na18 O89 2.542338 1_445
Na18 O72 2.563241 1_545
Na18 O85 2.598672 1_455
Na18 O75 2.919823 1_445
Na19 O77 2.391771 1_565
Na19 O87 2.453997 1_565
Na19 O88 2.475299 1_555
Na19 O73 2.478735 1_555
Na19 O84 2.620728 1_565
Na19 O74 2.838281 1_555
Na20 O94 2.409290 1_555
Na20 O80 2.422049 1_544
Na20 O91 2.446695 1_445
Na20 O93 2.455873 1_455
Na20 O78 2.651713 1_554
Na20 O83 2.794481 1_444
Na21 O81 2.373545 1_545
Na21 O95 2.436748 1_556
Na21 O79 2.479358 1_555
Na21 O92 2.512842 1_556
Na21 O90 2.635881 1_546
Na21 O82 2.837835 1_545
Na22 O112 2.416891 1_555
Na22 O100 2.433383 1_555
Na22 O110 2.554179 1_555
Na22 O108 2.566121 1_555
Na22 O96 2.627918 1_555
Na22 O98 2.795086 1_555
Na23 O101 2.313617 1_555
Na23 O113 2.522706 1_555
Na23 O97 2.548741 1_555
Na23 O109 2.625430 1_555
Na23 O111 2.655630 1_555
Na23 O99 2.702950 1_555
Na24 O104 2.388901 1_555
Na24 O116 2.478820 1_555
Na24 O114 2.488836 1_555
Na24 O106 2.642383 1_555
Na24 O118 2.669510 1_555
Na24 O102 2.687257 1_555
Na25 O105 2.410117 1_555
Na25 O117 2.434631 1_555
Na25 O115 2.476966 1_555
Na25 O119 2.602611 1_555
Na25 O107 2.667932 1_555
Na25 O103 2.721105 1_555
Na26 O120 2.420297 1_555
Na26 O124 2.488165 1_555
Na26 O136 2.500050 1_555
Na26 O134 2.541541 1_555
Na26 O132 2.679093 1_555
Na26 O122 2.691347 1_555
Na27 O121 2.396989 1_555
Na27 O125 2.474873 1_555
Na27 O137 2.499945 1_555
Na27 O135 2.552581 1_555
Na27 O123 2.678438 1_555
Na27 O133 2.678528 1_555
Na28 O140 2.398588 1_555
Na28 O142 2.461283 1_555
Na28 O138 2.470496 1_555
Na28 O128 2.544591 1_555
Na28 O126 2.614073 1_555
Na28 O130 2.760234 1_555
Na29 O141 2.410025 1_555
Na29 O129 2.420953 1_555
Na29 O143 2.480646 1_555
Na29 O139 2.570474 1_555
Na29 O127 2.573771 1_555
Na29 O131 2.742865 1_555
Ge0 O16 1.786552 1_655
Ge0 O13 1.825734 1_555
Ge0 O86 1.865141 1_665
Ge0 O89 1.879464 1_555
Ge0 O14 2.316599 1_665
Ge0 O85 2.418460 1_565
Ge1 O17 1.754311 1_555
Ge1 O12 1.779560 1_555
Ge1 O87 1.846683 1_565
Ge1 O88 2.125704 1_555
Ge1 O15 2.230590 1_565
Ge1 O84 2.489156 1_565
Ge2 O20 1.780949 1_655
Ge2 O19 1.799075 1_545
Ge2 O94 1.817441 1_655
Ge2 O93 2.056039 1_555
Ge2 O22 2.282316 1_645
Ge2 O91 2.384809 1_545
Ge3 O21 1.786329 1_555
Ge3 O18 1.800660 1_545
Ge3 O95 1.804155 1_555
Ge3 O92 2.066374 1_555
Ge3 O23 2.277829 1_545
Ge3 O90 2.351833 1_545
Ge4 O112 1.807558 1_555
Ge4 O36 1.817479 1_556
Ge4 O110 1.841798 1_555
Ge4 O40 1.924907 1_556
Ge4 O108 2.364630 1_555
Ge4 O38 2.425666 1_556
Ge5 O37 1.767074 1_556
Ge5 O113 1.812787 1_555
Ge5 O111 1.878931 1_555
Ge5 O41 2.081215 1_556
Ge5 O109 2.132563 1_555
Ge5 O39 2.381677 1_556
Ge6 O42 1.768529 1_555
Ge6 O116 1.827745 1_555
Ge6 O118 1.870831 1_555
Ge6 O44 2.015704 1_555
Ge6 O114 2.220332 1_555
Ge6 O46 2.314827 1_555
Ge7 O45 1.803708 1_555
Ge7 O43 1.828751 1_555
Ge7 O117 1.829009 1_555
Ge7 O119 1.906195 1_555
Ge7 O115 2.408021 1_555
Ge7 O47 2.428480 1_555
Ge8 O64 1.808336 1_555
Ge8 O136 1.844297 1_555
Ge8 O60 1.847458 1_555
Ge8 O134 1.857435 1_555
Ge8 O132 2.374807 1_555
Ge8 O62 2.388858 1_555
Ge9 O65 1.806530 1_555
Ge9 O137 1.853352 1_555
Ge9 O61 1.862640 1_555
Ge9 O135 1.863294 1_555
Ge9 O63 2.332187 1_555
Ge9 O133 2.353787 1_555
Ge10 O68 1.808768 1_555
Ge10 O140 1.834631 1_555
Ge10 O66 1.846129 1_555
Ge10 O142 1.883243 1_555
Ge10 O138 2.350678 1_555
Ge10 O70 2.350773 1_555
Ge11 O69 1.797032 1_555
Ge11 O141 1.848910 1_555
Ge11 O143 1.857687 1_555
Ge11 O67 1.864058 1_555
Ge11 O71 2.412715 1_555
Ge11 O139 2.445715 1_555
O0 S0 1.478635 1_545
O0 Sc0 2.052715 1_545
O1 S1 1.479705 1_545
O1 Sc1 2.048939 1_555
O2 Si0 1.610741 1_555
O2 Sc1 2.032620 1_565
O3 Si1 1.612723 1_555
O3 Sc0 2.027318 1_655
O4 Si3 1.599598 1_555
O4 Sc1 2.022536 1_555
O5 Si2 1.599391 1_555
O5 Sc0 2.028218 1_645
O6 S2 1.490512 1_555
O6 Sc2 2.066792 1_445
O7 S3 1.468458 1_555
O7 Sc3 2.070438 1_555
O8 Si5 1.591635 1_555
O8 Sc3 2.071486 1_565
O9 Si4 1.607866 1_555
O9 Sc2 1.988258 1_555
O10 Si6 1.593691 1_545
O10 Sc3 1.986205 1_555
O11 Si7 1.604373 1_545
O11 Sc2 1.980411 1_545
O12 Si6 1.709582 1_555
O13 Si7 1.700084 1_555
O14 S2 1.473548 1_555
O15 S3 1.510645 1_555
O16 Si4 1.686939 1_455
O17 Si5 1.683736 1_555
O18 Si0 1.681159 1_555
O19 Si1 1.686206 1_555
O20 Si2 1.665380 1_455
O21 Si3 1.663500 1_555
O22 S0 1.486944 1_555
O23 S1 1.485867 1_555
O24 S4 1.467442 1_555
O24 Sc4 2.045403 1_555
O25 S5 1.466603 1_555
O25 Sc5 2.051909 1_555
O26 Si8 1.595118 1_555
O26 Sc4 1.976655 1_555
O27 Si9 1.596760 1_555
O27 Sc5 2.073580 1_555
O28 S6 1.450892 1_555
O28 Sc4 2.178674 1_555
O29 Si10 1.587217 1_555
O29 Sc5 2.002217 1_555
O30 S7 1.487460 1_555
O30 Sc6 2.012381 1_555
O31 S8 1.481859 1_555
O31 Sc7 2.020707 1_555
O32 S9 1.464861 1_555
O32 Sc6 2.154084 1_555
O33 S10 1.465547 1_555
O33 Sc7 2.151008 1_555
O34 Si11 1.609420 1_555
O34 Sc6 1.972721 1_555
O35 Si12 1.612837 1_555
O35 Sc7 1.969958 1_555
O36 Si11 1.716427 1_555
O37 Si12 1.699199 1_555
O38 S7 1.478350 1_555
O39 S8 1.485759 1_555
O40 S9 1.523478 1_555
O41 S10 1.517466 1_555
O42 Si8 1.702716 1_555
O43 Si9 1.711766 1_555
O44 S6 1.529635 1_555
O45 Si10 1.690144 1_555
O46 S4 1.489102 1_555
O47 S5 1.493972 1_555
O48 S11 1.462238 1_555
O48 Sc8 2.065076 1_556
O49 S12 1.467938 1_555
O49 Sc9 2.091955 1_556
O50 Si13 1.597327 1_555
O50 Sc8 1.944950 1_556
O51 Si14 1.588598 1_555
O51 Sc9 1.906650 1_556
O52 Si15 1.588716 1_555
O52 Sc8 2.010840 1_556
O53 Si16 1.592534 1_555
O53 Sc9 2.010745 1_556
O54 S13 1.465153 1_555
O54 Sc10 2.042318 1_555
O55 S14 1.472096 1_555
O55 Sc11 2.087049 1_555
O56 Si17 1.595307 1_555
O56 Sc10 1.983494 1_555
O57 Si18 1.602919 1_555
O57 Sc11 2.057082 1_555
O58 Si19 1.604268 1_555
O58 Sc10 1.969895 1_555
O59 Si20 1.580139 1_555
O59 Sc11 1.937530 1_555
O60 Si19 1.706910 1_555
O61 Si20 1.705121 1_555
O62 S13 1.465885 1_555
O63 S14 1.477191 1_555
O64 Si17 1.691945 1_555
O65 Si18 1.688735 1_555
O66 Si13 1.684536 1_555
O67 Si14 1.723080 1_555
O68 Si15 1.668350 1_555
O69 Si16 1.699101 1_555
O70 S11 1.479987 1_555
O71 S12 1.455300 1_555
O72 Si19 1.612029 1_555
O72 Sc0 2.093773 1_555
O73 Si20 1.612166 1_555
O73 Sc1 2.097245 1_565
O74 S13 1.492745 1_555
O74 Sc1 2.146772 1_565
O75 S14 1.497478 1_555
O75 Sc0 2.138094 1_655
O76 Si17 1.602621 1_555
O76 Sc0 2.107966 1_545
O77 Si18 1.607602 1_555
O77 Sc1 2.093772 1_555
O78 Si13 1.621199 1_555
O78 Sc2 2.128740 1_445
O79 Si14 1.591110 1_555
O79 Sc3 2.026391 1_555
O80 Si15 1.637125 1_555
O80 Sc2 2.156732 1_455
O81 Si16 1.601094 1_555
O81 Sc3 2.138162 1_565
O82 S11 1.466886 1_555
O82 Sc3 2.100339 1_565
O83 S12 1.505596 1_555
O83 Sc2 2.154171 1_555
O84 S4 1.476768 1_555
O85 S5 1.471584 1_555
O86 Si8 1.691371 1_555
O87 Si9 1.718841 1_555
O88 S6 1.508489 1_555
O89 Si10 1.670763 1_555
O90 S7 1.480899 1_555
O91 S8 1.478646 1_555
O92 S9 1.506677 1_555
O93 S10 1.519893 1_555
O94 Si11 1.710329 1_555
O95 Si12 1.705418 1_555
O96 Si6 1.647619 1_545
O96 Sc4 2.045824 1_555
O97 Si7 1.621816 1_545
O97 Sc5 2.106272 1_555
O98 S2 1.496231 1_555
O98 Sc4 2.084201 1_555
O99 S3 1.472692 1_555
O99 Sc5 2.109136 1_555
O100 Si5 1.610128 1_555
O100 Sc4 2.088421 1_555
O101 Si4 1.594926 1_555
O101 Sc5 2.033699 1_555
O102 Si0 1.643588 1_555
O102 Sc6 2.077508 1_555
O103 Si1 1.642670 1_555
O103 Sc7 2.077911 1_555
O104 Si3 1.614351 1_555
O104 Sc6 2.101909 1_555
O105 Si2 1.613110 1_555
O105 Sc7 2.109649 1_555
O106 S0 1.478642 1_545
O106 Sc6 2.124526 1_555
O107 S1 1.477215 1_545
O107 Sc7 2.121033 1_555
O108 S11 1.513706 1_555
O109 S12 1.510396 1_555
O110 Si14 1.721612 1_555
O111 Si13 1.699673 1_655
O112 Si15 1.679145 1_545
O113 Si16 1.687050 1_545
O114 S13 1.499367 1_545
O115 S14 1.481247 1_545
O116 Si17 1.676481 1_555
O117 Si18 1.673104 1_555
O118 Si20 1.722659 1_555
O119 Si19 1.710642 1_655
O120 Si11 1.609275 1_555
O120 Sc8 2.079795 1_555
O121 Si12 1.611139 1_555
O121 Sc9 2.068628 1_555
O122 S8 1.479034 1_455
O122 Sc8 2.104059 1_555
O123 S7 1.481013 1_555
O123 Sc9 2.097032 1_555
O124 S9 1.454706 1_565
O124 Sc8 2.349913 1_555
O125 S10 1.456673 1_565
O125 Sc9 2.367268 1_555
O126 Si8 1.631543 1_565
O126 Sc10 2.088378 1_555
O127 Si9 1.605546 1_565
O127 Sc11 2.059936 1_555
O128 S6 1.472398 1_555
O128 Sc10 2.291336 1_555
O129 Si10 1.617764 1_555
O129 Sc11 2.165435 1_555
O130 S5 1.486643 1_455
O130 Sc10 2.103682 1_555
O131 S4 1.488395 1_555
O131 Sc11 2.108239 1_555
O132 S0 1.477760 1_555
O133 S1 1.478490 1_555
O134 Si0 1.679315 1_555
O135 Si1 1.678740 1_555
O136 Si2 1.700577 1_455
O137 Si3 1.699442 1_555
O138 S2 1.468998 1_555
O139 S3 1.472593 1_555
O140 Si4 1.680734 1_455
O141 Si5 1.694124 1_555
O142 Si6 1.664451 1_555
O143 Si7 1.701483 1_555
