# generated using pymatgen
data_Na10Ca3Hf5Si6(SO8)6
_symmetry_space_group_name_H-M   'P 1'
_cell_length_a   18.40464861
_cell_length_b   9.19063814
_cell_length_c   23.24497401
_cell_angle_alpha   89.86921383
_cell_angle_beta   89.95063109
_cell_angle_gamma   119.96904158
_symmetry_Int_Tables_number   1
_chemical_formula_structural   Na10Ca3Hf5Si6(SO8)6
_chemical_formula_sum   'Na30 Ca9 Hf15 Si18 S18 O144'
_cell_volume   3406.16749255
_cell_formula_units_Z   3
loop_
 _symmetry_equiv_pos_site_id
 _symmetry_equiv_pos_as_xyz
  1  'x, y, z'
loop_
 _atom_site_type_symbol
 _atom_site_label
 _atom_site_symmetry_multiplicity
 _atom_site_fract_x
 _atom_site_fract_y
 _atom_site_fract_z
 _atom_site_occupancy
  Na  Na0  1  0.31624352  0.99919465  0.24607281  1
  Na  Na1  1  0.19404006  0.36564001  0.24402865  1
  Na  Na2  1  0.69201836  0.37343018  0.24277029  1
  Na  Na3  1  0.99693571  0.64276120  0.25205509  1
  Na  Na4  1  0.31801480  0.61446539  0.75571479  1
  Na  Na5  1  0.81878895  0.62577269  0.75033096  1
  Na  Na6  1  0.99233143  0.36049998  0.75192708  1
  Na  Na7  1  0.49663603  0.37545802  0.74241305  1
  Na  Na8  1  0.18064789  0.01046099  0.74947596  1
  Na  Na9  1  0.68716251  0.01289401  0.75092269  1
  Na  Na10  1  0.64733176  0.34431081  0.57528143  1
  Na  Na11  1  0.32041356  0.67674089  0.07867766  1
  Na  Na12  1  0.82298694  0.68053746  0.08786731  1
  Na  Na13  1  0.16273738  0.32112115  0.92293288  1
  Na  Na14  1  0.99758540  0.31060144  0.42009925  1
  Na  Na15  1  0.16245734  0.02687537  0.41843003  1
  Na  Na16  1  0.66332970  0.02616916  0.41440036  1
  Na  Na17  1  0.84309592  0.67444173  0.41771057  1
  Na  Na18  1  0.00192910  0.00446590  0.49985215  1
  Na  Na19  1  0.49502524  0.01662761  0.49647751  1
  Na  Na20  1  0.00668143  0.02874987  0.00037416  1
  Na  Na21  1  0.50186928  0.02629909  0.99543868  1
  Na  Na22  1  0.34418633  0.35852725  0.83488500  1
  Na  Na23  1  0.83831528  0.33513131  0.82858170  1
  Na  Na24  1  0.33515041  0.36479511  0.32675644  1
  Na  Na25  1  0.83273466  0.33790131  0.33103623  1
  Na  Na26  1  0.16944842  0.65770743  0.15923169  1
  Na  Na27  1  0.66439798  0.65984639  0.15964191  1
  Na  Na28  1  0.16083596  0.65915682  0.66331344  1
  Na  Na29  1  0.65596955  0.65922384  0.66161034  1
  Ca  Ca0  1  0.49649638  0.99676796  0.35184134  1
  Ca  Ca1  1  0.33672594  0.33988326  0.68300331  1
  Ca  Ca2  1  0.83544035  0.33558686  0.68755850  1
  Ca  Ca3  1  0.33171796  0.33782294  0.18441784  1
  Ca  Ca4  1  0.83171091  0.33048315  0.18331214  1
  Ca  Ca5  1  0.16484480  0.65513077  0.01390331  1
  Ca  Ca6  1  0.65891332  0.64769682  0.01442973  1
  Ca  Ca7  1  0.16194297  0.65585815  0.51530803  1
  Ca  Ca8  1  0.66662532  0.66534533  0.51697408  1
  Hf  Hf0  1  0.00032007  0.99282837  0.35218048  1
  Hf  Hf1  1  0.99758697  0.00279073  0.84966485  1
  Hf  Hf2  1  0.50194586  0.99858411  0.85541182  1
  Hf  Hf3  1  0.00068506  0.00138794  0.65343567  1
  Hf  Hf4  1  0.50307632  0.00847649  0.64820948  1
  Hf  Hf5  1  0.00639567  0.99793946  0.14844764  1
  Hf  Hf6  1  0.49977630  0.00053726  0.14661451  1
  Hf  Hf7  1  0.33353796  0.34273939  0.97844529  1
  Hf  Hf8  1  0.82883657  0.32618957  0.98170974  1
  Hf  Hf9  1  0.33772422  0.33855197  0.48507547  1
  Hf  Hf10  1  0.83569250  0.33844227  0.47664185  1
  Hf  Hf11  1  0.17111349  0.66409481  0.31658530  1
  Hf  Hf12  1  0.67505528  0.67111347  0.31794855  1
  Hf  Hf13  1  0.15755500  0.64349354  0.81955711  1
  Hf  Hf14  1  0.65812694  0.65446722  0.81268511  1
  Si  Si0  1  0.14665685  0.99118438  0.25295566  1
  Si  Si1  1  0.35160557  0.70724742  0.25018676  1
  Si  Si2  1  0.85261846  0.71151939  0.24960576  1
  Si  Si3  1  0.14471585  0.29358870  0.75213091  1
  Si  Si4  1  0.64285106  0.29020007  0.75118685  1
  Si  Si5  1  0.00649830  0.71676272  0.75246078  1
  Si  Si6  1  0.50103023  0.71547653  0.75089859  1
  Si  Si7  1  0.85169639  0.99029696  0.75101539  1
  Si  Si8  1  0.48305486  0.32848247  0.58755009  1
  Si  Si9  1  0.18199263  0.32876949  0.08463272  1
  Si  Si10  1  0.68337164  0.33110228  0.08692557  1
  Si  Si11  1  0.31700505  0.67087631  0.91768449  1
  Si  Si12  1  0.01071213  0.35665551  0.91754459  1
  Si  Si13  1  0.51406752  0.36398239  0.91561990  1
  Si  Si14  1  0.81589273  0.96522959  0.41710914  1
  Si  Si15  1  0.16965509  0.36753248  0.41585750  1
  Si  Si16  1  0.66533792  0.36488276  0.42020222  1
  Si  Si17  1  0.02181321  0.66917509  0.41502695  1
  S  S0  1  0.64394812  0.98933912  0.25060794  1
  S  S1  1  0.00290989  0.29030981  0.25138361  1
  S  S2  1  0.50468161  0.29770555  0.24952552  1
  S  S3  1  0.35497321  0.99156084  0.75143619  1
  S  S4  1  0.97982427  0.32419720  0.58348454  1
  S  S5  1  0.18298416  0.03941340  0.58375755  1
  S  S6  1  0.68518749  0.04365892  0.58380184  1
  S  S7  1  0.33597830  0.63466665  0.58405365  1
  S  S8  1  0.83886864  0.63523466  0.58326837  1
  S  S9  1  0.47969951  0.63310807  0.08360443  1
  S  S10  1  0.97883763  0.63070812  0.08348906  1
  S  S11  1  0.33714338  0.04153144  0.08493632  1
  S  S12  1  0.83667004  0.04026066  0.08213530  1
  S  S13  1  0.81633580  0.66508562  0.91659037  1
  S  S14  1  0.16672821  0.96512952  0.91502686  1
  S  S15  1  0.66907361  0.96676755  0.91546832  1
  S  S16  1  0.31265771  0.96616807  0.41831645  1
  S  S17  1  0.51753665  0.65808087  0.41629046  1
  O  O0  1  0.09783834  0.01825528  0.30686646  1
  O  O1  1  0.61001540  0.01819028  0.30359294  1
  O  O2  1  0.40248311  0.80320153  0.30536408  1
  O  O3  1  0.90952180  0.81416976  0.30472715  1
  O  O4  1  0.49432918  0.20245262  0.30176197  1
  O  O5  1  0.99335313  0.19363562  0.30420771  1
  O  O6  1  0.09748423  0.17986225  0.80851014  1
  O  O7  1  0.59223283  0.16577846  0.80328013  1
  O  O8  1  0.48940529  0.81363829  0.80396061  1
  O  O9  1  0.99310760  0.81080575  0.80672119  1
  O  O10  1  0.40756553  0.01611207  0.80183643  1
  O  O11  1  0.91376115  0.01966174  0.80488106  1
  O  O12  1  0.39519892  0.96832679  0.69862119  1
  O  O13  1  0.89847307  0.96018239  0.69438967  1
  O  O14  1  0.08194260  0.20248318  0.69617753  1
  O  O15  1  0.58510546  0.20576835  0.69196347  1
  O  O16  1  0.02074896  0.83868392  0.69519115  1
  O  O17  1  0.51355216  0.83247601  0.69305689  1
  O  O18  1  0.39957261  0.83037196  0.19166259  1
  O  O19  1  0.89793755  0.82098628  0.19062895  1
  O  O20  1  0.01215822  0.20359272  0.20018611  1
  O  O21  1  0.51866051  0.21122928  0.19850360  1
  O  O22  1  0.08394588  0.96789652  0.19703495  1
  O  O23  1  0.59010262  0.97637170  0.19985519  1
  O  O24  1  0.44243226  0.33729706  0.64743649  1
  O  O25  1  0.93929980  0.33736488  0.63571581  1
  O  O26  1  0.22849407  0.11814732  0.63688207  1
  O  O27  1  0.73185589  0.12121966  0.63616920  1
  O  O28  1  0.32372988  0.54066325  0.63763038  1
  O  O29  1  0.82918145  0.53617384  0.63516525  1
  O  O30  1  0.44407854  0.53416803  0.13542704  1
  O  O31  1  0.94469285  0.53905609  0.13785826  1
  O  O32  1  0.33146219  0.11492478  0.13940080  1
  O  O33  1  0.82857777  0.11715198  0.13480824  1
  O  O34  1  0.23312084  0.34783911  0.14266589  1
  O  O35  1  0.73428233  0.35504450  0.14616391  1
  O  O36  1  0.23374205  0.31017295  0.02681770  1
  O  O37  1  0.73834084  0.31176576  0.03139261  1
  O  O38  1  0.42473443  0.54700467  0.03224169  1
  O  O39  1  0.92200678  0.53622706  0.03415122  1
  O  O40  1  0.34767777  0.15047858  0.03475566  1
  O  O41  1  0.84616427  0.15053412  0.03094929  1
  O  O42  1  0.22966702  0.14841506  0.53179896  1
  O  O43  1  0.72937030  0.15269463  0.53188627  1
  O  O44  1  0.34358226  0.53733069  0.53362167  1
  O  O45  1  0.84582758  0.54320443  0.53116743  1
  O  O46  1  0.41960448  0.31586536  0.53180791  1
  O  O47  1  0.92807329  0.31241186  0.53103623  1
  O  O48  1  0.28455735  0.70313512  0.97702385  1
  O  O49  1  0.78268023  0.69627663  0.96904351  1
  O  O50  1  0.07488334  0.43621233  0.96908500  1
  O  O51  1  0.56992806  0.43680875  0.97114761  1
  O  O52  1  0.15363449  0.86576291  0.96653764  1
  O  O53  1  0.65753314  0.86867539  0.96729776  1
  O  O54  1  0.27328614  0.86489352  0.46870618  1
  O  O55  1  0.78265919  0.84587818  0.47141387  1
  O  O56  1  0.14172209  0.43698497  0.46903756  1
  O  O57  1  0.65666490  0.44297309  0.47864029  1
  O  O58  1  0.08253146  0.72704748  0.46862103  1
  O  O59  1  0.56834674  0.68557057  0.46757261  1
  O  O60  1  0.06242430  0.62830691  0.35771629  1
  O  O61  1  0.55856525  0.63327822  0.36424769  1
  O  O62  1  0.25888239  0.88410970  0.36491420  1
  O  O63  1  0.74936679  0.87405313  0.36184027  1
  O  O64  1  0.18267734  0.48612115  0.35754223  1
  O  O65  1  0.68089324  0.49363543  0.36279383  1
  O  O66  1  0.05586864  0.47403254  0.85736332  1
  O  O67  1  0.56193555  0.48900424  0.85810004  1
  O  O68  1  0.17717424  0.88200679  0.86251647  1
  O  O69  1  0.68126743  0.88694855  0.86316593  1
  O  O70  1  0.25179872  0.63869176  0.86154603  1
  O  O71  1  0.76277531  0.64225272  0.86517918  1
  O  O72  1  0.99866539  0.81972825  0.40543263  1
  O  O73  1  0.50796471  0.80621003  0.40944364  1
  O  O74  1  0.39765492  0.99707661  0.41147669  1
  O  O75  1  0.91134553  0.00625211  0.40294177  1
  O  O76  1  0.08696363  0.17864044  0.40446385  1
  O  O77  1  0.59466550  0.17105958  0.41310897  1
  O  O78  1  0.00425117  0.17160169  0.90869223  1
  O  O79  1  0.50162632  0.17757760  0.90294133  1
  O  O80  1  0.09391480  0.99356509  0.90788225  1
  O  O81  1  0.59549381  0.99060546  0.90812017  1
  O  O82  1  0.41104696  0.82242102  0.90440642  1
  O  O83  1  0.90236333  0.80914527  0.90755612  1
  O  O84  1  0.48926650  0.15017663  0.58589054  1
  O  O85  1  0.98493051  0.16553418  0.58472656  1
  O  O86  1  0.09870301  0.03004402  0.58465288  1
  O  O87  1  0.60154117  0.03877736  0.58622227  1
  O  O88  1  0.41611560  0.79907030  0.58598115  1
  O  O89  1  0.91757139  0.80276148  0.58538353  1
  O  O90  1  0.47908871  0.79862804  0.08862274  1
  O  O91  1  0.97623019  0.79455040  0.08628852  1
  O  O92  1  0.41584603  0.02327251  0.08761462  1
  O  O93  1  0.91396162  0.02359276  0.08466096  1
  O  O94  1  0.08683183  0.15301399  0.08924377  1
  O  O95  1  0.58961422  0.15622845  0.09149490  1
  O  O96  1  0.34312045  0.13845846  0.74664921  1
  O  O97  1  0.84163046  0.15439260  0.74797559  1
  O  O98  1  0.23579011  0.30869142  0.74922869  1
  O  O99  1  0.73592272  0.31526208  0.74803895  1
  O  O100  1  0.42114758  0.52651459  0.75091906  1
  O  O101  1  0.92582721  0.53080560  0.74843295  1
  O  O102  1  0.33411568  0.51764275  0.24810025  1
  O  O103  1  0.84539327  0.52617070  0.25253005  1
  O  O104  1  0.43000169  0.31187784  0.24081256  1
  O  O105  1  0.93144177  0.31911585  0.24676580  1
  O  O106  1  0.24118753  0.14676981  0.25165017  1
  O  O107  1  0.72918428  0.13622909  0.24359192  1
  O  O108  1  0.31677448  0.48660476  0.92157377  1
  O  O109  1  0.82310078  0.50828145  0.92292450  1
  O  O110  1  0.41979576  0.34539676  0.92416268  1
  O  O111  1  0.91839577  0.34301233  0.92560942  1
  O  O112  1  0.24360731  0.13641952  0.91944701  1
  O  O113  1  0.74593706  0.13870436  0.92102105  1
  O  O114  1  0.31427120  0.13300875  0.42301467  1
  O  O115  1  0.82167087  0.15107221  0.42532793  1
  O  O116  1  0.25125080  0.33919935  0.42601577  1
  O  O117  1  0.75853671  0.36563516  0.42359824  1
  O  O118  1  0.43181762  0.50310891  0.42302226  1
  O  O119  1  0.92893872  0.49594789  0.42580416  1
  O  O120  1  0.17568668  0.49874096  0.08193189  1
  O  O121  1  0.68081856  0.50464420  0.08127423  1
  O  O122  1  0.06422253  0.66658755  0.07562204  1
  O  O123  1  0.56589906  0.67092973  0.07596312  1
  O  O124  1  0.26431898  0.87155369  0.07941219  1
  O  O125  1  0.76355212  0.87163664  0.07483708  1
  O  O126  1  0.17394570  0.87282149  0.57840308  1
  O  O127  1  0.67210401  0.87448024  0.57754852  1
  O  O128  1  0.26455941  0.66066652  0.57609072  1
  O  O129  1  0.76418117  0.65260623  0.57878006  1
  O  O130  1  0.06382240  0.47233670  0.57992109  1
  O  O131  1  0.57815307  0.48545117  0.58385325  1
  O  O132  1  0.14610054  0.81174255  0.25871409  1
  O  O133  1  0.64754912  0.83056606  0.25369405  1
  O  O134  1  0.25615394  0.69790764  0.25352073  1
  O  O135  1  0.75579935  0.68416395  0.25715043  1
  O  O136  1  0.08230510  0.45798586  0.25463776  1
  O  O137  1  0.58296709  0.46752442  0.25316690  1
  O  O138  1  0.15313774  0.48283290  0.75675731  1
  O  O139  1  0.64994982  0.47706246  0.75771837  1
  O  O140  1  0.09542435  0.71157743  0.75806909  1
  O  O141  1  0.58999942  0.70884620  0.75761948  1
  O  O142  1  0.27088703  0.83650758  0.75642377  1
  O  O143  1  0.76096786  0.81834835  0.76033409  1
loop_
_geom_bond_atom_site_label_1
_geom_bond_atom_site_label_2
_geom_bond_distance
_geom_bond_site_symmetry_2
Na0 O106 2.374218 1_565
Na0 O134 2.420440 1_555
Na0 O104 2.577555 1_565
Na0 O32 2.654666 1_565
Na0 O132 2.732495 1_555
Na0 O62 2.954747 1_555
Na0 O18 2.956702 1_555
Na1 O102 2.238245 1_555
Na1 O34 2.492403 1_555
Na1 O106 2.563826 1_555
Na1 O136 2.598823 1_555
Na1 O134 2.682672 1_555
Na1 O64 2.911339 1_555
Na2 O35 2.409652 1_555
Na2 O103 2.456418 1_555
Na2 O135 2.510244 1_555
Na2 O137 2.562942 1_555
Na2 O107 2.590447 1_555
Na3 O132 2.390592 1_655
Na3 O103 2.437497 1_555
Na3 O105 2.595306 1_555
Na3 O60 2.768817 1_655
Na3 O31 2.824835 1_555
Na3 O136 2.832235 1_655
Na3 O22 2.885778 1_655
Na4 O100 2.408650 1_555
Na4 O98 2.442111 1_555
Na4 O142 2.585657 1_555
Na4 O138 2.646594 1_555
Na4 O70 2.802679 1_555
Na4 O28 2.843365 1_555
Na5 O99 2.474972 1_555
Na5 O143 2.490428 1_555
Na5 O101 2.522399 1_555
Na5 O139 2.703423 1_555
Na5 O29 2.836844 1_555
Na5 O71 2.892372 1_555
Na5 O13 2.960245 1_555
Na6 O101 2.422447 1_555
Na6 O97 2.457995 1_555
Na6 O138 2.590865 1_655
Na6 O66 2.694535 1_655
Na6 O140 2.813844 1_655
Na6 O25 2.845144 1_555
Na6 O11 2.978705 1_555
Na6 O14 2.984354 1_655
Na7 O24 2.376984 1_555
Na7 O100 2.413411 1_555
Na7 O139 2.516204 1_555
Na7 O96 2.566538 1_555
Na7 O141 2.685493 1_555
Na7 O67 2.920659 1_555
Na7 O15 3.000110 1_555
Na8 O140 2.395444 1_545
Na8 O98 2.400732 1_555
Na8 O96 2.610501 1_555
Na8 O26 2.778202 1_555
Na8 O142 2.827084 1_545
Na8 O16 2.849393 1_545
Na8 O68 2.865728 1_545
Na9 O141 2.456796 1_545
Na9 O99 2.457630 1_555
Na9 O97 2.466523 1_555
Na9 O143 2.741377 1_545
Na9 O27 2.819392 1_555
Na9 O69 2.831825 1_545
Na10 O131 2.234766 1_555
Na10 O57 2.394278 1_555
Na10 O87 2.508412 1_555
Na10 O84 2.553116 1_555
Na10 O129 2.563877 1_555
Na11 O120 2.328655 1_555
Na11 O124 2.473603 1_555
Na11 O48 2.497565 1_554
Na11 O90 2.563357 1_555
Na11 O92 2.772430 1_565
Na12 O121 2.293272 1_555
Na12 O91 2.470019 1_555
Na12 O125 2.508092 1_555
Na12 O93 2.733928 1_565
Na12 O19 2.741482 1_555
Na12 O49 2.882552 1_554
Na12 O35 2.923872 1_555
Na12 O39 3.009628 1_555
Na13 O108 2.458305 1_555
Na13 O78 2.550554 1_555
Na13 O50 2.568096 1_555
Na13 O80 2.643020 1_545
Na13 O112 2.761895 1_555
Na13 O36 2.772156 1_556
Na13 O70 2.904981 1_555
Na13 O6 2.943747 1_555
Na14 O75 2.464362 1_555
Na14 O76 2.510594 1_655
Na14 O56 2.571635 1_655
Na14 O119 2.581949 1_555
Na14 O115 2.811189 1_555
Na14 O47 2.881426 1_555
Na14 O5 2.889407 1_555
Na14 O60 2.923907 1_655
Na15 O76 2.432354 1_555
Na15 O114 2.459230 1_555
Na15 O116 2.501505 1_555
Na15 O58 2.655381 1_545
Na15 O72 2.659634 1_445
Na15 O0 2.838657 1_555
Na15 O42 2.891548 1_555
Na15 O62 2.957799 1_545
Na16 O77 2.247742 1_555
Na16 O73 2.550076 1_545
Na16 O115 2.556428 1_555
Na16 O117 2.718800 1_555
Na16 O1 2.745147 1_555
Na16 O63 2.858462 1_545
Na16 O59 2.982289 1_545
Na16 O43 2.982587 1_555
Na17 O117 2.465925 1_555
Na17 O72 2.497920 1_555
Na17 O55 2.652481 1_555
Na17 O75 2.676362 1_565
Na17 O119 2.794838 1_555
Na17 O65 2.891880 1_555
Na17 O3 2.907190 1_555
Na17 O45 2.908434 1_555
Na18 O85 2.580026 1_455
Na18 O86 2.589015 1_555
Na18 O89 2.627217 1_445
Na18 O76 2.720866 1_555
Na18 O72 2.760205 1_445
Na18 O75 2.808540 1_455
Na19 O84 2.445146 1_555
Na19 O77 2.552226 1_555
Na19 O74 2.614145 1_545
Na19 O88 2.740497 1_545
Na19 O87 2.801200 1_555
Na19 O73 2.892517 1_545
Na20 O94 2.465899 1_555
Na20 O78 2.512676 1_554
Na20 O93 2.581851 1_455
Na20 O91 2.776450 1_445
Na20 O80 2.796514 1_544
Na20 O83 2.927521 1_444
Na21 O79 2.559021 1_555
Na21 O92 2.654829 1_556
Na21 O95 2.666679 1_556
Na21 O82 2.770877 1_545
Na21 O81 2.785369 1_545
Na21 O90 2.889151 1_546
Na22 O100 2.448695 1_555
Na22 O108 2.510587 1_555
Na22 O110 2.535610 1_555
Na22 O98 2.693008 1_555
Na22 O112 2.767234 1_555
Na22 O96 2.877032 1_555
Na23 O101 2.526850 1_555
Na23 O97 2.527639 1_555
Na23 O99 2.598789 1_555
Na23 O111 2.676597 1_555
Na23 O113 2.770627 1_555
Na23 O109 2.807158 1_555
Na24 O102 2.309047 1_555
Na24 O106 2.571569 1_555
Na24 O116 2.718775 1_555
Na24 O118 2.747518 1_555
Na24 O104 2.849862 1_555
Na24 O114 2.975081 1_555
Na25 O103 2.441422 1_555
Na25 O117 2.627618 1_555
Na25 O115 2.725175 1_555
Na25 O105 2.734230 1_555
Na25 O119 2.747627 1_555
Na25 O107 2.773798 1_555
Na26 O120 2.357018 1_555
Na26 O124 2.627409 1_555
Na26 O134 2.628207 1_555
Na26 O122 2.774552 1_555
Na26 O136 2.809617 1_555
Na26 O132 2.856098 1_555
Na27 O121 2.426106 1_555
Na27 O123 2.696271 1_555
Na27 O137 2.725230 1_555
Na27 O125 2.726261 1_555
Na27 O135 2.765945 1_555
Na27 O133 2.799683 1_555
Na28 O130 2.617636 1_555
Na28 O140 2.666942 1_555
Na28 O138 2.668000 1_555
Na28 O126 2.705210 1_555
Na28 O128 2.778831 1_555
Na28 O142 2.858142 1_555
Na29 O131 2.366687 1_555
Na29 O127 2.686006 1_555
Na29 O141 2.686257 1_555
Na29 O139 2.757394 1_555
Na29 O129 2.791454 1_555
Na29 O143 2.887714 1_555
Ca0 O2 2.064607 1_555
Ca0 O77 2.232032 1_565
Ca0 O4 2.235079 1_565
Ca0 O74 2.287297 1_555
Ca0 O1 2.290343 1_565
Ca0 O73 2.294274 1_555
Ca1 O24 2.124269 1_555
Ca1 O28 2.237681 1_555
Ca1 O100 2.280910 1_555
Ca1 O26 2.286560 1_555
Ca1 O98 2.316024 1_555
Ca1 O96 2.415595 1_555
Ca2 O97 2.222079 1_555
Ca2 O99 2.240226 1_555
Ca2 O101 2.241094 1_555
Ca2 O25 2.251898 1_555
Ca2 O29 2.257704 1_555
Ca2 O27 2.281487 1_555
Ca3 O34 2.100677 1_555
Ca3 O102 2.205204 1_555
Ca3 O30 2.255657 1_555
Ca3 O32 2.300400 1_555
Ca3 O106 2.315558 1_555
Ca3 O104 2.341138 1_555
Ca4 O35 2.101934 1_555
Ca4 O33 2.239624 1_555
Ca4 O31 2.262625 1_555
Ca4 O107 2.308617 1_555
Ca4 O103 2.334140 1_555
Ca4 O105 2.398150 1_555
Ca5 O50 2.135237 1_554
Ca5 O48 2.192670 1_554
Ca5 O120 2.209750 1_555
Ca5 O52 2.322065 1_554
Ca5 O122 2.385337 1_555
Ca5 O124 2.451004 1_555
Ca6 O51 2.071587 1_554
Ca6 O121 2.196973 1_555
Ca6 O53 2.316693 1_554
Ca6 O123 2.320435 1_555
Ca6 O49 2.340677 1_554
Ca6 O125 2.444263 1_555
Ca7 O56 2.145794 1_555
Ca7 O58 2.167203 1_555
Ca7 O54 2.262107 1_555
Ca7 O130 2.302725 1_555
Ca7 O128 2.342349 1_555
Ca7 O126 2.397880 1_555
Ca8 O57 2.153784 1_555
Ca8 O55 2.209805 1_555
Ca8 O59 2.227877 1_555
Ca8 O131 2.257429 1_555
Ca8 O127 2.346519 1_555
Ca8 O129 2.348447 1_555
Hf0 O0 1.990467 1_565
Hf0 O3 1.993872 1_455
Hf0 O72 2.001673 1_455
Hf0 O76 2.056306 1_565
Hf0 O75 2.070802 1_465
Hf0 O5 2.212072 1_465
Hf1 O11 1.931043 1_555
Hf1 O6 1.986080 1_655
Hf1 O9 1.994853 1_545
Hf1 O78 2.030926 1_655
Hf1 O83 2.217789 1_545
Hf1 O80 2.266142 1_645
Hf2 O79 1.986166 1_565
Hf2 O8 1.997666 1_555
Hf2 O82 1.999849 1_555
Hf2 O7 2.006970 1_565
Hf2 O81 2.144801 1_555
Hf2 O10 2.208289 1_565
Hf3 O16 1.964734 1_545
Hf3 O13 1.967745 1_445
Hf3 O14 1.972061 1_555
Hf3 O85 2.310337 1_455
Hf3 O86 2.323468 1_555
Hf3 O89 2.324269 1_445
Hf4 O15 1.969173 1_555
Hf4 O17 2.011131 1_545
Hf4 O84 2.044942 1_555
Hf4 O12 2.171033 1_545
Hf4 O87 2.219752 1_555
Hf4 O88 2.301569 1_545
Hf5 O22 1.945257 1_555
Hf5 O94 1.999093 1_565
Hf5 O19 2.082517 1_455
Hf5 O20 2.200087 1_565
Hf5 O91 2.206130 1_455
Hf5 O93 2.356195 1_465
Hf6 O95 2.011773 1_555
Hf6 O18 2.012754 1_545
Hf6 O92 2.153014 1_555
Hf6 O21 2.159687 1_555
Hf6 O90 2.170730 1_545
Hf6 O23 2.171577 1_545
Hf7 O108 1.997834 1_555
Hf7 O110 2.017597 1_555
Hf7 O36 2.042810 1_556
Hf7 O38 2.184390 1_556
Hf7 O112 2.257456 1_555
Hf7 O40 2.313602 1_556
Hf8 O37 1.975031 1_556
Hf8 O111 2.045026 1_555
Hf8 O41 2.127098 1_556
Hf8 O113 2.162250 1_555
Hf8 O109 2.201229 1_555
Hf8 O39 2.204550 1_556
Hf9 O46 1.951972 1_555
Hf9 O116 2.104954 1_555
Hf9 O44 2.106050 1_555
Hf9 O42 2.168864 1_555
Hf9 O118 2.176231 1_555
Hf9 O114 2.243855 1_555
Hf10 O119 1.985926 1_555
Hf10 O117 1.988815 1_555
Hf10 O115 2.005176 1_555
Hf10 O45 2.200757 1_555
Hf10 O47 2.226080 1_555
Hf10 O43 2.245162 1_555
Hf11 O64 1.992035 1_555
Hf11 O134 2.050179 1_555
Hf11 O60 2.088484 1_555
Hf11 O132 2.116543 1_555
Hf11 O62 2.170343 1_555
Hf11 O136 2.292721 1_555
Hf12 O63 1.962856 1_555
Hf12 O65 1.981497 1_555
Hf12 O135 2.009375 1_555
Hf12 O61 2.263895 1_555
Hf12 O133 2.316723 1_555
Hf12 O137 2.343103 1_555
Hf13 O66 1.944054 1_555
Hf13 O70 2.010559 1_555
Hf13 O138 2.051329 1_555
Hf13 O140 2.110822 1_555
Hf13 O68 2.269943 1_555
Hf13 O142 2.436669 1_555
Hf14 O67 1.964931 1_555
Hf14 O139 2.019472 1_555
Hf14 O141 2.021450 1_555
Hf14 O143 2.114574 1_555
Hf14 O69 2.286212 1_555
Hf14 O71 2.330348 1_555
O0 Si0 1.631685 1_545
O1 S0 1.463854 1_545
O2 Si1 1.575375 1_555
O3 Si2 1.627665 1_555
O4 S2 1.450917 1_555
O5 S1 1.471940 1_655
O6 Si3 1.627782 1_555
O7 Si4 1.602885 1_555
O8 Si6 1.605768 1_555
O9 Si5 1.617363 1_655
O10 S3 1.464691 1_545
O11 Si7 1.625246 1_545
O12 S3 1.502824 1_555
O13 Si7 1.669754 1_555
O14 Si3 1.663915 1_555
O15 Si4 1.676391 1_555
O16 Si5 1.671985 1_555
O17 Si6 1.662054 1_555
O18 Si1 1.703932 1_555
O19 Si2 1.655491 1_555
O20 S1 1.489956 1_555
O21 S2 1.520697 1_555
O22 Si0 1.680672 1_555
O23 S0 1.507568 1_555
O24 Si8 1.600810 1_555
O25 S4 1.460918 1_555
O26 S5 1.466438 1_555
O27 S6 1.456607 1_555
O28 S7 1.465692 1_555
O29 S8 1.465736 1_555
O30 S9 1.451143 1_555
O31 S10 1.471934 1_555
O32 S11 1.463858 1_555
O33 S12 1.459272 1_555
O34 Si9 1.604505 1_555
O35 Si10 1.618675 1_555
O36 Si9 1.704083 1_555
O37 Si10 1.702892 1_555
O38 S9 1.510515 1_555
O39 S10 1.504172 1_555
O40 S11 1.483613 1_555
O41 S12 1.513458 1_555
O42 S5 1.527507 1_555
O43 S6 1.516720 1_555
O44 S7 1.524370 1_555
O45 S8 1.520254 1_555
O46 Si8 1.709992 1_555
O47 S4 1.518155 1_555
O48 Si11 1.588853 1_555
O49 S13 1.459512 1_555
O50 Si12 1.583832 1_555
O51 Si13 1.577887 1_555
O52 S14 1.449280 1_555
O53 S15 1.453494 1_555
O54 S16 1.443300 1_555
O55 Si14 1.578866 1_555
O56 Si15 1.590663 1_555
O57 Si16 1.582508 1_555
O58 Si17 1.579653 1_555
O59 S17 1.458275 1_555
O60 Si17 1.659969 1_555
O61 S17 1.502422 1_555
O62 S16 1.532937 1_555
O63 Si14 1.683573 1_555
O64 Si15 1.677659 1_555
O65 Si16 1.707822 1_555
O66 Si12 1.704934 1_555
O67 Si13 1.692257 1_555
O68 S14 1.503676 1_555
O69 S15 1.494888 1_555
O70 Si11 1.697175 1_555
O71 S13 1.496803 1_555
O72 Si17 1.653329 1_655
O73 S17 1.465759 1_555
O74 S16 1.452083 1_555
O75 Si14 1.635105 1_545
O76 Si15 1.662333 1_555
O77 Si16 1.605962 1_555
O78 Si12 1.657910 1_555
O79 Si13 1.638530 1_555
O80 S14 1.497279 1_555
O81 S15 1.485832 1_555
O82 Si11 1.618502 1_555
O83 S13 1.485853 1_555
O84 Si8 1.699263 1_555
O85 S4 1.507574 1_555
O86 S5 1.510116 1_555
O87 S6 1.518557 1_555
O88 S7 1.494775 1_555
O89 S8 1.497834 1_555
O90 S9 1.531594 1_555
O91 S10 1.531879 1_555
O92 S11 1.540496 1_555
O93 S12 1.506088 1_555
O94 Si9 1.691328 1_555
O95 Si10 1.673361 1_555
O96 S3 1.475225 1_545
O97 Si7 1.610119 1_545
O98 Si3 1.612684 1_555
O99 Si4 1.611872 1_555
O100 Si6 1.620704 1_555
O101 Si5 1.612429 1_655
O102 Si1 1.607043 1_555
O103 Si2 1.642336 1_555
O104 S2 1.458197 1_555
O105 S1 1.469614 1_655
O106 Si0 1.608347 1_545
O107 S0 1.480810 1_545
O108 Si11 1.693665 1_555
O109 S13 1.514055 1_555
O110 Si13 1.667972 1_555
O111 Si12 1.650496 1_655
O112 S14 1.505489 1_545
O113 S15 1.510908 1_545
O114 S16 1.522931 1_545
O115 Si14 1.668883 1_545
O116 Si15 1.664273 1_555
O117 Si16 1.713735 1_555
O118 S17 1.515144 1_555
O119 Si17 1.672679 1_655
O120 Si9 1.624318 1_555
O121 Si10 1.623975 1_555
O122 S10 1.446802 1_455
O123 S9 1.455183 1_555
O124 S11 1.470623 1_565
O125 S12 1.469522 1_565
O126 S5 1.460766 1_565
O127 S6 1.457305 1_565
O128 S7 1.460523 1_555
O129 S8 1.464691 1_555
O130 S4 1.465242 1_455
O131 Si8 1.621274 1_555
O132 Si0 1.649228 1_555
O133 S0 1.495001 1_555
O134 Si1 1.717160 1_555
O135 Si2 1.679551 1_555
O136 S1 1.505579 1_555
O137 S2 1.507717 1_555
O138 Si3 1.670991 1_555
O139 Si4 1.663306 1_555
O140 Si5 1.666182 1_555
O141 Si6 1.676137 1_555
O142 S3 1.494929 1_555
O143 Si7 1.641363 1_555
