# generated using pymatgen
data_Ni3(PO4)2
_symmetry_space_group_name_H-M   'P 1'
_cell_length_a   4.68331995
_cell_length_b   5.80744322
_cell_length_c   10.07597216
_cell_angle_alpha   88.84557675
_cell_angle_beta   90.00000000
_cell_angle_gamma   90.00000000
_symmetry_Int_Tables_number   1
_chemical_formula_structural   Ni3(PO4)2
_chemical_formula_sum   'Ni6 P4 O16'
_cell_volume   273.99182167
_cell_formula_units_Z   2
loop_
 _symmetry_equiv_pos_site_id
 _symmetry_equiv_pos_as_xyz
  1  'x, y, z'
loop_
 _atom_site_type_symbol
 _atom_site_label
 _atom_site_symmetry_multiplicity
 _atom_site_fract_x
 _atom_site_fract_y
 _atom_site_fract_z
 _atom_site_occupancy
  Ni  Ni0  1  0.01311573  0.24287613  0.72650095  1
  Ni  Ni1  1  0.51311573  0.75712387  0.77349905  1
  Ni  Ni2  1  0.48688427  0.24287613  0.22650095  1
  Ni  Ni3  1  0.98688427  0.75712387  0.27349905  1
  Ni  Ni4  1  0.50000000  0.50000000  0.50000000  1
  Ni  Ni5  1  0.00000000  0.50000000  -0.00000000  1
  P  P0  1  0.07724980  0.74944683  0.59477620  1
  P  P1  1  0.57724980  0.25055317  0.90522380  1
  P  P2  1  0.92275020  0.25055317  0.40522380  1
  P  P3  1  0.42275020  0.74944683  0.09477620  1
  O  O0  1  0.23420335  0.53374300  0.66222728  1
  O  O1  1  0.73420335  0.46625700  0.83777272  1
  O  O2  1  0.76579665  0.46625700  0.33777272  1
  O  O3  1  0.26579665  0.53374300  0.16222728  1
  O  O4  1  0.19985178  0.94956422  0.67313560  1
  O  O5  1  0.69985178  0.05043578  0.82686440  1
  O  O6  1  0.80014822  0.05043578  0.32686440  1
  O  O7  1  0.30014822  0.94956422  0.17313560  1
  O  O8  1  0.30828525  0.74415757  0.95179925  1
  O  O9  1  0.80828525  0.25584243  0.54820075  1
  O  O10  1  0.74688403  0.73256671  0.10124758  1
  O  O11  1  0.24688403  0.26743329  0.39875242  1
  O  O12  1  0.25311597  0.26743329  0.89875242  1
  O  O13  1  0.69171475  0.25584243  0.04820075  1
  O  O14  1  0.19171475  0.74415757  0.45179925  1
  O  O15  1  0.75311597  0.73256671  0.60124758  1
loop_
_geom_bond_atom_site_label_1
_geom_bond_atom_site_label_2
_geom_bond_distance
_geom_bond_site_symmetry_2
Ni0 O4 1.998102 1_545
Ni0 O9 2.036672 1_455
Ni0 O0 2.073839 1_555
Ni0 O12 2.075089 1_555
Ni0 O5 2.092494 1_455
Ni0 O1 2.169055 1_455
Ni1 O5 1.998102 1_565
Ni1 O8 2.036672 1_555
Ni1 O1 2.073839 1_555
Ni1 O15 2.075089 1_555
Ni1 O4 2.092494 1_555
Ni1 O0 2.169055 1_555
Ni2 O7 1.998102 1_545
Ni2 O13 2.036672 1_555
Ni2 O3 2.073839 1_555
Ni2 O11 2.075089 1_555
Ni2 O6 2.092494 1_555
Ni2 O2 2.169055 1_555
Ni3 O6 1.998102 1_565
Ni3 O14 2.036672 1_655
Ni3 O2 2.073839 1_555
Ni3 O10 2.075089 1_555
Ni3 O7 2.092494 1_655
Ni3 O3 2.169055 1_655
Ni4 O2 2.067068 1_555
Ni4 O0 2.067068 1_555
Ni4 O9 2.074418 1_555
Ni4 O14 2.074418 1_555
Ni4 O11 2.079822 1_555
Ni4 O15 2.079822 1_555
Ni5 O1 2.067068 1_454
Ni5 O3 2.067068 1_555
Ni5 O13 2.074418 1_455
Ni5 O8 2.074418 1_554
Ni5 O12 2.079822 1_554
Ni5 O10 2.079822 1_455
O0 P0 1.592841 1_555
O1 P1 1.592841 1_555
O2 P2 1.592841 1_555
O3 P3 1.592841 1_555
O4 P0 1.529930 1_555
O5 P1 1.529930 1_555
O6 P2 1.529930 1_555
O7 P3 1.529930 1_555
O8 P3 1.538026 1_556
O9 P2 1.538026 1_555
O10 P3 1.522497 1_555
O11 P2 1.522497 1_455
O12 P1 1.522497 1_555
O13 P1 1.538026 1_554
O14 P0 1.538026 1_555
O15 P0 1.522497 1_655
