# generated using pymatgen
data_MgTi2(FeO3)2
_symmetry_space_group_name_H-M   'P 1'
_cell_length_a   5.95026732
_cell_length_b   6.05987949
_cell_length_c   5.78895971
_cell_angle_alpha   52.21283657
_cell_angle_beta   52.92906775
_cell_angle_gamma   50.81047703
_symmetry_Int_Tables_number   1
_chemical_formula_structural   MgTi2(FeO3)2
_chemical_formula_sum   'Mg1 Ti2 Fe2 O6'
_cell_volume   119.67259862
_cell_formula_units_Z   1
loop_
 _symmetry_equiv_pos_site_id
 _symmetry_equiv_pos_as_xyz
  1  'x, y, z'
loop_
 _atom_site_type_symbol
 _atom_site_label
 _atom_site_symmetry_multiplicity
 _atom_site_fract_x
 _atom_site_fract_y
 _atom_site_fract_z
 _atom_site_occupancy
  Mg  Mg0  1  0.50260300  0.49594400  0.50249300  1
  Ti  Ti0  1  0.67928300  0.68460400  0.66072400  1
  Ti  Ti1  1  0.31037300  0.32233900  0.34053700  1
  Fe  Fe0  1  0.86492600  0.86235500  0.86159100  1
  Fe  Fe1  1  0.13094200  0.13385500  0.13640700  1
  O  O0  1  0.07885000  0.71651900  0.46257500  1
  O  O1  1  0.71407700  0.43684100  0.09038100  1
  O  O2  1  0.45398100  0.09464700  0.71112700  1
  O  O3  1  0.92025000  0.27810900  0.55121400  1
  O  O4  1  0.54422200  0.90957800  0.27485900  1
  O  O5  1  0.30049300  0.56520700  0.90809300  1
loop_
_geom_bond_atom_site_label_1
_geom_bond_atom_site_label_2
_geom_bond_distance
_geom_bond_site_symmetry_2
Mg0 O3 2.059332 1_555
Mg0 O1 2.064353 1_555
Mg0 O0 2.064550 1_555
Mg0 O5 2.073897 1_555
Mg0 O2 2.079597 1_555
Mg0 O4 2.103329 1_555
Fe0 O4 2.022816 1_556
Fe0 O5 2.093141 1_655
Fe0 O3 2.114671 1_565
Fe0 O0 2.296088 1_655
Fe0 O2 2.331225 1_565
Fe0 O1 2.552531 1_556
Fe1 O1 2.009102 1_455
Fe1 O2 2.060756 1_554
Fe1 O0 2.119056 1_545
Fe1 O4 2.313954 1_545
Fe1 O3 2.379095 1_455
Fe1 O5 2.662478 1_554
O0 Ti0 2.006774 1_455
O0 Ti1 2.199704 1_555
O1 Ti0 2.033522 1_554
O1 Ti1 2.242778 1_555
O2 Ti0 2.064876 1_545
O2 Ti1 2.080633 1_555
O3 Ti1 1.979996 1_655
O3 Ti0 2.209046 1_555
O4 Ti1 2.113349 1_565
O4 Ti0 2.131165 1_555
O5 Ti1 1.997385 1_556
O5 Ti0 2.134061 1_555
