# generated using pymatgen
data_Na7Au5S6
_symmetry_space_group_name_H-M   'P 1'
_cell_length_a   7.14545900
_cell_length_b   10.62679100
_cell_length_c   22.67033600
_cell_angle_alpha   90.00000000
_cell_angle_beta   90.00000000
_cell_angle_gamma   90.00000000
_symmetry_Int_Tables_number   1
_chemical_formula_structural   Na7Au5S6
_chemical_formula_sum   'Na28 Au20 S24'
_cell_volume   1721.43341081
_cell_formula_units_Z   4
loop_
 _symmetry_equiv_pos_site_id
 _symmetry_equiv_pos_as_xyz
  1  'x, y, z'
loop_
 _atom_site_type_symbol
 _atom_site_label
 _atom_site_symmetry_multiplicity
 _atom_site_fract_x
 _atom_site_fract_y
 _atom_site_fract_z
 _atom_site_occupancy
  Na  Na0  1  0.00154100  0.00000000  0.75000000  1
  Na  Na1  1  0.49845900  0.50000000  0.25000000  1
  Na  Na2  1  0.99845900  0.00000000  0.25000000  1
  Na  Na3  1  0.50154100  0.50000000  0.75000000  1
  Na  Na4  1  0.49676100  0.73956700  0.40916000  1
  Na  Na5  1  0.49676100  0.26043300  0.09084000  1
  Na  Na6  1  0.00323900  0.23956700  0.59084000  1
  Na  Na7  1  0.00323900  0.76043300  0.90916000  1
  Na  Na8  1  0.50323900  0.26043300  0.59084000  1
  Na  Na9  1  0.50323900  0.73956700  0.90916000  1
  Na  Na10  1  0.99676100  0.76043300  0.40916000  1
  Na  Na11  1  0.99676100  0.23956700  0.09084000  1
  Na  Na12  1  0.66208600  0.62280200  0.62082600  1
  Na  Na13  1  0.66208600  0.37719800  0.87917400  1
  Na  Na14  1  0.83791400  0.12280200  0.37917400  1
  Na  Na15  1  0.83791400  0.87719800  0.12082600  1
  Na  Na16  1  0.33791400  0.37719800  0.37917400  1
  Na  Na17  1  0.33791400  0.62280200  0.12082600  1
  Na  Na18  1  0.16208600  0.87719800  0.62082600  1
  Na  Na19  1  0.16208600  0.12280200  0.87917400  1
  Na  Na20  1  0.87615800  0.39285000  0.45641200  1
  Na  Na21  1  0.87615800  0.60715000  0.04358800  1
  Na  Na22  1  0.62384200  0.89285000  0.54358800  1
  Na  Na23  1  0.62384200  0.10715000  0.95641200  1
  Na  Na24  1  0.12384200  0.60715000  0.54358800  1
  Na  Na25  1  0.12384200  0.39285000  0.95641200  1
  Na  Na26  1  0.37615800  0.10715000  0.45641200  1
  Na  Na27  1  0.37615800  0.89285000  0.04358800  1
  Au  Au0  1  0.77185600  0.25665100  0.75194200  1
  Au  Au1  1  0.77185600  0.74334900  0.74805800  1
  Au  Au2  1  0.50000000  0.50000000  0.50000000  1
  Au  Au3  1  0.72814400  0.75665100  0.24805800  1
  Au  Au4  1  0.72814400  0.24334900  0.25194200  1
  Au  Au5  1  0.22814400  0.74334900  0.24805800  1
  Au  Au6  1  0.22814400  0.25665100  0.25194200  1
  Au  Au7  1  0.27185600  0.24334900  0.75194200  1
  Au  Au8  1  0.27185600  0.75665100  0.74805800  1
  Au  Au9  1  0.02918700  0.49813500  0.82973600  1
  Au  Au10  1  0.02918700  0.50186500  0.67026400  1
  Au  Au11  1  0.47081300  0.99813500  0.17026400  1
  Au  Au12  1  0.47081300  0.00186500  0.32973600  1
  Au  Au13  1  0.97081300  0.50186500  0.17026400  1
  Au  Au14  1  0.97081300  0.49813500  0.32973600  1
  Au  Au15  1  0.52918700  0.00186500  0.82973600  1
  Au  Au16  1  0.52918700  0.99813500  0.67026400  1
  Au  Au17  1  0.00000000  0.00000000  0.00000000  1
  Au  Au18  1  0.00000000  0.00000000  0.50000000  1
  Au  Au19  1  0.50000000  0.50000000  0.00000000  1
  S  S0  1  0.24913200  0.85695500  0.49872100  1
  S  S1  1  0.74039000  0.12197900  0.16630100  1
  S  S2  1  0.74039000  0.87802100  0.33369900  1
  S  S3  1  0.75961000  0.62197900  0.83369900  1
  S  S4  1  0.75961000  0.37802100  0.66630100  1
  S  S5  1  0.25961000  0.87802100  0.83369900  1
  S  S6  1  0.25961000  0.12197900  0.66630100  1
  S  S7  1  0.24039000  0.37802100  0.16630100  1
  S  S8  1  0.24039000  0.62197900  0.33369900  1
  S  S9  1  0.28835100  0.36628700  0.83739300  1
  S  S10  1  0.28835100  0.63371300  0.66260700  1
  S  S11  1  0.21164900  0.86628700  0.16260700  1
  S  S12  1  0.21164900  0.13371300  0.33739300  1
  S  S13  1  0.71164900  0.63371300  0.16260700  1
  S  S14  1  0.71164900  0.36628700  0.33739300  1
  S  S15  1  0.78835100  0.13371300  0.83739300  1
  S  S16  1  0.78835100  0.86628700  0.66260700  1
  S  S17  1  0.24913200  0.14304500  0.00127900  1
  S  S18  1  0.25086800  0.64304500  0.99872100  1
  S  S19  1  0.25086800  0.35695500  0.50127900  1
  S  S20  1  0.74913200  0.64304500  0.49872100  1
  S  S21  1  0.74913200  0.35695500  0.00127900  1
  S  S22  1  0.75086800  0.85695500  0.99872100  1
  S  S23  1  0.75086800  0.14304500  0.50127900  1
loop_
_geom_bond_atom_site_label_1
_geom_bond_atom_site_label_2
_geom_bond_distance
_geom_bond_site_symmetry_2
Na0 S15 2.874875 1_455
Na0 S16 2.874875 1_445
Na0 S5 2.946373 1_545
Na0 S6 2.946373 1_555
Na1 S13 2.874875 1_555
Na1 S14 2.874875 1_555
Na1 S8 2.946373 1_555
Na1 S7 2.946373 1_555
Na2 S12 2.874875 1_655
Na2 S11 2.874875 1_645
Na2 S2 2.946373 1_545
Na2 S1 2.946373 1_555
Na3 S9 2.874875 1_555
Na3 S10 2.874875 1_555
Na3 S3 2.946373 1_555
Na3 S4 2.946373 1_555
Na4 S8 2.800689 1_555
Na4 S2 2.849895 1_555
Na4 S20 2.902835 1_555
Na4 S0 2.968071 1_555
Na5 S7 2.800689 1_555
Na5 S1 2.849895 1_555
Na5 S21 2.902835 1_555
Na5 S17 2.968071 1_555
Na6 S6 2.800689 1_555
Na6 S4 2.849895 1_455
Na6 S23 2.902835 1_455
Na6 S19 2.968071 1_555
Na7 S5 2.800689 1_555
Na7 S3 2.849895 1_455
Na7 S22 2.902835 1_455
Na7 S18 2.968071 1_555
Na8 S4 2.800689 1_555
Na8 S6 2.849895 1_555
Na8 S19 2.902835 1_555
Na8 S23 2.968071 1_555
Na9 S3 2.800689 1_555
Na9 S5 2.849895 1_555
Na9 S18 2.902835 1_555
Na9 S22 2.968071 1_555
Na10 S2 2.800689 1_555
Na10 S8 2.849895 1_655
Na10 S0 2.902835 1_655
Na10 S20 2.968071 1_555
Na11 S1 2.800689 1_555
Na11 S7 2.849895 1_655
Na11 S17 2.902835 1_655
Na11 S21 2.968071 1_555
Na12 S10 2.835882 1_555
Na12 S20 2.845322 1_555
Na12 S4 2.883550 1_555
Na12 S16 2.899335 1_555
Na13 S9 2.835882 1_555
Na13 S21 2.845322 1_556
Na13 S3 2.883550 1_555
Na13 S15 2.899335 1_555
Na14 S12 2.835882 1_655
Na14 S23 2.845322 1_555
Na14 S2 2.883550 1_545
Na14 S14 2.899335 1_555
Na15 S11 2.835882 1_655
Na15 S22 2.845322 1_554
Na15 S1 2.883550 1_565
Na15 S13 2.899335 1_555
Na16 S14 2.835882 1_555
Na16 S19 2.845322 1_555
Na16 S8 2.883550 1_555
Na16 S12 2.899335 1_555
Na17 S13 2.835882 1_555
Na17 S18 2.845322 1_554
Na17 S7 2.883550 1_555
Na17 S11 2.899335 1_555
Na18 S16 2.835882 1_455
Na18 S0 2.845322 1_555
Na18 S6 2.883550 1_565
Na18 S10 2.899335 1_555
Na19 S15 2.835882 1_455
Na19 S17 2.845322 1_556
Na19 S5 2.883550 1_545
Na19 S9 2.899335 1_555
Na20 S19 2.889458 1_655
Na20 S14 2.956645 1_555
Na20 S20 2.968651 1_555
Na20 S23 2.980455 1_555
Na21 S18 2.889458 1_654
Na21 S13 2.956645 1_555
Na21 S21 2.968651 1_555
Na21 S22 2.980455 1_554
Na22 S0 2.889458 1_555
Na22 S16 2.956645 1_555
Na22 S23 2.968651 1_565
Na22 S20 2.980455 1_555
Na23 S17 2.889458 1_556
Na23 S15 2.956645 1_555
Na23 S22 2.968651 1_545
Na23 S21 2.980455 1_556
Na24 S20 2.889458 1_455
Na24 S10 2.956645 1_555
Na24 S19 2.968651 1_555
Na24 S0 2.980455 1_555
Na25 S21 2.889458 1_456
Na25 S9 2.956645 1_555
Na25 S18 2.968651 1_555
Na25 S17 2.980455 1_556
Na26 S23 2.889458 1_555
Na26 S12 2.956645 1_555
Na26 S0 2.968651 1_545
Na26 S19 2.980455 1_555
Na27 S22 2.889458 1_554
Na27 S11 2.956645 1_555
Na27 S17 2.968651 1_565
Na27 S18 2.980455 1_554
Au0 S4 2.332517 1_555
Au0 S15 2.339535 1_555
Au0 Na0 3.183406 1_655
Au0 Na3 3.228037 1_555
Au0 Na13 3.252071 1_555
Au1 S3 2.332517 1_555
Au1 S16 2.339535 1_555
Au1 Na0 3.183406 1_665
Au1 Na3 3.228037 1_555
Au1 Na12 3.252071 1_555
Au2 S20 2.341058 1_555
Au2 S19 2.341058 1_555
Au2 Na20 3.081782 1_555
Au2 Na24 3.081782 1_555
Au2 Na12 3.247678 1_555
Au2 Na16 3.247678 1_555
Au2 Na4 3.274568 1_555
Au2 Na8 3.274568 1_555
Au3 S2 2.332517 1_555
Au3 S13 2.339535 1_555
Au3 Na1 3.183406 1_555
Au3 Na2 3.228037 1_565
Au3 Na15 3.252071 1_555
Au4 S1 2.332517 1_555
Au4 S14 2.339535 1_555
Au4 Na1 3.183406 1_555
Au4 Na2 3.228037 1_555
Au4 Na14 3.252071 1_555
Au5 S8 2.332517 1_555
Au5 S11 2.339535 1_555
Au5 Na2 3.183406 1_465
Au5 Na1 3.228037 1_555
Au5 Na17 3.252071 1_555
Au6 S7 2.332517 1_555
Au6 S12 2.339535 1_555
Au6 Na2 3.183406 1_455
Au6 Na1 3.228037 1_555
Au6 Na16 3.252071 1_555
Au7 S6 2.332517 1_555
Au7 S9 2.339535 1_555
Au7 Na3 3.183406 1_555
Au7 Na0 3.228037 1_555
Au7 Na19 3.252071 1_555
Au8 S5 2.332517 1_555
Au8 S10 2.339535 1_555
Au8 Na3 3.183406 1_555
Au8 Na0 3.228037 1_565
Au8 Na18 3.252071 1_555
Au9 S9 2.328649 1_555
Au9 S3 2.334639 1_455
Au9 Na13 3.128656 1_455
Au9 Na25 3.155380 1_555
Au9 Na7 3.323544 1_555
Au10 S10 2.328649 1_555
Au10 S4 2.334639 1_455
Au10 Na12 3.128656 1_455
Au10 Na24 3.155380 1_555
Au10 Na6 3.323544 1_555
Au11 S11 2.328649 1_555
Au11 S1 2.334639 1_565
Au11 Na15 3.128656 1_555
Au11 Na27 3.155380 1_555
Au11 Na5 3.323544 1_565
Au12 S12 2.328649 1_555
Au12 S2 2.334639 1_545
Au12 Na14 3.128656 1_555
Au12 Na26 3.155380 1_555
Au12 Na4 3.323544 1_545
Au13 S13 2.328649 1_555
Au13 S7 2.334639 1_655
Au13 Na17 3.128656 1_655
Au13 Na21 3.155380 1_555
Au13 Na11 3.323544 1_555
Au14 S14 2.328649 1_555
Au14 S8 2.334639 1_655
Au14 Na16 3.128656 1_655
Au14 Na20 3.155380 1_555
Au14 Na10 3.323544 1_555
Au15 S15 2.328649 1_555
Au15 S5 2.334639 1_545
Au15 Na19 3.128656 1_555
Au15 Na23 3.155380 1_555
Au15 Na9 3.323544 1_545
Au16 S16 2.328649 1_555
Au16 S6 2.334639 1_565
Au16 Na18 3.128656 1_555
Au16 Na22 3.155380 1_555
Au16 Na8 3.323544 1_565
Au17 S17 2.341058 1_555
Au17 S22 2.341058 1_444
Au17 Na27 3.081782 1_545
Au17 Na23 3.081782 1_454
Au17 Na15 3.247678 1_445
Au17 Na19 3.247678 1_554
Au17 Na11 3.274568 1_455
Au17 Na7 3.274568 1_544
Au18 S23 2.341058 1_455
Au18 S0 2.341058 1_545
Au18 Na22 3.081782 1_445
Au18 Na26 3.081782 1_555
Au18 Na18 3.247678 1_545
Au18 Na14 3.247678 1_455
Au18 Na6 3.274568 1_555
Au18 Na10 3.274568 1_445
Au19 S18 2.341058 1_554
Au19 S21 2.341058 1_555
Au19 Na21 3.081782 1_555
Au19 Na25 3.081782 1_554
Au19 Na17 3.247678 1_555
Au19 Na13 3.247678 1_554
Au19 Na9 3.274568 1_554
Au19 Na5 3.274568 1_555
