# generated using pymatgen
data_Ti3ZnP2(SO6)4
_symmetry_space_group_name_H-M   'P 1'
_cell_length_a   8.61284862
_cell_length_b   8.64049036
_cell_length_c   22.26161987
_cell_angle_alpha   90.09510037
_cell_angle_beta   89.94998031
_cell_angle_gamma   119.97771967
_symmetry_Int_Tables_number   1
_chemical_formula_structural   Ti3ZnP2(SO6)4
_chemical_formula_sum   'Ti9 Zn3 P6 S12 O72'
_cell_volume   1435.05801919
_cell_formula_units_Z   3
loop_
 _symmetry_equiv_pos_site_id
 _symmetry_equiv_pos_as_xyz
  1  'x, y, z'
loop_
 _atom_site_type_symbol
 _atom_site_label
 _atom_site_symmetry_multiplicity
 _atom_site_fract_x
 _atom_site_fract_y
 _atom_site_fract_z
 _atom_site_occupancy
  Ti  Ti0  1  0.00069594  0.00015611  0.86069004  1
  Ti  Ti1  1  0.99891410  0.00666071  0.64241207  1
  Ti  Ti2  1  0.00698260  0.00949488  0.14327502  1
  Ti  Ti3  1  0.65562150  0.33067968  0.97465819  1
  Ti  Ti4  1  0.67491029  0.32431655  0.47531869  1
  Ti  Ti5  1  0.33214115  0.65979311  0.02105141  1
  Ti  Ti6  1  0.33601865  0.66552122  0.52110209  1
  Ti  Ti7  1  0.34225578  0.67617007  0.30741172  1
  Ti  Ti8  1  0.33032506  0.66539296  0.81373432  1
  Zn  Zn0  1  0.99517332  0.00087036  0.35646346  1
  Zn  Zn1  1  0.67373017  0.33646843  0.68760918  1
  Zn  Zn2  1  0.66354490  0.33508395  0.18554173  1
  P  P0  1  0.95584007  0.33713819  0.58391309  1
  P  P1  1  0.38178941  0.33561172  0.08397478  1
  P  P2  1  0.61714588  0.66698228  0.91620298  1
  P  P3  1  0.04579952  0.38200651  0.91662471  1
  P  P4  1  0.33308307  0.94862642  0.91680383  1
  P  P5  1  0.61769702  0.94874186  0.41646046  1
  S  S0  1  0.28783456  0.00118886  0.25115366  1
  S  S1  1  0.71464631  0.71110859  0.25041505  1
  S  S2  1  -0.00021121  0.29117537  0.25071827  1
  S  S3  1  0.28570941  0.28611515  0.75043919  1
  S  S4  1  0.00153436  0.71736162  0.75065498  1
  S  S5  1  0.71309097  0.99778060  0.75104788  1
  S  S6  1  0.37714190  0.04290590  0.58328063  1
  S  S7  1  0.66664841  0.62153396  0.58338113  1
  S  S8  1  0.95679577  0.62377933  0.08344830  1
  S  S9  1  0.66503757  0.04240935  0.08318904  1
  S  S10  1  0.33799389  0.38241911  0.41689120  1
  S  S11  1  0.04838179  0.66636431  0.41676395  1
  O  O0  1  0.20788587  0.02740859  0.30513369  1
  O  O1  1  0.81881261  0.79004079  0.30490560  1
  O  O2  1  0.97036047  0.18293515  0.30425220  1
  O  O3  1  0.19742697  0.17417518  0.80379827  1
  O  O4  1  0.98026115  0.80730415  0.80451300  1
  O  O5  1  0.82676506  0.02200720  0.80419231  1
  O  O6  1  0.79881228  0.96903849  0.69606581  1
  O  O7  1  0.16998079  0.20078097  0.69565286  1
  O  O8  1  0.03143808  0.82996924  0.69623496  1
  O  O9  1  0.79445092  0.82793173  0.19669153  1
  O  O10  1  0.03367376  0.20428068  0.19624325  1
  O  O11  1  0.17042290  0.96753732  0.19685775  1
  O  O12  1  0.88433168  0.37690248  0.63958350  1
  O  O13  1  0.48430179  0.11383909  0.63746422  1
  O  O14  1  0.62651342  0.51444041  0.63758964  1
  O  O15  1  0.88886395  0.51592577  0.13723111  1
  O  O16  1  0.63065202  0.11384909  0.13736167  1
  O  O17  1  0.49105923  0.37470953  0.13970903  1
  O  O18  1  0.46730741  0.30001664  0.02761815  1
  O  O19  1  0.84162968  0.54123045  0.02991917  1
  O  O20  1  0.70099781  0.15802102  0.02974915  1
  O  O21  1  0.45789716  0.15944652  0.52999340  1
  O  O22  1  0.69933458  0.54037565  0.53005617  1
  O  O23  1  0.83190713  0.29923821  0.52756493  1
  O  O24  1  0.53466354  0.70164020  0.97183927  1
  O  O25  1  0.16651888  0.46605086  0.97166086  1
  O  O26  1  0.29926014  0.83296954  0.97202632  1
  O  O27  1  0.52014341  0.83328615  0.47193376  1
  O  O28  1  0.31082936  0.46977014  0.47112056  1
  O  O29  1  0.15768419  0.68719104  0.47107524  1
  O  O30  1  0.12529301  0.62875861  0.36294531  1
  O  O31  1  0.49527819  0.86183817  0.36063774  1
  O  O32  1  0.36847611  0.49608641  0.36331098  1
  O  O33  1  0.13285340  0.50158018  0.86058131  1
  O  O34  1  0.36681272  0.86435315  0.86026208  1
  O  O35  1  0.49763591  0.63206216  0.86023302  1
  O  O36  1  0.02964308  0.82263307  0.41161871  1
  O  O37  1  0.80164319  0.97345115  0.41162389  1
  O  O38  1  0.18149186  0.20626362  0.41158144  1
  O  O39  1  0.02676233  0.19679319  0.90496696  1
  O  O40  1  0.16995874  0.97391898  0.90557224  1
  O  O41  1  0.80410489  0.83138366  0.90529060  1
  O  O42  1  0.97557672  0.16704756  0.59343711  1
  O  O43  1  0.19457661  0.02290193  0.59140954  1
  O  O44  1  0.82898067  0.80355142  0.59175762  1
  O  O45  1  0.97457249  0.80448124  0.09194261  1
  O  O46  1  0.82790596  0.02199234  0.09141399  1
  O  O47  1  0.19101699  0.16601206  0.09326726  1
  O  O48  1  0.69316525  0.15426739  0.74497178  1
  O  O49  1  0.46158034  0.30410538  0.74311588  1
  O  O50  1  0.84270012  0.54126968  0.74571947  1
  O  O51  1  0.68494961  0.53262492  0.24238873  1
  O  O52  1  0.84911212  0.31710375  0.23978684  1
  O  O53  1  0.46751575  0.14798459  0.24236856  1
  O  O54  1  0.63981570  0.50284556  0.92650304  1
  O  O55  1  0.86144187  0.36111130  0.92828600  1
  O  O56  1  0.49984998  0.13510715  0.92629688  1
  O  O57  1  0.62618388  0.13340547  0.42704489  1
  O  O58  1  0.50371718  0.37243874  0.42735835  1
  O  O59  1  0.86720173  0.50144994  0.42610124  1
  O  O60  1  0.35003004  0.49339233  0.07025343  1
  O  O61  1  0.13951293  0.65121673  0.07203723  1
  O  O62  1  0.50933708  0.86170097  0.07232372  1
  O  O63  1  0.34982435  0.86141313  0.57216565  1
  O  O64  1  0.51154344  0.64998069  0.57237013  1
  O  O65  1  0.14368327  0.49270292  0.56880132  1
  O  O66  1  0.29576759  0.82887383  0.25782041  1
  O  O67  1  0.53056943  0.69820215  0.25803665  1
  O  O68  1  0.16881820  0.46939227  0.25812049  1
  O  O69  1  0.29677122  0.46264076  0.75751593  1
  O  O70  1  0.16708743  0.70387739  0.75819560  1
  O  O71  1  0.53678022  0.83161459  0.75789695  1
loop_
_geom_bond_atom_site_label_1
_geom_bond_atom_site_label_2
_geom_bond_distance
_geom_bond_site_symmetry_2
O0 S0 1.457074 1_555
O0 Zn0 2.071751 1_455
O1 S1 1.459186 1_555
O1 Zn0 2.043040 1_565
O2 S2 1.457905 1_655
O2 Zn0 2.052763 1_555
O3 S3 1.480529 1_555
O3 Ti0 2.047551 1_555
O4 S4 1.487908 1_655
O4 Ti0 2.017924 1_665
O5 S5 1.482716 1_545
O5 Ti0 2.036758 1_655
O6 S5 1.511809 1_555
O6 Ti1 1.985045 1_565
O7 S3 1.513067 1_555
O7 Ti1 1.978822 1_455
O8 S4 1.494541 1_555
O8 Ti1 2.068567 1_465
O9 S1 1.493629 1_555
O9 Ti2 2.087714 1_665
O10 S2 1.528030 1_555
O10 Ti2 1.970568 1_555
O11 S0 1.508406 1_565
O11 Ti2 2.012519 1_565
O12 P0 1.497328 1_555
O12 Zn1 1.979853 1_555
O13 S6 1.454865 1_555
O13 Zn1 2.113781 1_555
O14 S7 1.454430 1_555
O14 Zn1 2.097961 1_555
O15 S8 1.449789 1_555
O15 Zn2 2.082289 1_555
O16 S9 1.450067 1_555
O16 Zn2 2.082624 1_555
O17 P1 1.490701 1_555
O17 Zn2 1.969100 1_555
O18 P1 1.560316 1_555
O18 Ti3 1.912870 1_554
O19 S8 1.484881 1_555
O19 Ti3 2.114972 1_554
O20 S9 1.484323 1_555
O20 Ti3 2.114717 1_554
O21 S6 1.485793 1_555
O21 Ti4 2.084535 1_555
O22 S7 1.474498 1_555
O22 Ti4 2.148186 1_555
O23 P0 1.572195 1_555
O23 Ti4 1.877373 1_555
O24 P2 1.529118 1_555
O24 Ti5 1.934223 1_556
O25 P3 1.534352 1_555
O25 Ti5 1.912175 1_556
O26 P4 1.518993 1_555
O26 Ti5 1.984879 1_556
O27 P5 1.546236 1_555
O27 Ti6 1.875957 1_555
O28 S10 1.501585 1_555
O28 Ti6 1.942514 1_555
O29 S11 1.487419 1_555
O29 Ti6 1.981316 1_555
O30 S11 1.480617 1_555
O30 Ti7 2.102557 1_555
O31 P5 1.558159 1_555
O31 Ti7 1.896878 1_555
O32 S10 1.483888 1_555
O32 Ti7 2.092558 1_555
O33 P3 1.553925 1_555
O33 Ti8 1.892042 1_555
O34 P4 1.551349 1_555
O34 Ti8 1.892545 1_555
O35 P2 1.547139 1_555
O35 Ti8 1.910318 1_555
O36 S11 1.442439 1_555
O36 Zn0 2.105076 1_465
O37 P5 1.492964 1_555
O37 Zn0 1.986239 1_565
O38 S10 1.448103 1_555
O38 Zn0 2.092965 1_455
O39 P3 1.546538 1_555
O39 Ti0 1.876790 1_555
O40 P4 1.546555 1_555
O40 Ti0 1.873111 1_565
O41 P2 1.544148 1_555
O41 Ti0 1.874488 1_665
O42 P0 1.576237 1_555
O42 Ti1 1.852926 1_555
O43 S6 1.504359 1_555
O43 Ti1 1.977276 1_455
O44 S7 1.505025 1_555
O44 Ti1 1.980684 1_565
O45 S8 1.502398 1_555
O45 Ti2 2.005342 1_665
O46 S9 1.510046 1_555
O46 Ti2 1.973168 1_655
O47 P1 1.576142 1_555
O47 Ti2 1.854844 1_555
O48 S5 1.452075 1_545
O48 Zn1 2.099415 1_555
O49 S3 1.452433 1_555
O49 Zn1 2.104848 1_555
O50 S4 1.455407 1_655
O50 Zn1 2.084457 1_555
O51 S1 1.442451 1_555
O51 Zn2 2.056116 1_555
O52 S2 1.443904 1_655
O52 Zn2 2.070982 1_555
O53 S0 1.442470 1_555
O53 Zn2 2.083239 1_555
O54 P2 1.542704 1_555
O54 Ti3 1.894363 1_555
O55 P3 1.527806 1_655
O55 Ti3 1.951714 1_555
O56 P4 1.546149 1_545
O56 Ti3 1.882945 1_555
O57 P5 1.577651 1_545
O57 Ti4 1.831710 1_555
O58 S10 1.490876 1_555
O58 Ti4 2.025769 1_555
O59 S11 1.512309 1_655
O59 Ti4 1.937828 1_555
O60 P1 1.549488 1_555
O60 Ti5 1.875521 1_555
O61 S8 1.491302 1_455
O61 Ti5 1.980012 1_555
O62 S9 1.483808 1_565
O62 Ti5 2.002811 1_555
O63 S6 1.485223 1_565
O63 Ti6 1.990975 1_555
O64 S7 1.494665 1_555
O64 Ti6 1.952548 1_555
O65 P0 1.537780 1_455
O65 Ti6 1.905705 1_555
O66 S0 1.531630 1_565
O66 Ti7 1.911427 1_555
O67 S1 1.541982 1_555
O67 Ti7 1.887871 1_555
O68 S2 1.509008 1_555
O68 Ti7 1.989195 1_555
O69 S3 1.488068 1_555
O69 Ti8 2.050924 1_555
O70 S4 1.497130 1_555
O70 Ti8 2.021751 1_555
O71 S5 1.487327 1_555
O71 Ti8 2.054190 1_555
