# generated using pymatgen
data_MgCu3(GeO3)4
_symmetry_space_group_name_H-M   'P 1'
_cell_length_a   6.30012114
_cell_length_b   6.30014124
_cell_length_c   6.30010500
_cell_angle_alpha   109.46993665
_cell_angle_beta   109.47346253
_cell_angle_gamma   109.47075807
_symmetry_Int_Tables_number   1
_chemical_formula_structural   MgCu3(GeO3)4
_chemical_formula_sum   'Mg1 Cu3 Ge4 O12'
_cell_volume   192.49631837
_cell_formula_units_Z   1
loop_
 _symmetry_equiv_pos_site_id
 _symmetry_equiv_pos_as_xyz
  1  'x, y, z'
loop_
 _atom_site_type_symbol
 _atom_site_label
 _atom_site_symmetry_multiplicity
 _atom_site_fract_x
 _atom_site_fract_y
 _atom_site_fract_z
 _atom_site_occupancy
  Mg  Mg0  1  0.99999700  0.99999500  0.00000100  1
  Cu  Cu0  1  0.49999800  0.50000000  0.99999800  1
  Cu  Cu1  1  0.99999400  0.49999700  0.49999900  1
  Cu  Cu2  1  0.49999600  0.00000300  0.49999700  1
  Ge  Ge0  1  0.50000000  0.50000200  0.50000100  1
  Ge  Ge1  1  0.00000100  0.49999900  0.00000100  1
  Ge  Ge2  1  0.00000000  0.00000000  0.50000100  1
  Ge  Ge3  1  0.50000100  0.00000000  0.99999900  1
  O  O0  1  0.81936600  0.29789800  0.11726400  1
  O  O1  1  0.18063500  0.70210300  0.88273800  1
  O  O2  1  0.81936600  0.70210400  0.52146900  1
  O  O3  1  0.29772400  0.47831000  0.18058600  1
  O  O4  1  0.47815600  0.18047000  0.29768400  1
  O  O5  1  0.11722000  0.81952800  0.29768700  1
  O  O6  1  0.70227800  0.88286200  0.18058400  1
  O  O7  1  0.52184400  0.81953300  0.70231400  1
  O  O8  1  0.18063900  0.29789900  0.47853500  1
  O  O9  1  0.70227900  0.52169200  0.81941500  1
  O  O10  1  0.88278000  0.18047000  0.70231000  1
  O  O11  1  0.29772400  0.11713900  0.81941600  1
loop_
_geom_bond_atom_site_label_1
_geom_bond_atom_site_label_2
_geom_bond_distance
_geom_bond_site_symmetry_2
Mg0 O7 2.532415 1_554
Mg0 O4 2.532424 1_665
Mg0 O5 2.532427 1_655
Mg0 O10 2.532485 1_564
Mg0 O6 2.533129 1_555
Mg0 O9 2.533129 1_554
Mg0 O11 2.533193 1_664
Mg0 O3 2.533202 1_665
Mg0 O2 2.534406 1_554
Mg0 O8 2.534419 1_665
Mg0 O1 2.534423 1_654
Mg0 O0 2.534443 1_565
Cu0 O11 1.972627 1_555
Cu0 O6 1.972632 1_556
Cu0 O3 1.972634 1_556
Cu0 O9 1.972645 1_555
Cu1 O0 1.971877 1_555
Cu1 O1 1.971896 1_655
Cu1 O2 1.971897 1_555
Cu1 O8 1.971936 1_655
Cu2 O5 1.972179 1_545
Cu2 O4 1.972214 1_555
Cu2 O10 1.972224 1_555
Cu2 O7 1.972252 1_545
Ge0 O3 1.919104 1_555
Ge0 O9 1.919111 1_555
Ge0 O8 1.919284 1_555
Ge0 O2 1.919301 1_555
Ge0 O7 1.919361 1_555
Ge0 O4 1.919373 1_555
Ge1 O3 1.919100 1_555
Ge1 O9 1.919112 1_454
Ge1 O0 1.919299 1_455
Ge1 O1 1.919307 1_554
Ge1 O5 1.919340 1_555
Ge1 O10 1.919352 1_454
Ge2 O11 1.919102 1_555
Ge2 O6 1.919105 1_445
Ge2 O2 1.919296 1_445
Ge2 O8 1.919312 1_555
Ge2 O10 1.919359 1_455
Ge2 O5 1.919384 1_545
Ge3 O11 1.919114 1_555
Ge3 O6 1.919115 1_546
Ge3 O0 1.919292 1_556
Ge3 O1 1.919300 1_545
Ge3 O7 1.919338 1_545
Ge3 O4 1.919351 1_556
