# generated using pymatgen
data_NaMgFe5O8
_symmetry_space_group_name_H-M   'P 1'
_cell_length_a   6.07454786
_cell_length_b   6.07454779
_cell_length_c   6.38679057
_cell_angle_alpha   62.72535159
_cell_angle_beta   89.36539679
_cell_angle_gamma   120.43400145
_symmetry_Int_Tables_number   1
_chemical_formula_structural   NaMgFe5O8
_chemical_formula_sum   'Na1 Mg1 Fe5 O8'
_cell_volume   171.27282870
_cell_formula_units_Z   1
loop_
 _symmetry_equiv_pos_site_id
 _symmetry_equiv_pos_as_xyz
  1  'x, y, z'
loop_
 _atom_site_type_symbol
 _atom_site_label
 _atom_site_symmetry_multiplicity
 _atom_site_fract_x
 _atom_site_fract_y
 _atom_site_fract_z
 _atom_site_occupancy
  Na  Na0  1  0.62500000  0.75000000  0.62500000  1
  Mg  Mg0  1  0.12500000  0.25000000  0.62500000  1
  Fe  Fe0  1  0.62500000  0.25000000  0.12500000  1
  Fe  Fe1  1  0.99251100  0.90543100  0.10205900  1
  Fe  Fe2  1  0.62500000  0.25000000  0.62500000  1
  Fe  Fe3  1  0.25748900  0.59456900  0.14794100  1
  Fe  Fe4  1  0.12500000  0.75000000  0.62500000  1
  O  O0  1  0.86300000  0.26799200  0.36598800  1
  O  O1  1  0.36446400  0.23684200  0.39869200  1
  O  O2  1  0.88553600  0.26315800  0.85130800  1
  O  O3  1  0.86258400  0.68653000  0.45088600  1
  O  O4  1  0.88398000  0.72898700  0.88401200  1
  O  O5  1  0.38700000  0.23200800  0.88401200  1
  O  O6  1  0.36602000  0.77101300  0.36598800  1
  O  O7  1  0.38741600  0.81347000  0.79911400  1
loop_
_geom_bond_atom_site_label_1
_geom_bond_atom_site_label_2
_geom_bond_distance
_geom_bond_site_symmetry_2
Na0 O7 2.095053 1_555
Na0 O3 2.095053 1_555
Na0 O0 2.301153 1_565
Na0 O5 2.301153 1_555
Na0 O6 2.301158 1_555
Na0 O4 2.301158 1_555
Mg0 O2 2.094894 1_455
Mg0 O1 2.094894 1_555
Mg0 O5 2.313075 1_555
Mg0 O0 2.313075 1_455
Mg0 O4 2.313075 1_445
Mg0 O6 2.313075 1_555
Fe0 O4 2.124716 1_554
Fe0 O6 2.124716 1_545
Fe0 O5 2.124724 1_554
Fe0 O0 2.124724 1_555
Fe0 O1 2.291112 1_555
Fe0 O2 2.291112 1_554
Fe1 O3 1.880754 1_555
Fe1 O5 2.048234 1_664
Fe1 O4 2.048246 1_554
Fe1 O2 2.444011 1_564
Fe2 O7 1.932834 1_545
Fe2 O3 1.932834 1_555
Fe2 O5 2.111851 1_555
Fe2 O0 2.111851 1_555
Fe2 O2 2.151432 1_555
Fe2 O1 2.151432 1_555
Fe3 O7 1.880754 1_554
Fe3 O0 2.048234 1_455
Fe3 O6 2.048246 1_555
Fe3 O1 2.444011 1_555
Fe4 O3 1.932838 1_455
Fe4 O7 1.932838 1_555
Fe4 O4 2.111847 1_455
Fe4 O6 2.111847 1_555
Fe4 O2 2.151420 1_455
Fe4 O1 2.151420 1_565
