# generated using pymatgen
data_NaAuSe2
_symmetry_space_group_name_H-M   'P 1'
_cell_length_a   6.78745084
_cell_length_b   6.98773112
_cell_length_c   8.45412252
_cell_angle_alpha   90.00000000
_cell_angle_beta   90.00000000
_cell_angle_gamma   104.93045804
_symmetry_Int_Tables_number   1
_chemical_formula_structural   NaAuSe2
_chemical_formula_sum   'Na4 Au4 Se8'
_cell_volume   387.43254248
_cell_formula_units_Z   4
loop_
 _symmetry_equiv_pos_site_id
 _symmetry_equiv_pos_as_xyz
  1  'x, y, z'
loop_
 _atom_site_type_symbol
 _atom_site_label
 _atom_site_symmetry_multiplicity
 _atom_site_fract_x
 _atom_site_fract_y
 _atom_site_fract_z
 _atom_site_occupancy
  Na  Na0  1  0.98727739  0.27034422  0.13181910  1
  Na  Na1  1  0.51272261  0.72965578  0.63181910  1
  Na  Na2  1  0.01272261  0.72965578  0.86818090  1
  Na  Na3  1  0.48727739  0.27034422  0.36818090  1
  Au  Au0  1  0.50692554  0.21724206  0.86885588  1
  Au  Au1  1  0.99307446  0.78275794  0.36885588  1
  Au  Au2  1  0.49307446  0.78275794  0.13114412  1
  Au  Au3  1  0.00692554  0.21724206  0.63114412  1
  Se  Se0  1  0.21395466  0.98115081  0.57652384  1
  Se  Se1  1  0.28604534  0.01884919  0.07652384  1
  Se  Se2  1  0.78604534  0.01884919  0.42347616  1
  Se  Se3  1  0.71395466  0.98115081  0.92347616  1
  Se  Se4  1  0.24786500  0.41530074  0.83095887  1
  Se  Se5  1  0.25213500  0.58469926  0.33095887  1
  Se  Se6  1  0.75213500  0.58469926  0.16904113  1
  Se  Se7  1  0.74786500  0.41530074  0.66904113  1
loop_
_geom_bond_atom_site_label_1
_geom_bond_atom_site_label_2
_geom_bond_distance
_geom_bond_site_symmetry_2
Na0 Se3 2.948877 1_544
Na0 Se5 2.975977 1_655
Na0 Se1 3.042294 1_655
Na0 Se6 3.045983 1_555
Na0 Se4 3.114586 1_654
Na0 Se2 3.129979 1_555
Na1 Se2 2.948877 1_565
Na1 Se4 2.975977 1_555
Na1 Se0 3.042294 1_555
Na1 Se7 3.045983 1_555
Na1 Se5 3.114586 1_555
Na1 Se3 3.129979 1_555
Na2 Se1 2.948877 1_566
Na2 Se7 2.975977 1_455
Na2 Se3 3.042294 1_455
Na2 Se4 3.045983 1_555
Na2 Se6 3.114586 1_456
Na2 Se0 3.129979 1_555
Na3 Se0 2.948877 1_545
Na3 Se6 2.975977 1_555
Na3 Se2 3.042294 1_555
Na3 Se5 3.045983 1_555
Na3 Se7 3.114586 1_555
Na3 Se1 3.129979 1_555
Au0 Se3 2.470633 1_545
Au0 Se1 2.486131 1_556
Au0 Se7 2.505423 1_555
Au0 Se4 2.522671 1_555
Au1 Se2 2.470633 1_565
Au1 Se0 2.486131 1_655
Au1 Se6 2.505423 1_555
Au1 Se5 2.522671 1_655
Au2 Se1 2.470633 1_565
Au2 Se3 2.486131 1_554
Au2 Se5 2.505423 1_555
Au2 Se6 2.522671 1_555
Au3 Se0 2.470633 1_545
Au3 Se2 2.486131 1_455
Au3 Se4 2.505423 1_555
Au3 Se7 2.522671 1_455
