# generated using pymatgen
data_LaB2Ru3
_symmetry_space_group_name_H-M   'P 1'
_cell_length_a   11.16204860
_cell_length_b   11.16205034
_cell_length_c   6.04669146
_cell_angle_alpha   90.00000000
_cell_angle_beta   90.00000000
_cell_angle_gamma   119.99999483
_symmetry_Int_Tables_number   1
_chemical_formula_structural   LaB2Ru3
_chemical_formula_sum   'La8 B16 Ru24'
_cell_volume   652.43364550
_cell_formula_units_Z   8
loop_
 _symmetry_equiv_pos_site_id
 _symmetry_equiv_pos_as_xyz
  1  'x, y, z'
loop_
 _atom_site_type_symbol
 _atom_site_label
 _atom_site_symmetry_multiplicity
 _atom_site_fract_x
 _atom_site_fract_y
 _atom_site_fract_z
 _atom_site_occupancy
  La  La0_0  1  0.00000000  0.00000000  0.00000000  1
  La  La0_1  1  0.00000000  0.00000000  0.50000000  1
  La  La0_2  1  0.00000000  0.50000000  0.00000000  1
  La  La0_3  1  0.00000000  0.50000000  0.50000000  1
  La  La0_4  1  0.50000000  0.00000000  0.00000000  1
  La  La0_5  1  0.50000000  0.00000000  0.50000000  1
  La  La0_6  1  0.50000000  0.50000000  0.00000000  1
  La  La0_7  1  0.50000000  0.50000000  0.50000000  1
  B  B0_0  1  0.33333350  0.16666650  0.00000000  1
  B  B0_1  1  0.33333350  0.16666650  0.50000000  1
  B  B0_2  1  0.33333350  0.66666650  0.00000000  1
  B  B0_3  1  0.33333350  0.66666650  0.50000000  1
  B  B0_4  1  0.83333350  0.16666650  0.00000000  1
  B  B0_5  1  0.83333350  0.16666650  0.50000000  1
  B  B0_6  1  0.83333350  0.66666650  0.00000000  1
  B  B0_7  1  0.83333350  0.66666650  0.50000000  1
  B  B1_0  1  0.16666650  0.33333350  0.00000000  1
  B  B1_1  1  0.16666650  0.33333350  0.50000000  1
  B  B1_2  1  0.16666650  0.83333350  0.00000000  1
  B  B1_3  1  0.16666650  0.83333350  0.50000000  1
  B  B1_4  1  0.66666650  0.33333350  0.00000000  1
  B  B1_5  1  0.66666650  0.33333350  0.50000000  1
  B  B1_6  1  0.66666650  0.83333350  0.00000000  1
  B  B1_7  1  0.66666650  0.83333350  0.50000000  1
  Ru  Ru0_0  1  0.25000000  0.00000000  0.25000000  1
  Ru  Ru0_1  1  0.25000000  0.00000000  0.75000000  1
  Ru  Ru0_2  1  0.25000000  0.50000000  0.25000000  1
  Ru  Ru0_3  1  0.25000000  0.50000000  0.75000000  1
  Ru  Ru0_4  1  0.75000000  0.00000000  0.25000000  1
  Ru  Ru0_5  1  0.75000000  0.00000000  0.75000000  1
  Ru  Ru0_6  1  0.75000000  0.50000000  0.25000000  1
  Ru  Ru0_7  1  0.75000000  0.50000000  0.75000000  1
  Ru  Ru1_0  1  0.00000000  0.25000000  0.25000000  1
  Ru  Ru1_1  1  0.00000000  0.25000000  0.75000000  1
  Ru  Ru1_2  1  1.00000000  0.75000000  0.25000000  1
  Ru  Ru1_3  1  1.00000000  0.75000000  0.75000000  1
  Ru  Ru1_4  1  0.50000000  0.25000000  0.25000000  1
  Ru  Ru1_5  1  0.50000000  0.25000000  0.75000000  1
  Ru  Ru1_6  1  0.50000000  0.75000000  0.25000000  1
  Ru  Ru1_7  1  0.50000000  0.75000000  0.75000000  1
  Ru  Ru2_0  1  0.25000000  0.25000000  0.25000000  1
  Ru  Ru2_1  1  0.25000000  0.25000000  0.75000000  1
  Ru  Ru2_2  1  0.25000000  0.75000000  0.25000000  1
  Ru  Ru2_3  1  0.25000000  0.75000000  0.75000000  1
  Ru  Ru2_4  1  0.75000000  0.25000000  0.25000000  1
  Ru  Ru2_5  1  0.75000000  0.25000000  0.75000000  1
  Ru  Ru2_6  1  0.75000000  0.75000000  0.25000000  1
  Ru  Ru2_7  1  0.75000000  0.75000000  0.75000000  1
loop_
_geom_bond_atom_site_label_1
_geom_bond_atom_site_label_2
_geom_bond_distance
_geom_bond_site_symmetry_2
La0_0 La0_1 3.023346 1_554
La0_0 La0_1 3.023346 1_555
La0_0 Ru0_4 3.173659 1_455
La0_0 Ru0_5 3.173659 1_454
La0_0 Ru0_0 3.173659 1_555
La0_0 Ru0_1 3.173659 1_554
La0_0 Ru1_0 3.173660 1_555
La0_0 Ru1_1 3.173660 1_554
La0_0 Ru2_0 3.173660 1_555
La0_0 Ru2_1 3.173660 1_554
La0_0 Ru1_3 3.173660 1_444
La0_0 Ru2_7 3.173660 1_444
La0_0 Ru2_6 3.173660 1_445
La0_0 Ru1_2 3.173660 1_445
La0_1 Ru0_5 3.173659 1_455
La0_1 Ru0_4 3.173659 1_455
La0_1 Ru0_1 3.173659 1_555
La0_1 Ru0_0 3.173659 1_555
La0_1 Ru1_0 3.173660 1_555
La0_1 Ru1_1 3.173660 1_555
La0_1 Ru2_1 3.173660 1_555
La0_1 Ru2_0 3.173660 1_555
La0_1 Ru1_3 3.173660 1_445
La0_1 Ru2_7 3.173660 1_445
La0_1 Ru2_6 3.173660 1_445
La0_1 Ru1_2 3.173660 1_445
La0_2 La0_3 3.023346 1_555
La0_2 La0_3 3.023346 1_554
La0_2 Ru0_2 3.173659 1_555
La0_2 Ru0_3 3.173659 1_554
La0_2 Ru0_7 3.173659 1_454
La0_2 Ru0_6 3.173659 1_455
La0_2 Ru1_3 3.173660 1_454
La0_2 Ru2_2 3.173660 1_555
La0_2 Ru1_2 3.173660 1_455
La0_2 Ru2_3 3.173660 1_554
La0_2 Ru1_0 3.173660 1_555
La0_2 Ru1_1 3.173660 1_554
La0_2 Ru2_4 3.173660 1_455
La0_2 Ru2_5 3.173660 1_454
La0_3 Ru0_2 3.173659 1_555
La0_3 Ru0_7 3.173659 1_455
La0_3 Ru0_3 3.173659 1_555
La0_3 Ru0_6 3.173659 1_455
La0_3 Ru2_2 3.173660 1_555
La0_3 Ru1_2 3.173660 1_455
La0_3 Ru2_3 3.173660 1_555
La0_3 Ru1_3 3.173660 1_455
La0_3 Ru1_0 3.173660 1_555
La0_3 Ru1_1 3.173660 1_555
La0_3 Ru2_5 3.173660 1_455
La0_3 Ru2_4 3.173660 1_455
La0_4 La0_5 3.023346 1_555
La0_4 La0_5 3.023346 1_554
La0_4 Ru0_0 3.173659 1_555
La0_4 Ru0_1 3.173659 1_554
La0_4 Ru0_5 3.173659 1_554
La0_4 Ru0_4 3.173659 1_555
La0_4 Ru1_5 3.173660 1_554
La0_4 Ru2_4 3.173660 1_555
La0_4 Ru2_5 3.173660 1_554
La0_4 Ru1_4 3.173660 1_555
La0_4 Ru2_3 3.173660 1_544
La0_4 Ru2_2 3.173660 1_545
La0_4 Ru1_6 3.173660 1_545
La0_4 Ru1_7 3.173660 1_544
La0_5 Ru0_1 3.173659 1_555
La0_5 Ru0_0 3.173659 1_555
La0_5 Ru0_5 3.173659 1_555
La0_5 Ru0_4 3.173659 1_555
La0_5 Ru2_5 3.173660 1_555
La0_5 Ru2_4 3.173660 1_555
La0_5 Ru1_5 3.173660 1_555
La0_5 Ru1_4 3.173660 1_555
La0_5 Ru2_2 3.173660 1_545
La0_5 Ru2_3 3.173660 1_545
La0_5 Ru1_6 3.173660 1_545
La0_5 Ru1_7 3.173660 1_545
La0_6 La0_7 3.023346 1_555
La0_6 La0_7 3.023346 1_554
La0_6 Ru0_2 3.173659 1_555
La0_6 Ru0_3 3.173659 1_554
La0_6 Ru0_6 3.173659 1_555
La0_6 Ru0_7 3.173659 1_554
La0_6 Ru1_6 3.173660 1_555
La0_6 Ru2_6 3.173660 1_555
La0_6 Ru1_7 3.173660 1_554
La0_6 Ru2_7 3.173660 1_554
La0_6 Ru1_5 3.173660 1_554
La0_6 Ru2_0 3.173660 1_555
La0_6 Ru2_1 3.173660 1_554
La0_6 Ru1_4 3.173660 1_555
La0_7 Ru0_2 3.173659 1_555
La0_7 Ru0_7 3.173659 1_555
La0_7 Ru0_6 3.173659 1_555
La0_7 Ru0_3 3.173659 1_555
La0_7 Ru2_7 3.173660 1_555
La0_7 Ru1_6 3.173660 1_555
La0_7 Ru2_6 3.173660 1_555
La0_7 Ru1_7 3.173660 1_555
La0_7 Ru2_1 3.173660 1_555
La0_7 Ru2_0 3.173660 1_555
La0_7 Ru1_5 3.173660 1_555
La0_7 Ru1_4 3.173660 1_555
B0_0 Ru1_4 2.209254 1_555
B0_0 Ru1_5 2.209254 1_554
B0_0 Ru0_1 2.209254 1_554
B0_0 Ru0_0 2.209254 1_555
B0_0 Ru2_0 2.209257 1_555
B0_0 Ru2_1 2.209257 1_554
B0_0 La0_4 3.222203 1_555
B0_0 La0_0 3.222208 1_555
B0_0 La0_6 3.222208 1_555
B0_1 Ru1_5 2.209254 1_555
B0_1 Ru1_4 2.209254 1_555
B0_1 Ru0_0 2.209254 1_555
B0_1 Ru0_1 2.209254 1_555
B0_1 Ru2_1 2.209257 1_555
B0_1 Ru2_0 2.209257 1_555
B0_1 La0_5 3.222203 1_555
B0_1 La0_1 3.222208 1_555
B0_1 La0_7 3.222208 1_555
B0_2 Ru1_7 2.209254 1_554
B0_2 Ru1_6 2.209254 1_555
B0_2 Ru0_3 2.209254 1_554
B0_2 Ru0_2 2.209254 1_555
B0_2 Ru2_3 2.209257 1_554
B0_2 Ru2_2 2.209257 1_555
B0_2 La0_6 3.222203 1_555
B0_2 La0_2 3.222208 1_555
B0_2 La0_4 3.222208 1_565
B0_3 Ru1_7 2.209254 1_555
B0_3 Ru1_6 2.209254 1_555
B0_3 Ru0_3 2.209254 1_555
B0_3 Ru0_2 2.209254 1_555
B0_3 Ru2_2 2.209257 1_555
B0_3 Ru2_3 2.209257 1_555
B0_3 La0_7 3.222203 1_555
B0_3 La0_3 3.222208 1_555
B0_3 La0_5 3.222208 1_565
B0_4 Ru1_0 2.209254 1_655
B0_4 Ru1_1 2.209254 1_654
B0_4 Ru0_5 2.209254 1_554
B0_4 Ru0_4 2.209254 1_555
B0_4 Ru2_5 2.209257 1_554
B0_4 Ru2_4 2.209257 1_555
B0_4 La0_0 3.222203 1_655
B0_4 La0_4 3.222208 1_555
B0_4 La0_2 3.222208 1_655
B0_5 Ru1_0 2.209254 1_655
B0_5 Ru1_1 2.209254 1_655
B0_5 Ru0_5 2.209254 1_555
B0_5 Ru0_4 2.209254 1_555
B0_5 Ru2_5 2.209257 1_555
B0_5 Ru2_4 2.209257 1_555
B0_5 La0_1 3.222203 1_655
B0_5 La0_5 3.222208 1_555
B0_5 La0_3 3.222208 1_655
B0_6 Ru1_3 2.209254 1_554
B0_6 Ru1_2 2.209254 1_555
B0_6 Ru0_7 2.209254 1_554
B0_6 Ru0_6 2.209254 1_555
B0_6 Ru2_7 2.209257 1_554
B0_6 Ru2_6 2.209257 1_555
B0_6 La0_2 3.222203 1_655
B0_6 La0_6 3.222208 1_555
B0_6 La0_0 3.222208 1_665
B0_7 Ru1_2 2.209254 1_555
B0_7 Ru1_3 2.209254 1_555
B0_7 Ru0_7 2.209254 1_555
B0_7 Ru0_6 2.209254 1_555
B0_7 Ru2_6 2.209257 1_555
B0_7 Ru2_7 2.209257 1_555
B0_7 La0_3 3.222203 1_655
B0_7 La0_7 3.222208 1_555
B0_7 La0_1 3.222208 1_665
B1_0 Ru1_1 2.209254 1_554
B1_0 Ru1_0 2.209254 1_555
B1_0 Ru0_2 2.209254 1_555
B1_0 Ru0_3 2.209254 1_554
B1_0 Ru2_0 2.209257 1_555
B1_0 Ru2_1 2.209257 1_554
B1_0 La0_2 3.222203 1_555
B1_0 La0_6 3.222208 1_555
B1_0 La0_0 3.222208 1_555
B1_1 Ru1_0 2.209254 1_555
B1_1 Ru1_1 2.209254 1_555
B1_1 Ru0_2 2.209254 1_555
B1_1 Ru0_3 2.209254 1_555
B1_1 Ru2_0 2.209257 1_555
B1_1 Ru2_1 2.209257 1_555
B1_1 La0_3 3.222203 1_555
B1_1 La0_7 3.222208 1_555
B1_1 La0_1 3.222208 1_555
B1_2 Ru1_2 2.209254 1_455
B1_2 Ru1_3 2.209254 1_454
B1_2 Ru0_1 2.209254 1_564
B1_2 Ru0_0 2.209254 1_565
B1_2 Ru2_3 2.209257 1_554
B1_2 Ru2_2 2.209257 1_555
B1_2 La0_0 3.222203 1_565
B1_2 La0_4 3.222208 1_565
B1_2 La0_2 3.222208 1_555
B1_3 Ru1_3 2.209254 1_455
B1_3 Ru1_2 2.209254 1_455
B1_3 Ru0_0 2.209254 1_565
B1_3 Ru0_1 2.209254 1_565
B1_3 Ru2_3 2.209257 1_555
B1_3 Ru2_2 2.209257 1_555
B1_3 La0_1 3.222203 1_565
B1_3 La0_5 3.222208 1_565
B1_3 La0_3 3.222208 1_555
B1_4 Ru1_4 2.209254 1_555
B1_4 Ru1_5 2.209254 1_554
B1_4 Ru0_7 2.209254 1_554
B1_4 Ru0_6 2.209254 1_555
B1_4 Ru2_5 2.209257 1_554
B1_4 Ru2_4 2.209257 1_555
B1_4 La0_6 3.222203 1_555
B1_4 La0_2 3.222208 1_655
B1_4 La0_4 3.222208 1_555
B1_5 Ru1_4 2.209254 1_555
B1_5 Ru1_5 2.209254 1_555
B1_5 Ru0_6 2.209254 1_555
B1_5 Ru0_7 2.209254 1_555
B1_5 Ru2_5 2.209257 1_555
B1_5 Ru2_4 2.209257 1_555
B1_5 La0_7 3.222203 1_555
B1_5 La0_3 3.222208 1_655
B1_5 La0_5 3.222208 1_555
B1_6 Ru1_6 2.209254 1_555
B1_6 Ru1_7 2.209254 1_554
B1_6 Ru0_5 2.209254 1_564
B1_6 Ru0_4 2.209254 1_565
B1_6 Ru2_7 2.209257 1_554
B1_6 Ru2_6 2.209257 1_555
B1_6 La0_4 3.222203 1_565
B1_6 La0_0 3.222208 1_665
B1_6 La0_6 3.222208 1_555
B1_7 Ru1_6 2.209254 1_555
B1_7 Ru1_7 2.209254 1_555
B1_7 Ru0_5 2.209254 1_565
B1_7 Ru0_4 2.209254 1_565
B1_7 Ru2_6 2.209257 1_555
B1_7 Ru2_7 2.209257 1_555
B1_7 La0_5 3.222203 1_565
B1_7 La0_1 3.222208 1_665
B1_7 La0_7 3.222208 1_555
