# generated using pymatgen
data_Na8Ca2In2Si3(SO8)3
_symmetry_space_group_name_H-M   'P 1'
_cell_length_a   9.49779822
_cell_length_b   9.41972203
_cell_length_c   22.76278770
_cell_angle_alpha   91.77667272
_cell_angle_beta   90.20712336
_cell_angle_gamma   120.11057627
_symmetry_Int_Tables_number   1
_chemical_formula_structural   Na8Ca2In2Si3(SO8)3
_chemical_formula_sum   'Na24 Ca6 In6 Si9 S9 O72'
_cell_volume   1760.42098486
_cell_formula_units_Z   3
loop_
 _symmetry_equiv_pos_site_id
 _symmetry_equiv_pos_as_xyz
  1  'x, y, z'
loop_
 _atom_site_type_symbol
 _atom_site_label
 _atom_site_symmetry_multiplicity
 _atom_site_fract_x
 _atom_site_fract_y
 _atom_site_fract_z
 _atom_site_occupancy
  Na  Na0  1  0.64037187  0.01933007  0.26563994  1
  Na  Na1  1  0.34523721  0.33551899  0.25827106  1
  Na  Na2  1  0.00568230  0.62912463  0.23939469  1
  Na  Na3  1  0.62280385  0.63269295  0.72682058  1
  Na  Na4  1  0.99151468  0.34429445  0.73105717  1
  Na  Na5  1  0.38316493  0.02437816  0.74970420  1
  Na  Na6  1  0.30276824  0.34850944  0.59752491  1
  Na  Na7  1  0.01382026  0.67258935  0.58957881  1
  Na  Na8  1  0.67332683  0.96137753  0.57842560  1
  Na  Na9  1  0.28073930  0.94730903  0.08322744  1
  Na  Na10  1  0.68271308  0.69714858  0.08028572  1
  Na  Na11  1  0.02788282  0.34972737  0.10040638  1
  Na  Na12  1  0.99054156  0.68939984  0.91823811  1
  Na  Na13  1  0.67530646  0.02847208  0.89501199  1
  Na  Na14  1  0.33589537  0.28317955  0.90045057  1
  Na  Na15  1  0.94896550  0.28057170  0.41988944  1
  Na  Na16  1  0.34380873  0.03376206  0.40271536  1
  Na  Na17  1  0.69208376  0.68482661  0.43776088  1
  Na  Na18  1  0.97023327  0.99733235  0.50651132  1
  Na  Na19  1  0.02177834  0.98998976  0.99874860  1
  Na  Na20  1  0.64534267  0.32093658  0.82205259  1
  Na  Na21  1  0.66889108  0.31022958  0.33265896  1
  Na  Na22  1  0.30264842  0.66341736  0.17203581  1
  Na  Na23  1  0.34617611  0.65614642  0.66324344  1
  Ca  Ca0  1  -0.00217644  0.00154098  0.34868850  1
  Ca  Ca1  1  0.00129022  0.00604623  0.84467413  1
  Ca  Ca2  1  0.66769821  0.33174059  0.68161288  1
  Ca  Ca3  1  0.66969124  0.32855065  0.18488754  1
  Ca  Ca4  1  0.32622297  0.67311646  0.01500732  1
  Ca  Ca5  1  0.33835335  0.66720348  0.51796499  1
  In  In0  1  0.98848119  0.01020779  0.65200866  1
  In  In1  1  0.01345347  0.00037899  0.15710817  1
  In  In2  1  0.67093186  0.33602760  0.98458442  1
  In  In3  1  0.67834997  0.33042771  0.49067018  1
  In  In4  1  0.33474548  0.67855132  0.31585008  1
  In  In5  1  0.34478355  0.68228674  0.81318988  1
  Si  Si0  1  0.30645397  0.99454503  0.25187611  1
  Si  Si1  1  0.00848751  0.30711894  0.25167578  1
  Si  Si2  1  0.30252642  0.30942962  0.75435898  1
  Si  Si3  1  0.68751591  0.99260270  0.75280541  1
  Si  Si4  1  0.97709142  0.33140010  0.58436004  1
  Si  Si5  1  0.67635735  0.64023417  0.58427129  1
  Si  Si6  1  0.96467922  0.64062876  0.08542228  1
  Si  Si7  1  0.33805538  0.97621815  0.92340393  1
  Si  Si8  1  0.63424858  0.97534720  0.41962099  1
  S  S0  1  0.68982451  0.70103977  0.24728696  1
  S  S1  1  0.00720971  0.69974348  0.75245564  1
  S  S2  1  0.35401739  0.03456999  0.58161471  1
  S  S3  1  0.67928177  0.03115164  0.08118291  1
  S  S4  1  0.36230720  0.33033955  0.08214999  1
  S  S5  1  0.63467649  0.65868212  0.91994088  1
  S  S6  1  0.02355281  0.36427557  0.91908860  1
  S  S7  1  0.34470530  0.36939214  0.41345797  1
  S  S8  1  0.02478922  0.65856664  0.41526051  1
  O  O0  1  0.21380020  0.00647067  0.30949389  1
  O  O1  1  0.78840218  0.78057875  0.30029518  1
  O  O2  1  0.97756033  0.19286202  0.30662210  1
  O  O3  1  0.22561101  0.20486959  0.81241853  1
  O  O4  1  0.00074939  0.77739874  0.80913818  1
  O  O5  1  0.77710539  -0.00491865  0.81391976  1
  O  O6  1  0.78023052  0.96442655  0.69615463  1
  O  O7  1  0.18717794  0.21212747  0.69505100  1
  O  O8  1  0.02156399  0.80123995  0.70155090  1
  O  O9  1  0.77046734  0.79655357  0.19347891  1
  O  O10  1  0.03019925  0.21837047  0.18872604  1
  O  O11  1  0.19997933  0.97113590  0.18958046  1
  O  O12  1  0.88499831  0.34563872  0.64168740  1
  O  O13  1  0.45165194  0.11230646  0.63532037  1
  O  O14  1  0.64974593  0.52929056  0.63986776  1
  O  O15  1  0.87435551  0.53539893  0.14157070  1
  O  O16  1  0.65480172  0.10823816  0.13432615  1
  O  O17  1  0.45253755  0.33830353  0.13578818  1
  O  O18  1  0.44673654  0.31674500  0.02826879  1
  O  O19  1  0.84901892  0.55435799  0.02352115  1
  O  O20  1  0.68831792  0.12587439  0.02805568  1
  O  O21  1  0.43653125  0.13147741  0.52854909  1
  O  O22  1  0.69241505  0.54673287  0.52183785  1
  O  O23  1  0.86940719  0.30715455  0.52252759  1
  O  O24  1  0.55833372  0.66607334  0.97568986  1
  O  O25  1  0.11263011  0.44169742  0.97501940  1
  O  O26  1  0.32398507  0.88619648  0.98437833  1
  O  O27  1  0.54615176  0.87017357  0.47587768  1
  O  O28  1  0.33405995  0.45606323  0.46627266  1
  O  O29  1  0.11873333  0.66806259  0.46790831  1
  O  O30  1  0.10697033  0.64523843  0.36064219  1
  O  O31  1  0.52250370  0.88810170  0.35748626  1
  O  O32  1  0.35084180  0.45988081  0.35924556  1
  O  O33  1  0.11126162  0.46426162  0.86831653  1
  O  O34  1  0.36637148  0.87802175  0.86623994  1
  O  O35  1  0.53188257  0.64733197  0.86868722  1
  O  O36  1  0.00617788  0.80646347  0.41432907  1
  O  O37  1  0.81634014  0.99579735  0.41727131  1
  O  O38  1  0.20090295  0.20086618  0.41203178  1
  O  O39  1  -0.00362129  0.19515092  0.91545860  1
  O  O40  1  0.17596014  0.99425213  0.91721849  1
  O  O41  1  0.80160423  0.80367880  0.91806982  1
  O  O42  1  0.99495103  0.16496791  0.58338490  1
  O  O43  1  0.19275309  0.02484118  0.58395437  1
  O  O44  1  0.85589519  0.81574819  0.58596286  1
  O  O45  1  0.97837699  0.82710093  0.08570767  1
  O  O46  1  0.83602822  0.02894725  0.08391713  1
  O  O47  1  0.19507127  0.18091073  0.08037568  1
  O  O48  1  0.67141856  0.15741152  0.75043896  1
  O  O49  1  0.48888587  0.34607363  0.74927630  1
  O  O50  1  0.86059988  0.53474533  0.74819929  1
  O  O51  1  0.66149720  0.53113931  0.24240207  1
  O  O52  1  0.85851820  0.34460179  0.24774305  1
  O  O53  1  0.48822872  0.15875260  0.25104934  1
  O  O54  1  0.64745429  0.50451899  0.91630099  1
  O  O55  1  0.85884840  0.35497764  0.91859981  1
  O  O56  1  0.51059587  0.16347541  0.92154289  1
  O  O57  1  0.64351246  0.16007825  0.41934046  1
  O  O58  1  0.49702552  0.35881283  0.41409616  1
  O  O59  1  0.85868892  0.50805414  0.41412275  1
  O  O60  1  0.34743766  0.48051836  0.08021798  1
  O  O61  1  0.14575762  0.65770261  0.08351849  1
  O  O62  1  0.54287740  0.85787043  0.07676035  1
  O  O63  1  0.32670523  0.86481025  0.57663818  1
  O  O64  1  0.52540129  0.67648424  0.58150545  1
  O  O65  1  0.15837678  0.49589088  0.58340278  1
  O  O66  1  0.32177387  0.82643879  0.24952067  1
  O  O67  1  0.52836979  0.69203011  0.24930540  1
  O  O68  1  0.18723090  0.48402409  0.25404020  1
  O  O69  1  0.29847483  0.48592219  0.75578035  1
  O  O70  1  0.15635557  0.68285349  0.75159353  1
  O  O71  1  0.49913332  0.82872304  0.74727529  1
loop_
_geom_bond_atom_site_label_1
_geom_bond_atom_site_label_2
_geom_bond_distance
_geom_bond_site_symmetry_2
Na0 O53 2.418867 1_555
Na0 O31 2.437402 1_545
Na0 O66 2.650796 1_545
Na0 O67 2.722246 1_545
Na0 O52 2.749673 1_555
Na0 O2 2.903437 1_555
Na1 O68 2.516327 1_555
Na1 O32 2.535281 1_555
Na1 O53 2.626320 1_555
Na1 O51 2.654100 1_555
Na2 O52 2.334038 1_455
Na2 O15 2.459019 1_455
Na2 O66 2.624986 1_555
Na2 O68 2.709488 1_555
Na2 O30 2.893795 1_555
Na2 O51 2.919102 1_455
Na3 O14 2.250772 1_555
Na3 O49 2.411049 1_555
Na3 O71 2.670778 1_555
Na3 O69 2.762802 1_555
Na3 O6 2.818232 1_555
Na3 O50 2.880929 1_555
Na4 O12 2.271917 1_555
Na4 O69 2.575936 1_655
Na4 O50 2.667383 1_555
Na4 O48 2.687844 1_555
Na4 O70 2.780804 1_655
Na4 O7 2.818572 1_655
Na5 O48 2.371106 1_555
Na5 O71 2.577563 1_545
Na5 O49 2.672065 1_555
Na5 O13 2.737474 1_555
Na5 O70 2.836869 1_545
Na5 O34 2.995326 1_545
Na6 O65 2.417888 1_555
Na6 O42 2.554852 1_455
Na6 O7 2.561893 1_555
Na6 O43 2.688062 1_555
Na6 O64 2.769421 1_555
Na6 O14 2.988963 1_555
Na7 O44 2.471950 1_455
Na7 O63 2.614771 1_555
Na7 O65 2.637226 1_555
Na7 O8 2.772734 1_555
Na8 O64 2.325947 1_555
Na8 O27 2.541652 1_555
Na8 O42 2.669862 1_565
Na8 O44 2.705005 1_555
Na8 O6 2.856502 1_555
Na8 O63 2.942681 1_555
Na9 O61 2.361736 1_555
Na9 O26 2.393024 1_554
Na9 O45 2.504982 1_455
Na9 O11 2.579129 1_555
Na9 O47 2.704288 1_565
Na10 O45 2.436917 1_555
Na10 O62 2.467112 1_555
Na10 O24 2.596030 1_554
Na10 O9 2.694832 1_555
Na10 O46 2.704150 1_565
Na10 O60 2.790041 1_555
Na10 O19 2.830603 1_555
Na11 O10 2.398847 1_555
Na11 O61 2.575026 1_555
Na11 O46 2.644236 1_455
Na11 O60 2.689633 1_555
Na11 O47 2.784238 1_555
Na11 O15 2.920660 1_455
Na11 O25 3.002484 1_554
Na12 O40 2.505700 1_655
Na12 O41 2.513442 1_555
Na12 O4 2.629190 1_655
Na12 O55 2.745250 1_555
Na12 O19 2.768579 1_556
Na12 O54 2.820197 1_555
Na13 O5 2.173265 1_555
Na13 O56 2.526759 1_555
Na13 O34 2.608303 1_545
Na13 O39 2.668632 1_655
Na13 O55 2.701457 1_555
Na14 O3 2.185100 1_555
Na14 O40 2.404352 1_545
Na14 O56 2.481965 1_555
Na14 O54 2.643674 1_555
Na14 O39 2.923254 1_555
Na15 O37 2.320625 1_545
Na15 O23 2.501689 1_555
Na15 O57 2.529824 1_555
Na15 O59 2.684060 1_555
Na15 O2 2.738980 1_555
Na15 O38 2.849345 1_655
Na16 O0 2.392141 1_555
Na16 O57 2.495535 1_555
Na16 O38 2.547531 1_555
Na16 O58 2.652813 1_555
Na16 O31 2.843343 1_545
Na16 O36 2.844248 1_545
Na16 O21 2.971889 1_555
Na17 O22 2.348034 1_555
Na17 O37 2.609791 1_555
Na17 O36 2.667710 1_655
Na17 O58 2.708329 1_555
Na17 O27 2.839871 1_555
Na17 O59 2.856654 1_555
Na18 O42 2.250411 1_565
Na18 O44 2.391264 1_555
Na18 O37 2.493695 1_555
Na18 O43 2.652660 1_665
Na18 O36 2.852924 1_655
Na19 O40 2.357013 1_555
Na19 O45 2.449893 1_456
Na19 O47 2.489271 1_566
Na19 O41 2.629785 1_455
Na19 O46 2.763290 1_466
Na19 O39 2.842381 1_565
Na20 O48 2.306804 1_555
Na20 O49 2.316917 1_555
Na20 O50 2.676880 1_555
Na20 O56 2.700240 1_555
Na20 O54 2.707077 1_555
Na20 O55 2.883820 1_555
Na21 O57 2.405448 1_555
Na21 O53 2.405664 1_555
Na21 O59 2.559649 1_555
Na21 O52 2.561964 1_555
Na21 O58 2.651249 1_555
Na21 O51 2.994453 1_555
Na22 O66 2.247636 1_555
Na22 O68 2.427628 1_555
Na22 O61 2.484805 1_555
Na22 O67 2.669453 1_555
Na22 O60 2.834771 1_555
Na23 O71 2.414441 1_555
Na23 O65 2.422415 1_555
Na23 O64 2.472633 1_555
Na23 O69 2.588574 1_555
Na23 O70 2.794292 1_555
Na23 O63 2.895907 1_555
Ca0 O2 2.157662 1_455
Ca0 O0 2.219506 1_555
Ca0 O1 2.278187 1_445
Ca0 O37 2.311344 1_445
Ca0 O38 2.345856 1_555
Ca0 O36 2.435403 1_545
Ca1 O3 2.163093 1_555
Ca1 O5 2.190567 1_455
Ca1 O4 2.274647 1_545
Ca1 O40 2.380731 1_545
Ca1 O39 2.382715 1_555
Ca1 O41 2.571955 1_445
Ca2 O14 2.195829 1_555
Ca2 O12 2.202838 1_555
Ca2 O13 2.277537 1_555
Ca2 O48 2.317251 1_555
Ca2 O49 2.347520 1_555
Ca2 O50 2.365533 1_555
Ca3 O15 2.209093 1_555
Ca3 O52 2.232117 1_555
Ca3 O53 2.280147 1_555
Ca3 O16 2.282031 1_555
Ca3 O51 2.314430 1_555
Ca3 O17 2.385624 1_555
Ca4 O26 2.155152 1_554
Ca4 O25 2.263300 1_554
Ca4 O61 2.274793 1_555
Ca4 O62 2.339496 1_555
Ca4 O24 2.413030 1_554
Ca4 O60 2.463121 1_555
Ca5 O27 2.193098 1_555
Ca5 O64 2.252433 1_555
Ca5 O28 2.261640 1_555
Ca5 O65 2.268171 1_555
Ca5 O63 2.305281 1_555
Ca5 O29 2.376909 1_555
In0 O6 2.072044 1_545
In0 O7 2.099694 1_655
In0 O42 2.149656 1_555
In0 O44 2.168510 1_545
In0 O43 2.439157 1_655
In0 O8 2.449655 1_645
In1 O11 2.062412 1_545
In1 O10 2.083185 1_555
In1 O45 2.168566 1_445
In1 O9 2.316121 1_445
In1 O46 2.479981 1_455
In1 O47 2.486150 1_555
In2 O19 2.064469 1_556
In2 O56 2.091951 1_555
In2 O55 2.278088 1_555
In2 O18 2.279124 1_556
In2 O20 2.318070 1_556
In2 O54 2.343120 1_555
In3 O23 2.065494 1_555
In3 O22 2.075888 1_555
In3 O57 2.149998 1_555
In3 O21 2.307915 1_555
In3 O59 2.469070 1_555
In3 O58 2.558281 1_555
In4 O31 2.077171 1_555
In4 O66 2.129951 1_555
In4 O68 2.133120 1_555
In4 O30 2.274387 1_555
In4 O67 2.343138 1_555
In4 O32 2.383903 1_555
In5 O69 2.086206 1_555
In5 O34 2.092986 1_555
In5 O71 2.101985 1_555
In5 O70 2.271714 1_555
In5 O35 2.336394 1_555
In5 O33 2.514230 1_555
O0 Si0 1.614177 1_545
O1 S0 1.458019 1_555
O2 Si1 1.605582 1_655
O3 Si2 1.617450 1_555
O4 S1 1.480094 1_555
O5 Si3 1.621520 1_545
O6 Si3 1.652345 1_555
O7 Si2 1.663715 1_555
O8 S1 1.488077 1_555
O9 S0 1.509972 1_555
O10 Si1 1.701604 1_555
O11 Si0 1.681842 1_555
O12 Si4 1.612764 1_555
O13 S2 1.464783 1_555
O14 Si5 1.605272 1_555
O15 Si6 1.607890 1_555
O16 S3 1.470250 1_555
O17 S4 1.467324 1_555
O18 S4 1.504693 1_555
O19 Si6 1.695481 1_555
O20 S3 1.502261 1_555
O21 S2 1.504650 1_555
O22 Si5 1.696294 1_555
O23 Si4 1.677646 1_555
O24 S5 1.480808 1_555
O25 S6 1.477871 1_555
O26 Si7 1.619860 1_555
O27 Si8 1.605034 1_555
O28 S7 1.464550 1_555
O29 S8 1.464877 1_555
O30 S8 1.505448 1_555
O31 Si8 1.686465 1_555
O32 S7 1.506208 1_555
O33 S6 1.484567 1_555
O34 Si7 1.672892 1_555
O35 S5 1.484943 1_555
O36 S8 1.490451 1_555
O37 Si8 1.642580 1_555
O38 S7 1.485800 1_555
O39 S6 1.480057 1_555
O40 Si7 1.637440 1_555
O41 S5 1.487398 1_555
O42 Si4 1.658849 1_555
O43 S2 1.489048 1_555
O44 Si5 1.676173 1_555
O45 Si6 1.694792 1_555
O46 S3 1.500366 1_555
O47 S4 1.502870 1_555
O48 Si3 1.636967 1_545
O49 Si2 1.629847 1_555
O50 S1 1.477241 1_655
O51 S0 1.484184 1_555
O52 Si1 1.633146 1_655
O53 Si0 1.642018 1_545
O54 S5 1.516522 1_555
O55 S6 1.522257 1_655
O56 Si7 1.703982 1_545
O57 Si8 1.697898 1_545
O58 S7 1.499231 1_555
O59 S8 1.500947 1_655
O60 S4 1.492434 1_555
O61 Si6 1.645922 1_455
O62 S3 1.489959 1_565
O63 S2 1.486462 1_565
O64 Si5 1.633430 1_555
O65 Si4 1.640581 1_455
O66 Si0 1.660583 1_555
O67 S0 1.493653 1_555
O68 Si1 1.678449 1_555
O69 Si2 1.681468 1_555
O70 S1 1.502819 1_555
O71 Si3 1.677868 1_555
