# generated using pymatgen
data_MgCr2(HgO4)2
_symmetry_space_group_name_H-M   'P 1'
_cell_length_a   5.53419414
_cell_length_b   5.53419414
_cell_length_c   6.78514000
_cell_angle_alpha   90.00000000
_cell_angle_beta   90.00000000
_cell_angle_gamma   110.80037499
_symmetry_Int_Tables_number   1
_chemical_formula_structural   MgCr2(HgO4)2
_chemical_formula_sum   'Mg1 Cr2 Hg2 O8'
_cell_volume   194.26615542
_cell_formula_units_Z   1
loop_
 _symmetry_equiv_pos_site_id
 _symmetry_equiv_pos_as_xyz
  1  'x, y, z'
loop_
 _atom_site_type_symbol
 _atom_site_label
 _atom_site_symmetry_multiplicity
 _atom_site_fract_x
 _atom_site_fract_y
 _atom_site_fract_z
 _atom_site_occupancy
  Mg  Mg0  1  0.66501600  0.33498400  0.75000000  1
  Cr  Cr0  1  0.64218900  0.35781100  0.25000000  1
  Cr  Cr1  1  0.36158700  0.63841300  0.75000000  1
  Hg  Hg0  1  0.99564400  0.00435600  0.48141300  1
  Hg  Hg1  1  0.99564400  0.00435600  0.01858700  1
  O  O0  1  0.69383800  0.72855000  0.75000000  1
  O  O1  1  0.30174600  0.23495700  0.25000000  1
  O  O2  1  0.76504300  0.69825400  0.25000000  1
  O  O3  1  0.27145000  0.30616200  0.75000000  1
  O  O4  1  0.25651300  0.74348700  0.94514100  1
  O  O5  1  0.74740900  0.25259100  0.48377800  1
  O  O6  1  0.74740900  0.25259100  0.01622200  1
  O  O7  1  0.25651300  0.74348700  0.55485900  1
loop_
_geom_bond_atom_site_label_1
_geom_bond_atom_site_label_2
_geom_bond_distance
_geom_bond_site_symmetry_2
Mg0 O6 1.956122 1_556
Mg0 O5 1.956122 1_555
Mg0 O3 2.126662 1_555
Mg0 O0 2.126662 1_555
Cr0 O1 1.761313 1_555
Cr0 O2 1.761313 1_555
Cr0 O5 1.853395 1_555
Cr0 O6 1.853395 1_555
Cr1 O7 1.633883 1_555
Cr1 O4 1.633883 1_555
Cr1 O0 1.725795 1_555
Cr1 O3 1.725795 1_555
Hg0 O5 2.261680 1_555
Hg0 O1 2.329890 1_655
Hg0 O2 2.329890 1_545
Hg0 O7 2.428412 1_645
Hg0 O0 2.574881 1_545
Hg0 O3 2.574881 1_655
Hg1 O6 2.261680 1_555
Hg1 O1 2.329890 1_655
Hg1 O2 2.329890 1_545
Hg1 O4 2.428412 1_644
Hg1 O0 2.574881 1_544
Hg1 O3 2.574881 1_654
