# generated using pymatgen
data_MgMn4Zn2O8
_symmetry_space_group_name_H-M   'P 1'
_cell_length_a   2.98005049
_cell_length_b   5.81017567
_cell_length_c   12.01018681
_cell_angle_alpha   90.00702244
_cell_angle_beta   89.99321847
_cell_angle_gamma   115.24508637
_symmetry_Int_Tables_number   1
_chemical_formula_structural   MgMn4Zn2O8
_chemical_formula_sum   'Mg1 Mn4 Zn2 O8'
_cell_volume   188.09066501
_cell_formula_units_Z   1
loop_
 _symmetry_equiv_pos_site_id
 _symmetry_equiv_pos_as_xyz
  1  'x, y, z'
loop_
 _atom_site_type_symbol
 _atom_site_label
 _atom_site_symmetry_multiplicity
 _atom_site_fract_x
 _atom_site_fract_y
 _atom_site_fract_z
 _atom_site_occupancy
  Mg  Mg0  1  0.49005665  0.84372001  0.25007574  1
  Mn  Mn0  1  0.79367883  0.69205514  0.01811456  1
  Mn  Mn1  1  0.09998740  0.18501864  0.89475795  1
  Mn  Mn2  1  0.79836621  0.69140405  0.48187932  1
  Mn  Mn3  1  0.10366339  0.18503349  0.60503796  1
  Zn  Zn0  1  0.14739386  0.70530025  0.75014455  1
  Zn  Zn1  1  0.89709703  0.33925527  0.25003760  1
  O  O0  1  0.21960065  0.59255697  0.37133036  1
  O  O1  1  0.81304084  0.44329477  0.62136227  1
  O  O2  1  0.80899219  0.44338412  0.87870751  1
  O  O3  1  0.21460292  0.59310348  0.12872303  1
  O  O4  1  0.19131191  0.08442020  0.25007683  1
  O  O5  1  0.86249142  0.95394447  0.74995281  1
  O  O6  1  0.45551336  0.97342122  0.96158642  1
  O  O7  1  0.45837234  0.97408890  0.53821410  1
loop_
_geom_bond_atom_site_label_1
_geom_bond_atom_site_label_2
_geom_bond_distance
_geom_bond_site_symmetry_2
Mg0 O4 1.952033 1_565
Mg0 O4 1.957062 1_665
Mg0 O0 1.974066 1_555
Mg0 O3 1.974474 1_555
Mn0 O3 2.055867 1_555
Mn0 O6 2.067151 1_654
Mn0 O3 2.069891 1_655
Mn0 O2 2.224527 1_554
Mn0 O6 2.356840 1_554
Mn1 O6 1.957058 1_445
Mn1 O2 2.012305 1_555
Mn1 O2 2.037917 1_455
Mn1 O6 2.095156 1_545
Mn1 O5 2.125379 1_445
Mn2 O0 2.054959 1_555
Mn2 O7 2.066021 1_655
Mn2 O0 2.069496 1_655
Mn2 O1 2.222776 1_555
Mn2 O7 2.366648 1_555
Mn3 O7 1.958047 1_445
Mn3 O1 2.013268 1_555
Mn3 O1 2.036799 1_455
Mn3 O7 2.090039 1_545
Mn3 O5 2.127355 1_445
O0 Zn1 2.001269 1_455
O1 Zn0 2.099629 1_655
O2 Zn0 2.099550 1_655
O3 Zn1 2.000830 1_455
O4 Zn1 1.989901 1_555
O4 Zn1 2.017015 1_455
O5 Zn0 1.963196 1_655
O5 Zn0 2.000583 1_555
