# generated using pymatgen
data_Na5La3Ge(PO4)6
_symmetry_space_group_name_H-M   'P 1'
_cell_length_a   9.41453306
_cell_length_b   9.40374145
_cell_length_c   23.14800811
_cell_angle_alpha   90.03032437
_cell_angle_beta   89.92792686
_cell_angle_gamma   120.14598483
_symmetry_Int_Tables_number   1
_chemical_formula_structural   Na5La3Ge(PO4)6
_chemical_formula_sum   'Na15 La9 Ge3 P18 O72'
_cell_volume   1772.15877589
_cell_formula_units_Z   3
loop_
 _symmetry_equiv_pos_site_id
 _symmetry_equiv_pos_as_xyz
  1  'x, y, z'
loop_
 _atom_site_type_symbol
 _atom_site_label
 _atom_site_symmetry_multiplicity
 _atom_site_fract_x
 _atom_site_fract_y
 _atom_site_fract_z
 _atom_site_occupancy
  Na  Na0  1  0.64245058  0.00187123  0.25777549  1
  Na  Na1  1  0.36261980  0.36205232  0.25959839  1
  Na  Na2  1  0.99532196  0.63527143  0.25779409  1
  Na  Na3  1  0.64989780  0.65768237  0.75938545  1
  Na  Na4  1  0.00284948  0.35939419  0.75947149  1
  Na  Na5  1  0.03672188  0.69925963  0.57505446  1
  Na  Na6  1  0.66017598  0.96356660  0.57533496  1
  Na  Na7  1  0.66075108  0.69693893  0.07395387  1
  Na  Na8  1  0.03712370  0.33521776  0.07341417  1
  Na  Na9  1  0.01557083  0.01511243  0.49767497  1
  Na  Na10  1  0.01709765  -0.00021677  0.99692699  1
  Na  Na11  1  0.65665599  0.32348073  0.84135492  1
  Na  Na12  1  0.66731937  0.33314536  0.34754209  1
  Na  Na13  1  0.33567455  0.68240904  0.17063187  1
  Na  Na14  1  0.33534371  0.67188985  0.67542153  1
  La  La0  1  0.99527659  0.99757170  0.35762068  1
  La  La1  1  0.00149251  0.99921936  0.85629920  1
  La  La2  1  0.01627308  0.01111329  0.65100482  1
  La  La3  1  0.01243498  0.99987783  0.14450540  1
  La  La4  1  0.64970953  0.32514377  0.68747628  1
  La  La5  1  0.65820167  0.32476378  0.17819075  1
  La  La6  1  0.33272409  0.67517503  0.00822310  1
  La  La7  1  0.33141593  0.65247033  0.51388704  1
  La  La8  1  0.33315030  0.66322118  0.33385530  1
  Ge  Ge0  1  0.66408460  0.33150422  0.97715996  1
  Ge  Ge1  1  0.66268982  0.33205832  0.48389452  1
  Ge  Ge2  1  0.33280100  0.67983413  0.82226377  1
  P  P0  1  0.30332841  0.98976086  0.25226390  1
  P  P1  1  0.68921305  0.69736530  0.24598539  1
  P  P2  1  0.00887179  0.31081057  0.24642974  1
  P  P3  1  0.30383170  0.33526182  0.75869672  1
  P  P4  1  0.02258778  0.69723535  0.75246196  1
  P  P5  1  0.67523707  0.97737986  0.75364774  1
  P  P6  1  0.93867372  0.32269862  0.58088800  1
  P  P7  1  0.37417808  0.04738917  0.57514198  1
  P  P8  1  0.67995776  0.62775190  0.58038309  1
  P  P9  1  0.94324915  0.61757792  0.07496634  1
  P  P10  1  0.67851634  0.04847625  0.07507760  1
  P  P11  1  0.37480379  0.32765650  0.07306864  1
  P  P12  1  0.62143188  0.63650586  0.91805399  1
  P  P13  1  0.01460507  0.37860295  0.91825412  1
  P  P14  1  0.36446381  0.98499011  0.91637592  1
  P  P15  1  0.64663198  0.00365415  0.42398532  1
  P  P16  1  0.35787630  0.34893033  0.41855583  1
  P  P17  1  0.99629871  0.64354475  0.42429790  1
  O  O0  1  0.20944588  0.00655917  0.30309160  1
  O  O1  1  0.80656397  0.79501896  0.29543144  1
  O  O2  1  0.99084478  0.19418915  0.29587498  1
  O  O3  1  0.21665971  0.21958952  0.80815628  1
  O  O4  1  0.98021145  0.78522770  0.79858754  1
  O  O5  1  0.80027355  0.00482329  0.80043192  1
  O  O6  1  0.73546672  0.94077920  0.69536802  1
  O  O7  1  0.20414041  0.26320580  0.70168186  1
  O  O8  1  0.05201342  0.78684638  0.69336754  1
  O  O9  1  0.76366515  0.78647036  0.18751332  1
  O  O10  1  0.02571357  0.23769942  0.18799382  1
  O  O11  1  0.20891627  0.97367499  0.19531034  1
  O  O12  1  0.86990474  0.33324280  0.64007177  1
  O  O13  1  0.46150841  0.12061831  0.63250735  1
  O  O14  1  0.66607963  0.54785974  0.63966932  1
  O  O15  1  0.87564459  0.54707639  0.13573788  1
  O  O16  1  0.66994806  0.11222273  0.13596100  1
  O  O17  1  0.44545008  0.33003063  0.13367355  1
  O  O18  1  0.48435449  0.31827937  0.02389572  1
  O  O19  1  0.82040846  0.50653372  0.02637001  1
  O  O20  1  0.68200073  0.16719259  0.02657087  1
  O  O21  1  0.47448041  0.16096503  0.52375899  1
  O  O22  1  0.68509590  0.51730511  0.53040221  1
  O  O23  1  0.81786042  0.30593032  0.53102218  1
  O  O24  1  0.55557366  0.65952166  0.97551680  1
  O  O25  1  0.10333121  0.44087855  0.97594711  1
  O  O26  1  0.33767405  0.89762326  0.97367609  1
  O  O27  1  0.55560556  0.89023155  0.47520212  1
  O  O28  1  0.33262193  0.44953774  0.46527068  1
  O  O29  1  0.11005288  0.66842481  0.47555295  1
  O  O30  1  0.07379840  0.62497915  0.36668658  1
  O  O31  1  0.55341326  0.92359697  0.36612325  1
  O  O32  1  0.37530405  0.43511522  0.35892914  1
  O  O33  1  0.11481561  0.49956339  0.86577065  1
  O  O34  1  0.38312094  0.88042540  0.86448484  1
  O  O35  1  0.50653333  0.62258148  0.86487114  1
  O  O36  1  0.96731403  0.79019866  0.42151739  1
  O  O37  1  0.82291600  0.03332565  0.42232902  1
  O  O38  1  0.21109753  0.17330207  0.41982481  1
  O  O39  1  0.98914544  0.20690695  0.90777170  1
  O  O40  1  0.21929552  0.01057983  0.90589904  1
  O  O41  1  0.79527033  0.78310464  0.90975379  1
  O  O42  1  0.95091396  0.16316036  0.57918604  1
  O  O43  1  0.19810385  0.02325738  0.57572903  1
  O  O44  1  0.84543372  0.79648417  0.57863251  1
  O  O45  1  0.95475039  0.78799023  0.06996605  1
  O  O46  1  0.84282359  0.04528582  0.07072539  1
  O  O47  1  0.19764282  0.17874579  0.06856580  1
  O  O48  1  0.65306363  0.12816817  0.75185803  1
  O  O49  1  0.48437036  0.37655798  0.75411314  1
  O  O50  1  0.87839379  0.51610111  0.74977588  1
  O  O51  1  0.66383031  0.52072281  0.24778407  1
  O  O52  1  0.85604666  0.33335477  0.24796392  1
  O  O53  1  0.47918122  0.14268486  0.25192678  1
  O  O54  1  0.63103637  0.47251402  0.92065508  1
  O  O55  1  0.84094770  0.36763381  0.92162673  1
  O  O56  1  0.52788047  0.15700685  0.91968987  1
  O  O57  1  0.65176634  0.17190817  0.42944213  1
  O  O58  1  0.52260469  0.35089735  0.42863559  1
  O  O59  1  0.82863056  0.47951426  0.43133932  1
  O  O60  1  0.36467997  0.48766023  0.07182332  1
  O  O61  1  0.11089796  0.62636613  0.07227780  1
  O  O62  1  0.53470786  0.86920886  0.07278313  1
  O  O63  1  0.35668739  0.87399870  0.57261727  1
  O  O64  1  0.53778124  0.66469034  0.57572306  1
  O  O65  1  0.10787599  0.48056782  0.57561849  1
  O  O66  1  0.31776974  0.83203252  0.25668033  1
  O  O67  1  0.51944492  0.68672403  0.25356688  1
  O  O68  1  0.16618865  0.48301187  0.25383247  1
  O  O69  1  0.30494921  0.50512621  0.76681470  1
  O  O70  1  0.18498069  0.69010311  0.76616489  1
  O  O71  1  0.50546453  0.81129626  0.76598798  1
loop_
_geom_bond_atom_site_label_1
_geom_bond_atom_site_label_2
_geom_bond_distance
_geom_bond_site_symmetry_2
Na0 O53 2.485869 1_555
Na0 O67 2.585763 1_545
Na0 O31 2.628998 1_545
Na0 O66 2.644171 1_545
Na0 O52 2.741489 1_555
Na0 O16 2.970921 1_555
Na0 O2 2.975613 1_555
Na1 O32 2.385320 1_555
Na1 O51 2.468047 1_555
Na1 O68 2.616331 1_555
Na1 O67 2.644477 1_555
Na1 O53 2.786406 1_555
Na2 O52 2.468346 1_555
Na2 O68 2.638006 1_655
Na2 O30 2.643035 1_655
Na2 O66 2.645345 1_655
Na2 O51 2.752937 1_555
Na2 O1 2.974851 1_555
Na2 O15 3.001153 1_555
Na3 O49 2.300950 1_555
Na3 O71 2.435407 1_555
Na3 O35 2.727281 1_555
Na3 O69 2.820196 1_555
Na3 O4 2.862207 1_555
Na4 O50 2.308699 1_455
Na4 O69 2.466199 1_555
Na4 O70 2.698106 1_555
Na4 O33 2.740569 1_555
Na4 O7 2.812997 1_555
Na4 O48 2.900414 1_455
Na4 O12 2.994126 1_455
Na4 O5 3.043926 1_455
Na5 O44 2.395677 1_455
Na5 O65 2.462102 1_555
Na5 O29 2.462128 1_555
Na5 O63 2.608713 1_555
Na5 O43 2.634779 1_565
Na5 O8 2.842387 1_555
Na6 O42 2.421402 1_565
Na6 O64 2.444221 1_555
Na6 O27 2.477795 1_555
Na6 O63 2.541698 1_555
Na6 O44 2.875645 1_555
Na6 O6 2.902880 1_555
Na6 O23 2.969903 1_565
Na7 O24 2.439527 1_554
Na7 O62 2.442155 1_555
Na7 O45 2.453936 1_555
Na7 O60 2.476975 1_555
Na7 O9 2.782491 1_555
Na7 O46 2.834528 1_565
Na8 O46 2.402975 1_455
Na8 O25 2.417198 1_554
Na8 O61 2.463564 1_555
Na8 O47 2.587330 1_555
Na8 O60 2.669399 1_555
Na8 O10 2.791067 1_555
Na9 O38 2.468395 1_555
Na9 O43 2.469606 1_555
Na9 O37 2.584811 1_455
Na9 O42 2.591211 1_455
Na9 O36 2.611609 1_445
Na9 O44 2.644478 1_445
Na10 O47 2.366915 1_556
Na10 O45 2.448788 1_446
Na10 O46 2.547662 1_456
Na10 O40 2.805342 1_555
Na10 O41 2.883961 1_445
Na10 O39 2.939815 1_455
Na11 O56 2.302123 1_555
Na11 O54 2.393231 1_555
Na11 O55 2.432915 1_555
Na11 O48 2.756826 1_555
Na11 O49 2.789390 1_555
Na11 O50 2.885777 1_555
Na12 O58 2.372643 1_555
Na12 O57 2.386189 1_555
Na12 O59 2.422501 1_555
Na12 O53 2.839566 1_555
Na12 O52 2.907977 1_555
Na12 O51 2.916784 1_555
Na13 O66 2.491987 1_555
Na13 O67 2.572596 1_555
Na13 O68 2.600408 1_555
Na13 O62 2.900785 1_555
Na13 O61 2.971524 1_555
Na13 O60 3.025913 1_555
Na14 O69 2.562820 1_555
Na14 O71 2.564257 1_555
Na14 O70 2.584788 1_555
Na14 O63 2.989250 1_555
Na14 O64 3.013515 1_555
Na14 O65 3.049320 1_555
La0 O1 2.336966 1_555
La0 O0 2.342738 1_665
La0 O37 2.351837 1_565
La0 O2 2.354489 1_565
La0 O36 2.355047 1_555
La0 O38 2.359010 1_665
La1 O40 2.306514 1_565
La1 O5 2.317407 1_465
La1 O3 2.328133 1_565
La1 O41 2.337562 1_455
La1 O4 2.338186 1_455
La1 O39 2.339387 1_465
La2 O43 2.403348 1_555
La2 O7 2.432091 1_555
La2 O42 2.464860 1_455
La2 O44 2.491925 1_445
La2 O8 2.497648 1_545
La2 O6 2.592029 1_445
La3 O11 2.308471 1_555
La3 O10 2.397431 1_565
La3 O9 2.403978 1_455
La3 O47 2.451363 1_565
La3 O45 2.480749 1_455
La3 O46 2.518217 1_465
La4 O13 2.244508 1_555
La4 O14 2.304903 1_555
La4 O12 2.311530 1_555
La4 O48 2.390576 1_555
La4 O49 2.405234 1_555
La4 O50 2.461995 1_555
La5 O17 2.276197 1_555
La5 O16 2.276443 1_555
La5 O15 2.285931 1_555
La5 O53 2.404773 1_555
La5 O51 2.427482 1_555
La5 O52 2.437364 1_555
La6 O26 2.218392 1_554
La6 O25 2.302099 1_554
La6 O24 2.302744 1_554
La6 O62 2.387034 1_555
La6 O61 2.408467 1_555
La6 O60 2.429817 1_555
La7 O28 2.219855 1_555
La7 O29 2.339217 1_555
La7 O27 2.348016 1_555
La7 O64 2.370493 1_555
La7 O65 2.379488 1_555
La7 O63 2.396772 1_555
La8 O31 2.399039 1_555
La8 O30 2.404653 1_555
La8 O32 2.439783 1_555
La8 O66 2.442727 1_555
La8 O68 2.470294 1_555
La8 O67 2.486345 1_555
Ge0 O19 1.934381 1_556
Ge0 O18 1.957840 1_556
Ge0 O55 1.991800 1_555
Ge0 O54 1.995791 1_555
Ge0 O20 1.997059 1_556
Ge0 O56 1.998805 1_555
Ge1 O58 1.909464 1_555
Ge1 O59 1.914305 1_555
Ge1 O57 1.926180 1_555
Ge1 O21 1.927129 1_555
Ge1 O23 1.936330 1_555
Ge1 O22 1.966619 1_555
Ge2 O70 1.942165 1_555
Ge2 O34 1.959445 1_555
Ge2 O71 1.961018 1_555
Ge2 O69 1.995317 1_555
Ge2 O33 2.145215 1_555
Ge2 O35 2.197024 1_555
O0 P0 1.525739 1_545
O1 P1 1.535248 1_555
O2 P2 1.534736 1_655
O3 P3 1.506591 1_555
O4 P4 1.520997 1_655
O5 P5 1.524103 1_545
O6 P5 1.566384 1_555
O7 P3 1.563725 1_555
O8 P4 1.556870 1_555
O9 P1 1.560227 1_555
O10 P2 1.560615 1_555
O11 P0 1.555216 1_555
O12 P6 1.538818 1_555
O13 P7 1.531859 1_555
O14 P8 1.538478 1_555
O15 P9 1.548695 1_555
O16 P10 1.549017 1_555
O17 P11 1.548657 1_555
O18 P11 1.566975 1_555
O19 P9 1.575552 1_555
O20 P10 1.572445 1_555
O21 P7 1.559691 1_555
O22 P8 1.571196 1_555
O23 P6 1.572867 1_555
O24 P12 1.527409 1_555
O25 P13 1.528021 1_555
O26 P14 1.513301 1_555
O27 P15 1.535678 1_565
O28 P16 1.531385 1_555
O29 P17 1.536412 1_455
O30 P17 1.570521 1_455
O31 P15 1.571373 1_565
O32 P16 1.567124 1_555
O33 P13 1.606422 1_555
O34 P14 1.616245 1_555
O35 P12 1.601162 1_555
O36 P17 1.535783 1_555
O37 P15 1.538972 1_555
O38 P16 1.531571 1_555
O39 P13 1.527821 1_655
O40 P14 1.521773 1_545
O41 P12 1.532718 1_555
O42 P6 1.561785 1_555
O43 P7 1.556157 1_555
O44 P8 1.569519 1_555
O45 P9 1.555330 1_555
O46 P10 1.565278 1_555
O47 P11 1.551778 1_555
O48 P5 1.534060 1_545
O49 P3 1.545194 1_555
O50 P4 1.557459 1_655
O51 P1 1.555456 1_555
O52 P2 1.556443 1_655
O53 P0 1.554883 1_545
O54 P12 1.590647 1_555
O55 P13 1.587433 1_655
O56 P14 1.577973 1_545
O57 P15 1.563550 1_555
O58 P16 1.559482 1_555
O59 P17 1.565762 1_555
O60 P11 1.554970 1_555
O61 P9 1.539672 1_455
O62 P10 1.544462 1_565
O63 P7 1.555433 1_565
O64 P8 1.546398 1_555
O65 P6 1.542968 1_455
O66 P0 1.559381 1_555
O67 P1 1.560130 1_555
O68 P2 1.560959 1_555
O69 P3 1.603057 1_555
O70 P4 1.595850 1_555
O71 P5 1.602351 1_555
