# generated using pymatgen
data_Pr2(ReB2)3
_symmetry_space_group_name_H-M   'P 1'
_cell_length_a   6.33044843
_cell_length_b   6.33044843
_cell_length_c   7.63181580
_cell_angle_alpha   89.44215967
_cell_angle_beta   89.44215967
_cell_angle_gamma   114.89516030
_symmetry_Int_Tables_number   1
_chemical_formula_structural   Pr2(ReB2)3
_chemical_formula_sum   'Pr4 Re6 B12'
_cell_volume   277.37742513
_cell_formula_units_Z   2
loop_
 _symmetry_equiv_pos_site_id
 _symmetry_equiv_pos_as_xyz
  1  'x, y, z'
loop_
 _atom_site_type_symbol
 _atom_site_label
 _atom_site_symmetry_multiplicity
 _atom_site_fract_x
 _atom_site_fract_y
 _atom_site_fract_z
 _atom_site_occupancy
  Pr  Pr0  1  0.90760271  0.55857963  0.32667662  1
  Pr  Pr1  1  0.44142037  0.09239729  0.17332338  1
  Pr  Pr2  1  0.09239729  0.44142037  0.67332338  1
  Pr  Pr3  1  0.55857963  0.90760271  0.82667662  1
  Re  Re0  1  0.41704679  0.58295321  0.25000000  1
  Re  Re1  1  0.58295321  0.41704679  0.75000000  1
  Re  Re2  1  0.01094618  0.19549212  0.08728987  1
  Re  Re3  1  0.80450788  0.98905382  0.41271013  1
  Re  Re4  1  0.98905382  0.80450788  0.91271013  1
  Re  Re5  1  0.19549212  0.01094618  0.58728987  1
  B  B0  1  0.75870268  0.84888151  0.13235523  1
  B  B1  1  0.15111849  0.24129732  0.36764477  1
  B  B2  1  0.24129732  0.15111849  0.86764477  1
  B  B3  1  0.84888151  0.75870268  0.63235523  1
  B  B4  1  0.41544306  0.84192900  0.47978044  1
  B  B5  1  0.15807100  0.58455694  0.02021956  1
  B  B6  1  0.58455694  0.15807100  0.52021956  1
  B  B7  1  0.84192900  0.41544306  0.97978044  1
  B  B8  1  0.56003354  0.65064394  0.53294349  1
  B  B9  1  0.34935606  0.43996646  0.96705651  1
  B  B10  1  0.43996646  0.34935606  0.46705651  1
  B  B11  1  0.65064394  0.56003354  0.03294349  1
loop_
_geom_bond_atom_site_label_1
_geom_bond_atom_site_label_2
_geom_bond_distance
_geom_bond_site_symmetry_2
B0 B11 1.836062 1_555
B0 Re2 2.123058 1_665
B0 Re0 2.277122 1_555
B0 Re3 2.298230 1_555
B0 Re4 2.306886 1_554
B0 Pr3 2.760912 1_554
B0 Pr0 2.810290 1_555
B0 Pr1 3.018673 1_565
B1 B10 1.836062 1_555
B1 Re3 2.123058 1_445
B1 Re0 2.277122 1_555
B1 Re2 2.298230 1_555
B1 Re5 2.306886 1_555
B1 Pr2 2.760912 1_555
B1 Pr1 2.810290 1_555
B1 Pr0 3.018673 1_455
B2 B9 1.836062 1_555
B2 Re4 2.123058 1_445
B2 Re1 2.277122 1_555
B2 Re5 2.298230 1_555
B2 Re2 2.306886 1_556
B2 Pr1 2.760912 1_556
B2 Pr2 2.810290 1_555
B2 Pr3 3.018673 1_545
B3 B8 1.836062 1_555
B3 Re5 2.123058 1_665
B3 Re1 2.277122 1_555
B3 Re4 2.298230 1_555
B3 Re3 2.306886 1_555
B3 Pr0 2.760912 1_555
B3 Pr3 2.810290 1_555
B3 Pr2 3.018673 1_655
B4 B8 1.843798 1_555
B4 B6 1.860445 1_565
B4 Re5 2.237384 1_565
B4 Re3 2.287024 1_555
B4 Re0 2.415109 1_555
B4 Pr1 2.777043 1_565
B4 Pr3 2.784575 1_555
B4 Pr2 2.880122 1_555
B4 Pr0 3.190146 1_455
B5 B9 1.843798 1_554
B5 B7 1.860445 1_454
B5 Re4 2.237384 1_454
B5 Re2 2.287024 1_555
B5 Re0 2.415109 1_555
B5 Pr0 2.777043 1_455
B5 Pr2 2.784575 1_554
B5 Pr3 2.880122 1_554
B5 Pr1 3.190146 1_565
B6 Re3 2.237384 1_545
B6 Re5 2.287024 1_555
B6 Re1 2.415109 1_555
B6 Pr3 2.777043 1_545
B6 Pr1 2.784575 1_555
B6 Pr0 2.880122 1_555
B6 Pr2 3.190146 1_655
B7 Re2 2.237384 1_656
B7 Re4 2.287024 1_555
B7 Re1 2.415109 1_555
B7 Pr2 2.777043 1_655
B7 Pr0 2.784575 1_556
B7 Pr1 2.880122 1_556
B7 Pr3 3.190146 1_545
B8 Re3 2.229183 1_555
B8 Re1 2.256005 1_555
B8 Re0 2.322792 1_555
B8 Pr3 2.784713 1_555
B8 Pr2 2.876668 1_555
B8 Pr0 2.947705 1_555
B9 Re2 2.229183 1_556
B9 Re1 2.256005 1_555
B9 Re0 2.322792 1_556
B9 Pr2 2.784713 1_555
B9 Pr3 2.876668 1_555
B9 Pr1 2.947705 1_556
B10 B8 1.809394 1_555
B10 B6 1.843798 1_555
B10 Re5 2.229183 1_555
B10 Re0 2.256005 1_555
B10 Re1 2.322792 1_555
B10 Pr1 2.784713 1_555
B10 Pr0 2.876668 1_555
B10 Pr2 2.947705 1_555
B11 B9 1.809394 1_554
B11 B7 1.843798 1_554
B11 Re4 2.229183 1_554
B11 Re0 2.256005 1_555
B11 Re1 2.322792 1_554
B11 Pr0 2.784713 1_555
B11 Pr1 2.876668 1_555
B11 Pr3 2.947705 1_554
