# generated using pymatgen
data_Cr2NiO4
_symmetry_space_group_name_H-M   'P 1'
_cell_length_a   5.96139339
_cell_length_b   5.96182928
_cell_length_c   5.95456649
_cell_angle_alpha   60.24369058
_cell_angle_beta   88.09271677
_cell_angle_gamma   118.10756450
_symmetry_Int_Tables_number   1
_chemical_formula_structural   Cr2NiO4
_chemical_formula_sum   'Cr4 Ni2 O8'
_cell_volume   151.87909493
_cell_formula_units_Z   2
loop_
 _symmetry_equiv_pos_site_id
 _symmetry_equiv_pos_as_xyz
  1  'x, y, z'
loop_
 _atom_site_type_symbol
 _atom_site_label
 _atom_site_symmetry_multiplicity
 _atom_site_fract_x
 _atom_site_fract_y
 _atom_site_fract_z
 _atom_site_occupancy
  Cr  Cr0  1  0.49999970  0.00000255  0.00001169  1
  Cr  Cr1  1  0.00000526  0.50001580  0.49999674  1
  Cr  Cr2  1  -0.00001026  0.49997906  0.00000288  1
  Cr  Cr3  1  0.00002279  0.00001244  -0.00002582  1
  Ni  Ni0  1  0.61889064  0.75070637  0.63046788  1
  Ni  Ni1  1  0.38109294  0.24933606  0.36955363  1
  O  O0  1  0.75537688  0.47543686  0.76916350  1
  O  O1  1  0.77277629  0.02976707  0.75654444  1
  O  O2  1  0.75572325  0.02512468  0.21907887  1
  O  O3  1  0.24457561  0.52452472  0.23086611  1
  O  O4  1  0.78627191  0.52926448  0.24346667  1
  O  O5  1  0.22724468  0.97026476  0.24347147  1
  O  O6  1  0.21376571  0.47074496  0.75649226  1
  O  O7  1  0.24426460  0.97482220  0.78090967  1
loop_
_geom_bond_atom_site_label_1
_geom_bond_atom_site_label_2
_geom_bond_distance
_geom_bond_site_symmetry_2
Cr0 O5 2.023183 1_545
Cr0 O1 2.023204 1_554
Cr0 O2 2.039408 1_555
Cr0 O7 2.039618 1_544
Cr0 O0 2.041707 1_554
Cr0 O3 2.041907 1_545
Cr1 O5 2.015218 1_555
Cr1 O1 2.015224 1_455
Cr1 O6 2.015329 1_555
Cr1 O4 2.015366 1_455
Cr1 O3 2.031390 1_555
Cr1 O0 2.031500 1_455
Cr2 O4 2.023189 1_455
Cr2 O6 2.023393 1_554
Cr2 O7 2.039576 1_554
Cr2 O2 2.039631 1_455
Cr2 O3 2.041867 1_555
Cr2 O0 2.041875 1_454
Cr3 O1 2.017353 1_454
Cr3 O6 2.017514 1_554
Cr3 O5 2.017523 1_545
Cr3 O4 2.017580 1_445
Cr3 O7 2.029327 1_544
Cr3 O2 2.029396 1_455
Ni0 O2 1.993521 1_565
Ni0 O0 1.998722 1_555
Ni0 O6 2.004882 1_555
Ni0 O1 2.005150 1_565
Ni1 O7 1.993373 1_545
Ni1 O3 1.998482 1_555
Ni1 O4 2.005095 1_555
Ni1 O5 2.005210 1_545
