# generated using pymatgen
data_MgMn3V2O10
_symmetry_space_group_name_H-M   'P 1'
_cell_length_a   5.28692499
_cell_length_b   5.26326895
_cell_length_c   7.69549827
_cell_angle_alpha   109.80942962
_cell_angle_beta   99.55060746
_cell_angle_gamma   102.00156846
_symmetry_Int_Tables_number   1
_chemical_formula_structural   MgMn3V2O10
_chemical_formula_sum   'Mg1 Mn3 V2 O10'
_cell_volume   190.45120282
_cell_formula_units_Z   1
loop_
 _symmetry_equiv_pos_site_id
 _symmetry_equiv_pos_as_xyz
  1  'x, y, z'
loop_
 _atom_site_type_symbol
 _atom_site_label
 _atom_site_symmetry_multiplicity
 _atom_site_fract_x
 _atom_site_fract_y
 _atom_site_fract_z
 _atom_site_occupancy
  Mg  Mg0  1  0.53616800  0.79131000  0.41664900  1
  Mn  Mn0  1  0.00794100  0.50487100  0.99937000  1
  Mn  Mn1  1  0.70279800  0.89067400  0.89959700  1
  Mn  Mn2  1  0.30852600  0.12169000  0.09866800  1
  V  V0  1  0.10521200  0.72710100  0.68630000  1
  V  V1  1  0.88902300  0.27726200  0.32096900  1
  O  O0  1  0.07736200  0.08919600  0.85634700  1
  O  O1  1  0.31472300  0.74310900  0.95365400  1
  O  O2  1  0.08781400  0.31244000  0.52966400  1
  O  O3  1  0.22288200  0.47111800  0.22818300  1
  O  O4  1  0.44251600  0.84563200  0.66355500  1
  O  O5  1  0.55685800  0.11130900  0.32587200  1
  O  O6  1  0.81189200  0.55858100  0.78229100  1
  O  O7  1  0.86746300  0.65903300  0.44638700  1
  O  O8  1  0.69751100  0.27589400  0.04962000  1
  O  O9  1  0.93381200  0.94220800  0.15120500  1
loop_
_geom_bond_atom_site_label_1
_geom_bond_atom_site_label_2
_geom_bond_distance
_geom_bond_site_symmetry_2
Mg0 O4 1.984943 1_555
Mg0 O3 2.018003 1_555
Mg0 O5 2.020603 1_565
Mg0 O7 2.021646 1_555
Mn0 O6 1.952504 1_455
Mn0 O1 1.992305 1_555
Mn0 O8 1.999866 1_456
Mn0 O3 2.013806 1_556
Mn0 O0 2.229015 1_555
Mn0 O9 2.349774 1_456
Mn1 O6 1.930103 1_555
Mn1 O8 1.972870 1_566
Mn1 O4 1.998087 1_555
Mn1 O9 2.008945 1_556
Mn1 O0 2.172097 1_665
Mn1 O1 2.196668 1_555
Mn2 O1 1.936213 1_544
Mn2 O3 1.958184 1_555
Mn2 O0 1.985181 1_554
Mn2 O5 2.028947 1_555
Mn2 O9 2.174142 1_445
Mn2 O8 2.191254 1_555
O0 V0 1.963793 1_545
O1 V0 2.134121 1_555
O2 V1 1.695748 1_455
O2 V0 2.078765 1_555
O3 V1 2.197606 1_455
O4 V0 1.820691 1_555
O5 V1 1.804094 1_555
O6 V0 1.997357 1_655
O7 V0 1.926465 1_655
O7 V1 1.949194 1_555
O8 V1 2.161213 1_555
O9 V1 1.894062 1_565
