# generated using pymatgen
data_Rb3Mn2Cl7
_symmetry_space_group_name_H-M   'P 1'
_cell_length_a   13.57998270
_cell_length_b   13.57998270
_cell_length_c   13.57998270
_cell_angle_alpha   158.56374424
_cell_angle_beta   158.56374424
_cell_angle_gamma   30.49770564
_symmetry_Int_Tables_number   1
_chemical_formula_structural   Rb3Mn2Cl7
_chemical_formula_sum   'Rb3 Mn2 Cl7'
_cell_volume   334.28153929
_cell_formula_units_Z   1
loop_
 _symmetry_equiv_pos_site_id
 _symmetry_equiv_pos_as_xyz
  1  'x, y, z'
loop_
 _atom_site_type_symbol
 _atom_site_label
 _atom_site_symmetry_multiplicity
 _atom_site_fract_x
 _atom_site_fract_y
 _atom_site_fract_z
 _atom_site_occupancy
  Rb  Rb0  1  0.18175680  0.18175680  -0.00000000  1
  Rb  Rb1  1  0.81824320  0.81824320  0.00000000  1
  Rb  Rb2  1  -0.00000000  -0.00000000  0.00000000  1
  Mn  Mn0  1  0.40185604  0.40185604  -0.00000000  1
  Mn  Mn1  1  0.59814396  0.59814396  0.00000000  1
  Cl  Cl0  1  0.40509122  0.90509122  0.50000000  1
  Cl  Cl1  1  0.90509122  0.40509122  0.50000000  1
  Cl  Cl2  1  0.59490878  0.09490878  0.50000000  1
  Cl  Cl3  1  0.09490878  0.59490878  0.50000000  1
  Cl  Cl4  1  0.69316888  0.69316888  -0.00000000  1
  Cl  Cl5  1  0.50000000  0.50000000  0.00000000  1
  Cl  Cl6  1  0.30683112  0.30683112  0.00000000  1
loop_
_geom_bond_atom_site_label_1
_geom_bond_atom_site_label_2
_geom_bond_distance
_geom_bond_site_symmetry_2
Cl0 Mn0 2.526994 1_555
Cl0 Mn0 2.526994 1_566
Cl0 Rb1 3.399634 1_455
Cl0 Rb1 3.399634 1_556
Cl0 Rb2 3.544503 1_666
Cl0 Rb2 3.544503 1_565
Cl1 Mn0 2.526994 1_656
Cl1 Mn0 2.526994 1_555
Cl1 Rb1 3.399634 1_556
Cl1 Rb1 3.399634 1_545
Cl1 Rb2 3.544503 1_666
Cl1 Rb2 3.544503 1_655
Cl2 Mn1 2.526994 1_556
Cl2 Mn1 2.526994 1_545
Cl2 Rb0 3.399634 1_555
Cl2 Rb0 3.399634 1_656
Cl2 Rb2 3.544503 1_555
Cl2 Rb2 3.544503 1_656
Cl3 Mn1 2.526994 1_455
Cl3 Mn1 2.526994 1_556
Cl3 Rb0 3.399634 1_555
Cl3 Rb0 3.399634 1_566
Cl3 Rb2 3.544503 1_555
Cl3 Rb2 3.544503 1_566
Cl4 Mn1 2.490008 1_555
Cl4 Rb1 3.277414 1_555
Cl4 Rb0 3.584194 1_554
Cl4 Rb0 3.584194 1_666
Cl4 Rb0 3.584194 1_565
Cl4 Rb0 3.584194 1_655
Cl5 Mn0 2.571738 1_555
Cl5 Mn1 2.571738 1_555
Cl5 Rb2 3.571697 1_565
Cl5 Rb2 3.571697 1_655
Cl5 Rb2 3.571697 1_554
Cl5 Rb2 3.571697 1_666
Cl6 Mn0 2.490008 1_555
Cl6 Rb0 3.277414 1_555
Cl6 Rb1 3.584194 1_545
Cl6 Rb1 3.584194 1_455
Cl6 Rb1 3.584194 1_556
Cl6 Rb1 3.584194 1_444
