# generated using pymatgen
data_Rb3Nb2Br9
_symmetry_space_group_name_H-M   'P 1'
_cell_length_a   7.70874579
_cell_length_b   7.70886758
_cell_length_c   18.01591512
_cell_angle_alpha   90.00113870
_cell_angle_beta   89.99819563
_cell_angle_gamma   119.99989736
_symmetry_Int_Tables_number   1
_chemical_formula_structural   Rb3Nb2Br9
_chemical_formula_sum   'Rb6 Nb4 Br18'
_cell_volume   927.17500881
_cell_formula_units_Z   2
loop_
 _symmetry_equiv_pos_site_id
 _symmetry_equiv_pos_as_xyz
  1  'x, y, z'
loop_
 _atom_site_type_symbol
 _atom_site_label
 _atom_site_symmetry_multiplicity
 _atom_site_fract_x
 _atom_site_fract_y
 _atom_site_fract_z
 _atom_site_occupancy
  Rb  Rb0  1  0.00000330  0.99999829  0.24989487  1
  Rb  Rb1  1  0.00000203  0.00000079  0.75009998  1
  Rb  Rb2  1  0.33333527  0.66666716  0.06720765  1
  Rb  Rb3  1  0.66666678  0.33333076  0.56723524  1
  Rb  Rb4  1  0.33333520  0.66666584  0.43276233  1
  Rb  Rb5  1  0.66666790  0.33333091  0.93279158  1
  Nb  Nb0  1  0.33333032  0.66667316  0.82496815  1
  Nb  Nb1  1  0.66665722  0.33332548  0.32489498  1
  Nb  Nb2  1  0.66667017  0.33333029  0.17500872  1
  Nb  Nb3  1  0.33333473  0.66667166  0.67509624  1
  Br  Br0  1  0.82817102  0.17183033  0.40722758  1
  Br  Br1  1  0.82813618  0.65633251  0.40721827  1
  Br  Br2  1  0.34366674  0.17182233  0.40721500  1
  Br  Br3  1  0.65623196  0.82810567  0.90733594  1
  Br  Br4  1  0.17180543  0.34363650  0.59276662  1
  Br  Br5  1  0.17187855  0.82811457  0.90733414  1
  Br  Br6  1  0.17190105  0.34377477  0.90733900  1
  Br  Br7  1  0.82817756  0.17184303  0.09270934  1
  Br  Br8  1  0.34368068  0.17183263  0.09270542  1
  Br  Br9  1  0.65637412  0.82819307  0.59276637  1
  Br  Br10  1  0.49213269  0.98427614  0.24989675  1
  Br  Br11  1  0.50788893  0.49211412  0.75008960  1
  Br  Br12  1  0.98421192  0.49211295  0.75008589  1
  Br  Br13  1  0.01572433  0.50786713  0.24989575  1
  Br  Br14  1  0.49213621  0.50786288  0.24989076  1
  Br  Br15  1  0.50788405  0.01578281  0.75008245  1
  Br  Br16  1  0.82816701  0.65631695  0.09271094  1
  Br  Br17  1  0.17183065  0.82818725  0.59276743  1
loop_
_geom_bond_atom_site_label_1
_geom_bond_atom_site_label_2
_geom_bond_distance
_geom_bond_site_symmetry_2
Br0 Nb1 2.617342 1_555
Br0 Rb3 3.599930 1_555
Br0 Rb0 3.646618 1_645
Br0 Rb4 3.882375 1_545
Br0 Rb4 3.882381 1_655
Br1 Nb1 2.617211 1_555
Br1 Rb3 3.600125 1_555
Br1 Rb0 3.646568 1_655
Br1 Rb4 3.882100 1_555
Br1 Rb4 3.882623 1_655
Br2 Nb1 2.617034 1_555
Br2 Rb3 3.600179 1_555
Br2 Rb0 3.646526 1_545
Br2 Rb4 3.882368 1_545
Br2 Rb4 3.882490 1_555
Br3 Nb0 2.617094 1_555
Br3 Rb2 3.597537 1_556
Br3 Rb1 3.645707 1_665
Br3 Rb5 3.882199 1_555
Br3 Rb5 3.882294 1_565
Br4 Nb3 2.617431 1_555
Br4 Rb4 3.600052 1_555
Br4 Rb1 3.646582 1_555
Br4 Rb3 3.882236 1_455
Br4 Rb3 3.882426 1_555
Br5 Nb0 2.616974 1_555
Br5 Rb2 3.597695 1_556
Br5 Rb1 3.645757 1_565
Br5 Rb5 3.882196 1_455
Br5 Rb5 3.882253 1_565
Br6 Nb0 2.617111 1_555
Br6 Rb2 3.597531 1_556
Br6 Rb1 3.645825 1_555
Br6 Rb5 3.882109 1_555
Br6 Rb5 3.882251 1_455
Br7 Nb2 2.616852 1_555
Br7 Rb5 3.598707 1_554
Br7 Rb0 3.644689 1_645
Br7 Rb2 3.882231 1_655
Br7 Rb2 3.882383 1_545
Br8 Nb2 2.616919 1_555
Br8 Rb5 3.598507 1_554
Br8 Rb0 3.644666 1_545
Br8 Rb2 3.882261 1_545
Br8 Rb2 3.882389 1_555
Br9 Nb3 2.617404 1_555
Br9 Rb4 3.600101 1_555
Br9 Rb1 3.646565 1_665
Br9 Rb3 3.882333 1_565
Br9 Rb3 3.882446 1_555
Br10 Nb2 2.692707 1_565
Br10 Nb1 2.693663 1_565
Br10 Rb0 3.855729 1_555
Br10 Rb0 3.855875 1_655
Br10 Rb2 3.915187 1_555
Br10 Rb4 3.917882 1_555
Br11 Nb0 2.692929 1_555
Br11 Nb3 2.694001 1_555
Br11 Rb1 3.855847 1_555
Br11 Rb1 3.855849 1_665
Br11 Rb5 3.915264 1_555
Br11 Rb3 3.917463 1_555
Br12 Nb0 2.693018 1_655
Br12 Nb3 2.693955 1_655
Br12 Rb1 3.855821 1_665
Br12 Rb1 3.855929 1_655
Br12 Rb5 3.915150 1_555
Br12 Rb3 3.917438 1_555
Br13 Nb2 2.692690 1_455
Br13 Nb1 2.693720 1_455
Br13 Rb0 3.855797 1_555
Br13 Rb0 3.855928 1_545
Br13 Rb2 3.915125 1_555
Br13 Rb4 3.917917 1_555
Br14 Nb2 2.692665 1_555
Br14 Nb1 2.693791 1_555
Br14 Rb0 3.855832 1_545
Br14 Rb0 3.855848 1_655
Br14 Rb2 3.915133 1_555
Br14 Rb4 3.917878 1_555
Br15 Nb0 2.693007 1_545
Br15 Nb3 2.693912 1_545
Br15 Rb1 3.855743 1_555
Br15 Rb1 3.855883 1_655
Br15 Rb5 3.915270 1_555
Br15 Rb3 3.917379 1_555
Br16 Nb2 2.616851 1_555
Br16 Rb5 3.598637 1_554
Br16 Rb0 3.644664 1_655
Br16 Rb2 3.882210 1_655
Br16 Rb2 3.882344 1_555
Br17 Nb3 2.617363 1_555
Br17 Rb4 3.599979 1_555
Br17 Rb1 3.646522 1_565
Br17 Rb3 3.882288 1_565
Br17 Rb3 3.882452 1_455
