# generated using pymatgen
data_La4MgTi3O12
_symmetry_space_group_name_H-M   'P 1'
_cell_length_a   9.77546819
_cell_length_b   9.77546820
_cell_length_c   9.77546845
_cell_angle_alpha   33.63190596
_cell_angle_beta   33.63190428
_cell_angle_gamma   33.63190283
_symmetry_Int_Tables_number   1
_chemical_formula_structural   La4MgTi3O12
_chemical_formula_sum   'La4 Mg1 Ti3 O12'
_cell_volume   255.27104033
_cell_formula_units_Z   1
loop_
 _symmetry_equiv_pos_site_id
 _symmetry_equiv_pos_as_xyz
  1  'x, y, z'
loop_
 _atom_site_type_symbol
 _atom_site_label
 _atom_site_symmetry_multiplicity
 _atom_site_fract_x
 _atom_site_fract_y
 _atom_site_fract_z
 _atom_site_occupancy
  La  La0  1  0.86618476  0.86618476  0.86618476  1
  La  La1  1  0.13381524  0.13381524  0.13381524  1
  La  La2  1  0.72096025  0.72096025  0.72096025  1
  La  La3  1  0.27903975  0.27903975  0.27903975  1
  Mg  Mg0  1  0.50000000  0.50000000  0.50000000  1
  Ti  Ti0  1  -0.00000000  -0.00000000  0.00000000  1
  Ti  Ti1  1  0.59278099  0.59278099  0.59278099  1
  Ti  Ti2  1  0.40721901  0.40721901  0.40721901  1
  O  O0  1  0.87235113  0.30074682  0.45894745  1
  O  O1  1  0.30074682  0.45894745  0.87235113  1
  O  O2  1  0.45894745  0.87235113  0.30074682  1
  O  O3  1  0.12764887  0.69925318  0.54105255  1
  O  O4  1  0.69925318  0.54105255  0.12764887  1
  O  O5  1  0.54105255  0.12764887  0.69925318  1
  O  O6  1  0.70670034  0.13655981  0.27781962  1
  O  O7  1  0.72218038  0.29329966  0.86344019  1
  O  O8  1  0.86344019  0.72218038  0.29329966  1
  O  O9  1  0.29329966  0.86344019  0.72218038  1
  O  O10  1  0.27781962  0.70670034  0.13655981  1
  O  O11  1  0.13655981  0.27781962  0.70670034  1
loop_
_geom_bond_atom_site_label_1
_geom_bond_atom_site_label_2
_geom_bond_distance
_geom_bond_site_symmetry_2
La0 O1 2.400672 1_655
La0 O2 2.400672 1_556
La0 O0 2.400672 1_565
La0 O5 2.731495 1_565
La0 O3 2.731495 1_655
La0 O4 2.731495 1_556
La1 O4 2.400672 1_455
La1 O5 2.400672 1_554
La1 O3 2.400672 1_545
La1 O2 2.731495 1_545
La1 O0 2.731495 1_455
La1 O1 2.731495 1_554
La2 O11 2.458892 1_655
La2 O10 2.458892 1_556
La2 O6 2.458892 1_565
La2 O5 2.552830 1_565
La2 O3 2.552830 1_655
La2 O4 2.552830 1_556
La3 O8 2.458892 1_455
La3 O7 2.458892 1_554
La3 O9 2.458892 1_545
La3 O2 2.552830 1_545
La3 O0 2.552830 1_455
La3 O1 2.552830 1_554
Mg0 O0 2.065668 1_555
Mg0 O3 2.065668 1_555
Mg0 O5 2.065669 1_555
Mg0 O2 2.065669 1_555
Mg0 O4 2.065669 1_555
Mg0 O1 2.065669 1_555
O0 Ti1 2.145639 1_555
O1 Ti1 2.145640 1_555
O2 Ti1 2.145640 1_555
O3 Ti2 2.145639 1_555
O4 Ti2 2.145640 1_555
O5 Ti2 2.145640 1_555
O6 Ti2 1.918092 1_555
O6 Ti0 2.018744 1_655
O7 Ti1 1.918092 1_555
O7 Ti0 2.018744 1_656
O8 Ti1 1.918092 1_555
O8 Ti0 2.018744 1_665
O9 Ti1 1.918092 1_555
O9 Ti0 2.018744 1_566
O10 Ti2 1.918092 1_555
O10 Ti0 2.018744 1_565
O11 Ti2 1.918092 1_555
O11 Ti0 2.018744 1_556
