# generated using pymatgen
data_Li2V(PO4)2
_symmetry_space_group_name_H-M   'P 1'
_cell_length_a   8.39637967
_cell_length_b   8.39637967
_cell_length_c   7.37938100
_cell_angle_alpha   90.00000000
_cell_angle_beta   90.00000000
_cell_angle_gamma   119.99999741
_symmetry_Int_Tables_number   1
_chemical_formula_structural   Li2V(PO4)2
_chemical_formula_sum   'Li6 V3 P6 O24'
_cell_volume   450.54140980
_cell_formula_units_Z   3
loop_
 _symmetry_equiv_pos_site_id
 _symmetry_equiv_pos_as_xyz
  1  'x, y, z'
loop_
 _atom_site_type_symbol
 _atom_site_label
 _atom_site_symmetry_multiplicity
 _atom_site_fract_x
 _atom_site_fract_y
 _atom_site_fract_z
 _atom_site_occupancy
  Li  Li0  1  0.96874800  0.30942200  0.63678600  1
  Li  Li1  1  0.34067500  0.03125200  0.63678600  1
  Li  Li2  1  0.30942200  0.34067500  0.36321400  1
  Li  Li3  1  0.69057800  0.65932500  0.63678600  1
  Li  Li4  1  0.65932500  0.96874800  0.36321400  1
  Li  Li5  1  0.03125200  0.69057800  0.36321400  1
  V  V0  1  0.00000000  0.00000000  0.00000000  1
  V  V1  1  0.66666700  0.33333300  0.92534300  1
  V  V2  1  0.33333300  0.66666700  0.07465700  1
  P  P0  1  0.96049600  0.30938000  0.21973500  1
  P  P1  1  0.34888500  0.03950400  0.21973500  1
  P  P2  1  0.30938000  0.34888500  0.78026500  1
  P  P3  1  0.69062000  0.65111500  0.21973500  1
  P  P4  1  0.65111500  0.96049600  0.78026500  1
  P  P5  1  0.03950400  0.69062000  0.78026500  1
  O  O0  1  0.85913500  0.06438800  0.84004200  1
  O  O1  1  0.86174000  0.23176600  0.39843000  1
  O  O2  1  0.59777000  0.11442100  0.76163100  1
  O  O3  1  0.81913400  0.28222700  0.07193100  1
  O  O4  1  0.46309300  0.18086600  0.07193100  1
  O  O5  1  0.37002600  0.13826000  0.39843000  1
  O  O6  1  0.88557900  0.48334900  0.76163100  1
  O  O7  1  0.20525400  0.14086500  0.84004200  1
  O  O8  1  0.51665100  0.40223000  0.76163100  1
  O  O9  1  0.06438800  0.20525400  0.15995800  1
  O  O10  1  0.71777300  0.53690700  0.07193100  1
  O  O11  1  0.76823400  0.62997400  0.39843000  1
  O  O12  1  0.23176600  0.37002600  0.60157000  1
  O  O13  1  0.28222700  0.46309300  0.92806900  1
  O  O14  1  0.93561200  0.79474600  0.84004200  1
  O  O15  1  0.48334900  0.59777000  0.23836900  1
  O  O16  1  0.79474600  0.85913500  0.15995800  1
  O  O17  1  0.11442100  0.51665100  0.23836900  1
  O  O18  1  0.62997400  0.86174000  0.60157000  1
  O  O19  1  0.53690700  0.81913400  0.92806900  1
  O  O20  1  0.18086600  0.71777300  0.92806900  1
  O  O21  1  0.40223000  0.88557900  0.23836900  1
  O  O22  1  0.13826000  0.76823400  0.60157000  1
  O  O23  1  0.14086500  0.93561200  0.15995800  1
loop_
_geom_bond_atom_site_label_1
_geom_bond_atom_site_label_2
_geom_bond_distance
_geom_bond_site_symmetry_2
Li0 O1 1.934004 1_555
Li0 O12 2.019836 1_655
Li0 O6 2.118688 1_555
Li0 O0 2.331548 1_555
Li1 O5 1.934005 1_555
Li1 O22 2.019839 1_545
Li1 O2 2.118681 1_555
Li1 O7 2.331548 1_555
Li2 O12 1.934002 1_555
Li2 O5 2.019845 1_555
Li2 O15 2.118683 1_555
Li2 O9 2.331548 1_555
Li3 O11 1.934002 1_555
Li3 O18 2.019845 1_555
Li3 O8 2.118683 1_555
Li3 O14 2.331548 1_555
Li4 O18 1.934005 1_555
Li4 O1 2.019839 1_565
Li4 O21 2.118681 1_555
Li4 O16 2.331548 1_555
Li5 O22 1.934004 1_555
Li5 O11 2.019836 1_455
Li5 O17 2.118688 1_555
Li5 O23 2.331548 1_555
O0 P4 1.575622 1_545
O0 V0 1.929751 1_656
O1 P0 1.520111 1_555
O2 P4 1.571221 1_545
O2 V1 2.027149 1_555
O3 P0 1.542662 1_555
O3 V1 1.882135 1_554
O4 P1 1.542660 1_555
O4 V1 1.882140 1_554
O5 P1 1.520112 1_555
O6 P5 1.571227 1_655
O6 V1 2.027151 1_555
O7 P2 1.575622 1_555
O7 V0 1.929756 1_556
O8 P2 1.571229 1_555
O8 V1 2.027156 1_555
O9 P0 1.575608 1_455
O9 V0 1.929758 1_555
O10 P3 1.542656 1_555
O10 V1 1.882142 1_554
O11 P3 1.520108 1_555
O12 P2 1.520108 1_555
O13 P2 1.542656 1_555
O13 V2 1.882142 1_556
O14 P5 1.575608 1_655
O14 V0 1.929758 1_666
O15 P3 1.571229 1_555
O15 V2 2.027156 1_555
O16 P3 1.575622 1_555
O16 V0 1.929756 1_665
O17 P0 1.571227 1_455
O17 V2 2.027151 1_555
O18 P4 1.520112 1_555
O19 P4 1.542660 1_555
O19 V2 1.882140 1_556
O20 P5 1.542662 1_555
O20 V2 1.882135 1_556
O21 P1 1.571221 1_565
O21 V2 2.027149 1_555
O22 P5 1.520111 1_555
O23 P1 1.575622 1_565
O23 V0 1.929751 1_565
