# generated using pymatgen
data_Na6Hf2Ti2Si5SO24
_symmetry_space_group_name_H-M   'P 1'
_cell_length_a   9.05475894
_cell_length_b   9.04111136
_cell_length_c   22.43744759
_cell_angle_alpha   90.05810106
_cell_angle_beta   89.95001000
_cell_angle_gamma   119.95548829
_symmetry_Int_Tables_number   1
_chemical_formula_structural   Na6Hf2Ti2Si5SO24
_chemical_formula_sum   'Na18 Hf6 Ti6 Si15 S3 O72'
_cell_volume   1591.46521967
_cell_formula_units_Z   3
loop_
 _symmetry_equiv_pos_site_id
 _symmetry_equiv_pos_as_xyz
  1  'x, y, z'
loop_
 _atom_site_type_symbol
 _atom_site_label
 _atom_site_symmetry_multiplicity
 _atom_site_fract_x
 _atom_site_fract_y
 _atom_site_fract_z
 _atom_site_occupancy
  Na  Na0  1  0.64070184  0.00727365  0.24868835  1
  Na  Na1  1  0.36325903  0.36744798  0.24816751  1
  Na  Na2  1  0.99707712  0.63099035  0.24938326  1
  Na  Na3  1  0.63607427  0.63602951  0.74946782  1
  Na  Na4  1  -0.00001344  0.36594489  0.75139278  1
  Na  Na5  1  0.36736778  0.00062504  0.75129423  1
  Na  Na6  1  0.30201243  0.33144402  0.58566076  1
  Na  Na7  1  0.02899511  0.69768079  0.58302687  1
  Na  Na8  1  0.67017772  0.97048048  0.58318448  1
  Na  Na9  1  0.03525585  0.32939120  0.08675187  1
  Na  Na10  1  0.96884481  0.66593869  0.91693243  1
  Na  Na11  1  0.33130347  0.02566920  0.41652642  1
  Na  Na12  1  0.98159066  0.98878552  0.49805804  1
  Na  Na13  1  0.01123591  0.00411768  0.00043037  1
  Na  Na14  1  0.66009175  0.31659145  0.83857300  1
  Na  Na15  1  0.68462672  0.33809449  0.33259213  1
  Na  Na16  1  0.34275499  0.67010874  0.16307504  1
  Na  Na17  1  0.33473610  0.66651835  0.66748404  1
  Hf  Hf0  1  0.98761237  0.99169712  0.35066970  1
  Hf  Hf1  1  0.99980190  0.99888219  0.64819962  1
  Hf  Hf2  1  0.66937852  0.33381552  0.68795124  1
  Hf  Hf3  1  0.68013390  0.33585207  0.47818974  1
  Hf  Hf4  1  0.33615813  0.67471086  0.51904118  1
  Hf  Hf5  1  0.32912628  0.67132323  0.81773421  1
  Ti  Ti0  1  0.01563685  0.01746100  0.85324843  1
  Ti  Ti1  1  0.01247562  0.99476342  0.14820542  1
  Ti  Ti2  1  0.66763453  0.34833466  0.18506777  1
  Ti  Ti3  1  0.65575490  0.32777583  0.98243797  1
  Ti  Ti4  1  0.30373066  0.65121874  0.01982340  1
  Ti  Ti5  1  0.32844326  0.67968020  0.30993061  1
  Si  Si0  1  0.29675614  0.00717219  0.25054367  1
  Si  Si1  1  0.70823381  0.71177778  0.24649311  1
  Si  Si2  1  0.99973084  0.29108043  0.24643567  1
  Si  Si3  1  0.29364402  0.29403755  0.75079131  1
  Si  Si4  1  0.99959939  0.71169910  0.75372391  1
  Si  Si5  1  0.71242346  0.99867723  0.75273199  1
  Si  Si6  1  0.96214735  0.33231342  0.58427822  1
  Si  Si7  1  0.37502093  0.04372416  0.58193284  1
  Si  Si8  1  0.66564457  0.62354222  0.58364150  1
  Si  Si9  1  0.94898831  0.62630745  0.08205758  1
  Si  Si10  1  0.37576603  0.33631467  0.08327531  1
  Si  Si11  1  0.02956094  0.36410670  0.91793849  1
  Si  Si12  1  0.33447099  0.96306770  0.91942600  1
  Si  Si13  1  0.62636736  0.95829617  0.41453978  1
  Si  Si14  1  0.03937953  0.66680039  0.41426414  1
  S  S0  1  0.66294764  0.04264617  0.08313268  1
  S  S1  1  0.62272552  0.66512380  0.91947229  1
  S  S2  1  0.33301406  0.37736648  0.41455774  1
  O  O0  1  0.21916874  0.04740319  0.30985559  1
  O  O1  1  0.83315126  0.78599183  0.30486687  1
  O  O2  1  0.96010216  0.16445874  0.30346727  1
  O  O3  1  0.19553812  0.16376158  0.80702221  1
  O  O4  1  0.97195598  0.80586739  0.81133902  1
  O  O5  1  0.84534128  0.02922554  0.80714404  1
  O  O6  1  0.78863047  0.96546343  0.69097198  1
  O  O7  1  0.17759746  0.21492824  0.69090322  1
  O  O8  1  0.03460938  0.82497840  0.69298166  1
  O  O9  1  0.80582906  0.84467751  0.19170095  1
  O  O10  1  0.03599092  0.20173562  0.18851963  1
  O  O11  1  0.16221441  0.96513367  0.19497243  1
  O  O12  1  0.88132707  0.37018237  0.64385408  1
  O  O13  1  0.49409192  0.12868233  0.64115162  1
  O  O14  1  0.63318773  0.50960731  0.64431370  1
  O  O15  1  0.86285067  0.50100876  0.14094410  1
  O  O16  1  0.63971760  0.12011893  0.13868679  1
  O  O17  1  0.49624196  0.35778349  0.14214394  1
  O  O18  1  0.47952316  0.31079038  0.02765796  1
  O  O19  1  0.83413208  0.52658381  0.02377897  1
  O  O20  1  0.68940229  0.15738316  0.03090822  1
  O  O21  1  0.46125021  0.16159456  0.52292325  1
  O  O22  1  0.69887713  0.52948087  0.52741237  1
  O  O23  1  0.83398548  0.29586239  0.52781473  1
  O  O24  1  0.53229305  0.68276650  0.97035443  1
  O  O25  1  0.15464133  0.46423898  0.97640125  1
  O  O26  1  0.30671056  0.82325451  0.97287341  1
  O  O27  1  0.54053840  0.84947975  0.47531566  1
  O  O28  1  0.31508402  0.45743557  0.47009909  1
  O  O29  1  0.15267540  0.68863275  0.47393283  1
  O  O30  1  0.14328880  0.64990171  0.35562089  1
  O  O31  1  0.50073370  0.85170857  0.35707631  1
  O  O32  1  0.35009157  0.47883114  0.36111791  1
  O  O33  1  0.12092316  0.48902920  0.86006228  1
  O  O34  1  0.36756015  0.88520743  0.85771059  1
  O  O35  1  0.52510336  0.64309672  0.86258545  1
  O  O36  1  0.04037095  0.84829827  0.41085067  1
  O  O37  1  0.81679319  0.98407638  0.41101234  1
  O  O38  1  0.17961293  0.20323629  0.41216084  1
  O  O39  1  0.01777410  0.17819478  0.91190771  1
  O  O40  1  0.15377867  0.96515117  0.91402556  1
  O  O41  1  0.79680516  0.81725534  0.91508138  1
  O  O42  1  0.97960961  0.16198728  0.58725418  1
  O  O43  1  0.18487837  0.02048830  0.58688344  1
  O  O44  1  0.83450753  0.81343100  0.58712165  1
  O  O45  1  0.97262999  0.81643524  0.09050002  1
  O  O46  1  0.82372190  0.03483216  0.08611574  1
  O  O47  1  0.18306839  0.16817530  0.08990157  1
  O  O48  1  0.69349736  0.16948063  0.74915479  1
  O  O49  1  0.47890407  0.30540208  0.74831171  1
  O  O50  1  0.82942092  0.52231910  0.74926007  1
  O  O51  1  0.68701018  0.51937075  0.23937212  1
  O  O52  1  0.83109308  0.31389693  0.23931605  1
  O  O53  1  0.48757961  0.16887706  0.24015724  1
  O  O54  1  0.64295425  0.50963960  0.92256028  1
  O  O55  1  0.84743704  0.35885996  0.92632497  1
  O  O56  1  0.50226968  0.15197392  0.92920733  1
  O  O57  1  0.62304008  0.13876514  0.41574903  1
  O  O58  1  0.48657153  0.35708379  0.41843770  1
  O  O59  1  0.85095386  0.49782633  0.41560131  1
  O  O60  1  0.35438982  0.50663491  0.07573104  1
  O  O61  1  0.13884418  0.63621809  0.07605007  1
  O  O62  1  0.51232830  0.87132001  0.07590283  1
  O  O63  1  0.35487945  0.85303855  0.57865735  1
  O  O64  1  0.49501974  0.64035272  0.57800947  1
  O  O65  1  0.15068187  0.49870081  0.57706738  1
  O  O66  1  0.31085893  0.83122776  0.25470811  1
  O  O67  1  0.51722902  0.68681422  0.25496611  1
  O  O68  1  0.17177190  0.48133332  0.25560714  1
  O  O69  1  0.31643772  0.48324183  0.75864468  1
  O  O70  1  0.16973523  0.69052911  0.75745489  1
  O  O71  1  0.52411544  0.82851107  0.75868958  1
loop_
_geom_bond_atom_site_label_1
_geom_bond_atom_site_label_2
_geom_bond_distance
_geom_bond_site_symmetry_2
Na0 O52 2.434999 1_555
Na0 O53 2.473415 1_555
Na0 O67 2.535720 1_545
Na0 O66 2.593085 1_545
Na0 O16 2.673386 1_555
Na0 O31 2.778530 1_545
Na0 O2 2.791532 1_555
Na0 O9 2.866963 1_545
Na1 O68 2.424123 1_555
Na1 O67 2.506699 1_555
Na1 O51 2.549044 1_555
Na1 O53 2.557309 1_555
Na1 O17 2.686330 1_555
Na1 O32 2.750508 1_555
Na1 O0 2.868023 1_555
Na1 O10 2.895908 1_555
Na2 O51 2.474374 1_555
Na2 O52 2.495029 1_555
Na2 O66 2.495527 1_655
Na2 O68 2.547672 1_655
Na2 O30 2.691214 1_655
Na2 O15 2.711303 1_555
Na2 O1 2.790589 1_555
Na2 O11 2.888946 1_655
Na3 O71 2.420683 1_555
Na3 O50 2.432966 1_555
Na3 O69 2.516758 1_555
Na3 O49 2.590961 1_555
Na3 O14 2.615081 1_555
Na3 O35 2.741328 1_555
Na3 O6 2.897922 1_555
Na3 O4 2.978925 1_555
Na4 O48 2.436497 1_455
Na4 O69 2.515433 1_555
Na4 O70 2.547137 1_555
Na4 O50 2.562658 1_455
Na4 O12 2.650236 1_455
Na4 O33 2.676723 1_555
Na4 O7 2.911691 1_555
Na4 O5 2.922490 1_455
Na5 O49 2.416290 1_555
Na5 O70 2.464084 1_545
Na5 O48 2.559502 1_555
Na5 O71 2.582632 1_545
Na5 O34 2.607095 1_545
Na5 O13 2.727392 1_555
Na5 O3 2.905901 1_555
Na5 O8 2.921722 1_545
Na6 O64 2.451521 1_555
Na6 O43 2.460053 1_555
Na6 O65 2.504368 1_555
Na6 O42 2.530636 1_455
Na6 O7 2.601954 1_555
Na6 O28 2.811682 1_555
Na6 O14 2.915069 1_555
Na6 O21 2.936307 1_555
Na7 O44 2.458631 1_455
Na7 O43 2.530497 1_565
Na7 O65 2.539123 1_555
Na7 O63 2.559377 1_555
Na7 O29 2.709030 1_555
Na7 O8 2.711055 1_555
Na7 O22 2.875378 1_455
Na7 O12 2.910157 1_455
Na8 O42 2.451924 1_565
Na8 O63 2.502290 1_555
Na8 O44 2.519599 1_555
Na8 O64 2.590302 1_555
Na8 O6 2.656089 1_555
Na8 O27 2.673897 1_555
Na8 O23 2.836260 1_565
Na8 O13 2.923985 1_565
Na9 O46 2.380572 1_455
Na9 O47 2.422687 1_555
Na9 O61 2.456688 1_555
Na9 O60 2.520809 1_555
Na9 O10 2.561074 1_555
Na9 O25 2.733269 1_554
Na9 O15 2.955470 1_455
Na9 O20 2.989119 1_455
Na10 O40 2.367021 1_655
Na10 O55 2.431821 1_555
Na10 O41 2.535453 1_555
Na10 O54 2.560437 1_555
Na10 O4 2.680485 1_555
Na10 O19 2.699796 1_556
Na10 O33 2.876639 1_655
Na10 O26 2.935195 1_655
Na11 O36 2.304102 1_545
Na11 O57 2.307906 1_555
Na11 O38 2.583819 1_555
Na11 O58 2.597976 1_555
Na11 O0 2.646216 1_555
Na11 O21 2.673704 1_555
Na12 O37 2.446320 1_555
Na12 O44 2.484717 1_555
Na12 O36 2.528551 1_655
Na12 O42 2.545476 1_565
Na12 O43 2.630755 1_665
Na12 O38 2.686730 1_665
Na13 O40 2.448860 1_544
Na13 O39 2.517673 1_554
Na13 O47 2.519064 1_555
Na13 O45 2.549323 1_445
Na13 O41 2.648672 1_444
Na13 O46 2.668385 1_455
Na14 O55 2.501457 1_555
Na14 O56 2.503970 1_555
Na14 O48 2.506216 1_555
Na14 O49 2.577410 1_555
Na14 O54 2.623905 1_555
Na14 O50 2.642059 1_555
Na15 O59 2.377000 1_555
Na15 O57 2.457936 1_555
Na15 O52 2.543782 1_555
Na15 O51 2.651982 1_555
Na15 O53 2.664497 1_555
Na15 O58 2.693771 1_555
Na16 O60 2.487071 1_555
Na16 O67 2.556645 1_555
Na16 O62 2.589423 1_555
Na16 O61 2.599184 1_555
Na16 O66 2.616408 1_555
Na16 O68 2.642574 1_555
Na17 O64 2.555294 1_555
Na17 O63 2.558962 1_555
Na17 O65 2.582569 1_555
Na17 O70 2.583070 1_555
Na17 O69 2.586309 1_555
Na17 O71 2.601022 1_555
Hf0 O1 1.967775 1_555
Hf0 O2 2.003953 1_565
Hf0 O37 2.029867 1_555
Hf0 O36 2.087010 1_655
Hf0 O0 2.105089 1_665
Hf0 O38 2.293945 1_665
Hf1 O8 2.019815 1_655
Hf1 O6 2.022104 1_555
Hf1 O7 2.045416 1_665
Hf1 O42 2.086086 1_565
Hf1 O43 2.099740 1_665
Hf1 O44 2.102921 1_555
Hf2 O14 2.028778 1_555
Hf2 O13 2.029955 1_555
Hf2 O12 2.034053 1_555
Hf2 O49 2.104513 1_555
Hf2 O50 2.104568 1_555
Hf2 O48 2.114173 1_555
Hf3 O23 1.953900 1_555
Hf3 O22 2.003232 1_555
Hf3 O59 2.060925 1_555
Hf3 O21 2.073422 1_555
Hf3 O57 2.116946 1_555
Hf3 O58 2.290569 1_555
Hf4 O27 1.990926 1_555
Hf4 O29 2.003116 1_555
Hf4 O63 2.034830 1_555
Hf4 O64 2.089646 1_555
Hf4 O65 2.092699 1_555
Hf4 O28 2.173216 1_555
Hf5 O34 1.997504 1_555
Hf5 O33 2.017315 1_555
Hf5 O70 2.048552 1_555
Hf5 O71 2.094284 1_555
Hf5 O69 2.112620 1_555
Hf5 O35 2.163951 1_555
O0 Si0 1.627724 1_555
O1 Si1 1.639494 1_555
O2 Si2 1.633631 1_555
O3 Si3 1.650582 1_555
O3 Ti0 1.823996 1_555
O4 Si4 1.633615 1_555
O4 Ti0 1.985391 1_665
O5 Si5 1.638666 1_545
O5 Ti0 1.904192 1_655
O6 Si5 1.640430 1_555
O7 Si3 1.634408 1_555
O8 Si4 1.638525 1_455
O9 Si1 1.636093 1_555
O9 Ti1 1.938755 1_655
O10 Si2 1.646498 1_455
O10 Ti1 1.991018 1_545
O11 Si0 1.650019 1_565
O11 Ti1 1.837652 1_555
O12 Si6 1.639267 1_555
O13 Si7 1.640523 1_555
O14 Si8 1.643323 1_555
O15 Si9 1.660197 1_555
O15 Ti2 1.890261 1_555
O16 S0 1.494493 1_555
O16 Ti2 2.208945 1_555
O17 Si10 1.662200 1_555
O17 Ti2 1.865070 1_555
O18 Si10 1.645318 1_555
O18 Ti3 1.830896 1_554
O19 Si9 1.633385 1_555
O19 Ti3 1.949346 1_554
O20 S0 1.503454 1_555
O20 Ti3 2.030159 1_554
O21 Si7 1.633539 1_555
O22 Si8 1.630402 1_555
O23 Si6 1.637109 1_555
O24 S1 1.458693 1_555
O24 Ti4 2.236882 1_556
O25 Si11 1.673093 1_555
O25 Ti4 1.830122 1_556
O26 Si12 1.668658 1_555
O26 Ti4 1.868441 1_556
O27 Si13 1.633632 1_555
O28 S2 1.489506 1_555
O29 Si14 1.638116 1_555
O30 Si14 1.667608 1_555
O30 Ti5 1.865746 1_555
O31 Si13 1.670448 1_555
O31 Ti5 1.883672 1_555
O32 S2 1.470858 1_555
O32 Ti5 2.239439 1_555
O33 Si11 1.647531 1_555
O34 Si12 1.646428 1_555
O35 S1 1.508595 1_555
O36 Si14 1.638347 1_555
O37 Si13 1.622378 1_555
O38 S2 1.492280 1_555
O39 Si11 1.635656 1_555
O39 Ti0 1.952580 1_555
O40 Si12 1.650173 1_555
O40 Ti0 2.059846 1_565
O41 S1 1.490297 1_555
O41 Ti0 2.354978 1_665
O42 Si6 1.626117 1_555
O43 Si7 1.630710 1_555
O44 Si8 1.633968 1_555
O45 Si9 1.633549 1_555
O45 Ti1 1.954918 1_655
O46 S0 1.493865 1_555
O46 Ti1 2.369947 1_645
O47 Si10 1.651844 1_555
O47 Ti1 2.034106 1_545
O48 Si5 1.638623 1_545
O49 Si3 1.629519 1_555
O50 Si4 1.637444 1_555
O51 Si1 1.659582 1_555
O51 Ti2 1.905844 1_555
O52 Si2 1.647661 1_555
O52 Ti2 2.057487 1_555
O53 Si0 1.629264 1_555
O53 Ti2 2.043839 1_555
O54 S1 1.507263 1_555
O54 Ti3 2.171881 1_555
O55 Si11 1.636614 1_655
O55 Ti3 2.046060 1_555
O56 Si12 1.637683 1_545
O56 Ti3 1.917641 1_555
O57 Si13 1.647086 1_545
O58 S2 1.493106 1_555
O59 Si14 1.625656 1_655
O60 Si10 1.653965 1_555
O60 Ti4 2.023834 1_555
O61 Si9 1.681455 1_455
O61 Ti4 1.906280 1_555
O62 S0 1.475076 1_565
O62 Ti4 2.314361 1_555
O63 Si7 1.642146 1_565
O64 Si8 1.631216 1_555
O65 Si6 1.624458 1_455
O66 Si0 1.660919 1_565
O66 Ti5 1.913005 1_555
O67 Si1 1.639498 1_555
O67 Ti5 2.081719 1_555
O68 Si2 1.658822 1_455
O68 Ti5 2.042553 1_555
O69 Si3 1.626877 1_555
O70 Si4 1.646701 1_455
O71 Si5 1.634756 1_555
