# generated using pymatgen
data_MgTe4MoW3S4
_symmetry_space_group_name_H-M   'P 1'
_cell_length_a   6.69906002
_cell_length_b   6.69881546
_cell_length_c   76.19349615
_cell_angle_alpha   90.00706659
_cell_angle_beta   89.99454082
_cell_angle_gamma   120.00701938
_symmetry_Int_Tables_number   1
_chemical_formula_structural   MgTe4MoW3S4
_chemical_formula_sum   'Mg8 Te32 Mo8 W24 S32'
_cell_volume   2960.94056441
_cell_formula_units_Z   8
loop_
 _symmetry_equiv_pos_site_id
 _symmetry_equiv_pos_as_xyz
  1  'x, y, z'
loop_
 _atom_site_type_symbol
 _atom_site_label
 _atom_site_symmetry_multiplicity
 _atom_site_fract_x
 _atom_site_fract_y
 _atom_site_fract_z
 _atom_site_occupancy
  Mg  Mg0_0  1  0.14556800  0.32195400  0.43788250  1
  Mg  Mg0_1  1  0.14556800  0.32195400  0.93788250  1
  Mg  Mg0_2  1  0.14556800  0.82195400  0.43788250  1
  Mg  Mg0_3  1  0.14556800  0.82195400  0.93788250  1
  Mg  Mg0_4  1  0.64556800  0.32195400  0.43788250  1
  Mg  Mg0_5  1  0.64556800  0.32195400  0.93788250  1
  Mg  Mg0_6  1  0.64556800  0.82195400  0.43788250  1
  Mg  Mg0_7  1  0.64556800  0.82195400  0.93788250  1
  Te  Te0_0  1  0.16667600  0.33350400  0.35377900  1
  Te  Te0_1  1  0.16667600  0.33350400  0.85377900  1
  Te  Te0_2  1  0.16667600  0.83350400  0.35377900  1
  Te  Te0_3  1  0.16667600  0.83350400  0.85377900  1
  Te  Te0_4  1  0.66667600  0.33350400  0.35377900  1
  Te  Te0_5  1  0.66667600  0.33350400  0.85377900  1
  Te  Te0_6  1  0.66667600  0.83350400  0.35377900  1
  Te  Te0_7  1  0.66667600  0.83350400  0.85377900  1
  Te  Te1_0  1  0.33328800  0.16656500  0.02193700  1
  Te  Te1_1  1  0.33328800  0.16656500  0.52193700  1
  Te  Te1_2  1  0.33328800  0.66656500  0.02193700  1
  Te  Te1_3  1  0.33328800  0.66656500  0.52193700  1
  Te  Te1_4  1  0.83328800  0.16656500  0.02193700  1
  Te  Te1_5  1  0.83328800  0.16656500  0.52193700  1
  Te  Te1_6  1  0.83328800  0.66656500  0.02193700  1
  Te  Te1_7  1  0.83328800  0.66656500  0.52193700  1
  Te  Te2_0  1  0.33327750  0.16662500  0.07165450  1
  Te  Te2_1  1  0.33327750  0.16662500  0.57165450  1
  Te  Te2_2  1  0.33327750  0.66662500  0.07165450  1
  Te  Te2_3  1  0.33327750  0.66662500  0.57165450  1
  Te  Te2_4  1  0.83327750  0.16662500  0.07165450  1
  Te  Te2_5  1  0.83327750  0.16662500  0.57165450  1
  Te  Te2_6  1  0.83327750  0.66662500  0.07165450  1
  Te  Te2_7  1  0.83327750  0.66662500  0.57165450  1
  Te  Te3_0  1  0.16671450  0.33342300  0.30382550  1
  Te  Te3_1  1  0.16671450  0.33342300  0.80382550  1
  Te  Te3_2  1  0.16671450  0.83342300  0.30382550  1
  Te  Te3_3  1  0.16671450  0.83342300  0.80382550  1
  Te  Te3_4  1  0.66671450  0.33342300  0.30382550  1
  Te  Te3_5  1  0.66671450  0.33342300  0.80382550  1
  Te  Te3_6  1  0.66671450  0.83342300  0.30382550  1
  Te  Te3_7  1  0.66671450  0.83342300  0.80382550  1
  Mo  Mo0_0  1  0.16661550  0.33325200  0.04677150  1
  Mo  Mo0_1  1  0.16661550  0.33325200  0.54677150  1
  Mo  Mo0_2  1  0.16661550  0.83325200  0.04677150  1
  Mo  Mo0_3  1  0.16661550  0.83325200  0.54677150  1
  Mo  Mo0_4  1  0.66661550  0.33325200  0.04677150  1
  Mo  Mo0_5  1  0.66661550  0.33325200  0.54677150  1
  Mo  Mo0_6  1  0.66661550  0.83325200  0.04677150  1
  Mo  Mo0_7  1  0.66661550  0.83325200  0.54677150  1
  W  W0_0  1  0.16659850  0.33321050  0.23460900  1
  W  W0_1  1  0.16659850  0.33321050  0.73460900  1
  W  W0_2  1  0.16659850  0.83321050  0.23460900  1
  W  W0_3  1  0.16659850  0.83321050  0.73460900  1
  W  W0_4  1  0.66659850  0.33321050  0.23460900  1
  W  W0_5  1  0.66659850  0.33321050  0.73460900  1
  W  W0_6  1  0.66659850  0.83321050  0.23460900  1
  W  W0_7  1  0.66659850  0.83321050  0.73460900  1
  W  W1_0  1  0.33335400  0.16674750  0.14098500  1
  W  W1_1  1  0.33335400  0.16674750  0.64098500  1
  W  W1_2  1  0.33335400  0.66674750  0.14098500  1
  W  W1_3  1  0.33335400  0.66674750  0.64098500  1
  W  W1_4  1  0.83335400  0.16674750  0.14098500  1
  W  W1_5  1  0.83335400  0.16674750  0.64098500  1
  W  W1_6  1  0.83335400  0.66674750  0.14098500  1
  W  W1_7  1  0.83335400  0.66674750  0.64098500  1
  W  W2_0  1  0.33336150  0.16679650  0.32881950  1
  W  W2_1  1  0.33336150  0.16679650  0.82881950  1
  W  W2_2  1  0.33336150  0.66679650  0.32881950  1
  W  W2_3  1  0.33336150  0.66679650  0.82881950  1
  W  W2_4  1  0.83336150  0.16679650  0.32881950  1
  W  W2_5  1  0.83336150  0.16679650  0.82881950  1
  W  W2_6  1  0.83336150  0.66679650  0.32881950  1
  W  W2_7  1  0.83336150  0.66679650  0.82881950  1
  S  S0_0  1  0.16669550  0.33340950  0.16093500  1
  S  S0_1  1  0.16669550  0.33340950  0.66093500  1
  S  S0_2  1  0.16669550  0.83340950  0.16093500  1
  S  S0_3  1  0.16669550  0.83340950  0.66093500  1
  S  S0_4  1  0.66669550  0.33340950  0.16093500  1
  S  S0_5  1  0.66669550  0.33340950  0.66093500  1
  S  S0_6  1  0.66669550  0.83340950  0.16093500  1
  S  S0_7  1  0.66669550  0.83340950  0.66093500  1
  S  S1_0  1  0.33327050  0.16651850  0.21466750  1
  S  S1_1  1  0.33327050  0.16651850  0.71466750  1
  S  S1_2  1  0.33327050  0.66651850  0.21466750  1
  S  S1_3  1  0.33327050  0.66651850  0.71466750  1
  S  S1_4  1  0.83327050  0.16651850  0.21466750  1
  S  S1_5  1  0.83327050  0.16651850  0.71466750  1
  S  S1_6  1  0.83327050  0.66651850  0.21466750  1
  S  S1_7  1  0.83327050  0.66651850  0.71466750  1
  S  S2_0  1  0.33326100  0.16657000  0.25457300  1
  S  S2_1  1  0.33326100  0.16657000  0.75457300  1
  S  S2_2  1  0.33326100  0.66657000  0.25457300  1
  S  S2_3  1  0.33326100  0.66657000  0.75457300  1
  S  S2_4  1  0.83326100  0.16657000  0.25457300  1
  S  S2_5  1  0.83326100  0.16657000  0.75457300  1
  S  S2_6  1  0.83326100  0.66657000  0.25457300  1
  S  S2_7  1  0.83326100  0.66657000  0.75457300  1
  S  S3_0  1  0.16671050  0.33336800  0.12107150  1
  S  S3_1  1  0.16671050  0.33336800  0.62107150  1
  S  S3_2  1  0.16671050  0.83336800  0.12107150  1
  S  S3_3  1  0.16671050  0.83336800  0.62107150  1
  S  S3_4  1  0.66671050  0.33336800  0.12107150  1
  S  S3_5  1  0.66671050  0.33336800  0.62107150  1
  S  S3_6  1  0.66671050  0.83336800  0.12107150  1
  S  S3_7  1  0.66671050  0.83336800  0.62107150  1
loop_
_geom_bond_atom_site_label_1
_geom_bond_atom_site_label_2
_geom_bond_distance
_geom_bond_site_symmetry_2
Mg0_0 Mg0_6 3.349113 1_445
Mg0_0 Mg0_6 3.349113 1_555
Mg0_0 Mg0_2 3.349408 1_555
Mg0_0 Mg0_2 3.349408 1_545
Mg0_0 Mg0_4 3.349530 1_455
Mg0_0 Mg0_4 3.349530 1_555
Mg0_1 Mg0_7 3.349113 1_445
Mg0_1 Mg0_7 3.349113 1_555
Mg0_1 Mg0_3 3.349408 1_555
Mg0_1 Mg0_3 3.349408 1_545
Mg0_1 Mg0_5 3.349530 1_455
Mg0_1 Mg0_5 3.349530 1_555
Mg0_2 Mg0_4 3.349113 1_565
Mg0_2 Mg0_4 3.349113 1_455
Mg0_2 Mg0_6 3.349530 1_455
Mg0_2 Mg0_6 3.349530 1_555
Mg0_3 Mg0_5 3.349113 1_565
Mg0_3 Mg0_5 3.349113 1_455
Mg0_3 Mg0_7 3.349530 1_455
Mg0_3 Mg0_7 3.349530 1_555
Mg0_4 Mg0_6 3.349408 1_545
Mg0_4 Mg0_6 3.349408 1_555
Mg0_5 Mg0_7 3.349408 1_555
Mg0_5 Mg0_7 3.349408 1_545
Te0_0 W2_2 2.712078 1_555
Te0_0 W2_4 2.712153 1_455
Te0_0 W2_0 2.712376 1_555
Te0_1 W2_3 2.712078 1_555
Te0_1 W2_5 2.712153 1_455
Te0_1 W2_1 2.712376 1_555
Te0_2 W2_0 2.712078 1_565
Te0_2 W2_6 2.712153 1_455
Te0_2 W2_2 2.712376 1_555
Te0_3 W2_1 2.712078 1_565
Te0_3 W2_7 2.712153 1_455
Te0_3 W2_3 2.712376 1_555
Te0_4 W2_6 2.712078 1_555
Te0_4 W2_0 2.712153 1_555
Te0_4 W2_4 2.712376 1_555
Te0_5 W2_7 2.712078 1_555
Te0_5 W2_1 2.712153 1_555
Te0_5 W2_5 2.712376 1_555
Te0_6 W2_4 2.712078 1_565
Te0_6 W2_2 2.712153 1_555
Te0_6 W2_6 2.712376 1_555
Te0_7 W2_5 2.712078 1_565
Te0_7 W2_3 2.712153 1_555
Te0_7 W2_7 2.712376 1_555
Te3_0 W2_2 2.714020 1_555
Te3_0 W2_4 2.714051 1_455
Te3_0 W2_0 2.714068 1_555
Te3_1 W2_3 2.714020 1_555
Te3_1 W2_5 2.714051 1_455
Te3_1 W2_1 2.714068 1_555
Te3_2 W2_0 2.714020 1_565
Te3_2 W2_6 2.714051 1_455
Te3_2 W2_2 2.714068 1_555
Te3_3 W2_1 2.714020 1_565
Te3_3 W2_7 2.714051 1_455
Te3_3 W2_3 2.714068 1_555
Te3_4 W2_6 2.714020 1_555
Te3_4 W2_0 2.714051 1_555
Te3_4 W2_4 2.714068 1_555
Te3_5 W2_7 2.714020 1_555
Te3_5 W2_1 2.714051 1_555
Te3_5 W2_5 2.714068 1_555
Te3_6 W2_4 2.714020 1_565
Te3_6 W2_2 2.714051 1_555
Te3_6 W2_6 2.714068 1_555
Te3_7 W2_5 2.714020 1_565
Te3_7 W2_3 2.714051 1_555
Te3_7 W2_7 2.714068 1_555
Mo0_0 Te1_2 2.705492 1_555
Mo0_0 Te1_4 2.705537 1_455
Mo0_0 Te1_0 2.705568 1_555
Mo0_0 Te2_4 2.708062 1_455
Mo0_0 Te2_2 2.708090 1_555
Mo0_0 Te2_0 2.708203 1_555
Mo0_1 Te1_3 2.705492 1_555
Mo0_1 Te1_5 2.705537 1_455
Mo0_1 Te1_1 2.705568 1_555
Mo0_1 Te2_5 2.708062 1_455
Mo0_1 Te2_3 2.708090 1_555
Mo0_1 Te2_1 2.708203 1_555
Mo0_2 Te1_0 2.705492 1_565
Mo0_2 Te1_6 2.705537 1_455
Mo0_2 Te1_2 2.705568 1_555
Mo0_2 Te2_6 2.708062 1_455
Mo0_2 Te2_0 2.708090 1_565
Mo0_2 Te2_2 2.708203 1_555
Mo0_3 Te1_1 2.705492 1_565
Mo0_3 Te1_7 2.705537 1_455
Mo0_3 Te1_3 2.705568 1_555
Mo0_3 Te2_7 2.708062 1_455
Mo0_3 Te2_1 2.708090 1_565
Mo0_3 Te2_3 2.708203 1_555
Mo0_4 Te1_6 2.705492 1_555
Mo0_4 Te1_0 2.705537 1_555
Mo0_4 Te1_4 2.705568 1_555
Mo0_4 Te2_0 2.708062 1_555
Mo0_4 Te2_6 2.708090 1_555
Mo0_4 Te2_4 2.708203 1_555
Mo0_5 Te1_7 2.705492 1_555
Mo0_5 Te1_1 2.705537 1_555
Mo0_5 Te1_5 2.705568 1_555
Mo0_5 Te2_1 2.708062 1_555
Mo0_5 Te2_7 2.708090 1_555
Mo0_5 Te2_5 2.708203 1_555
Mo0_6 Te1_4 2.705492 1_565
Mo0_6 Te1_2 2.705537 1_555
Mo0_6 Te1_6 2.705568 1_555
Mo0_6 Te2_2 2.708062 1_555
Mo0_6 Te2_4 2.708090 1_565
Mo0_6 Te2_6 2.708203 1_555
Mo0_7 Te1_5 2.705492 1_565
Mo0_7 Te1_3 2.705537 1_555
Mo0_7 Te1_7 2.705568 1_555
Mo0_7 Te2_3 2.708062 1_555
Mo0_7 Te2_5 2.708090 1_565
Mo0_7 Te2_7 2.708203 1_555
S0_0 W1_0 2.459566 1_555
S0_0 W1_2 2.459712 1_555
S0_0 W1_4 2.459725 1_455
S0_1 W1_1 2.459566 1_555
S0_1 W1_3 2.459712 1_555
S0_1 W1_5 2.459725 1_455
S0_2 W1_2 2.459566 1_555
S0_2 W1_0 2.459712 1_565
S0_2 W1_6 2.459725 1_455
S0_3 W1_3 2.459566 1_555
S0_3 W1_1 2.459712 1_565
S0_3 W1_7 2.459725 1_455
S0_4 W1_4 2.459566 1_555
S0_4 W1_6 2.459712 1_555
S0_4 W1_0 2.459725 1_555
S0_5 W1_5 2.459566 1_555
S0_5 W1_7 2.459712 1_555
S0_5 W1_1 2.459725 1_555
S0_6 W1_6 2.459566 1_555
S0_6 W1_4 2.459712 1_565
S0_6 W1_2 2.459725 1_555
S0_7 W1_7 2.459566 1_555
S0_7 W1_5 2.459712 1_565
S0_7 W1_3 2.459725 1_555
S1_0 W0_2 2.459175 1_545
S1_0 W0_4 2.459264 1_555
S1_0 W0_0 2.459364 1_555
S1_1 W0_3 2.459175 1_545
S1_1 W0_5 2.459264 1_555
S1_1 W0_1 2.459364 1_555
S1_2 W0_0 2.459175 1_555
S1_2 W0_6 2.459264 1_555
S1_2 W0_2 2.459364 1_555
S1_3 W0_1 2.459175 1_555
S1_3 W0_7 2.459264 1_555
S1_3 W0_3 2.459364 1_555
S1_4 W0_6 2.459175 1_545
S1_4 W0_0 2.459264 1_655
S1_4 W0_4 2.459364 1_555
S1_5 W0_7 2.459175 1_545
S1_5 W0_1 2.459264 1_655
S1_5 W0_5 2.459364 1_555
S1_6 W0_4 2.459175 1_555
S1_6 W0_2 2.459264 1_655
S1_6 W0_6 2.459364 1_555
S1_7 W0_5 2.459175 1_555
S1_7 W0_3 2.459264 1_655
S1_7 W0_7 2.459364 1_555
S2_0 W0_2 2.460261 1_545
S2_0 W0_4 2.460274 1_555
S2_0 W0_0 2.460447 1_555
S2_1 W0_3 2.460261 1_545
S2_1 W0_5 2.460274 1_555
S2_1 W0_1 2.460447 1_555
S2_2 W0_0 2.460261 1_555
S2_2 W0_6 2.460274 1_555
S2_2 W0_2 2.460447 1_555
S2_3 W0_1 2.460261 1_555
S2_3 W0_7 2.460274 1_555
S2_3 W0_3 2.460447 1_555
S2_4 W0_6 2.460261 1_545
S2_4 W0_0 2.460274 1_655
S2_4 W0_4 2.460447 1_555
S2_5 W0_7 2.460261 1_545
S2_5 W0_1 2.460274 1_655
S2_5 W0_5 2.460447 1_555
S2_6 W0_4 2.460261 1_555
S2_6 W0_2 2.460274 1_655
S2_6 W0_6 2.460447 1_555
S2_7 W0_5 2.460261 1_555
S2_7 W0_3 2.460274 1_655
S2_7 W0_7 2.460447 1_555
S3_0 W1_0 2.457892 1_555
S3_0 W1_2 2.457975 1_555
S3_0 W1_4 2.457984 1_455
S3_1 W1_1 2.457892 1_555
S3_1 W1_3 2.457975 1_555
S3_1 W1_5 2.457984 1_455
S3_2 W1_2 2.457892 1_555
S3_2 W1_0 2.457975 1_565
S3_2 W1_6 2.457984 1_455
S3_3 W1_3 2.457892 1_555
S3_3 W1_1 2.457975 1_565
S3_3 W1_7 2.457984 1_455
S3_4 W1_4 2.457892 1_555
S3_4 W1_6 2.457975 1_555
S3_4 W1_0 2.457984 1_555
S3_5 W1_5 2.457892 1_555
S3_5 W1_7 2.457975 1_555
S3_5 W1_1 2.457984 1_555
S3_6 W1_6 2.457892 1_555
S3_6 W1_4 2.457975 1_565
S3_6 W1_2 2.457984 1_555
S3_7 W1_7 2.457892 1_555
S3_7 W1_5 2.457975 1_565
S3_7 W1_3 2.457984 1_555
