# generated using pymatgen
data_NiP2O7
_symmetry_space_group_name_H-M   'P 1'
_cell_length_a   8.29225300
_cell_length_b   6.99702200
_cell_length_c   9.71070982
_cell_angle_alpha   72.42251334
_cell_angle_beta   90.00000000
_cell_angle_gamma   90.00000000
_symmetry_Int_Tables_number   1
_chemical_formula_structural   NiP2O7
_chemical_formula_sum   'Ni4 P8 O28'
_cell_volume   537.11915129
_cell_formula_units_Z   4
loop_
 _symmetry_equiv_pos_site_id
 _symmetry_equiv_pos_as_xyz
  1  'x, y, z'
loop_
 _atom_site_type_symbol
 _atom_site_label
 _atom_site_symmetry_multiplicity
 _atom_site_fract_x
 _atom_site_fract_y
 _atom_site_fract_z
 _atom_site_occupancy
  Ni  Ni0  1  0.22961900  0.27655200  0.00592000  1
  Ni  Ni1  1  0.77038100  0.72344800  0.99408000  1
  Ni  Ni2  1  0.72961900  0.72344800  0.49408000  1
  Ni  Ni3  1  0.27038100  0.27655200  0.50592000  1
  P  P0  1  0.03310200  0.06128500  0.79189700  1
  P  P1  1  0.58141700  0.46003900  0.29176700  1
  P  P2  1  0.53310200  0.93871500  0.70810300  1
  P  P3  1  0.91858300  0.46003900  0.79176700  1
  P  P4  1  0.41858300  0.53996100  0.70823300  1
  P  P5  1  0.96689800  0.93871500  0.20810300  1
  P  P6  1  0.46689800  0.06128500  0.29189700  1
  P  P7  1  0.08141700  0.53996100  0.20823300  1
  O  O0  1  0.89386800  0.90239200  0.35701700  1
  O  O1  1  0.82566000  0.92848300  0.10675700  1
  O  O2  1  0.10613200  0.09760800  0.64298300  1
  O  O3  1  0.27905300  0.50101000  0.61517500  1
  O  O4  1  0.05377600  0.13668900  0.14860300  1
  O  O5  1  0.60613200  0.90239200  0.85701700  1
  O  O6  1  0.44622400  0.13668900  0.64860300  1
  O  O7  1  0.32566000  0.07151700  0.39324300  1
  O  O8  1  0.60014300  0.23216500  0.28687800  1
  O  O9  1  0.42181400  0.47099100  0.36691100  1
  O  O10  1  0.40569500  0.39884200  0.86028500  1
  O  O11  1  0.22094700  0.50101000  0.11517500  1
  O  O12  1  0.59430500  0.60115800  0.13971500  1
  O  O13  1  0.55377600  0.86331100  0.35139700  1
  O  O14  1  0.77905300  0.49899000  0.88482500  1
  O  O15  1  0.07818600  0.47099100  0.86691100  1
  O  O16  1  0.09430500  0.39884200  0.36028500  1
  O  O17  1  0.89985700  0.23216500  0.78687800  1
  O  O18  1  0.10014300  0.76783500  0.21312200  1
  O  O19  1  0.92181400  0.52900900  0.13308900  1
  O  O20  1  0.94622400  0.86331100  0.85139700  1
  O  O21  1  0.39985700  0.76783500  0.71312200  1
  O  O22  1  0.39386800  0.09760800  0.14298300  1
  O  O23  1  0.57818600  0.52900900  0.63308900  1
  O  O24  1  0.67434000  0.92848300  0.60675700  1
  O  O25  1  0.90569500  0.60115800  0.63971500  1
  O  O26  1  0.72094700  0.49899000  0.38482500  1
  O  O27  1  0.17434000  0.07151700  0.89324300  1
loop_
_geom_bond_atom_site_label_1
_geom_bond_atom_site_label_2
_geom_bond_distance
_geom_bond_site_symmetry_2
Ni0 O10 2.032999 1_554
Ni0 O15 2.034875 1_554
Ni0 O4 2.045641 1_555
Ni0 O22 2.046383 1_555
Ni0 O27 2.100861 1_554
Ni0 O11 2.145638 1_555
Ni1 O12 2.032999 1_556
Ni1 O19 2.034875 1_556
Ni1 O20 2.045641 1_555
Ni1 O5 2.046383 1_555
Ni1 O1 2.100861 1_556
Ni1 O14 2.145638 1_555
Ni2 O25 2.032999 1_555
Ni2 O23 2.034875 1_555
Ni2 O13 2.045641 1_555
Ni2 O0 2.046383 1_555
Ni2 O24 2.100861 1_555
Ni2 O26 2.145638 1_555
Ni3 O16 2.032999 1_555
Ni3 O9 2.034875 1_555
Ni3 O6 2.045641 1_555
Ni3 O2 2.046383 1_555
Ni3 O7 2.100861 1_555
Ni3 O3 2.145638 1_555
O0 P5 1.516719 1_555
O1 P5 1.545277 1_555
O2 P0 1.516719 1_555
O3 P4 1.542181 1_555
O4 P5 1.512706 1_445
O5 P2 1.516719 1_555
O6 P2 1.512706 1_545
O7 P6 1.545277 1_555
O8 P1 1.616887 1_555
O8 P6 1.617890 1_555
O9 P1 1.524362 1_555
O10 P4 1.511942 1_555
O11 P7 1.542181 1_555
O12 P1 1.511942 1_555
O13 P6 1.512706 1_565
O14 P3 1.542181 1_555
O15 P3 1.524362 1_455
O16 P7 1.511942 1_555
O17 P3 1.616887 1_555
O17 P0 1.617890 1_655
O18 P7 1.616887 1_555
O18 P5 1.617890 1_455
O19 P7 1.524362 1_655
O20 P0 1.512706 1_665
O21 P4 1.616887 1_555
O21 P2 1.617890 1_555
O22 P6 1.516719 1_555
O23 P4 1.524362 1_555
O24 P2 1.545277 1_555
O25 P3 1.511942 1_555
O26 P1 1.542181 1_555
O27 P0 1.545277 1_555
