# generated using pymatgen
data_Y2Mg(FeO3)2
_symmetry_space_group_name_H-M   'P 1'
_cell_length_a   3.58516933
_cell_length_b   3.58516897
_cell_length_c   13.83427109
_cell_angle_alpha   88.12008517
_cell_angle_beta   91.87991474
_cell_angle_gamma   122.71820030
_symmetry_Int_Tables_number   1
_chemical_formula_structural   Y2Mg(FeO3)2
_chemical_formula_sum   'Y2 Mg1 Fe2 O6'
_cell_volume   149.50064686
_cell_formula_units_Z   1
loop_
 _symmetry_equiv_pos_site_id
 _symmetry_equiv_pos_as_xyz
  1  'x, y, z'
loop_
 _atom_site_type_symbol
 _atom_site_label
 _atom_site_symmetry_multiplicity
 _atom_site_fract_x
 _atom_site_fract_y
 _atom_site_fract_z
 _atom_site_occupancy
  Y  Y0  1  0.97320950  0.02679050  0.55752855  1
  Y  Y1  1  0.01494450  0.98505550  0.97501118  1
  Mg  Mg0  1  0.63488285  0.36511715  0.36657357  1
  Fe  Fe0  1  0.66894569  0.33105131  0.75508998  1
  Fe  Fe1  1  0.32424270  0.67575930  0.20094308  1
  O  O0  1  0.32947227  0.67052973  0.42969246  1
  O  O1  1  0.68281159  0.31718541  0.90952711  1
  O  O2  1  0.65240274  0.34759426  0.58979706  1
  O  O3  1  0.35943104  0.64057096  0.06442259  1
  O  O4  1  0.03723893  0.96276107  0.26562904  1
  O  O5  1  0.98312918  0.01687082  0.73023040  1
loop_
_geom_bond_atom_site_label_1
_geom_bond_atom_site_label_2
_geom_bond_distance
_geom_bond_site_symmetry_2
Mg0 O0 2.140523 1_555
Mg0 O0 2.266069 1_545
Mg0 O0 2.266074 1_655
Mg0 O4 2.283999 1_655
Mg0 O4 2.283999 1_545
Fe0 O5 2.019455 1_555
Fe0 O5 2.099667 1_455
Fe0 O5 2.099676 1_565
Fe0 O1 2.135045 1_555
Fe0 O2 2.285185 1_555
Fe1 O3 1.909802 1_555
Fe1 O4 2.045398 1_555
Fe1 O4 2.336836 1_655
Fe1 O4 2.336841 1_545
O0 Y0 2.603706 1_565
O0 Y0 2.603710 1_455
O0 Y0 2.906958 1_465
O1 Y1 2.227380 1_545
O1 Y1 2.227388 1_655
O1 Y1 2.246699 1_645
O2 Y0 2.083818 1_555
O2 Y0 2.094350 1_455
O2 Y0 2.094358 1_565
O3 Y1 2.351870 1_654
O3 Y1 2.351875 1_544
O3 Y1 2.455423 1_554
O5 Y0 2.387686 1_555
