# generated using pymatgen
data_MgV2Cr4O12
_symmetry_space_group_name_H-M   'P 1'
_cell_length_a   5.10470209
_cell_length_b   5.10574373
_cell_length_c   8.67952388
_cell_angle_alpha   90.84477677
_cell_angle_beta   90.81019517
_cell_angle_gamma   78.23736105
_symmetry_Int_Tables_number   1
_chemical_formula_structural   MgV2Cr4O12
_chemical_formula_sum   'Mg1 V2 Cr4 O12'
_cell_volume   221.42820498
_cell_formula_units_Z   1
loop_
 _symmetry_equiv_pos_site_id
 _symmetry_equiv_pos_as_xyz
  1  'x, y, z'
loop_
 _atom_site_type_symbol
 _atom_site_label
 _atom_site_symmetry_multiplicity
 _atom_site_fract_x
 _atom_site_fract_y
 _atom_site_fract_z
 _atom_site_occupancy
  Mg  Mg0  1  0.80780247  0.79574565  0.17517828  1
  V  V0  1  0.07668447  0.07959616  0.98547979  1
  V  V1  1  0.49630824  0.49639455  0.50674674  1
  Cr  Cr0  1  0.08075441  0.08228546  0.35650761  1
  Cr  Cr1  1  0.92920940  0.92810279  0.66685107  1
  Cr  Cr2  1  0.47260802  0.47196413  0.16360469  1
  Cr  Cr3  1  0.51019909  0.51044712  0.82920519  1
  O  O0  1  0.18998450  0.82389509  0.15705777  1
  O  O1  1  0.19118705  0.80330783  0.50400705  1
  O  O2  1  0.18822594  0.81406185  0.84374261  1
  O  O3  1  0.29503529  0.30040729  0.98734132  1
  O  O4  1  0.31625467  0.32237868  0.34017144  1
  O  O5  1  0.34625575  0.34717467  0.65161100  1
  O  O6  1  0.65007345  0.64596331  0.00823526  1
  O  O7  1  0.64328600  0.63661253  0.33502747  1
  O  O8  1  0.67978977  0.67607340  0.65919432  1
  O  O9  1  0.81999631  0.18376433  0.15609583  1
  O  O10  1  0.79958211  0.18574272  0.50289001  1
  O  O11  1  0.81231806  0.18774945  0.84248057  1
loop_
_geom_bond_atom_site_label_1
_geom_bond_atom_site_label_2
_geom_bond_distance
_geom_bond_site_symmetry_2
Mg0 O6 1.875651 1_555
Mg0 O7 1.906497 1_555
Mg0 O0 1.993782 1_655
Mg0 O9 2.004097 1_565
Cr0 O4 1.891770 1_555
Cr0 O10 1.917296 1_455
Cr0 O1 1.921360 1_545
Cr0 O0 2.169846 1_545
Cr0 O9 2.178521 1_455
Cr1 O10 1.966508 1_565
Cr1 O1 1.967642 1_655
Cr1 O8 1.986053 1_555
Cr1 O11 2.020112 1_565
Cr1 O2 2.024738 1_655
Cr2 O6 1.956135 1_555
Cr2 O4 1.971438 1_555
Cr2 O7 1.976012 1_555
Cr2 O3 2.043143 1_554
Cr2 O9 2.061718 1_555
Cr2 O0 2.063280 1_555
Cr3 O6 1.881887 1_556
Cr3 O5 1.995342 1_555
Cr3 O8 2.003349 1_555
Cr3 O11 2.017656 1_555
Cr3 O2 2.020303 1_555
Cr3 O3 2.192393 1_555
O0 V0 1.995451 1_564
O1 V1 1.971553 1_555
O2 V0 1.825260 1_565
O3 V0 1.739244 1_555
O4 V1 1.995492 1_555
O5 V1 1.743998 1_555
O7 V1 1.891813 1_555
O8 V1 1.936269 1_555
O9 V0 1.985013 1_654
O10 V1 1.977954 1_555
O11 V0 1.826366 1_655
