# generated using pymatgen
data_Na4CaSiSn(PO6)2
_symmetry_space_group_name_H-M   'P 1'
_cell_length_a   9.33904139
_cell_length_b   9.33671623
_cell_length_c   22.44063397
_cell_angle_alpha   90.35003026
_cell_angle_beta   90.00000000
_cell_angle_gamma   120.00823836
_symmetry_Int_Tables_number   1
_chemical_formula_structural   Na4CaSiSn(PO6)2
_chemical_formula_sum   'Na24 Ca6 Si6 Sn6 P12 O72'
_cell_volume   1694.39767399
_cell_formula_units_Z   6
loop_
 _symmetry_equiv_pos_site_id
 _symmetry_equiv_pos_as_xyz
  1  'x, y, z'
loop_
 _atom_site_type_symbol
 _atom_site_label
 _atom_site_symmetry_multiplicity
 _atom_site_fract_x
 _atom_site_fract_y
 _atom_site_fract_z
 _atom_site_occupancy
  Na  Na0  1  0.63538340  0.00980035  0.24913687  1
  Na  Na1  1  0.36951564  0.35025239  0.24952626  1
  Na  Na2  1  0.99247758  0.63267933  0.24141030  1
  Na  Na3  1  0.64020175  0.63267933  0.74141030  1
  Na  Na4  1  0.98073675  0.35025239  0.74952626  1
  Na  Na5  1  0.37441695  0.00980035  0.74913687  1
  Na  Na6  1  0.31471461  0.35216248  0.58269473  1
  Na  Na7  1  0.02961318  0.68975519  0.57932760  1
  Na  Na8  1  0.65556045  0.95566529  0.57812372  1
  Na  Na9  1  0.30010584  0.95566529  0.07812372  1
  Na  Na10  1  0.66014301  0.68975519  0.07932760  1
  Na  Na11  1  0.03744887  0.35216248  0.08269473  1
  Na  Na12  1  0.98211215  0.68501938  0.91815378  1
  Na  Na13  1  0.70130643  0.02788876  0.90824706  1
  Na  Na14  1  0.32247512  0.29312612  0.91398928  1
  Na  Na15  1  0.97065000  0.29312612  0.41398928  1
  Na  Na16  1  0.32658133  0.02788876  0.40824706  1
  Na  Na17  1  0.70290623  0.68501938  0.41815378  1
  Na  Na18  1  0.98843001  0.99705132  0.49669181  1
  Na  Na19  1  0.00862131  0.99705132  0.99669181  1
  Na  Na20  1  0.66527443  0.32240579  0.83020127  1
  Na  Na21  1  0.65713236  0.32240579  0.33020127  1
  Na  Na22  1  0.32341175  0.66886007  0.16338866  1
  Na  Na23  1  0.34544732  0.66886007  0.66338866  1
  Ca  Ca0  1  0.00032123  0.99895846  0.34948017  1
  Ca  Ca1  1  0.99863724  0.99895846  0.84948017  1
  Ca  Ca2  1  0.66560801  0.33159882  0.68285395  1
  Ca  Ca3  1  0.66599180  0.33159882  0.18285395  1
  Ca  Ca4  1  0.33380040  0.67047570  0.01633041  1
  Ca  Ca5  1  0.33667430  0.67047570  0.51633041  1
  Si  Si0  1  0.29872499  0.99123079  0.25290885  1
  Si  Si1  1  0.69250580  0.99123079  0.75290885  1
  Si  Si2  1  0.67454629  0.63812113  0.58601746  1
  Si  Si3  1  0.96357584  0.63812113  0.08601746  1
  Si  Si4  1  0.34241593  0.97565177  0.92022307  1
  Si  Si5  1  0.63323483  0.97565177  0.42022307  1
  Sn  Sn0  1  0.99309934  0.99520917  0.65079602  1
  Sn  Sn1  1  0.00210984  0.99520917  0.15079602  1
  Sn  Sn2  1  0.66818304  0.33387264  0.98427683  1
  Sn  Sn3  1  0.66569060  0.33387264  0.48427683  1
  Sn  Sn4  1  0.33529054  0.67391331  0.31755762  1
  Sn  Sn5  1  0.33862177  0.67391331  0.81755762  1
  P  P0  1  0.69247459  0.70434950  0.25131152  1
  P  P1  1  0.01193039  0.30392664  0.25155523  1
  P  P2  1  0.29199625  0.30392664  0.75155523  1
  P  P3  1  0.01187491  0.70434950  0.75131152  1
  P  P4  1  0.96242648  0.32310195  0.58494160  1
  P  P5  1  0.35764931  0.03862022  0.58501261  1
  P  P6  1  0.68097192  0.03862022  0.08501261  1
  P  P7  1  0.36067647  0.32310195  0.08494160  1
  P  P8  1  0.62723051  0.65391141  0.91801461  1
  P  P9  1  0.03134112  0.37457649  0.91746355  1
  P  P10  1  0.34323437  0.37457649  0.41746355  1
  P  P11  1  0.02667990  0.65391141  0.41801461  1
  O  O0  1  0.22189624  0.01911209  0.31218523  1
  O  O1  1  0.79150554  0.78193082  0.30722166  1
  O  O2  1  0.98490404  0.20239025  0.30666127  1
  O  O3  1  0.21748621  0.20239025  0.80666127  1
  O  O4  1  0.99042528  0.78193082  0.80722166  1
  O  O5  1  0.79721585  0.01911209  0.81218523  1
  O  O6  1  0.78569666  0.96152769  0.69279532  1
  O  O7  1  0.17998986  0.21656567  0.69411296  1
  O  O8  1  0.04201315  0.81919715  0.69475584  1
  O  O9  1  0.77718401  0.81919715  0.19475584  1
  O  O10  1  0.03657581  0.21656567  0.19411296  1
  O  O11  1  0.17583103  0.96152769  0.19279532  1
  O  O12  1  0.88577186  0.34462943  0.64093638  1
  O  O13  1  0.46132741  0.11100789  0.64041736  1
  O  O14  1  0.65164879  0.53473618  0.64492861  1
  O  O15  1  0.88308839  0.53473618  0.14492861  1
  O  O16  1  0.64968148  0.11100789  0.14041736  1
  O  O17  1  0.45885856  0.34462943  0.14093638  1
  O  O18  1  0.44666519  0.29482081  0.02814061  1
  O  O19  1  0.83937874  0.54529135  0.02540325  1
  O  O20  1  0.70736766  0.15143098  0.02837853  1
  O  O21  1  0.44406432  0.15143098  0.52837853  1
  O  O22  1  0.70591362  0.54529135  0.52540325  1
  O  O23  1  0.84815662  0.29482081  0.52814061  1
  O  O24  1  0.55110933  0.67589845  0.97393235  1
  O  O25  1  0.13182417  0.45010824  0.97311581  1
  O  O26  1  0.31417520  0.87019273  0.97903000  1
  O  O27  1  0.55601654  0.87019273  0.47903000  1
  O  O28  1  0.31828307  0.45010824  0.47311581  1
  O  O29  1  0.12478811  0.67589845  0.47393235  1
  O  O30  1  0.11294344  0.62548081  0.36137327  1
  O  O31  1  0.50976765  0.88439836  0.35980071  1
  O  O32  1  0.36732850  0.48638675  0.36037634  1
  O  O33  1  0.11905725  0.48638675  0.86037634  1
  O  O34  1  0.37462971  0.88439836  0.85980071  1
  O  O35  1  0.51253637  0.62548081  0.86137327  1
  O  O36  1  0.00055855  0.80278064  0.41193209  1
  O  O37  1  0.81911127  0.00631113  0.41455560  1
  O  O38  1  0.19629942  0.19864066  0.41152001  1
  O  O39  1  0.00234125  0.19864066  0.91152001  1
  O  O40  1  0.18719986  0.00631113  0.91455560  1
  O  O41  1  0.80222208  0.80278064  0.91193209  1
  O  O42  1  0.97475054  0.15993149  0.58646579  1
  O  O43  1  0.18800414  0.03936404  0.58867511  1
  O  O44  1  0.85420801  0.82086220  0.58593525  1
  O  O45  1  0.96665419  0.82086220  0.08593525  1
  O  O46  1  0.85135990  0.03936404  0.08867511  1
  O  O47  1  0.18518095  0.15993149  0.08646579  1
  O  O48  1  0.66159172  0.14660287  0.74786873  1
  O  O49  1  0.46833786  0.33412104  0.74524946  1
  O  O50  1  0.86275179  0.53005354  0.74494243  1
  O  O51  1  0.66730275  0.53005354  0.24494243  1
  O  O52  1  0.86578418  0.33412104  0.24524946  1
  O  O53  1  0.48501215  0.14660287  0.24786873  1
  O  O54  1  0.63557753  0.48840125  0.91922595  1
  O  O55  1  0.85915385  0.36993676  0.91927218  1
  O  O56  1  0.52260471  0.15858536  0.92206268  1
  O  O57  1  0.63598165  0.15858536  0.42206268  1
  O  O58  1  0.51078391  0.36993676  0.41927218  1
  O  O59  1  0.85282472  0.48840125  0.41922595  1
  O  O60  1  0.33776789  0.47363657  0.07846096  1
  O  O61  1  0.14796908  0.66425065  0.08181597  1
  O  O62  1  0.53923154  0.86068687  0.07796648  1
  O  O63  1  0.32145433  0.86068687  0.57796648  1
  O  O64  1  0.51628058  0.66425065  0.58181597  1
  O  O65  1  0.13586769  0.47363657  0.57846096  1
  O  O66  1  0.29965441  0.81053311  0.25299375  1
  O  O67  1  0.51713370  0.69279974  0.25335036  1
  O  O68  1  0.18068866  0.47521196  0.25450685  1
  O  O69  1  0.29452230  0.47521196  0.75450685  1
  O  O70  1  0.17566503  0.69279974  0.75335036  1
  O  O71  1  0.51087770  0.81053311  0.75299375  1
loop_
_geom_bond_atom_site_label_1
_geom_bond_atom_site_label_2
_geom_bond_distance
_geom_bond_site_symmetry_2
Na0 O53 2.323577 1_555
Na0 O67 2.592805 1_545
Na0 O16 2.600965 1_555
Na0 O52 2.700527 1_555
Na0 O66 2.732532 1_545
Na0 O31 2.752426 1_545
Na0 O9 2.956471 1_545
Na1 O51 2.428017 1_555
Na1 O68 2.557320 1_555
Na1 O17 2.584437 1_555
Na1 O53 2.613575 1_555
Na1 O67 2.779070 1_555
Na1 O32 2.791273 1_555
Na1 O10 2.978473 1_555
Na1 O0 3.037502 1_555
Na2 O15 2.368325 1_555
Na2 O52 2.425226 1_555
Na2 O66 2.506894 1_655
Na2 O51 2.690176 1_555
Na2 O68 2.815609 1_655
Na2 O11 2.886439 1_655
Na2 O30 2.931753 1_655
Na3 O14 2.368328 1_555
Na3 O49 2.425226 1_555
Na3 O71 2.506901 1_555
Na3 O50 2.690185 1_555
Na3 O69 2.815617 1_555
Na3 O6 2.886439 1_555
Na3 O35 2.931756 1_555
Na4 O50 2.428010 1_555
Na4 O69 2.557311 1_655
Na4 O12 2.584434 1_555
Na4 O48 2.613568 1_555
Na4 O70 2.779069 1_655
Na4 O33 2.791270 1_655
Na4 O7 2.978473 1_655
Na4 O5 3.037502 1_555
Na5 O48 2.323585 1_555
Na5 O70 2.592806 1_545
Na5 O13 2.600966 1_555
Na5 O49 2.700525 1_555
Na5 O71 2.732524 1_545
Na5 O34 2.752424 1_545
Na5 O8 2.956471 1_545
Na6 O65 2.445665 1_555
Na6 O43 2.548656 1_555
Na6 O64 2.559060 1_555
Na6 O28 2.623200 1_555
Na6 O42 2.758761 1_455
Na6 O7 2.807621 1_555
Na6 O21 2.948583 1_555
Na7 O63 2.371951 1_555
Na7 O44 2.491459 1_455
Na7 O29 2.551849 1_555
Na7 O65 2.656895 1_555
Na7 O8 2.829374 1_555
Na7 O43 2.837085 1_565
Na7 O22 2.885124 1_455
Na8 O64 2.358939 1_555
Na8 O27 2.383757 1_555
Na8 O42 2.620567 1_565
Na8 O44 2.719333 1_555
Na8 O63 2.784697 1_555
Na8 O6 2.834377 1_555
Na8 O23 2.977747 1_565
Na9 O61 2.358939 1_555
Na9 O26 2.383753 1_554
Na9 O47 2.620574 1_565
Na9 O45 2.719341 1_455
Na9 O62 2.784679 1_555
Na9 O11 2.834381 1_555
Na9 O18 2.977747 1_565
Na10 O62 2.371966 1_555
Na10 O45 2.491451 1_555
Na10 O24 2.551856 1_554
Na10 O60 2.656909 1_555
Na10 O9 2.829373 1_555
Na10 O46 2.837084 1_565
Na10 O19 2.885124 1_555
Na11 O60 2.445648 1_555
Na11 O46 2.548657 1_455
Na11 O61 2.559063 1_555
Na11 O25 2.623197 1_554
Na11 O47 2.758753 1_555
Na11 O10 2.807619 1_555
Na11 O20 2.948583 1_455
Na12 O41 2.429055 1_555
Na12 O55 2.568184 1_555
Na12 O40 2.632445 1_665
Na12 O4 2.641790 1_555
Na12 O19 2.751397 1_556
Na12 O54 2.811091 1_555
Na12 O26 3.013419 1_655
Na12 O33 3.016505 1_655
Na13 O5 2.351010 1_555
Na13 O39 2.442598 1_655
Na13 O56 2.530383 1_555
Na13 O41 2.701100 1_545
Na13 O55 2.777547 1_555
Na13 O34 2.859782 1_545
Na13 O20 2.915115 1_556
Na14 O40 2.320313 1_555
Na14 O54 2.559881 1_555
Na14 O3 2.573753 1_555
Na14 O39 2.661039 1_555
Na14 O56 2.730418 1_555
Na14 O18 2.808649 1_556
Na14 O35 2.951167 1_555
Na15 O37 2.320313 1_555
Na15 O59 2.559866 1_555
Na15 O2 2.573755 1_555
Na15 O38 2.661048 1_655
Na15 O57 2.730401 1_555
Na15 O23 2.808642 1_555
Na15 O30 2.951167 1_655
Na16 O0 2.351006 1_555
Na16 O38 2.442591 1_555
Na16 O57 2.530400 1_555
Na16 O36 2.701093 1_545
Na16 O58 2.777548 1_555
Na16 O31 2.859782 1_545
Na16 O21 2.915118 1_555
Na17 O36 2.429063 1_655
Na17 O58 2.568182 1_555
Na17 O37 2.632443 1_565
Na17 O1 2.641792 1_555
Na17 O22 2.751402 1_555
Na17 O59 2.811106 1_555
Na17 O27 3.013419 1_555
Na17 O32 3.016505 1_555
Na18 O37 2.458443 1_565
Na18 O44 2.503159 1_555
Na18 O42 2.558222 1_565
Na18 O36 2.661592 1_655
Na18 O43 2.672870 1_665
Na18 O38 2.711738 1_665
Na19 O40 2.458443 1_565
Na19 O45 2.503159 1_456
Na19 O47 2.558222 1_566
Na19 O41 2.661592 1_455
Na19 O46 2.672870 1_466
Na19 O39 2.711738 1_565
Na20 O48 2.452658 1_555
Na20 O56 2.522763 1_555
Na20 O55 2.579932 1_555
Na20 O54 2.619572 1_555
Na20 O49 2.689358 1_555
Na20 O50 2.699902 1_555
Na21 O53 2.452658 1_555
Na21 O57 2.522763 1_555
Na21 O58 2.579932 1_555
Na21 O59 2.619572 1_555
Na21 O52 2.689358 1_555
Na21 O51 2.699902 1_555
Na22 O61 2.442502 1_555
Na22 O66 2.470481 1_555
Na22 O68 2.619401 1_555
Na22 O67 2.643601 1_555
Na22 O60 2.678539 1_555
Na22 O62 2.715877 1_555
Na23 O64 2.442502 1_555
Na23 O71 2.470481 1_555
Na23 O69 2.619401 1_555
Na23 O70 2.643602 1_555
Na23 O65 2.678539 1_555
Na23 O63 2.715877 1_555
Ca0 O0 2.151811 1_565
Ca0 O1 2.198237 1_455
Ca0 O2 2.201712 1_465
Ca0 O37 2.261911 1_465
Ca0 O38 2.306324 1_565
Ca0 O36 2.313977 1_555
Ca1 O5 2.151811 1_565
Ca1 O4 2.198237 1_555
Ca1 O3 2.201712 1_665
Ca1 O40 2.261911 1_665
Ca1 O39 2.306324 1_665
Ca1 O41 2.313977 1_555
Ca2 O14 2.146062 1_555
Ca2 O13 2.198693 1_555
Ca2 O12 2.208720 1_555
Ca2 O48 2.253754 1_555
Ca2 O50 2.306623 1_555
Ca2 O49 2.323406 1_555
Ca3 O15 2.146062 1_555
Ca3 O16 2.198693 1_555
Ca3 O17 2.208720 1_555
Ca3 O53 2.253754 1_555
Ca3 O51 2.306623 1_555
Ca3 O52 2.323406 1_555
Ca4 O26 2.138286 1_554
Ca4 O25 2.196685 1_554
Ca4 O24 2.219078 1_554
Ca4 O61 2.252772 1_555
Ca4 O62 2.304298 1_555
Ca4 O60 2.328593 1_555
Ca5 O27 2.138286 1_555
Ca5 O28 2.196685 1_555
Ca5 O29 2.219078 1_555
Ca5 O64 2.252772 1_555
Ca5 O63 2.304298 1_555
Ca5 O65 2.328593 1_555
O0 Si0 1.592046 1_545
O1 P0 1.507654 1_555
O2 P1 1.505537 1_655
O3 P2 1.505537 1_555
O4 P3 1.507654 1_655
O5 Si1 1.592046 1_545
O6 Si1 1.700286 1_555
O6 Sn0 2.033047 1_555
O7 P2 1.598389 1_555
O7 Sn0 2.151738 1_445
O8 P3 1.598286 1_555
O8 Sn0 2.157130 1_455
O9 P0 1.598286 1_555
O9 Sn1 2.157130 1_655
O10 P1 1.598389 1_555
O10 Sn1 2.151738 1_545
O11 Si0 1.700286 1_555
O11 Sn1 2.033047 1_555
O12 P4 1.507535 1_555
O13 P5 1.508413 1_555
O14 Si2 1.591950 1_555
O15 Si3 1.591950 1_555
O16 P6 1.508413 1_555
O17 P7 1.507535 1_555
O18 P7 1.596038 1_555
O18 Sn2 2.152099 1_554
O19 Si3 1.710785 1_555
O19 Sn2 2.031111 1_554
O20 P6 1.594370 1_555
O20 Sn2 2.158487 1_554
O21 P5 1.594370 1_555
O21 Sn3 2.158487 1_555
O22 Si2 1.710785 1_555
O22 Sn3 2.031111 1_555
O23 P4 1.596038 1_555
O23 Sn3 2.152099 1_555
O24 P8 1.504973 1_555
O25 P9 1.504966 1_555
O26 Si4 1.592706 1_555
O27 Si5 1.592706 1_555
O28 P10 1.504966 1_555
O29 P11 1.504973 1_555
O30 P11 1.595267 1_555
O30 Sn4 2.132922 1_555
O31 Si5 1.702118 1_555
O31 Sn4 2.046969 1_555
O32 P10 1.600928 1_555
O32 Sn4 2.150106 1_555
O33 P9 1.600928 1_555
O33 Sn5 2.150106 1_555
O34 Si4 1.702118 1_555
O34 Sn5 2.046969 1_555
O35 P8 1.595267 1_555
O35 Sn5 2.132922 1_555
O36 P11 1.533486 1_555
O37 Si5 1.617065 1_545
O38 P10 1.530293 1_555
O39 P9 1.530297 1_555
O40 Si4 1.617055 1_545
O41 P8 1.533492 1_555
O42 P4 1.584746 1_555
O42 Sn0 2.183908 1_545
O43 P5 1.589931 1_555
O43 Sn0 2.164008 1_445
O44 Si2 1.692014 1_555
O44 Sn0 2.076031 1_555
O45 Si3 1.692019 1_555
O45 Sn1 2.076030 1_655
O46 P6 1.589922 1_555
O46 Sn1 2.164008 1_645
O47 P7 1.584752 1_555
O47 Sn1 2.183908 1_545
O48 Si1 1.619105 1_545
O49 P2 1.532236 1_555
O50 P3 1.529202 1_655
O51 P0 1.529205 1_555
O52 P1 1.532227 1_655
O53 Si0 1.619111 1_545
O54 P8 1.586140 1_555
O54 Sn2 2.184150 1_555
O55 P9 1.587368 1_655
O55 Sn2 2.197146 1_555
O56 Si4 1.695573 1_545
O56 Sn2 2.054876 1_555
O57 Si5 1.695564 1_545
O57 Sn3 2.054876 1_555
O58 P10 1.587387 1_555
O58 Sn3 2.197146 1_555
O59 P11 1.586130 1_655
O59 Sn3 2.184150 1_555
O60 P7 1.531542 1_555
O61 Si3 1.616769 1_455
O62 P6 1.527850 1_565
O63 P5 1.527844 1_565
O64 Si2 1.616787 1_555
O65 P4 1.531531 1_455
O66 Si0 1.691493 1_555
O66 Sn4 2.069844 1_555
O67 P0 1.587014 1_555
O67 Sn4 2.166734 1_555
O68 P1 1.588545 1_555
O68 Sn4 2.194781 1_555
O69 P2 1.588549 1_555
O69 Sn5 2.194781 1_555
O70 P3 1.587004 1_555
O70 Sn5 2.166734 1_555
O71 Si1 1.691498 1_555
O71 Sn5 2.069844 1_555
