# generated using pymatgen
data_MgMn4(NiO6)2
_symmetry_space_group_name_H-M   'P 1'
_cell_length_a   5.01009812
_cell_length_b   5.04062739
_cell_length_c   9.91330345
_cell_angle_alpha   84.99933349
_cell_angle_beta   86.03508257
_cell_angle_gamma   119.59486884
_symmetry_Int_Tables_number   1
_chemical_formula_structural   MgMn4(NiO6)2
_chemical_formula_sum   'Mg1 Mn4 Ni2 O12'
_cell_volume   215.03467186
_cell_formula_units_Z   1
loop_
 _symmetry_equiv_pos_site_id
 _symmetry_equiv_pos_as_xyz
  1  'x, y, z'
loop_
 _atom_site_type_symbol
 _atom_site_label
 _atom_site_symmetry_multiplicity
 _atom_site_fract_x
 _atom_site_fract_y
 _atom_site_fract_z
 _atom_site_occupancy
  Mg  Mg0  1  0.40464708  0.41682323  0.74932133  1
  Mn  Mn0  1  0.15318474  0.82203955  0.50359417  1
  Mn  Mn1  1  0.34640596  0.68479382  0.00316732  1
  Mn  Mn2  1  0.80920493  0.14978645  0.50358826  1
  Mn  Mn3  1  0.67712208  0.35369697  0.00388661  1
  Ni  Ni0  1  0.48776530  0.49276039  0.48188530  1
  Ni  Ni1  1  0.01019183  0.01804168  0.00318064  1
  O  O0  1  0.64853286  0.98660948  0.09750618  1
  O  O1  1  0.37258938  0.06366575  0.89839249  1
  O  O2  1  0.76623077  0.45715641  0.60087665  1
  O  O3  1  0.51110095  0.14898723  0.39763037  1
  O  O4  1  0.85916841  0.86814357  0.40202922  1
  O  O5  1  0.67713589  0.68552115  0.88967058  1
  O  O6  1  0.98172534  0.65452038  0.09765998  1
  O  O7  1  0.05245639  0.38238533  0.89801854  1
  O  O8  1  0.44977722  0.79097208  0.61086460  1
  O  O9  1  0.13919669  0.14418043  0.60130802  1
  O  O10  1  0.34099545  0.34786553  0.10570480  1
  O  O11  1  0.16256974  0.51955057  0.40171594  1
loop_
_geom_bond_atom_site_label_1
_geom_bond_atom_site_label_2
_geom_bond_distance
_geom_bond_site_symmetry_2
Mg0 O5 2.097335 1_555
Mg0 O8 2.139265 1_555
Mg0 O1 2.145855 1_555
Mg0 O7 2.147019 1_555
Mg0 O9 2.150928 1_555
Mg0 O2 2.168883 1_555
Mn0 O3 1.885131 1_565
Mn0 O11 1.918262 1_555
Mn0 O4 1.933923 1_455
Mn0 O8 1.944932 1_555
Mn0 O9 1.989260 1_565
Mn0 O2 1.995397 1_455
Mn1 O10 1.888931 1_555
Mn1 O0 1.910385 1_555
Mn1 O6 1.924060 1_455
Mn1 O5 1.935717 1_554
Mn1 O7 1.962384 1_554
Mn1 O1 2.032507 1_564
Mn2 O3 1.883008 1_555
Mn2 O4 1.912338 1_545
Mn2 O11 1.947676 1_655
Mn2 O8 1.956473 1_545
Mn2 O9 1.983799 1_655
Mn2 O2 1.984499 1_555
Mn3 O10 1.888512 1_555
Mn3 O6 1.910146 1_555
Mn3 O0 1.930311 1_545
Mn3 O5 1.936317 1_554
Mn3 O1 1.960323 1_554
Mn3 O7 2.022506 1_654
Ni0 O11 1.918858 1_555
Ni0 O4 1.930522 1_555
Ni0 O2 1.951425 1_555
Ni0 O9 1.964495 1_555
Ni0 O3 2.037875 1_555
Ni0 O8 2.124757 1_555
Ni1 O0 1.907598 1_445
Ni1 O6 1.918169 1_445
Ni1 O1 1.927085 1_554
Ni1 O7 1.938052 1_554
Ni1 O10 2.085600 1_555
Ni1 O5 2.164692 1_444
