# generated using pymatgen
data_Na5HfIn3Si3(SO8)3
_symmetry_space_group_name_H-M   'P 1'
_cell_length_a   9.12826648
_cell_length_b   9.15249937
_cell_length_c   22.93095972
_cell_angle_alpha   90.25762084
_cell_angle_beta   90.21099029
_cell_angle_gamma   120.09214387
_symmetry_Int_Tables_number   1
_chemical_formula_structural   Na5HfIn3Si3(SO8)3
_chemical_formula_sum   'Na15 Hf3 In9 Si9 S9 O72'
_cell_volume   1657.53334288
_cell_formula_units_Z   3
loop_
 _symmetry_equiv_pos_site_id
 _symmetry_equiv_pos_as_xyz
  1  'x, y, z'
loop_
 _atom_site_type_symbol
 _atom_site_label
 _atom_site_symmetry_multiplicity
 _atom_site_fract_x
 _atom_site_fract_y
 _atom_site_fract_z
 _atom_site_occupancy
  Na  Na0  1  0.64808530  0.00731578  0.25805780  1
  Na  Na1  1  0.00093264  0.61879600  0.24669062  1
  Na  Na2  1  0.62830837  0.63430131  0.74255675  1
  Na  Na3  1  0.36909104  0.01816478  0.75940882  1
  Na  Na4  1  0.66635035  0.95139014  0.58618627  1
  Na  Na5  1  0.98005740  0.69221629  0.92410292  1
  Na  Na6  1  0.68652265  0.00965259  0.90912836  1
  Na  Na7  1  0.96065524  0.30043375  0.40634464  1
  Na  Na8  1  0.70920757  0.69269673  0.42606225  1
  Na  Na9  1  0.00116164  0.97102676  0.50148911  1
  Na  Na10  1  0.01278919  0.98217260  0.99819467  1
  Na  Na11  1  0.63749183  0.31529931  0.83012197  1
  Na  Na12  1  0.66690134  0.31675289  0.33252251  1
  Na  Na13  1  0.29801206  0.62792402  0.15941472  1
  Na  Na14  1  0.33035807  0.62866788  0.66596383  1
  Hf  Hf0  1  0.66438085  0.34535245  0.98074003  1
  Hf  Hf1  1  0.67115537  0.34170250  0.48188751  1
  Hf  Hf2  1  0.34746447  0.66884457  0.81536631  1
  In  In0  1  0.99752541  0.99891272  0.35019515  1
  In  In1  1  0.00447100  0.01124721  0.84914062  1
  In  In2  1  0.99103462  0.99721948  0.65205726  1
  In  In3  1  0.00251070  0.00221144  0.14364155  1
  In  In4  1  0.65911251  0.33689905  0.68430153  1
  In  In5  1  0.68814764  0.34315821  0.17794317  1
  In  In6  1  0.33321034  0.68143759  0.01657503  1
  In  In7  1  0.34030678  0.67494249  0.51533462  1
  In  In8  1  0.32039133  0.66179639  0.31997500  1
  Si  Si0  1  0.00508025  0.29534245  0.24951139  1
  Si  Si1  1  0.29048306  0.29514807  0.74792815  1
  Si  Si2  1  0.69965680  0.00355089  0.75009646  1
  Si  Si3  1  0.66644333  0.63515979  0.58480245  1
  Si  Si4  1  0.97494538  0.63959900  0.08451620  1
  Si  Si5  1  0.62981108  0.67026601  0.91889374  1
  Si  Si6  1  0.33176268  0.96583141  0.91548871  1
  Si  Si7  1  0.63135113  0.96747074  0.41542039  1
  Si  Si8  1  0.03568679  0.66854062  0.41658368  1
  S  S0  1  0.30039968  0.00445526  0.24870204  1
  S  S1  1  0.69702324  0.69712231  0.24981812  1
  S  S2  1  0.00354031  0.70034581  0.75155089  1
  S  S3  1  0.96115719  0.33608297  0.58202700  1
  S  S4  1  0.37142873  0.03991386  0.58248493  1
  S  S5  1  0.66647412  0.03956197  0.08309512  1
  S  S6  1  0.37714226  0.33563482  0.08401411  1
  S  S7  1  0.03834445  0.37629444  0.91916957  1
  S  S8  1  0.33700081  0.36921752  0.41767506  1
  O  O0  1  0.22382829  0.02319661  0.30321383  1
  O  O1  1  0.80105911  0.76705798  0.30456171  1
  O  O2  1  0.97432578  0.18942270  0.31068013  1
  O  O3  1  0.21610437  0.16603145  0.80230633  1
  O  O4  1  0.97076586  0.77297547  0.80443408  1
  O  O5  1  0.80383739  0.02520430  0.81028727  1
  O  O6  1  0.76743727  0.95132958  0.69177939  1
  O  O7  1  0.18565285  0.21093052  0.68760706  1
  O  O8  1  0.03861559  0.80953893  0.69982108  1
  O  O9  1  0.78435021  0.80594177  0.19959134  1
  O  O10  1  0.01805955  0.19357891  0.19355333  1
  O  O11  1  0.19092135  0.97479038  0.19754190  1
  O  O12  1  0.87751321  0.34997536  0.63476369  1
  O  O13  1  0.46749373  0.11232574  0.63747551  1
  O  O14  1  0.65584891  0.53736277  0.64497723  1
  O  O15  1  0.89911948  0.54890447  0.14789826  1
  O  O16  1  0.64548387  0.11152528  0.13932916  1
  O  O17  1  0.47135435  0.34479806  0.13826884  1
  O  O18  1  0.47061190  0.32183361  0.03228627  1
  O  O19  1  0.84779113  0.52567445  0.02955759  1
  O  O20  1  0.66999974  0.14375879  0.03282737  1
  O  O21  1  0.47169640  0.14645937  0.53223828  1
  O  O22  1  0.67378349  0.52929329  0.52698522  1
  O  O23  1  0.85535979  0.32271379  0.52899637  1
  O  O24  1  0.53820710  0.69943123  0.97382655  1
  O  O25  1  0.13654789  0.44719412  0.97231925  1
  O  O26  1  0.27918037  0.83832854  0.97013118  1
  O  O27  1  0.55676206  0.84400882  0.47176385  1
  O  O28  1  0.30531197  0.44496320  0.46945200  1
  O  O29  1  0.14972913  0.68602891  0.47265305  1
  O  O30  1  0.09264728  0.61169314  0.35671451  1
  O  O31  1  0.52612773  0.88227074  0.35422685  1
  O  O32  1  0.37641000  0.47704075  0.36549851  1
  O  O33  1  0.12011796  0.48199794  0.86718979  1
  O  O34  1  0.36085787  0.87295779  0.85755015  1
  O  O35  1  0.51717904  0.64202729  0.85912437  1
  O  O36  1  0.00614255  0.83006495  0.41059756  1
  O  O37  1  0.82648321  0.99951039  0.41307577  1
  O  O38  1  0.18763469  0.19996131  0.41054929  1
  O  O39  1  0.00242872  0.20037819  0.91315865  1
  O  O40  1  0.16656575  0.98843290  0.90965582  1
  O  O41  1  0.81891919  0.83715259  0.91343284  1
  O  O42  1  0.96500265  0.17586349  0.58097240  1
  O  O43  1  0.20452232  0.02786647  0.58212531  1
  O  O44  1  0.83914610  0.82653233  0.58379787  1
  O  O45  1  0.98258699  0.82433437  0.08386497  1
  O  O46  1  0.82719543  0.03702302  0.08250993  1
  O  O47  1  0.20889946  0.18019997  0.08246452  1
  O  O48  1  0.66790612  0.16363480  0.74305285  1
  O  O49  1  0.48880555  0.33408303  0.74687828  1
  O  O50  1  0.85272783  0.53099049  0.74423252  1
  O  O51  1  0.67377616  0.52435202  0.24418054  1
  O  O52  1  0.82622399  0.30858112  0.24719050  1
  O  O53  1  0.47261629  0.15634961  0.24329197  1
  O  O54  1  0.65712626  0.50447570  0.92431606  1
  O  O55  1  0.86727327  0.36621078  0.92345898  1
  O  O56  1  0.51661340  0.14360120  0.92493727  1
  O  O57  1  0.65205766  0.15670716  0.42433597  1
  O  O58  1  0.48966305  0.35118374  0.42594523  1
  O  O59  1  0.84009411  0.50160417  0.42565639  1
  O  O60  1  0.36337906  0.48804249  0.08011274  1
  O  O61  1  0.15802946  0.64916088  0.08033552  1
  O  O62  1  0.51960765  0.86706680  0.08069350  1
  O  O63  1  0.35784894  0.87148706  0.57816996  1
  O  O64  1  0.49797028  0.65964063  0.58101609  1
  O  O65  1  0.13139147  0.48505668  0.57770707  1
  O  O66  1  0.32181413  0.85184900  0.25218353  1
  O  O67  1  0.53164078  0.69053085  0.25509269  1
  O  O68  1  0.16796101  0.49112049  0.25218182  1
  O  O69  1  0.30862748  0.48313695  0.75652623  1
  O  O70  1  0.15624861  0.68383992  0.75922233  1
  O  O71  1  0.50631035  0.83143648  0.75646564  1
loop_
_geom_bond_atom_site_label_1
_geom_bond_atom_site_label_2
_geom_bond_distance
_geom_bond_site_symmetry_2
Na0 O52 2.412915 1_555
Na0 O31 2.485040 1_545
Na0 O67 2.539309 1_545
Na0 O66 2.580448 1_545
Na0 O53 2.594574 1_555
Na0 O2 2.842657 1_555
Na0 O16 2.892781 1_555
Na1 O68 2.343618 1_555
Na1 O15 2.404223 1_455
Na1 O52 2.462642 1_455
Na1 O66 2.621998 1_555
Na1 O51 2.660563 1_455
Na1 O30 2.666629 1_555
Na2 O49 2.382464 1_555
Na2 O14 2.463159 1_555
Na2 O69 2.548445 1_555
Na2 O71 2.570926 1_555
Na2 O50 2.652227 1_555
Na2 O6 2.780995 1_555
Na2 O35 2.875624 1_555
Na3 O48 2.392435 1_555
Na3 O49 2.545278 1_555
Na3 O71 2.576920 1_545
Na3 O3 2.577357 1_555
Na3 O34 2.600871 1_545
Na3 O70 2.678820 1_545
Na3 O13 2.937914 1_555
Na3 O8 2.963665 1_545
Na4 O64 2.320954 1_555
Na4 O44 2.367373 1_555
Na4 O42 2.460769 1_565
Na4 O63 2.535496 1_555
Na4 O6 2.588142 1_555
Na4 O27 2.796893 1_555
Na5 O40 2.396275 1_655
Na5 O41 2.437220 1_555
Na5 O54 2.561832 1_555
Na5 O26 2.581150 1_655
Na5 O55 2.623371 1_555
Na5 O19 2.799623 1_556
Na5 O4 2.857119 1_555
Na6 O41 2.424226 1_545
Na6 O56 2.438609 1_555
Na6 O5 2.484369 1_555
Na6 O39 2.513977 1_655
Na6 O34 2.834188 1_545
Na6 O55 2.840250 1_555
Na6 O24 2.879855 1_545
Na7 O37 2.394175 1_545
Na7 O2 2.443200 1_555
Na7 O57 2.476577 1_555
Na7 O59 2.612561 1_555
Na7 O38 2.656638 1_655
Na7 O30 2.731271 1_655
Na8 O36 2.376357 1_655
Na8 O37 2.472962 1_555
Na8 O59 2.565509 1_555
Na8 O27 2.623514 1_555
Na8 O22 2.692345 1_555
Na8 O58 2.739454 1_555
Na8 O1 2.896672 1_555
Na8 O32 2.997444 1_555
Na9 O44 2.362252 1_455
Na9 O36 2.458845 1_555
Na9 O43 2.476552 1_565
Na9 O37 2.668066 1_455
Na9 O42 2.745888 1_465
Na9 O38 2.850493 1_565
Na10 O45 2.377460 1_456
Na10 O40 2.457055 1_555
Na10 O41 2.503480 1_455
Na10 O47 2.629289 1_566
Na10 O46 2.780031 1_466
Na10 O39 2.832465 1_565
Na11 O49 2.394425 1_555
Na11 O48 2.521084 1_555
Na11 O56 2.593027 1_555
Na11 O54 2.710675 1_555
Na11 O50 2.794708 1_555
Na11 O55 2.859274 1_555
Na12 O52 2.465414 1_555
Na12 O57 2.535240 1_555
Na12 O53 2.612013 1_555
Na12 O59 2.680154 1_555
Na12 O51 2.762940 1_555
Na12 O58 2.799443 1_555
Na13 O61 2.279033 1_555
Na13 O68 2.460526 1_555
Na13 O60 2.460701 1_555
Na13 O62 2.786323 1_555
Na13 O66 2.878145 1_555
Na13 O67 2.901522 1_555
Na14 O64 2.409920 1_555
Na14 O69 2.426740 1_555
Na14 O65 2.584036 1_555
Na14 O71 2.698601 1_555
Na14 O70 2.859061 1_555
Na14 O63 2.922279 1_555
Hf0 O54 1.978005 1_555
Hf0 O19 1.994671 1_556
Hf0 O18 2.051322 1_556
Hf0 O56 2.082040 1_555
Hf0 O55 2.203970 1_555
Hf0 O20 2.224379 1_556
Hf1 O59 1.987722 1_555
Hf1 O22 1.990072 1_555
Hf1 O23 2.075050 1_555
Hf1 O57 2.078720 1_555
Hf1 O58 2.127753 1_555
Hf1 O21 2.147731 1_555
Hf2 O35 1.959381 1_555
Hf2 O71 2.002487 1_555
Hf2 O34 2.048039 1_555
Hf2 O69 2.051033 1_555
Hf2 O70 2.224467 1_555
Hf2 O33 2.262979 1_555
In0 O2 2.071054 1_565
In0 O36 2.110258 1_655
In0 O37 2.131181 1_555
In0 O1 2.228070 1_555
In0 O0 2.243992 1_665
In0 O38 2.251695 1_665
In1 O3 2.043749 1_555
In1 O5 2.094725 1_455
In1 O40 2.110897 1_545
In1 O41 2.216852 1_445
In1 O39 2.271894 1_555
In1 O4 2.281705 1_445
In2 O7 2.033945 1_665
In2 O6 2.080741 1_555
In2 O44 2.145431 1_555
In2 O8 2.258424 1_655
In2 O42 2.407818 1_565
In2 O43 2.434515 1_665
In3 O10 2.032066 1_555
In3 O45 2.060006 1_445
In3 O11 2.229024 1_545
In3 O46 2.264158 1_455
In3 O47 2.265725 1_555
In3 O9 2.300216 1_445
In4 O14 2.061506 1_555
In4 O49 2.110241 1_555
In4 O48 2.117140 1_555
In4 O13 2.190499 1_555
In4 O50 2.231531 1_555
In4 O12 2.248970 1_555
In5 O15 2.028375 1_555
In5 O16 2.140755 1_555
In5 O52 2.144754 1_555
In5 O17 2.181922 1_555
In5 O51 2.295957 1_555
In5 O53 2.389802 1_555
In6 O26 2.039479 1_554
In6 O24 2.048317 1_554
In6 O61 2.080741 1_555
In6 O25 2.226323 1_554
In6 O62 2.236877 1_555
In6 O60 2.416764 1_555
In7 O29 2.039591 1_555
In7 O27 2.063777 1_555
In7 O64 2.132464 1_555
In7 O28 2.223267 1_555
In7 O63 2.241394 1_555
In7 O65 2.328464 1_555
In8 O30 2.074199 1_555
In8 O31 2.095335 1_555
In8 O68 2.139051 1_555
In8 O32 2.256023 1_555
In8 O66 2.333288 1_555
In8 O67 2.348905 1_555
O0 S0 1.485000 1_555
O1 S1 1.503944 1_555
O2 Si0 1.651749 1_655
O3 Si1 1.620883 1_555
O4 S2 1.482157 1_655
O5 Si2 1.627138 1_555
O6 Si2 1.642079 1_565
O7 Si1 1.632220 1_555
O8 S2 1.483571 1_555
O9 S1 1.474739 1_555
O10 Si0 1.621446 1_555
O11 S0 1.471431 1_565
O12 S3 1.471163 1_555
O13 S4 1.483187 1_555
O14 Si3 1.624761 1_555
O15 Si4 1.650041 1_555
O16 S5 1.501356 1_555
O17 S6 1.487715 1_555
O18 S6 1.505028 1_555
O19 Si4 1.669269 1_555
O20 S5 1.489489 1_555
O21 S4 1.496355 1_555
O22 Si3 1.659910 1_555
O23 S3 1.515887 1_555
O24 Si5 1.608033 1_555
O25 S7 1.453133 1_555
O26 Si6 1.618059 1_555
O27 Si7 1.630286 1_555
O28 S8 1.473152 1_555
O29 Si8 1.607361 1_555
O30 Si8 1.641923 1_555
O31 Si7 1.651922 1_555
O32 S8 1.480740 1_555
O33 S7 1.485478 1_555
O34 Si6 1.666449 1_555
O35 Si5 1.649937 1_555
O36 Si8 1.636598 1_555
O37 Si7 1.654896 1_555
O38 S8 1.470892 1_555
O39 S7 1.478906 1_555
O40 Si6 1.626714 1_555
O41 Si5 1.639471 1_555
O42 S3 1.484411 1_555
O43 S4 1.471366 1_555
O44 Si3 1.668945 1_555
O45 Si4 1.657054 1_555
O46 S5 1.479004 1_555
O47 S6 1.480517 1_555
O48 Si2 1.638420 1_555
O49 Si1 1.660838 1_555
O50 S2 1.477189 1_655
O51 S1 1.491194 1_555
O52 Si0 1.697305 1_655
O53 S0 1.493594 1_555
O54 Si5 1.661623 1_555
O55 S7 1.520995 1_655
O56 Si6 1.668079 1_545
O57 Si7 1.656970 1_545
O58 S8 1.494708 1_555
O59 Si8 1.683903 1_655
O60 S6 1.465039 1_555
O61 Si4 1.632324 1_455
O62 S5 1.472774 1_565
O63 S4 1.486061 1_565
O64 Si3 1.663581 1_555
O65 S3 1.470140 1_455
O66 S0 1.506689 1_565
O67 S1 1.485735 1_555
O68 Si0 1.658883 1_555
O69 Si1 1.654570 1_555
O70 S2 1.485430 1_555
O71 Si2 1.683376 1_565
