# generated using pymatgen
data_Ba2MgMn3Tl2O10
_symmetry_space_group_name_H-M   'P 1'
_cell_length_a   3.83611121
_cell_length_b   4.08534011
_cell_length_c   17.11669670
_cell_angle_alpha   90.03275539
_cell_angle_beta   90.07361461
_cell_angle_gamma   90.02333388
_symmetry_Int_Tables_number   1
_chemical_formula_structural   Ba2MgMn3Tl2O10
_chemical_formula_sum   'Ba2 Mg1 Mn3 Tl2 O10'
_cell_volume   268.24948499
_cell_formula_units_Z   1
loop_
 _symmetry_equiv_pos_site_id
 _symmetry_equiv_pos_as_xyz
  1  'x, y, z'
loop_
 _atom_site_type_symbol
 _atom_site_label
 _atom_site_symmetry_multiplicity
 _atom_site_fract_x
 _atom_site_fract_y
 _atom_site_fract_z
 _atom_site_occupancy
  Ba  Ba0  1  0.26124500  0.19845700  0.27344900  1
  Ba  Ba1  1  0.78000200  0.69675600  0.73373100  1
  Mg  Mg0  1  0.78374000  0.19843100  0.03479900  1
  Mn  Mn0  1  0.28411300  0.19749200  0.85181000  1
  Mn  Mn1  1  0.76347200  0.69877800  0.15514100  1
  Mn  Mn2  1  0.28132000  0.69822500  0.97779900  1
  Tl  Tl0  1  0.75216200  0.65847900  0.43696100  1
  Tl  Tl1  1  0.25765300  0.15694800  0.57154000  1
  O  O0  1  0.28432200  0.69750800  0.85524100  1
  O  O1  1  0.27657100  0.20344300  0.69268700  1
  O  O2  1  0.78365800  0.19716300  0.83258700  1
  O  O3  1  0.75553800  0.80572300  0.55738500  1
  O  O4  1  0.78006100  0.69834800  0.02731000  1
  O  O5  1  0.26360600  0.69880100  0.17404400  1
  O  O6  1  0.75896900  0.70451000  0.31597700  1
  O  O7  1  0.76403000  0.19954900  0.15340200  1
  O  O8  1  0.25164000  0.30828900  0.45159700  1
  O  O9  1  0.28264800  0.19823300  0.98330700  1
loop_
_geom_bond_atom_site_label_1
_geom_bond_atom_site_label_2
_geom_bond_distance
_geom_bond_site_symmetry_2
Ba0 O5 2.656686 1_545
Ba0 O5 2.660334 1_555
Ba0 O7 2.801833 1_455
Ba0 O7 2.820014 1_555
Ba0 O6 2.872064 1_545
Ba0 O6 2.883853 1_445
Ba0 O6 2.905348 1_555
Ba0 O6 2.919189 1_455
Ba0 O8 3.082157 1_555
Ba1 O2 2.651977 1_555
Ba1 O2 2.653039 1_565
Ba1 O0 2.819855 1_555
Ba1 O0 2.838700 1_655
Ba1 O1 2.861602 1_655
Ba1 O1 2.876895 1_555
Ba1 O1 2.899814 1_665
Ba1 O1 2.917095 1_565
Ba1 O3 3.052692 1_555
Mg0 O7 2.031599 1_555
Mg0 O4 2.046476 1_555
Mg0 O4 2.046995 1_545
Mg0 O9 2.108089 1_654
Mg0 O9 2.113643 1_554
Mn0 O2 1.944770 1_555
Mn0 O2 1.947377 1_455
Mn0 O0 2.043483 1_545
Mn0 O0 2.043546 1_555
Mn0 O9 2.250809 1_555
Mn0 O1 2.723899 1_555
Mn1 O5 1.945058 1_555
Mn1 O5 1.945251 1_655
Mn1 O7 2.039722 1_555
Mn1 O7 2.046054 1_565
Mn1 O4 2.189051 1_555
Mn1 O6 2.753144 1_555
Mn2 O9 2.044827 1_565
Mn2 O9 2.044874 1_555
Mn2 O4 2.091522 1_556
Mn2 O0 2.097835 1_555
Mn2 O4 2.102349 1_456
O1 Tl1 2.083379 1_555
O3 Tl0 2.146934 1_555
O3 Tl1 2.401764 1_565
O3 Tl1 2.413264 1_665
O6 Tl0 2.079671 1_555
O8 Tl1 2.144543 1_555
O8 Tl0 2.404615 1_455
O8 Tl0 2.407392 1_555
