# generated using pymatgen
data_MgMn3SnO8
_symmetry_space_group_name_H-M   'P 1'
_cell_length_a   6.12970141
_cell_length_b   6.12695323
_cell_length_c   6.12697069
_cell_angle_alpha   58.88156998
_cell_angle_beta   58.84574866
_cell_angle_gamma   58.84544619
_symmetry_Int_Tables_number   1
_chemical_formula_structural   MgMn3SnO8
_chemical_formula_sum   'Mg1 Mn3 Sn1 O8'
_cell_volume   158.46656036
_cell_formula_units_Z   1
loop_
 _symmetry_equiv_pos_site_id
 _symmetry_equiv_pos_as_xyz
  1  'x, y, z'
loop_
 _atom_site_type_symbol
 _atom_site_label
 _atom_site_symmetry_multiplicity
 _atom_site_fract_x
 _atom_site_fract_y
 _atom_site_fract_z
 _atom_site_occupancy
  Mg  Mg0  1  0.00000000  0.00000000  0.00000000  1
  Mn  Mn0  1  0.00000000  0.50000000  0.50000000  1
  Mn  Mn1  1  0.50000000  0.00000000  0.50000000  1
  Mn  Mn2  1  0.50000000  0.50000000  0.00000000  1
  Sn  Sn0  1  0.50000000  0.50000000  0.50000000  1
  O  O0  1  0.27381600  0.27371200  0.27367000  1
  O  O1  1  0.25285400  0.25237900  0.72322500  1
  O  O2  1  0.25284900  0.72321200  0.25242500  1
  O  O3  1  0.72326100  0.25248300  0.25272100  1
  O  O4  1  0.27673900  0.74751700  0.74727900  1
  O  O5  1  0.74715100  0.27678800  0.74757500  1
  O  O6  1  0.74714600  0.74762100  0.27677500  1
  O  O7  1  0.72618400  0.72628800  0.72633000  1
loop_
_geom_bond_atom_site_label_1
_geom_bond_atom_site_label_2
_geom_bond_distance
_geom_bond_site_symmetry_2
Mg0 O3 2.170508 1_455
Mg0 O4 2.170508 1_544
Mg0 O6 2.172320 1_445
Mg0 O1 2.172320 1_554
Mg0 O2 2.172486 1_545
Mg0 O5 2.172486 1_454
Mn0 O0 1.957949 1_555
Mn0 O7 1.957949 1_455
Mn0 O5 2.046910 1_455
Mn0 O2 2.046910 1_555
Mn0 O1 2.046979 1_555
Mn0 O6 2.046979 1_455
Mn1 O0 1.958927 1_555
Mn1 O7 1.958927 1_545
Mn1 O1 2.043281 1_555
Mn1 O6 2.043281 1_545
Mn1 O4 2.045479 1_545
Mn1 O3 2.045479 1_555
Mn2 O0 1.958741 1_555
Mn2 O7 1.958741 1_554
Mn2 O2 2.043431 1_555
Mn2 O5 2.043431 1_554
Mn2 O4 2.046528 1_554
Mn2 O3 2.046528 1_555
O1 Sn0 2.134695 1_555
O2 Sn0 2.134510 1_555
O3 Sn0 2.133140 1_555
O4 Sn0 2.133140 1_555
O5 Sn0 2.134510 1_555
O6 Sn0 2.134695 1_555
