# generated using pymatgen
data_V3Si
_symmetry_space_group_name_H-M   'P 1'
_cell_length_a   4.68366958
_cell_length_b   4.68364206
_cell_length_c   4.68366755
_cell_angle_alpha   90.00000000
_cell_angle_beta   90.00000000
_cell_angle_gamma   90.00000000
_symmetry_Int_Tables_number   1
_chemical_formula_structural   V3Si
_chemical_formula_sum   'V6 Si2'
_cell_volume   102.74389071
_cell_formula_units_Z   2
loop_
 _symmetry_equiv_pos_site_id
 _symmetry_equiv_pos_as_xyz
  1  'x, y, z'
loop_
 _atom_site_type_symbol
 _atom_site_label
 _atom_site_symmetry_multiplicity
 _atom_site_fract_x
 _atom_site_fract_y
 _atom_site_fract_z
 _atom_site_occupancy
  V  V0  1  0.25000100  -0.00000000  0.50000000  1
  V  V1  1  0.74999900  -0.00000000  0.50000000  1
  V  V2  1  0.00000000  0.50000000  0.24999800  1
  V  V3  1  0.00000000  0.50000000  0.75000200  1
  V  V4  1  0.50000000  0.75000000  -0.00000000  1
  V  V5  1  0.50000000  0.25000000  -0.00000000  1
  Si  Si0  1  0.00000000  -0.00000000  -0.00000000  1
  Si  Si1  1  0.50000000  0.50000000  0.50000000  1
loop_
_geom_bond_atom_site_label_1
_geom_bond_atom_site_label_2
_geom_bond_distance
_geom_bond_site_symmetry_2
V0 V1 2.341825 1_555
V0 V1 2.341844 1_455
V2 V3 2.341815 1_554
V2 V3 2.341853 1_555
V4 V5 2.341821 1_555
V4 V5 2.341821 1_565
Si0 V3 2.618234 1_544
Si0 V2 2.618234 1_555
Si0 V3 2.618234 1_554
Si0 V2 2.618234 1_545
Si0 V5 2.618248 1_555
Si0 V5 2.618248 1_455
Si0 V4 2.618248 1_545
Si0 V4 2.618248 1_445
Si0 V0 2.618252 1_555
Si0 V0 2.618252 1_554
Si0 V1 2.618252 1_454
Si0 V1 2.618252 1_455
Si1 V1 2.618236 1_565
Si1 V1 2.618236 1_555
Si1 V0 2.618236 1_565
Si1 V0 2.618236 1_555
Si1 V4 2.618247 1_555
Si1 V5 2.618247 1_555
Si1 V5 2.618247 1_556
Si1 V4 2.618247 1_556
Si1 V2 2.618255 1_655
Si1 V2 2.618255 1_555
Si1 V3 2.618255 1_655
Si1 V3 2.618255 1_555
