# generated using pymatgen
data_MgMn4In2O10
_symmetry_space_group_name_H-M   'P 1'
_cell_length_a   4.00322800
_cell_length_b   5.54168358
_cell_length_c   10.42141327
_cell_angle_alpha   86.41824934
_cell_angle_beta   90.00000000
_cell_angle_gamma   111.17343245
_symmetry_Int_Tables_number   1
_chemical_formula_structural   MgMn4In2O10
_chemical_formula_sum   'Mg1 Mn4 In2 O10'
_cell_volume   215.10309647
_cell_formula_units_Z   1
loop_
 _symmetry_equiv_pos_site_id
 _symmetry_equiv_pos_as_xyz
  1  'x, y, z'
loop_
 _atom_site_type_symbol
 _atom_site_label
 _atom_site_symmetry_multiplicity
 _atom_site_fract_x
 _atom_site_fract_y
 _atom_site_fract_z
 _atom_site_occupancy
  Mg  Mg0  1  0.50001600  0.00003300  0.49998200  1
  Mn  Mn0  1  0.15662500  0.31324900  0.58141900  1
  Mn  Mn1  1  0.13777500  0.27555100  0.94690400  1
  Mn  Mn2  1  0.86222000  0.72444000  0.05310300  1
  Mn  Mn3  1  0.84336800  0.68673700  0.41860600  1
  In  In0  1  0.18841400  0.37682800  0.23932300  1
  In  In1  1  0.81157000  0.62313700  0.76067400  1
  O  O0  1  0.03834600  0.07669200  0.10865200  1
  O  O1  1  0.05897700  0.11795300  0.39937600  1
  O  O2  1  0.32940600  0.65881300  0.42650200  1
  O  O3  1  0.30423700  0.60847700  0.04916000  1
  O  O4  1  0.22608300  0.45216500  0.76425300  1
  O  O5  1  0.77392400  0.54784700  0.23576600  1
  O  O6  1  0.94101800  0.88203600  0.60061100  1
  O  O7  1  0.67059100  0.34118100  0.57349200  1
  O  O8  1  0.96167000  0.92333900  0.89133300  1
  O  O9  1  0.69576300  0.39152300  0.95084300  1
loop_
_geom_bond_atom_site_label_1
_geom_bond_atom_site_label_2
_geom_bond_distance
_geom_bond_site_symmetry_2
Mg0 O7 1.968673 1_555
Mg0 O2 1.968876 1_545
Mg0 O1 2.321943 1_555
Mg0 O1 2.321950 1_655
Mg0 O6 2.322141 1_445
Mg0 O6 2.322144 1_545
Mn0 O7 2.008113 1_455
Mn0 O7 2.008113 1_555
Mn0 O4 2.080649 1_555
Mn0 O1 2.207759 1_555
Mn0 O6 2.223896 1_445
Mn0 O2 2.325724 1_555
Mn1 O0 1.914495 1_556
Mn1 O8 1.946617 1_445
Mn1 O4 2.055098 1_555
Mn1 O3 2.083533 1_556
Mn1 O9 2.090589 1_455
Mn1 O9 2.090604 1_555
Mn2 O8 1.914788 1_554
Mn2 O0 1.946732 1_665
Mn2 O5 2.055168 1_555
Mn2 O9 2.083517 1_554
Mn2 O3 2.090579 1_655
Mn2 O3 2.090590 1_555
Mn3 O2 2.008099 1_655
Mn3 O2 2.008099 1_555
Mn3 O5 2.080653 1_555
Mn3 O6 2.207414 1_555
Mn3 O1 2.223921 1_665
Mn3 O7 2.325486 1_555
In0 O1 2.067066 1_555
In0 O0 2.131421 1_555
In0 O5 2.187339 1_455
In0 O5 2.187343 1_555
In0 O3 2.245550 1_555
In0 O2 2.511841 1_555
In1 O6 2.067219 1_555
In1 O8 2.131598 1_555
In1 O4 2.187237 1_655
In1 O4 2.187245 1_555
In1 O9 2.245517 1_555
In1 O7 2.511772 1_555
