# generated using pymatgen
data_MgFe(CoO3)2
_symmetry_space_group_name_H-M   'P 1'
_cell_length_a   6.67197954
_cell_length_b   2.88645828
_cell_length_c   5.92224078
_cell_angle_alpha   89.99763820
_cell_angle_beta   101.68105528
_cell_angle_gamma   77.51176427
_symmetry_Int_Tables_number   1
_chemical_formula_structural   MgFe(CoO3)2
_chemical_formula_sum   'Mg1 Fe1 Co2 O6'
_cell_volume   108.93361780
_cell_formula_units_Z   1
loop_
 _symmetry_equiv_pos_site_id
 _symmetry_equiv_pos_as_xyz
  1  'x, y, z'
loop_
 _atom_site_type_symbol
 _atom_site_label
 _atom_site_symmetry_multiplicity
 _atom_site_fract_x
 _atom_site_fract_y
 _atom_site_fract_z
 _atom_site_occupancy
  Mg  Mg0  1  0.33700000  0.33136400  0.83724400  1
  Fe  Fe0  1  0.33607200  0.33177000  0.33715900  1
  Co  Co0  1  0.96752600  0.01605700  0.01376800  1
  Co  Co1  1  0.68845100  0.65563600  0.64197700  1
  O  O0  1  0.00851300  0.49555400  0.22185300  1
  O  O1  1  0.33794600  0.83080900  0.58164100  1
  O  O2  1  0.67341000  0.16311500  0.86491800  1
  O  O3  1  0.32373400  0.83797800  0.09022500  1
  O  O4  1  0.65121300  0.17426800  0.43309100  1
  O  O5  1  0.00613700  0.49678100  0.81145800  1
loop_
_geom_bond_atom_site_label_1
_geom_bond_atom_site_label_2
_geom_bond_distance
_geom_bond_site_symmetry_2
Mg0 O1 2.092216 1_555
Mg0 O1 2.092630 1_545
Mg0 O3 2.094919 1_546
Mg0 O3 2.094937 1_556
Mg0 O5 2.128862 1_555
Mg0 O2 2.163378 1_555
Fe0 O4 2.013283 1_555
Fe0 O1 2.042562 1_555
Fe0 O1 2.042577 1_545
Fe0 O3 2.044278 1_545
Fe0 O3 2.044361 1_555
Fe0 O0 2.101168 1_555
Co0 O0 1.880520 1_645
Co0 O0 1.880526 1_655
Co0 O5 1.925259 1_644
Co0 O5 1.925284 1_654
Co0 O2 1.935794 1_554
Co0 O3 2.270117 1_645
Co1 O4 1.883515 1_555
Co1 O4 1.883522 1_565
Co1 O2 1.972110 1_565
Co1 O2 1.972195 1_555
Co1 O5 2.104408 1_655
Co1 O1 2.236616 1_555
