# generated using pymatgen
data_MgTe4Mo2W2(SeS)2
_symmetry_space_group_name_H-M   'P 1'
_cell_length_a   6.77865200
_cell_length_b   6.77875115
_cell_length_c   92.96101240
_cell_angle_alpha   89.97679739
_cell_angle_beta   89.99999384
_cell_angle_gamma   119.99955258
_symmetry_Int_Tables_number   1
_chemical_formula_structural   MgTe4Mo2W2(SeS)2
_chemical_formula_sum   'Mg8 Te32 Mo16 W16 Se16 S16'
_cell_volume   3699.35847206
_cell_formula_units_Z   8
loop_
 _symmetry_equiv_pos_site_id
 _symmetry_equiv_pos_as_xyz
  1  'x, y, z'
loop_
 _atom_site_type_symbol
 _atom_site_label
 _atom_site_symmetry_multiplicity
 _atom_site_fract_x
 _atom_site_fract_y
 _atom_site_fract_z
 _atom_site_occupancy
  Mg  Mg0_0  1  0.00005400  0.00010800  0.09585200  1
  Mg  Mg0_1  1  0.00005400  0.00010800  0.59585200  1
  Mg  Mg0_2  1  0.00005400  0.50010800  0.09585200  1
  Mg  Mg0_3  1  0.00005400  0.50010800  0.59585200  1
  Mg  Mg0_4  1  0.50005400  0.00010800  0.09585200  1
  Mg  Mg0_5  1  0.50005400  0.00010800  0.59585200  1
  Mg  Mg0_6  1  0.50005400  0.50010800  0.09585200  1
  Mg  Mg0_7  1  0.50005400  0.50010800  0.59585200  1
  Te  Te0_0  1  0.16658800  0.33317650  0.34899800  1
  Te  Te0_1  1  0.16658800  0.33317650  0.84899800  1
  Te  Te0_2  1  0.16658800  0.83317650  0.34899800  1
  Te  Te0_3  1  0.16658800  0.83317650  0.84899800  1
  Te  Te0_4  1  0.66658800  0.33317650  0.34899800  1
  Te  Te0_5  1  0.66658800  0.33317650  0.84899800  1
  Te  Te0_6  1  0.66658800  0.83317650  0.34899800  1
  Te  Te0_7  1  0.66658800  0.83317650  0.84899800  1
  Te  Te1_0  1  0.33333700  0.16667300  0.02372500  1
  Te  Te1_1  1  0.33333700  0.16667300  0.52372500  1
  Te  Te1_2  1  0.33333700  0.66667300  0.02372500  1
  Te  Te1_3  1  0.33333700  0.66667300  0.52372500  1
  Te  Te1_4  1  0.83333700  0.16667300  0.02372500  1
  Te  Te1_5  1  0.83333700  0.16667300  0.52372500  1
  Te  Te1_6  1  0.83333700  0.66667300  0.02372500  1
  Te  Te1_7  1  0.83333700  0.66667300  0.52372500  1
  Te  Te2_0  1  0.33321950  0.16643850  0.06429200  1
  Te  Te2_1  1  0.33321950  0.16643850  0.56429200  1
  Te  Te2_2  1  0.33321950  0.66643850  0.06429200  1
  Te  Te2_3  1  0.33321950  0.66643850  0.56429200  1
  Te  Te2_4  1  0.83321950  0.16643850  0.06429200  1
  Te  Te2_5  1  0.83321950  0.16643850  0.56429200  1
  Te  Te2_6  1  0.83321950  0.66643850  0.06429200  1
  Te  Te2_7  1  0.83321950  0.66643850  0.56429200  1
  Te  Te3_0  1  0.16671350  0.33342650  0.30861150  1
  Te  Te3_1  1  0.16671350  0.33342650  0.80861150  1
  Te  Te3_2  1  0.16671350  0.83342650  0.30861150  1
  Te  Te3_3  1  0.16671350  0.83342650  0.80861150  1
  Te  Te3_4  1  0.66671350  0.33342650  0.30861150  1
  Te  Te3_5  1  0.66671350  0.33342650  0.80861150  1
  Te  Te3_6  1  0.66671350  0.83342650  0.30861150  1
  Te  Te3_7  1  0.66671350  0.83342650  0.80861150  1
  Mo  Mo0_0  1  0.16661700  0.33323350  0.04387450  1
  Mo  Mo0_1  1  0.16661700  0.33323350  0.54387450  1
  Mo  Mo0_2  1  0.16661700  0.83323350  0.04387450  1
  Mo  Mo0_3  1  0.16661700  0.83323350  0.54387450  1
  Mo  Mo0_4  1  0.66661700  0.33323350  0.04387450  1
  Mo  Mo0_5  1  0.66661700  0.33323350  0.54387450  1
  Mo  Mo0_6  1  0.66661700  0.83323350  0.04387450  1
  Mo  Mo0_7  1  0.66661700  0.83323350  0.54387450  1
  Mo  Mo1_0  1  0.33332000  0.16664050  0.32879850  1
  Mo  Mo1_1  1  0.33332000  0.16664050  0.82879850  1
  Mo  Mo1_2  1  0.33332000  0.66664050  0.32879850  1
  Mo  Mo1_3  1  0.33332000  0.66664050  0.82879850  1
  Mo  Mo1_4  1  0.83332000  0.16664050  0.32879850  1
  Mo  Mo1_5  1  0.83332000  0.16664050  0.82879850  1
  Mo  Mo1_6  1  0.83332000  0.66664050  0.32879850  1
  Mo  Mo1_7  1  0.83332000  0.66664050  0.82879850  1
  W  W0_0  1  0.16668000  0.33336000  0.23478550  1
  W  W0_1  1  0.16668000  0.33336000  0.73478550  1
  W  W0_2  1  0.16668000  0.83336000  0.23478550  1
  W  W0_3  1  0.16668000  0.83336000  0.73478550  1
  W  W0_4  1  0.66668000  0.33336000  0.23478550  1
  W  W0_5  1  0.66668000  0.33336000  0.73478550  1
  W  W0_6  1  0.66668000  0.83336000  0.23478550  1
  W  W0_7  1  0.66668000  0.83336000  0.73478550  1
  W  W1_0  1  0.33336300  0.16672550  0.14528800  1
  W  W1_1  1  0.33336300  0.16672550  0.64528800  1
  W  W1_2  1  0.33336300  0.66672550  0.14528800  1
  W  W1_3  1  0.33336300  0.66672550  0.64528800  1
  W  W1_4  1  0.83336300  0.16672550  0.14528800  1
  W  W1_5  1  0.83336300  0.16672550  0.64528800  1
  W  W1_6  1  0.83336300  0.66672550  0.14528800  1
  W  W1_7  1  0.83336300  0.66672550  0.64528800  1
  Se  Se0_0  1  0.33339900  0.16679700  0.21691800  1
  Se  Se0_1  1  0.33339900  0.16679700  0.71691800  1
  Se  Se0_2  1  0.33339900  0.66679700  0.21691800  1
  Se  Se0_3  1  0.33339900  0.66679700  0.71691800  1
  Se  Se0_4  1  0.83339900  0.16679700  0.21691800  1
  Se  Se0_5  1  0.83339900  0.16679700  0.71691800  1
  Se  Se0_6  1  0.83339900  0.66679700  0.21691800  1
  Se  Se0_7  1  0.83339900  0.66679700  0.71691800  1
  Se  Se1_0  1  0.33329650  0.16659250  0.25261850  1
  Se  Se1_1  1  0.33329650  0.16659250  0.75261850  1
  Se  Se1_2  1  0.33329650  0.66659250  0.25261850  1
  Se  Se1_3  1  0.33329650  0.66659250  0.75261850  1
  Se  Se1_4  1  0.83329650  0.16659250  0.25261850  1
  Se  Se1_5  1  0.83329650  0.16659250  0.75261850  1
  Se  Se1_6  1  0.83329650  0.66659250  0.25261850  1
  Se  Se1_7  1  0.83329650  0.66659250  0.75261850  1
  S  S0_0  1  0.16666200  0.33332400  0.16143100  1
  S  S0_1  1  0.16666200  0.33332400  0.66143100  1
  S  S0_2  1  0.16666200  0.83332400  0.16143100  1
  S  S0_3  1  0.16666200  0.83332400  0.66143100  1
  S  S0_4  1  0.66666200  0.33332400  0.16143100  1
  S  S0_5  1  0.66666200  0.33332400  0.66143100  1
  S  S0_6  1  0.66666200  0.83332400  0.16143100  1
  S  S0_7  1  0.66666200  0.83332400  0.66143100  1
  S  S1_0  1  0.16675150  0.33350350  0.12900700  1
  S  S1_1  1  0.16675150  0.33350350  0.62900700  1
  S  S1_2  1  0.16675150  0.83350350  0.12900700  1
  S  S1_3  1  0.16675150  0.83350350  0.62900700  1
  S  S1_4  1  0.66675150  0.33350350  0.12900700  1
  S  S1_5  1  0.66675150  0.33350350  0.62900700  1
  S  S1_6  1  0.66675150  0.83350350  0.12900700  1
  S  S1_7  1  0.66675150  0.83350350  0.62900700  1
loop_
_geom_bond_atom_site_label_1
_geom_bond_atom_site_label_2
_geom_bond_distance
_geom_bond_site_symmetry_2
Mg0_0 Mg0_4 3.389326 1_555
Mg0_0 Mg0_4 3.389326 1_455
Mg0_0 Mg0_6 3.389374 1_445
Mg0_0 Mg0_6 3.389374 1_555
Mg0_0 Mg0_2 3.389376 1_555
Mg0_0 Mg0_2 3.389376 1_545
Mg0_0 Te2_4 3.525641 1_455
Mg0_0 Te2_0 3.525642 1_555
Mg0_0 Te2_6 3.528442 1_445
Mg0_1 Mg0_5 3.389326 1_455
Mg0_1 Mg0_5 3.389326 1_555
Mg0_1 Mg0_7 3.389374 1_555
Mg0_1 Mg0_7 3.389374 1_445
Mg0_1 Mg0_3 3.389376 1_545
Mg0_1 Mg0_3 3.389376 1_555
Mg0_1 Te2_5 3.525641 1_455
Mg0_1 Te2_1 3.525642 1_555
Mg0_1 Te2_7 3.528442 1_445
Mg0_2 Mg0_6 3.389326 1_455
Mg0_2 Mg0_6 3.389326 1_555
Mg0_2 Mg0_4 3.389374 1_565
Mg0_2 Mg0_4 3.389374 1_455
Mg0_2 Te2_6 3.525641 1_455
Mg0_2 Te2_2 3.525642 1_555
Mg0_2 Te2_4 3.528442 1_455
Mg0_3 Mg0_7 3.389326 1_555
Mg0_3 Mg0_7 3.389326 1_455
Mg0_3 Mg0_5 3.389374 1_455
Mg0_3 Mg0_5 3.389374 1_565
Mg0_3 Te2_7 3.525641 1_455
Mg0_3 Te2_3 3.525642 1_555
Mg0_3 Te2_5 3.528442 1_455
Mg0_4 Mg0_6 3.389376 1_545
Mg0_4 Mg0_6 3.389376 1_555
Mg0_4 Te2_0 3.525641 1_555
Mg0_4 Te2_4 3.525642 1_555
Mg0_4 Te2_2 3.528442 1_545
Mg0_5 Mg0_7 3.389376 1_545
Mg0_5 Mg0_7 3.389376 1_555
Mg0_5 Te2_1 3.525641 1_555
Mg0_5 Te2_5 3.525642 1_555
Mg0_5 Te2_3 3.528442 1_545
Mg0_6 Te2_2 3.525641 1_555
Mg0_6 Te2_6 3.525642 1_555
Mg0_6 Te2_0 3.528442 1_555
Mg0_7 Te2_3 3.525641 1_555
Mg0_7 Te2_7 3.525642 1_555
Mg0_7 Te2_1 3.528442 1_555
Mo0_0 Te1_2 2.708672 1_555
Mo0_0 Te1_4 2.708924 1_455
Mo0_0 Te1_0 2.708927 1_555
Mo0_0 Te2_4 2.726072 1_455
Mo0_0 Te2_0 2.726073 1_555
Mo0_0 Te2_2 2.726238 1_555
Mo0_1 Te1_3 2.708672 1_555
Mo0_1 Te1_5 2.708924 1_455
Mo0_1 Te1_1 2.708927 1_555
Mo0_1 Te2_5 2.726072 1_455
Mo0_1 Te2_1 2.726073 1_555
Mo0_1 Te2_3 2.726238 1_555
Mo0_2 Te1_0 2.708672 1_565
Mo0_2 Te1_6 2.708924 1_455
Mo0_2 Te1_2 2.708927 1_555
Mo0_2 Te2_6 2.726072 1_455
Mo0_2 Te2_2 2.726073 1_555
Mo0_2 Te2_0 2.726238 1_565
Mo0_3 Te1_1 2.708672 1_565
Mo0_3 Te1_7 2.708924 1_455
Mo0_3 Te1_3 2.708927 1_555
Mo0_3 Te2_7 2.726072 1_455
Mo0_3 Te2_3 2.726073 1_555
Mo0_3 Te2_1 2.726238 1_565
Mo0_4 Te1_6 2.708672 1_555
Mo0_4 Te1_0 2.708924 1_555
Mo0_4 Te1_4 2.708927 1_555
Mo0_4 Te2_0 2.726072 1_555
Mo0_4 Te2_4 2.726073 1_555
Mo0_4 Te2_6 2.726238 1_555
Mo0_5 Te1_7 2.708672 1_555
Mo0_5 Te1_1 2.708924 1_555
Mo0_5 Te1_5 2.708927 1_555
Mo0_5 Te2_1 2.726072 1_555
Mo0_5 Te2_5 2.726073 1_555
Mo0_5 Te2_7 2.726238 1_555
Mo0_6 Te1_4 2.708672 1_565
Mo0_6 Te1_2 2.708924 1_555
Mo0_6 Te1_6 2.708927 1_555
Mo0_6 Te2_2 2.726072 1_555
Mo0_6 Te2_6 2.726073 1_555
Mo0_6 Te2_4 2.726238 1_565
Mo0_7 Te1_5 2.708672 1_565
Mo0_7 Te1_3 2.708924 1_555
Mo0_7 Te1_7 2.708927 1_555
Mo0_7 Te2_3 2.726072 1_555
Mo0_7 Te2_7 2.726073 1_555
Mo0_7 Te2_5 2.726238 1_565
Mo1_0 Te3_0 2.711181 1_555
Mo1_0 Te3_4 2.711184 1_555
Mo1_0 Te3_2 2.711394 1_545
Mo1_0 Te0_2 2.711991 1_545
Mo1_0 Te0_4 2.712090 1_555
Mo1_0 Te0_0 2.712091 1_555
Mo1_1 Te3_1 2.711181 1_555
Mo1_1 Te3_5 2.711184 1_555
Mo1_1 Te3_3 2.711394 1_545
Mo1_1 Te0_3 2.711991 1_545
Mo1_1 Te0_5 2.712090 1_555
Mo1_1 Te0_1 2.712091 1_555
Mo1_2 Te3_2 2.711181 1_555
Mo1_2 Te3_6 2.711184 1_555
Mo1_2 Te3_0 2.711394 1_555
Mo1_2 Te0_0 2.711991 1_555
Mo1_2 Te0_6 2.712090 1_555
Mo1_2 Te0_2 2.712091 1_555
Mo1_3 Te3_3 2.711181 1_555
Mo1_3 Te3_7 2.711184 1_555
Mo1_3 Te3_1 2.711394 1_555
Mo1_3 Te0_1 2.711991 1_555
Mo1_3 Te0_7 2.712090 1_555
Mo1_3 Te0_3 2.712091 1_555
Mo1_4 Te3_4 2.711181 1_555
Mo1_4 Te3_0 2.711184 1_655
Mo1_4 Te3_6 2.711394 1_545
Mo1_4 Te0_6 2.711991 1_545
Mo1_4 Te0_0 2.712090 1_655
Mo1_4 Te0_4 2.712091 1_555
Mo1_5 Te3_5 2.711181 1_555
Mo1_5 Te3_1 2.711184 1_655
Mo1_5 Te3_7 2.711394 1_545
Mo1_5 Te0_7 2.711991 1_545
Mo1_5 Te0_1 2.712090 1_655
Mo1_5 Te0_5 2.712091 1_555
Mo1_6 Te3_6 2.711181 1_555
Mo1_6 Te3_2 2.711184 1_655
Mo1_6 Te3_4 2.711394 1_555
Mo1_6 Te0_4 2.711991 1_555
Mo1_6 Te0_2 2.712090 1_655
Mo1_6 Te0_6 2.712091 1_555
Mo1_7 Te3_7 2.711181 1_555
Mo1_7 Te3_3 2.711184 1_655
Mo1_7 Te3_5 2.711394 1_555
Mo1_7 Te0_5 2.711991 1_555
Mo1_7 Te0_3 2.712090 1_655
Mo1_7 Te0_7 2.712091 1_555
Se0_0 W0_2 2.566617 1_545
Se0_0 W0_4 2.566785 1_555
Se0_0 W0_0 2.566790 1_555
Se0_1 W0_3 2.566617 1_545
Se0_1 W0_5 2.566785 1_555
Se0_1 W0_1 2.566790 1_555
Se0_2 W0_0 2.566617 1_555
Se0_2 W0_6 2.566785 1_555
Se0_2 W0_2 2.566790 1_555
Se0_3 W0_1 2.566617 1_555
Se0_3 W0_7 2.566785 1_555
Se0_3 W0_3 2.566790 1_555
Se0_4 W0_6 2.566617 1_545
Se0_4 W0_0 2.566785 1_655
Se0_4 W0_4 2.566790 1_555
Se0_5 W0_7 2.566617 1_545
Se0_5 W0_1 2.566785 1_655
Se0_5 W0_5 2.566790 1_555
Se0_6 W0_4 2.566617 1_555
Se0_6 W0_2 2.566785 1_655
Se0_6 W0_6 2.566790 1_555
Se0_7 W0_5 2.566617 1_555
Se0_7 W0_3 2.566785 1_655
Se0_7 W0_7 2.566790 1_555
Se1_0 W0_4 2.564578 1_555
Se1_0 W0_0 2.564581 1_555
Se1_0 W0_2 2.564811 1_545
Se1_1 W0_5 2.564578 1_555
Se1_1 W0_1 2.564581 1_555
Se1_1 W0_3 2.564811 1_545
Se1_2 W0_6 2.564578 1_555
Se1_2 W0_2 2.564581 1_555
Se1_2 W0_0 2.564811 1_555
Se1_3 W0_7 2.564578 1_555
Se1_3 W0_3 2.564581 1_555
Se1_3 W0_1 2.564811 1_555
Se1_4 W0_0 2.564578 1_655
Se1_4 W0_4 2.564581 1_555
Se1_4 W0_6 2.564811 1_545
Se1_5 W0_1 2.564578 1_655
Se1_5 W0_5 2.564581 1_555
Se1_5 W0_7 2.564811 1_545
Se1_6 W0_2 2.564578 1_655
Se1_6 W0_6 2.564581 1_555
Se1_6 W0_4 2.564811 1_555
Se1_7 W0_3 2.564578 1_655
Se1_7 W0_7 2.564581 1_555
Se1_7 W0_5 2.564811 1_555
S0_0 W1_2 2.465796 1_555
S0_0 W1_4 2.466132 1_455
S0_0 W1_0 2.466135 1_555
S0_1 W1_3 2.465796 1_555
S0_1 W1_5 2.466132 1_455
S0_1 W1_1 2.466135 1_555
S0_2 W1_0 2.465796 1_565
S0_2 W1_6 2.466132 1_455
S0_2 W1_2 2.466135 1_555
S0_3 W1_1 2.465796 1_565
S0_3 W1_7 2.466132 1_455
S0_3 W1_3 2.466135 1_555
S0_4 W1_6 2.465796 1_555
S0_4 W1_0 2.466132 1_555
S0_4 W1_4 2.466135 1_555
S0_5 W1_7 2.465796 1_555
S0_5 W1_1 2.466132 1_555
S0_5 W1_5 2.466135 1_555
S0_6 W1_4 2.465796 1_565
S0_6 W1_2 2.466132 1_555
S0_6 W1_6 2.466135 1_555
S0_7 W1_5 2.465796 1_565
S0_7 W1_3 2.466132 1_555
S0_7 W1_7 2.466135 1_555
S1_0 W1_4 2.473817 1_455
S1_0 W1_0 2.473823 1_555
S1_0 W1_2 2.473906 1_555
S1_1 W1_5 2.473817 1_455
S1_1 W1_1 2.473823 1_555
S1_1 W1_3 2.473906 1_555
S1_2 W1_6 2.473817 1_455
S1_2 W1_2 2.473823 1_555
S1_2 W1_0 2.473906 1_565
S1_3 W1_7 2.473817 1_455
S1_3 W1_3 2.473823 1_555
S1_3 W1_1 2.473906 1_565
S1_4 W1_0 2.473817 1_555
S1_4 W1_4 2.473823 1_555
S1_4 W1_6 2.473906 1_555
S1_5 W1_1 2.473817 1_555
S1_5 W1_5 2.473823 1_555
S1_5 W1_7 2.473906 1_555
S1_6 W1_2 2.473817 1_555
S1_6 W1_6 2.473823 1_555
S1_6 W1_4 2.473906 1_565
S1_7 W1_3 2.473817 1_555
S1_7 W1_7 2.473823 1_555
S1_7 W1_5 2.473906 1_565
