# generated using pymatgen
data_Na2Te2O7
_symmetry_space_group_name_H-M   'P 1'
_cell_length_a   7.24116598
_cell_length_b   7.24112831
_cell_length_c   7.24121178
_cell_angle_alpha   120.08242203
_cell_angle_beta   118.12626179
_cell_angle_gamma   91.56782739
_symmetry_Int_Tables_number   1
_chemical_formula_structural   Na2Te2O7
_chemical_formula_sum   'Na4 Te4 O14'
_cell_volume   271.90514568
_cell_formula_units_Z   2
loop_
 _symmetry_equiv_pos_site_id
 _symmetry_equiv_pos_as_xyz
  1  'x, y, z'
loop_
 _atom_site_type_symbol
 _atom_site_label
 _atom_site_symmetry_multiplicity
 _atom_site_fract_x
 _atom_site_fract_y
 _atom_site_fract_z
 _atom_site_occupancy
  Na  Na0  1  0.50000008  -0.00000011  0.50000022  1
  Na  Na1  1  -0.00000020  0.49999994  0.49999981  1
  Na  Na2  1  0.50000009  -0.00000018  -0.00000036  1
  Na  Na3  1  0.50000008  0.50000038  0.50000025  1
  Te  Te0  1  -0.00001462  -0.00000375  -0.00001089  1
  Te  Te1  1  0.50000063  0.49999977  0.00000084  1
  Te  Te2  1  -0.00000043  0.00000009  0.50000028  1
  Te  Te3  1  -0.00000051  0.49999929  -0.00000064  1
  O  O0  1  0.05185057  0.91379330  0.72434110  1
  O  O1  1  0.94814835  0.67248974  0.86194195  1
  O  O2  1  0.31054950  0.58621087  0.13805933  1
  O  O3  1  0.68945051  0.82751006  0.27565921  1
  O  O4  1  0.94815008  0.08620679  0.27565888  1
  O  O5  1  0.05185224  0.32751081  0.13805857  1
  O  O6  1  0.68945030  0.41378926  0.86194062  1
  O  O7  1  0.31054936  0.17248991  0.72434060  1
  O  O8  1  0.09057706  0.75000072  0.34057744  1
  O  O9  1  0.90942278  0.24999933  0.65942247  1
  O  O10  1  0.69936785  0.91833125  0.78102839  1
  O  O11  1  0.30064715  0.08167257  0.21898296  1
  O  O12  1  0.36268902  0.58166414  0.78102668  1
  O  O13  1  0.63731011  0.41833585  0.21897230  1
loop_
_geom_bond_atom_site_label_1
_geom_bond_atom_site_label_2
_geom_bond_distance
_geom_bond_site_symmetry_2
Na0 O11 2.249007 1_555
Na0 O10 2.249068 1_545
Na0 O2 2.498293 1_545
Na0 O6 2.498294 1_555
Na0 O7 2.498366 1_555
Na0 O3 2.498367 1_545
Na0 O8 2.789926 1_545
Na0 O9 2.789926 1_555
Na1 O12 2.248992 1_555
Na1 O13 2.248996 1_455
Na1 O0 2.498335 1_555
Na1 O4 2.498335 1_455
Na1 O5 2.498377 1_555
Na1 O1 2.498378 1_455
Na1 O8 2.789967 1_555
Na1 O9 2.789967 1_455
Na2 O12 2.492504 1_544
Na2 O13 2.492506 1_555
Na2 O11 2.492552 1_555
Na2 O10 2.492580 1_544
Na2 O0 2.727206 1_544
Na2 O4 2.727208 1_555
Na2 O7 2.727234 1_554
Na2 O3 2.727234 1_545
Na3 O11 2.492441 1_555
Na3 O10 2.492471 1_555
Na3 O12 2.492572 1_555
Na3 O13 2.492575 1_555
Na3 O5 2.727182 1_555
Na3 O1 2.727184 1_555
Na3 O6 2.727247 1_555
Na3 O2 2.727247 1_555
O0 Te2 1.903678 1_565
O0 Te0 1.996340 1_566
O1 Te3 1.903674 1_656
O1 Te0 1.996302 1_666
O2 Te3 1.903665 1_555
O2 Te1 1.996338 1_555
O3 Te2 1.903643 1_665
O3 Te1 1.996281 1_555
O4 Te2 1.903683 1_655
O4 Te0 1.996333 1_655
O5 Te3 1.903671 1_555
O5 Te0 1.996310 1_555
O6 Te3 1.903661 1_656
O6 Te1 1.996336 1_556
O7 Te2 1.903646 1_555
O7 Te1 1.996282 1_556
O8 Te3 1.929708 1_555
O8 Te2 1.929715 1_565
O9 Te3 1.929701 1_656
O9 Te2 1.929710 1_655
O10 Te0 1.826930 1_666
O11 Te0 1.827201 1_555
O12 Te1 1.827090 1_556
O13 Te1 1.827071 1_555
