# generated using pymatgen
data_Li3ThF7
_symmetry_space_group_name_H-M   'P 1'
_cell_length_a   6.94621500
_cell_length_b   6.94621500
_cell_length_c   12.26452400
_cell_angle_alpha   90.00000000
_cell_angle_beta   90.00000000
_cell_angle_gamma   90.00000000
_symmetry_Int_Tables_number   1
_chemical_formula_structural   Li3ThF7
_chemical_formula_sum   'Li12 Th4 F28'
_cell_volume   591.76209121
_cell_formula_units_Z   4
loop_
 _symmetry_equiv_pos_site_id
 _symmetry_equiv_pos_as_xyz
  1  'x, y, z'
loop_
 _atom_site_type_symbol
 _atom_site_label
 _atom_site_symmetry_multiplicity
 _atom_site_fract_x
 _atom_site_fract_y
 _atom_site_fract_z
 _atom_site_occupancy
  Li  Li0  1  0.50000000  0.50000000  0.00000000  1
  Li  Li1  1  0.37502700  0.62497300  0.25000000  1
  Li  Li2  1  0.87502700  0.87502700  0.25000000  1
  Li  Li3  1  0.12497300  0.12497300  0.25000000  1
  Li  Li4  1  0.62497300  0.37502700  0.25000000  1
  Li  Li5  1  0.00000000  0.00000000  0.00000000  1
  Li  Li6  1  0.00000000  0.00000000  0.50000000  1
  Li  Li7  1  0.50000000  0.50000000  0.50000000  1
  Li  Li8  1  0.87502700  0.12497300  0.75000000  1
  Li  Li9  1  0.37502700  0.37502700  0.75000000  1
  Li  Li10  1  0.62497300  0.62497300  0.75000000  1
  Li  Li11  1  0.12497300  0.87502700  0.75000000  1
  Th  Th0  1  0.50000000  0.00000000  0.64079600  1
  Th  Th1  1  0.00000000  0.50000000  0.85920400  1
  Th  Th2  1  0.00000000  0.50000000  0.35920400  1
  Th  Th3  1  0.50000000  0.00000000  0.14079600  1
  F  F0  1  0.84003000  0.15997000  0.25000000  1
  F  F1  1  0.15997000  0.84003000  0.25000000  1
  F  F2  1  0.65997000  0.65997000  0.25000000  1
  F  F3  1  0.34003000  0.34003000  0.25000000  1
  F  F4  1  0.50000000  0.00000000  0.31570300  1
  F  F5  1  0.00000000  0.50000000  0.18429700  1
  F  F6  1  0.00000000  0.50000000  0.68429700  1
  F  F7  1  0.50000000  0.00000000  0.81570300  1
  F  F8  1  0.40748800  0.70492400  0.08702700  1
  F  F9  1  0.79507600  0.90748800  0.08702700  1
  F  F10  1  0.20492400  0.09251200  0.08702700  1
  F  F11  1  0.90748800  0.79507600  0.41297300  1
  F  F12  1  0.09251200  0.20492400  0.41297300  1
  F  F13  1  0.59251200  0.29507600  0.08702700  1
  F  F14  1  0.70492400  0.40748800  0.41297300  1
  F  F15  1  0.29507600  0.59251200  0.41297300  1
  F  F16  1  0.09251200  0.79507600  0.91297300  1
  F  F17  1  0.70492400  0.59251200  0.91297300  1
  F  F18  1  0.29507600  0.40748800  0.91297300  1
  F  F19  1  0.59251200  0.70492400  0.58702700  1
  F  F20  1  0.40748800  0.29507600  0.58702700  1
  F  F21  1  0.90748800  0.20492400  0.91297300  1
  F  F22  1  0.79507600  0.09251200  0.58702700  1
  F  F23  1  0.20492400  0.90748800  0.58702700  1
  F  F24  1  0.34003000  0.65997000  0.75000000  1
  F  F25  1  0.84003000  0.84003000  0.75000000  1
  F  F26  1  0.15997000  0.15997000  0.75000000  1
  F  F27  1  0.65997000  0.34003000  0.75000000  1
loop_
_geom_bond_atom_site_label_1
_geom_bond_atom_site_label_2
_geom_bond_distance
_geom_bond_site_symmetry_2
F0 Li3 1.994148 1_655
F0 Li2 1.994148 1_545
F0 Li4 2.112598 1_555
F1 Li3 1.994148 1_565
F1 Li2 1.994148 1_455
F1 Li1 2.112598 1_555
F2 Li1 1.994148 1_555
F2 Li4 1.994148 1_555
F2 Li2 2.112598 1_555
F3 Li1 1.994148 1_555
F3 Li4 1.994148 1_555
F3 Li3 2.112598 1_555
F4 Th3 2.145151 1_555
F5 Th2 2.145151 1_555
F6 Th1 2.145151 1_555
F7 Th0 2.145151 1_555
F8 Li0 1.891658 1_555
F8 Li1 2.086722 1_555
F8 Th3 2.246983 1_565
F9 Li5 1.891658 1_665
F9 Li2 2.086722 1_555
F9 Th3 2.246983 1_565
F10 Li5 1.891658 1_555
F10 Li3 2.086722 1_555
F10 Th3 2.246983 1_555
F11 Li6 1.891658 1_665
F11 Li2 2.086722 1_555
F11 Th2 2.246983 1_655
F12 Li6 1.891658 1_555
F12 Li3 2.086722 1_555
F12 Th2 2.246983 1_555
F13 Li0 1.891658 1_555
F13 Li4 2.086722 1_555
F13 Th3 2.246983 1_555
F14 Li7 1.891658 1_555
F14 Li4 2.086722 1_555
F14 Th2 2.246983 1_655
F15 Li7 1.891658 1_555
F15 Li1 2.086722 1_555
F15 Th2 2.246983 1_555
F16 Li5 1.891658 1_566
F16 Li11 2.086722 1_555
F16 Th1 2.246983 1_555
F17 Li0 1.891658 1_556
F17 Li10 2.086722 1_555
F17 Th1 2.246983 1_655
F18 Li0 1.891658 1_556
F18 Li9 2.086722 1_555
F18 Th1 2.246983 1_555
F19 Li7 1.891658 1_555
F19 Li10 2.086722 1_555
F19 Th0 2.246983 1_565
F20 Li7 1.891658 1_555
F20 Li9 2.086722 1_555
F20 Th0 2.246983 1_555
F21 Li5 1.891658 1_656
F21 Li8 2.086722 1_555
F21 Th1 2.246983 1_655
F22 Li6 1.891658 1_655
F22 Li8 2.086722 1_555
F22 Th0 2.246983 1_555
F23 Li6 1.891658 1_565
F23 Li11 2.086722 1_555
F23 Th0 2.246983 1_565
F24 Li9 1.994148 1_555
F24 Li10 1.994148 1_555
F24 Li11 2.112598 1_555
F25 Li8 1.994148 1_565
F25 Li11 1.994148 1_655
F25 Li10 2.112598 1_555
F26 Li11 1.994148 1_545
F26 Li8 1.994148 1_455
F26 Li9 2.112598 1_555
F27 Li9 1.994148 1_555
F27 Li10 1.994148 1_555
F27 Li8 2.112598 1_555
