# generated using pymatgen
data_Na2Ca3Sn(SO4)6
_symmetry_space_group_name_H-M   'P 1'
_cell_length_a   9.07075120
_cell_length_b   9.07075089
_cell_length_c   23.99526284
_cell_angle_alpha   90.00000000
_cell_angle_beta   90.00000000
_cell_angle_gamma   120.00000114
_symmetry_Int_Tables_number   1
_chemical_formula_structural   Na2Ca3Sn(SO4)6
_chemical_formula_sum   'Na6 Ca9 Sn3 S18 O72'
_cell_volume   1709.78945032
_cell_formula_units_Z   3
loop_
 _symmetry_equiv_pos_site_id
 _symmetry_equiv_pos_as_xyz
  1  'x, y, z'
loop_
 _atom_site_type_symbol
 _atom_site_label
 _atom_site_symmetry_multiplicity
 _atom_site_fract_x
 _atom_site_fract_y
 _atom_site_fract_z
 _atom_site_occupancy
  Na  Na0  1  -0.00000000  -0.00000000  0.50435062  1
  Na  Na1  1  -0.00000000  -0.00000000  0.00333811  1
  Na  Na2  1  0.66666700  0.33333300  0.82680533  1
  Na  Na3  1  0.66666700  0.33333300  0.33690075  1
  Na  Na4  1  0.33333300  0.66666700  0.17270563  1
  Na  Na5  1  0.33333300  0.66666700  0.65648551  1
  Ca  Ca0  1  -0.00000000  -0.00000000  0.64509296  1
  Ca  Ca1  1  -0.00000000  -0.00000000  0.14847593  1
  Ca  Ca2  1  0.66666700  0.33333300  0.68113354  1
  Ca  Ca3  1  0.66666700  0.33333300  0.18566716  1
  Ca  Ca4  1  0.66666700  0.33333300  0.98289411  1
  Ca  Ca5  1  0.66666700  0.33333300  0.48333256  1
  Ca  Ca6  1  0.33333300  0.66666700  0.51412690  1
  Ca  Ca7  1  0.33333300  0.66666700  0.31853701  1
  Ca  Ca8  1  0.33333300  0.66666700  0.81285715  1
  Sn  Sn0  1  -0.00000000  -0.00000000  0.34969200  1
  Sn  Sn1  1  -0.00000000  -0.00000000  0.84697472  1
  Sn  Sn2  1  0.33333300  0.66666700  0.01482496  1
  S  S0  1  0.29189399  0.00138187  0.25167525  1
  S  S1  1  0.70948787  0.70810601  0.25167525  1
  S  S2  1  0.99861813  0.29051213  0.25167525  1
  S  S3  1  0.29318634  0.28835587  0.75268155  1
  S  S4  1  0.99516953  0.70681366  0.75268155  1
  S  S5  1  0.71164413  0.00483047  0.75268155  1
  S  S6  1  0.96847762  0.33639947  0.58317199  1
  S  S7  1  0.36792285  0.03152238  0.58317199  1
  S  S8  1  0.66360053  0.63207715  0.58317199  1
  S  S9  1  0.97583455  0.63316199  0.07968090  1
  S  S10  1  0.65732845  0.02416545  0.07968090  1
  S  S11  1  0.36683801  0.34267155  0.07968090  1
  S  S12  1  0.63631821  0.67811271  0.91599796  1
  S  S13  1  0.04179350  0.36368179  0.91599796  1
  S  S14  1  0.32188729  0.95820650  0.91599796  1
  S  S15  1  0.64477238  0.96915112  0.41296628  1
  S  S16  1  0.32437774  0.35522762  0.41296628  1
  S  S17  1  0.03084888  0.67562226  0.41296628  1
  O  O0  1  0.20563151  0.02116724  0.30368646  1
  O  O1  1  0.81553573  0.79436849  0.30368646  1
  O  O2  1  0.97883276  0.18446427  0.30368646  1
  O  O3  1  0.21271319  0.18512284  0.80763863  1
  O  O4  1  0.97240964  0.78728681  0.80763863  1
  O  O5  1  0.81487716  0.02759036  0.80763863  1
  O  O6  1  0.79872977  0.98849539  0.70500344  1
  O  O7  1  0.18976562  0.20127023  0.70500344  1
  O  O8  1  0.01150461  0.81023438  0.70500344  1
  O  O9  1  0.79270019  0.80695909  0.20174759  1
  O  O10  1  0.01425890  0.20729981  0.20174759  1
  O  O11  1  0.19304091  0.98574110  0.20174759  1
  O  O12  1  0.88610930  0.34960749  0.63454084  1
  O  O13  1  0.46349919  0.11389070  0.63454084  1
  O  O14  1  0.65039251  0.53650081  0.63454084  1
  O  O15  1  0.90331168  0.53418585  0.13040831  1
  O  O16  1  0.63087517  0.09668832  0.13040831  1
  O  O17  1  0.46581415  0.36912483  0.13040831  1
  O  O18  1  0.44932948  0.32627331  0.02964657  1
  O  O19  1  0.87694482  0.55067052  0.02964657  1
  O  O20  1  0.67372669  0.12305518  0.02964657  1
  O  O21  1  0.45277211  0.13028585  0.53316261  1
  O  O22  1  0.67751474  0.54722789  0.53316261  1
  O  O23  1  0.86971415  0.32248526  0.53316261  1
  O  O24  1  0.55871221  0.70662072  0.96858583  1
  O  O25  1  0.14790751  0.44128779  0.96858583  1
  O  O26  1  0.29337928  0.85209249  0.96858583  1
  O  O27  1  0.57217880  0.86883539  0.46356245  1
  O  O28  1  0.29665560  0.42782120  0.46356245  1
  O  O29  1  0.13116461  0.70334440  0.46356245  1
  O  O30  1  0.11338429  0.65886682  0.36305123  1
  O  O31  1  0.54548152  0.88661571  0.36305123  1
  O  O32  1  0.34113318  0.45451848  0.36305123  1
  O  O33  1  0.12564222  0.46713479  0.86728802  1
  O  O34  1  0.34149158  0.87435778  0.86728802  1
  O  O35  1  0.53286521  0.65850842  0.86728802  1
  O  O36  1  0.01719079  0.83877681  0.40768584  1
  O  O37  1  0.82158602  0.98280921  0.40768584  1
  O  O38  1  0.16122319  0.17841398  0.40768584  1
  O  O39  1  0.02827864  0.18955323  0.91207137  1
  O  O40  1  0.16127459  0.97172136  0.91207137  1
  O  O41  1  0.81044677  0.83872541  0.91207137  1
  O  O42  1  0.98638610  0.18215158  0.58526991  1
  O  O43  1  0.19576548  0.01361390  0.58526991  1
  O  O44  1  0.81784842  0.80423452  0.58526991  1
  O  O45  1  0.00365793  0.80762983  0.08344921  1
  O  O46  1  0.80397190  0.99634207  0.08344921  1
  O  O47  1  0.19237017  0.19602810  0.08344921  1
  O  O48  1  0.69554112  0.15856438  0.75236779  1
  O  O49  1  0.46302426  0.30445888  0.75236779  1
  O  O50  1  0.84143562  0.53697574  0.75236779  1
  O  O51  1  0.69599035  0.53898705  0.25020340  1
  O  O52  1  0.84299770  0.30400965  0.25020340  1
  O  O53  1  0.46101295  0.15700230  0.25020340  1
  O  O54  1  0.65805383  0.52946004  0.92274923  1
  O  O55  1  0.87140721  0.34194617  0.92274923  1
  O  O56  1  0.47053996  0.12859279  0.92274923  1
  O  O57  1  0.67174051  0.14282637  0.41703750  1
  O  O58  1  0.47108686  0.32825949  0.41703750  1
  O  O59  1  0.85717363  0.52891314  0.41703750  1
  O  O60  1  0.35345029  0.50650545  0.07417461  1
  O  O61  1  0.15305416  0.64654971  0.07417461  1
  O  O62  1  0.49349455  0.84694584  0.07417461  1
  O  O63  1  0.34964968  0.85903235  0.58064181  1
  O  O64  1  0.50938168  0.65035032  0.58064181  1
  O  O65  1  0.14096765  0.49061832  0.58064181  1
  O  O66  1  0.30704991  0.84795143  0.25656157  1
  O  O67  1  0.54090051  0.69295009  0.25656157  1
  O  O68  1  0.15204857  0.45909949  0.25656157  1
  O  O69  1  0.30555744  0.45551185  0.75856020  1
  O  O70  1  0.14995340  0.69444256  0.75856020  1
  O  O71  1  0.54448815  0.85004660  0.75856020  1
loop_
_geom_bond_atom_site_label_1
_geom_bond_atom_site_label_2
_geom_bond_distance
_geom_bond_site_symmetry_2
Na0 O44 2.592169 1_445
Na0 O42 2.592169 1_455
Na0 O43 2.592169 1_555
Na0 O38 2.787665 1_555
Na0 O36 2.787665 1_545
Na0 O37 2.787666 1_445
Na1 O47 2.607491 1_555
Na1 O45 2.607491 1_545
Na1 O46 2.607491 1_445
Na1 O39 2.716068 1_554
Na1 O41 2.716068 1_444
Na1 O40 2.716068 1_544
Na2 O50 2.487417 1_555
Na2 O48 2.487417 1_555
Na2 O49 2.487417 1_555
Na2 O56 2.934302 1_555
Na2 O54 2.934302 1_555
Na2 O55 2.934302 1_555
Na3 O59 2.601021 1_555
Na3 O57 2.601021 1_555
Na3 O58 2.601022 1_555
Na3 O51 2.717017 1_555
Na3 O53 2.717017 1_555
Na3 O52 2.717017 1_555
Na4 O68 2.683581 1_555
Na4 O67 2.683581 1_555
Na4 O66 2.683581 1_555
Na4 O62 2.828214 1_555
Na4 O60 2.828214 1_555
Na4 O61 2.828214 1_555
Na5 O63 2.473928 1_555
Na5 O65 2.473928 1_555
Na5 O64 2.473928 1_555
Ca0 O44 2.238256 1_445
Ca0 O42 2.238256 1_455
Ca0 O43 2.238257 1_555
Ca0 O7 2.284743 1_555
Ca0 O8 2.284743 1_545
Ca0 O6 2.284743 1_445
Ca1 O10 2.223345 1_555
Ca1 O9 2.223345 1_445
Ca1 O11 2.223345 1_545
Ca1 O47 2.353393 1_555
Ca1 O45 2.353393 1_545
Ca1 O46 2.353393 1_445
Ca2 O13 2.222611 1_555
Ca2 O14 2.222611 1_555
Ca2 O12 2.222611 1_555
Ca2 O50 2.432812 1_555
Ca2 O48 2.432812 1_555
Ca2 O49 2.432812 1_555
Ca3 O51 2.335053 1_555
Ca3 O53 2.335053 1_555
Ca3 O52 2.335053 1_555
Ca3 O16 2.402979 1_555
Ca3 O15 2.402979 1_555
Ca3 O17 2.402979 1_555
Ca4 O20 2.241172 1_556
Ca4 O19 2.241172 1_556
Ca4 O18 2.241172 1_556
Ca4 O56 2.322242 1_555
Ca4 O54 2.322242 1_555
Ca4 O55 2.322242 1_555
Ca5 O22 2.238920 1_555
Ca5 O21 2.238920 1_555
Ca5 O23 2.238920 1_555
Ca5 O59 2.366073 1_555
Ca5 O57 2.366073 1_555
Ca5 O58 2.366073 1_555
Ca6 O63 2.314233 1_555
Ca6 O65 2.314233 1_555
Ca6 O64 2.314233 1_555
Ca6 O29 2.357072 1_555
Ca6 O27 2.357072 1_555
Ca6 O28 2.357072 1_555
Ca7 O32 2.232750 1_555
Ca7 O31 2.232750 1_555
Ca7 O30 2.232750 1_555
Ca7 O68 2.316116 1_555
Ca7 O67 2.316116 1_555
Ca7 O66 2.316116 1_555
Ca8 O69 2.224162 1_555
Ca8 O71 2.224162 1_555
Ca8 O70 2.224162 1_555
Ca8 O34 2.262970 1_555
Ca8 O33 2.262970 1_555
Ca8 O35 2.262970 1_555
O0 S0 1.530506 1_555
O0 Sn0 2.091998 1_555
O1 S1 1.530506 1_555
O1 Sn0 2.091998 1_665
O2 S2 1.530506 1_555
O2 Sn0 2.091998 1_655
O3 S3 1.570078 1_555
O3 Sn1 2.047806 1_555
O4 S4 1.570078 1_555
O4 Sn1 2.047806 1_665
O5 S5 1.570078 1_555
O5 Sn1 2.047807 1_655
O6 S5 1.439389 1_565
O7 S3 1.439389 1_555
O8 S4 1.439389 1_455
O9 S1 1.460207 1_555
O10 S2 1.460207 1_455
O11 S0 1.460207 1_565
O12 S6 1.476961 1_555
O13 S7 1.476961 1_555
O14 S8 1.476961 1_555
O15 S9 1.459381 1_555
O16 S10 1.459381 1_555
O17 S11 1.459381 1_555
O18 S11 1.461070 1_555
O19 S9 1.461070 1_555
O20 S10 1.461070 1_555
O21 S7 1.464717 1_555
O22 S8 1.464717 1_555
O23 S6 1.464717 1_555
O24 S12 1.528636 1_555
O24 Sn2 2.191092 1_556
O25 S13 1.528636 1_555
O25 Sn2 2.191091 1_556
O26 S14 1.528636 1_555
O26 Sn2 2.191091 1_556
O27 S15 1.461633 1_555
O28 S16 1.461632 1_555
O29 S17 1.461633 1_555
O30 S17 1.460109 1_555
O31 S15 1.460109 1_555
O32 S16 1.460109 1_555
O33 S13 1.453083 1_555
O34 S14 1.453083 1_555
O35 S12 1.453083 1_555
O36 S17 1.550792 1_555
O36 Sn0 2.080265 1_565
O37 S15 1.550801 1_555
O37 Sn0 2.080265 1_665
O38 S16 1.550797 1_555
O38 Sn0 2.080265 1_555
O39 S13 1.524803 1_555
O39 Sn1 2.240745 1_555
O40 S14 1.524794 1_555
O40 Sn1 2.240745 1_565
O41 S12 1.524799 1_555
O41 Sn1 2.240745 1_665
O42 S6 1.487887 1_555
O43 S7 1.487896 1_555
O44 S8 1.487892 1_555
O45 S9 1.475448 1_455
O46 S10 1.475439 1_565
O47 S11 1.475444 1_555
O48 S5 1.472976 1_555
O49 S3 1.472985 1_555
O50 S4 1.472981 1_555
O51 S1 1.477054 1_555
O52 S2 1.477045 1_555
O53 S0 1.477050 1_555
O54 S12 1.465988 1_555
O55 S13 1.465970 1_655
O56 S14 1.465977 1_545
O57 S15 1.471662 1_545
O58 S16 1.471680 1_555
O59 S17 1.471669 1_655
O60 S11 1.556006 1_555
O60 Sn2 2.106437 1_555
O61 S9 1.555987 1_455
O61 Sn2 2.106437 1_555
O62 S10 1.555995 1_565
O62 Sn2 2.106437 1_555
O63 S7 1.489913 1_565
O64 S8 1.489931 1_555
O65 S6 1.489920 1_455
O66 S0 1.469995 1_565
O67 S1 1.470004 1_555
O68 S2 1.470000 1_455
O69 S3 1.470136 1_555
O70 S4 1.470127 1_455
O71 S5 1.470132 1_565
