# generated using pymatgen
data_Na7Hf2Si5Ge2PO24
_symmetry_space_group_name_H-M   'P 1'
_cell_length_a   8.93605408
_cell_length_b   8.96844988
_cell_length_c   22.07901435
_cell_angle_alpha   90.00332631
_cell_angle_beta   89.72448415
_cell_angle_gamma   120.03171753
_symmetry_Int_Tables_number   1
_chemical_formula_structural   Na7Hf2Si5Ge2PO24
_chemical_formula_sum   'Na21 Hf6 Si15 Ge6 P3 O72'
_cell_volume   1531.89139228
_cell_formula_units_Z   3
loop_
 _symmetry_equiv_pos_site_id
 _symmetry_equiv_pos_as_xyz
  1  'x, y, z'
loop_
 _atom_site_type_symbol
 _atom_site_label
 _atom_site_symmetry_multiplicity
 _atom_site_fract_x
 _atom_site_fract_y
 _atom_site_fract_z
 _atom_site_occupancy
  Na  Na0  1  0.63953222  0.00071033  0.25008401  1
  Na  Na1  1  0.36117299  0.36102442  0.24837384  1
  Na  Na2  1  0.00138586  0.63763205  0.25041168  1
  Na  Na3  1  0.63605634  0.63669888  0.75197404  1
  Na  Na4  1  0.00010732  0.36369169  0.75239786  1
  Na  Na5  1  0.36263538  0.00014864  0.75286837  1
  Na  Na6  1  0.30540467  0.33350694  0.58155899  1
  Na  Na7  1  0.03060024  0.69738765  0.58120464  1
  Na  Na8  1  0.66675170  0.96959392  0.58163356  1
  Na  Na9  1  0.29394233  0.96334983  0.08001504  1
  Na  Na10  1  0.04179334  0.33724936  0.08358967  1
  Na  Na11  1  0.96459562  0.66783805  0.91869247  1
  Na  Na12  1  0.33413539  0.29324443  0.92038468  1
  Na  Na13  1  0.33026463  0.03413929  0.41659464  1
  Na  Na14  1  0.70651717  0.66635069  0.41815264  1
  Na  Na15  1  0.99650862  0.00613498  0.49966346  1
  Na  Na16  1  0.98391536  0.99294194  0.00095090  1
  Na  Na17  1  0.66806649  0.32139177  0.83657932  1
  Na  Na18  1  0.68055128  0.33123646  0.33107690  1
  Na  Na19  1  0.34410340  0.66635548  0.16468149  1
  Na  Na20  1  0.33412923  0.66709172  0.66719175  1
  Hf  Hf0  1  0.99680432  0.00260816  0.35283274  1
  Hf  Hf1  1  0.99815879  0.00260158  0.85751432  1
  Hf  Hf2  1  0.99944316  -0.00001179  0.64973912  1
  Hf  Hf3  1  0.99795866  0.99559058  0.14555305  1
  Hf  Hf4  1  0.66733770  0.33423558  0.68453626  1
  Hf  Hf5  1  0.67516342  0.33118824  0.47651735  1
  Si  Si0  1  0.30218739  0.00206625  0.24915212  1
  Si  Si1  1  0.70005034  0.70063184  0.25113501  1
  Si  Si2  1  0.99923896  0.29933382  0.24763074  1
  Si  Si3  1  0.29531762  0.30284461  0.75383948  1
  Si  Si4  1  0.00516433  0.70464703  0.75382351  1
  Si  Si5  1  0.69746270  0.99277989  0.75272547  1
  Si  Si6  1  0.97010740  0.33960163  0.58176310  1
  Si  Si7  1  0.37158371  0.03330084  0.58020522  1
  Si  Si8  1  0.66026177  0.62822488  0.57982817  1
  Si  Si9  1  0.94890586  0.61395244  0.07992870  1
  Si  Si10  1  0.39186007  0.34567511  0.08069565  1
  Si  Si11  1  0.04306975  0.38352651  0.91972856  1
  Si  Si12  1  0.34533607  0.95323504  0.92049040  1
  Si  Si13  1  0.61170574  0.94421260  0.41551153  1
  Si  Si14  1  0.05399393  0.66632549  0.41511858  1
  Ge  Ge0  1  0.66790282  0.34140090  0.18483502  1
  Ge  Ge1  1  0.66838015  0.32531100  0.98058754  1
  Ge  Ge2  1  0.32745811  0.65781407  0.02019399  1
  Ge  Ge3  1  0.33375748  0.67039984  0.51943339  1
  Ge  Ge4  1  0.33007907  0.66856013  0.31190356  1
  Ge  Ge5  1  0.32919567  0.67069859  0.81632884  1
  P  P0  1  0.66156824  0.04682982  0.08213840  1
  P  P1  1  0.60994772  0.66295196  0.91914533  1
  P  P2  1  0.32965171  0.38730107  0.41637843  1
  O  O0  1  0.21913985  0.04474342  0.30820690  1
  O  O1  1  0.82490841  0.78189673  0.31030551  1
  O  O2  1  0.95527485  0.16651746  0.30410358  1
  O  O3  1  0.20906129  0.17479234  0.81166943  1
  O  O4  1  0.96744469  0.79153445  0.81216064  1
  O  O5  1  0.83281393  0.03406820  0.80734893  1
  O  O6  1  0.77727398  0.95548165  0.69129221  1
  O  O7  1  0.17396802  0.21918008  0.69400178  1
  O  O8  1  0.04081804  0.82548407  0.69384347  1
  O  O9  1  0.78942474  0.83560659  0.19522915  1
  O  O10  1  0.04189722  0.21792951  0.18819552  1
  O  O11  1  0.17305312  0.96138550  0.19140315  1
  O  O12  1  0.89003843  0.37920597  0.64237779  1
  O  O13  1  0.49308498  0.11969319  0.63963521  1
  O  O14  1  0.62492801  0.50786823  0.63998287  1
  O  O15  1  0.86614312  0.49262357  0.14091639  1
  O  O16  1  0.62834584  0.12576719  0.14020316  1
  O  O17  1  0.50164441  0.36746552  0.14294391  1
  O  O18  1  0.47525634  0.30061363  0.02157845  1
  O  O19  1  0.83158010  0.52349692  0.02008315  1
  O  O20  1  0.70098849  0.16666457  0.02644760  1
  O  O21  1  0.45631968  0.15772496  0.52167314  1
  O  O22  1  0.69765623  0.54033867  0.52169685  1
  O  O23  1  0.83609556  0.29685769  0.52647083  1
  O  O24  1  0.52406015  0.69160031  0.97495540  1
  O  O25  1  0.16787818  0.46683421  0.97882333  1
  O  O26  1  0.30658915  0.82723428  0.97961030  1
  O  O27  1  0.52859306  0.82669251  0.47672502  1
  O  O28  1  0.30756123  0.46795084  0.47521546  1
  O  O29  1  0.17040523  0.69607487  0.47600771  1
  O  O30  1  0.13947021  0.64006024  0.35341845  1
  O  O31  1  0.49521988  0.85534820  0.35509607  1
  O  O32  1  0.35793874  0.49707967  0.35881060  1
  O  O33  1  0.12937108  0.50642344  0.85916358  1
  O  O34  1  0.37021710  0.86871344  0.85790091  1
  O  O35  1  0.50114598  0.63376810  0.86060245  1
  O  O36  1  0.03896103  0.84302787  0.41337903  1
  O  O37  1  0.80302829  0.96169208  0.41328388  1
  O  O38  1  0.17118237  0.20316954  0.41286778  1
  O  O39  1  0.02899941  0.19494414  0.91621953  1
  O  O40  1  0.16905338  0.97112266  0.91728793  1
  O  O41  1  0.79507707  0.82053113  0.91580967  1
  O  O42  1  0.99044923  0.17012342  0.58705391  1
  O  O43  1  0.18058323  0.01226033  0.58695427  1
  O  O44  1  0.83080670  0.81854968  0.58634985  1
  O  O45  1  0.97854632  0.80954359  0.08458546  1
  O  O46  1  0.82765863  0.03392310  0.08711222  1
  O  O47  1  0.19554178  0.17282178  0.08540829  1
  O  O48  1  0.67635969  0.16208360  0.74673571  1
  O  O49  1  0.48535895  0.32197360  0.74690705  1
  O  O50  1  0.83500048  0.51490558  0.74739285  1
  O  O51  1  0.68519763  0.51154922  0.24221356  1
  O  O52  1  0.82527714  0.31700511  0.24038782  1
  O  O53  1  0.49360049  0.17467456  0.24000668  1
  O  O54  1  0.62777192  0.49785077  0.92173627  1
  O  O55  1  0.85065419  0.36953783  0.92395122  1
  O  O56  1  0.51394940  0.15227796  0.92499324  1
  O  O57  1  0.62291611  0.13190148  0.41721310  1
  O  O58  1  0.49452292  0.36891259  0.41876157  1
  O  O59  1  0.85643704  0.50262197  0.41637423  1
  O  O60  1  0.36653546  0.51721672  0.07589633  1
  O  O61  1  0.14795975  0.63571055  0.07700540  1
  O  O62  1  0.49691450  0.86706527  0.07640134  1
  O  O63  1  0.35560407  0.84301655  0.57581794  1
  O  O64  1  0.48445770  0.64195034  0.57486604  1
  O  O65  1  0.15899558  0.51204110  0.57357797  1
  O  O66  1  0.31978474  0.82823424  0.25472280  1
  O  O67  1  0.50644747  0.67678293  0.25863121  1
  O  O68  1  0.17406375  0.48932720  0.25661384  1
  O  O69  1  0.31154544  0.49154342  0.76205461  1
  O  O70  1  0.18074063  0.69057125  0.75877606  1
  O  O71  1  0.50985297  0.81729336  0.76059185  1
loop_
_geom_bond_atom_site_label_1
_geom_bond_atom_site_label_2
_geom_bond_distance
_geom_bond_site_symmetry_2
Na0 O52 2.476152 1_555
Na0 O66 2.477997 1_545
Na0 O53 2.494715 1_555
Na0 O67 2.535618 1_545
Na0 O31 2.650870 1_545
Na0 O16 2.696024 1_555
Na0 O9 2.724513 1_545
Na0 O2 2.725271 1_555
Na1 O68 2.464883 1_555
Na1 O67 2.465558 1_555
Na1 O53 2.491016 1_555
Na1 O51 2.511672 1_555
Na1 O17 2.626204 1_555
Na1 O32 2.733036 1_555
Na1 O0 2.789763 1_555
Na1 O10 2.814894 1_555
Na2 O51 2.470139 1_455
Na2 O66 2.482082 1_555
Na2 O68 2.495044 1_555
Na2 O52 2.503576 1_455
Na2 O30 2.587572 1_555
Na2 O15 2.729639 1_455
Na2 O1 2.816343 1_455
Na2 O11 2.829162 1_555
Na3 O71 2.399490 1_555
Na3 O49 2.447398 1_555
Na3 O50 2.511137 1_555
Na3 O69 2.523591 1_555
Na3 O35 2.673373 1_555
Na3 O14 2.710334 1_555
Na3 O6 2.816773 1_555
Na3 O4 2.895690 1_555
Na4 O69 2.432484 1_555
Na4 O50 2.456127 1_455
Na4 O48 2.534171 1_455
Na4 O70 2.546598 1_555
Na4 O12 2.654711 1_455
Na4 O33 2.659972 1_555
Na4 O7 2.784224 1_555
Na4 O5 2.829386 1_455
Na5 O70 2.418342 1_545
Na5 O48 2.430615 1_555
Na5 O49 2.526046 1_555
Na5 O71 2.571139 1_545
Na5 O34 2.617955 1_545
Na5 O13 2.734961 1_555
Na5 O8 2.819389 1_545
Na5 O3 2.855916 1_555
Na6 O64 2.408642 1_555
Na6 O42 2.439623 1_455
Na6 O43 2.518147 1_555
Na6 O65 2.530932 1_555
Na6 O28 2.635103 1_555
Na6 O7 2.713129 1_555
Na6 O14 2.797828 1_555
Na6 O21 2.857088 1_555
Na7 O43 2.449513 1_565
Na7 O65 2.452560 1_555
Na7 O44 2.514190 1_455
Na7 O63 2.520823 1_555
Na7 O29 2.634842 1_555
Na7 O8 2.722120 1_555
Na7 O12 2.818038 1_455
Na7 O22 2.899098 1_455
Na8 O63 2.424874 1_555
Na8 O44 2.446289 1_555
Na8 O42 2.532174 1_565
Na8 O64 2.553711 1_555
Na8 O27 2.641070 1_555
Na8 O6 2.646050 1_555
Na8 O23 2.815099 1_565
Na8 O13 2.816432 1_565
Na9 O62 2.368150 1_555
Na9 O45 2.441750 1_455
Na9 O47 2.443177 1_565
Na9 O61 2.550372 1_555
Na9 O26 2.559830 1_554
Na9 O11 2.677883 1_555
Na9 O16 2.915198 1_565
Na9 O18 2.917828 1_565
Na10 O61 2.354343 1_555
Na10 O46 2.419944 1_455
Na10 O47 2.468273 1_555
Na10 O60 2.522315 1_555
Na10 O10 2.545716 1_555
Na10 O25 2.575904 1_554
Na10 O15 2.859631 1_455
Na10 O20 2.929185 1_455
Na11 O55 2.340877 1_555
Na11 O40 2.400535 1_655
Na11 O41 2.500285 1_555
Na11 O19 2.556276 1_556
Na11 O4 2.595237 1_555
Na11 O54 2.606353 1_555
Na11 O33 2.847105 1_655
Na11 O26 2.976331 1_655
Na12 O54 2.331184 1_555
Na12 O39 2.411817 1_555
Na12 O56 2.495105 1_555
Na12 O40 2.502385 1_545
Na12 O18 2.555429 1_556
Na12 O3 2.641274 1_555
Na12 O25 2.931259 1_555
Na12 O35 2.952223 1_555
Na13 O36 2.292321 1_545
Na13 O57 2.305032 1_555
Na13 O38 2.546353 1_555
Na13 O21 2.579731 1_555
Na13 O58 2.600121 1_555
Na13 O0 2.615232 1_555
Na14 O37 2.341758 1_555
Na14 O58 2.376191 1_555
Na14 O59 2.433323 1_555
Na14 O22 2.533566 1_555
Na14 O36 2.575343 1_655
Na14 O1 2.596481 1_555
Na15 O42 2.442802 1_555
Na15 O37 2.475337 1_545
Na15 O44 2.483079 1_545
Na15 O43 2.522540 1_655
Na15 O38 2.538148 1_655
Na15 O36 2.541898 1_645
Na16 O45 2.457233 1_555
Na16 O41 2.488102 1_554
Na16 O46 2.488336 1_565
Na16 O39 2.491343 1_664
Na16 O40 2.545996 1_654
Na16 O47 2.576024 1_665
Na17 O56 2.427218 1_555
Na17 O55 2.427953 1_555
Na17 O48 2.466972 1_555
Na17 O50 2.548642 1_555
Na17 O49 2.573948 1_555
Na17 O54 2.594759 1_555
Na18 O52 2.416290 1_555
Na18 O59 2.447366 1_555
Na18 O57 2.479401 1_555
Na18 O51 2.529565 1_555
Na18 O53 2.547458 1_555
Na18 O58 2.675237 1_555
Na19 O60 2.436437 1_555
Na19 O67 2.511819 1_555
Na19 O62 2.533463 1_555
Na19 O66 2.533475 1_555
Na19 O61 2.538776 1_555
Na19 O68 2.550583 1_555
Na20 O70 2.504833 1_555
Na20 O64 2.507495 1_555
Na20 O63 2.507958 1_555
Na20 O71 2.538994 1_555
Na20 O65 2.550967 1_555
Na20 O69 2.566043 1_555
Hf0 O2 2.001570 1_555
Hf0 O1 2.032122 1_545
Hf0 O37 2.063081 1_545
Hf0 O0 2.071400 1_655
Hf0 O36 2.126496 1_645
Hf0 O38 2.152808 1_655
Hf1 O5 1.980572 1_555
Hf1 O3 2.007453 1_655
Hf1 O4 2.035604 1_545
Hf1 O39 2.063724 1_655
Hf1 O40 2.145810 1_645
Hf1 O41 2.151263 1_545
Hf2 O8 2.029064 1_645
Hf2 O6 2.032692 1_545
Hf2 O7 2.048758 1_655
Hf2 O43 2.086617 1_655
Hf2 O42 2.091476 1_555
Hf2 O44 2.107860 1_545
Hf3 O9 2.009579 1_555
Hf3 O11 2.015629 1_655
Hf3 O10 2.058258 1_665
Hf3 O45 2.082888 1_555
Hf3 O47 2.139127 1_665
Hf3 O46 2.154442 1_565
Hf4 O13 2.031093 1_555
Hf4 O14 2.032406 1_555
Hf4 O12 2.041637 1_555
Hf4 O49 2.086234 1_555
Hf4 O50 2.094274 1_555
Hf4 O48 2.098119 1_555
Hf5 O23 1.959046 1_555
Hf5 O21 2.043222 1_555
Hf5 O22 2.044072 1_555
Hf5 O59 2.058595 1_555
Hf5 O57 2.072974 1_555
Hf5 O58 2.216476 1_555
Ge0 O17 1.865011 1_555
Ge0 O15 1.869917 1_555
Ge0 O51 1.929507 1_555
Ge0 O53 1.948454 1_555
Ge0 O52 1.963313 1_555
Ge0 O16 2.038347 1_555
Ge1 O18 1.857096 1_556
Ge1 O19 1.861159 1_556
Ge1 O20 1.884820 1_556
Ge1 O56 1.921395 1_555
Ge1 O55 1.925572 1_555
Ge1 O54 2.186637 1_555
Ge2 O25 1.835499 1_554
Ge2 O26 1.852500 1_554
Ge2 O24 1.904279 1_554
Ge2 O60 1.915593 1_555
Ge2 O61 1.961609 1_555
Ge2 O62 2.127971 1_555
Ge3 O27 1.851165 1_555
Ge3 O29 1.858236 1_555
Ge3 O65 1.909764 1_555
Ge3 O63 1.919415 1_555
Ge3 O64 1.932964 1_555
Ge3 O28 1.970049 1_555
Ge4 O30 1.831921 1_555
Ge4 O31 1.852653 1_555
Ge4 O67 1.933553 1_555
Ge4 O66 1.945829 1_555
Ge4 O68 1.946978 1_555
Ge4 O32 1.971207 1_555
Ge5 O34 1.866030 1_555
Ge5 O33 1.898467 1_555
Ge5 O70 1.912914 1_555
Ge5 O71 1.925019 1_555
Ge5 O69 1.946897 1_555
Ge5 O35 1.987496 1_555
O0 Si0 1.634707 1_555
O1 Si1 1.637912 1_555
O2 Si2 1.629392 1_555
O3 Si3 1.627255 1_555
O4 Si4 1.624335 1_655
O5 Si5 1.618707 1_545
O6 Si5 1.640052 1_555
O7 Si3 1.638166 1_555
O8 Si4 1.637141 1_555
O9 Si1 1.627817 1_555
O10 Si2 1.635241 1_455
O11 Si0 1.638024 1_565
O12 Si6 1.635328 1_555
O13 Si7 1.634763 1_555
O14 Si8 1.638235 1_555
O15 Si9 1.652047 1_555
O16 P0 1.561886 1_555
O17 Si10 1.646384 1_555
O18 Si10 1.647549 1_555
O19 Si9 1.632510 1_555
O20 P0 1.551801 1_555
O21 Si7 1.622862 1_555
O22 Si8 1.624699 1_555
O23 Si6 1.620461 1_555
O24 P1 1.536785 1_555
O25 Si11 1.638379 1_555
O26 Si12 1.644649 1_555
O27 Si13 1.641975 1_555
O28 P2 1.545977 1_555
O29 Si14 1.642027 1_555
O30 Si14 1.632410 1_555
O31 Si13 1.637334 1_555
O32 P2 1.548133 1_555
O33 Si11 1.654433 1_555
O34 Si12 1.642970 1_555
O35 P1 1.562644 1_555
O36 Si14 1.656529 1_555
O37 Si13 1.637340 1_555
O38 P2 1.548761 1_555
O39 Si11 1.633861 1_555
O40 Si12 1.663203 1_555
O41 P1 1.548582 1_555
O42 Si6 1.622880 1_555
O43 Si7 1.626691 1_555
O44 Si8 1.629455 1_555
O45 Si9 1.641019 1_555
O46 P0 1.549781 1_555
O47 Si10 1.663644 1_555
O48 Si5 1.626480 1_545
O49 Si3 1.625636 1_555
O50 Si4 1.624837 1_655
O51 Si1 1.645298 1_555
O52 Si2 1.648108 1_555
O53 Si0 1.645967 1_555
O54 P1 1.567573 1_555
O55 Si11 1.662357 1_655
O56 Si12 1.666104 1_545
O57 Si13 1.635884 1_545
O58 P2 1.563497 1_555
O59 Si14 1.636467 1_655
O60 Si10 1.666748 1_555
O61 Si9 1.690468 1_455
O62 P0 1.551616 1_565
O63 Si7 1.642649 1_565
O64 Si8 1.640246 1_555
O65 Si6 1.630226 1_455
O66 Si0 1.648013 1_565
O67 Si1 1.641054 1_555
O68 Si2 1.649783 1_455
O69 Si3 1.634778 1_555
O70 Si4 1.639948 1_555
O71 Si5 1.635217 1_555
