# generated using pymatgen
data_Na2Y4Al4SiS11O48
_symmetry_space_group_name_H-M   'P 1'
_cell_length_a   17.44925482
_cell_length_b   8.73301509
_cell_length_c   22.90746941
_cell_angle_alpha   90.05556779
_cell_angle_beta   90.18464792
_cell_angle_gamma   119.99481709
_symmetry_Int_Tables_number   1
_chemical_formula_structural   Na2Y4Al4SiS11O48
_chemical_formula_sum   'Na6 Y12 Al12 Si3 S33 O144'
_cell_volume   3023.20319725
_cell_formula_units_Z   3
loop_
 _symmetry_equiv_pos_site_id
 _symmetry_equiv_pos_as_xyz
  1  'x, y, z'
loop_
 _atom_site_type_symbol
 _atom_site_label
 _atom_site_symmetry_multiplicity
 _atom_site_fract_x
 _atom_site_fract_y
 _atom_site_fract_z
 _atom_site_occupancy
  Na  Na0  1  0.00037260  0.96297719  0.48519058  1
  Na  Na1  1  0.50226436  0.02788059  0.00933397  1
  Na  Na2  1  0.34199699  0.33316202  0.83473266  1
  Na  Na3  1  0.83919836  0.34876535  0.83488065  1
  Na  Na4  1  0.33413857  0.33249610  0.32954587  1
  Na  Na5  1  0.84007783  0.34555444  0.32279682  1
  Y  Y0  1  0.99947447  0.99100746  0.86060550  1
  Y  Y1  1  0.49876870  0.00490418  0.86422576  1
  Y  Y2  1  0.00088375  0.99289736  0.64389797  1
  Y  Y3  1  0.49795408  0.99715789  0.63671662  1
  Y  Y4  1  0.34153149  0.33877745  0.68194266  1
  Y  Y5  1  0.83668822  0.35051338  0.68134646  1
  Y  Y6  1  0.34308198  0.33774059  0.98927651  1
  Y  Y7  1  0.83949599  0.34461199  0.46635560  1
  Y  Y8  1  0.65884118  0.65150827  0.03535502  1
  Y  Y9  1  0.15829468  0.66922236  0.50707585  1
  Y  Y10  1  0.15433604  0.65794891  0.81187573  1
  Y  Y11  1  0.67015120  0.66624192  0.81850184  1
  Al  Al0  1  0.00466749  0.99915410  0.34060392  1
  Al  Al1  1  0.50044318  0.00088422  0.35048417  1
  Al  Al2  1  0.99884921  0.00100795  0.14983951  1
  Al  Al3  1  0.49915425  -0.00033955  0.16229759  1
  Al  Al4  1  0.31952142  0.32153202  0.18110565  1
  Al  Al5  1  0.85185787  0.35692722  0.18501297  1
  Al  Al6  1  0.83788804  0.33654479  0.99426637  1
  Al  Al7  1  0.33575287  0.33481049  0.47331015  1
  Al  Al8  1  0.16279326  0.66043269  0.02737893  1
  Al  Al9  1  0.66355238  0.66761109  0.50639752  1
  Al  Al10  1  0.17466959  0.66918039  0.31710719  1
  Al  Al11  1  0.65476063  0.65679364  0.31084026  1
  Si  Si0  1  0.99249274  0.69173428  0.74725708  1
  Si  Si1  1  0.51248061  0.37296562  0.92227009  1
  Si  Si2  1  0.02238090  0.68084083  0.39965298  1
  S  S0  1  0.14570031  0.00740369  0.24362474  1
  S  S1  1  0.64224131  0.99680422  0.25690637  1
  S  S2  1  0.35396937  0.71304474  0.25681012  1
  S  S3  1  0.85626591  0.71167073  0.24388079  1
  S  S4  1  0.00123832  0.28555638  0.25215751  1
  S  S5  1  0.49965434  0.28846933  0.24931094  1
  S  S6  1  0.15711319  0.29602348  0.75281805  1
  S  S7  1  0.64388228  0.29156023  0.74875614  1
  S  S8  1  0.50364801  0.70861485  0.75241677  1
  S  S9  1  0.35099327  0.99782174  0.74934529  1
  S  S10  1  0.85289163  0.00770695  0.75118664  1
  S  S11  1  0.48390503  0.34870660  0.56513417  1
  S  S12  1  0.98643522  0.33205027  0.57635254  1
  S  S13  1  0.19261138  0.05539726  0.56853178  1
  S  S14  1  0.68929842  0.01954070  0.57322768  1
  S  S15  1  0.33399438  0.61686770  0.56857230  1
  S  S16  1  0.81894852  0.63118796  0.57124271  1
  S  S17  1  0.47192562  0.63620574  0.10202529  1
  S  S18  1  0.98013347  0.63583068  0.08888619  1
  S  S19  1  0.33435249  0.02972733  0.09446871  1
  S  S20  1  0.84685664  0.06961384  0.09441623  1
  S  S21  1  0.17864562  0.33010648  0.09014422  1
  S  S22  1  0.69244033  0.30704138  0.09552995  1
  S  S23  1  0.30444978  0.66301589  0.93102968  1
  S  S24  1  0.81294302  0.64200238  0.92958412  1
  S  S25  1  0.01644042  0.37877031  0.93350930  1
  S  S26  1  0.16312296  0.94386209  0.93229143  1
  S  S27  1  0.68289863  0.98261515  0.92908929  1
  S  S28  1  0.32229741  0.97410659  0.40685539  1
  S  S29  1  0.80314361  0.93008074  0.40489685  1
  S  S30  1  0.17160036  0.36911890  0.40597631  1
  S  S31  1  0.65388361  0.37618811  0.40474184  1
  S  S32  1  0.52022014  0.67202579  0.40933807  1
  O  O0  1  0.10751599  0.05264692  0.29418949  1
  O  O1  1  0.60118469  0.03284576  0.30844216  1
  O  O2  1  0.41318413  0.79060604  0.30855560  1
  O  O3  1  0.91684417  0.79770056  0.29407485  1
  O  O4  1  0.48409682  0.16982657  0.29962095  1
  O  O5  1  0.97731217  0.16427418  0.30379582  1
  O  O6  1  0.11013664  0.20936910  0.80715635  1
  O  O7  1  0.59574017  0.19199526  0.80098657  1
  O  O8  1  0.49712124  0.78977380  0.80718942  1
  O  O9  1  0.99694232  0.80910764  0.80396994  1
  O  O10  1  0.40453597  0.00619207  0.80029492  1
  O  O11  1  0.90254605  0.03164593  0.80661176  1
  O  O12  1  0.39586293  0.00922943  0.69322684  1
  O  O13  1  0.90671572  0.02143717  0.69987215  1
  O  O14  1  0.10788254  0.20090371  0.69995684  1
  O  O15  1  0.59475022  0.20496433  0.69447762  1
  O  O16  1  0.98322673  0.76899727  0.68427146  1
  O  O17  1  0.49317641  0.79630977  0.70010862  1
  O  O18  1  0.39514658  0.83243626  0.20642376  1
  O  O19  1  0.89514303  0.82221331  0.19080349  1
  O  O20  1  0.00971447  0.19423162  0.20037602  1
  O  O21  1  0.52085834  0.21296662  0.19714737  1
  O  O22  1  0.08733685  0.97308706  0.19208583  1
  O  O23  1  0.58444257  0.96918500  0.20523519  1
  O  O24  1  0.44929509  0.38154612  0.61968722  1
  O  O25  1  0.94047314  0.32675220  0.63062105  1
  O  O26  1  0.23719914  0.15210852  0.62226131  1
  O  O27  1  0.74051188  0.08942167  0.62739972  1
  O  O28  1  0.32786135  0.52416145  0.62373647  1
  O  O29  1  0.80676840  0.53399052  0.62595625  1
  O  O30  1  0.41994705  0.50348722  0.14799946  1
  O  O31  1  0.94573991  0.52294217  0.14261460  1
  O  O32  1  0.31440565  0.12609049  0.14105800  1
  O  O33  1  0.83645731  0.15353883  0.14863608  1
  O  O34  1  0.24157817  0.37134818  0.14111103  1
  O  O35  1  0.74959867  0.33376789  0.14730940  1
  O  O36  1  0.21420073  0.28666348  0.03919711  1
  O  O37  1  0.73207672  0.27794759  0.04212761  1
  O  O38  1  0.42552022  0.57930443  0.04579416  1
  O  O39  1  0.91578246  0.54756299  0.04054691  1
  O  O40  1  0.35974208  0.13588629  0.04059780  1
  O  O41  1  0.86335479  0.18891834  0.04390471  1
  O  O42  1  0.24027046  0.15690640  0.51497926  1
  O  O43  1  0.73157714  0.14134251  0.52402610  1
  O  O44  1  0.34043474  0.51740737  0.51719403  1
  O  O45  1  0.84070091  0.54730805  0.52283921  1
  O  O46  1  0.42162202  0.31510607  0.51555140  1
  O  O47  1  0.93528754  0.33306434  0.52465147  1
  O  O48  1  0.25798182  0.67534082  0.98405621  1
  O  O49  1  0.76282945  0.65825245  0.97823934  1
  O  O50  1  0.07628869  0.47548039  0.98322836  1
  O  O51  1  0.55486353  0.47645645  0.98391588  1
  O  O52  1  0.16406317  0.84405723  0.98511630  1
  O  O53  1  0.67101748  0.86930628  0.97924812  1
  O  O54  1  0.28477455  0.86896379  0.45953229  1
  O  O55  1  0.76224253  0.82120116  0.45786567  1
  O  O56  1  0.15472033  0.43537579  0.46026281  1
  O  O57  1  0.64084240  0.46286636  0.45602635  1
  O  O58  1  0.06286832  0.70584296  0.46540456  1
  O  O59  1  0.57971269  0.70546136  0.45949799  1
  O  O60  1  0.08589951  0.65559397  0.35309626  1
  O  O61  1  0.55530813  0.62794042  0.35620182  1
  O  O62  1  0.26371352  0.89241513  0.35528960  1
  O  O63  1  0.74729447  0.84029129  0.35243891  1
  O  O64  1  0.19700736  0.50141197  0.35801405  1
  O  O65  1  0.66750716  0.48365293  0.35099488  1
  O  O66  1  0.04939453  0.47549939  0.87825454  1
  O  O67  1  0.56552925  0.47191535  0.86395881  1
  O  O68  1  0.17410153  0.86595714  0.87839720  1
  O  O69  1  0.69576945  0.91157723  0.87381376  1
  O  O70  1  0.26330896  0.67122055  0.87645370  1
  O  O71  1  0.76680885  0.61467309  0.87297576  1
  O  O72  1  0.01400648  0.85771028  0.38953265  1
  O  O73  1  0.51342295  0.83199979  0.39977750  1
  O  O74  1  0.40903950  0.98788813  0.39663671  1
  O  O75  1  0.89309872  0.95725109  0.39877205  1
  O  O76  1  0.09087376  0.20201329  0.39104443  1
  O  O77  1  0.57430563  0.19899036  0.39815783  1
  O  O78  1  0.00642337  0.20309481  0.92938209  1
  O  O79  1  0.50454084  0.17978559  0.92889131  1
  O  O80  1  0.08031553  0.94798127  0.93182823  1
  O  O81  1  0.60431226  0.00422268  0.92499674  1
  O  O82  1  0.39740707  0.81101132  0.93447028  1
  O  O83  1  0.90018345  0.80082567  0.92733891  1
  O  O84  1  0.49331715  0.19221796  0.57205894  1
  O  O85  1  0.99643565  0.17498420  0.57042194  1
  O  O86  1  0.10221183  0.02893861  0.56644953  1
  O  O87  1  0.59964014  0.99460803  0.58071721  1
  O  O88  1  0.41462185  0.79163152  0.56953377  1
  O  O89  1  0.89277793  0.81566580  0.57522907  1
  O  O90  1  0.48016454  0.81065245  0.11443547  1
  O  O91  1  0.98725230  0.80906503  0.09954381  1
  O  O92  1  0.41376508  0.01592589  0.11085289  1
  O  O93  1  0.92469846  0.04571624  0.10038057  1
  O  O94  1  0.09213927  0.17621303  0.10476742  1
  O  O95  1  0.60204600  0.14856374  0.10315993  1
  O  O96  1  0.33917699  0.15457191  0.75263430  1
  O  O97  1  0.83043784  0.14924250  0.74893850  1
  O  O98  1  0.24356461  0.30052536  0.75305974  1
  O  O99  1  0.72900258  0.29512463  0.74848485  1
  O  O100  1  0.42890851  0.52210979  0.75244385  1
  O  O101  1  0.90469201  0.49808224  0.75458308  1
  O  O102  1  0.34052475  0.53297240  0.24689890  1
  O  O103  1  0.85085589  0.53310028  0.23559983  1
  O  O104  1  0.41903828  0.30186487  0.23963928  1
  O  O105  1  0.92456349  0.32012219  0.24396508  1
  O  O106  1  0.23529276  0.17495769  0.23462824  1
  O  O107  1  0.73202085  0.14716849  0.24957779  1
  O  O108  1  0.30354872  0.49366609  0.93175963  1
  O  O109  1  0.82134297  0.48153944  0.93961132  1
  O  O110  1  0.41453566  0.35169649  0.91562341  1
  O  O111  1  0.92928009  0.36602487  0.94432817  1
  O  O112  1  0.23830274  0.12513530  0.93575834  1
  O  O113  1  0.76385759  0.15749063  0.93891121  1
  O  O114  1  0.33461449  0.15655652  0.41427970  1
  O  O115  1  0.80662134  0.10174605  0.40968795  1
  O  O116  1  0.24898581  0.33918880  0.41379973  1
  O  O117  1  0.73156294  0.35489520  0.41085821  1
  O  O118  1  0.42977694  0.51714213  0.41914156  1
  O  O119  1  0.92459077  0.50209256  0.39740846  1
  O  O120  1  0.16880100  0.48754427  0.08093819  1
  O  O121  1  0.68325985  0.46381731  0.08972471  1
  O  O122  1  0.06798108  0.65837525  0.07667580  1
  O  O123  1  0.55972290  0.65457023  0.10085073  1
  O  O124  1  0.25662017  0.85389492  0.08553484  1
  O  O125  1  0.76732393  0.89871808  0.08659507  1
  O  O126  1  0.19147433  0.88719866  0.57023142  1
  O  O127  1  0.68101453  0.84609960  0.55899195  1
  O  O128  1  0.25614841  0.63483507  0.56328907  1
  O  O129  1  0.73523858  0.62667555  0.55746840  1
  O  O130  1  0.07401714  0.49244432  0.57738086  1
  O  O131  1  0.56915772  0.50606282  0.55278912  1
  O  O132  1  0.16098372  0.86070035  0.25329483  1
  O  O133  1  0.64503489  0.83050040  0.26497395  1
  O  O134  1  0.26651492  0.69941323  0.26643686  1
  O  O135  1  0.76711725  0.68189016  0.25421043  1
  O  O136  1  0.08311174  0.45294115  0.26200552  1
  O  O137  1  0.57681874  0.46857445  0.25845469  1
  O  O138  1  0.17460846  0.47794281  0.75119343  1
  O  O139  1  0.65785035  0.47148195  0.74981567  1
  O  O140  1  0.07946287  0.67210303  0.74674934  1
  O  O141  1  0.58815878  0.71208962  0.74932965  1
  O  O142  1  0.26595271  0.83568463  0.75054101  1
  O  O143  1  0.77222964  0.83434346  0.75036164  1
loop_
_geom_bond_atom_site_label_1
_geom_bond_atom_site_label_2
_geom_bond_distance
_geom_bond_site_symmetry_2
Na0 O86 2.430574 1_565
Na0 O72 2.433421 1_555
Na0 O89 2.655023 1_455
Na0 O75 2.703255 1_455
Na0 O85 2.713973 1_465
Na0 O76 2.870066 1_565
Na0 O58 2.981069 1_555
Na1 O79 2.260448 1_554
Na1 O82 2.526743 1_544
Na1 O95 2.626512 1_555
Na1 O81 2.708341 1_554
Na1 O92 2.768784 1_555
Na1 O90 2.971114 1_545
Na2 O110 2.200315 1_555
Na2 O96 2.426675 1_555
Na2 O98 2.453655 1_555
Na2 O100 2.469501 1_555
Na2 O108 2.880757 1_555
Na2 O112 2.945937 1_555
Na3 O101 2.217673 1_555
Na3 O97 2.580773 1_555
Na3 O99 2.628056 1_555
Na3 O109 2.749170 1_555
Na3 O113 2.833701 1_555
Na3 O111 2.918274 1_555
Na4 O116 2.457912 1_555
Na4 O114 2.479297 1_555
Na4 O102 2.544532 1_555
Na4 O118 2.622686 1_555
Na4 O104 2.631104 1_555
Na4 O106 2.681942 1_555
Na5 O119 2.219986 1_555
Na5 O105 2.414006 1_555
Na5 O107 2.465315 1_555
Na5 O103 2.531509 1_555
Na5 O115 2.758451 1_555
Na5 O117 2.800018 1_555
Al0 O72 1.735335 1_555
Al0 O5 1.925127 1_465
Al0 O0 1.935052 1_565
Al0 O3 1.967185 1_455
Al0 O76 2.014118 1_565
Al0 O75 2.237140 1_455
Al1 O74 1.872040 1_545
Al1 O77 1.898609 1_555
Al1 O1 1.901674 1_555
Al1 O2 1.950540 1_545
Al1 O73 1.958869 1_545
Al1 O4 2.009381 1_555
Al2 O94 1.892244 1_655
Al2 O93 1.899133 1_555
Al2 O22 1.935803 1_645
Al2 O19 1.944714 1_545
Al2 O91 1.958004 1_545
Al2 O20 1.974452 1_655
Al3 O90 1.866466 1_545
Al3 O21 1.881644 1_555
Al3 O23 1.907922 1_545
Al3 O18 1.952660 1_545
Al3 O92 1.956941 1_555
Al3 O95 2.105793 1_555
Al4 O30 1.843278 1_555
Al4 O106 1.853505 1_555
Al4 O34 1.860837 1_555
Al4 O32 1.899163 1_555
Al4 O104 2.264167 1_555
Al4 O102 2.264919 1_555
Al5 O31 1.834989 1_555
Al5 O33 1.854702 1_555
Al5 O35 1.897278 1_555
Al5 O103 1.932299 1_555
Al5 O105 1.983434 1_555
Al5 O107 2.472035 1_555
Al6 O111 1.876138 1_555
Al6 O109 1.902758 1_555
Al6 O113 1.920343 1_555
Al6 O41 1.930009 1_556
Al6 O39 1.962126 1_556
Al6 O37 1.985525 1_556
Al7 O44 1.850990 1_555
Al7 O46 1.860046 1_555
Al7 O42 1.877719 1_555
Al7 O118 2.042514 1_555
Al7 O116 2.048610 1_555
Al7 O114 2.053550 1_555
Al8 O50 1.859967 1_554
Al8 O52 1.864647 1_554
Al8 O48 1.885555 1_554
Al8 O120 1.989200 1_555
Al8 O122 1.998742 1_555
Al8 O124 2.127344 1_555
Al9 O127 1.869008 1_555
Al9 O129 1.870732 1_555
Al9 O131 1.877103 1_555
Al9 O55 1.925192 1_555
Al9 O59 1.969197 1_555
Al9 O57 1.992525 1_555
Al10 O60 1.708134 1_555
Al10 O134 1.890754 1_555
Al10 O64 1.935952 1_555
Al10 O62 1.984723 1_555
Al10 O136 2.162785 1_555
Al10 O132 2.322303 1_555
Al11 O63 1.866328 1_555
Al11 O65 1.876026 1_555
Al11 O133 1.921800 1_555
Al11 O61 1.931244 1_555
Al11 O137 1.934436 1_555
Al11 O135 2.271986 1_555
O0 S0 1.486283 1_555
O1 S1 1.495394 1_545
O2 S2 1.490728 1_555
O3 S3 1.483353 1_555
O4 S5 1.482741 1_555
O5 S4 1.502953 1_655
O6 S6 1.477223 1_555
O6 Y0 2.280859 1_445
O7 S7 1.473578 1_555
O7 Y1 2.210754 1_555
O8 S8 1.472921 1_555
O8 Y1 2.275647 1_565
O9 Si0 1.631466 1_555
O9 Y0 2.033233 1_555
O10 S9 1.471371 1_545
O10 Y1 2.202626 1_555
O11 S10 1.489197 1_555
O11 Y0 2.259178 1_545
O12 S9 1.484676 1_545
O12 Y3 2.250037 1_545
O13 S10 1.474114 1_555
O13 Y2 2.197417 1_645
O14 S6 1.473827 1_555
O14 Y2 2.241367 1_545
O15 S7 1.481879 1_555
O15 Y3 2.193895 1_545
O16 Si0 1.634830 1_555
O16 Y2 2.043666 1_655
O17 S8 1.481884 1_555
O17 Y3 2.247612 1_555
O18 S2 1.481300 1_555
O19 S3 1.491066 1_555
O20 S4 1.477231 1_555
O21 S5 1.498257 1_555
O22 S0 1.485677 1_565
O23 S1 1.491614 1_555
O24 S11 1.478507 1_555
O24 Y4 2.241716 1_555
O25 S12 1.469769 1_555
O25 Y5 2.249826 1_555
O26 S13 1.472527 1_555
O26 Y4 2.203000 1_555
O27 S14 1.468696 1_555
O27 Y5 2.386992 1_555
O28 S15 1.476485 1_555
O28 Y4 2.200915 1_555
O29 S16 1.469682 1_555
O29 Y5 2.299133 1_555
O30 S17 1.494180 1_555
O31 S18 1.504148 1_555
O32 S19 1.503946 1_555
O33 S20 1.498473 1_555
O34 S21 1.514655 1_555
O35 S22 1.488365 1_555
O36 S21 1.459467 1_555
O36 Y6 2.361937 1_554
O37 S22 1.489947 1_555
O38 S17 1.466822 1_555
O38 Y6 2.268112 1_554
O39 S18 1.485307 1_555
O40 S19 1.474353 1_555
O40 Y6 2.255723 1_554
O41 S20 1.487232 1_555
O42 S13 1.501314 1_555
O43 S14 1.472787 1_555
O43 Y7 2.262925 1_555
O44 S15 1.499581 1_555
O45 S16 1.479606 1_555
O45 Y7 2.183164 1_555
O46 S11 1.493266 1_555
O47 S12 1.483370 1_555
O47 Y7 2.177564 1_555
O48 S23 1.495958 1_555
O49 S24 1.468708 1_555
O49 Y8 2.217293 1_556
O50 S25 1.486497 1_555
O51 Si1 1.637203 1_555
O51 Y8 2.055928 1_556
O52 S26 1.496820 1_555
O53 S27 1.463216 1_555
O53 Y8 2.217483 1_556
O54 S28 1.460842 1_555
O54 Y9 2.295580 1_555
O55 S29 1.488313 1_555
O56 S30 1.462664 1_555
O56 Y9 2.278674 1_555
O57 S31 1.475517 1_555
O58 Si2 1.629018 1_555
O58 Y9 2.075792 1_555
O59 S32 1.473699 1_555
O60 Si2 1.632779 1_555
O61 S32 1.498092 1_555
O62 S28 1.486839 1_555
O63 S29 1.495053 1_555
O64 S30 1.493962 1_555
O65 S31 1.494728 1_555
O66 S25 1.472224 1_555
O66 Y10 2.304220 1_555
O67 Si1 1.611916 1_555
O67 Y11 2.053071 1_555
O68 S26 1.467639 1_555
O68 Y10 2.259575 1_555
O69 S27 1.475886 1_555
O69 Y11 2.330048 1_555
O70 S23 1.459210 1_555
O70 Y10 2.361925 1_555
O71 S24 1.478899 1_555
O71 Y11 2.313347 1_555
O72 Si2 1.639222 1_555
O73 S32 1.476447 1_555
O74 S28 1.476624 1_555
O75 S29 1.472713 1_555
O76 S30 1.473590 1_555
O77 S31 1.481658 1_555
O78 S25 1.457630 1_555
O78 Y0 2.386622 1_445
O79 Si1 1.629496 1_555
O79 Y1 2.092316 1_555
O80 S26 1.463248 1_555
O80 Y0 2.304177 1_455
O81 S27 1.477400 1_545
O81 Y1 2.307413 1_555
O82 S23 1.486789 1_555
O82 Y1 2.369373 1_565
O83 S24 1.460593 1_555
O83 Y0 2.289546 1_555
O84 S11 1.464392 1_555
O84 Y3 2.289988 1_545
O85 S12 1.472911 1_555
O85 Y2 2.344227 1_645
O86 S13 1.476124 1_555
O86 Y2 2.416138 1_545
O87 S14 1.478385 1_565
O87 Y3 2.201933 1_555
O88 S15 1.470378 1_555
O88 Y3 2.252805 1_555
O89 S16 1.478942 1_555
O89 Y2 2.342080 1_655
O90 S17 1.484011 1_555
O91 S18 1.474777 1_555
O92 S19 1.496414 1_555
O93 S20 1.479675 1_555
O94 S21 1.474014 1_555
O95 S22 1.501165 1_555
O96 S9 1.484649 1_545
O96 Y4 2.269638 1_555
O97 S10 1.472458 1_555
O97 Y5 2.305110 1_555
O98 S6 1.489240 1_555
O98 Y4 2.266243 1_555
O99 S7 1.470005 1_555
O99 Y5 2.289411 1_555
O100 S8 1.493265 1_555
O100 Y4 2.243796 1_555
O101 Si0 1.626978 1_555
O101 Y5 2.082647 1_555
O102 S2 1.486497 1_555
O103 S3 1.526082 1_555
O104 S5 1.484629 1_555
O105 S4 1.522716 1_655
O106 S0 1.530699 1_555
O107 S1 1.466971 1_545
O108 S23 1.471249 1_555
O108 Y6 2.236711 1_555
O109 S24 1.497908 1_555
O110 Si1 1.630785 1_555
O110 Y6 2.068353 1_555
O111 S25 1.490007 1_655
O112 S26 1.468330 1_545
O112 Y6 2.209090 1_555
O113 S27 1.489557 1_545
O114 S28 1.506880 1_545
O115 S29 1.473728 1_545
O115 Y7 2.299127 1_555
O116 S30 1.508383 1_555
O117 S31 1.463652 1_555
O117 Y7 2.307637 1_555
O118 S32 1.496379 1_555
O119 Si2 1.639244 1_655
O119 Y7 2.137345 1_555
O120 S21 1.483518 1_555
O121 S22 1.461971 1_555
O121 Y8 2.262357 1_555
O122 S18 1.472355 1_455
O123 S17 1.458792 1_555
O123 Y8 2.303462 1_555
O124 S19 1.467885 1_565
O125 S20 1.453422 1_565
O125 Y8 2.348732 1_555
O126 S13 1.459622 1_565
O126 Y9 2.222436 1_555
O127 S14 1.483670 1_565
O128 S15 1.447921 1_555
O128 Y9 2.272244 1_555
O129 S16 1.474498 1_555
O130 S12 1.468841 1_455
O130 Y9 2.211298 1_555
O131 S11 1.463169 1_555
O132 S0 1.450293 1_565
O133 S1 1.488976 1_555
O134 S2 1.487316 1_555
O135 S3 1.463367 1_555
O136 S4 1.462168 1_555
O137 S5 1.486876 1_555
O138 S6 1.460762 1_555
O138 Y10 2.254670 1_555
O139 S7 1.464865 1_555
O139 Y11 2.245490 1_555
O140 Si0 1.610207 1_455
O140 Y10 2.024140 1_555
O141 S8 1.461660 1_555
O141 Y11 2.297266 1_555
O142 S9 1.451602 1_555
O142 Y10 2.275053 1_555
O143 S10 1.463806 1_565
O143 Y11 2.274239 1_555
