# generated using pymatgen
data_P2H4PbO4
_symmetry_space_group_name_H-M   'P 1'
_cell_length_a   8.52849014
_cell_length_b   8.52849014
_cell_length_c   6.06658278
_cell_angle_alpha   86.96903360
_cell_angle_beta   86.96903360
_cell_angle_gamma   41.90415545
_symmetry_Int_Tables_number   1
_chemical_formula_structural   P2H4PbO4
_chemical_formula_sum   'P4 H8 Pb2 O8'
_cell_volume   294.23469496
_cell_formula_units_Z   2
loop_
 _symmetry_equiv_pos_site_id
 _symmetry_equiv_pos_as_xyz
  1  'x, y, z'
loop_
 _atom_site_type_symbol
 _atom_site_label
 _atom_site_symmetry_multiplicity
 _atom_site_fract_x
 _atom_site_fract_y
 _atom_site_fract_z
 _atom_site_occupancy
  P  P0  1  0.61390800  0.10973700  0.77114600  1
  P  P1  1  0.89026300  0.38609200  0.72885400  1
  P  P2  1  0.38609200  0.89026300  0.22885400  1
  P  P3  1  0.10973700  0.61390800  0.27114600  1
  H  H0  1  0.56591900  0.82255100  0.35240900  1
  H  H1  1  0.43408100  0.17744900  0.64759100  1
  H  H2  1  0.82255100  0.56591900  0.85240900  1
  H  H3  1  0.17744900  0.43408100  0.14759100  1
  H  H4  1  0.68820100  0.92468700  0.90777700  1
  H  H5  1  0.07531300  0.31179900  0.59222300  1
  H  H6  1  0.92468700  0.68820100  0.40777700  1
  H  H7  1  0.31179900  0.07531300  0.09222300  1
  Pb  Pb0  1  0.24972200  0.75027800  0.75000000  1
  Pb  Pb1  1  0.75027800  0.24972200  0.25000000  1
  O  O0  1  0.99043100  0.18373500  0.88682900  1
  O  O1  1  0.81626500  0.00956900  0.61317100  1
  O  O2  1  0.31285100  0.50726100  0.41671100  1
  O  O3  1  0.50726100  0.31285100  0.91671100  1
  O  O4  1  0.49273900  0.68714900  0.08328900  1
  O  O5  1  0.68714900  0.49273900  0.58328900  1
  O  O6  1  0.00956900  0.81626500  0.11317100  1
  O  O7  1  0.18373500  0.99043100  0.38682900  1
loop_
_geom_bond_atom_site_label_1
_geom_bond_atom_site_label_2
_geom_bond_distance
_geom_bond_site_symmetry_2
H0 P2 1.415938 1_555
H1 P0 1.415938 1_555
H2 P1 1.415938 1_555
H3 P3 1.415938 1_555
H4 P0 1.417022 1_565
H5 P1 1.417022 1_455
H6 P3 1.417022 1_655
H7 P2 1.417022 1_545
O0 P1 1.530935 1_555
O0 Pb0 2.684579 1_645
O0 Pb1 2.702576 1_556
O1 P0 1.530935 1_555
O1 Pb0 2.684579 1_645
O1 Pb1 2.702576 1_555
O2 P3 1.529504 1_555
O2 Pb0 2.709362 1_555
O2 Pb1 2.720928 1_555
O3 P0 1.529504 1_555
O3 Pb1 2.709362 1_556
O3 Pb0 2.720928 1_555
O4 P2 1.529504 1_555
O4 Pb0 2.709362 1_554
O4 Pb1 2.720928 1_555
O5 P1 1.529504 1_555
O5 Pb1 2.709362 1_555
O5 Pb0 2.720928 1_555
O6 P3 1.530935 1_555
O6 Pb1 2.684579 1_465
O6 Pb0 2.702576 1_554
O7 P2 1.530935 1_555
O7 Pb1 2.684579 1_465
O7 Pb0 2.702576 1_555
