# generated using pymatgen
data_Li5Ni9(P2O7)8
_symmetry_space_group_name_H-M   'P 1'
_cell_length_a   10.77094948
_cell_length_b   9.67105427
_cell_length_c   12.60719042
_cell_angle_alpha   85.24111810
_cell_angle_beta   66.22540690
_cell_angle_gamma   109.91851735
_symmetry_Int_Tables_number   1
_chemical_formula_structural   Li5Ni9(P2O7)8
_chemical_formula_sum   'Li5 Ni9 P16 O56'
_cell_volume   1092.24016116
_cell_formula_units_Z   1
loop_
 _symmetry_equiv_pos_site_id
 _symmetry_equiv_pos_as_xyz
  1  'x, y, z'
loop_
 _atom_site_type_symbol
 _atom_site_label
 _atom_site_symmetry_multiplicity
 _atom_site_fract_x
 _atom_site_fract_y
 _atom_site_fract_z
 _atom_site_occupancy
  Li  Li0  1  1.00161052  0.43794875  0.59962513  1
  Li  Li1  1  0.27631053  0.61524789  0.19289615  1
  Li  Li2  1  0.96810488  0.96756231  0.00709238  1
  Li  Li3  1  0.48529939  0.05075323  0.90626461  1
  Li  Li4  1  0.69861849  0.37906077  0.83123957  1
  O  O0  1  0.51824434  0.72140604  0.79317664  1
  O  O1  1  0.88474143  0.31091444  0.96593580  1
  O  O2  1  0.87581071  0.29801586  0.77099814  1
  O  O3  1  0.98659754  0.32638406  0.47441225  1
  O  O4  1  0.97884721  0.78181974  0.70543284  1
  O  O5  1  0.88916903  0.83668812  0.55791250  1
  O  O6  1  0.72394233  0.49153745  0.97382078  1
  O  O7  1  0.87965510  0.04888505  0.15755989  1
  O  O8  1  0.74159179  0.58050185  0.71413306  1
  O  O9  1  0.07088063  0.90758624  0.10167138  1
  O  O10  1  0.10344080  0.67619371  0.03714533  1
  O  O11  1  0.14198737  0.72250248  0.20652710  1
  O  O12  1  0.00885941  0.64854991  0.54918819  1
  O  O13  1  0.01773547  0.21835954  0.30148154  1
  O  O14  1  0.16798059  0.23217056  0.03726721  1
  O  O15  1  0.27484157  0.51936139  0.02675037  1
  O  O16  1  0.11496003  0.95735072  0.83836397  1
  O  O17  1  0.25245464  0.41663416  0.29759073  1
  O  O18  1  0.12047322  0.14929632  0.43384859  1
  O  O19  1  0.16124829  0.57284993  0.64498249  1
  O  O20  1  0.40866502  0.74908236  0.24585919  1
  O  O21  1  0.24711888  0.08654235  0.19710119  1
  O  O22  1  0.39278297  0.35883002  0.06899981  1
  O  O23  1  0.37198039  0.81720511  0.43723351  1
  O  O24  1  0.29558626  0.88502378  0.66932102  1
  O  O25  1  0.08347625  0.11313009  0.64879694  1
  O  O26  1  0.11743866  0.34198165  0.78447922  1
  O  O27  1  0.20292221  0.59921348  0.82817679  1
  O  O28  1  0.43914937  0.58985235  0.39738947  1
  O  O29  1  0.33166071  0.29114653  0.47542803  1
  O  O30  1  0.33601302  0.92312471  0.84732475  1
  O  O31  1  0.23613667  0.00248975  0.49898496  1
  O  O32  1  0.59571079  0.59548893  0.14595985  1
  O  O33  1  0.51855401  0.17649252  0.02386240  1
  O  O34  1  0.48060660  0.27017846  0.20456074  1
  O  O35  1  0.62931554  0.85095311  0.29123238  1
  O  O36  1  0.37848770  0.53331890  0.65691530  1
  O  O37  1  0.62219457  0.45162366  0.35034946  1
  O  O38  1  0.37151333  0.14902926  0.70727636  1
  O  O39  1  0.48662150  0.84874643  0.95255503  1
  O  O40  1  0.90784979  0.08814718  0.89255958  1
  O  O41  1  0.65039536  0.08335901  0.16551659  1
  O  O42  1  0.40767610  0.40479992  0.86262842  1
  O  O43  1  0.66750207  0.70184258  0.52651619  1
  O  O44  1  0.76503375  0.98857273  0.50921417  1
  O  O45  1  0.57104054  0.40729024  0.60948973  1
  O  O46  1  0.79657559  0.40040552  0.16934197  1
  O  O47  1  0.87821666  0.65044804  0.22488227  1
  O  O48  1  0.91194591  0.88738128  0.34831433  1
  O  O49  1  0.70140902  0.10845290  0.33860057  1
  O  O50  1  0.62625604  0.17848212  0.56227218  1
  O  O51  1  0.59697044  0.65358815  0.94560275  1
  O  O52  1  0.75624877  0.90856390  0.78896062  1
  O  O53  1  0.58303044  0.23304015  0.76477957  1
  O  O54  1  0.84797413  0.41273936  0.34803984  1
  O  O55  1  0.82932986  0.77869056  0.96680498  1
  P  P0  1  0.93775120  0.25538658  0.85182761  1
  P  P1  1  0.89769564  0.70327510  0.63380599  1
  P  P2  1  0.72260069  0.03364767  0.23466751  1
  P  P3  1  0.80440533  0.85438272  0.47984654  1
  P  P4  1  0.54781989  0.24401528  0.65985597  1
  P  P5  1  0.59816540  0.79394759  0.86779939  1
  P  P6  1  0.78230140  0.46776411  0.27570172  1
  P  P7  1  0.30527999  0.38089974  0.99523280  1
  P  P8  1  0.69251747  0.62801378  0.01141335  1
  P  P9  1  0.05398794  0.74744611  0.14338338  1
  P  P10  1  0.09935050  0.28767621  0.37540684  1
  P  P11  1  0.27253924  0.96897737  0.76799754  1
  P  P12  1  0.21927033  0.52236472  0.72681056  1
  P  P13  1  0.45528303  0.74783574  0.34474823  1
  P  P14  1  0.40232480  0.20973330  0.12614159  1
  P  P15  1  0.19664926  0.13764120  0.52000093  1
  Ni  Ni0  1  0.05133192  0.06691185  0.19766679  1
  Ni  Ni1  1  0.18872143  0.78957683  0.58158129  1
  Ni  Ni2  1  0.45081578  0.42878579  0.29954858  1
  Ni  Ni3  1  0.30837764  0.70725359  0.91273041  1
  Ni  Ni4  1  0.50608211  0.49909959  0.50178907  1
  Ni  Ni5  1  0.68843955  0.29397889  0.08484702  1
  Ni  Ni6  1  0.54906152  0.56391003  0.70524295  1
  Ni  Ni7  1  0.81208513  0.20221858  0.42488625  1
  Ni  Ni8  1  0.94478657  0.93635206  0.79780386  1
loop_
_geom_bond_atom_site_label_1
_geom_bond_atom_site_label_2
_geom_bond_distance
_geom_bond_site_symmetry_2
Li0 O3 2.012894 1_555
Li0 O12 2.048278 1_655
Li0 O2 2.059215 1_555
Li0 O19 2.091324 1_655
Li1 O20 1.951166 1_555
Li1 O11 2.012533 1_555
Li1 O17 2.113588 1_555
Li1 O15 2.363615 1_555
Li2 O9 2.090603 1_655
Li2 O7 2.103714 1_565
Li2 O16 2.113072 1_654
Li2 O55 2.175864 1_554
Li2 O40 2.204092 1_564
Li3 O39 1.998472 1_545
Li3 O53 2.024229 1_555
Li3 O33 2.058055 1_556
Li3 O30 2.103425 1_545
Li4 O53 2.021318 1_555
Li4 O8 2.132277 1_555
Li4 O2 2.186994 1_555
Li4 O6 2.237502 1_555
Li4 O33 2.514157 1_556
O0 P5 1.571388 1_555
O1 P0 1.535821 1_555
O2 P0 1.522941 1_555
O3 P10 1.529079 1_655
O4 P1 1.566611 1_555
O5 P1 1.592291 1_555
O5 P3 1.623100 1_555
O6 P8 1.536257 1_556
O7 P2 1.519476 1_555
O8 P1 1.526350 1_555
O9 P9 1.517863 1_555
O10 P9 1.542877 1_555
O11 P9 1.524010 1_555
O12 P1 1.532110 1_455
O13 P10 1.566356 1_555
O14 P7 1.526111 1_554
O15 P7 1.529987 1_554
O16 P11 1.523084 1_555
O17 P10 1.525956 1_555
O18 P10 1.601441 1_555
O18 P15 1.620751 1_555
O19 P12 1.528838 1_555
O20 P13 1.520830 1_555
O21 P14 1.508192 1_555
O22 P14 1.611517 1_555
O22 P7 1.615418 1_554
O23 P13 1.520218 1_555
O24 P11 1.524594 1_555
O25 P15 1.523826 1_555
O26 P12 1.617943 1_555
O26 P0 1.618870 1_455
O27 P12 1.510573 1_555
O28 P13 1.537165 1_555
O29 P15 1.538225 1_555
O30 P11 1.532483 1_555
O31 P15 1.518182 1_555
O32 P8 1.524920 1_555
O33 P14 1.541018 1_555
O34 P14 1.569152 1_555
O35 P13 1.599500 1_555
O35 P2 1.625874 1_565
O36 P12 1.539796 1_555
O37 P6 1.538707 1_555
O38 P11 1.615731 1_545
O38 P4 1.616273 1_555
O39 P5 1.535833 1_555
O40 P0 1.535338 1_555
O41 P2 1.525746 1_555
O42 P7 1.529772 1_555
O43 P3 1.539838 1_555
O44 P3 1.526174 1_555
O45 P4 1.547777 1_555
O46 P6 1.514252 1_555
O47 P9 1.606721 1_655
O47 P6 1.622970 1_555
O48 P3 1.518215 1_555
O49 P2 1.523491 1_555
O50 P4 1.511664 1_555
O51 P5 1.600589 1_555
O51 P8 1.623729 1_556
O52 P5 1.510784 1_555
O53 P4 1.521017 1_555
O54 P6 1.520305 1_555
O55 P8 1.530988 1_556
Ni0 O21 2.048913 1_555
Ni0 O9 2.051395 1_545
Ni0 O48 2.062378 1_445
Ni0 O7 2.062557 1_455
Ni0 O14 2.066196 1_555
Ni0 O13 2.070387 1_555
Ni1 O24 1.967883 1_555
Ni1 O23 1.985710 1_555
Ni1 O31 2.020874 1_565
Ni1 O19 2.056282 1_555
Ni1 O4 2.138422 1_455
Ni1 O12 2.170256 1_555
Ni2 O32 2.028619 1_555
Ni2 O34 2.054317 1_555
Ni2 O28 2.071447 1_555
Ni2 O29 2.094610 1_555
Ni2 O17 2.109771 1_555
Ni2 O37 2.136642 1_555
Ni3 O27 1.967390 1_555
Ni3 O10 2.025194 1_556
Ni3 O15 2.049250 1_556
Ni3 O30 2.054284 1_555
Ni3 O0 2.099552 1_555
Ni3 O39 2.216205 1_555
Ni4 O28 2.006716 1_555
Ni4 O37 2.007878 1_555
Ni4 O36 2.018228 1_555
Ni4 O45 2.027493 1_555
Ni4 O43 2.276004 1_555
Ni4 O29 2.392582 1_555
Ni5 O1 1.977972 1_554
Ni5 O46 1.978931 1_555
Ni5 O41 2.025539 1_555
Ni5 O34 2.051631 1_555
Ni5 O6 2.093500 1_554
Ni5 O33 2.256775 1_555
Ni6 O0 1.996779 1_555
Ni6 O42 2.020976 1_555
Ni6 O45 2.030978 1_555
Ni6 O8 2.074207 1_555
Ni6 O36 2.096734 1_555
Ni6 O43 2.123228 1_555
Ni7 O50 1.970958 1_555
Ni7 O49 1.974694 1_555
Ni7 O54 2.016847 1_555
Ni7 O44 2.035642 1_545
Ni7 O13 2.072881 1_655
Ni7 O3 2.213073 1_555
Ni8 O52 2.006037 1_555
Ni8 O4 2.010505 1_555
Ni8 O40 2.011509 1_565
Ni8 O25 2.036588 1_665
Ni8 O16 2.044909 1_655
Ni8 O55 2.107986 1_555
