# generated using pymatgen
data_Na6Zr3ZnSi2(PO6)4
_symmetry_space_group_name_H-M   'P 1'
_cell_length_a   15.82828554
_cell_length_b   9.15080136
_cell_length_c   9.13916987
_cell_angle_alpha   90.23391525
_cell_angle_beta   124.77598122
_cell_angle_gamma   89.84740271
_symmetry_Int_Tables_number   1
_chemical_formula_structural   Na6Zr3ZnSi2(PO6)4
_chemical_formula_sum   'Na12 Zr6 Zn2 Si4 P8 O48'
_cell_volume   1087.28815075
_cell_formula_units_Z   2
loop_
 _symmetry_equiv_pos_site_id
 _symmetry_equiv_pos_as_xyz
  1  'x, y, z'
loop_
 _atom_site_type_symbol
 _atom_site_label
 _atom_site_symmetry_multiplicity
 _atom_site_fract_x
 _atom_site_fract_y
 _atom_site_fract_z
 _atom_site_occupancy
  Na  Na0  1  0.25027660  0.74904623  0.99920958  1
  Na  Na1  1  0.74104937  0.74567693  0.47531217  1
  Na  Na2  1  0.75027660  0.24904623  0.99920958  1
  Na  Na3  1  0.24104937  0.24567693  0.47531217  1
  Na  Na4  1  0.51042785  0.08731226  0.77306126  1
  Na  Na5  1  0.49665119  0.88657700  0.22626738  1
  Na  Na6  1  0.01042785  0.58731226  0.77306126  1
  Na  Na7  1  0.99665119  0.38657700  0.22626738  1
  Na  Na8  1  0.79888527  0.92357258  0.20677162  1
  Na  Na9  1  0.18416769  0.08240489  0.80938223  1
  Na  Na10  1  0.29888527  0.42357258  0.20677162  1
  Na  Na11  1  0.68416769  0.58240489  0.80938223  1
  Zr  Zr0  1  0.10378111  0.74834864  0.55701059  1
  Zr  Zr1  1  0.89469345  0.75589480  0.93569917  1
  Zr  Zr2  1  0.89619444  0.25408307  0.44267417  1
  Zr  Zr3  1  0.60378111  0.24834864  0.55701059  1
  Zr  Zr4  1  0.39469345  0.25589480  0.93569917  1
  Zr  Zr5  1  0.39619444  0.75408307  0.44267417  1
  Zn  Zn0  1  0.10484202  0.24156356  0.05587150  1
  Zn  Zn1  1  0.60484202  0.74156356  0.05587150  1
  Si  Si0  1  0.64937267  0.89901146  0.75209088  1
  Si  Si1  1  0.34995681  0.10115019  0.25075186  1
  Si  Si2  1  0.14937267  0.39901146  0.75209088  1
  Si  Si3  1  0.84995681  0.60115019  0.25075186  1
  P  P0  1  0.99899780  0.95729588  0.74771668  1
  P  P1  1  0.00198357  0.04776670  0.25473847  1
  P  P2  1  0.49899780  0.45729588  0.74771668  1
  P  P3  1  0.50198357  0.54776670  0.25473847  1
  P  P4  1  0.35677466  0.89611783  0.76621899  1
  P  P5  1  0.64690660  0.10363997  0.24132071  1
  P  P6  1  0.85677466  0.39611783  0.76621899  1
  P  P7  1  0.14690660  0.60363997  0.24132071  1
  O  O0  1  0.15501612  0.57805429  0.73884534  1
  O  O1  1  0.85283048  0.56799175  0.75765049  1
  O  O2  1  0.84873828  0.42037483  0.25522717  1
  O  O3  1  0.15277255  0.43725729  0.25236287  1
  O  O4  1  0.65501612  0.07805429  0.73884534  1
  O  O5  1  0.35283048  0.06799175  0.75765049  1
  O  O6  1  0.34873828  0.92037483  0.25522717  1
  O  O7  1  0.65277255  0.93725729  0.25236287  1
  O  O8  1  0.43260228  0.54739943  0.57328816  1
  O  O9  1  0.56348786  0.55485164  0.90972538  1
  O  O10  1  0.56425757  0.45461276  0.42566753  1
  O  O11  1  0.44253691  0.44014195  0.09246083  1
  O  O12  1  0.93260228  0.04739943  0.57328816  1
  O  O13  1  0.06348786  0.05485164  0.90972538  1
  O  O14  1  0.06425757  0.95461276  0.42566753  1
  O  O15  1  0.94253691  0.94014195  0.09246083  1
  O  O16  1  0.25767922  0.84363267  0.74619981  1
  O  O17  1  0.74342786  0.81653513  0.75540014  1
  O  O18  1  0.74074349  0.16570699  0.24953703  1
  O  O19  1  0.25922143  0.18367347  0.24649819  1
  O  O20  1  0.75767922  0.34363267  0.74619981  1
  O  O21  1  0.24342786  0.31653513  0.75540014  1
  O  O22  1  0.24074349  0.66570699  0.24953703  1
  O  O23  1  0.75922143  0.68367347  0.24649819  1
  O  O24  1  0.35911161  0.84914579  0.60329407  1
  O  O25  1  0.65029436  0.86814644  0.92659716  1
  O  O26  1  0.64593582  0.16137065  0.40138941  1
  O  O27  1  0.35202350  0.13928944  0.07417121  1
  O  O28  1  0.85911161  0.34914579  0.60329407  1
  O  O29  1  0.15029436  0.36814644  0.92659716  1
  O  O30  1  0.14593582  0.66137065  0.40138941  1
  O  O31  1  0.85202350  0.63928944  0.07417121  1
  O  O32  1  0.45230651  0.84195879  0.93948051  1
  O  O33  1  0.54137173  0.83201390  0.57448204  1
  O  O34  1  0.54684955  0.15904593  0.06643171  1
  O  O35  1  0.46198395  0.16126517  0.42426341  1
  O  O36  1  0.95230651  0.34195879  0.93948051  1
  O  O37  1  0.04137173  0.33201390  0.57448204  1
  O  O38  1  0.04684955  0.65904593  0.06643171  1
  O  O39  1  0.96198395  0.66126517  0.42426341  1
  O  O40  1  0.07867768  0.86053567  0.73880860  1
  O  O41  1  0.92700852  0.84791687  0.75651381  1
  O  O42  1  0.91503071  0.13276124  0.25313112  1
  O  O43  1  0.07113093  0.15685592  0.24447674  1
  O  O44  1  0.57867768  0.36053567  0.73880860  1
  O  O45  1  0.42700852  0.34791687  0.75651381  1
  O  O46  1  0.41503071  0.63276124  0.25313112  1
  O  O47  1  0.57113093  0.65685592  0.24447674  1
loop_
_geom_bond_atom_site_label_1
_geom_bond_atom_site_label_2
_geom_bond_distance
_geom_bond_site_symmetry_2
Na0 O6 2.486924 1_556
Na0 O22 2.499395 1_556
Na0 O0 2.504648 1_555
Na0 O46 2.533796 1_556
Na0 O16 2.536842 1_555
Na0 O40 2.590985 1_555
Na1 O23 2.335215 1_555
Na1 O47 2.422787 1_555
Na1 O7 2.438414 1_555
Na1 O17 2.617428 1_555
Na1 O1 2.691344 1_555
Na1 O41 2.740372 1_555
Na2 O2 2.486924 1_556
Na2 O18 2.499395 1_556
Na2 O4 2.504648 1_555
Na2 O42 2.533796 1_556
Na2 O20 2.536842 1_555
Na2 O44 2.590985 1_555
Na3 O19 2.335215 1_555
Na3 O43 2.422787 1_555
Na3 O3 2.438414 1_555
Na3 O21 2.617428 1_555
Na3 O5 2.691344 1_555
Na3 O45 2.740372 1_555
Na4 O5 2.423835 1_555
Na4 O4 2.481472 1_555
Na4 O34 2.485217 1_556
Na4 O45 2.685454 1_555
Na4 O25 2.710710 1_545
Na4 O44 2.814712 1_555
Na4 O35 2.904143 1_555
Na4 O24 2.941880 1_545
Na5 O32 2.328771 1_554
Na5 O47 2.366914 1_555
Na5 O7 2.389848 1_555
Na5 O6 2.519778 1_555
Na5 O46 2.739767 1_555
Na5 O33 2.884332 1_555
Na5 O27 2.981368 1_565
Na6 O1 2.423835 1_455
Na6 O0 2.481472 1_555
Na6 O38 2.485217 1_556
Na6 O41 2.685454 1_455
Na6 O29 2.710710 1_555
Na6 O40 2.814712 1_555
Na6 O39 2.904143 1_455
Na6 O28 2.941880 1_455
Na7 O36 2.328771 1_554
Na7 O43 2.366914 1_655
Na7 O3 2.389848 1_655
Na7 O2 2.519778 1_555
Na7 O42 2.739767 1_555
Na7 O37 2.884332 1_655
Na7 O31 2.981368 1_555
Na8 O25 2.339068 1_554
Na8 O23 2.370451 1_555
Na8 O18 2.510276 1_565
Na8 O42 2.519344 1_565
Na8 O7 2.575892 1_555
Na9 O27 2.418427 1_556
Na9 O40 2.470806 1_545
Na9 O21 2.502130 1_555
Na9 O13 2.560459 1_555
Na9 O16 2.684016 1_545
Na10 O29 2.339068 1_554
Na10 O19 2.370451 1_555
Na10 O22 2.510276 1_555
Na10 O46 2.519344 1_555
Na10 O3 2.575892 1_555
Na11 O31 2.418427 1_556
Na11 O44 2.470806 1_555
Na11 O17 2.502130 1_555
Na11 O9 2.560459 1_555
Na11 O20 2.684016 1_555
O0 Si2 1.649750 1_555
O0 Zr0 2.079607 1_555
O1 P6 1.574352 1_555
O1 Zr1 2.190138 1_555
O2 Si3 1.655347 1_555
O2 Zr2 2.088503 1_555
O3 P7 1.525362 1_555
O3 Zn0 2.331097 1_555
O4 Si0 1.649750 1_545
O4 Zr3 2.079607 1_555
O5 P4 1.574352 1_545
O5 Zr4 2.190138 1_555
O6 Si1 1.655347 1_565
O6 Zr5 2.088503 1_555
O7 P5 1.525362 1_565
O7 Zn1 2.331097 1_555
O8 P2 1.555813 1_555
O8 Zr5 2.135891 1_555
O9 P2 1.516948 1_555
O9 Zn1 2.030179 1_556
O10 P3 1.545455 1_555
O10 Zr3 2.133171 1_555
O11 P3 1.567149 1_555
O11 Zr4 2.053801 1_554
O12 P0 1.555813 1_545
O12 Zr2 2.135891 1_555
O13 P0 1.516948 1_445
O13 Zn0 2.030179 1_556
O14 P1 1.545455 1_565
O14 Zr0 2.133171 1_555
O15 P1 1.567149 1_665
O15 Zr1 2.053801 1_554
O16 P4 1.549292 1_555
O16 Zr0 2.208628 1_555
O17 Si0 1.652177 1_555
O17 Zr1 2.062901 1_555
O18 P5 1.552800 1_555
O18 Zr2 2.206447 1_555
O19 Si1 1.601615 1_555
O19 Zn0 2.105036 1_555
O20 P6 1.549292 1_555
O20 Zr3 2.208628 1_555
O21 Si2 1.652177 1_555
O21 Zr4 2.062901 1_555
O22 P7 1.552800 1_555
O22 Zr5 2.206447 1_555
O23 Si3 1.601615 1_555
O23 Zn1 2.105036 1_555
O24 P4 1.568681 1_555
O24 Zr5 2.055675 1_555
O25 Si0 1.612645 1_555
O25 Zn1 2.059221 1_556
O26 P5 1.561624 1_555
O26 Zr3 2.042534 1_555
O27 Si1 1.670960 1_555
O27 Zr4 2.046004 1_554
O28 P6 1.568681 1_555
O28 Zr2 2.055675 1_555
O29 Si2 1.612645 1_555
O29 Zn0 2.059221 1_556
O30 P7 1.561624 1_555
O30 Zr0 2.042534 1_555
O31 Si3 1.670960 1_555
O31 Zr1 2.046004 1_554
O32 P4 1.520038 1_555
O32 Zn1 2.207082 1_556
O33 Si0 1.662845 1_555
O33 Zr5 2.020909 1_555
O34 P5 1.560351 1_555
O34 Zr4 2.174398 1_554
O35 Si1 1.658896 1_555
O35 Zr3 2.009910 1_555
O36 P6 1.520038 1_555
O36 Zn0 2.207082 1_656
O37 Si2 1.662845 1_555
O37 Zr2 2.020909 1_455
O38 P7 1.560351 1_555
O38 Zr1 2.174398 1_454
O39 Si3 1.658896 1_555
O39 Zr0 2.009910 1_655
O40 P0 1.578552 1_455
O40 Zr0 2.170095 1_555
O41 P0 1.554959 1_555
O41 Zr1 2.149774 1_555
O42 P1 1.571849 1_655
O42 Zr2 2.212205 1_555
O43 P1 1.525410 1_555
O43 Zn0 2.217880 1_555
O44 P2 1.578552 1_555
O44 Zr3 2.170095 1_555
O45 P2 1.554959 1_555
O45 Zr4 2.149774 1_555
O46 P3 1.571849 1_555
O46 Zr5 2.212205 1_555
O47 P3 1.525410 1_555
O47 Zn1 2.217880 1_555
