# generated using pymatgen
data_MgMn12O17F7
_symmetry_space_group_name_H-M   'P 1'
_cell_length_a   4.78410183
_cell_length_b   5.72083331
_cell_length_c   14.99184826
_cell_angle_alpha   89.40996684
_cell_angle_beta   86.51592978
_cell_angle_gamma   90.16192026
_symmetry_Int_Tables_number   1
_chemical_formula_structural   MgMn12O17F7
_chemical_formula_sum   'Mg1 Mn12 O17 F7'
_cell_volume   409.53009926
_cell_formula_units_Z   1
loop_
 _symmetry_equiv_pos_site_id
 _symmetry_equiv_pos_as_xyz
  1  'x, y, z'
loop_
 _atom_site_type_symbol
 _atom_site_label
 _atom_site_symmetry_multiplicity
 _atom_site_fract_x
 _atom_site_fract_y
 _atom_site_fract_z
 _atom_site_occupancy
  Mg  Mg0  1  0.49141900  0.91821000  0.24628500  1
  Mn  Mn0  1  0.05089600  0.18362800  0.41917300  1
  Mn  Mn1  1  0.00865900  0.64862400  0.24667700  1
  Mn  Mn2  1  0.00520000  0.15395800  0.07859900  1
  Mn  Mn3  1  0.02945900  0.17125400  0.74108600  1
  Mn  Mn4  1  0.03742400  0.82430700  0.58330000  1
  Mn  Mn5  1  0.98531600  0.83370300  0.90475400  1
  Mn  Mn6  1  0.48044400  0.33741100  0.91665500  1
  Mn  Mn7  1  0.51039100  0.36443300  0.58989700  1
  Mn  Mn8  1  0.50227300  0.39548200  0.25733700  1
  Mn  Mn9  1  0.45442200  0.62893800  0.08050700  1
  Mn  Mn10  1  0.52626900  0.65859600  0.43002900  1
  Mn  Mn11  1  0.49425400  0.62998800  0.75502900  1
  O  O0  1  0.29703200  0.16283000  0.31277700  1
  O  O1  1  0.24243900  0.11943300  0.63385300  1
  O  O2  1  0.20351900  0.09383700  0.96587100  1
  O  O3  1  0.20973800  0.86242500  0.14973900  1
  O  O4  1  0.24717900  0.88037000  0.47377200  1
  O  O5  1  0.22614500  0.87713300  0.79855300  1
  O  O6  1  0.32245100  0.40080500  0.48022300  1
  O  O7  1  0.23925200  0.40077300  0.16217500  1
  O  O8  1  0.32199000  0.64322900  0.31822900  1
  O  O9  1  0.29191900  0.59769100  0.64752400  1
  O  O10  1  0.27336900  0.39125500  0.81123900  1
  O  O11  1  0.66638100  0.37268100  0.02680800  1
  O  O12  1  0.68754900  0.64178000  0.18530400  1
  O  O13  1  0.78811200  0.44265300  0.34140100  1
  O  O14  1  0.75020200  0.61217000  0.52767000  1
  O  O15  1  0.69631500  0.61811300  0.86127500  1
  O  O16  1  0.72944300  0.38597700  0.69303500  1
  F  F0  1  0.19784700  0.59282800  0.98205100  1
  F  F1  1  0.73627900  0.15668900  0.19233100  1
  F  F2  1  0.77490000  0.12896200  0.52634700  1
  F  F3  1  0.77068400  0.90341300  0.35100700  1
  F  F4  1  0.73574200  0.87092000  0.02080700  1
  F  F5  1  0.77372200  0.12244900  0.84792000  1
  F  F6  1  0.76915200  0.86591400  0.69076100  1
loop_
_geom_bond_atom_site_label_1
_geom_bond_atom_site_label_2
_geom_bond_distance
_geom_bond_site_symmetry_2
Mg0 O0 1.933997 1_565
Mg0 O8 2.036329 1_555
Mg0 O12 2.037393 1_555
Mg0 O3 2.063244 1_555
Mn0 O0 1.929100 1_555
Mn0 O6 2.056192 1_555
Mn0 O4 2.152910 1_545
Mn0 O13 2.299760 1_455
Mn1 O12 1.838555 1_455
Mn1 O8 1.895698 1_555
Mn1 O13 2.072384 1_455
Mn1 O3 2.078527 1_555
Mn1 O7 2.169873 1_555
Mn2 O2 1.921851 1_554
Mn2 O11 2.222711 1_455
Mn2 O3 2.230699 1_545
Mn2 O7 2.239515 1_555
Mn3 O1 1.876955 1_555
Mn3 O16 2.050709 1_455
Mn3 O10 2.054245 1_555
Mn3 O5 2.129903 1_545
Mn4 O4 1.895567 1_555
Mn4 O14 2.051154 1_455
Mn4 O9 2.053257 1_555
Mn4 O1 2.119977 1_565
Mn5 O5 1.921301 1_655
Mn5 O15 1.993518 1_555
Mn5 O2 2.068698 1_665
Mn6 O11 1.934813 1_556
Mn6 O10 1.938014 1_555
Mn6 O2 2.022591 1_555
Mn6 O15 2.047825 1_555
Mn7 O9 1.881859 1_555
Mn7 O16 1.924680 1_555
Mn7 O6 1.931026 1_555
Mn7 O1 1.977421 1_555
Mn7 O14 2.007156 1_555
Mn8 O0 1.815771 1_555
Mn8 O8 1.877206 1_555
Mn8 O13 1.935332 1_555
Mn8 O12 1.944864 1_555
Mn8 O7 1.958863 1_555
Mn9 O11 1.938819 1_555
Mn9 O12 1.983064 1_555
Mn9 O7 2.017126 1_555
Mn9 O3 2.030143 1_555
Mn10 O14 1.882879 1_555
Mn10 O6 1.889936 1_555
Mn10 O4 1.934625 1_555
Mn10 O8 1.993424 1_555
Mn10 O13 2.168192 1_555
Mn11 O10 1.884676 1_555
Mn11 O15 1.913495 1_555
Mn11 O9 1.939964 1_555
Mn11 O16 1.996737 1_555
Mn11 O5 1.999388 1_555
F0 Mn9 1.988248 1_556
F0 Mn5 2.096148 1_455
F0 Mn6 2.191734 1_555
F1 Mg0 1.934145 1_545
F1 Mn8 1.993173 1_555
F1 Mn2 2.072847 1_655
F2 Mn0 2.037721 1_655
F2 Mn7 2.052612 1_555
F2 Mn4 2.335831 1_645
F3 Mg0 2.123632 1_555
F3 Mn10 2.126152 1_555
F3 Mn0 2.366299 1_665
F3 Mn1 2.388953 1_655
F4 Mn5 2.062666 1_554
F4 Mn9 2.084787 1_555
F4 Mn2 2.277538 1_665
F5 Mn3 1.972505 1_655
F5 Mn6 2.098310 1_555
F5 Mn5 2.136509 1_545
F6 Mn4 2.014358 1_655
F6 Mn11 2.070933 1_555
F6 Mn3 2.302266 1_665
