# generated using pymatgen
data_Na2La2Y2SiS5O24
_symmetry_space_group_name_H-M   'P 1'
_cell_length_a   9.28864262
_cell_length_b   9.28357301
_cell_length_c   25.18412652
_cell_angle_alpha   89.97169096
_cell_angle_beta   89.99194515
_cell_angle_gamma   119.90545460
_symmetry_Int_Tables_number   1
_chemical_formula_structural   Na2La2Y2SiS5O24
_chemical_formula_sum   'Na6 La6 Y6 Si3 S15 O72'
_cell_volume   1882.51222164
_cell_formula_units_Z   3
loop_
 _symmetry_equiv_pos_site_id
 _symmetry_equiv_pos_as_xyz
  1  'x, y, z'
loop_
 _atom_site_type_symbol
 _atom_site_label
 _atom_site_symmetry_multiplicity
 _atom_site_fract_x
 _atom_site_fract_y
 _atom_site_fract_z
 _atom_site_occupancy
  Na  Na0  1  0.98095909  0.97605723  0.51185331  1
  Na  Na1  1  0.00024213  0.00022168  0.99650936  1
  Na  Na2  1  0.66933864  0.31722299  0.81888607  1
  Na  Na3  1  0.64256792  0.31155069  0.33548328  1
  Na  Na4  1  0.32937771  0.68596577  0.17867582  1
  Na  Na5  1  0.37875894  0.68356259  0.66295714  1
  La  La0  1  0.01428914  0.00065964  0.34572948  1
  La  La1  1  0.97227859  0.98334142  0.65026244  1
  La  La2  1  0.66590594  0.33231947  0.68384729  1
  La  La3  1  0.66670099  0.34414211  0.48410406  1
  La  La4  1  0.35176830  0.66840246  0.52002806  1
  La  La5  1  0.35056301  0.68057567  0.81486433  1
  Y  Y0  1  0.98758070  0.00224614  0.84861670  1
  Y  Y1  1  0.01076579  0.99731521  0.15258696  1
  Y  Y2  1  0.65682306  0.32328278  0.18444771  1
  Y  Y3  1  0.66771719  0.33254463  0.98512709  1
  Y  Y4  1  0.33313844  0.66736476  0.01725469  1
  Y  Y5  1  0.33328390  0.67657962  0.31286761  1
  Si  Si0  1  0.30619564  0.99722590  0.24717717  1
  Si  Si1  1  0.69928595  0.00862295  0.75301909  1
  Si  Si2  1  0.66807114  0.63677128  0.58418271  1
  S  S0  1  0.69709517  0.69758647  0.24624030  1
  S  S1  1  0.00125748  0.30279014  0.24612246  1
  S  S2  1  0.29399566  0.29124314  0.75377651  1
  S  S3  1  0.99797193  0.70294468  0.75536871  1
  S  S4  1  0.97154676  0.33407702  0.58180951  1
  S  S5  1  0.35929917  0.03015582  0.58252491  1
  S  S6  1  0.96159309  0.62842429  0.08231401  1
  S  S7  1  0.66668259  0.03664225  0.08206419  1
  S  S8  1  0.37114541  0.33456701  0.08216925  1
  S  S9  1  0.63671322  0.66612784  0.92210791  1
  S  S10  1  0.03395505  0.36624254  0.92118002  1
  S  S11  1  0.33238727  0.96990623  0.92216650  1
  S  S12  1  0.63129178  0.96628867  0.41170804  1
  S  S13  1  0.33423417  0.37349120  0.41154847  1
  S  S14  1  0.03814031  0.66202362  0.41386034  1
  O  O0  1  0.22193480  0.02097501  0.30105115  1
  O  O1  1  0.79230742  0.77009446  0.29561550  1
  O  O2  1  0.97017662  0.20418482  0.29533520  1
  O  O3  1  0.19925289  0.19075560  0.80131932  1
  O  O4  1  0.99726007  0.80227731  0.80224958  1
  O  O5  1  0.80234415  0.00645634  0.80664149  1
  O  O6  1  0.78719280  0.99814264  0.69863778  1
  O  O7  1  0.20899341  0.20996260  0.70405684  1
  O  O8  1  0.01527544  0.79345326  0.70544876  1
  O  O9  1  0.78335631  0.80851928  0.19985272  1
  O  O10  1  0.01856847  0.21200085  0.19969420  1
  O  O11  1  0.18808957  0.97953702  0.19560043  1
  O  O12  1  0.88427069  0.33796949  0.63050089  1
  O  O13  1  0.45738345  0.11309128  0.63084121  1
  O  O14  1  0.66621747  0.53598595  0.63751740  1
  O  O15  1  0.88384238  0.52798938  0.13038965  1
  O  O16  1  0.64370774  0.11611559  0.12994473  1
  O  O17  1  0.47326508  0.35812249  0.13017447  1
  O  O18  1  0.45458452  0.31349318  0.03465601  1
  O  O19  1  0.85835980  0.54313160  0.03465374  1
  O  O20  1  0.68555714  0.14094631  0.03448650  1
  O  O21  1  0.45188198  0.12246072  0.53388278  1
  O  O22  1  0.66522438  0.53596183  0.52959992  1
  O  O23  1  0.87181215  0.32174016  0.53366829  1
  O  O24  1  0.54417655  0.68542467  0.96786458  1
  O  O25  1  0.14279524  0.45945672  0.96761063  1
  O  O26  1  0.31672107  0.85913909  0.96805628  1
  O  O27  1  0.55259847  0.87911616  0.46187435  1
  O  O28  1  0.32977646  0.45485864  0.46142869  1
  O  O29  1  0.12632356  0.66929829  0.46332216  1
  O  O30  1  0.13515305  0.66195728  0.36641934  1
  O  O31  1  0.52842788  0.86784550  0.36532580  1
  O  O32  1  0.33707498  0.47281162  0.36472222  1
  O  O33  1  0.10233345  0.45975994  0.87200219  1
  O  O34  1  0.35870867  0.90186162  0.87273670  1
  O  O35  1  0.54240921  0.63868590  0.87269087  1
  O  O36  1  0.01603512  0.81063847  0.41178999  1
  O  O37  1  0.79826637  0.98299625  0.40848919  1
  O  O38  1  0.18250909  0.20641631  0.41050746  1
  O  O39  1  0.02015182  0.19885566  0.91935588  1
  O  O40  1  0.18101267  0.98527323  0.92009227  1
  O  O41  1  0.80409812  0.81777540  0.91918924  1
  O  O42  1  0.99720579  0.18926705  0.58153915  1
  O  O43  1  0.19743131  0.02222456  0.58304545  1
  O  O44  1  0.83320242  0.82069949  0.58065417  1
  O  O45  1  0.97680133  0.79607591  0.08616275  1
  O  O46  1  0.81634326  0.01900214  0.08658182  1
  O  O47  1  0.20298175  0.18538054  0.08707313  1
  O  O48  1  0.68268577  0.17439137  0.75368158  1
  O  O49  1  0.46253036  0.31123895  0.75621470  1
  O  O50  1  0.84208883  0.54064095  0.75625970  1
  O  O51  1  0.68308999  0.53256856  0.23782202  1
  O  O52  1  0.85827050  0.32989511  0.23737189  1
  O  O53  1  0.49106255  0.16209373  0.24031473  1
  O  O54  1  0.65567364  0.51795415  0.93144587  1
  O  O55  1  0.86501317  0.34461311  0.93057035  1
  O  O56  1  0.48172681  0.13712818  0.93110248  1
  O  O57  1  0.64314610  0.13210962  0.41029599  1
  O  O58  1  0.48569288  0.35626624  0.40976470  1
  O  O59  1  0.87250277  0.50781438  0.41139153  1
  O  O60  1  0.35510562  0.48626038  0.07508624  1
  O  O61  1  0.13045519  0.64744300  0.07505924  1
  O  O62  1  0.51473643  0.86962639  0.07524515  1
  O  O63  1  0.33653025  0.85960186  0.58140164  1
  O  O64  1  0.50113057  0.65683080  0.58519227  1
  O  O65  1  0.13411585  0.49011543  0.58003154  1
  O  O66  1  0.32217819  0.82927072  0.25120905  1
  O  O67  1  0.52814824  0.67661320  0.25078886  1
  O  O68  1  0.15588244  0.46675471  0.25093762  1
  O  O69  1  0.30670005  0.45757781  0.75700496  1
  O  O70  1  0.14255950  0.67678641  0.75948544  1
  O  O71  1  0.51265664  0.83973139  0.75452806  1
loop_
_geom_bond_atom_site_label_1
_geom_bond_atom_site_label_2
_geom_bond_distance
_geom_bond_site_symmetry_2
Na0 O44 2.233623 1_555
Na0 O43 2.565876 1_665
Na0 O42 2.593492 1_565
Na1 O40 2.602706 1_545
Na1 O39 2.620379 1_555
Na1 O41 2.628139 1_445
Na1 O45 2.884652 1_446
Na1 O46 2.896573 1_456
Na1 O47 2.912092 1_556
Na2 O48 2.153179 1_555
Na2 O50 2.457986 1_555
Na2 O49 2.465530 1_555
Na3 O57 2.516094 1_555
Na3 O58 2.529498 1_555
Na3 O59 2.767697 1_555
Na3 O53 2.776175 1_555
Na4 O66 2.280844 1_555
Na4 O68 2.603017 1_555
Na4 O67 2.622072 1_555
Na5 O64 2.338849 1_555
Na5 O71 2.678273 1_555
Na5 O63 2.771163 1_555
Na5 O65 2.947236 1_555
Na5 O69 3.008932 1_555
La0 O0 2.158271 1_555
La0 O38 2.404007 1_555
La0 O36 2.430160 1_545
La0 O1 2.455297 1_445
La0 O2 2.473527 1_455
La0 O37 2.494405 1_445
La1 O6 2.166536 1_555
La1 O44 2.253887 1_555
La1 O8 2.428679 1_655
La1 O42 2.501798 1_565
La1 O7 2.546988 1_665
La1 O43 2.572024 1_665
La2 O14 2.220065 1_555
La2 O48 2.343570 1_555
La2 O13 2.397570 1_555
La2 O12 2.411395 1_555
La2 O49 2.560960 1_555
La2 O50 2.567581 1_555
La3 O22 2.123794 1_555
La3 O23 2.372054 1_555
La3 O21 2.385474 1_555
La3 O59 2.533040 1_555
La3 O58 2.556151 1_555
La3 O57 2.636652 1_555
La4 O64 2.186011 1_555
La4 O28 2.397689 1_555
La4 O65 2.402149 1_555
La4 O27 2.410208 1_555
La4 O63 2.410991 1_555
La4 O29 2.538278 1_555
La5 O71 2.130220 1_555
La5 O70 2.369023 1_555
La5 O69 2.395233 1_555
La5 O35 2.477649 1_555
La5 O34 2.489614 1_555
La5 O33 2.621513 1_555
O0 Si0 1.635257 1_545
O1 S0 1.479528 1_555
O2 S1 1.480757 1_655
O3 S2 1.502762 1_555
O3 Y0 2.216638 1_455
O4 S3 1.500508 1_555
O4 Y0 2.233047 1_565
O5 Si1 1.661318 1_555
O5 Y0 2.036415 1_555
O6 Si1 1.622001 1_565
O7 S2 1.472341 1_555
O8 S3 1.475332 1_455
O9 S0 1.497698 1_555
O9 Y1 2.292673 1_655
O10 S1 1.496485 1_555
O10 Y1 2.289817 1_545
O11 Si0 1.654881 1_555
O11 Y1 2.045729 1_555
O12 S4 1.480259 1_555
O13 S5 1.485005 1_555
O14 Si2 1.631740 1_555
O15 S6 1.477843 1_555
O15 Y2 2.431522 1_555
O16 S7 1.483818 1_555
O16 Y2 2.316641 1_555
O17 S8 1.484227 1_555
O17 Y2 2.330228 1_555
O18 S8 1.490612 1_555
O18 Y3 2.270761 1_554
O19 S6 1.493754 1_555
O19 Y3 2.250447 1_554
O20 S7 1.494515 1_555
O20 Y3 2.242388 1_554
O21 S5 1.496113 1_555
O22 Si2 1.656122 1_555
O23 S4 1.495289 1_555
O24 S9 1.500753 1_555
O24 Y4 2.255940 1_556
O25 S10 1.505721 1_555
O25 Y4 2.239347 1_556
O26 S11 1.504594 1_555
O26 Y4 2.235322 1_556
O27 S12 1.481304 1_555
O28 S13 1.477308 1_555
O29 S14 1.473890 1_555
O30 S14 1.496568 1_555
O30 Y5 2.230303 1_555
O31 S12 1.497747 1_555
O31 Y5 2.231021 1_555
O32 S13 1.488698 1_555
O32 Y5 2.312824 1_555
O33 S10 1.462839 1_555
O34 S11 1.470766 1_555
O35 S9 1.469403 1_555
O36 S14 1.493584 1_555
O37 S12 1.481960 1_555
O38 S13 1.487617 1_555
O39 S10 1.494895 1_555
O39 Y0 2.459577 1_455
O40 S11 1.483283 1_555
O40 Y0 2.603102 1_465
O41 S9 1.490633 1_555
O41 Y0 2.466187 1_565
O42 S4 1.477715 1_555
O43 S5 1.468267 1_555
O44 Si2 1.632304 1_555
O45 S6 1.494211 1_555
O45 Y1 2.409084 1_655
O46 S7 1.483002 1_555
O46 Y1 2.535376 1_645
O47 S8 1.488595 1_555
O47 Y1 2.417893 1_545
O48 Si1 1.621412 1_555
O49 S2 1.482956 1_555
O50 S3 1.480493 1_555
O51 S0 1.486730 1_555
O51 Y2 2.274046 1_555
O52 S1 1.486323 1_655
O52 Y2 2.273278 1_555
O53 Si0 1.643193 1_545
O53 Y2 2.071068 1_555
O54 S9 1.489902 1_555
O54 Y3 2.234431 1_555
O55 S10 1.498136 1_655
O55 Y3 2.247932 1_555
O56 S11 1.495994 1_545
O56 Y3 2.237148 1_555
O57 S12 1.487985 1_545
O58 S13 1.493693 1_555
O59 S14 1.491415 1_655
O60 S8 1.498725 1_555
O60 Y4 2.308537 1_555
O61 S6 1.499496 1_455
O61 Y4 2.312917 1_555
O62 S7 1.497925 1_565
O62 Y4 2.312814 1_555
O63 S5 1.489518 1_565
O64 Si2 1.651600 1_555
O65 S4 1.483036 1_455
O66 Si0 1.641399 1_555
O66 Y5 2.138906 1_555
O67 S0 1.486253 1_555
O67 Y5 2.391453 1_555
O68 S1 1.488223 1_555
O68 Y5 2.396938 1_555
O69 S2 1.491125 1_555
O70 S3 1.482786 1_455
O71 Si1 1.659700 1_565
