# generated using pymatgen
data_Dy(CuGe)2
_symmetry_space_group_name_H-M   'P 1'
_cell_length_a   4.01814782
_cell_length_b   4.01814722
_cell_length_c   5.86482307
_cell_angle_alpha   110.03311471
_cell_angle_beta   110.03312745
_cell_angle_gamma   90.00000902
_symmetry_Int_Tables_number   1
_chemical_formula_structural   Dy(CuGe)2
_chemical_formula_sum   'Dy1 Cu2 Ge2'
_cell_volume   82.83668964
_cell_formula_units_Z   1
loop_
 _symmetry_equiv_pos_site_id
 _symmetry_equiv_pos_as_xyz
  1  'x, y, z'
loop_
 _atom_site_type_symbol
 _atom_site_label
 _atom_site_symmetry_multiplicity
 _atom_site_fract_x
 _atom_site_fract_y
 _atom_site_fract_z
 _atom_site_occupancy
  Dy  Dy0  1  0.00000000  0.00000000  -0.00000000  1
  Cu  Cu0  1  0.25000000  0.75000000  0.50000000  1
  Cu  Cu1  1  0.75000000  0.25000000  0.50000000  1
  Ge  Ge0  1  0.61912347  0.61912347  0.23824594  1
  Ge  Ge1  1  0.38087653  0.38087653  0.76175406  1
loop_
_geom_bond_atom_site_label_1
_geom_bond_atom_site_label_2
_geom_bond_distance
_geom_bond_site_symmetry_2
Dy0 Ge1 3.093038 1_554
Dy0 Ge0 3.093038 1_445
Dy0 Ge1 3.093041 1_454
Dy0 Ge0 3.093041 1_545
Dy0 Ge1 3.093041 1_544
Dy0 Ge0 3.093041 1_455
Dy0 Ge1 3.093043 1_444
Dy0 Ge0 3.093043 1_555
Cu0 Ge1 2.416593 1_565
Cu0 Ge0 2.416593 1_455
Cu0 Ge1 2.416596 1_555
Cu0 Ge0 2.416597 1_555
Cu0 Dy0 3.258408 1_565
Cu0 Dy0 3.258409 1_666
Cu0 Dy0 3.258409 1_566
Cu0 Dy0 3.258409 1_555
Cu1 Ge0 2.416593 1_545
Cu1 Ge1 2.416593 1_655
Cu1 Ge0 2.416596 1_555
Cu1 Ge1 2.416597 1_555
Cu1 Dy0 3.258408 1_656
Cu1 Dy0 3.258409 1_555
Cu1 Dy0 3.258409 1_655
Cu1 Dy0 3.258409 1_666
Ge0 Ge1 2.444705 1_554
