# generated using pymatgen
data_MgV2Cr4O12
_symmetry_space_group_name_H-M   'P 1'
_cell_length_a   4.73427300
_cell_length_b   4.73427200
_cell_length_c   8.86338500
_cell_angle_alpha   89.99989424
_cell_angle_beta   90.00010576
_cell_angle_gamma   89.99956432
_symmetry_Int_Tables_number   1
_chemical_formula_structural   MgV2Cr4O12
_chemical_formula_sum   'Mg1 V2 Cr4 O12'
_cell_volume   198.65802702
_cell_formula_units_Z   1
loop_
 _symmetry_equiv_pos_site_id
 _symmetry_equiv_pos_as_xyz
  1  'x, y, z'
loop_
 _atom_site_type_symbol
 _atom_site_label
 _atom_site_symmetry_multiplicity
 _atom_site_fract_x
 _atom_site_fract_y
 _atom_site_fract_z
 _atom_site_occupancy
  Mg  Mg0  1  0.99999800  0.50000400  0.24999500  1
  V  V0  1  0.00000300  0.99999400  0.98655300  1
  V  V1  1  0.49999500  0.50000000  0.51345100  1
  Cr  Cr0  1  0.00000000  0.00000200  0.34124000  1
  Cr  Cr1  1  0.99999800  0.00001000  0.66394300  1
  Cr  Cr2  1  0.50000200  0.49999700  0.15876400  1
  Cr  Cr3  1  0.50000200  0.50000700  0.83604800  1
  O  O0  1  0.19424300  0.81134000  0.16131600  1
  O  O1  1  0.19956200  0.78633600  0.49981000  1
  O  O2  1  0.19546900  0.80991800  0.84210800  1
  O  O3  1  0.28633400  0.30043800  0.00019100  1
  O  O4  1  0.31133100  0.30576400  0.33868700  1
  O  O5  1  0.30991600  0.30453400  0.65789000  1
  O  O6  1  0.71367000  0.69955300  0.00019200  1
  O  O7  1  0.68866600  0.69423800  0.33868600  1
  O  O8  1  0.69008300  0.69546300  0.65789000  1
  O  O9  1  0.80575600  0.18866100  0.16131700  1
  O  O10  1  0.80043700  0.21366200  0.49980900  1
  O  O11  1  0.80453600  0.19007800  0.84210800  1
loop_
_geom_bond_atom_site_label_1
_geom_bond_atom_site_label_2
_geom_bond_distance
_geom_bond_site_symmetry_2
Mg0 O7 1.906830 1_555
Mg0 O0 1.906834 1_655
Mg0 O4 1.906847 1_655
Mg0 O9 1.906850 1_555
Cr0 O10 1.972590 1_455
Cr0 O1 1.972603 1_545
Cr0 O9 2.046104 1_455
Cr0 O0 2.046120 1_545
Cr0 O4 2.066019 1_555
Cr0 O7 2.066036 1_445
Cr1 O10 2.008003 1_555
Cr1 O1 2.008061 1_645
Cr1 O11 2.039536 1_555
Cr1 O2 2.039600 1_645
Cr1 O5 2.057715 1_655
Cr1 O8 2.057781 1_545
Cr2 O6 1.972617 1_555
Cr2 O3 1.972630 1_555
Cr2 O7 2.046110 1_555
Cr2 O4 2.046114 1_555
Cr2 O9 2.065993 1_555
Cr2 O0 2.066034 1_555
Cr3 O6 2.008082 1_556
Cr3 O3 2.008127 1_556
Cr3 O8 2.039506 1_555
Cr3 O5 2.039553 1_555
Cr3 O2 2.057707 1_555
Cr3 O11 2.057771 1_555
O0 V0 2.010644 1_554
O1 V1 1.968565 1_555
O2 V0 1.818022 1_555
O3 V0 1.968599 1_544
O4 V1 2.010672 1_555
O5 V1 1.817997 1_555
O6 V0 1.968596 1_654
O7 V1 2.010697 1_555
O8 V1 1.818011 1_555
O9 V0 2.010698 1_644
O10 V1 1.968603 1_555
O11 V0 1.818039 1_645
