# generated using pymatgen
data_MgFe2Mo2(ClO4)2
_symmetry_space_group_name_H-M   'P 1'
_cell_length_a   6.85300064
_cell_length_b   6.74101203
_cell_length_c   5.73489542
_cell_angle_alpha   90.18919631
_cell_angle_beta   90.15866754
_cell_angle_gamma   91.82146803
_symmetry_Int_Tables_number   1
_chemical_formula_structural   MgFe2Mo2(ClO4)2
_chemical_formula_sum   'Mg1 Fe2 Mo2 Cl2 O8'
_cell_volume   264.79374281
_cell_formula_units_Z   1
loop_
 _symmetry_equiv_pos_site_id
 _symmetry_equiv_pos_as_xyz
  1  'x, y, z'
loop_
 _atom_site_type_symbol
 _atom_site_label
 _atom_site_symmetry_multiplicity
 _atom_site_fract_x
 _atom_site_fract_y
 _atom_site_fract_z
 _atom_site_occupancy
  Mg  Mg0  1  0.75463800  0.24880200  0.50737800  1
  Fe  Fe0  1  0.74969500  0.74943700  0.73960700  1
  Fe  Fe1  1  0.25189300  0.25037800  0.26843700  1
  Mo  Mo0  1  0.25082200  0.74956000  0.99758900  1
  Mo  Mo1  1  0.74984800  0.25014000  0.00913900  1
  Cl  Cl0  1  0.24581600  0.25056500  0.66341700  1
  Cl  Cl1  1  0.75111800  0.75269400  0.31564700  1
  O  O0  1  0.94848800  0.23481400  0.23582700  1
  O  O1  1  0.72857300  0.44310600  0.77899900  1
  O  O2  1  0.77123700  0.05593700  0.77950100  1
  O  O3  1  0.55486100  0.26608000  0.23975100  1
  O  O4  1  0.45518200  0.75655200  0.81176900  1
  O  O5  1  0.25630900  0.97890000  0.16913100  1
  O  O6  1  0.04404900  0.74142100  0.81414900  1
  O  O7  1  0.24747000  0.52161200  0.16966000  1
loop_
_geom_bond_atom_site_label_1
_geom_bond_atom_site_label_2
_geom_bond_distance
_geom_bond_site_symmetry_2
Mg0 O2 2.039729 1_555
Mg0 O1 2.043752 1_555
Mg0 O0 2.053623 1_555
Mg0 O3 2.059916 1_555
Fe0 O6 2.063275 1_655
Fe0 O4 2.063429 1_555
Fe0 O2 2.078531 1_565
Fe0 O1 2.078556 1_555
Fe1 O5 1.915992 1_545
Fe1 O7 1.917054 1_555
Fe1 O3 2.082565 1_555
Fe1 O0 2.086396 1_455
Mo0 O4 1.761702 1_555
Mo0 O6 1.761842 1_555
Mo0 O7 1.828485 1_556
Mo0 O5 1.829030 1_556
Mo1 O2 1.863205 1_554
Mo1 O1 1.864827 1_554
Mo1 O0 1.885170 1_555
Mo1 O3 1.887903 1_555
Cl0 Fe1 2.265664 1_555
Cl1 Fe0 2.431582 1_555
