# generated using pymatgen
data_UTe5
_symmetry_space_group_name_H-M   'P 1'
_cell_length_a   4.26654900
_cell_length_b   10.50694200
_cell_length_c   17.95024100
_cell_angle_alpha   90.00000000
_cell_angle_beta   90.00000000
_cell_angle_gamma   90.00000000
_symmetry_Int_Tables_number   1
_chemical_formula_structural   UTe5
_chemical_formula_sum   'U4 Te20'
_cell_volume   804.68027639
_cell_formula_units_Z   4
loop_
 _symmetry_equiv_pos_site_id
 _symmetry_equiv_pos_as_xyz
  1  'x, y, z'
loop_
 _atom_site_type_symbol
 _atom_site_label
 _atom_site_symmetry_multiplicity
 _atom_site_fract_x
 _atom_site_fract_y
 _atom_site_fract_z
 _atom_site_occupancy
  U  U0  1  0.39529600  0.25000000  0.58625800  1
  U  U1  1  0.60470400  0.75000000  0.41374200  1
  U  U2  1  0.89529600  0.75000000  0.91374200  1
  U  U3  1  0.10470400  0.25000000  0.08625800  1
  Te  Te0  1  0.88725500  0.43047800  0.66024100  1
  Te  Te1  1  0.88087100  0.25000000  0.46150000  1
  Te  Te2  1  0.00000000  0.50000000  0.00000000  1
  Te  Te3  1  0.11912900  0.75000000  0.53850000  1
  Te  Te4  1  0.82365200  0.75000000  0.24380400  1
  Te  Te5  1  0.67634800  0.75000000  0.74380400  1
  Te  Te6  1  0.61912900  0.25000000  0.96150000  1
  Te  Te7  1  0.17634800  0.25000000  0.75619600  1
  Te  Te8  1  0.88725500  0.06952200  0.66024100  1
  Te  Te9  1  0.32365200  0.25000000  0.25619600  1
  Te  Te10  1  0.50000000  0.00000000  0.50000000  1
  Te  Te11  1  0.61274500  0.43047800  0.16024100  1
  Te  Te12  1  0.50000000  0.50000000  0.50000000  1
  Te  Te13  1  0.11274500  0.56952200  0.33975900  1
  Te  Te14  1  0.38087100  0.75000000  0.03850000  1
  Te  Te15  1  0.00000000  0.00000000  0.00000000  1
  Te  Te16  1  0.61274500  0.06952200  0.16024100  1
  Te  Te17  1  0.38725500  0.56952200  0.83975900  1
  Te  Te18  1  0.11274500  0.93047800  0.33975900  1
  Te  Te19  1  0.38725500  0.93047800  0.83975900  1
loop_
_geom_bond_atom_site_label_1
_geom_bond_atom_site_label_2
_geom_bond_distance
_geom_bond_site_symmetry_2
Te0 Te7 2.843222 1_655
Te0 U0 3.124920 1_555
Te0 U0 3.171415 1_655
Te0 Te12 3.396609 1_555
Te1 U0 3.050760 1_555
Te1 U0 3.135651 1_655
Te2 U2 3.081671 1_454
Te2 U3 3.081671 1_555
Te3 U1 3.050760 1_555
Te3 U1 3.135651 1_455
Te4 U1 3.190259 1_555
Te5 U2 3.190259 1_555
Te6 U3 3.050760 1_656
Te6 U3 3.135651 1_556
Te7 Te8 2.843222 1_455
Te7 U0 3.190259 1_555
Te8 U0 3.124920 1_555
Te8 U0 3.171415 1_655
Te9 U3 3.190259 1_555
Te10 U0 3.081671 1_555
Te10 U1 3.081671 1_545
Te10 Te8 3.396609 1_555
Te10 Te18 3.396609 1_545
Te11 Te9 2.843222 1_555
Te11 U3 3.124920 1_655
Te11 U3 3.171415 1_555
Te11 Te2 3.396609 1_655
Te12 U0 3.081671 1_555
Te12 U1 3.081671 1_555
Te12 Te13 3.396609 1_555
Te13 Te4 2.843222 1_455
Te13 U1 3.124920 1_555
Te13 U1 3.171415 1_455
Te14 U2 3.050760 1_454
Te14 U2 3.135651 1_554
Te15 U2 3.081671 1_444
Te15 U3 3.081671 1_555
Te15 Te19 3.396609 1_544
Te15 Te16 3.396609 1_455
Te16 Te9 2.843222 1_555
Te16 U3 3.124920 1_655
Te16 U3 3.171415 1_555
Te17 Te5 2.843222 1_555
Te17 U2 3.124920 1_455
Te17 U2 3.171415 1_555
Te17 Te2 3.396609 1_556
Te18 Te4 2.843222 1_455
Te18 U1 3.124920 1_555
Te18 U1 3.171415 1_455
Te19 Te5 2.843222 1_555
Te19 U2 3.124920 1_455
Te19 U2 3.171415 1_555
