# generated using pymatgen
data_CoPO4
_symmetry_space_group_name_H-M   'P 1'
_cell_length_a   7.44144799
_cell_length_b   7.44144799
_cell_length_c   9.37266400
_cell_angle_alpha   90.00000000
_cell_angle_beta   90.00000000
_cell_angle_gamma   119.99999993
_symmetry_Int_Tables_number   1
_chemical_formula_structural   CoPO4
_chemical_formula_sum   'Co6 P6 O24'
_cell_volume   449.47814722
_cell_formula_units_Z   6
loop_
 _symmetry_equiv_pos_site_id
 _symmetry_equiv_pos_as_xyz
  1  'x, y, z'
loop_
 _atom_site_type_symbol
 _atom_site_label
 _atom_site_symmetry_multiplicity
 _atom_site_fract_x
 _atom_site_fract_y
 _atom_site_fract_z
 _atom_site_occupancy
  Co  Co0  1  0.62101100  0.55718300  0.46231300  1
  Co  Co1  1  0.37898900  0.93617200  0.96231300  1
  Co  Co2  1  0.44281700  0.06382800  0.46231300  1
  Co  Co3  1  0.06382800  0.44281700  0.96231300  1
  Co  Co4  1  0.55718300  0.62101100  0.96231300  1
  Co  Co5  1  0.93617200  0.37898900  0.46231300  1
  P  P0  1  0.33333300  0.66666700  0.66366300  1
  P  P1  1  0.66666700  0.33333300  0.77698700  1
  P  P2  1  0.00000000  0.00000000  0.01628200  1
  P  P3  1  0.33333300  0.66666700  0.27698700  1
  P  P4  1  0.00000000  0.00000000  0.51628200  1
  P  P5  1  0.66666700  0.33333300  0.16366300  1
  O  O0  1  0.11596600  0.89022200  0.95221800  1
  O  O1  1  0.89162400  0.47280700  0.82982300  1
  O  O2  1  0.10837600  0.58118300  0.32982300  1
  O  O3  1  0.88403400  0.77425600  0.45221800  1
  O  O4  1  0.89022200  0.11596600  0.45221800  1
  O  O5  1  0.77425600  0.88403400  0.95221800  1
  O  O6  1  0.52719300  0.41881700  0.82982300  1
  O  O7  1  0.66666700  0.33333300  0.60669000  1
  O  O8  1  0.12926600  0.47989000  0.61571700  1
  O  O9  1  0.33333300  0.66666700  0.83611600  1
  O  O10  1  0.00000000  0.00000000  0.67515300  1
  O  O11  1  0.41881700  0.52719300  0.32982300  1
  O  O12  1  0.33333300  0.66666700  0.10669000  1
  O  O13  1  0.87073400  0.35062300  0.11571700  1
  O  O14  1  0.52011000  0.64937700  0.61571700  1
  O  O15  1  0.58118300  0.10837600  0.82982300  1
  O  O16  1  0.35062300  0.87073400  0.61571700  1
  O  O17  1  0.47280700  0.89162400  0.32982300  1
  O  O18  1  0.66666700  0.33333300  0.33611600  1
  O  O19  1  0.22574400  0.10977800  0.45221800  1
  O  O20  1  0.00000000  0.00000000  0.17515300  1
  O  O21  1  0.10977800  0.22574400  0.95221800  1
  O  O22  1  0.47989000  0.12926600  0.11571700  1
  O  O23  1  0.64937700  0.52011000  0.11571700  1
loop_
_geom_bond_atom_site_label_1
_geom_bond_atom_site_label_2
_geom_bond_distance
_geom_bond_site_symmetry_2
Co0 O3 1.813154 1_555
Co0 O11 1.876145 1_555
Co0 O14 1.901803 1_555
Co0 O18 2.203445 1_555
Co0 O7 2.299411 1_555
Co1 O0 1.813154 1_555
Co1 O15 1.876145 1_565
Co1 O22 1.901799 1_566
Co1 O9 2.203439 1_555
Co1 O12 2.299406 1_556
Co2 O19 1.813154 1_555
Co2 O17 1.876145 1_545
Co2 O16 1.901799 1_545
Co2 O18 2.203441 1_555
Co2 O7 2.299408 1_555
Co3 O21 1.813154 1_555
Co3 O1 1.876145 1_455
Co3 O13 1.901799 1_456
Co3 O9 2.203441 1_555
Co3 O12 2.299408 1_556
Co4 O5 1.813154 1_555
Co4 O6 1.876145 1_555
Co4 O23 1.901803 1_556
Co4 O9 2.203445 1_555
Co4 O12 2.299411 1_556
Co5 O4 1.813154 1_555
Co5 O2 1.876145 1_655
Co5 O8 1.901799 1_655
Co5 O18 2.203439 1_555
Co5 O7 2.299406 1_555
O0 P2 1.574015 1_566
O1 P1 1.545093 1_555
O2 P3 1.545092 1_555
O3 P4 1.574015 1_665
O4 P4 1.574015 1_655
O5 P2 1.574015 1_666
O6 P1 1.545099 1_555
O7 P1 1.596137 1_555
O8 P0 1.526146 1_555
O9 P0 1.616344 1_555
O10 P4 1.489045 1_555
O11 P3 1.545099 1_555
O12 P3 1.596137 1_555
O13 P5 1.526146 1_555
O14 P0 1.526146 1_555
O15 P1 1.545092 1_555
O16 P0 1.526146 1_555
O17 P3 1.545093 1_555
O18 P5 1.616344 1_555
O19 P4 1.574015 1_555
O20 P2 1.489045 1_555
O21 P2 1.574015 1_556
O22 P5 1.526146 1_555
O23 P5 1.526146 1_555
