# generated using pymatgen
data_Na2MgV2Cd2O8
_symmetry_space_group_name_H-M   'P 1'
_cell_length_a   5.66232153
_cell_length_b   5.93703827
_cell_length_c   6.58622971
_cell_angle_alpha   90.00000000
_cell_angle_beta   90.00000000
_cell_angle_gamma   112.56736434
_symmetry_Int_Tables_number   1
_chemical_formula_structural   Na2MgV2Cd2O8
_chemical_formula_sum   'Na2 Mg1 V2 Cd2 O8'
_cell_volume   204.45829774
_cell_formula_units_Z   1
loop_
 _symmetry_equiv_pos_site_id
 _symmetry_equiv_pos_as_xyz
  1  'x, y, z'
loop_
 _atom_site_type_symbol
 _atom_site_label
 _atom_site_symmetry_multiplicity
 _atom_site_fract_x
 _atom_site_fract_y
 _atom_site_fract_z
 _atom_site_occupancy
  Na  Na0  1  0.14671814  0.47040528  0.25000000  1
  Na  Na1  1  0.69539616  0.34563676  0.75000000  1
  Mg  Mg0  1  0.52133705  0.95173922  0.25000000  1
  V  V0  1  0.38568836  0.66823431  0.75000000  1
  V  V1  1  0.65523119  0.41157539  0.25000000  1
  Cd  Cd0  1  0.01063772  0.01089310  0.50229594  1
  Cd  Cd1  1  0.01063772  0.01089310  0.99770406  1
  O  O0  1  0.73905501  0.75353059  0.25000000  1
  O  O1  1  0.26730197  0.34921581  0.75000000  1
  O  O2  1  0.72516415  0.77224559  0.75000000  1
  O  O3  1  0.30182346  0.17287797  0.25000000  1
  O  O4  1  0.28677869  0.76787059  0.52480784  1
  O  O5  1  0.76944035  0.23779135  0.05171326  1
  O  O6  1  0.28677869  0.76787059  0.97519216  1
  O  O7  1  0.76944035  0.23779135  0.44828674  1
loop_
_geom_bond_atom_site_label_1
_geom_bond_atom_site_label_2
_geom_bond_distance
_geom_bond_site_symmetry_2
Na0 O3 2.254408 1_555
Na0 O7 2.431460 1_455
Na0 O5 2.431460 1_455
Na0 O4 2.439021 1_555
Na0 O6 2.439021 1_554
Na1 O7 2.177283 1_555
Na1 O5 2.177283 1_556
Na1 O1 2.432241 1_555
Na1 O2 2.473009 1_555
Mg0 O0 2.004505 1_555
Mg0 O3 2.126314 1_565
Mg0 O7 2.175343 1_565
Mg0 O5 2.175343 1_565
Mg0 O4 2.262461 1_555
Mg0 O6 2.262461 1_554
Cd0 O3 2.277611 1_555
Cd0 O7 2.284419 1_455
Cd0 O2 2.350338 1_445
Cd0 O0 2.378483 1_445
Cd0 O4 2.506027 1_545
Cd0 O1 2.562760 1_555
Cd1 O3 2.277611 1_556
Cd1 O5 2.284419 1_456
Cd1 O2 2.350338 1_445
Cd1 O0 2.378483 1_446
Cd1 O6 2.506027 1_545
Cd1 O1 2.562760 1_555
O0 V1 1.899313 1_555
O1 V0 1.749911 1_555
O2 V0 1.779098 1_555
O3 V1 1.958600 1_555
O4 V0 1.765690 1_555
O5 V1 1.923643 1_555
O6 V0 1.765690 1_555
O7 V1 1.923643 1_555
