# generated using pymatgen
data_Na3Y4P3(SO8)3
_symmetry_space_group_name_H-M   'P 1'
_cell_length_a   9.21125732
_cell_length_b   9.20787008
_cell_length_c   24.36016262
_cell_angle_alpha   89.70623934
_cell_angle_beta   90.32284117
_cell_angle_gamma   120.34741726
_symmetry_Int_Tables_number   1
_chemical_formula_structural   Na3Y4P3(SO8)3
_chemical_formula_sum   'Na9 Y12 P9 S9 O72'
_cell_volume   1782.99223252
_cell_formula_units_Z   3
loop_
 _symmetry_equiv_pos_site_id
 _symmetry_equiv_pos_as_xyz
  1  'x, y, z'
loop_
 _atom_site_type_symbol
 _atom_site_label
 _atom_site_symmetry_multiplicity
 _atom_site_fract_x
 _atom_site_fract_y
 _atom_site_fract_z
 _atom_site_occupancy
  Na  Na0  1  0.35314373  0.35354038  0.25255467  1
  Na  Na1  1  0.68594205  0.01926915  0.91677257  1
  Na  Na2  1  0.98061286  0.31267903  0.41673815  1
  Na  Na3  1  0.00886794  0.99778068  0.49970241  1
  Na  Na4  1  0.00088862  0.99029407  0.00052050  1
  Na  Na5  1  0.65737792  0.33560600  0.83329091  1
  Na  Na6  1  0.66610353  0.33342072  0.33338917  1
  Na  Na7  1  0.33180103  0.68690357  0.16653927  1
  Na  Na8  1  0.33334176  0.66666073  0.66675511  1
  Y  Y0  1  0.00929009  0.99666887  0.35019228  1
  Y  Y1  1  0.00132830  0.99460190  0.85018230  1
  Y  Y2  1  0.99193040  0.00664268  0.64935382  1
  Y  Y3  1  0.99657661  0.00282016  0.14959862  1
  Y  Y4  1  0.67489821  0.32673383  0.68407287  1
  Y  Y5  1  0.67470657  0.31940658  0.18371500  1
  Y  Y6  1  0.66112961  0.33411250  0.98323632  1
  Y  Y7  1  0.66327944  0.33786897  0.48339874  1
  Y  Y8  1  0.34128831  0.67701323  0.01706041  1
  Y  Y9  1  0.32313674  0.65785987  0.51740358  1
  Y  Y10  1  0.32435219  0.67091943  0.31652454  1
  Y  Y11  1  0.34416289  0.67514219  0.81606902  1
  P  P0  1  0.29684481  0.00281869  0.24813942  1
  P  P1  1  0.00302170  0.29530318  0.25236241  1
  P  P2  1  0.70392729  0.00031301  0.75177243  1
  P  P3  1  0.96262995  0.33290965  0.58149034  1
  P  P4  1  0.66889467  0.03505114  0.08093106  1
  P  P5  1  0.62949953  0.66734009  0.91667827  1
  P  P6  1  0.33403506  0.96306616  0.91660376  1
  P  P7  1  0.33325709  0.37224471  0.41463969  1
  P  P8  1  0.03427097  0.66442714  0.41775373  1
  S  S0  1  0.70014922  0.69994874  0.24974381  1
  S  S1  1  0.29714299  0.29661945  0.74954413  1
  S  S2  1  0.00014445  0.70411649  0.74900088  1
  S  S3  1  0.36927589  0.03651570  0.58382759  1
  S  S4  1  0.66674698  0.62926622  0.58430770  1
  S  S5  1  0.96275875  0.62943798  0.08352215  1
  S  S6  1  0.37040454  0.33461689  0.08503174  1
  S  S7  1  0.03681618  0.37002443  0.91662485  1
  S  S8  1  0.63149680  0.96433474  0.41729568  1
  O  O0  1  0.21363505  0.02672628  0.29984725  1
  O  O1  1  0.80132280  0.78068154  0.29927086  1
  O  O2  1  0.98098115  0.19368426  0.30552974  1
  O  O3  1  0.21613226  0.19409015  0.79914362  1
  O  O4  1  0.98244365  0.78553844  0.79887375  1
  O  O5  1  0.80476052  0.01873391  0.80503602  1
  O  O6  1  0.79617033  0.98387740  0.70144604  1
  O  O7  1  0.19555151  0.21185041  0.70014417  1
  O  O8  1  0.02069981  0.80701999  0.69981474  1
  O  O9  1  0.78215293  0.80154721  0.20025650  1
  O  O10  1  0.02359623  0.20456872  0.20221306  1
  O  O11  1  0.18831917  0.98077019  0.19715665  1
  O  O12  1  0.87066589  0.34962609  0.63189761  1
  O  O13  1  0.47118985  0.12158837  0.63319787  1
  O  O14  1  0.64595375  0.52615527  0.63352861  1
  O  O15  1  0.87845073  0.52948889  0.13298717  1
  O  O16  1  0.65097135  0.12566220  0.13150546  1
  O  O17  1  0.46917628  0.35481637  0.13552322  1
  O  O18  1  0.45665880  0.31789539  0.03620731  1
  O  O19  1  0.86064623  0.54701760  0.03387143  1
  O  O20  1  0.68598804  0.13668233  0.02789028  1
  O  O21  1  0.45006042  0.13894520  0.53425188  1
  O  O22  1  0.68421943  0.54787961  0.53447920  1
  O  O23  1  0.86179397  0.31461895  0.52827625  1
  O  O24  1  0.54363925  0.69191780  0.96732897  1
  O  O25  1  0.13678808  0.45047508  0.96625364  1
  O  O26  1  0.31056341  0.85642589  0.96829516  1
  O  O27  1  0.54943906  0.86392456  0.46682859  1
  O  O28  1  0.31187081  0.46367307  0.46455462  1
  O  O29  1  0.14320126  0.68816026  0.46888906  1
  O  O30  1  0.11818860  0.63946313  0.36652178  1
  O  O31  1  0.53143713  0.88385944  0.36763619  1
  O  O32  1  0.35445980  0.47272571  0.36116611  1
  O  O33  1  0.11757898  0.47028353  0.86700685  1
  O  O34  1  0.35880875  0.87724899  0.86588445  1
  O  O35  1  0.52271102  0.64395074  0.86493617  1
  O  O36  1  0.00875922  0.81648210  0.41177147  1
  O  O37  1  0.80364502  0.98787178  0.41229076  1
  O  O38  1  0.16435958  0.19923616  0.41147591  1
  O  O39  1  0.01285354  0.19701136  0.91151347  1
  O  O40  1  0.18219687  0.98882882  0.91004731  1
  O  O41  1  0.80210800  0.83540253  0.91106995  1
  O  O42  1  0.98065596  0.17452550  0.58765195  1
  O  O43  1  0.19940542  0.01608642  0.58923371  1
  O  O44  1  0.82162346  0.79747133  0.58901734  1
  O  O45  1  0.98231934  0.79942891  0.08785167  1
  O  O46  1  0.82710878  0.01788757  0.08717891  1
  O  O47  1  0.20175108  0.17969447  0.08833635  1
  O  O48  1  0.68616546  0.15886331  0.74566065  1
  O  O49  1  0.46721580  0.31726449  0.74413249  1
  O  O50  1  0.84505683  0.53586379  0.74430014  1
  O  O51  1  0.67634220  0.52784556  0.24405910  1
  O  O52  1  0.85112214  0.32149300  0.24557712  1
  O  O53  1  0.46843671  0.17215083  0.24319261  1
  O  O54  1  0.65503846  0.51521131  0.92317943  1
  O  O55  1  0.86379752  0.34607620  0.92163942  1
  O  O56  1  0.50203439  0.13579842  0.92216056  1
  O  O57  1  0.65432240  0.13693588  0.42202277  1
  O  O58  1  0.48476814  0.34614569  0.42234584  1
  O  O59  1  0.86254482  0.49620859  0.42306299  1
  O  O60  1  0.35002463  0.48354641  0.07851444  1
  O  O61  1  0.13009140  0.64342595  0.07882744  1
  O  O62  1  0.50815187  0.85810350  0.07864969  1
  O  O63  1  0.35652374  0.86976869  0.57892539  1
  O  O64  1  0.51782472  0.65032963  0.57862733  1
  O  O65  1  0.14062981  0.49238477  0.57916102  1
  O  O66  1  0.32399439  0.85159238  0.25439273  1
  O  O67  1  0.52906271  0.67866584  0.25470240  1
  O  O68  1  0.17104500  0.46810466  0.25557500  1
  O  O69  1  0.31015978  0.46351558  0.75439714  1
  O  O70  1  0.14887374  0.68285659  0.75471363  1
  O  O71  1  0.52625110  0.84068404  0.75408569  1
loop_
_geom_bond_atom_site_label_1
_geom_bond_atom_site_label_2
_geom_bond_distance
_geom_bond_site_symmetry_2
Na0 O68 2.392052 1_555
Na0 O53 2.401756 1_555
Na0 O51 2.580120 1_555
Na0 O67 2.586414 1_555
Na0 O0 2.847416 1_555
Na0 O32 2.867179 1_555
Na0 O10 2.892710 1_555
Na0 O17 3.048188 1_555
Na1 O41 2.421829 1_545
Na1 O56 2.424644 1_555
Na1 O55 2.602529 1_555
Na1 O39 2.604783 1_655
Na1 O24 2.882374 1_545
Na1 O34 2.884360 1_545
Na1 O20 2.919825 1_556
Na1 O5 2.940390 1_555
Na2 O38 2.400534 1_655
Na2 O59 2.433934 1_555
Na2 O37 2.586250 1_545
Na2 O57 2.599252 1_555
Na2 O30 2.878010 1_655
Na2 O28 2.879240 1_655
Na2 O2 2.928109 1_555
Na2 O23 2.938454 1_555
Na3 O36 2.722128 1_555
Na3 O38 2.724074 1_565
Na3 O43 2.743574 1_565
Na3 O42 2.788484 1_465
Na3 O44 2.810173 1_455
Na3 O37 2.810395 1_455
Na4 O45 2.702919 1_455
Na4 O41 2.735507 1_454
Na4 O46 2.745510 1_465
Na4 O40 2.776914 1_554
Na4 O47 2.788192 1_565
Na4 O39 2.843374 1_564
Na5 O56 2.730010 1_555
Na5 O49 2.734211 1_555
Na5 O54 2.757520 1_555
Na5 O48 2.784561 1_555
Na5 O50 2.805052 1_555
Na5 O55 2.833237 1_555
Na6 O59 2.746126 1_555
Na6 O53 2.757578 1_555
Na6 O57 2.776875 1_555
Na6 O52 2.779387 1_555
Na6 O58 2.782223 1_555
Na6 O51 2.782264 1_555
Na7 O66 2.651429 1_555
Na7 O62 2.669204 1_555
Na7 O61 2.718496 1_555
Na7 O68 2.816497 1_555
Na7 O67 2.830803 1_555
Na7 O60 2.914660 1_555
Na8 O71 2.714053 1_555
Na8 O65 2.719059 1_555
Na8 O69 2.768246 1_555
Na8 O63 2.771543 1_555
Na8 O70 2.793012 1_555
Na8 O64 2.796733 1_555
O0 P0 1.551378 1_555
O0 Y0 2.149365 1_545
O1 S0 1.474180 1_555
O1 Y0 2.304874 1_655
O2 P1 1.546859 1_655
O2 Y0 2.235444 1_645
O3 S1 1.481412 1_555
O3 Y1 2.273006 1_545
O4 S2 1.483163 1_655
O4 Y1 2.232052 1_655
O5 P2 1.550631 1_555
O5 Y1 2.217854 1_645
O6 P2 1.546416 1_565
O6 Y2 2.132338 1_565
O7 S1 1.480525 1_555
O7 Y2 2.244033 1_455
O8 S2 1.476116 1_555
O8 Y2 2.329212 1_465
O9 S0 1.477721 1_555
O9 Y3 2.272396 1_565
O10 P1 1.549006 1_555
O10 Y3 2.170085 1_455
O11 P0 1.538338 1_565
O11 Y3 2.199933 1_465
O12 P3 1.547419 1_555
O12 Y4 2.133219 1_555
O13 S3 1.481606 1_555
O13 Y4 2.245255 1_555
O14 S4 1.477477 1_555
O14 Y4 2.329533 1_555
O15 S5 1.476147 1_555
O15 Y5 2.263697 1_555
O16 P4 1.547003 1_555
O16 Y5 2.115167 1_555
O17 S6 1.481197 1_555
O17 Y5 2.379798 1_555
O18 S6 1.485159 1_555
O18 Y6 2.230678 1_554
O19 S5 1.482844 1_555
O19 Y6 2.258497 1_554
O20 P4 1.552742 1_555
O20 Y6 2.222169 1_554
O21 S3 1.480204 1_555
O21 Y7 2.261851 1_555
O22 S4 1.481313 1_555
O22 Y7 2.229354 1_555
O23 P3 1.549866 1_555
O23 Y7 2.226044 1_555
O24 P5 1.547203 1_555
O24 Y8 2.173911 1_556
O25 S7 1.471623 1_555
O25 Y8 2.336876 1_556
O26 P6 1.540263 1_555
O26 Y8 2.160773 1_556
O27 S8 1.474709 1_555
O27 Y9 2.339144 1_555
O28 P7 1.551390 1_555
O28 Y9 2.167926 1_555
O29 P8 1.540570 1_555
O29 Y9 2.159501 1_555
O30 P8 1.549599 1_555
O30 Y10 2.154115 1_555
O31 S8 1.472576 1_555
O31 Y10 2.291776 1_555
O32 P7 1.548844 1_555
O32 Y10 2.253352 1_555
O33 S7 1.473552 1_555
O33 Y11 2.341136 1_555
O34 P6 1.548681 1_555
O34 Y11 2.172937 1_555
O35 P5 1.541892 1_555
O35 Y11 2.157821 1_555
O36 P8 1.538420 1_555
O36 Y0 2.229206 1_555
O37 S8 1.493629 1_555
O37 Y0 2.399808 1_655
O38 P7 1.568324 1_555
O38 Y0 2.249520 1_545
O39 S7 1.499512 1_555
O39 Y1 2.354538 1_545
O40 P6 1.539569 1_555
O40 Y1 2.228562 1_555
O41 P5 1.566965 1_555
O41 Y1 2.237511 1_655
O42 P3 1.555358 1_555
O42 Y2 2.190038 1_555
O43 S3 1.485167 1_555
O43 Y2 2.380559 1_455
O44 S4 1.488104 1_555
O44 Y2 2.297995 1_565
O45 S5 1.486643 1_555
O45 Y3 2.359083 1_565
O46 P4 1.549839 1_555
O46 Y3 2.226662 1_555
O47 S6 1.488523 1_555
O47 Y3 2.312569 1_455
O48 P2 1.555355 1_555
O48 Y4 2.188033 1_555
O49 S1 1.486219 1_555
O49 Y4 2.381064 1_555
O50 S2 1.489173 1_655
O50 Y4 2.295754 1_555
O51 S0 1.493085 1_555
O51 Y5 2.417477 1_555
O52 P1 1.543093 1_655
O52 Y5 2.202985 1_555
O53 P0 1.566454 1_555
O53 Y5 2.226075 1_555
O54 P5 1.540422 1_555
O54 Y6 2.234452 1_555
O55 S7 1.500096 1_655
O55 Y6 2.360249 1_555
O56 P6 1.566999 1_545
O56 Y6 2.234919 1_555
O57 S8 1.499084 1_545
O57 Y7 2.353307 1_555
O58 P7 1.541493 1_555
O58 Y7 2.240406 1_555
O59 P8 1.562850 1_655
O59 Y7 2.226937 1_555
O60 S6 1.482746 1_555
O60 Y8 2.353121 1_555
O61 S5 1.485476 1_455
O61 Y8 2.358905 1_555
O62 P4 1.553167 1_565
O62 Y8 2.191735 1_555
O63 S3 1.484906 1_565
O63 Y9 2.359310 1_555
O64 S4 1.484897 1_555
O64 Y9 2.353633 1_555
O65 P3 1.554062 1_455
O65 Y9 2.197200 1_555
O66 P0 1.540780 1_565
O66 Y10 2.244569 1_555
O67 S0 1.492098 1_555
O67 Y10 2.392436 1_555
O68 P1 1.563557 1_555
O68 Y10 2.241903 1_555
O69 S1 1.485089 1_555
O69 Y11 2.358021 1_555
O70 S2 1.484289 1_555
O70 Y11 2.360631 1_555
O71 P2 1.552912 1_565
O71 Y11 2.199554 1_555
