# generated using pymatgen
data_Ce3Co4Sn13
_symmetry_space_group_name_H-M   'P 1'
_cell_length_a   9.60826800
_cell_length_b   9.60826800
_cell_length_c   9.60826800
_cell_angle_alpha   90.00000000
_cell_angle_beta   90.00000000
_cell_angle_gamma   90.00000000
_symmetry_Int_Tables_number   1
_chemical_formula_structural   Ce3Co4Sn13
_chemical_formula_sum   'Ce6 Co8 Sn26'
_cell_volume   887.02390597
_cell_formula_units_Z   2
loop_
 _symmetry_equiv_pos_site_id
 _symmetry_equiv_pos_as_xyz
  1  'x, y, z'
loop_
 _atom_site_type_symbol
 _atom_site_label
 _atom_site_symmetry_multiplicity
 _atom_site_fract_x
 _atom_site_fract_y
 _atom_site_fract_z
 _atom_site_occupancy
  Ce  Ce0  1  0.50000000  0.00000000  0.75000000  1
  Ce  Ce1  1  0.00000000  0.25000000  0.50000000  1
  Ce  Ce2  1  0.75000000  0.50000000  0.00000000  1
  Ce  Ce3  1  0.50000000  0.00000000  0.25000000  1
  Ce  Ce4  1  0.00000000  0.75000000  0.50000000  1
  Ce  Ce5  1  0.25000000  0.50000000  0.00000000  1
  Co  Co0  1  0.75000000  0.25000000  0.75000000  1
  Co  Co1  1  0.25000000  0.75000000  0.25000000  1
  Co  Co2  1  0.75000000  0.75000000  0.25000000  1
  Co  Co3  1  0.25000000  0.25000000  0.75000000  1
  Co  Co4  1  0.25000000  0.75000000  0.75000000  1
  Co  Co5  1  0.75000000  0.25000000  0.25000000  1
  Co  Co6  1  0.25000000  0.25000000  0.25000000  1
  Co  Co7  1  0.75000000  0.75000000  0.75000000  1
  Sn  Sn0  1  0.50000000  0.50000000  0.50000000  1
  Sn  Sn1  1  0.00000000  0.00000000  0.00000000  1
  Sn  Sn2  1  0.65658400  0.19754900  0.50000000  1
  Sn  Sn3  1  0.80245100  0.50000000  0.65658400  1
  Sn  Sn4  1  0.50000000  0.34341600  0.80245100  1
  Sn  Sn5  1  0.34341600  0.80245100  0.50000000  1
  Sn  Sn6  1  0.19754900  0.50000000  0.34341600  1
  Sn  Sn7  1  0.50000000  0.65658400  0.19754900  1
  Sn  Sn8  1  0.65658400  0.80245100  0.50000000  1
  Sn  Sn9  1  0.80245100  0.50000000  0.34341600  1
  Sn  Sn10  1  0.34341600  0.19754900  0.50000000  1
  Sn  Sn11  1  0.19754900  0.50000000  0.65658400  1
  Sn  Sn12  1  0.50000000  0.65658400  0.80245100  1
  Sn  Sn13  1  0.50000000  0.34341600  0.19754900  1
  Sn  Sn14  1  0.15658400  0.00000000  0.69754900  1
  Sn  Sn15  1  0.30245100  0.15658400  0.00000000  1
  Sn  Sn16  1  0.00000000  0.30245100  0.84341600  1
  Sn  Sn17  1  0.84341600  0.00000000  0.30245100  1
  Sn  Sn18  1  0.69754900  0.84341600  0.00000000  1
  Sn  Sn19  1  0.00000000  0.69754900  0.15658400  1
  Sn  Sn20  1  0.15658400  0.00000000  0.30245100  1
  Sn  Sn21  1  0.30245100  0.84341600  0.00000000  1
  Sn  Sn22  1  0.84341600  0.00000000  0.69754900  1
  Sn  Sn23  1  0.69754900  0.15658400  0.00000000  1
  Sn  Sn24  1  0.00000000  0.30245100  0.15658400  1
  Sn  Sn25  1  0.00000000  0.69754900  0.84341600  1
loop_
_geom_bond_atom_site_label_1
_geom_bond_atom_site_label_2
_geom_bond_distance
_geom_bond_site_symmetry_2
Ce0 Sn22 3.337897 1_555
Ce0 Sn4 3.337897 1_555
Ce0 Sn12 3.337897 1_545
Ce0 Sn14 3.337897 1_555
Ce0 Co3 3.397036 1_555
Ce0 Co0 3.397036 1_555
Ce0 Co4 3.397036 1_545
Ce0 Co7 3.397036 1_545
Ce0 Sn2 3.411194 1_555
Ce0 Sn10 3.411194 1_555
Ce0 Sn23 3.411194 1_556
Ce0 Sn18 3.411194 1_546
Ce0 Sn8 3.411194 1_545
Ce0 Sn5 3.411194 1_545
Ce0 Sn15 3.411194 1_556
Ce0 Sn21 3.411194 1_546
Ce1 Sn16 3.337897 1_555
Ce1 Sn24 3.337897 1_555
Ce1 Sn10 3.337897 1_555
Ce1 Sn2 3.337897 1_455
Ce1 Co6 3.397036 1_555
Ce1 Co3 3.397036 1_555
Ce1 Co5 3.397036 1_455
Ce1 Co0 3.397036 1_455
Ce1 Sn11 3.411194 1_555
Ce1 Sn14 3.411194 1_555
Ce1 Sn6 3.411194 1_555
Ce1 Sn22 3.411194 1_455
Ce1 Sn3 3.411194 1_455
Ce1 Sn9 3.411194 1_455
Ce1 Sn20 3.411194 1_555
Ce1 Sn17 3.411194 1_455
Ce2 Sn18 3.337897 1_555
Ce2 Sn9 3.337897 1_555
Ce2 Sn3 3.337897 1_554
Ce2 Sn23 3.337897 1_555
Ce2 Co2 3.397036 1_555
Ce2 Co0 3.397036 1_554
Ce2 Co5 3.397036 1_555
Ce2 Co7 3.397036 1_554
Ce2 Sn7 3.411194 1_555
Ce2 Sn19 3.411194 1_655
Ce2 Sn13 3.411194 1_555
Ce2 Sn25 3.411194 1_654
Ce2 Sn24 3.411194 1_655
Ce2 Sn12 3.411194 1_554
Ce2 Sn4 3.411194 1_554
Ce2 Sn16 3.411194 1_654
Ce3 Sn17 3.337897 1_555
Ce3 Sn20 3.337897 1_555
Ce3 Sn13 3.337897 1_555
Ce3 Sn7 3.337897 1_545
Ce3 Co6 3.397036 1_555
Ce3 Co1 3.397036 1_545
Ce3 Co5 3.397036 1_555
Ce3 Co2 3.397036 1_545
Ce3 Sn2 3.411194 1_555
Ce3 Sn10 3.411194 1_555
Ce3 Sn23 3.411194 1_555
Ce3 Sn18 3.411194 1_545
Ce3 Sn8 3.411194 1_545
Ce3 Sn15 3.411194 1_555
Ce3 Sn5 3.411194 1_545
Ce3 Sn21 3.411194 1_545
Ce4 Sn25 3.337897 1_555
Ce4 Sn5 3.337897 1_555
Ce4 Sn8 3.337897 1_455
Ce4 Sn19 3.337897 1_555
Ce4 Co7 3.397036 1_455
Ce4 Co4 3.397036 1_555
Ce4 Co2 3.397036 1_455
Ce4 Co1 3.397036 1_555
Ce4 Sn11 3.411194 1_555
Ce4 Sn6 3.411194 1_555
Ce4 Sn14 3.411194 1_565
Ce4 Sn22 3.411194 1_465
Ce4 Sn9 3.411194 1_455
Ce4 Sn3 3.411194 1_455
Ce4 Sn20 3.411194 1_565
Ce4 Sn17 3.411194 1_465
Ce5 Sn21 3.337897 1_555
Ce5 Sn15 3.337897 1_555
Ce5 Sn6 3.337897 1_555
Ce5 Sn11 3.337897 1_554
Ce5 Co6 3.397036 1_555
Ce5 Co4 3.397036 1_554
Ce5 Co1 3.397036 1_555
Ce5 Co3 3.397036 1_554
Ce5 Sn19 3.411194 1_555
Ce5 Sn7 3.411194 1_555
Ce5 Sn13 3.411194 1_555
Ce5 Sn25 3.411194 1_554
Ce5 Sn24 3.411194 1_555
Ce5 Sn12 3.411194 1_554
Ce5 Sn4 3.411194 1_554
Ce5 Sn16 3.411194 1_554
Co0 Sn16 2.613337 1_655
Co0 Sn22 2.613337 1_555
Co0 Sn3 2.613337 1_555
Co0 Sn4 2.613337 1_555
Co0 Sn2 2.613337 1_555
Co0 Sn23 2.613337 1_556
Co1 Sn21 2.613337 1_555
Co1 Sn20 2.613337 1_565
Co1 Sn5 2.613337 1_555
Co1 Sn6 2.613337 1_555
Co1 Sn19 2.613337 1_555
Co1 Sn7 2.613337 1_555
Co2 Sn17 2.613337 1_565
Co2 Sn18 2.613337 1_555
Co2 Sn8 2.613337 1_555
Co2 Sn9 2.613337 1_555
Co2 Sn19 2.613337 1_655
Co2 Sn7 2.613337 1_555
Co3 Sn16 2.613337 1_555
Co3 Sn15 2.613337 1_556
Co3 Sn4 2.613337 1_555
Co3 Sn14 2.613337 1_555
Co3 Sn11 2.613337 1_555
Co3 Sn10 2.613337 1_555
Co4 Sn21 2.613337 1_556
Co4 Sn25 2.613337 1_555
Co4 Sn12 2.613337 1_555
Co4 Sn5 2.613337 1_555
Co4 Sn14 2.613337 1_565
Co4 Sn11 2.613337 1_555
Co5 Sn17 2.613337 1_555
Co5 Sn9 2.613337 1_555
Co5 Sn24 2.613337 1_655
Co5 Sn2 2.613337 1_555
Co5 Sn23 2.613337 1_555
Co5 Sn13 2.613337 1_555
Co6 Sn15 2.613337 1_555
Co6 Sn20 2.613337 1_555
Co6 Sn24 2.613337 1_555
Co6 Sn6 2.613337 1_555
Co6 Sn10 2.613337 1_555
Co6 Sn13 2.613337 1_555
Co7 Sn18 2.613337 1_556
Co7 Sn22 2.613337 1_565
Co7 Sn25 2.613337 1_655
Co7 Sn3 2.613337 1_555
Co7 Sn12 2.613337 1_555
Co7 Sn8 2.613337 1_555
Sn0 Sn8 3.272390 1_555
Sn0 Sn12 3.272390 1_555
Sn0 Sn3 3.272390 1_555
Sn0 Sn9 3.272390 1_555
Sn0 Sn4 3.272390 1_555
Sn0 Sn5 3.272390 1_555
Sn0 Sn7 3.272390 1_555
Sn0 Sn11 3.272390 1_555
Sn0 Sn2 3.272390 1_555
Sn0 Sn6 3.272390 1_555
Sn0 Sn13 3.272390 1_555
Sn0 Sn10 3.272390 1_555
Sn1 Sn15 3.272390 1_555
Sn1 Sn20 3.272390 1_555
Sn1 Sn24 3.272390 1_555
Sn1 Sn16 3.272390 1_554
Sn1 Sn21 3.272390 1_545
Sn1 Sn17 3.272390 1_455
Sn1 Sn23 3.272390 1_455
Sn1 Sn19 3.272390 1_545
Sn1 Sn14 3.272390 1_554
Sn1 Sn25 3.272390 1_544
Sn1 Sn22 3.272390 1_454
Sn1 Sn18 3.272390 1_445
Sn2 Sn22 3.229256 1_555
Sn3 Sn9 3.009002 1_555
Sn5 Sn8 3.009002 1_555
Sn10 Sn2 3.009002 1_555
Sn10 Sn14 3.229256 1_555
Sn10 Sn20 3.229256 1_555
Sn11 Sn6 3.009002 1_555
Sn11 Sn25 3.229256 1_555
Sn11 Sn16 3.229256 1_555
Sn12 Sn4 3.009002 1_555
Sn12 Sn18 3.229256 1_556
Sn12 Sn21 3.229256 1_556
Sn13 Sn7 3.009002 1_555
Sn13 Sn23 3.229256 1_555
Sn13 Sn15 3.229256 1_555
Sn14 Sn22 3.009002 1_455
Sn14 Sn5 3.229256 1_545
Sn15 Sn21 3.009002 1_545
Sn15 Sn4 3.229256 1_554
Sn16 Sn24 3.009002 1_556
Sn16 Sn3 3.229256 1_455
Sn17 Sn20 3.009002 1_655
Sn17 Sn2 3.229256 1_555
Sn17 Sn8 3.229256 1_545
Sn18 Sn23 3.009002 1_565
Sn18 Sn7 3.229256 1_555
Sn19 Sn25 3.009002 1_554
Sn19 Sn6 3.229256 1_555
Sn19 Sn9 3.229256 1_455
Sn20 Sn5 3.229256 1_545
Sn21 Sn7 3.229256 1_555
Sn22 Sn8 3.229256 1_545
Sn23 Sn4 3.229256 1_554
Sn24 Sn6 3.229256 1_555
Sn24 Sn9 3.229256 1_455
Sn25 Sn3 3.229256 1_455
