# generated using pymatgen
data_Sr2MgCuC(NO)2
_symmetry_space_group_name_H-M   'P 1'
_cell_length_a   3.98144000
_cell_length_b   3.98144000
_cell_length_c   9.50575900
_cell_angle_alpha   90.00000000
_cell_angle_beta   90.00000000
_cell_angle_gamma   90.00000000
_symmetry_Int_Tables_number   1
_chemical_formula_structural   Sr2MgCuC(NO)2
_chemical_formula_sum   'Sr2 Mg1 Cu1 C1 N2 O2'
_cell_volume   150.68400339
_cell_formula_units_Z   1
loop_
 _symmetry_equiv_pos_site_id
 _symmetry_equiv_pos_as_xyz
  1  'x, y, z'
loop_
 _atom_site_type_symbol
 _atom_site_label
 _atom_site_symmetry_multiplicity
 _atom_site_fract_x
 _atom_site_fract_y
 _atom_site_fract_z
 _atom_site_occupancy
  Sr  Sr0  1  0.50000000  0.50000000  0.66866900  1
  Sr  Sr1  1  0.50000000  0.50000000  0.33133100  1
  Mg  Mg0  1  0.50000000  0.50000000  0.00000000  1
  Cu  Cu0  1  0.00000000  0.00000000  0.50000000  1
  C  C0  1  0.00000000  0.00000000  0.00000000  1
  N  N0  1  0.00000000  0.00000000  0.86787600  1
  N  N1  1  0.00000000  0.00000000  0.13212400  1
  O  O0  1  0.00000000  0.50000000  0.50000000  1
  O  O1  1  0.50000000  0.00000000  0.50000000  1
loop_
_geom_bond_atom_site_label_1
_geom_bond_atom_site_label_2
_geom_bond_distance
_geom_bond_site_symmetry_2
Mg0 Sr1 3.149553 1_555
Mg0 Sr0 3.149553 1_554
Cu0 O0 1.990720 1_555
Cu0 O1 1.990720 1_455
Cu0 O1 1.990720 1_555
Cu0 O0 1.990720 1_545
C0 N1 1.255939 1_555
C0 N0 1.255939 1_554
C0 Mg0 2.815303 1_445
C0 Mg0 2.815303 1_555
C0 Mg0 2.815303 1_545
C0 Mg0 2.815303 1_455
O0 Sr0 2.556095 1_455
O0 Sr0 2.556095 1_555
O0 Sr1 2.556095 1_555
O0 Sr1 2.556095 1_455
O1 Sr0 2.556095 1_555
O1 Sr0 2.556095 1_545
O1 Sr1 2.556095 1_555
O1 Sr1 2.556095 1_545
