# generated using pymatgen
data_Na2Hf4Si5Sn4S7O48
_symmetry_space_group_name_H-M   'P 1'
_cell_length_a   17.79008428
_cell_length_b   8.90229157
_cell_length_c   23.17748644
_cell_angle_alpha   89.98320533
_cell_angle_beta   89.61065576
_cell_angle_gamma   120.08521939
_symmetry_Int_Tables_number   1
_chemical_formula_structural   Na2Hf4Si5Sn4S7O48
_chemical_formula_sum   'Na6 Hf12 Si15 Sn12 S21 O144'
_cell_volume   3176.06373700
_cell_formula_units_Z   3
loop_
 _symmetry_equiv_pos_site_id
 _symmetry_equiv_pos_as_xyz
  1  'x, y, z'
loop_
 _atom_site_type_symbol
 _atom_site_label
 _atom_site_symmetry_multiplicity
 _atom_site_fract_x
 _atom_site_fract_y
 _atom_site_fract_z
 _atom_site_occupancy
  Na  Na0  1  0.99317744  0.99603210  0.49786454  1
  Na  Na1  1  0.49210173  0.98903567  0.99205179  1
  Na  Na2  1  0.34718579  0.35849565  0.83714368  1
  Na  Na3  1  0.83508078  0.34497235  0.82904154  1
  Na  Na4  1  0.33842367  0.32974172  0.33126815  1
  Na  Na5  1  0.83944749  0.33530278  0.34256680  1
  Hf  Hf0  1  0.49875470  0.00410425  0.35849367  1
  Hf  Hf1  1  0.99783677  0.99275733  0.85787868  1
  Hf  Hf2  1  0.50211856  0.99333754  0.64813472  1
  Hf  Hf3  1  0.00228897  0.00012543  0.14438648  1
  Hf  Hf4  1  0.33861646  0.35480862  0.68756679  1
  Hf  Hf5  1  0.83256990  0.32264442  0.18418673  1
  Hf  Hf6  1  0.16823638  0.65508489  0.01553109  1
  Hf  Hf7  1  0.65830960  0.66176017  0.02583844  1
  Hf  Hf8  1  0.15827199  0.65526838  0.52850330  1
  Hf  Hf9  1  0.66799566  0.68281686  0.51711679  1
  Hf  Hf10  1  0.66082425  0.66195399  0.31313730  1
  Hf  Hf11  1  0.16251541  0.66026416  0.81227714  1
  Si  Si0  1  0.14513585  0.00485667  0.25020166  1
  Si  Si1  1  0.50162594  0.28769139  0.24941412  1
  Si  Si2  1  0.64564093  0.28277318  0.74954407  1
  Si  Si3  1  0.00203568  0.71530618  0.74947665  1
  Si  Si4  1  0.50104661  0.71495522  0.75341266  1
  Si  Si5  1  0.97270001  0.31596769  0.58748554  1
  Si  Si6  1  0.33531923  0.63147436  0.58238557  1
  Si  Si7  1  0.47335197  0.62798545  0.08731386  1
  Si  Si8  1  0.83413831  0.03980792  0.08199316  1
  Si  Si9  1  0.31389199  0.66926386  0.91319311  1
  Si  Si10  1  0.01828707  0.37542584  0.91576104  1
  Si  Si11  1  0.52250492  0.36940810  0.91817778  1
  Si  Si12  1  0.81284964  0.95811799  0.41267655  1
  Si  Si13  1  0.02153312  0.66636932  0.41828376  1
  Si  Si14  1  0.51712006  0.65875323  0.41632118  1
  Sn  Sn0  1  0.00148502  0.99091021  0.35541519  1
  Sn  Sn1  1  0.49970840  0.00029776  0.85253200  1
  Sn  Sn2  1  0.99784675  0.99578415  0.64979776  1
  Sn  Sn3  1  0.49628070  0.99908799  0.14875120  1
  Sn  Sn4  1  0.83713966  0.34605474  0.69016098  1
  Sn  Sn5  1  0.33720804  0.32611977  0.18952557  1
  Sn  Sn6  1  0.34373586  0.36245549  0.97733585  1
  Sn  Sn7  1  0.83786573  0.32670972  0.97896033  1
  Sn  Sn8  1  0.33955593  0.34979123  0.48254350  1
  Sn  Sn9  1  0.84250114  0.32302354  0.47962913  1
  Sn  Sn10  1  0.16062358  0.67574268  0.31378544  1
  Sn  Sn11  1  0.65351162  0.63957056  0.80742180  1
  S  S0  1  0.64512125  0.00253905  0.25028721  1
  S  S1  1  0.35119831  0.70797129  0.25363413  1
  S  S2  1  0.85524874  0.70737460  0.24920294  1
  S  S3  1  0.00075820  0.28996813  0.25084333  1
  S  S4  1  0.14440203  0.28651462  0.75034048  1
  S  S5  1  0.35395341  0.00281946  0.74928953  1
  S  S6  1  0.85365305  0.99629690  0.75330322  1
  S  S7  1  0.47895963  0.33158467  0.58245873  1
  S  S8  1  0.18955249  0.04948903  0.58250554  1
  S  S9  1  0.69183212  0.05215932  0.58280502  1
  S  S10  1  0.83176933  0.62053064  0.58121453  1
  S  S11  1  0.97775811  0.62284943  0.08246796  1
  S  S12  1  0.33124401  0.04210349  0.08165912  1
  S  S13  1  0.19225953  0.33422275  0.08367849  1
  S  S14  1  0.68971371  0.33110233  0.08211921  1
  S  S15  1  0.80794370  0.65912971  0.91808975  1
  S  S16  1  0.16878541  0.95811322  0.91797022  1
  S  S17  1  0.66896397  0.95620446  0.91660245  1
  S  S18  1  0.30906995  0.95893825  0.41866179  1
  S  S19  1  0.16853698  0.38210393  0.41535188  1
  S  S20  1  0.66907765  0.38049362  0.41809675  1
  O  O0  1  0.10331882  0.04451276  0.30761598  1
  O  O1  1  0.60306933  0.02789052  0.30123458  1
  O  O2  1  0.40851176  0.79514995  0.30315184  1
  O  O3  1  0.90939883  0.77913524  0.30167612  1
  O  O4  1  0.48751351  0.15954537  0.30380861  1
  O  O5  1  0.98019123  0.18211249  0.30320323  1
  O  O6  1  0.10103263  0.17712477  0.80114108  1
  O  O7  1  0.60472931  0.16976338  0.80845057  1
  O  O8  1  0.47596965  0.78645120  0.81038083  1
  O  O9  1  0.98746998  0.81447065  0.80390680  1
  O  O10  1  0.40767506  0.04419992  0.80199700  1
  O  O11  1  0.91237142  0.02701786  0.80252937  1
  O  O12  1  0.39598231  0.97748250  0.69824265  1
  O  O13  1  0.88979840  0.96808330  0.69850042  1
  O  O14  1  0.09305403  0.21443056  0.69682136  1
  O  O15  1  0.58593760  0.19969312  0.69329077  1
  O  O16  1  0.01626444  0.82733673  0.68922791  1
  O  O17  1  0.50929120  0.82415278  0.69542553  1
  O  O18  1  0.38652463  0.80995185  0.19937693  1
  O  O19  1  0.89762271  0.81715527  0.19804281  1
  O  O20  1  0.00972744  0.20372505  0.19934874  1
  O  O21  1  0.51599678  0.20336646  0.18954037  1
  O  O22  1  0.08411715  0.97434995  0.19477765  1
  O  O23  1  0.59484831  0.97576561  0.19695249  1
  O  O24  1  0.43489312  0.35926967  0.63262039  1
  O  O25  1  0.92949778  0.35121305  0.64338011  1
  O  O26  1  0.24172059  0.13257497  0.63359955  1
  O  O27  1  0.74631924  0.12826685  0.63373870  1
  O  O28  1  0.31796926  0.50036284  0.63744407  1
  O  O29  1  0.81721055  0.51834860  0.63443402  1
  O  O30  1  0.43121357  0.51028363  0.14477471  1
  O  O31  1  0.93358030  0.51074775  0.13417456  1
  O  O32  1  0.31645925  0.11370551  0.13567583  1
  O  O33  1  0.81798819  0.13554525  0.13894822  1
  O  O34  1  0.24553289  0.36513793  0.13543835  1
  O  O35  1  0.74315114  0.35230826  0.13447658  1
  O  O36  1  0.22823188  0.29558719  0.03167161  1
  O  O37  1  0.73051898  0.30514116  0.02983165  1
  O  O38  1  0.41317263  0.55436513  0.03010100  1
  O  O39  1  0.92252243  0.55012684  0.03092033  1
  O  O40  1  0.34573263  0.15376965  0.03089199  1
  O  O41  1  0.85597517  0.17114646  0.02764913  1
  O  O42  1  0.22942753  0.15480213  0.52845039  1
  O  O43  1  0.72969206  0.16161577  0.52980755  1
  O  O44  1  0.35578570  0.54888522  0.52498856  1
  O  O45  1  0.84660077  0.53903917  0.52959074  1
  O  O46  1  0.42361864  0.29317794  0.52943519  1
  O  O47  1  0.91545868  0.27113536  0.52864868  1
  O  O48  1  0.26761563  0.69281344  0.97235035  1
  O  O49  1  0.76948326  0.68656557  0.96992478  1
  O  O50  1  0.07532225  0.46757759  0.97389956  1
  O  O51  1  0.58058911  0.46537503  0.97463781  1
  O  O52  1  0.15295189  0.84779863  0.97003296  1
  O  O53  1  0.66242867  0.85484402  0.96906997  1
  O  O54  1  0.26907835  0.85020511  0.46880252  1
  O  O55  1  0.76905254  0.84036613  0.47110165  1
  O  O56  1  0.16017507  0.46899178  0.46642125  1
  O  O57  1  0.65355726  0.45836116  0.46956614  1
  O  O58  1  0.08254011  0.68923196  0.47222716  1
  O  O59  1  0.57622741  0.68397367  0.47312724  1
  O  O60  1  0.05608017  0.61647526  0.35889166  1
  O  O61  1  0.56455554  0.63042147  0.36013522  1
  O  O62  1  0.25910904  0.88551839  0.36423706  1
  O  O63  1  0.75582536  0.85958400  0.35672901  1
  O  O64  1  0.18497023  0.48806580  0.36143070  1
  O  O65  1  0.68370388  0.48738203  0.36583846  1
  O  O66  1  0.06614736  0.49960224  0.86037044  1
  O  O67  1  0.55935236  0.49519093  0.86138889  1
  O  O68  1  0.18361859  0.88055548  0.86630436  1
  O  O69  1  0.68578410  0.88392246  0.86434615  1
  O  O70  1  0.25527762  0.65240419  0.85816665  1
  O  O71  1  0.75782334  0.63435380  0.86525347  1
  O  O72  1  0.01685597  0.84565724  0.41420200  1
  O  O73  1  0.50792898  0.82842722  0.40428191  1
  O  O74  1  0.39724045  0.98148867  0.40991534  1
  O  O75  1  0.91285430  0.99218530  0.40780010  1
  O  O76  1  0.08694182  0.21216754  0.41080269  1
  O  O77  1  0.59069986  0.20621609  0.40963528  1
  O  O78  1  0.00859697  0.18677442  0.90535294  1
  O  O79  1  0.51702145  0.18166270  0.91255720  1
  O  O80  1  0.09034688  0.97472639  0.91009668  1
  O  O81  1  0.58930163  0.96735186  0.91444083  1
  O  O82  1  0.41098664  0.83816298  0.91232066  1
  O  O83  1  0.89711866  0.81242399  0.91062388  1
  O  O84  1  0.48828341  0.18057749  0.59153035  1
  O  O85  1  0.98703532  0.14627009  0.59316765  1
  O  O86  1  0.10164912  0.03090003  0.58643904  1
  O  O87  1  0.60526916  0.03070318  0.58949675  1
  O  O88  1  0.41785528  0.81908268  0.59363018  1
  O  O89  1  0.91109288  0.79657096  0.58614983  1
  O  O90  1  0.48739623  0.82674499  0.09364034  1
  O  O91  1  0.98581408  0.79395356  0.09211708  1
  O  O92  1  0.41087034  0.02563958  0.08693318  1
  O  O93  1  0.91913099  0.02711465  0.09770684  1
  O  O94  1  0.10390309  0.18250372  0.09264786  1
  O  O95  1  0.60286247  0.17404135  0.08811136  1
  O  O96  1  0.34068322  0.15294232  0.73926247  1
  O  O97  1  0.84591098  0.15353402  0.74790800  1
  O  O98  1  0.22999286  0.29519783  0.74400388  1
  O  O99  1  0.73993452  0.28850712  0.74286387  1
  O  O100  1  0.41662183  0.51472518  0.74514156  1
  O  O101  1  0.91450552  0.52364668  0.74705838  1
  O  O102  1  0.34266690  0.53464417  0.24829288  1
  O  O103  1  0.84574888  0.53223468  0.24036477  1
  O  O104  1  0.41391361  0.30401864  0.24733603  1
  O  O105  1  0.92481585  0.32003131  0.24253528  1
  O  O106  1  0.23974326  0.18355754  0.24284054  1
  O  O107  1  0.73275217  0.16574002  0.24416067  1
  O  O108  1  0.31215371  0.48220978  0.91811201  1
  O  O109  1  0.81782068  0.50115014  0.92464966  1
  O  O110  1  0.42201410  0.33618738  0.92278305  1
  O  O111  1  0.92288439  0.36470636  0.91810163  1
  O  O112  1  0.24526123  0.13154383  0.92602357  1
  O  O113  1  0.74544021  0.13891112  0.92194944  1
  O  O114  1  0.31819809  0.13459120  0.42449053  1
  O  O115  1  0.81327209  0.14282909  0.41826493  1
  O  O116  1  0.24351245  0.35125892  0.42019834  1
  O  O117  1  0.74571724  0.35962012  0.42486450  1
  O  O118  1  0.42143218  0.47951898  0.41884690  1
  O  O119  1  0.92137215  0.50160565  0.42273268  1
  O  O120  1  0.18263461  0.48914375  0.07523429  1
  O  O121  1  0.68390150  0.48828223  0.07710416  1
  O  O122  1  0.06316961  0.63956677  0.07597201  1
  O  O123  1  0.56764183  0.64797989  0.07612412  1
  O  O124  1  0.25443490  0.86876720  0.07416350  1
  O  O125  1  0.75145845  0.85296917  0.07116330  1
  O  O126  1  0.18190519  0.87831389  0.57563886  1
  O  O127  1  0.68349908  0.87830877  0.57384121  1
  O  O128  1  0.24981055  0.64499238  0.57045135  1
  O  O129  1  0.75487943  0.63955834  0.57293962  1
  O  O130  1  0.06686409  0.48669580  0.57697879  1
  O  O131  1  0.56413150  0.48893063  0.57367823  1
  O  O132  1  0.15861768  0.83682979  0.25695465  1
  O  O133  1  0.65833970  0.85407116  0.25720546  1
  O  O134  1  0.26407552  0.68858135  0.26259632  1
  O  O135  1  0.76960130  0.68887257  0.25658295  1
  O  O136  1  0.08151115  0.45988583  0.25584164  1
  O  O137  1  0.58846811  0.47301618  0.25845444  1
  O  O138  1  0.15737908  0.46141590  0.75712526  1
  O  O139  1  0.66719333  0.48340008  0.75527602  1
  O  O140  1  0.08875639  0.70409068  0.75866074  1
  O  O141  1  0.59175852  0.71333711  0.75608049  1
  O  O142  1  0.26861991  0.84665149  0.75733125  1
  O  O143  1  0.76909684  0.84168904  0.76288944  1
loop_
_geom_bond_atom_site_label_1
_geom_bond_atom_site_label_2
_geom_bond_distance
_geom_bond_site_symmetry_2
Na0 O72 2.507061 1_655
Na0 O75 2.528265 1_555
Na0 O85 2.612450 1_565
Na0 O89 2.613443 1_555
Na0 O76 2.700116 1_665
Na0 O86 2.736492 1_665
Na1 O82 2.322896 1_555
Na1 O79 2.399327 1_565
Na1 O81 2.560418 1_555
Na1 O92 2.731296 1_566
Na1 O90 2.740875 1_556
Na1 O95 2.891411 1_566
Na2 O108 2.407614 1_555
Na2 O110 2.460105 1_555
Na2 O100 2.499456 1_555
Na2 O112 2.808450 1_555
Na2 O98 2.865038 1_555
Na2 O96 2.881389 1_555
Na3 O101 2.417771 1_555
Na3 O99 2.510141 1_555
Na3 O111 2.549627 1_555
Na3 O97 2.608426 1_555
Na3 O109 2.712631 1_555
Na3 O113 2.750149 1_555
Na4 O104 2.431753 1_555
Na4 O118 2.479341 1_555
Na4 O106 2.595384 1_555
Na4 O102 2.624786 1_555
Na4 O114 2.678919 1_555
Na4 O116 2.722739 1_555
Na5 O115 2.327704 1_555
Na5 O119 2.375591 1_555
Na5 O117 2.604729 1_555
Na5 O105 2.803505 1_555
Na5 O107 2.876072 1_555
Na5 O103 2.914473 1_555
Hf0 O4 1.959889 1_555
Hf0 O73 1.963686 1_545
Hf0 O74 2.080506 1_545
Hf0 O77 2.096391 1_555
Hf0 O2 2.172152 1_545
Hf0 O1 2.195985 1_555
Hf1 O9 1.956720 1_555
Hf1 O78 1.975622 1_665
Hf1 O83 2.089838 1_555
Hf1 O80 2.119172 1_655
Hf1 O11 2.131120 1_565
Hf1 O6 2.176816 1_665
Hf2 O17 1.918261 1_555
Hf2 O88 1.986183 1_555
Hf2 O15 1.992385 1_565
Hf2 O12 2.153328 1_555
Hf2 O87 2.163109 1_565
Hf2 O84 2.230392 1_565
Hf3 O93 1.948030 1_455
Hf3 O22 1.973254 1_545
Hf3 O94 2.090156 1_555
Hf3 O91 2.095012 1_445
Hf3 O19 2.143233 1_445
Hf3 O20 2.165328 1_555
Hf4 O28 1.909350 1_555
Hf4 O100 1.943914 1_555
Hf4 O24 2.111668 1_555
Hf4 O98 2.159637 1_555
Hf4 O96 2.175323 1_555
Hf4 O26 2.249817 1_555
Hf5 O33 1.874158 1_555
Hf5 O31 2.081004 1_555
Hf5 O35 2.091324 1_555
Hf5 O107 2.124892 1_555
Hf5 O105 2.142652 1_555
Hf5 O103 2.190587 1_555
Hf6 O48 1.902780 1_554
Hf6 O50 1.925102 1_554
Hf6 O120 2.132065 1_555
Hf6 O52 2.144706 1_554
Hf6 O124 2.218593 1_555
Hf6 O122 2.276103 1_555
Hf7 O123 1.936786 1_555
Hf7 O125 1.985904 1_555
Hf7 O51 1.994115 1_554
Hf7 O53 2.135938 1_554
Hf7 O121 2.171485 1_555
Hf7 O49 2.273103 1_554
Hf8 O130 1.919980 1_555
Hf8 O128 1.943297 1_555
Hf8 O58 2.009957 1_555
Hf8 O126 2.117427 1_555
Hf8 O56 2.208742 1_555
Hf8 O54 2.311687 1_555
Hf9 O59 1.935036 1_555
Hf9 O55 1.944679 1_555
Hf9 O127 2.087668 1_555
Hf9 O57 2.182627 1_555
Hf9 O129 2.198876 1_555
Hf9 O131 2.209124 1_555
Hf10 O61 1.921179 1_555
Hf10 O137 1.986226 1_555
Hf10 O63 2.003908 1_555
Hf10 O133 2.163987 1_555
Hf10 O65 2.170880 1_555
Hf10 O135 2.240719 1_555
Hf11 O66 1.934440 1_555
Hf11 O140 1.988334 1_555
Hf11 O70 1.999761 1_555
Hf11 O138 2.148656 1_555
Hf11 O142 2.182669 1_555
Hf11 O68 2.196492 1_555
O0 Si0 1.642864 1_555
O0 Sn0 1.960302 1_545
O1 S0 1.470505 1_555
O2 S1 1.477229 1_555
O3 S2 1.488166 1_555
O3 Sn0 2.173031 1_655
O4 Si1 1.631436 1_555
O5 S3 1.472958 1_655
O5 Sn0 2.270838 1_645
O6 S4 1.470935 1_555
O7 Si2 1.630182 1_555
O7 Sn1 1.989414 1_555
O8 Si4 1.620091 1_555
O8 Sn1 1.989377 1_565
O9 Si3 1.632035 1_655
O10 S5 1.484797 1_555
O10 Sn1 2.207410 1_555
O11 S6 1.482462 1_545
O12 S5 1.472060 1_565
O13 S6 1.496985 1_555
O13 Sn2 2.127190 1_555
O14 S4 1.487649 1_555
O14 Sn2 2.136904 1_445
O15 Si2 1.614577 1_555
O16 Si3 1.658309 1_555
O16 Sn2 1.920189 1_455
O17 Si4 1.620629 1_555
O18 S1 1.489013 1_555
O18 Sn3 2.167014 1_555
O19 S2 1.475795 1_555
O20 S3 1.469751 1_555
O21 Si1 1.656160 1_555
O21 Sn3 1.920915 1_545
O22 Si0 1.620458 1_565
O23 S0 1.478605 1_565
O23 Sn3 2.181183 1_555
O24 S7 1.486100 1_555
O25 Si5 1.611191 1_555
O25 Sn4 1.943577 1_555
O26 S8 1.462205 1_555
O27 S9 1.466234 1_555
O27 Sn4 2.229176 1_555
O28 Si6 1.648838 1_555
O29 S10 1.474738 1_555
O29 Sn4 2.167208 1_555
O30 Si7 1.622243 1_555
O30 Sn5 1.946040 1_555
O31 S11 1.499998 1_555
O32 S12 1.485598 1_555
O32 Sn5 2.139541 1_555
O33 Si8 1.671089 1_555
O34 S13 1.472170 1_555
O34 Sn5 2.224305 1_555
O35 S14 1.499294 1_555
O36 S13 1.480281 1_555
O36 Sn6 2.213756 1_554
O37 S14 1.485088 1_555
O37 Sn7 2.162336 1_554
O38 Si7 1.628023 1_555
O38 Sn6 1.961183 1_554
O39 S11 1.480115 1_555
O39 Sn7 2.167319 1_554
O40 S12 1.475622 1_555
O40 Sn6 2.249188 1_554
O41 Si8 1.625289 1_555
O41 Sn7 1.935579 1_554
O42 S8 1.507415 1_555
O42 Sn8 2.131827 1_555
O43 S9 1.497341 1_555
O43 Sn9 2.126273 1_555
O44 Si6 1.644768 1_555
O44 Sn8 1.919471 1_555
O45 S10 1.488514 1_555
O45 Sn9 2.214983 1_555
O46 S7 1.508547 1_555
O46 Sn8 2.109286 1_555
O47 Si5 1.633295 1_555
O47 Sn9 1.951826 1_555
O48 Si9 1.661184 1_555
O49 S15 1.458672 1_555
O50 Si10 1.644079 1_555
O51 Si11 1.626048 1_555
O52 S16 1.489028 1_555
O53 S17 1.482837 1_555
O54 S18 1.446154 1_555
O55 Si12 1.644875 1_555
O56 S19 1.461160 1_555
O57 S20 1.472327 1_555
O58 Si13 1.606129 1_555
O59 Si14 1.634594 1_555
O60 Si13 1.653022 1_555
O60 Sn10 1.954425 1_555
O61 Si14 1.634090 1_555
O62 S18 1.497223 1_555
O62 Sn10 2.161790 1_555
O63 Si12 1.614454 1_555
O64 S19 1.501680 1_555
O64 Sn10 2.220231 1_555
O65 S20 1.478853 1_555
O66 Si10 1.623521 1_555
O67 Si11 1.633249 1_555
O67 Sn11 1.958201 1_555
O68 S16 1.469411 1_555
O69 S17 1.469390 1_555
O69 Sn11 2.358411 1_555
O70 Si9 1.611745 1_555
O71 S15 1.470096 1_555
O71 Sn11 2.315741 1_555
O72 Si13 1.642099 1_555
O72 Sn0 1.990444 1_555
O73 Si14 1.623009 1_555
O74 S18 1.490548 1_555
O75 Si12 1.651126 1_555
O75 Sn0 1.988054 1_655
O76 S19 1.485725 1_555
O76 Sn0 2.205621 1_545
O77 S20 1.491563 1_555
O78 Si10 1.618314 1_555
O79 Si11 1.629964 1_555
O79 Sn1 2.036120 1_555
O80 S16 1.487531 1_555
O81 S17 1.470638 1_555
O81 Sn1 2.277031 1_565
O82 Si9 1.624952 1_555
O82 Sn1 2.044489 1_565
O83 S15 1.494868 1_555
O84 S7 1.450088 1_555
O85 Si5 1.658671 1_555
O85 Sn2 1.953256 1_545
O86 S8 1.489897 1_555
O86 Sn2 2.246873 1_445
O87 S9 1.460773 1_555
O88 Si6 1.600034 1_555
O89 S10 1.498519 1_555
O89 Sn2 2.234202 1_555
O90 Si7 1.664987 1_555
O90 Sn3 1.941969 1_555
O91 S11 1.473948 1_555
O92 S12 1.501187 1_555
O92 Sn3 2.192480 1_545
O93 Si8 1.615672 1_555
O94 S13 1.484966 1_555
O95 S14 1.480750 1_555
O95 Sn3 2.235637 1_545
O96 S5 1.487511 1_555
O97 S6 1.478981 1_545
O97 Sn4 2.241146 1_555
O98 S4 1.491647 1_555
O99 Si2 1.658665 1_555
O99 Sn4 1.956457 1_555
O100 Si4 1.670295 1_555
O101 Si3 1.636035 1_655
O101 Sn4 1.994292 1_555
O102 S1 1.478111 1_555
O102 Sn5 2.265667 1_555
O103 S2 1.495975 1_555
O104 Si1 1.639125 1_555
O104 Sn5 1.997510 1_555
O105 S3 1.516567 1_655
O106 Si0 1.644436 1_555
O106 Sn5 1.976825 1_555
O107 S0 1.512420 1_555
O108 Si9 1.653811 1_555
O108 Sn6 1.986595 1_555
O109 S15 1.509930 1_555
O109 Sn7 2.164121 1_555
O110 Si11 1.661984 1_555
O110 Sn6 1.973673 1_555
O111 Si10 1.651962 1_655
O111 Sn7 1.962013 1_555
O112 S16 1.472151 1_545
O112 Sn6 2.264594 1_555
O113 S17 1.515162 1_545
O113 Sn7 2.125901 1_555
O114 S18 1.495212 1_545
O114 Sn8 2.214420 1_555
O115 Si12 1.645745 1_545
O115 Sn9 2.010377 1_555
O116 S19 1.495430 1_555
O116 Sn8 2.250227 1_555
O117 S20 1.474774 1_555
O117 Sn9 2.296455 1_555
O118 Si14 1.650025 1_555
O118 Sn8 1.979441 1_555
O119 Si13 1.647485 1_655
O119 Sn9 1.993090 1_555
O120 S13 1.485510 1_555
O121 S14 1.458512 1_555
O122 S11 1.457324 1_455
O123 Si7 1.614749 1_555
O124 S12 1.472373 1_565
O125 Si8 1.595461 1_565
O126 S8 1.469200 1_565
O127 S9 1.493653 1_565
O128 Si6 1.610682 1_555
O129 S10 1.473911 1_555
O130 Si5 1.617769 1_455
O131 S7 1.472114 1_555
O132 Si0 1.636940 1_565
O132 Sn10 1.960509 1_555
O133 S0 1.462843 1_565
O134 S1 1.484108 1_555
O134 Sn10 2.137098 1_555
O135 S2 1.456984 1_555
O136 S3 1.479547 1_555
O136 Sn10 2.189244 1_555
O137 Si1 1.613007 1_555
O138 S4 1.463761 1_555
O139 Si2 1.633665 1_555
O139 Sn11 1.946559 1_555
O140 Si3 1.610683 1_555
O141 Si4 1.622638 1_555
O141 Sn11 1.948015 1_555
O142 S5 1.467031 1_565
O143 S6 1.458110 1_555
O143 Sn11 2.189013 1_555
