# generated using pymatgen
data_Na6Mg4Ta4Si5S7O48
_symmetry_space_group_name_H-M   'P 1'
_cell_length_a   17.76599441
_cell_length_b   8.89941386
_cell_length_c   22.77168933
_cell_angle_alpha   90.06022860
_cell_angle_beta   90.05918993
_cell_angle_gamma   120.13791161
_symmetry_Int_Tables_number   1
_chemical_formula_structural   Na6Mg4Ta4Si5S7O48
_chemical_formula_sum   'Na18 Mg12 Ta12 Si15 S21 O144'
_cell_volume   3113.65611963
_cell_formula_units_Z   3
loop_
 _symmetry_equiv_pos_site_id
 _symmetry_equiv_pos_as_xyz
  1  'x, y, z'
loop_
 _atom_site_type_symbol
 _atom_site_label
 _atom_site_symmetry_multiplicity
 _atom_site_fract_x
 _atom_site_fract_y
 _atom_site_fract_z
 _atom_site_occupancy
  Na  Na0  1  0.00111084  0.62072498  0.24988476  1
  Na  Na1  1  0.50082487  0.62311994  0.25016159  1
  Na  Na2  1  0.00131306  0.37283432  0.75018418  1
  Na  Na3  1  0.50132257  0.38036853  0.74988001  1
  Na  Na4  1  0.33083020  0.96800421  0.57902185  1
  Na  Na5  1  0.82997409  0.69347676  0.08260068  1
  Na  Na6  1  0.99107959  0.98039879  0.49512772  1
  Na  Na7  1  0.50256648  0.99893774  0.49805384  1
  Na  Na8  1  0.00332431  0.00446254  0.00282166  1
  Na  Na9  1  0.48979593  0.99753251  0.99966129  1
  Na  Na10  1  0.32740639  0.35002733  0.82832732  1
  Na  Na11  1  0.81725414  0.31574413  0.82533899  1
  Na  Na12  1  0.32733805  0.32131383  0.31870622  1
  Na  Na13  1  0.82471050  0.30337644  0.32581992  1
  Na  Na14  1  0.17381453  0.68196759  0.17080660  1
  Na  Na15  1  0.66691190  0.68284325  0.17215852  1
  Na  Na16  1  0.17695437  0.65135621  0.66446767  1
  Na  Na17  1  0.66948635  0.66040137  0.66890612  1
  Mg  Mg0  1  0.33150675  0.34660709  0.68501084  1
  Mg  Mg1  1  0.82417777  0.32204717  0.69107238  1
  Mg  Mg2  1  0.33050145  0.32589593  0.19429873  1
  Mg  Mg3  1  0.83065708  0.31622286  0.18522749  1
  Mg  Mg4  1  0.17322456  0.67523544  0.02130087  1
  Mg  Mg5  1  0.66239375  0.66532541  0.01799355  1
  Mg  Mg6  1  0.16542917  0.66352039  0.51548611  1
  Mg  Mg7  1  0.67045869  0.66852678  0.51891337  1
  Mg  Mg8  1  0.16670454  0.67689086  0.31036771  1
  Mg  Mg9  1  0.67152132  0.68456106  0.30931535  1
  Mg  Mg10  1  0.17704916  0.66132950  0.81309878  1
  Mg  Mg11  1  0.66524730  0.65668559  0.81037627  1
  Ta  Ta0  1  0.00276849  0.99904863  0.35727861  1
  Ta  Ta1  1  0.50010998  0.00082849  0.34675639  1
  Ta  Ta2  1  0.00132312  0.01143471  0.85073885  1
  Ta  Ta3  1  0.50300575  0.00605594  0.85792545  1
  Ta  Ta4  1  0.99743069  0.00786607  0.64795774  1
  Ta  Ta5  1  0.50352752  0.00702822  0.64197559  1
  Ta  Ta6  1  0.00390252  0.00025660  0.14248567  1
  Ta  Ta7  1  0.49779928  0.00027651  0.15195807  1
  Ta  Ta8  1  0.33778779  0.33857636  0.97704917  1
  Ta  Ta9  1  0.83651699  0.33203855  0.98623389  1
  Ta  Ta10  1  0.33884708  0.34437167  0.48392323  1
  Ta  Ta11  1  0.83484000  0.33389294  0.47432287  1
  Si  Si0  1  0.14737266  -0.00027627  0.25003243  1
  Si  Si1  1  0.65368763  0.01012006  0.24876140  1
  Si  Si2  1  0.34601987  0.69950757  0.25017193  1
  Si  Si3  1  0.50506228  0.30443698  0.24989730  1
  Si  Si4  1  0.15417505  0.30297345  0.74919737  1
  Si  Si5  1  0.64825833  0.29527723  0.75031546  1
  Si  Si6  1  0.84670579  0.99631676  0.75007984  1
  Si  Si7  1  0.48545804  0.35250918  0.58982635  1
  Si  Si8  1  0.32585105  0.62217317  0.58690291  1
  Si  Si9  1  0.98595526  0.62020155  0.08988724  1
  Si  Si10  1  0.82648275  0.02826900  0.08696081  1
  Si  Si11  1  0.30747536  0.66712058  0.91765034  1
  Si  Si12  1  0.52804569  0.38959628  0.91462430  1
  Si  Si13  1  0.80575399  0.93939235  0.41728243  1
  Si  Si14  1  0.02876622  0.66814730  0.41536107  1
  S  S0  1  0.85694322  0.71624856  0.24913629  1
  S  S1  1  0.99962651  0.28382974  0.25003500  1
  S  S2  1  0.00295474  0.71840918  0.74965510  1
  S  S3  1  0.49957910  0.71516681  0.74987651  1
  S  S4  1  0.35546401  0.99620585  0.74934440  1
  S  S5  1  0.97691091  0.33458960  0.58528051  1
  S  S6  1  0.18644217  0.04455519  0.58396184  1
  S  S7  1  0.69173067  0.04526614  0.58419853  1
  S  S8  1  0.83501947  0.62005621  0.58626998  1
  S  S9  1  0.47788727  0.62517722  0.08441083  1
  S  S10  1  0.33478988  0.04755993  0.08486039  1
  S  S11  1  0.19238583  0.33715105  0.08447722  1
  S  S12  1  0.68552223  0.32717389  0.08329969  1
  S  S13  1  0.81517170  0.66434369  0.91666440  1
  S  S14  1  0.01852850  0.37530099  0.91547012  1
  S  S15  1  0.16473349  0.95407757  0.91657057  1
  S  S16  1  0.67023895  0.96118683  0.91635173  1
  S  S17  1  0.31519552  0.96392770  0.41889287  1
  S  S18  1  0.16951323  0.37787536  0.41722819  1
  S  S19  1  0.66302812  0.37217706  0.41833364  1
  S  S20  1  0.52025112  0.66892667  0.41744016  1
  O  O0  1  0.09055862  0.01695655  0.30581172  1
  O  O1  1  0.59551818  0.01905060  0.30691119  1
  O  O2  1  0.41353986  0.81022138  0.30728677  1
  O  O3  1  0.91300973  0.81148495  0.30109497  1
  O  O4  1  0.49144373  0.17203625  0.30703346  1
  O  O5  1  0.98944589  0.17629559  0.30305380  1
  O  O6  1  0.09422830  0.17343234  0.80670930  1
  O  O7  1  0.59172921  0.16299839  0.80580082  1
  O  O8  1  0.48963907  0.80210517  0.80291864  1
  O  O9  1  0.99080127  0.80494773  0.80303855  1
  O  O10  1  0.41066701  0.01078358  0.80128522  1
  O  O11  1  0.91539774  0.01421312  0.80572383  1
  O  O12  1  0.39680622  0.97339506  0.69406809  1
  O  O13  1  0.90378510  0.97520235  0.69264384  1
  O  O14  1  0.08396564  0.18278487  0.69343840  1
  O  O15  1  0.58349545  0.17776523  0.69334636  1
  O  O16  1  0.01272244  0.82661751  0.69624663  1
  O  O17  1  0.50301468  0.81761264  0.69630666  1
  O  O18  1  0.40192442  0.83384644  0.19275449  1
  O  O19  1  0.89882330  0.82138912  0.19357819  1
  O  O20  1  0.00322270  0.18826564  0.19631994  1
  O  O21  1  0.51335879  0.19529312  0.19182242  1
  O  O22  1  0.08132228  0.98386616  0.19345653  1
  O  O23  1  0.58504358  0.98361407  0.19206020  1
  O  O24  1  0.43522173  0.34970564  0.64782844  1
  O  O25  1  0.93722320  0.35026762  0.63923189  1
  O  O26  1  0.23901098  0.12483427  0.63621040  1
  O  O27  1  0.74201159  0.12810521  0.63663357  1
  O  O28  1  0.30931815  0.50457996  0.64209855  1
  O  O29  1  0.83000674  0.52063548  0.63814863  1
  O  O30  1  0.43649007  0.52589891  0.13707113  1
  O  O31  1  0.93476354  0.52064220  0.14726943  1
  O  O32  1  0.32941490  0.13666447  0.13652785  1
  O  O33  1  0.81152574  0.11878806  0.14086709  1
  O  O34  1  0.24323625  0.35366680  0.13632983  1
  O  O35  1  0.73929373  0.35364108  0.13478636  1
  O  O36  1  0.22950260  0.30012705  0.03042295  1
  O  O37  1  0.73086893  0.30446182  0.02824028  1
  O  O38  1  0.42025501  0.53058396  0.03074479  1
  O  O39  1  0.91509582  0.52450655  0.03031275  1
  O  O40  1  0.34377668  0.15349064  0.03016510  1
  O  O41  1  0.84340657  0.16057989  0.02675149  1
  O  O42  1  0.22753268  0.15461674  0.52962846  1
  O  O43  1  0.73023583  0.15897865  0.53135080  1
  O  O44  1  0.34228410  0.52425727  0.52760180  1
  O  O45  1  0.84676079  0.53824789  0.53182196  1
  O  O46  1  0.41461956  0.30556724  0.53118305  1
  O  O47  1  0.92027860  0.30505383  0.53274693  1
  O  O48  1  0.27249331  0.70906147  0.97566937  1
  O  O49  1  0.78367021  0.69625187  0.97186085  1
  O  O50  1  0.07074076  0.45103549  0.96794096  1
  O  O51  1  0.58364663  0.46378511  0.97261281  1
  O  O52  1  0.14865770  0.85160441  0.96962263  1
  O  O53  1  0.65778194  0.86372652  0.97027694  1
  O  O54  1  0.27987781  0.86889896  0.47385917  1
  O  O55  1  0.77446425  0.83892352  0.47734737  1
  O  O56  1  0.15650073  0.45002664  0.47099888  1
  O  O57  1  0.65101778  0.44717097  0.47181774  1
  O  O58  1  0.08192497  0.70203952  0.47437238  1
  O  O59  1  0.57076407  0.68740673  0.47017857  1
  O  O60  1  0.05663777  0.62148336  0.35458973  1
  O  O61  1  0.55180599  0.63793822  0.36254106  1
  O  O62  1  0.26302224  0.88203209  0.36659179  1
  O  O63  1  0.75140647  0.87607887  0.35879990  1
  O  O64  1  0.18481001  0.47957216  0.36420069  1
  O  O65  1  0.67908272  0.47035279  0.36452811  1
  O  O66  1  0.05222103  0.46754285  0.86030766  1
  O  O67  1  0.55552021  0.48989076  0.85350635  1
  O  O68  1  0.17759522  0.88142599  0.86277128  1
  O  O69  1  0.68472215  0.88974346  0.86316714  1
  O  O70  1  0.25377501  0.61834756  0.85814576  1
  O  O71  1  0.76311908  0.64417574  0.86471818  1
  O  O72  1  0.00765434  0.83269953  0.40730994  1
  O  O73  1  0.50480855  0.82095551  0.41395755  1
  O  O74  1  0.40651949  0.99207828  0.41315455  1
  O  O75  1  0.91055799  0.99281031  0.40508332  1
  O  O76  1  0.08932526  0.19753562  0.41067621  1
  O  O77  1  0.58725909  0.18744898  0.41348449  1
  O  O78  1  0.00543065  0.18966519  0.91038822  1
  O  O79  1  0.50759919  0.18242490  0.90632029  1
  O  O80  1  0.08620326  0.98124048  0.90919230  1
  O  O81  1  0.58984973  0.98090974  0.91020728  1
  O  O82  1  0.41101292  0.82719904  0.90460323  1
  O  O83  1  0.90819814  0.81977640  0.90841349  1
  O  O84  1  0.48575129  0.15876787  0.59066775  1
  O  O85  1  0.98285390  0.16528345  0.58844902  1
  O  O86  1  0.09702317  0.02731106  0.58822302  1
  O  O87  1  0.60103019  0.02818121  0.58870025  1
  O  O88  1  0.42035089  0.81516012  0.59101386  1
  O  O89  1  0.91962526  0.79990837  0.58980456  1
  O  O90  1  0.48271676  0.80010388  0.08439403  1
  O  O91  1  0.98582366  0.81331627  0.08975133  1
  O  O92  1  0.41783878  0.03582573  0.08549960  1
  O  O93  1  0.92078238  0.02515100  0.08999587  1
  O  O94  1  0.10109313  0.17283685  0.08868163  1
  O  O95  1  0.59872240  0.16444988  0.08423479  1
  O  O96  1  0.35368216  0.15888817  0.74683063  1
  O  O97  1  0.85944371  0.18669210  0.74594302  1
  O  O98  1  0.24174022  0.29932029  0.74857109  1
  O  O99  1  0.74083421  0.30985188  0.74765737  1
  O  O100  1  0.42276465  0.53904633  0.74753846  1
  O  O101  1  0.92533494  0.54648517  0.74433901  1
  O  O102  1  0.35616420  0.53331682  0.24430414  1
  O  O103  1  0.85533070  0.55032513  0.24651614  1
  O  O104  1  0.41933678  0.31627272  0.24511229  1
  O  O105  1  0.92285919  0.30563842  0.24747825  1
  O  O106  1  0.23660735  0.17403956  0.24643224  1
  O  O107  1  0.74201641  0.18977139  0.24732216  1
  O  O108  1  0.32318377  0.49494299  0.93094039  1
  O  O109  1  0.82617985  0.50619461  0.92186858  1
  O  O110  1  0.42377032  0.34288206  0.92951992  1
  O  O111  1  0.92693526  0.34626630  0.92290295  1
  O  O112  1  0.24202605  0.13686058  0.92498400  1
  O  O113  1  0.74563443  0.14803404  0.92334768  1
  O  O114  1  0.32479743  0.14412543  0.42496356  1
  O  O115  1  0.82318089  0.14897093  0.43094365  1
  O  O116  1  0.24483395  0.34231395  0.42527102  1
  O  O117  1  0.74314638  0.34742020  0.42753482  1
  O  O118  1  0.42747832  0.50597956  0.42555942  1
  O  O119  1  0.92434673  0.50353823  0.43067146  1
  O  O120  1  0.17830165  0.48309020  0.07617490  1
  O  O121  1  0.67772674  0.48127759  0.07383975  1
  O  O122  1  0.07893793  0.64830918  0.07519353  1
  O  O123  1  0.56435022  0.64813352  0.07550293  1
  O  O124  1  0.25921912  0.87366038  0.07908366  1
  O  O125  1  0.75189082  0.83148111  0.07346348  1
  O  O126  1  0.17624226  0.87174469  0.57614760  1
  O  O127  1  0.67789275  0.87115646  0.57616446  1
  O  O128  1  0.25137856  0.67131386  0.57448858  1
  O  O129  1  0.76109934  0.64777788  0.58077896  1
  O  O130  1  0.06503091  0.47918763  0.57747385  1
  O  O131  1  0.57975935  0.50940875  0.57657290  1
  O  O132  1  0.14149253  0.81494846  0.25110656  1
  O  O133  1  0.64773226  0.82551119  0.25059795  1
  O  O134  1  0.25541264  0.68956149  0.25515446  1
  O  O135  1  0.77167106  0.69907792  0.25317418  1
  O  O136  1  0.08061609  0.45073935  0.25211891  1
  O  O137  1  0.59309459  0.48522166  0.25579569  1
  O  O138  1  0.14457671  0.47299351  0.75012760  1
  O  O139  1  0.64302963  0.46944444  0.75077993  1
  O  O140  1  0.08206864  0.70712236  0.75581081  1
  O  O141  1  0.58051118  0.71012082  0.75172847  1
  O  O142  1  0.26827899  0.84370761  0.75315169  1
  O  O143  1  0.75610318  0.82648164  0.75466235  1
loop_
_geom_bond_atom_site_label_1
_geom_bond_atom_site_label_2
_geom_bond_distance
_geom_bond_site_symmetry_2
Na0 O132 2.208955 1_555
Na0 O103 2.340135 1_455
Na0 O105 2.425612 1_455
Na0 O136 2.536117 1_555
Na0 O31 2.564893 1_455
Na0 O60 2.578092 1_555
Na1 O102 2.279947 1_555
Na1 O133 2.309876 1_555
Na1 O104 2.365442 1_555
Na1 O137 2.495937 1_555
Na1 O61 2.694650 1_555
Na1 O30 2.771849 1_555
Na2 O97 2.216455 1_455
Na2 O138 2.234844 1_555
Na2 O101 2.514507 1_455
Na2 O140 2.576444 1_555
Na2 O66 2.653740 1_555
Na2 O25 2.735638 1_455
Na3 O139 2.227731 1_555
Na3 O96 2.361704 1_555
Na3 O100 2.433912 1_555
Na3 O141 2.539047 1_555
Na3 O67 2.548255 1_555
Na3 O24 2.554455 1_555
Na4 O128 2.287196 1_555
Na4 O84 2.415215 1_565
Na4 O126 2.432671 1_555
Na4 O54 2.553707 1_555
Na4 O88 2.574190 1_555
Na4 O46 2.819048 1_565
Na4 O12 2.859449 1_555
Na4 O26 2.931161 1_565
Na5 O125 2.277463 1_555
Na5 O121 2.406451 1_555
Na5 O91 2.421521 1_555
Na5 O93 2.561295 1_565
Na5 O49 2.655696 1_554
Na5 O19 2.787081 1_555
Na5 O39 2.872178 1_555
Na5 O35 2.876307 1_555
Na6 O72 2.489549 1_655
Na6 O75 2.533012 1_555
Na6 O89 2.608655 1_555
Na6 O76 2.665864 1_665
Na6 O86 2.722481 1_665
Na6 O85 2.734832 1_565
Na7 O73 2.496970 1_555
Na7 O77 2.503019 1_565
Na7 O74 2.557618 1_555
Na7 O88 2.627599 1_555
Na7 O87 2.631133 1_565
Na7 O84 2.642332 1_565
Na8 O91 2.527091 1_445
Na8 O93 2.530088 1_455
Na8 O94 2.541320 1_555
Na8 O80 2.658518 1_544
Na8 O78 2.663443 1_554
Na8 O83 2.715719 1_444
Na9 O92 2.452028 1_566
Na9 O90 2.571302 1_556
Na9 O95 2.600045 1_566
Na9 O82 2.607458 1_555
Na9 O79 2.609888 1_565
Na9 O81 2.757161 1_555
Na10 O98 2.263048 1_555
Na10 O100 2.497100 1_555
Na10 O108 2.687021 1_555
Na10 O96 2.710718 1_555
Na10 O112 2.805420 1_555
Na10 O110 2.889011 1_555
Na11 O99 2.213265 1_555
Na11 O97 2.452037 1_555
Na11 O113 2.633159 1_555
Na11 O101 2.713264 1_555
Na11 O109 2.729691 1_555
Na11 O111 2.874895 1_555
Na12 O106 2.212075 1_555
Na12 O104 2.358192 1_555
Na12 O102 2.393888 1_555
Na12 O114 2.877515 1_555
Na12 O116 2.890252 1_555
Na12 O118 2.972080 1_555
Na13 O107 2.207951 1_555
Na13 O105 2.488923 1_555
Na13 O103 2.682698 1_555
Na13 O115 2.754812 1_555
Na13 O117 2.862461 1_555
Na13 O119 2.970413 1_555
Na14 O134 2.385574 1_555
Na14 O132 2.398746 1_555
Na14 O124 2.643841 1_555
Na14 O136 2.645278 1_555
Na14 O122 2.674967 1_555
Na14 O120 2.813643 1_555
Na15 O133 2.312915 1_555
Na15 O137 2.477185 1_555
Na15 O135 2.571110 1_555
Na15 O125 2.662329 1_555
Na15 O123 2.772192 1_555
Na15 O121 2.933570 1_555
Na16 O138 2.397365 1_555
Na16 O128 2.397635 1_555
Na16 O142 2.614969 1_555
Na16 O130 2.674314 1_555
Na16 O126 2.815145 1_555
Na16 O140 2.873977 1_555
Na17 O139 2.406509 1_555
Na17 O143 2.463707 1_555
Na17 O131 2.569784 1_555
Na17 O129 2.622753 1_555
Na17 O141 2.637852 1_555
Na17 O127 2.779913 1_555
Mg0 O28 1.909278 1_555
Mg0 O24 2.016208 1_555
Mg0 O98 2.036534 1_555
Mg0 O26 2.136684 1_555
Mg0 O100 2.188803 1_555
Mg0 O96 2.364849 1_555
Mg1 O99 1.925458 1_555
Mg1 O27 2.026920 1_555
Mg1 O97 2.040639 1_555
Mg1 O29 2.099408 1_555
Mg1 O25 2.233652 1_555
Mg1 O101 2.253090 1_555
Mg2 O106 1.939610 1_555
Mg2 O104 1.992302 1_555
Mg2 O102 2.015281 1_555
Mg2 O32 2.128306 1_555
Mg2 O34 2.142060 1_555
Mg2 O30 2.248648 1_555
Mg3 O33 1.902382 1_555
Mg3 O107 1.993525 1_555
Mg3 O31 2.026173 1_555
Mg3 O35 2.145835 1_555
Mg3 O105 2.202727 1_555
Mg3 O103 2.357115 1_555
Mg4 O48 1.937009 1_554
Mg4 O122 1.992799 1_555
Mg4 O124 2.113201 1_555
Mg4 O120 2.157022 1_555
Mg4 O52 2.174779 1_554
Mg4 O50 2.261617 1_554
Mg5 O51 1.927570 1_554
Mg5 O125 1.985239 1_555
Mg5 O53 2.110459 1_554
Mg5 O123 2.123666 1_555
Mg5 O121 2.196800 1_555
Mg5 O49 2.287234 1_554
Mg6 O58 1.924419 1_555
Mg6 O128 2.007712 1_555
Mg6 O56 2.086696 1_555
Mg6 O54 2.156220 1_555
Mg6 O130 2.221924 1_555
Mg6 O126 2.239544 1_555
Mg7 O55 1.950040 1_555
Mg7 O131 2.010643 1_555
Mg7 O57 2.112263 1_555
Mg7 O59 2.166114 1_555
Mg7 O127 2.173584 1_555
Mg7 O129 2.215029 1_555
Mg8 O134 1.975650 1_555
Mg8 O132 2.021412 1_555
Mg8 O60 2.029250 1_555
Mg8 O62 2.180332 1_555
Mg8 O136 2.246867 1_555
Mg8 O64 2.293629 1_555
Mg9 O63 1.937169 1_555
Mg9 O133 2.018566 1_555
Mg9 O137 2.020802 1_555
Mg9 O135 2.142676 1_555
Mg9 O61 2.298907 1_555
Mg9 O65 2.344088 1_555
Mg10 O70 1.891603 1_555
Mg10 O138 2.054404 1_555
Mg10 O142 2.119528 1_555
Mg10 O68 2.256635 1_555
Mg10 O66 2.283930 1_555
Mg10 O140 2.324311 1_555
Mg11 O143 2.014307 1_555
Mg11 O67 2.017298 1_555
Mg11 O139 2.026793 1_555
Mg11 O71 2.181127 1_555
Mg11 O141 2.234295 1_555
Mg11 O69 2.267144 1_555
O0 Si0 1.677315 1_555
O0 Ta0 1.893706 1_545
O1 Si1 1.706698 1_555
O1 Ta1 1.857453 1_555
O2 Si2 1.705446 1_555
O2 Ta1 1.850635 1_565
O3 S0 1.502716 1_555
O3 Ta0 2.069885 1_655
O4 Si3 1.690365 1_555
O4 Ta1 1.844346 1_555
O5 S1 1.495077 1_555
O5 Ta0 2.108862 1_645
O6 Si4 1.718025 1_555
O6 Ta2 1.850678 1_555
O7 Si5 1.676127 1_555
O7 Ta3 1.908106 1_555
O8 S3 1.491441 1_555
O8 Ta3 2.116970 1_565
O9 S2 1.510978 1_655
O9 Ta2 2.059630 1_665
O10 S4 1.499053 1_545
O10 Ta3 2.102759 1_555
O11 Si6 1.709228 1_545
O11 Ta2 1.848365 1_655
O12 S4 1.521903 1_555
O12 Ta5 2.127703 1_565
O13 Si6 1.722747 1_555
O13 Ta4 1.845636 1_565
O14 Si4 1.722287 1_555
O14 Ta4 1.857293 1_455
O15 Si5 1.698892 1_555
O15 Ta5 1.876360 1_555
O16 S2 1.507216 1_555
O16 Ta4 2.080362 1_465
O17 S3 1.506535 1_555
O17 Ta5 2.088373 1_565
O18 Si2 1.714324 1_555
O18 Ta7 1.852266 1_565
O19 S0 1.528091 1_555
O19 Ta6 2.096889 1_665
O20 S1 1.508670 1_455
O20 Ta6 2.078095 1_555
O21 Si3 1.689839 1_555
O21 Ta7 1.851207 1_555
O22 Si0 1.699087 1_565
O22 Ta6 1.859795 1_565
O23 Si1 1.708006 1_565
O23 Ta7 1.867220 1_565
O24 Si7 1.588032 1_555
O25 S5 1.458152 1_555
O26 S6 1.457447 1_555
O27 S7 1.449769 1_555
O28 Si8 1.567199 1_555
O29 S8 1.452477 1_555
O30 S9 1.452946 1_555
O31 Si9 1.585979 1_555
O32 S10 1.447938 1_555
O33 Si10 1.562031 1_555
O34 S11 1.447780 1_555
O35 S12 1.453909 1_555
O36 S11 1.509148 1_555
O36 Ta8 2.154061 1_554
O37 S12 1.557872 1_555
O37 Ta9 2.009924 1_554
O38 S9 1.542788 1_555
O38 Ta8 2.009838 1_554
O39 Si9 1.751553 1_555
O39 Ta9 1.866176 1_554
O40 S10 1.522246 1_555
O40 Ta8 2.089816 1_554
O41 Si10 1.733622 1_555
O41 Ta9 1.839799 1_554
O42 S6 1.519712 1_555
O42 Ta10 2.121401 1_555
O43 S7 1.499804 1_555
O43 Ta11 2.160442 1_555
O44 Si8 1.709359 1_555
O44 Ta10 1.858548 1_555
O45 S8 1.503990 1_555
O45 Ta11 2.162027 1_555
O46 Si7 1.734678 1_555
O46 Ta10 1.885265 1_555
O47 S5 1.497918 1_555
O47 Ta11 2.127825 1_555
O48 Si11 1.582627 1_555
O49 S13 1.460813 1_555
O50 S14 1.452788 1_555
O51 Si12 1.579859 1_555
O52 S15 1.454023 1_555
O53 S16 1.455751 1_555
O54 S17 1.465127 1_555
O55 Si13 1.576172 1_555
O56 S18 1.453620 1_555
O57 S19 1.454689 1_555
O58 Si14 1.580869 1_555
O59 S20 1.457331 1_555
O60 Si14 1.593559 1_555
O61 S20 1.452296 1_555
O62 S17 1.458189 1_555
O63 Si13 1.572499 1_555
O64 S18 1.451575 1_555
O65 S19 1.448678 1_555
O66 S14 1.456148 1_555
O67 Si12 1.593249 1_555
O68 S15 1.455468 1_555
O69 S16 1.449320 1_555
O70 Si11 1.585855 1_555
O71 S13 1.455091 1_555
O72 Si14 1.694340 1_555
O72 Ta0 1.905131 1_555
O73 S20 1.511621 1_555
O73 Ta1 2.247276 1_565
O74 S17 1.518080 1_555
O74 Ta1 2.220876 1_565
O75 Si13 1.697799 1_555
O75 Ta0 1.945338 1_655
O76 S18 1.526662 1_555
O76 Ta0 2.056081 1_545
O77 S19 1.517885 1_555
O77 Ta1 2.207288 1_555
O78 S14 1.552521 1_555
O78 Ta2 2.060400 1_555
O79 Si12 1.701046 1_555
O79 Ta3 1.884747 1_555
O80 S15 1.539942 1_555
O80 Ta2 2.126381 1_565
O81 S16 1.530192 1_555
O81 Ta3 2.047292 1_565
O82 Si11 1.694684 1_555
O82 Ta3 1.931158 1_565
O83 S13 1.544568 1_555
O83 Ta2 2.132339 1_665
O84 Si7 1.726932 1_555
O84 Ta5 1.928518 1_555
O85 S5 1.564141 1_555
O85 Ta4 2.057562 1_555
O86 S6 1.520596 1_555
O86 Ta4 2.169998 1_455
O87 S7 1.544194 1_555
O87 Ta5 2.045780 1_555
O88 Si8 1.697354 1_555
O88 Ta5 1.975988 1_565
O89 S8 1.552828 1_555
O89 Ta4 2.124065 1_565
O90 S9 1.515484 1_555
O90 Ta7 2.264164 1_565
O91 Si9 1.719789 1_555
O91 Ta6 1.942008 1_665
O92 S10 1.530600 1_555
O92 Ta7 2.203698 1_555
O93 Si10 1.690773 1_555
O93 Ta6 1.995968 1_655
O94 S11 1.548253 1_555
O94 Ta6 2.046164 1_555
O95 S12 1.494415 1_555
O95 Ta7 2.260019 1_555
O96 S4 1.465104 1_545
O97 Si6 1.595579 1_545
O98 Si4 1.572336 1_555
O99 Si5 1.584784 1_555
O100 S3 1.474328 1_555
O101 S2 1.462132 1_655
O102 Si2 1.582742 1_555
O103 S0 1.463600 1_555
O104 Si3 1.582170 1_555
O105 S1 1.472007 1_555
O106 Si0 1.567650 1_555
O107 Si1 1.581332 1_555
O108 Si11 1.716845 1_555
O108 Ta8 1.863142 1_555
O109 S13 1.519824 1_555
O109 Ta9 2.207762 1_555
O110 Si12 1.716995 1_555
O110 Ta8 1.857705 1_555
O111 S14 1.523740 1_655
O111 Ta9 2.115937 1_555
O112 S15 1.524517 1_545
O112 Ta8 2.108842 1_555
O113 S16 1.531986 1_545
O113 Ta9 2.162057 1_555
O114 S17 1.531241 1_545
O114 Ta10 2.142033 1_555
O115 Si13 1.757854 1_545
O115 Ta11 1.838713 1_555
O116 S18 1.532713 1_555
O116 Ta10 2.130377 1_555
O117 S19 1.559758 1_555
O117 Ta11 1.999251 1_555
O118 S20 1.566768 1_555
O118 Ta10 2.012092 1_555
O119 Si14 1.726990 1_655
O119 Ta11 1.841661 1_555
O120 S11 1.453243 1_555
O121 S12 1.462088 1_555
O122 Si9 1.577904 1_455
O123 S9 1.458798 1_555
O124 S10 1.458658 1_565
O125 Si10 1.607857 1_565
O126 S6 1.466010 1_565
O127 S7 1.453126 1_565
O128 Si8 1.613138 1_555
O129 S8 1.458160 1_555
O130 S5 1.454832 1_455
O131 Si7 1.581284 1_555
O132 Si0 1.594718 1_565
O133 Si1 1.593017 1_565
O134 Si2 1.571385 1_555
O135 S0 1.447314 1_555
O136 S1 1.460310 1_455
O137 Si3 1.589006 1_555
O138 Si4 1.605605 1_555
O139 Si5 1.598671 1_555
O140 S2 1.465150 1_555
O141 S3 1.461469 1_555
O142 S4 1.462253 1_555
O143 Si6 1.563314 1_555
