# generated using pymatgen
data_MgCo4(HgO4)2
_symmetry_space_group_name_H-M   'P 1'
_cell_length_a   7.09777854
_cell_length_b   7.19042251
_cell_length_c   6.29852662
_cell_angle_alpha   52.50766365
_cell_angle_beta   102.24067750
_cell_angle_gamma   129.99702653
_symmetry_Int_Tables_number   1
_chemical_formula_structural   MgCo4(HgO4)2
_chemical_formula_sum   'Mg1 Co4 Hg2 O8'
_cell_volume   186.70522339
_cell_formula_units_Z   1
loop_
 _symmetry_equiv_pos_site_id
 _symmetry_equiv_pos_as_xyz
  1  'x, y, z'
loop_
 _atom_site_type_symbol
 _atom_site_label
 _atom_site_symmetry_multiplicity
 _atom_site_fract_x
 _atom_site_fract_y
 _atom_site_fract_z
 _atom_site_occupancy
  Mg  Mg0  1  0.16295535  0.89077305  0.95954316  1
  Co  Co0  1  0.63163309  0.27721029  0.09087081  1
  Co  Co1  1  0.65384449  0.24160984  0.57173465  1
  Co  Co2  1  0.62682028  0.75631878  0.62062495  1
  Co  Co3  1  0.15115579  0.75880868  0.59182611  1
  Hg  Hg0  1  0.88084596  -0.00210872  0.08605581  1
  Hg  Hg1  1  0.26147414  0.42704289  0.34337725  1
  O  O0  1  0.82123144  0.18289470  0.43464024  1
  O  O1  1  0.81274482  0.29180436  0.85088860  1
  O  O2  1  0.96727593  0.71986647  0.30136524  1
  O  O3  1  0.44412594  0.25660990  0.33257238  1
  O  O4  1  0.40581481  0.78734804  0.41090950  1
  O  O5  1  0.43154380  0.34306230  0.78598624  1
  O  O6  1  0.88975203  0.76709573  0.77153516  1
  O  O7  1  0.33447614  0.80166368  0.87237589  1
loop_
_geom_bond_atom_site_label_1
_geom_bond_atom_site_label_2
_geom_bond_distance
_geom_bond_site_symmetry_2
Mg0 O7 1.976982 1_555
Mg0 O2 1.981833 1_456
Mg0 O5 1.997977 1_565
Mg0 O6 2.011166 1_455
Co0 O1 2.098969 1_554
Co0 O3 2.107605 1_555
Co0 O6 2.109976 1_554
Co0 O4 2.123332 1_545
Co0 O5 2.128360 1_554
Co0 O0 2.260371 1_555
Co1 O3 1.885289 1_555
Co1 O0 1.964426 1_555
Co1 O1 1.975373 1_555
Co1 O7 2.010316 1_545
Co1 O2 2.078014 1_555
Co2 O5 1.840078 1_555
Co2 O4 1.862188 1_555
Co2 O6 1.882516 1_555
Co2 O0 1.885507 1_565
Co3 O7 2.020623 1_555
Co3 O2 2.066422 1_455
Co3 O1 2.081203 1_455
Co3 O3 2.135249 1_565
Co3 O4 2.172465 1_555
Co3 O6 2.417015 1_455
Hg0 O1 2.023092 1_554
Hg0 O2 2.033573 1_545
Hg1 O3 2.316985 1_555
Hg1 O7 2.335623 1_554
Hg1 O0 2.378630 1_455
Hg1 O4 2.384781 1_555
