# generated using pymatgen
data_MgFe6O11F
_symmetry_space_group_name_H-M   'P 1'
_cell_length_a   7.10136660
_cell_length_b   5.90519849
_cell_length_c   5.74577725
_cell_angle_alpha   81.63754811
_cell_angle_beta   74.22698384
_cell_angle_gamma   68.98134454
_symmetry_Int_Tables_number   1
_chemical_formula_structural   MgFe6O11F
_chemical_formula_sum   'Mg1 Fe6 O11 F1'
_cell_volume   216.13977041
_cell_formula_units_Z   1
loop_
 _symmetry_equiv_pos_site_id
 _symmetry_equiv_pos_as_xyz
  1  'x, y, z'
loop_
 _atom_site_type_symbol
 _atom_site_label
 _atom_site_symmetry_multiplicity
 _atom_site_fract_x
 _atom_site_fract_y
 _atom_site_fract_z
 _atom_site_occupancy
  Mg  Mg0  1  0.49024100  0.50839932  0.00102468  1
  Fe  Fe0  1  0.83992171  0.66562143  0.68251329  1
  Fe  Fe1  1  0.66549995  0.25757393  0.41690554  1
  Fe  Fe2  1  0.32776205  0.73920994  0.57749835  1
  Fe  Fe3  1  0.14759569  0.32454825  0.36616325  1
  Fe  Fe4  1  0.50691308  0.99529765  0.00204012  1
  Fe  Fe5  1  0.99998264  0.05753041  0.96137011  1
  O  O0  1  0.65066992  -0.00691545  0.64989527  1
  O  O1  1  0.29792886  0.87460004  0.91318758  1
  O  O2  1  0.96040929  0.20378441  0.26149749  1
  O  O3  1  0.60210742  0.52313945  0.62667474  1
  O  O4  1  0.03491653  0.81591386  0.74755128  1
  O  O5  1  0.37463088  0.46512577  0.37576342  1
  O  O6  1  0.69376517  0.15414111  0.08093260  1
  O  O7  1  0.34908555  0.00502556  0.34767884  1
  O  O8  1  0.69289476  0.66700851  0.00631689  1
  O  O9  1  0.00914227  0.32989239  0.71265155  1
  O  O10  1  0.97222597  0.64884012  0.36028287  1
  F  F0  1  0.30097226  0.34268930  0.98148113  1
loop_
_geom_bond_atom_site_label_1
_geom_bond_atom_site_label_2
_geom_bond_distance
_geom_bond_site_symmetry_2
Mg0 O8 1.987015 1_555
Mg0 O3 2.081192 1_554
Mg0 O5 2.098778 1_555
Mg0 O6 2.142077 1_555
Mg0 O1 2.175983 1_554
Fe0 O10 1.833400 1_555
Fe0 O8 1.869197 1_556
Fe0 O9 1.925828 1_655
Fe0 O0 1.935951 1_565
Fe0 O4 2.025874 1_655
Fe0 O3 2.248403 1_555
Fe1 O0 1.917242 1_555
Fe1 O3 1.965467 1_555
Fe1 O2 1.967946 1_555
Fe1 O6 2.045546 1_555
Fe1 O5 2.046892 1_555
Fe2 O7 1.920797 1_565
Fe2 O4 1.957794 1_555
Fe2 O3 1.978552 1_555
Fe2 O5 2.005861 1_555
Fe2 O1 2.123495 1_555
Fe3 O10 1.874194 1_455
Fe3 O7 1.912536 1_555
Fe3 O9 1.965456 1_555
Fe3 O2 1.968900 1_455
Fe3 O5 2.076852 1_555
Fe4 O8 1.915791 1_555
Fe4 O7 1.995101 1_565
Fe4 O0 2.002858 1_564
Fe4 O6 2.046831 1_565
Fe4 O1 2.060980 1_554
Fe5 O4 1.922730 1_645
Fe5 O2 1.947896 1_556
Fe5 O1 1.961952 1_645
Fe5 O6 1.984452 1_556
Fe5 O9 1.997312 1_655
F0 Mg0 1.958106 1_556
F0 Fe4 2.057274 1_546
F0 Fe3 2.188432 1_556
