# generated using pymatgen
data_Cs4BiSbCl12
_symmetry_space_group_name_H-M   'P 1'
_cell_length_a   13.31879417
_cell_length_b   13.31879417
_cell_length_c   13.31879417
_cell_angle_alpha   131.95358996
_cell_angle_beta   131.95358996
_cell_angle_gamma   70.30233639
_symmetry_Int_Tables_number   1
_chemical_formula_structural   Cs4BiSbCl12
_chemical_formula_sum   'Cs8 Bi2 Sb2 Cl24'
_cell_volume   1280.65143233
_cell_formula_units_Z   2
loop_
 _symmetry_equiv_pos_site_id
 _symmetry_equiv_pos_as_xyz
  1  'x, y, z'
loop_
 _atom_site_type_symbol
 _atom_site_label
 _atom_site_symmetry_multiplicity
 _atom_site_fract_x
 _atom_site_fract_y
 _atom_site_fract_z
 _atom_site_occupancy
  Cs  Cs0  1  0.37500000  0.84463800  0.96963800  1
  Cs  Cs1  1  0.59463800  0.62500000  0.46963800  1
  Cs  Cs2  1  0.87500000  0.84463800  0.46963800  1
  Cs  Cs3  1  0.59463800  0.12500000  0.96963800  1
  Cs  Cs4  1  0.87500000  0.40536200  0.03036200  1
  Cs  Cs5  1  0.15536200  0.12500000  0.53036200  1
  Cs  Cs6  1  0.37500000  0.40536200  0.53036200  1
  Cs  Cs7  1  0.15536200  0.62500000  0.03036200  1
  Bi  Bi0  1  0.50000000  0.50000000  0.00000000  1
  Bi  Bi1  1  0.25000000  0.75000000  0.50000000  1
  Sb  Sb0  1  0.00000000  0.00000000  0.00000000  1
  Sb  Sb1  1  0.75000000  0.25000000  0.50000000  1
  Cl  Cl0  1  0.74740900  0.49549200  0.25191700  1
  Cl  Cl1  1  0.50450800  0.25259100  0.74808300  1
  Cl  Cl2  1  0.37463900  0.37463900  0.00000000  1
  Cl  Cl3  1  0.12463900  0.62463900  0.50000000  1
  Cl  Cl4  1  0.37536100  0.87536100  0.50000000  1
  Cl  Cl5  1  0.62536100  0.62536100  0.00000000  1
  Cl  Cl6  1  0.11107300  0.11107300  0.00000000  1
  Cl  Cl7  1  0.86107300  0.36107300  0.50000000  1
  Cl  Cl8  1  0.63892700  0.13892700  0.50000000  1
  Cl  Cl9  1  0.88892700  0.88892700  0.00000000  1
  Cl  Cl10  1  0.22394500  0.00049900  0.22344600  1
  Cl  Cl11  1  0.75049900  0.02705300  0.27655400  1
  Cl  Cl12  1  0.50450800  0.75642400  0.25191700  1
  Cl  Cl13  1  0.52605500  0.24950100  0.27655400  1
  Cl  Cl14  1  0.97294700  0.24950100  0.72344600  1
  Cl  Cl15  1  0.99950100  0.22294700  0.22344600  1
  Cl  Cl16  1  0.99950100  0.77605500  0.77655400  1
  Cl  Cl17  1  0.77705300  0.00049900  0.77655400  1
  Cl  Cl18  1  0.75049900  0.47394500  0.72344600  1
  Cl  Cl19  1  0.24549200  0.49357600  0.24808300  1
  Cl  Cl20  1  0.24549200  0.99740900  0.75191700  1
  Cl  Cl21  1  0.00259100  0.75450800  0.24808300  1
  Cl  Cl22  1  0.50642400  0.75450800  0.75191700  1
  Cl  Cl23  1  0.24357600  0.49549200  0.74808300  1
loop_
_geom_bond_atom_site_label_1
_geom_bond_atom_site_label_2
_geom_bond_distance
_geom_bond_site_symmetry_2
Bi0 Cl5 2.730344 1_555
Bi0 Cl2 2.730344 1_555
Bi0 Cl12 2.733631 1_555
Bi0 Cl23 2.733631 1_554
Bi0 Cl0 2.733637 1_555
Bi0 Cl1 2.733637 1_554
Bi1 Cl4 2.730344 1_555
Bi1 Cl3 2.730344 1_555
Bi1 Cl22 2.733631 1_555
Bi1 Cl19 2.733631 1_555
Bi1 Cl20 2.733637 1_555
Bi1 Cl21 2.733637 1_555
Cl0 Cs4 3.691841 1_555
Cl0 Cs2 3.691841 1_555
Cl0 Cs1 3.789386 1_555
Cl0 Cs3 3.789386 1_554
Cl1 Cs5 3.691841 1_555
Cl1 Cs3 3.691841 1_555
Cl1 Cs6 3.789386 1_555
Cl1 Cs4 3.789386 1_556
Cl2 Cs5 3.608760 1_554
Cl2 Cs7 3.608760 1_555
Cl2 Cs1 3.608760 1_555
Cl2 Cs3 3.608760 1_554
Cl3 Cs6 3.608760 1_555
Cl3 Cs0 3.608760 1_555
Cl3 Cs4 3.608760 1_455
Cl3 Cs2 3.608760 1_455
Cl4 Cs1 3.608760 1_555
Cl4 Cs7 3.608760 1_555
Cl4 Cs5 3.608760 1_565
Cl4 Cs3 3.608760 1_565
Cl5 Cs2 3.608760 1_555
Cl5 Cs6 3.608760 1_554
Cl5 Cs4 3.608760 1_555
Cl5 Cs0 3.608760 1_554
Cl6 Sb0 2.419153 1_555
Cl6 Cs0 4.084808 1_544
Cl6 Cs2 4.084808 1_444
Cl6 Cs6 4.084808 1_555
Cl6 Cs4 4.084808 1_455
Cl7 Sb1 2.419153 1_555
Cl7 Cs5 4.084808 1_655
Cl7 Cs1 4.084808 1_555
Cl7 Cs3 4.084808 1_554
Cl7 Cs7 4.084808 1_656
Cl8 Sb1 2.419153 1_555
Cl8 Cs4 4.084808 1_556
Cl8 Cs2 4.084808 1_545
Cl8 Cs6 4.084808 1_555
Cl8 Cs0 4.084808 1_544
Cl9 Sb0 2.419153 1_665
Cl9 Cs7 4.084808 1_655
Cl9 Cs1 4.084808 1_554
Cl9 Cs5 4.084808 1_665
Cl9 Cs3 4.084808 1_564
Cl10 Sb0 2.423148 1_555
Cl10 Cs5 3.898991 1_555
Cl10 Cs7 3.898991 1_545
Cl10 Cs6 4.084046 1_555
Cl10 Cs0 4.084046 1_544
Cl11 Sb1 2.423148 1_555
Cl11 Cs0 3.898991 1_544
Cl11 Cs2 3.898991 1_545
Cl11 Cs3 4.084046 1_554
Cl11 Cs5 4.084046 1_655
Cl12 Cs1 3.691829 1_555
Cl12 Cs7 3.691836 1_555
Cl12 Cs2 3.789389 1_555
Cl12 Cs0 3.789397 1_554
Cl13 Sb1 2.423148 1_555
Cl13 Cs3 3.898991 1_554
Cl13 Cs1 3.898991 1_555
Cl13 Cs0 4.084046 1_544
Cl13 Cs6 4.084046 1_555
Cl14 Sb1 2.423148 1_555
Cl14 Cs5 3.898991 1_655
Cl14 Cs7 3.898991 1_656
Cl14 Cs2 4.084046 1_545
Cl14 Cs4 4.084046 1_556
Cl15 Sb0 2.423148 1_655
Cl15 Cs4 3.898991 1_555
Cl15 Cs6 3.898991 1_655
Cl15 Cs3 4.084046 1_554
Cl15 Cs5 4.084046 1_655
Cl16 Sb0 2.423148 1_666
Cl16 Cs0 3.898991 1_655
Cl16 Cs2 3.898991 1_555
Cl16 Cs7 4.084046 1_656
Cl16 Cs1 4.084046 1_555
Cl17 Sb0 2.423148 1_656
Cl17 Cs3 3.898991 1_555
Cl17 Cs1 3.898991 1_545
Cl17 Cs4 4.084046 1_556
Cl17 Cs2 4.084046 1_545
Cl18 Sb1 2.423148 1_555
Cl18 Cs6 3.898991 1_555
Cl18 Cs4 3.898991 1_556
Cl18 Cs1 4.084046 1_555
Cl18 Cs7 4.084046 1_656
Cl19 Cs7 3.691829 1_555
Cl19 Cs1 3.691836 1_555
Cl19 Cs4 3.789389 1_455
Cl19 Cs6 3.789397 1_555
Cl20 Cs5 3.691841 1_565
Cl20 Cs3 3.691841 1_565
Cl20 Cs2 3.789386 1_455
Cl20 Cs0 3.789386 1_555
Cl21 Cs4 3.691841 1_455
Cl21 Cs2 3.691841 1_455
Cl21 Cs7 3.789386 1_555
Cl21 Cs5 3.789386 1_565
Cl22 Cs0 3.691829 1_555
Cl22 Cs6 3.691836 1_555
Cl22 Cs3 3.789389 1_565
Cl22 Cs1 3.789397 1_555
Cl23 Cs6 3.691829 1_555
Cl23 Cs0 3.691836 1_555
Cl23 Cs5 3.789389 1_555
Cl23 Cs7 3.789397 1_556
