# generated using pymatgen
data_Ba3MgMn2O8
_symmetry_space_group_name_H-M   'P 1'
_cell_length_a   8.36320285
_cell_length_b   8.36342656
_cell_length_c   8.36320324
_cell_angle_alpha   40.75787930
_cell_angle_beta   40.75783308
_cell_angle_gamma   40.75787615
_symmetry_Int_Tables_number   1
_chemical_formula_structural   Ba3MgMn2O8
_chemical_formula_sum   'Ba3 Mg1 Mn2 O8'
_cell_volume   224.98319377
_cell_formula_units_Z   1
loop_
 _symmetry_equiv_pos_site_id
 _symmetry_equiv_pos_as_xyz
  1  'x, y, z'
loop_
 _atom_site_type_symbol
 _atom_site_label
 _atom_site_symmetry_multiplicity
 _atom_site_fract_x
 _atom_site_fract_y
 _atom_site_fract_z
 _atom_site_occupancy
  Ba  Ba0  1  0.79362600  0.79364700  0.79362600  1
  Ba  Ba1  1  0.20636600  0.20637600  0.20636600  1
  Ba  Ba2  1  0.99999000  0.00002400  0.99999000  1
  Mg  Mg0  1  0.49999100  0.50000300  0.49999100  1
  Mn  Mn0  1  0.60672800  0.60670200  0.60672800  1
  Mn  Mn1  1  0.39328100  0.39329400  0.39328100  1
  O  O0  1  0.68347100  0.68343800  0.68347100  1
  O  O1  1  0.31655100  0.31651900  0.31655100  1
  O  O2  1  0.28478300  0.74179200  0.28478300  1
  O  O3  1  0.74176700  0.28479800  0.28479100  1
  O  O4  1  0.28479100  0.28479800  0.74176700  1
  O  O5  1  0.71520200  0.71519700  0.25825100  1
  O  O6  1  0.25825100  0.71519700  0.71520200  1
  O  O7  1  0.71520500  0.25821600  0.71520500  1
loop_
_geom_bond_atom_site_label_1
_geom_bond_atom_site_label_2
_geom_bond_distance
_geom_bond_site_symmetry_2
Ba0 O0 2.530912 1_555
Ba0 O4 2.964095 1_565
Ba0 O3 2.964095 1_565
Ba0 O2 2.964109 1_556
Ba0 O2 2.964109 1_655
Ba0 O4 2.964210 1_655
Ba0 O3 2.964210 1_556
Ba0 O7 2.981152 1_565
Ba0 O6 2.981334 1_655
Ba0 O5 2.981334 1_556
Ba1 O1 2.530866 1_555
Ba1 O7 2.964076 1_554
Ba1 O7 2.964076 1_455
Ba1 O5 2.964132 1_455
Ba1 O6 2.964132 1_554
Ba1 O5 2.964183 1_545
Ba1 O6 2.964183 1_545
Ba1 O3 2.981258 1_455
Ba1 O4 2.981259 1_554
Ba1 O2 2.981314 1_545
Ba2 O2 3.003097 1_646
Ba2 O4 3.003136 1_655
Ba2 O3 3.003136 1_556
Ba2 O7 3.003145 1_555
Ba2 O5 3.003266 1_546
Ba2 O6 3.003266 1_645
Ba2 O0 3.384737 1_555
Ba2 O1 3.384783 1_556
Ba2 O1 3.384783 1_655
Ba2 O0 3.384999 1_645
Ba2 O0 3.385000 1_546
Ba2 O1 3.385188 1_646
Mg0 O2 2.109009 1_555
Mg0 O3 2.109028 1_555
Mg0 O4 2.109028 1_555
Mg0 O7 2.109092 1_555
Mg0 O6 2.109128 1_555
Mg0 O5 2.109128 1_555
Mn0 O0 1.762899 1_555
Mn0 O6 1.837230 1_555
Mn0 O5 1.837230 1_555
Mn0 O7 1.837409 1_555
Mn1 O1 1.762999 1_555
Mn1 O3 1.837245 1_555
Mn1 O4 1.837245 1_555
Mn1 O2 1.837376 1_555
