# generated using pymatgen
data_KGaI4
_symmetry_space_group_name_H-M   'P 1'
_cell_length_a   8.03756246
_cell_length_b   8.32040412
_cell_length_c   16.29759128
_cell_angle_alpha   84.53910830
_cell_angle_beta   90.00000000
_cell_angle_gamma   90.00000000
_symmetry_Int_Tables_number   1
_chemical_formula_structural   KGaI4
_chemical_formula_sum   'K4 Ga4 I16'
_cell_volume   1084.96723367
_cell_formula_units_Z   4
loop_
 _symmetry_equiv_pos_site_id
 _symmetry_equiv_pos_as_xyz
  1  'x, y, z'
loop_
 _atom_site_type_symbol
 _atom_site_label
 _atom_site_symmetry_multiplicity
 _atom_site_fract_x
 _atom_site_fract_y
 _atom_site_fract_z
 _atom_site_occupancy
  K  K0  1  0.50070727  0.25815080  0.64005980  1
  K  K1  1  0.00070727  0.74184920  0.85994020  1
  K  K2  1  0.49929273  0.74184920  0.35994020  1
  K  K3  1  0.99929273  0.25815080  0.14005980  1
  Ga  Ga0  1  0.35781781  0.24433913  0.36085463  1
  Ga  Ga1  1  0.85781781  0.75566087  0.13914537  1
  Ga  Ga2  1  0.64218219  0.75566087  0.63914537  1
  Ga  Ga3  1  0.14218219  0.24433913  0.86085463  1
  I  I0  1  0.85496615  0.14004863  0.90980703  1
  I  I1  1  0.35496615  0.85995137  0.59019297  1
  I  I2  1  0.14503385  0.85995137  0.09019297  1
  I  I3  1  0.64503385  0.14004863  0.40980703  1
  I  I4  1  0.39066418  0.41774248  0.22230145  1
  I  I5  1  0.89066418  0.58225752  0.27769855  1
  I  I6  1  0.60933582  0.58225752  0.77769855  1
  I  I7  1  0.10933582  0.41774248  0.72230145  1
  I  I8  1  0.65198375  0.98520707  0.15997272  1
  I  I9  1  0.15198375  0.01479293  0.34002728  1
  I  I10  1  0.34801625  0.01479293  0.84002728  1
  I  I11  1  0.84801625  0.98520707  0.65997272  1
  I  I12  1  0.23902393  0.42127265  0.46814410  1
  I  I13  1  0.73902393  0.57872735  0.03185590  1
  I  I14  1  0.76097607  0.57872735  0.53185590  1
  I  I15  1  0.26097607  0.42127265  0.96814410  1
loop_
_geom_bond_atom_site_label_1
_geom_bond_atom_site_label_2
_geom_bond_distance
_geom_bond_site_symmetry_2
Ga0 I3 2.566506 1_555
Ga0 I9 2.573605 1_555
Ga0 I12 2.574165 1_555
Ga0 I4 2.574913 1_555
Ga1 I2 2.566506 1_655
Ga1 I8 2.573605 1_555
Ga1 I13 2.574165 1_555
Ga1 I5 2.574913 1_555
Ga2 I1 2.566506 1_555
Ga2 I11 2.573605 1_555
Ga2 I14 2.574165 1_555
Ga2 I6 2.574913 1_555
Ga3 I0 2.566506 1_455
Ga3 I10 2.573605 1_555
Ga3 I15 2.574165 1_555
Ga3 I7 2.574913 1_555
I0 K1 3.677274 1_645
I1 K0 3.677274 1_565
I2 K3 3.677274 1_465
I3 K2 3.677274 1_545
I4 K3 3.713994 1_455
I4 K2 3.770639 1_555
I5 K2 3.713994 1_555
I5 K3 3.770639 1_555
I6 K1 3.713994 1_655
I6 K0 3.770639 1_555
I7 K0 3.713994 1_555
I7 K1 3.770639 1_555
I8 K3 3.593754 1_565
I8 K2 3.869257 1_555
I9 K2 3.593754 1_545
I9 K3 3.869257 1_455
I10 K1 3.593754 1_545
I10 K0 3.869257 1_555
I11 K0 3.593754 1_565
I11 K1 3.869257 1_655
I12 K0 3.659552 1_555
I12 K2 3.702069 1_555
I13 K1 3.659552 1_654
I13 K3 3.702069 1_555
I14 K2 3.659552 1_555
I14 K0 3.702069 1_555
I15 K3 3.659552 1_456
I15 K1 3.702069 1_555
