# generated using pymatgen
data_Na4MoO5
_symmetry_space_group_name_H-M   'P 1'
_cell_length_a   5.59733633
_cell_length_b   9.87285361
_cell_length_c   9.89346126
_cell_angle_alpha   113.25912711
_cell_angle_beta   96.41500767
_cell_angle_gamma   96.24061342
_symmetry_Int_Tables_number   1
_chemical_formula_structural   Na4MoO5
_chemical_formula_sum   'Na16 Mo4 O20'
_cell_volume   492.10786857
_cell_formula_units_Z   4
loop_
 _symmetry_equiv_pos_site_id
 _symmetry_equiv_pos_as_xyz
  1  'x, y, z'
loop_
 _atom_site_type_symbol
 _atom_site_label
 _atom_site_symmetry_multiplicity
 _atom_site_fract_x
 _atom_site_fract_y
 _atom_site_fract_z
 _atom_site_occupancy
  Na  Na0  1  0.73592797  0.64410187  0.84323086  1
  Na  Na1  1  0.78201516  0.45212787  0.06586447  1
  Na  Na2  1  0.21798484  0.54787213  0.93413553  1
  Na  Na3  1  0.75961335  0.05468096  0.46288160  1
  Na  Na4  1  0.00000000  0.00000000  0.00000000  1
  Na  Na5  1  0.50000000  0.50000000  0.50000000  1
  Na  Na6  1  0.50834100  0.10354996  0.91090127  1
  Na  Na7  1  0.49165900  0.89645004  0.08909873  1
  Na  Na8  1  0.00229328  0.39875565  0.59940973  1
  Na  Na9  1  0.99770672  0.60124435  0.40059027  1
  Na  Na10  1  0.28245367  0.15153385  0.35866754  1
  Na  Na11  1  0.71754633  0.84846615  0.64133246  1
  Na  Na12  1  0.98438042  0.19436918  0.80608638  1
  Na  Na13  1  0.01561958  0.80563082  0.19391362  1
  Na  Na14  1  0.26407203  0.35589813  0.15676914  1
  Na  Na15  1  0.24038665  0.94531904  0.53711840  1
  Mo  Mo0  1  0.52055309  0.70043546  0.26269255  1
  Mo  Mo1  1  0.47944691  0.29956454  0.73730745  1
  Mo  Mo2  1  0.21529490  0.78410019  0.75186122  1
  Mo  Mo3  1  0.78470510  0.21589981  0.24813878  1
  O  O0  1  0.80788324  0.39803812  0.80916073  1
  O  O1  1  0.93659499  0.64401782  0.64950923  1
  O  O2  1  0.06340501  0.35598218  0.35049077  1
  O  O3  1  0.19211676  0.60196188  0.19083927  1
  O  O4  1  0.88366070  0.04125490  0.22728791  1
  O  O5  1  0.11633930  0.95874510  0.77271209  1
  O  O6  1  0.86335113  0.22864430  0.06887176  1
  O  O7  1  0.13664887  0.77135570  0.93112824  1
  O  O8  1  0.40378247  0.46831467  0.71255175  1
  O  O9  1  0.59621753  0.53168533  0.28744825  1
  O  O10  1  0.19482151  0.18965341  0.59670398  1
  O  O11  1  0.80517849  0.81034659  0.40329602  1
  O  O12  1  0.37717214  0.32209453  0.90981381  1
  O  O13  1  0.62282786  0.67790547  0.09018619  1
  O  O14  1  0.66489998  0.27138362  0.42730035  1
  O  O15  1  0.33510002  0.72861638  0.57269965  1
  O  O16  1  0.59992106  0.11574223  0.68203749  1
  O  O17  1  0.54389344  0.84877775  0.85059384  1
  O  O18  1  0.45610656  0.15122225  0.14940616  1
  O  O19  1  0.40007894  0.88425777  0.31796251  1
loop_
_geom_bond_atom_site_label_1
_geom_bond_atom_site_label_2
_geom_bond_distance
_geom_bond_site_symmetry_2
Na0 O8 2.264776 1_555
Na0 O1 2.326980 1_555
Na0 O7 2.335422 1_655
Na0 O17 2.370128 1_555
Na0 O0 2.402897 1_555
Na0 O13 2.495827 1_556
Na1 O6 2.311634 1_555
Na1 O0 2.404996 1_554
Na1 O9 2.414845 1_555
Na1 O13 2.424186 1_555
Na1 O3 2.483801 1_655
Na1 O12 2.487378 1_554
Na2 O7 2.311634 1_555
Na2 O3 2.404996 1_556
Na2 O8 2.414845 1_555
Na2 O12 2.424186 1_555
Na2 O0 2.483801 1_455
Na2 O13 2.487378 1_556
Na3 O11 2.296931 1_545
Na3 O16 2.319792 1_555
Na3 O19 2.377057 1_545
Na3 O14 2.404583 1_555
Na3 O4 2.463760 1_555
Na3 O10 2.577387 1_655
Na4 O4 2.303901 1_455
Na4 O5 2.303901 1_544
Na4 O6 2.328537 1_455
Na4 O7 2.328537 1_544
Na4 O18 2.741677 1_555
Na4 O17 2.741677 1_444
Na5 O9 2.354988 1_555
Na5 O8 2.354988 1_555
Na5 O15 2.404759 1_555
Na5 O14 2.404759 1_555
Na5 O1 2.637692 1_555
Na5 O2 2.637692 1_555
Na6 O6 2.272562 1_556
Na6 O18 2.276369 1_556
Na6 O12 2.357037 1_555
Na6 O17 2.381711 1_545
Na6 O5 2.414829 1_545
Na6 O16 2.421840 1_555
Na7 O7 2.272562 1_554
Na7 O17 2.276369 1_554
Na7 O13 2.357037 1_555
Na7 O18 2.381711 1_565
Na7 O4 2.414829 1_565
Na7 O19 2.421840 1_555
Na8 O14 2.263006 1_455
Na8 O8 2.295662 1_555
Na8 O1 2.351742 1_455
Na8 O2 2.399662 1_555
Na8 O10 2.422892 1_555
Na8 O0 2.450515 1_455
Na9 O15 2.263006 1_655
Na9 O9 2.295662 1_555
Na9 O2 2.351742 1_655
Na9 O1 2.399662 1_555
Na9 O11 2.422892 1_555
Na9 O3 2.450515 1_655
Na10 O14 2.221177 1_555
Na10 O10 2.350863 1_555
Na10 O4 2.358627 1_455
Na10 O18 2.382498 1_555
Na10 O2 2.495793 1_555
Na10 O19 2.675160 1_545
Na11 O15 2.221177 1_555
Na11 O11 2.350863 1_555
Na11 O5 2.358627 1_655
Na11 O17 2.382498 1_555
Na11 O1 2.495793 1_555
Na11 O16 2.675160 1_565
Na12 O16 2.243639 1_555
Na12 O12 2.312597 1_655
Na12 O0 2.326044 1_555
Na12 O5 2.426435 1_645
Na12 O10 2.482302 1_655
Na12 O6 2.661066 1_556
Na13 O19 2.243639 1_555
Na13 O13 2.312597 1_455
Na13 O3 2.326044 1_555
Na13 O4 2.426435 1_465
Na13 O11 2.482302 1_455
Na13 O7 2.661066 1_554
Na14 O9 2.264776 1_555
Na14 O2 2.326980 1_555
Na14 O6 2.335422 1_455
Na14 O18 2.370128 1_555
Na14 O3 2.402897 1_555
Na14 O12 2.495827 1_554
Na15 O10 2.296931 1_565
Na15 O19 2.319792 1_555
Na15 O16 2.377057 1_565
Na15 O15 2.404583 1_555
Na15 O5 2.463760 1_555
Na15 O11 2.577387 1_455
Mo0 O13 1.798931 1_555
Mo0 O9 1.862137 1_555
Mo0 O11 1.894052 1_555
Mo0 O3 1.898344 1_555
Mo0 O19 1.900556 1_555
Mo1 O12 1.798931 1_555
Mo1 O8 1.862137 1_555
Mo1 O10 1.894052 1_555
Mo1 O0 1.898344 1_555
Mo1 O16 1.900556 1_555
Mo2 O5 1.809589 1_555
Mo2 O1 1.855680 1_455
Mo2 O15 1.862858 1_555
Mo2 O17 1.896157 1_555
Mo2 O7 1.921936 1_555
Mo3 O4 1.809589 1_555
Mo3 O2 1.855680 1_655
Mo3 O14 1.862858 1_555
Mo3 O18 1.896157 1_555
Mo3 O6 1.921936 1_555
