# generated using pymatgen
data_Na4Ca2Ta2Si3(SO8)3
_symmetry_space_group_name_H-M   'P 1'
_cell_length_a   9.22189408
_cell_length_b   9.19555150
_cell_length_c   22.96215377
_cell_angle_alpha   90.00625036
_cell_angle_beta   89.93557473
_cell_angle_gamma   120.09711748
_symmetry_Int_Tables_number   1
_chemical_formula_structural   Na4Ca2Ta2Si3(SO8)3
_chemical_formula_sum   'Na12 Ca6 Ta6 Si9 S9 O72'
_cell_volume   1684.67056194
_cell_formula_units_Z   3
loop_
 _symmetry_equiv_pos_site_id
 _symmetry_equiv_pos_as_xyz
  1  'x, y, z'
loop_
 _atom_site_type_symbol
 _atom_site_label
 _atom_site_symmetry_multiplicity
 _atom_site_fract_x
 _atom_site_fract_y
 _atom_site_fract_z
 _atom_site_occupancy
  Na  Na0  1  0.36237159  0.33392391  0.24165539  1
  Na  Na1  1  0.65414800  0.63392588  0.74448597  1
  Na  Na2  1  0.01353235  0.66224769  0.59670728  1
  Na  Na3  1  0.34034085  0.97701152  0.07580272  1
  Na  Na4  1  0.69048099  0.01506699  0.90448776  1
  Na  Na5  1  0.00155608  0.30843401  0.42659136  1
  Na  Na6  1  0.02578587  0.02814509  0.50357200  1
  Na  Na7  1  0.02009320  0.00131512  0.99004943  1
  Na  Na8  1  0.69204682  0.33524807  0.81967921  1
  Na  Na9  1  0.63196636  0.30248218  0.33154407  1
  Na  Na10  1  0.36115004  0.66596682  0.15214040  1
  Na  Na11  1  0.33514153  0.63301145  0.65514732  1
  Ca  Ca0  1  0.00361108  0.99471486  0.35342961  1
  Ca  Ca1  1  0.00869830  0.00418146  0.85241897  1
  Ca  Ca2  1  0.66408842  0.32393675  0.68654130  1
  Ca  Ca3  1  0.66853760  0.33043652  0.18618282  1
  Ca  Ca4  1  0.33379066  0.65942177  0.01843591  1
  Ca  Ca5  1  0.34615272  0.66635098  0.52039524  1
  Ta  Ta0  1  0.98041416  0.99666497  0.65073028  1
  Ta  Ta1  1  0.01364666  0.00049799  0.14221188  1
  Ta  Ta2  1  0.65447795  0.31617624  0.98258133  1
  Ta  Ta3  1  0.66163784  0.34374206  0.48787349  1
  Ta  Ta4  1  0.34170811  0.66830942  0.31362895  1
  Ta  Ta5  1  0.32340572  0.68060943  0.81098237  1
  Si  Si0  1  0.29311797  0.98889747  0.25137593  1
  Si  Si1  1  0.00221710  0.71264160  0.74978396  1
  Si  Si2  1  0.69469347  0.99490782  0.75819019  1
  Si  Si3  1  0.95815946  0.32534812  0.58249943  1
  Si  Si4  1  0.67299522  0.64455231  0.59195634  1
  Si  Si5  1  0.67796140  0.03816627  0.08599257  1
  Si  Si6  1  0.37216583  0.33378625  0.08860696  1
  Si  Si7  1  0.33344464  0.96614875  0.92222949  1
  Si  Si8  1  0.34365191  0.37161402  0.41699747  1
  S  S0  1  0.69813227  0.71335065  0.25106272  1
  S  S1  1  0.01669491  0.30013959  0.25100593  1
  S  S2  1  0.28332500  0.30289678  0.74974350  1
  S  S3  1  0.36109331  0.04675330  0.58185887  1
  S  S4  1  0.95346543  0.63326709  0.08384010  1
  S  S5  1  0.62393334  0.64934007  0.91648526  1
  S  S6  1  0.02841096  0.38062789  0.91657219  1
  S  S7  1  0.62012782  0.97048453  0.41386916  1
  S  S8  1  0.03458896  0.64991552  0.41633806  1
  O  O0  1  0.19733695  0.01513109  0.30321671  1
  O  O1  1  0.78339077  0.79016592  0.30495232  1
  O  O2  1  0.98862196  0.20891094  0.30563840  1
  O  O3  1  0.21294632  0.21158843  0.80317368  1
  O  O4  1  0.98578382  0.80336694  0.80476352  1
  O  O5  1  0.79129115  0.01142661  0.81663615  1
  O  O6  1  0.80681882  0.96939104  0.70035994  1
  O  O7  1  0.17518689  0.21242562  0.69702195  1
  O  O8  1  0.03694475  0.83974921  0.68984879  1
  O  O9  1  0.78352052  0.81644902  0.19869507  1
  O  O10  1  0.04004071  0.20516503  0.20087910  1
  O  O11  1  0.16618745  0.96489606  0.19094707  1
  O  O12  1  0.85959565  0.35008009  0.63333953  1
  O  O13  1  0.45503704  0.11321648  0.63453414  1
  O  O14  1  0.65160317  0.54188864  0.64913037  1
  O  O15  1  0.88289040  0.54472696  0.13778993  1
  O  O16  1  0.64755760  0.13088985  0.13763763  1
  O  O17  1  0.46146604  0.35027110  0.14884941  1
  O  O18  1  0.48328900  0.30457441  0.03217884  1
  O  O19  1  0.84946880  0.54814843  0.03142482  1
  O  O20  1  0.70456746  0.16906391  0.02456950  1
  O  O21  1  0.46577531  0.16252698  0.52883091  1
  O  O22  1  0.69620919  0.52535744  0.53315416  1
  O  O23  1  0.83190890  0.29875392  0.51856419  1
  O  O24  1  0.53717338  0.66544568  0.96743731  1
  O  O25  1  0.12237762  0.45372780  0.96946021  1
  O  O26  1  0.33144234  0.87526185  0.98072797  1
  O  O27  1  0.54303480  0.88051138  0.46632326  1
  O  O28  1  0.31049544  0.46582191  0.46767755  1
  O  O29  1  0.12724768  0.67764745  0.47022525  1
  O  O30  1  0.13746269  0.63314291  0.36544044  1
  O  O31  1  0.50944063  0.86641252  0.36067045  1
  O  O32  1  0.36668294  0.49798089  0.35518679  1
  O  O33  1  0.12303588  0.48337318  0.86343034  1
  O  O34  1  0.35779543  0.85236117  0.86476602  1
  O  O35  1  0.52208612  0.62391832  0.86233629  1
  O  O36  1  0.99481478  0.78153917  0.40624007  1
  O  O37  1  0.78967241  0.99627856  0.40683925  1
  O  O38  1  0.17768688  0.18860190  0.41299482  1
  O  O39  1  0.98940359  0.20525293  0.91185267  1
  O  O40  1  0.19105370  0.01243061  0.91638946  1
  O  O41  1  0.79028918  0.80181463  0.91381432  1
  O  O42  1  0.97543453  0.15299509  0.59173458  1
  O  O43  1  0.20188493  0.05053564  0.58137804  1
  O  O44  1  0.86486703  0.82191555  0.59139738  1
  O  O45  1  0.95565952  0.80449940  0.08741407  1
  O  O46  1  0.85532442  0.03105630  0.09593278  1
  O  O47  1  0.18848416  0.13838949  0.09016645  1
  O  O48  1  0.64048321  0.13035637  0.74877334  1
  O  O49  1  0.45457716  0.33567261  0.74238187  1
  O  O50  1  0.84531746  0.52712425  0.74541750  1
  O  O51  1  0.66329742  0.53931215  0.24736623  1
  O  O52  1  0.88713898  0.34295019  0.24146334  1
  O  O53  1  0.47827457  0.15028995  0.24871577  1
  O  O54  1  0.64470450  0.49645904  0.92391868  1
  O  O55  1  0.86243493  0.37980141  0.91871004  1
  O  O56  1  0.52572166  0.15408313  0.92432660  1
  O  O57  1  0.62762805  0.13656859  0.41116440  1
  O  O58  1  0.52285681  0.36283874  0.42512755  1
  O  O59  1  0.87237675  0.48049827  0.41726769  1
  O  O60  1  0.31669197  0.46817501  0.07868269  1
  O  O61  1  0.12884088  0.67648277  0.07763707  1
  O  O62  1  0.51912340  0.85490124  0.07800927  1
  O  O63  1  0.32712433  0.87678548  0.56984478  1
  O  O64  1  0.53465896  0.69450837  0.58165011  1
  O  O65  1  0.13636460  0.49407247  0.57597264  1
  O  O66  1  0.30075295  0.80872464  0.26117217  1
  O  O67  1  0.52240501  0.70201354  0.25313504  1
  O  O68  1  0.18702395  0.46615528  0.25433089  1
  O  O69  1  0.29018421  0.47228712  0.75274413  1
  O  O70  1  0.17998003  0.69709839  0.75852405  1
  O  O71  1  0.51478754  0.79910334  0.76200907  1
loop_
_geom_bond_atom_site_label_1
_geom_bond_atom_site_label_2
_geom_bond_distance
_geom_bond_site_symmetry_2
Na0 O17 2.292789 1_555
Na0 O53 2.414694 1_555
Na0 O51 2.455524 1_555
Na0 O68 2.479696 1_555
Na0 O10 2.755094 1_555
Na1 O14 2.343254 1_555
Na1 O50 2.410292 1_555
Na1 O49 2.418506 1_555
Na1 O71 2.465173 1_555
Na2 O65 2.378416 1_555
Na2 O44 2.463613 1_455
Na2 O12 2.621780 1_455
Na2 O63 2.628670 1_555
Na2 O8 2.632826 1_555
Na3 O26 2.360325 1_554
Na3 O62 2.416318 1_555
Na3 O61 2.457029 1_555
Na3 O47 2.520943 1_565
Na3 O18 2.798100 1_565
Na3 O16 2.834217 1_565
Na4 O5 2.227491 1_555
Na4 O39 2.419093 1_555
Na4 O56 2.469110 1_555
Na4 O41 2.559141 1_545
Na4 O34 2.808078 1_545
Na5 O38 2.396616 1_555
Na5 O59 2.420633 1_455
Na5 O37 2.576749 1_445
Na5 O23 2.601639 1_455
Na5 O28 2.640426 1_555
Na6 O43 2.354289 1_555
Na6 O42 2.482719 1_455
Na6 O38 2.527109 1_555
Na6 O44 2.652745 1_445
Na7 O40 2.277999 1_555
Na7 O41 2.651298 1_445
Na7 O47 2.707301 1_556
Na7 O39 2.712041 1_455
Na7 O45 2.747045 1_446
Na7 O46 2.950120 1_456
Na8 O50 2.347919 1_555
Na8 O48 2.351452 1_555
Na8 O55 2.677672 1_555
Na8 O49 2.821950 1_555
Na8 O56 2.886491 1_555
Na8 O54 2.960289 1_555
Na9 O53 2.366602 1_555
Na9 O57 2.368755 1_555
Na9 O58 2.548159 1_555
Na9 O59 2.799776 1_555
Na9 O51 2.816189 1_555
Na9 O52 3.010874 1_555
Na10 O62 2.344114 1_555
Na10 O60 2.360989 1_555
Na10 O67 2.685610 1_555
Na10 O61 2.782386 1_555
Na10 O68 2.914444 1_555
Na10 O66 3.005160 1_555
Na11 O64 2.345847 1_555
Na11 O65 2.440467 1_555
Na11 O69 2.600488 1_555
Na11 O71 2.927269 1_555
Ca0 O0 2.053127 1_565
Ca0 O38 2.181828 1_565
Ca0 O1 2.252750 1_455
Ca0 O36 2.271684 1_455
Ca0 O2 2.318786 1_465
Ca0 O37 2.328021 1_455
Ca1 O4 2.064155 1_445
Ca1 O5 2.199290 1_455
Ca1 O3 2.203795 1_555
Ca1 O40 2.206582 1_555
Ca1 O39 2.375219 1_455
Ca1 O41 2.396289 1_445
Ca2 O12 2.088346 1_555
Ca2 O48 2.206644 1_555
Ca2 O50 2.232617 1_555
Ca2 O14 2.236068 1_555
Ca2 O13 2.270570 1_555
Ca2 O49 2.364789 1_555
Ca3 O16 2.071469 1_555
Ca3 O17 2.183512 1_555
Ca3 O53 2.228065 1_555
Ca3 O15 2.261443 1_555
Ca3 O52 2.336988 1_555
Ca3 O51 2.399506 1_555
Ca4 O26 2.175547 1_554
Ca4 O60 2.180209 1_555
Ca4 O24 2.187019 1_554
Ca4 O62 2.224180 1_555
Ca4 O25 2.224722 1_554
Ca4 O61 2.395058 1_555
Ca5 O28 2.089495 1_555
Ca5 O64 2.149739 1_555
Ca5 O65 2.191390 1_555
Ca5 O27 2.264010 1_555
Ca5 O63 2.324687 1_555
Ca5 O29 2.372492 1_555
O0 Si0 1.570557 1_545
O1 S0 1.446835 1_555
O2 S1 1.458140 1_655
O3 S2 1.443372 1_555
O4 Si1 1.561695 1_655
O5 Si2 1.576274 1_545
O6 Si2 1.768543 1_555
O6 Ta0 1.875551 1_555
O7 S2 1.524000 1_555
O7 Ta0 2.173068 1_445
O8 Si1 1.728205 1_555
O8 Ta0 1.978996 1_455
O9 S0 1.488018 1_555
O9 Ta1 2.332868 1_665
O10 S1 1.523721 1_555
O10 Ta1 2.226379 1_555
O11 Si0 1.757477 1_555
O11 Ta1 1.950341 1_565
O12 Si3 1.563841 1_555
O13 S3 1.434647 1_555
O14 Si4 1.570540 1_555
O15 S4 1.445013 1_555
O16 Si5 1.565481 1_555
O17 Si6 1.578602 1_555
O18 Si6 1.753336 1_555
O18 Ta2 1.904656 1_554
O19 S4 1.493490 1_555
O19 Ta2 2.280031 1_554
O20 Si5 1.789323 1_555
O20 Ta2 1.897614 1_554
O21 S3 1.585825 1_555
O21 Ta3 1.975240 1_555
O22 Si4 1.817869 1_555
O22 Ta3 1.854226 1_555
O23 Si3 1.813512 1_555
O23 Ta3 1.946129 1_555
O24 S5 1.465471 1_555
O25 S6 1.447607 1_555
O26 Si7 1.577296 1_555
O27 S7 1.431447 1_555
O28 Si8 1.569347 1_555
O29 S8 1.452591 1_555
O30 S8 1.560103 1_555
O30 Ta4 2.109934 1_555
O31 S7 1.572514 1_555
O31 Ta4 2.013742 1_555
O32 Si8 1.778194 1_555
O32 Ta4 1.944081 1_555
O33 S6 1.521221 1_555
O33 Ta5 2.188267 1_555
O34 Si7 1.766630 1_555
O34 Ta5 1.902167 1_555
O35 S5 1.505036 1_555
O35 Ta5 2.445852 1_555
O36 S8 1.448709 1_655
O37 S7 1.467794 1_555
O38 Si8 1.612479 1_555
O39 S6 1.469722 1_655
O40 Si7 1.576156 1_545
O41 S5 1.471616 1_555
O42 Si3 1.683916 1_555
O42 Ta0 1.992620 1_545
O43 S3 1.486002 1_555
O43 Ta0 2.435333 1_445
O44 Si4 1.701960 1_555
O44 Ta0 1.964501 1_555
O45 S4 1.566670 1_555
O45 Ta1 2.037635 1_665
O46 Si5 1.685149 1_555
O46 Ta1 1.937767 1_655
O47 Si6 1.745385 1_555
O47 Ta1 1.892405 1_555
O48 Si2 1.572514 1_545
O49 S2 1.461348 1_555
O50 Si1 1.593276 1_655
O51 S0 1.468342 1_555
O52 S1 1.450082 1_655
O53 Si0 1.606259 1_545
O54 S5 1.520648 1_555
O54 Ta2 2.172902 1_555
O55 S6 1.527550 1_655
O55 Ta2 2.244912 1_555
O56 Si7 1.749236 1_545
O56 Ta2 1.910234 1_555
O57 S7 1.495043 1_545
O57 Ta3 2.496294 1_555
O58 Si8 1.704969 1_555
O58 Ta3 1.993550 1_555
O59 S8 1.525726 1_655
O59 Ta3 2.351387 1_555
O60 Si6 1.573264 1_555
O61 S4 1.465864 1_455
O62 Si5 1.594986 1_565
O63 S3 1.458114 1_565
O64 Si4 1.575738 1_555
O65 Si3 1.603950 1_455
O66 Si0 1.708103 1_555
O66 Ta4 1.936791 1_555
O67 S0 1.571517 1_555
O67 Ta4 2.068640 1_555
O68 S1 1.548842 1_555
O68 Ta4 2.165349 1_555
O69 S2 1.528448 1_555
O69 Ta5 2.227912 1_555
O70 Si1 1.727363 1_555
O70 Ta5 1.851520 1_555
O71 Si2 1.733740 1_555
O71 Ta5 1.906256 1_555
