# generated using pymatgen
data_KTiCl3
_symmetry_space_group_name_H-M   'P 1'
_cell_length_a   12.39172540
_cell_length_b   12.38633925
_cell_length_c   5.63724654
_cell_angle_alpha   89.97560465
_cell_angle_beta   90.01000795
_cell_angle_gamma   119.96915975
_symmetry_Int_Tables_number   1
_chemical_formula_structural   KTiCl3
_chemical_formula_sum   'K6 Ti6 Cl18'
_cell_volume   749.56146777
_cell_formula_units_Z   6
loop_
 _symmetry_equiv_pos_site_id
 _symmetry_equiv_pos_as_xyz
  1  'x, y, z'
loop_
 _atom_site_type_symbol
 _atom_site_label
 _atom_site_symmetry_multiplicity
 _atom_site_fract_x
 _atom_site_fract_y
 _atom_site_fract_z
 _atom_site_occupancy
  K  K0  1  0.66118467  0.00066180  0.66077474  1
  K  K1  1  -0.00190278  0.65985505  0.65998545  1
  K  K2  1  0.33892395  0.00146266  0.17036093  1
  K  K3  1  0.66180638  0.66139573  0.17056052  1
  K  K4  1  0.34065736  0.33971400  0.65996007  1
  K  K5  1  0.99945017  0.33713544  0.16766203  1
  Ti  Ti0  1  -0.00036685  -0.00042635  0.48810913  1
  Ti  Ti1  1  0.66675068  0.33309132  0.88685853  1
  Ti  Ti2  1  0.66685750  0.33265338  0.42014715  1
  Ti  Ti3  1  -0.00029500  -0.00048301  0.97071907  1
  Ti  Ti4  1  0.33340495  0.66724913  0.38442814  1
  Ti  Ti5  1  0.33289214  0.66691854  0.91759379  1
  Cl  Cl0  1  0.51848878  0.81950939  0.14920115  1
  Cl  Cl1  1  0.48106983  0.17994116  0.65452554  1
  Cl  Cl2  1  0.84417273  0.48133826  0.15248282  1
  Cl  Cl3  1  0.30167773  0.48182058  0.15282449  1
  Cl  Cl4  1  0.63743562  0.15488490  0.15493780  1
  Cl  Cl5  1  0.18335977  0.14047481  0.22777878  1
  Cl  Cl6  1  0.15527390  0.51954304  0.65295955  1
  Cl  Cl7  1  0.85894966  0.04228334  0.23261721  1
  Cl  Cl8  1  0.14356527  0.95654777  0.72674581  1
  Cl  Cl9  1  0.95624623  0.81587815  0.23308425  1
  Cl  Cl10  1  0.81188100  0.85625015  0.73133573  1
  Cl  Cl11  1  0.82165767  0.30264391  0.65638891  1
  Cl  Cl12  1  0.04576815  0.18742587  0.72644900  1
  Cl  Cl13  1  0.18085281  0.70072274  0.15311193  1
  Cl  Cl14  1  0.69702431  0.51757209  0.65196564  1
  Cl  Cl15  1  0.36403726  0.84480241  0.64886169  1
  Cl  Cl16  1  0.48045259  0.63684131  0.64868322  1
  Cl  Cl17  1  0.51872553  0.36229243  0.15049291  1
loop_
_geom_bond_atom_site_label_1
_geom_bond_atom_site_label_2
_geom_bond_distance
_geom_bond_site_symmetry_2
Cl0 Ti5 2.494907 1_554
Cl0 Ti4 2.500574 1_555
Cl0 K3 3.237070 1_555
Cl0 K0 3.431476 1_564
Cl0 K0 3.538065 1_565
Cl1 Ti1 2.499682 1_555
Cl1 Ti2 2.504422 1_555
Cl1 K4 3.222584 1_555
Cl1 K2 3.398867 1_555
Cl1 K2 3.542825 1_556
Cl2 Ti1 2.532884 1_554
Cl2 Ti2 2.540143 1_555
Cl2 K5 3.214567 1_555
Cl2 K1 3.466757 1_654
Cl2 K1 3.535832 1_655
Cl3 Ti4 2.496920 1_555
Cl3 Ti5 2.505204 1_554
Cl3 K5 3.246406 1_455
Cl3 K4 3.450376 1_554
Cl3 K4 3.514145 1_555
Cl4 Ti2 2.533188 1_555
Cl4 Ti1 2.546432 1_554
Cl4 K2 3.206093 1_555
Cl4 K0 3.473096 1_554
Cl4 K0 3.524717 1_555
Cl5 Ti3 2.521666 1_554
Cl5 Ti0 2.532233 1_555
Cl5 K2 3.178432 1_555
Cl5 K4 3.320070 1_555
Cl6 Ti5 2.527696 1_555
Cl6 Ti4 2.544656 1_555
Cl6 K1 3.193347 1_555
Cl6 K5 3.458656 1_455
Cl6 K5 3.590223 1_456
Cl7 Ti0 2.512614 1_655
Cl7 Ti3 2.535191 1_654
Cl7 K5 3.185892 1_555
Cl7 K0 3.291785 1_555
Cl8 Ti0 2.494599 1_565
Cl8 Ti3 2.510409 1_565
Cl8 K1 3.206063 1_555
Cl8 K2 3.328259 1_566
Cl9 Ti0 2.512623 1_665
Cl9 Ti3 2.534754 1_664
Cl9 K3 3.181686 1_555
Cl9 K1 3.285132 1_655
Cl10 Ti3 2.502351 1_665
Cl10 Ti0 2.513383 1_665
Cl10 K0 3.190798 1_565
Cl10 K3 3.305530 1_556
Cl11 Ti1 2.497891 1_555
Cl11 Ti2 2.510464 1_555
Cl11 K0 3.242641 1_555
Cl11 K5 3.418714 1_555
Cl11 K5 3.521619 1_556
Cl12 Ti0 2.493886 1_555
Cl12 Ti3 2.511869 1_555
Cl12 K4 3.188276 1_555
Cl12 K5 3.319956 1_456
Cl13 Ti4 2.495510 1_555
Cl13 Ti5 2.505410 1_554
Cl13 K2 3.229993 1_565
Cl13 K1 3.459236 1_554
Cl13 K1 3.522103 1_555
Cl14 Ti2 2.498140 1_555
Cl14 Ti1 2.501339 1_555
Cl14 K1 3.233887 1_655
Cl14 K3 3.391299 1_555
Cl14 K3 3.562605 1_556
Cl15 Ti4 2.524165 1_555
Cl15 Ti5 2.538969 1_555
Cl15 K0 3.191855 1_565
Cl15 K2 3.425907 1_565
Cl15 K2 3.621215 1_566
Cl16 Ti4 2.523002 1_555
Cl16 Ti5 2.542112 1_555
Cl16 K4 3.190615 1_555
Cl16 K3 3.424322 1_555
Cl16 K3 3.621253 1_556
Cl17 Ti1 2.523565 1_554
Cl17 Ti2 2.546916 1_555
Cl17 K3 3.212420 1_555
Cl17 K4 3.460608 1_554
Cl17 K4 3.546902 1_555
