# generated using pymatgen
data_LiNi2(PO3)5
_symmetry_space_group_name_H-M   'P 1'
_cell_length_a   8.77034800
_cell_length_b   5.35042300
_cell_length_c   13.46569573
_cell_angle_alpha   69.94690993
_cell_angle_beta   90.00000000
_cell_angle_gamma   90.00000000
_symmetry_Int_Tables_number   1
_chemical_formula_structural   LiNi2(PO3)5
_chemical_formula_sum   'Li2 Ni4 P10 O30'
_cell_volume   593.57127977
_cell_formula_units_Z   2
loop_
 _symmetry_equiv_pos_site_id
 _symmetry_equiv_pos_as_xyz
  1  'x, y, z'
loop_
 _atom_site_type_symbol
 _atom_site_label
 _atom_site_symmetry_multiplicity
 _atom_site_fract_x
 _atom_site_fract_y
 _atom_site_fract_z
 _atom_site_occupancy
  Li  Li0  1  0.99855100  0.12814400  0.45005500  1
  Li  Li1  1  0.00144900  0.12814400  0.95005500  1
  Ni  Ni0  1  0.29201000  0.10477200  0.05154000  1
  Ni  Ni1  1  0.29208000  0.88782000  0.45465900  1
  Ni  Ni2  1  0.70799000  0.10477200  0.55154000  1
  Ni  Ni3  1  0.70792000  0.88782000  0.95465900  1
  P  P0  1  0.17617200  0.68520900  0.90976700  1
  P  P1  1  0.48937500  0.46391000  0.64103900  1
  P  P2  1  0.81692500  0.30696900  0.09075100  1
  P  P3  1  0.51321600  0.53694700  0.36175700  1
  P  P4  1  0.94984900  0.99894400  0.75034300  1
  P  P5  1  0.82382800  0.68520900  0.40976700  1
  P  P6  1  0.18307500  0.30696900  0.59075100  1
  P  P7  1  0.51062500  0.46391000  0.14103900  1
  P  P8  1  0.05015100  0.99894400  0.25034300  1
  P  P9  1  0.48678400  0.53694700  0.86175700  1
  O  O0  1  0.06412600  0.75294200  0.80932200  1
  O  O1  1  0.47541800  0.49847600  0.75169300  1
  O  O2  1  0.46847400  0.26674800  0.94629600  1
  O  O3  1  0.63006300  0.30659500  0.64106900  1
  O  O4  1  0.46982500  0.73515100  0.55739600  1
  O  O5  1  0.82361900  0.10272500  0.03673700  1
  O  O6  1  0.87529200  0.08191900  0.83558800  1
  O  O7  1  0.17000800  0.88928500  0.96357200  1
  O  O8  1  0.52458200  0.49847600  0.25169300  1
  O  O9  1  0.33910400  0.72030500  0.85432700  1
  O  O10  1  0.65473300  0.27268500  0.14789200  1
  O  O11  1  0.93007200  0.23248500  0.19103900  1
  O  O12  1  0.12470800  0.08191900  0.33558800  1
  O  O13  1  0.37613100  0.70392300  0.36036400  1
  O  O14  1  0.62386900  0.70392300  0.86036400  1
  O  O15  1  0.93587400  0.75294200  0.30932200  1
  O  O16  1  0.53152600  0.26674800  0.44629600  1
  O  O17  1  0.14095300  0.92182300  0.17147000  1
  O  O18  1  0.36993700  0.30659500  0.14106900  1
  O  O19  1  0.85904700  0.92182300  0.67147000  1
  O  O20  1  0.82999200  0.88928500  0.46357200  1
  O  O21  1  0.66089600  0.72030500  0.35432700  1
  O  O22  1  0.17638100  0.10272500  0.53673700  1
  O  O23  1  0.14552300  0.39508700  0.97100300  1
  O  O24  1  0.06992800  0.23248500  0.69103900  1
  O  O25  1  0.84881200  0.59173500  0.02672200  1
  O  O26  1  0.15118800  0.59173500  0.52672200  1
  O  O27  1  0.85447700  0.39508700  0.47100300  1
  O  O28  1  0.34526700  0.27268500  0.64789200  1
  O  O29  1  0.53017500  0.73515100  0.05739600  1
loop_
_geom_bond_atom_site_label_1
_geom_bond_atom_site_label_2
_geom_bond_distance
_geom_bond_site_symmetry_2
Li0 O20 1.921540 1_545
Li0 O22 1.924711 1_655
Li0 O12 1.980570 1_655
Li0 O27 1.998102 1_555
Li1 O7 1.921540 1_545
Li1 O5 1.924711 1_456
Li1 O6 1.980570 1_455
Li1 O23 1.998102 1_555
Ni0 O18 1.994822 1_555
Ni0 O23 2.020943 1_554
Ni0 O17 2.058462 1_545
Ni0 O2 2.076639 1_554
Ni0 O7 2.194068 1_544
Ni1 O26 1.980890 1_555
Ni1 O13 1.995130 1_555
Ni1 O4 2.058218 1_555
Ni1 O22 2.108279 1_565
Ni1 O12 2.159205 1_565
Ni2 O3 1.994822 1_555
Ni2 O27 2.020943 1_555
Ni2 O19 2.058462 1_545
Ni2 O16 2.076639 1_555
Ni2 O20 2.194068 1_545
Ni3 O25 1.980890 1_556
Ni3 O14 1.995130 1_555
Ni3 O29 2.058218 1_556
Ni3 O5 2.108279 1_566
Ni3 O6 2.159205 1_565
O0 P0 1.609433 1_555
O0 P4 1.628128 1_455
O1 P9 1.567833 1_555
O1 P1 1.567918 1_555
O2 P9 1.510982 1_555
O3 P1 1.493551 1_555
O4 P1 1.511013 1_555
O5 P2 1.507228 1_555
O6 P4 1.513862 1_545
O7 P0 1.504196 1_555
O8 P3 1.567833 1_555
O8 P7 1.567918 1_555
O9 P0 1.593236 1_555
O9 P9 1.607078 1_555
O10 P2 1.597607 1_555
O10 P7 1.608713 1_555
O11 P2 1.611890 1_555
O11 P8 1.619833 1_645
O12 P8 1.513862 1_545
O13 P3 1.494153 1_555
O14 P9 1.494153 1_555
O15 P5 1.609433 1_555
O15 P8 1.628128 1_655
O16 P3 1.510982 1_555
O17 P8 1.494328 1_555
O18 P7 1.493551 1_555
O19 P4 1.494328 1_555
O20 P5 1.504196 1_555
O21 P5 1.593236 1_555
O21 P3 1.607078 1_555
O22 P6 1.507228 1_555
O23 P0 1.511280 1_555
O24 P6 1.611890 1_555
O24 P4 1.619833 1_445
O25 P2 1.497372 1_555
O26 P6 1.497372 1_555
O27 P5 1.511280 1_555
O28 P6 1.597607 1_555
O28 P1 1.608713 1_555
O29 P7 1.511013 1_555
