# generated using pymatgen
data_MgCr4O8
_symmetry_space_group_name_H-M   'P 1'
_cell_length_a   4.79656673
_cell_length_b   4.96900167
_cell_length_c   5.59516400
_cell_angle_alpha   89.99987080
_cell_angle_beta   89.99991151
_cell_angle_gamma   90.39634449
_symmetry_Int_Tables_number   1
_chemical_formula_structural   MgCr4O8
_chemical_formula_sum   'Mg1 Cr4 O8'
_cell_volume   133.35277656
_cell_formula_units_Z   1
loop_
 _symmetry_equiv_pos_site_id
 _symmetry_equiv_pos_as_xyz
  1  'x, y, z'
loop_
 _atom_site_type_symbol
 _atom_site_label
 _atom_site_symmetry_multiplicity
 _atom_site_fract_x
 _atom_site_fract_y
 _atom_site_fract_z
 _atom_site_occupancy
  Mg  Mg0  1  0.00000600  0.75000100  0.39145500  1
  Cr  Cr0  1  0.50000900  0.24999800  0.64681800  1
  Cr  Cr1  1  0.99999400  0.75001100  0.86386100  1
  Cr  Cr2  1  0.49999100  0.75000200  0.34913200  1
  Cr  Cr3  1  0.00000600  0.24999000  0.13661700  1
  O  O0  1  0.78305200  0.08646500  0.88205900  1
  O  O1  1  0.73001000  0.58796400  0.61532900  1
  O  O2  1  0.26998800  0.91203500  0.61533000  1
  O  O3  1  0.21694300  0.41353100  0.88206100  1
  O  O4  1  0.22187000  0.91691200  0.12205100  1
  O  O5  1  0.25847200  0.42016900  0.37709500  1
  O  O6  1  0.74152400  0.07983300  0.37709200  1
  O  O7  1  0.77813300  0.58308900  0.12205000  1
loop_
_geom_bond_atom_site_label_1
_geom_bond_atom_site_label_2
_geom_bond_distance
_geom_bond_site_symmetry_2
Mg0 O2 1.969743 1_555
Mg0 O1 1.969785 1_455
Mg0 O4 2.019969 1_555
Mg0 O7 2.020003 1_455
Mg0 O5 2.063409 1_555
Mg0 O6 2.063456 1_465
Cr0 O1 2.010652 1_555
Cr0 O2 2.010692 1_545
Cr0 O0 2.061834 1_555
Cr0 O3 2.061914 1_555
Cr0 O6 2.085201 1_555
Cr0 O5 2.085260 1_555
Cr1 O7 1.973601 1_556
Cr1 O4 1.973605 1_656
Cr1 O0 1.977950 1_565
Cr1 O3 1.978078 1_655
Cr1 O2 2.060237 1_655
Cr1 O1 2.060260 1_555
Cr2 O5 2.006582 1_555
Cr2 O6 2.006612 1_565
Cr2 O2 2.023864 1_555
Cr2 O1 2.023911 1_555
Cr2 O4 2.024132 1_555
Cr2 O7 2.024208 1_555
Cr3 O3 1.939072 1_554
Cr3 O0 1.939095 1_454
Cr3 O4 1.975536 1_545
Cr3 O7 1.975647 1_455
Cr3 O6 2.011941 1_455
Cr3 O5 2.011956 1_555
