# generated using pymatgen
data_LiH6BrO7
_symmetry_space_group_name_H-M   'P 1'
_cell_length_a   7.89848418
_cell_length_b   7.89848418
_cell_length_c   5.69737200
_cell_angle_alpha   90.00000000
_cell_angle_beta   90.00000000
_cell_angle_gamma   120.00000148
_symmetry_Int_Tables_number   1
_chemical_formula_structural   LiH6BrO7
_chemical_formula_sum   'Li2 H12 Br2 O14'
_cell_volume   307.81707501
_cell_formula_units_Z   2
loop_
 _symmetry_equiv_pos_site_id
 _symmetry_equiv_pos_as_xyz
  1  'x, y, z'
loop_
 _atom_site_type_symbol
 _atom_site_label
 _atom_site_symmetry_multiplicity
 _atom_site_fract_x
 _atom_site_fract_y
 _atom_site_fract_z
 _atom_site_occupancy
  Li  Li0  1  0.00000000  0.00000000  0.70656500  1
  Li  Li1  1  0.00000000  0.00000000  0.20656500  1
  H  H0  1  0.73825700  0.67422200  0.94865900  1
  H  H1  1  0.26174300  0.93596400  0.44865900  1
  H  H2  1  0.32577800  0.06403600  0.94865900  1
  H  H3  1  0.93596400  0.26174300  0.94865900  1
  H  H4  1  0.06403600  0.73825700  0.44865900  1
  H  H5  1  0.26174300  0.32577800  0.44865900  1
  H  H6  1  0.67422200  0.93596400  0.44865900  1
  H  H7  1  0.73825700  0.06403600  0.94865900  1
  H  H8  1  0.67422200  0.73825700  0.44865900  1
  H  H9  1  0.06403600  0.32577800  0.44865900  1
  H  H10  1  0.93596400  0.67422200  0.94865900  1
  H  H11  1  0.32577800  0.26174300  0.94865900  1
  Br  Br0  1  0.33333300  0.66666700  0.00225000  1
  Br  Br1  1  0.66666700  0.33333300  0.50225000  1
  O  O0  1  0.88056100  0.76112300  0.95374400  1
  O  O1  1  0.55290800  0.10581600  0.40214900  1
  O  O2  1  0.76112300  0.88056100  0.45374400  1
  O  O3  1  0.88056100  0.11943900  0.95374400  1
  O  O4  1  0.11943900  0.88056100  0.45374400  1
  O  O5  1  0.55290800  0.44709200  0.40214900  1
  O  O6  1  0.10581600  0.55290800  0.90214900  1
  O  O7  1  0.44709200  0.89418400  0.90214900  1
  O  O8  1  0.11943900  0.23887700  0.45374400  1
  O  O9  1  0.89418400  0.44709200  0.40214900  1
  O  O10  1  0.44709200  0.55290800  0.90214900  1
  O  O11  1  0.66666700  0.33333300  0.79085100  1
  O  O12  1  0.33333300  0.66666700  0.29085100  1
  O  O13  1  0.23887700  0.11943900  0.95374400  1
loop_
_geom_bond_atom_site_label_1
_geom_bond_atom_site_label_2
_geom_bond_distance
_geom_bond_site_symmetry_2
Li0 O13 2.157114 1_555
Li0 O0 2.157114 1_445
Li0 O3 2.157119 1_455
Li0 O8 2.178236 1_555
Li0 O2 2.178236 1_445
Li0 O4 2.178241 1_545
Li1 O8 2.157114 1_555
Li1 O2 2.157114 1_445
Li1 O4 2.157119 1_545
Li1 O13 2.178236 1_554
Li1 O0 2.178236 1_444
Li1 O3 2.178241 1_454
H0 O0 0.981744 1_555
H1 O4 0.981744 1_555
H2 O13 0.981744 1_555
H3 O3 0.981744 1_555
H4 O4 0.981744 1_555
H5 O8 0.981744 1_555
H6 O2 0.981744 1_555
H7 O3 0.981744 1_555
H8 O2 0.981744 1_555
H9 O8 0.981744 1_555
H10 O0 0.981744 1_555
H11 O13 0.981744 1_555
Br0 O12 1.644267 1_555
Br0 O7 1.657489 1_554
Br0 O6 1.657489 1_554
Br0 O10 1.657495 1_554
Br1 O11 1.644267 1_555
Br1 O9 1.657489 1_555
Br1 O1 1.657489 1_555
Br1 O5 1.657495 1_555
