# generated using pymatgen
data_NaFeAs
_symmetry_space_group_name_H-M   'P 1'
_cell_length_a   3.87676772
_cell_length_b   3.87676772
_cell_length_c   7.32216623
_cell_angle_alpha   90.00000000
_cell_angle_beta   90.00000000
_cell_angle_gamma   90.00000000
_symmetry_Int_Tables_number   1
_chemical_formula_structural   NaFeAs
_chemical_formula_sum   'Na2 Fe2 As2'
_cell_volume   110.04723761
_cell_formula_units_Z   2
loop_
 _symmetry_equiv_pos_site_id
 _symmetry_equiv_pos_as_xyz
  1  'x, y, z'
loop_
 _atom_site_type_symbol
 _atom_site_label
 _atom_site_symmetry_multiplicity
 _atom_site_fract_x
 _atom_site_fract_y
 _atom_site_fract_z
 _atom_site_occupancy
  Na  Na0  1  0.75000000  0.75000000  0.35718430  1
  Na  Na1  1  0.25000000  0.25000000  0.64281570  1
  Fe  Fe0  1  0.75000000  0.25000000  0.00000000  1
  Fe  Fe1  1  0.25000000  0.75000000  0.00000000  1
  As  As0  1  0.25000000  0.25000000  0.21371917  1
  As  As1  1  0.75000000  0.75000000  0.78628083  1
loop_
_geom_bond_atom_site_label_1
_geom_bond_atom_site_label_2
_geom_bond_distance
_geom_bond_site_symmetry_2
As0 Fe0 2.491225 1_455
As0 Fe1 2.491225 1_545
As0 Fe0 2.491225 1_555
As0 Fe1 2.491225 1_555
As0 Na0 2.935671 1_555
As0 Na0 2.935671 1_445
As0 Na0 2.935671 1_545
As0 Na0 2.935671 1_455
As0 Na1 3.141916 1_555
As1 Fe1 2.491225 1_656
As1 Fe0 2.491225 1_556
As1 Fe1 2.491225 1_556
As1 Fe0 2.491225 1_566
As1 Na1 2.935671 1_565
As1 Na1 2.935671 1_555
As1 Na1 2.935671 1_655
As1 Na1 2.935671 1_665
As1 Na0 3.141916 1_555
