# generated using pymatgen
data_UGeIr
_symmetry_space_group_name_H-M   'P 1'
_cell_length_a   4.37580586
_cell_length_b   6.89052622
_cell_length_c   7.57156492
_cell_angle_alpha   89.99701646
_cell_angle_beta   90.00000000
_cell_angle_gamma   90.00000000
_symmetry_Int_Tables_number   1
_chemical_formula_structural   UGeIr
_chemical_formula_sum   'U4 Ge4 Ir4'
_cell_volume   228.29483464
_cell_formula_units_Z   4
loop_
 _symmetry_equiv_pos_site_id
 _symmetry_equiv_pos_as_xyz
  1  'x, y, z'
loop_
 _atom_site_type_symbol
 _atom_site_label
 _atom_site_symmetry_multiplicity
 _atom_site_fract_x
 _atom_site_fract_y
 _atom_site_fract_z
 _atom_site_occupancy
  U  U0  1  0.25000000  0.48802450  0.20794820  1
  U  U1  1  0.75000000  0.51196487  0.79201789  1
  U  U2  1  0.25000000  0.98803555  0.29198011  1
  U  U3  1  0.75000000  0.01196522  0.70804161  1
  Ge  Ge0  1  0.25000000  0.81787492  0.91601507  1
  Ge  Ge1  1  0.75000000  0.18209228  0.08397993  1
  Ge  Ge2  1  0.25000000  0.31782876  0.58399101  1
  Ge  Ge3  1  0.75000000  0.68217995  0.41600942  1
  Ir  Ir0  1  0.75000000  0.77745891  0.08730843  1
  Ir  Ir1  1  0.25000000  0.22257555  0.91267151  1
  Ir  Ir2  1  0.75000000  0.27736343  0.41268191  1
  Ir  Ir3  1  0.25000000  0.72263606  0.58735590  1
loop_
_geom_bond_atom_site_label_1
_geom_bond_atom_site_label_2
_geom_bond_distance
_geom_bond_site_symmetry_2
Ge0 Ir0 2.558621 1_556
Ge0 Ir0 2.558621 1_456
Ge0 Ir3 2.573574 1_555
Ge0 Ir1 2.788714 1_565
Ge0 U3 3.009141 1_465
Ge0 U3 3.009141 1_565
Ge0 U2 3.078713 1_556
Ge0 U0 3.170350 1_556
Ge0 U1 3.179895 1_455
Ge0 U1 3.179895 1_555
Ge1 Ir1 2.558729 1_554
Ge1 Ir1 2.558729 1_654
Ge1 Ir2 2.573944 1_555
Ge1 Ir0 2.788249 1_545
Ge1 U2 3.009144 1_545
Ge1 U2 3.009144 1_645
Ge1 U3 3.078438 1_554
Ge1 U1 3.170612 1_554
Ge1 U0 3.179932 1_655
Ge1 U0 3.179932 1_555
Ge2 Ir2 2.558733 1_555
Ge2 Ir2 2.558733 1_455
Ge2 Ir1 2.573689 1_555
Ge2 Ir3 2.789453 1_555
Ge2 U1 3.009566 1_555
Ge2 U1 3.009566 1_455
Ge2 U0 3.079237 1_555
Ge2 U2 3.170643 1_545
Ge2 U3 3.179737 1_455
Ge2 U3 3.179737 1_555
Ge3 Ir3 2.558869 1_655
Ge3 Ir3 2.558869 1_555
Ge3 Ir0 2.573885 1_555
Ge3 Ir2 2.789514 1_555
Ge3 U0 3.009761 1_655
Ge3 U0 3.009761 1_555
Ge3 U1 3.079047 1_555
Ge3 U3 3.170716 1_565
Ge3 U2 3.179653 1_555
Ge3 U2 3.179653 1_655
Ir0 U1 2.888938 1_554
Ir0 U2 3.048611 1_655
Ir0 U2 3.048611 1_555
Ir0 U0 3.098151 1_555
Ir0 U0 3.098151 1_655
Ir0 U3 3.294980 1_564
Ir1 U0 2.888660 1_556
Ir1 U3 3.048561 1_455
Ir1 U3 3.048561 1_555
Ir1 U1 3.097982 1_555
Ir1 U1 3.097982 1_455
Ir1 U2 3.295370 1_546
Ir2 U3 2.888777 1_555
Ir2 U0 3.049050 1_655
Ir2 U0 3.049050 1_555
Ir2 U2 3.097878 1_545
Ir2 U2 3.097878 1_645
Ir2 U1 3.295905 1_555
Ir3 U2 2.888877 1_555
Ir3 U1 3.048807 1_455
Ir3 U1 3.048807 1_555
Ir3 U3 3.097848 1_465
Ir3 U3 3.097848 1_565
Ir3 U0 3.296412 1_555
