# generated using pymatgen
data_SmInRh
_symmetry_space_group_name_H-M   'P 1'
_cell_length_a   7.53122634
_cell_length_b   7.53122634
_cell_length_c   4.00772194
_cell_angle_alpha   90.00000000
_cell_angle_beta   90.00000000
_cell_angle_gamma   120.00000231
_symmetry_Int_Tables_number   1
_chemical_formula_structural   SmInRh
_chemical_formula_sum   'Sm3 In3 Rh3'
_cell_volume   196.86096232
_cell_formula_units_Z   3
loop_
 _symmetry_equiv_pos_site_id
 _symmetry_equiv_pos_as_xyz
  1  'x, y, z'
loop_
 _atom_site_type_symbol
 _atom_site_label
 _atom_site_symmetry_multiplicity
 _atom_site_fract_x
 _atom_site_fract_y
 _atom_site_fract_z
 _atom_site_occupancy
  Sm  Sm0  1  -0.00000000  0.40902174  0.50000000  1
  Sm  Sm1  1  0.59097826  0.59097826  0.50000000  1
  Sm  Sm2  1  0.40902174  -0.00000000  0.50000000  1
  In  In0  1  0.25212886  0.25212886  -0.00000000  1
  In  In1  1  -0.00000000  0.74787114  0.00000000  1
  In  In2  1  0.74787114  -0.00000000  -0.00000000  1
  Rh  Rh0  1  0.33333300  0.66666700  -0.00000000  1
  Rh  Rh1  1  0.00000000  0.00000000  0.50000000  1
  Rh  Rh2  1  0.66666700  0.33333300  -0.00000000  1
loop_
_geom_bond_atom_site_label_1
_geom_bond_atom_site_label_2
_geom_bond_distance
_geom_bond_site_symmetry_2
In0 Rh1 2.760625 1_555
In0 Rh1 2.760625 1_554
In0 Rh0 2.865567 1_555
In0 Rh2 2.865567 1_555
In0 Sm1 3.244675 1_555
In0 Sm1 3.244675 1_554
In0 Sm0 3.355723 1_555
In0 Sm2 3.355723 1_555
In0 Sm2 3.355723 1_554
In0 Sm0 3.355723 1_554
In1 Rh1 2.760625 1_565
In1 Rh1 2.760625 1_564
In1 Rh0 2.865560 1_555
In1 Rh2 2.865565 1_455
In1 Sm0 3.244675 1_555
In1 Sm0 3.244675 1_554
In1 Sm2 3.355723 1_565
In1 Sm2 3.355723 1_564
In1 Sm1 3.355723 1_455
In1 Sm1 3.355723 1_454
In2 Rh1 2.760625 1_655
In2 Rh1 2.760625 1_654
In2 Rh2 2.865560 1_555
In2 Rh0 2.865565 1_545
In2 Sm2 3.244675 1_555
In2 Sm2 3.244675 1_554
In2 Sm0 3.355723 1_654
In2 Sm0 3.355723 1_655
In2 Sm1 3.355723 1_544
In2 Sm1 3.355723 1_545
Rh0 Sm2 3.035050 1_564
Rh0 Sm2 3.035050 1_565
Rh0 Sm0 3.035051 1_554
Rh0 Sm0 3.035051 1_555
Rh0 Sm1 3.035055 1_554
Rh0 Sm1 3.035055 1_555
Rh1 Sm1 3.080435 1_445
Rh1 Sm2 3.080435 1_555
Rh1 Sm0 3.080435 1_555
Rh2 Sm0 3.035050 1_654
Rh2 Sm0 3.035050 1_655
Rh2 Sm2 3.035051 1_554
Rh2 Sm2 3.035051 1_555
Rh2 Sm1 3.035055 1_554
Rh2 Sm1 3.035055 1_555
