# generated using pymatgen
data_Na2La2Ta6Si7S5O48
_symmetry_space_group_name_H-M   'P 1'
_cell_length_a   17.94549254
_cell_length_b   9.02924624
_cell_length_c   23.46595813
_cell_angle_alpha   90.02072674
_cell_angle_beta   89.99918305
_cell_angle_gamma   120.22774880
_symmetry_Int_Tables_number   1
_chemical_formula_structural   Na2La2Ta6Si7S5O48
_chemical_formula_sum   'Na6 La6 Ta18 Si21 S15 O144'
_cell_volume   3285.29597277
_cell_formula_units_Z   3
loop_
 _symmetry_equiv_pos_site_id
 _symmetry_equiv_pos_as_xyz
  1  'x, y, z'
loop_
 _atom_site_type_symbol
 _atom_site_label
 _atom_site_symmetry_multiplicity
 _atom_site_fract_x
 _atom_site_fract_y
 _atom_site_fract_z
 _atom_site_occupancy
  Na  Na0  1  0.99429697  0.00068943  0.49691929  1
  Na  Na1  1  0.49542894  0.00262320  0.99304599  1
  Na  Na2  1  0.33690657  0.32175558  0.83236373  1
  Na  Na3  1  0.82387105  0.33879044  0.82997113  1
  Na  Na4  1  0.32453670  0.31024109  0.33526762  1
  Na  Na5  1  0.83527101  0.35209922  0.34008798  1
  La  La0  1  0.99882236  0.97656669  0.35427206  1
  La  La1  1  0.49973532  0.02194217  0.85213821  1
  La  La2  1  0.99134161  0.01692732  0.64962671  1
  La  La3  1  0.49340213  0.97973097  0.15458297  1
  La  La4  1  0.83960726  0.33597580  0.97796458  1
  La  La5  1  0.33811227  0.34140264  0.47807097  1
  Ta  Ta0  1  0.50149900  0.99649596  0.35740125  1
  Ta  Ta1  1  0.00194326  0.00393289  0.85458229  1
  Ta  Ta2  1  0.50287910  0.00661188  0.64662806  1
  Ta  Ta3  1  0.00185347  0.99921469  0.14721599  1
  Ta  Ta4  1  0.32220266  0.33337453  0.68708139  1
  Ta  Ta5  1  0.83287966  0.30710527  0.68534137  1
  Ta  Ta6  1  0.33129709  0.34912904  0.18796614  1
  Ta  Ta7  1  0.82283099  0.31019789  0.18860467  1
  Ta  Ta8  1  0.32302453  0.32624207  0.97276739  1
  Ta  Ta9  1  0.82715095  0.31831592  0.47470636  1
  Ta  Ta10  1  0.16711618  0.66753549  0.02162688  1
  Ta  Ta11  1  0.67996837  0.67515430  0.01941426  1
  Ta  Ta12  1  0.17232614  0.67350789  0.52395962  1
  Ta  Ta13  1  0.66909399  0.66594867  0.52250890  1
  Ta  Ta14  1  0.16298575  0.68052123  0.31222383  1
  Ta  Ta15  1  0.68305699  0.67961853  0.31156205  1
  Ta  Ta16  1  0.18243646  0.68604968  0.81040556  1
  Ta  Ta17  1  0.66166347  0.64416856  0.81043237  1
  Si  Si0  1  0.14931540  0.00461889  0.24850194  1
  Si  Si1  1  0.64536569  0.99259535  0.25411774  1
  Si  Si2  1  0.34783750  0.70123081  0.25620900  1
  Si  Si3  1  0.85453824  0.69899266  0.24564811  1
  Si  Si4  1  0.14673069  0.29833685  0.75364345  1
  Si  Si5  1  0.65300077  0.29464253  0.74759641  1
  Si  Si6  1  0.35515922  0.01122217  0.74566828  1
  Si  Si7  1  0.84759678  0.99467073  0.75615833  1
  Si  Si8  1  0.97749980  0.34560549  0.57767325  1
  Si  Si9  1  0.68787796  0.04024695  0.58170844  1
  Si  Si10  1  0.33596027  0.63296006  0.58407467  1
  Si  Si11  1  0.83407263  0.03708549  0.08455567  1
  Si  Si12  1  0.18894678  0.33597436  0.08296950  1
  Si  Si13  1  0.31003361  0.66879232  0.91986299  1
  Si  Si14  1  0.81247437  0.67092983  0.91120071  1
  Si  Si15  1  0.52361700  0.39152611  0.92195558  1
  Si  Si16  1  0.16144785  0.94018971  0.91686777  1
  Si  Si17  1  0.31039831  0.95035235  0.41466950  1
  Si  Si18  1  0.81007569  0.95329288  0.42029951  1
  Si  Si19  1  0.66390550  0.38317818  0.41727299  1
  Si  Si20  1  0.02306208  0.65585238  0.42128482  1
  S  S0  1  0.99884693  0.29874061  0.24562045  1
  S  S1  1  0.50023077  0.30270551  0.25489242  1
  S  S2  1  0.00079997  0.70115905  0.75578436  1
  S  S3  1  0.49828732  0.69698679  0.74581954  1
  S  S4  1  0.48337941  0.33461348  0.58706761  1
  S  S5  1  0.18772982  0.03124650  0.58429696  1
  S  S6  1  0.82798311  0.60631147  0.57803926  1
  S  S7  1  0.47612115  0.60391804  0.07817836  1
  S  S8  1  0.98361416  0.63317214  0.08710891  1
  S  S9  1  0.32866756  0.04793389  0.07795873  1
  S  S10  1  0.68691504  0.34346350  0.08359796  1
  S  S11  1  0.03303475  0.38417276  0.91252185  1
  S  S12  1  0.66493883  0.93661785  0.91691528  1
  S  S13  1  0.16523359  0.39478573  0.41687876  1
  S  S14  1  0.53244514  0.68003753  0.41258076  1
  O  O0  1  0.12820832  0.07081019  0.30542997  1
  O  O1  1  0.59676980  0.03244067  0.30600321  1
  O  O2  1  0.42086052  0.80918187  0.30545024  1
  O  O3  1  0.90354378  0.74077036  0.30491964  1
  O  O4  1  0.48168301  0.17958412  0.30245944  1
  O  O5  1  0.97358430  0.19717886  0.29781161  1
  O  O6  1  0.09857320  0.16424834  0.80692821  1
  O  O7  1  0.62834576  0.18749685  0.80566623  1
  O  O8  1  0.47365064  0.74870826  0.79856352  1
  O  O9  1  0.98613820  0.79510125  0.80413733  1
  O  O10  1  0.40225906  0.06406830  0.80612798  1
  O  O11  1  0.92032122  0.03128748  0.80638903  1
  O  O12  1  0.40888464  0.98148904  0.69562296  1
  O  O13  1  0.87164233  0.94021933  0.69782373  1
  O  O14  1  0.09996038  0.23717283  0.69414413  1
  O  O15  1  0.58541318  0.18611714  0.69652021  1
  O  O16  1  0.02090889  0.79917875  0.70293727  1
  O  O17  1  0.51260643  0.81357124  0.69774321  1
  O  O18  1  0.37331606  0.79973695  0.19651330  1
  O  O19  1  0.90816414  0.83540247  0.19484700  1
  O  O20  1  0.01164629  0.20859381  0.19696841  1
  O  O21  1  0.52067706  0.24529576  0.20176459  1
  O  O22  1  0.08438903  0.98244412  0.19619688  1
  O  O23  1  0.59940284  0.96204583  0.19367812  1
  O  O24  1  0.43763708  0.36004167  0.63477892  1
  O  O25  1  0.93136137  0.36422457  0.63781478  1
  O  O26  1  0.24195329  0.13014977  0.63535213  1
  O  O27  1  0.75317596  0.13021047  0.63819377  1
  O  O28  1  0.31885636  0.49535245  0.63773971  1
  O  O29  1  0.81752483  0.50885238  0.63060971  1
  O  O30  1  0.43622478  0.50786385  0.13317603  1
  O  O31  1  0.93838621  0.51558968  0.13457276  1
  O  O32  1  0.32105995  0.12927012  0.13073535  1
  O  O33  1  0.81721733  0.14111305  0.13753320  1
  O  O34  1  0.25661850  0.37457981  0.13792849  1
  O  O35  1  0.74032149  0.35630737  0.13466447  1
  O  O36  1  0.23813507  0.30874393  0.02855105  1
  O  O37  1  0.72451111  0.31916572  0.03173292  1
  O  O38  1  0.41856899  0.50546675  0.03005357  1
  O  O39  1  0.93485005  0.57933816  0.03402758  1
  O  O40  1  0.33517176  0.15040991  0.02692946  1
  O  O41  1  0.85600325  0.14722103  0.02767877  1
  O  O42  1  0.22505083  0.13192310  0.53272534  1
  O  O43  1  0.73293761  0.16264224  0.52675320  1
  O  O44  1  0.35965652  0.56503924  0.52828063  1
  O  O45  1  0.83206401  0.51923137  0.52624512  1
  O  O46  1  0.43476400  0.29127677  0.53398550  1
  O  O47  1  0.91083538  0.32777336  0.52647164  1
  O  O48  1  0.25224705  0.67759876  0.97399830  1
  O  O49  1  0.76819872  0.69083193  0.97249199  1
  O  O50  1  0.07533357  0.46081458  0.96892761  1
  O  O51  1  0.58658167  0.50476364  0.97562009  1
  O  O52  1  0.14788792  0.82229163  0.97398178  1
  O  O53  1  0.66942138  0.85092612  0.97176520  1
  O  O54  1  0.26620163  0.84315828  0.47344747  1
  O  O55  1  0.75190167  0.82677145  0.47377898  1
  O  O56  1  0.16951134  0.48640743  0.47124290  1
  O  O57  1  0.64735893  0.47296826  0.47369013  1
  O  O58  1  0.08833627  0.67245345  0.47288838  1
  O  O59  1  0.57460796  0.68978803  0.46812266  1
  O  O60  1  0.06532081  0.63664987  0.36000570  1
  O  O61  1  0.57951402  0.66618629  0.36388865  1
  O  O62  1  0.24593872  0.84476243  0.36011740  1
  O  O63  1  0.75863043  0.85811916  0.36104376  1
  O  O64  1  0.16316550  0.48653573  0.36537000  1
  O  O65  1  0.67900841  0.50471884  0.36149776  1
  O  O66  1  0.07995483  0.49483181  0.86474747  1
  O  O67  1  0.56426241  0.49470349  0.86143700  1
  O  O68  1  0.18098524  0.85574915  0.86198643  1
  O  O69  1  0.66226648  0.84084976  0.86605180  1
  O  O70  1  0.25821166  0.65683905  0.86123109  1
  O  O71  1  0.74403742  0.64610381  0.86058591  1
  O  O72  1  0.01760749  0.82758936  0.42468073  1
  O  O73  1  0.52751077  0.84186164  0.40791661  1
  O  O74  1  0.40371417  0.95933987  0.40179072  1
  O  O75  1  0.90364786  0.97920001  0.42327878  1
  O  O76  1  0.08787833  0.22636690  0.41996585  1
  O  O77  1  0.57982554  0.19449415  0.40214447  1
  O  O78  1  0.02844995  0.21434737  0.90809355  1
  O  O79  1  0.51730809  0.20861943  0.92511566  1
  O  O80  1  0.07993838  0.96621395  0.90320941  1
  O  O81  1  0.58663462  0.94836025  0.92204707  1
  O  O82  1  0.40446584  0.82789770  0.92355743  1
  O  O83  1  0.90422187  0.84857358  0.90201579  1
  O  O84  1  0.49912884  0.18914074  0.59889808  1
  O  O85  1  0.98413458  0.17461083  0.57604108  1
  O  O86  1  0.09976699  0.99425600  0.59141092  1
  O  O87  1  0.59531741  0.02032448  0.59895766  1
  O  O88  1  0.41655207  0.81805200  0.60395512  1
  O  O89  1  0.90320332  0.77879679  0.57933228  1
  O  O90  1  0.48209197  0.77256864  0.07891308  1
  O  O91  1  0.99962814  0.81005510  0.09890046  1
  O  O92  1  0.40333395  0.02446167  0.07886868  1
  O  O93  1  0.91446060  0.01142640  0.10350483  1
  O  O94  1  0.09656126  0.17033468  0.09886216  1
  O  O95  1  0.59840982  0.20269605  0.08980087  1
  O  O96  1  0.33838357  0.16619195  0.72601270  1
  O  O97  1  0.84460868  0.17680473  0.74541355  1
  O  O98  1  0.24653553  0.32262862  0.74615448  1
  O  O99  1  0.75062937  0.34204377  0.72762496  1
  O  O100  1  0.42438777  0.51767971  0.73189146  1
  O  O101  1  0.92162561  0.53000660  0.75052990  1
  O  O102  1  0.34510143  0.51142334  0.24374473  1
  O  O103  1  0.83729427  0.51051982  0.22456899  1
  O  O104  1  0.42095801  0.31757913  0.24544370  1
  O  O105  1  0.92407397  0.32897045  0.23114757  1
  O  O106  1  0.24779841  0.15810007  0.22685222  1
  O  O107  1  0.74528656  0.16877989  0.24572612  1
  O  O108  1  0.30876097  0.48389246  0.92655317  1
  O  O109  1  0.82266479  0.50497999  0.91120666  1
  O  O110  1  0.42607502  0.37038971  0.93022328  1
  O  O111  1  0.94558878  0.35860167  0.91133598  1
  O  O112  1  0.24820256  0.13250615  0.92727475  1
  O  O113  1  0.74385393  0.10610217  0.91465947  1
  O  O114  1  0.32412857  0.14030318  0.41117637  1
  O  O115  1  0.80748696  0.13273806  0.42416127  1
  O  O116  1  0.24495542  0.38386849  0.41326089  1
  O  O117  1  0.74925987  0.36579959  0.42637654  1
  O  O118  1  0.44484470  0.53174942  0.41022655  1
  O  O119  1  0.92543975  0.48290517  0.42595942  1
  O  O120  1  0.17566276  0.50057439  0.06977693  1
  O  O121  1  0.68704407  0.50984726  0.07887846  1
  O  O122  1  0.06932253  0.64565435  0.07868752  1
  O  O123  1  0.56204540  0.62185620  0.07319731  1
  O  O124  1  0.24736896  0.87338883  0.07216364  1
  O  O125  1  0.74508386  0.85018114  0.07525008  1
  O  O126  1  0.19084282  0.86955730  0.58117154  1
  O  O127  1  0.67400090  0.84790314  0.56941466  1
  O  O128  1  0.24891333  0.64410782  0.57502061  1
  O  O129  1  0.74729906  0.62422906  0.57254822  1
  O  O130  1  0.07303548  0.51597388  0.56956110  1
  O  O131  1  0.56894222  0.49304334  0.57927720  1
  O  O132  1  0.15521727  0.82980933  0.25774457  1
  O  O133  1  0.65899575  0.83373141  0.27015297  1
  O  O134  1  0.25065629  0.65052359  0.27377465  1
  O  O135  1  0.75872132  0.68052951  0.25522222  1
  O  O136  1  0.07559166  0.46844046  0.25206451  1
  O  O137  1  0.57185144  0.47586935  0.26959837  1
  O  O138  1  0.16011281  0.48445379  0.77074078  1
  O  O139  1  0.65517815  0.47983303  0.75797335  1
  O  O140  1  0.07368697  0.67426596  0.77143212  1
  O  O141  1  0.57525056  0.68034024  0.75347664  1
  O  O142  1  0.25911487  0.83713266  0.75527073  1
  O  O143  1  0.75025433  0.84915073  0.77510954  1
loop_
_geom_bond_atom_site_label_1
_geom_bond_atom_site_label_2
_geom_bond_distance
_geom_bond_site_symmetry_2
Na0 O75 2.313462 1_545
Na0 O72 2.479464 1_645
Na0 O85 2.496559 1_555
Na0 O76 2.605829 1_655
Na0 O89 2.670463 1_545
Na0 O86 2.934830 1_645
Na1 O82 2.284231 1_545
Na1 O79 2.328419 1_555
Na1 O81 2.549796 1_545
Na1 O92 2.674668 1_556
Na1 O90 2.816842 1_546
Na1 O95 2.910214 1_556
Na2 O98 2.595300 1_555
Na2 O110 2.705282 1_555
Na2 O112 2.770928 1_555
Na2 O108 2.832960 1_555
Na2 O96 2.869979 1_555
Na2 O100 2.891252 1_555
Na3 O109 2.432420 1_555
Na3 O101 2.546776 1_555
Na3 O97 2.600153 1_555
Na3 O113 2.718592 1_555
Na3 O99 2.745058 1_555
Na3 O111 2.838133 1_555
Na4 O114 2.349055 1_555
Na4 O116 2.605010 1_555
Na4 O104 2.706626 1_555
Na4 O102 2.715927 1_555
Na4 O118 2.721256 1_555
Na4 O106 2.889399 1_555
Na5 O119 2.479479 1_555
Na5 O117 2.586447 1_555
Na5 O115 2.659373 1_555
Na5 O107 2.748943 1_555
La0 O72 2.260768 1_655
La0 O3 2.265065 1_555
La0 O0 2.332412 1_665
La0 O75 2.362332 1_555
La0 O76 2.527045 1_665
La0 O5 2.615091 1_565
La1 O10 2.245122 1_555
La1 O7 2.297355 1_555
La1 O79 2.309952 1_555
La1 O82 2.405702 1_545
La1 O81 2.570708 1_545
La1 O8 2.592521 1_545
La2 O13 2.208056 1_545
La2 O14 2.222847 1_655
La2 O85 2.283136 1_555
La2 O86 2.468765 1_645
La2 O89 2.533583 1_545
La2 O16 2.600818 1_645
La3 O18 2.174432 1_555
La3 O23 2.188979 1_555
La3 O21 2.455897 1_565
La3 O95 2.469266 1_565
La3 O90 2.511648 1_555
La3 O92 2.567137 1_565
La4 O41 2.204213 1_556
La4 O109 2.311708 1_555
La4 O37 2.359133 1_556
La4 O39 2.386824 1_556
La4 O111 2.390062 1_555
La4 O113 2.423687 1_555
La5 O44 2.197124 1_555
La5 O114 2.315875 1_555
La5 O42 2.340230 1_555
La5 O46 2.392842 1_555
La5 O118 2.417525 1_555
La5 O116 2.429113 1_555
O0 Si0 1.585106 1_555
O1 Si1 1.639489 1_545
O1 Ta0 1.981050 1_545
O2 Si2 1.647913 1_555
O2 Ta0 1.993741 1_555
O3 Si3 1.586136 1_555
O4 S1 1.490263 1_555
O4 Ta0 2.261642 1_545
O5 S0 1.458971 1_555
O6 Si4 1.650363 1_555
O6 Ta1 1.956159 1_555
O7 Si5 1.599535 1_555
O8 S3 1.467273 1_555
O9 S2 1.516626 1_655
O9 Ta1 2.120625 1_665
O10 Si6 1.596369 1_555
O11 Si7 1.663491 1_545
O11 Ta1 1.962128 1_655
O12 Si6 1.625147 1_565
O12 Ta2 1.957903 1_565
O13 Si7 1.585831 1_555
O14 Si4 1.578483 1_555
O15 Si5 1.634119 1_555
O15 Ta2 1.942411 1_555
O16 S2 1.459656 1_555
O17 S3 1.474915 1_555
O17 Ta2 2.194346 1_565
O18 Si2 1.598078 1_555
O19 Si3 1.634567 1_555
O19 Ta3 1.939332 1_655
O20 S0 1.485346 1_455
O20 Ta3 2.152191 1_545
O21 S1 1.465813 1_555
O22 Si0 1.633734 1_565
O22 Ta3 1.940049 1_555
O23 Si1 1.593296 1_555
O24 S4 1.472949 1_555
O24 Ta4 2.313754 1_555
O25 Si8 1.686851 1_555
O25 Ta5 1.927632 1_555
O26 S5 1.517895 1_555
O26 Ta4 2.062094 1_555
O27 Si9 1.682476 1_555
O27 Ta5 1.876034 1_555
O28 Si10 1.685518 1_555
O28 Ta4 1.890211 1_555
O29 S6 1.471696 1_555
O29 Ta5 2.356025 1_555
O30 S7 1.518534 1_555
O30 Ta6 2.129971 1_555
O31 S8 1.469572 1_555
O31 Ta7 2.340202 1_555
O32 S9 1.480556 1_555
O32 Ta6 2.325741 1_555
O33 Si11 1.674646 1_555
O33 Ta7 1.902911 1_555
O34 Si12 1.683155 1_555
O34 Ta6 1.880910 1_555
O35 S10 1.501996 1_555
O35 Ta7 2.142195 1_555
O36 Si12 1.639686 1_555
O36 Ta8 1.953698 1_554
O37 S10 1.460612 1_555
O38 S7 1.485629 1_555
O38 Ta8 2.137856 1_554
O39 S8 1.457703 1_555
O40 S9 1.481794 1_555
O40 Ta8 2.129173 1_554
O41 Si11 1.591236 1_555
O42 S5 1.458491 1_555
O43 Si9 1.624630 1_555
O43 Ta9 1.983492 1_555
O44 Si10 1.591566 1_555
O45 S6 1.469033 1_555
O45 Ta9 2.144486 1_555
O46 S4 1.456630 1_555
O47 Si8 1.645195 1_555
O47 Ta9 1.899730 1_555
O48 Si13 1.666847 1_555
O48 Ta10 1.857840 1_556
O49 Si14 1.695798 1_555
O49 Ta11 1.874501 1_556
O50 S11 1.509139 1_555
O50 Ta10 2.151515 1_556
O51 Si15 1.656449 1_555
O51 Ta11 1.906431 1_556
O52 Si16 1.651929 1_555
O52 Ta10 1.951469 1_556
O53 S12 1.524849 1_555
O53 Ta11 2.026976 1_556
O54 Si17 1.642032 1_555
O54 Ta12 1.998099 1_555
O55 Si18 1.664330 1_555
O55 Ta13 1.858201 1_555
O56 S13 1.501000 1_555
O56 Ta12 2.073499 1_555
O57 Si19 1.655214 1_555
O57 Ta13 1.953185 1_555
O58 Si20 1.638309 1_555
O58 Ta12 1.921901 1_555
O59 S14 1.487220 1_555
O59 Ta13 2.217631 1_555
O60 Si20 1.674846 1_555
O60 Ta14 1.946047 1_555
O61 S14 1.463182 1_555
O61 Ta15 2.179039 1_555
O62 Si17 1.665678 1_555
O62 Ta14 1.858595 1_555
O63 Si18 1.650643 1_555
O63 Ta15 1.892885 1_555
O64 S13 1.476592 1_555
O64 Ta14 2.151861 1_555
O65 Si19 1.640837 1_555
O65 Ta15 1.938580 1_555
O66 S11 1.455267 1_555
O66 Ta16 2.189458 1_555
O67 Si15 1.653307 1_555
O67 Ta17 1.983678 1_555
O68 Si16 1.622098 1_555
O68 Ta16 1.962749 1_555
O69 S12 1.460177 1_555
O69 Ta17 2.199159 1_555
O70 Si13 1.633504 1_555
O70 Ta16 1.924198 1_555
O71 Si14 1.640704 1_555
O71 Ta17 1.882717 1_555
O72 Si20 1.604121 1_555
O73 S14 1.511677 1_555
O73 Ta0 2.056686 1_555
O74 Si17 1.662941 1_555
O74 Ta0 1.919457 1_555
O75 Si18 1.576009 1_555
O76 S13 1.455804 1_555
O77 Si19 1.648176 1_555
O77 Ta0 1.934617 1_545
O78 S11 1.497239 1_555
O78 Ta1 2.121542 1_555
O79 Si15 1.599258 1_555
O80 Si16 1.625932 1_555
O80 Ta1 1.964027 1_565
O81 S12 1.466407 1_555
O82 Si13 1.578537 1_555
O83 Si14 1.634390 1_555
O83 Ta1 1.950948 1_665
O84 S4 1.502103 1_555
O84 Ta2 2.021940 1_555
O85 Si8 1.607633 1_555
O86 S5 1.449269 1_565
O87 Si9 1.629248 1_555
O87 Ta2 1.952357 1_555
O88 Si10 1.633442 1_555
O88 Ta2 1.909053 1_565
O89 S6 1.460069 1_555
O90 S7 1.471854 1_555
O91 S8 1.499163 1_555
O91 Ta3 2.033251 1_655
O92 S9 1.458324 1_555
O93 Si11 1.633743 1_555
O93 Ta3 1.923045 1_645
O94 Si12 1.621210 1_555
O94 Ta3 1.980022 1_545
O95 S10 1.458357 1_555
O96 Si6 1.638875 1_555
O96 Ta4 1.907865 1_555
O97 Si7 1.691162 1_545
O97 Ta5 1.914721 1_555
O98 Si4 1.700387 1_555
O98 Ta4 1.908459 1_555
O99 Si5 1.648457 1_555
O99 Ta5 1.931643 1_555
O100 S3 1.524635 1_555
O100 Ta4 2.040559 1_555
O101 S2 1.487008 1_655
O101 Ta5 2.386953 1_555
O102 Si2 1.714655 1_555
O102 Ta6 1.885490 1_555
O103 Si3 1.644872 1_555
O103 Ta7 1.891403 1_555
O104 S1 1.511076 1_555
O104 Ta6 2.225104 1_555
O105 S0 1.535979 1_555
O105 Ta7 2.004038 1_555
O106 Si0 1.684185 1_555
O106 Ta6 1.857903 1_555
O107 Si1 1.706705 1_545
O107 Ta7 1.890955 1_555
O108 Si13 1.665598 1_555
O108 Ta8 1.906781 1_555
O109 Si14 1.598296 1_555
O110 Si15 1.673844 1_555
O110 Ta8 1.957922 1_555
O111 S11 1.466917 1_655
O112 Si16 1.666269 1_545
O112 Ta8 1.906897 1_555
O113 S12 1.472471 1_545
O114 Si17 1.607370 1_545
O115 Si18 1.646596 1_545
O115 Ta9 1.934496 1_555
O116 S13 1.485147 1_555
O117 Si19 1.630485 1_555
O117 Ta9 2.006901 1_555
O118 S14 1.465505 1_555
O119 Si20 1.662907 1_655
O119 Ta9 1.997509 1_555
O120 Si12 1.648808 1_555
O120 Ta10 1.951119 1_555
O121 S10 1.505275 1_555
O121 Ta11 2.093660 1_555
O122 S8 1.497634 1_455
O122 Ta10 2.136069 1_555
O123 S7 1.471754 1_555
O123 Ta11 2.297307 1_555
O124 S9 1.521692 1_565
O124 Ta10 2.058739 1_555
O125 Si11 1.652915 1_565
O125 Ta11 1.928440 1_555
O126 S5 1.490618 1_565
O126 Ta12 2.110065 1_555
O127 Si9 1.650940 1_565
O127 Ta13 1.942024 1_555
O128 Si10 1.629039 1_555
O128 Ta12 1.939777 1_555
O129 S6 1.541140 1_555
O129 Ta13 2.005736 1_555
O130 Si8 1.639097 1_455
O130 Ta12 1.947396 1_555
O131 S4 1.491979 1_555
O131 Ta13 2.149030 1_555
O132 Si0 1.648687 1_565
O132 Ta14 1.913431 1_555
O133 Si1 1.616368 1_555
O133 Ta15 1.916496 1_555
O134 Si2 1.617744 1_555
O134 Ta14 1.947179 1_555
O135 Si3 1.657189 1_555
O135 Ta15 1.892183 1_555
O136 S0 1.463726 1_455
O136 Ta14 2.256925 1_555
O137 S1 1.480504 1_555
O137 Ta15 2.153802 1_555
O138 Si4 1.623537 1_555
O138 Ta16 1.898611 1_555
O139 Si5 1.670557 1_555
O139 Ta17 1.885591 1_555
O140 S2 1.491480 1_555
O140 Ta16 2.108845 1_555
O141 S3 1.473595 1_555
O141 Ta17 2.192721 1_555
O142 Si6 1.662725 1_565
O142 Ta16 1.881353 1_555
O143 Si7 1.632502 1_555
O143 Ta17 1.917939 1_555
