# generated using pymatgen
data_BaGdCuSe3
_symmetry_space_group_name_H-M   'P 1'
_cell_length_a   7.37170499
_cell_length_b   7.37170499
_cell_length_c   10.77255200
_cell_angle_alpha   90.00000000
_cell_angle_beta   90.00000000
_cell_angle_gamma   146.77137506
_symmetry_Int_Tables_number   1
_chemical_formula_structural   BaGdCuSe3
_chemical_formula_sum   'Ba2 Gd2 Cu2 Se6'
_cell_volume   320.78950623
_cell_formula_units_Z   2
loop_
 _symmetry_equiv_pos_site_id
 _symmetry_equiv_pos_as_xyz
  1  'x, y, z'
loop_
 _atom_site_type_symbol
 _atom_site_label
 _atom_site_symmetry_multiplicity
 _atom_site_fract_x
 _atom_site_fract_y
 _atom_site_fract_z
 _atom_site_occupancy
  Ba  Ba0  1  0.25118900  0.74881100  0.75000000  1
  Ba  Ba1  1  0.74881100  0.25118900  0.25000000  1
  Gd  Gd0  1  0.00000000  0.00000000  0.00000000  1
  Gd  Gd1  1  0.00000000  0.00000000  0.50000000  1
  Cu  Cu0  1  0.52746000  0.47254000  0.75000000  1
  Cu  Cu1  1  0.47254000  0.52746000  0.25000000  1
  Se  Se0  1  0.63297100  0.36702900  0.56590500  1
  Se  Se1  1  0.36702900  0.63297100  0.43409500  1
  Se  Se2  1  0.07156700  0.92843300  0.25000000  1
  Se  Se3  1  0.92843300  0.07156700  0.75000000  1
  Se  Se4  1  0.63297100  0.36702900  0.93409500  1
  Se  Se5  1  0.36702900  0.63297100  0.06590500  1
loop_
_geom_bond_atom_site_label_1
_geom_bond_atom_site_label_2
_geom_bond_distance
_geom_bond_site_symmetry_2
Ba0 Se3 3.273095 1_565
Ba0 Se3 3.273095 1_455
Ba0 Se4 3.341431 1_565
Ba0 Se0 3.341431 1_565
Ba0 Se0 3.341431 1_455
Ba0 Se4 3.341431 1_455
Ba0 Se5 3.776174 1_556
Ba0 Se1 3.776174 1_555
Ba1 Se2 3.273095 1_655
Ba1 Se2 3.273095 1_545
Ba1 Se1 3.341431 1_545
Ba1 Se1 3.341431 1_655
Ba1 Se5 3.341431 1_545
Ba1 Se5 3.341431 1_655
Ba1 Se4 3.776174 1_554
Ba1 Se0 3.776174 1_555
Gd0 Se2 2.876682 1_545
Gd0 Se3 2.876682 1_454
Gd0 Se5 2.911340 1_445
Gd0 Se5 2.911340 1_555
Gd0 Se4 2.911340 1_444
Gd0 Se4 2.911340 1_554
Gd1 Se2 2.876682 1_545
Gd1 Se3 2.876682 1_455
Gd1 Se0 2.911340 1_445
Gd1 Se0 2.911340 1_555
Gd1 Se1 2.911340 1_555
Gd1 Se1 2.911340 1_445
Cu0 Se0 2.480928 1_555
Cu0 Se4 2.480928 1_555
Cu0 Se3 2.529829 1_565
Cu0 Se3 2.529829 1_455
Cu1 Se1 2.480928 1_555
Cu1 Se5 2.480928 1_555
Cu1 Se2 2.529829 1_655
Cu1 Se2 2.529829 1_545
