# generated using pymatgen
data_MgMn2V2O8
_symmetry_space_group_name_H-M   'P 1'
_cell_length_a   5.36402693
_cell_length_b   5.36402718
_cell_length_c   6.53965639
_cell_angle_alpha   92.87178803
_cell_angle_beta   92.87178518
_cell_angle_gamma   66.34884331
_symmetry_Int_Tables_number   1
_chemical_formula_structural   MgMn2V2O8
_chemical_formula_sum   'Mg1 Mn2 V2 O8'
_cell_volume   172.05022137
_cell_formula_units_Z   1
loop_
 _symmetry_equiv_pos_site_id
 _symmetry_equiv_pos_as_xyz
  1  'x, y, z'
loop_
 _atom_site_type_symbol
 _atom_site_label
 _atom_site_symmetry_multiplicity
 _atom_site_fract_x
 _atom_site_fract_y
 _atom_site_fract_z
 _atom_site_occupancy
  Mg  Mg0  1  0.50000000  0.50000000  0.00000000  1
  Mn  Mn0  1  0.00000000  0.00000000  0.50000000  1
  Mn  Mn1  1  0.00000000  0.00000000  0.00000000  1
  V  V0  1  0.66357500  0.66357400  0.70672300  1
  V  V1  1  0.33642500  0.33642500  0.29327800  1
  O  O0  1  0.23342100  0.23341800  0.50041400  1
  O  O1  1  0.69589400  0.23246300  0.24202700  1
  O  O2  1  0.23246200  0.69589600  0.24202700  1
  O  O3  1  0.30410500  0.76753800  0.75797400  1
  O  O4  1  0.23116600  0.23116300  0.06647400  1
  O  O5  1  0.76883600  0.76883500  0.93352700  1
  O  O6  1  0.76753700  0.30410500  0.75797400  1
  O  O7  1  0.76658100  0.76658000  0.49958700  1
loop_
_geom_bond_atom_site_label_1
_geom_bond_atom_site_label_2
_geom_bond_distance
_geom_bond_site_symmetry_2
Mg0 O6 2.125983 1_554
Mg0 O3 2.125986 1_554
Mg0 O1 2.125988 1_555
Mg0 O2 2.125992 1_555
Mg0 O5 2.478307 1_554
Mg0 O4 2.478308 1_555
Mn0 O0 2.095824 1_555
Mn0 O7 2.095824 1_445
Mn0 O2 2.316236 1_545
Mn0 O1 2.316243 1_455
Mn0 O3 2.316243 1_545
Mn0 O6 2.316245 1_455
Mn1 O5 2.095144 1_444
Mn1 O4 2.095145 1_555
Mn1 O3 2.269333 1_544
Mn1 O6 2.269334 1_454
Mn1 O2 2.269334 1_545
Mn1 O1 2.269341 1_455
O0 V1 1.685359 1_555
O1 V1 1.823342 1_555
O2 V1 1.823352 1_555
O3 V0 1.823346 1_555
O4 V1 1.710405 1_555
O5 V0 1.710407 1_555
O6 V0 1.823342 1_555
O7 V0 1.685361 1_555
