# generated using pymatgen
data_Na6Y3TaSi4(SO12)2
_symmetry_space_group_name_H-M   'P 1'
_cell_length_a   9.36045530
_cell_length_b   9.38385187
_cell_length_c   23.22999664
_cell_angle_alpha   89.79314304
_cell_angle_beta   90.48733397
_cell_angle_gamma   120.07191186
_symmetry_Int_Tables_number   1
_chemical_formula_structural   Na6Y3TaSi4(SO12)2
_chemical_formula_sum   'Na18 Y9 Ta3 Si12 S6 O72'
_cell_volume   1765.74060051
_cell_formula_units_Z   3
loop_
 _symmetry_equiv_pos_site_id
 _symmetry_equiv_pos_as_xyz
  1  'x, y, z'
loop_
 _atom_site_type_symbol
 _atom_site_label
 _atom_site_symmetry_multiplicity
 _atom_site_fract_x
 _atom_site_fract_y
 _atom_site_fract_z
 _atom_site_occupancy
  Na  Na0  1  0.62246390  0.99906176  0.25303763  1
  Na  Na1  1  0.64500778  0.63254707  0.75434863  1
  Na  Na2  1  0.00890841  0.36711814  0.74232336  1
  Na  Na3  1  0.29730421  0.35021142  0.58314623  1
  Na  Na4  1  0.01634527  0.68159748  0.59071278  1
  Na  Na5  1  0.67929462  0.95854215  0.57130949  1
  Na  Na6  1  0.30047351  0.94921851  0.08718844  1
  Na  Na7  1  0.67077223  0.71487170  0.07213821  1
  Na  Na8  1  0.02334072  0.34093852  0.07930592  1
  Na  Na9  1  0.97985634  0.68447778  0.91436621  1
  Na  Na10  1  0.32402723  0.29255973  0.91089549  1
  Na  Na11  1  0.67458236  0.67543605  0.41584899  1
  Na  Na12  1  0.99653648  0.03182686  0.49410798  1
  Na  Na13  1  0.97186689  0.99052208  0.99295283  1
  Na  Na14  1  0.64868304  0.32594491  0.83004106  1
  Na  Na15  1  0.61944104  0.30028759  0.33369679  1
  Na  Na16  1  0.31156213  0.68453452  0.16898892  1
  Na  Na17  1  0.32273690  0.65121403  0.66776603  1
  Y  Y0  1  0.02410788  0.01609012  0.35256530  1
  Y  Y1  1  0.00188602  0.99745884  0.85047790  1
  Y  Y2  1  0.00826419  0.00266038  0.65145767  1
  Y  Y3  1  0.00616928  0.99063640  0.14769412  1
  Y  Y4  1  0.66718974  0.34230537  0.68602736  1
  Y  Y5  1  0.66277927  0.32958463  0.18550560  1
  Y  Y6  1  0.33589030  0.67507819  0.01441264  1
  Y  Y7  1  0.33591474  0.65869298  0.51317680  1
  Y  Y8  1  0.33711219  0.67418244  0.32031413  1
  Ta  Ta0  1  0.68260358  0.33205053  0.97433884  1
  Ta  Ta1  1  0.67397731  0.33457150  0.48042148  1
  Ta  Ta2  1  0.32378769  0.66137635  0.82203155  1
  Si  Si0  1  0.30487737  0.99452316  0.24719038  1
  Si  Si1  1  0.30387790  0.31348049  0.75333475  1
  Si  Si2  1  0.00990183  0.69865828  0.75105326  1
  Si  Si3  1  0.96114410  0.33362030  0.58529285  1
  Si  Si4  1  0.66954894  0.63083787  0.58179689  1
  Si  Si5  1  0.95554882  0.62388285  0.08051859  1
  Si  Si6  1  0.67060175  0.04388024  0.08247294  1
  Si  Si7  1  0.62729041  0.65851286  0.91992826  1
  Si  Si8  1  0.03660197  0.36755179  0.92024009  1
  Si  Si9  1  0.34318936  0.96784729  0.91816228  1
  Si  Si10  1  0.64035045  0.97476354  0.41892743  1
  Si  Si11  1  0.34304205  0.36545187  0.42150984  1
  S  S0  1  0.70018735  0.70372005  0.25132289  1
  S  S1  1  0.00274966  0.29845742  0.24804974  1
  S  S2  1  0.69017290  0.98835106  0.74976851  1
  S  S3  1  0.37941657  0.04787495  0.57973863  1
  S  S4  1  0.37564907  0.33193504  0.07910723  1
  S  S5  1  0.02144470  0.65640898  0.41970235  1
  O  O0  1  0.19695588  0.00170984  0.30008889  1
  O  O1  1  0.79721369  0.78701990  0.30345431  1
  O  O2  1  0.98060405  0.19026052  0.29782936  1
  O  O3  1  0.20965711  0.20611422  0.80905747  1
  O  O4  1  0.96558399  0.77980843  0.80430118  1
  O  O5  1  0.80068795  0.01848927  0.79966919  1
  O  O6  1  0.76520959  0.96251030  0.69692657  1
  O  O7  1  0.19001342  0.23806943  0.69427413  1
  O  O8  1  0.03439898  0.80118668  0.69079018  1
  O  O9  1  0.78289781  0.80497589  0.19888199  1
  O  O10  1  0.01649369  0.22092384  0.19400087  1
  O  O11  1  0.21316434  0.98706177  0.18479636  1
  O  O12  1  0.87740162  0.34489339  0.64446253  1
  O  O13  1  0.47716243  0.11714217  0.63250628  1
  O  O14  1  0.63926256  0.52162863  0.63949514  1
  O  O15  1  0.86016868  0.51213725  0.13501983  1
  O  O16  1  0.64121821  0.12281905  0.13973024  1
  O  O17  1  0.47396108  0.35209814  0.13141838  1
  O  O18  1  0.45848137  0.31415500  0.02716691  1
  O  O19  1  0.83660734  0.51977281  0.02142142  1
  O  O20  1  0.67987316  0.17027333  0.02648290  1
  O  O21  1  0.46983536  0.15322504  0.52899120  1
  O  O22  1  0.68183960  0.51794836  0.52720685  1
  O  O23  1  0.83260727  0.32129143  0.53130401  1
  O  O24  1  0.55244639  0.67846371  0.97923819  1
  O  O25  1  0.13743298  0.44464017  0.97854741  1
  O  O26  1  0.30360747  0.86300863  0.97659693  1
  O  O27  1  0.55107100  0.86559587  0.47623590  1
  O  O28  1  0.32032744  0.44215494  0.48122689  1
  O  O29  1  0.11646340  0.68261942  0.47343977  1
  O  O30  1  0.10136692  0.63146765  0.37012600  1
  O  O31  1  0.52652001  0.89777097  0.36113946  1
  O  O32  1  0.38436055  0.49630838  0.36897439  1
  O  O33  1  0.13886194  0.50160673  0.86529456  1
  O  O34  1  0.36192631  0.85598468  0.86484958  1
  O  O35  1  0.49805557  0.63739759  0.86445384  1
  O  O36  1  0.98590599  0.79204785  0.41217250  1
  O  O37  1  0.81548535  0.97792269  0.41330583  1
  O  O38  1  0.18940253  0.17994557  0.41628043  1
  O  O39  1  0.01233620  0.18886412  0.91011123  1
  O  O40  1  0.18678705  0.99493962  0.90847010  1
  O  O41  1  0.81505198  0.80551670  0.91152593  1
  O  O42  1  0.97673491  0.16686705  0.58207810  1
  O  O43  1  0.21857324  0.04415000  0.58247383  1
  O  O44  1  0.84348137  0.80825297  0.58266599  1
  O  O45  1  0.96562341  0.80470717  0.07958127  1
  O  O46  1  0.84637547  0.04459687  0.08128080  1
  O  O47  1  0.20910782  0.18120806  0.08244411  1
  O  O48  1  0.66730800  0.13168365  0.74408800  1
  O  O49  1  0.49156105  0.34455948  0.75074094  1
  O  O50  1  0.85609674  0.50636473  0.74866415  1
  O  O51  1  0.68043299  0.53822932  0.24724104  1
  O  O52  1  0.85051400  0.31159064  0.24650613  1
  O  O53  1  0.49239116  0.15782532  0.25133229  1
  O  O54  1  0.62738419  0.47765249  0.92325443  1
  O  O55  1  0.85676175  0.36803958  0.92146038  1
  O  O56  1  0.51172299  0.15285748  0.92306294  1
  O  O57  1  0.66286779  0.16290209  0.43108191  1
  O  O58  1  0.51880488  0.35512636  0.42866760  1
  O  O59  1  0.85319545  0.50122326  0.42506435  1
  O  O60  1  0.35418838  0.47799643  0.07666729  1
  O  O61  1  0.13917815  0.64266235  0.07969880  1
  O  O62  1  0.51313389  0.85667691  0.07890817  1
  O  O63  1  0.34913635  0.87826878  0.57331969  1
  O  O64  1  0.51135382  0.66167887  0.57887064  1
  O  O65  1  0.13953617  0.50526861  0.58001758  1
  O  O66  1  0.32877099  0.83121023  0.25034234  1
  O  O67  1  0.53567976  0.69276681  0.25324896  1
  O  O68  1  0.15052299  0.46270797  0.25427457  1
  O  O69  1  0.32263125  0.50322852  0.76193118  1
  O  O70  1  0.18015801  0.68426443  0.76326470  1
  O  O71  1  0.52898529  0.83300656  0.75778636  1
loop_
_geom_bond_atom_site_label_1
_geom_bond_atom_site_label_2
_geom_bond_distance
_geom_bond_site_symmetry_2
Na0 O53 2.349494 1_565
Na0 O66 2.387608 1_555
Na0 O67 2.565374 1_555
Na0 O52 2.628494 1_565
Na0 O31 2.679887 1_555
Na0 O16 2.844129 1_565
Na1 O49 2.341533 1_555
Na1 O71 2.602728 1_555
Na1 O69 2.635746 1_555
Na1 O50 2.770174 1_555
Na1 O4 2.838525 1_555
Na1 O14 2.857662 1_555
Na1 O35 2.925691 1_555
Na1 O6 3.022720 1_555
Na2 O50 2.377639 1_455
Na2 O12 2.534804 1_455
Na2 O69 2.585524 1_555
Na2 O70 2.622853 1_555
Na2 O7 2.772255 1_555
Na2 O48 2.833515 1_455
Na3 O28 2.490761 1_555
Na3 O65 2.540498 1_555
Na3 O43 2.582808 1_555
Na3 O64 2.588309 1_555
Na3 O42 2.605751 1_455
Na3 O7 2.783071 1_555
Na4 O44 2.446684 1_455
Na4 O65 2.459525 1_555
Na4 O8 2.552389 1_555
Na4 O63 2.743629 1_555
Na4 O29 2.886889 1_555
Na5 O64 2.423793 1_555
Na5 O27 2.449228 1_555
Na5 O42 2.484534 1_565
Na5 O44 2.565739 1_555
Na5 O63 2.790980 1_555
Na6 O61 2.496305 1_555
Na6 O11 2.502687 1_555
Na6 O62 2.548273 1_555
Na6 O26 2.700991 1_554
Na6 O47 2.710200 1_565
Na6 O45 2.725247 1_455
Na7 O24 2.363505 1_554
Na7 O62 2.438435 1_555
Na7 O45 2.453378 1_555
Na7 O60 2.671290 1_555
Na7 O46 2.687427 1_565
Na8 O46 2.421363 1_455
Na8 O61 2.472968 1_555
Na8 O25 2.559407 1_554
Na8 O60 2.694363 1_555
Na8 O47 2.807972 1_555
Na8 O10 2.877528 1_555
Na9 O41 2.329776 1_555
Na9 O40 2.569908 1_655
Na9 O55 2.596730 1_555
Na9 O4 2.729986 1_555
Na9 O54 2.878580 1_555
Na9 O19 2.885032 1_556
Na9 O26 2.989169 1_655
Na9 O33 3.010329 1_655
Na10 O40 2.420263 1_545
Na10 O54 2.491850 1_555
Na10 O3 2.549727 1_555
Na10 O39 2.571667 1_555
Na10 O56 2.679988 1_555
Na10 O18 2.934428 1_556
Na10 O35 3.001761 1_555
Na11 O37 2.459330 1_555
Na11 O36 2.550424 1_555
Na11 O32 2.603404 1_555
Na11 O58 2.618763 1_555
Na11 O1 2.838604 1_555
Na11 O59 2.871259 1_555
Na11 O27 2.932882 1_555
Na11 O22 2.991722 1_555
Na12 O37 2.396839 1_545
Na12 O38 2.445884 1_655
Na12 O42 2.465107 1_555
Na12 O44 2.773604 1_545
Na12 O43 2.869667 1_655
Na12 O36 2.915259 1_545
Na13 O41 2.483771 1_555
Na13 O46 2.548195 1_566
Na13 O39 2.567279 1_665
Na13 O45 2.639691 1_556
Na13 O40 2.807738 1_655
Na13 O47 2.901913 1_666
Na14 O49 2.407510 1_555
Na14 O56 2.624142 1_555
Na14 O50 2.637132 1_555
Na14 O54 2.658787 1_555
Na14 O55 2.761204 1_555
Na14 O48 2.773246 1_555
Na15 O53 2.291015 1_555
Na15 O58 2.559048 1_555
Na15 O57 2.726459 1_555
Na15 O51 2.838051 1_555
Na15 O52 2.938546 1_555
Na15 O59 2.943294 1_555
Na16 O66 2.298539 1_555
Na16 O61 2.524672 1_555
Na16 O68 2.721539 1_555
Na16 O62 2.745278 1_555
Na16 O67 2.829665 1_555
Na17 O65 2.564843 1_555
Na17 O69 2.586524 1_555
Na17 O70 2.696099 1_555
Na17 O64 2.697771 1_555
Na17 O71 2.768899 1_555
Na17 O63 2.976933 1_555
O0 Si0 1.620203 1_545
O0 Y0 2.091768 1_555
O1 S0 1.476168 1_555
O1 Y0 2.415383 1_665
O2 S1 1.481791 1_655
O2 Y0 2.257651 1_655
O3 Si1 1.608720 1_555
O3 Y1 2.178053 1_545
O4 Si2 1.616827 1_655
O4 Y1 2.179819 1_655
O5 S2 1.477367 1_545
O5 Y1 2.304742 1_645
O6 S2 1.498812 1_555
O6 Y2 2.369104 1_665
O7 Si1 1.656906 1_555
O7 Y2 2.232530 1_555
O8 Si2 1.647006 1_555
O8 Y2 2.217269 1_565
O9 S0 1.502230 1_555
O9 Y3 2.279328 1_655
O10 S1 1.491800 1_555
O10 Y3 2.375301 1_545
O11 Si0 1.661929 1_555
O11 Y3 2.129474 1_555
O12 Si3 1.617838 1_555
O12 Y4 2.188355 1_555
O13 S3 1.467262 1_555
O13 Y4 2.321406 1_555
O14 Si4 1.622487 1_555
O14 Y4 2.119269 1_555
O15 Si5 1.603432 1_555
O15 Y5 2.138723 1_555
O16 Si6 1.615862 1_555
O16 Y5 2.134216 1_555
O17 S4 1.472234 1_555
O17 Y5 2.254238 1_555
O18 S4 1.493932 1_555
O18 Ta0 2.371620 1_554
O19 Si5 1.724026 1_555
O19 Ta0 1.954377 1_554
O20 Si6 1.730193 1_555
O20 Ta0 1.928960 1_554
O21 S3 1.501129 1_555
O21 Ta1 2.141087 1_555
O22 Si4 1.696437 1_555
O22 Ta1 2.008213 1_555
O23 Si3 1.694044 1_555
O23 Ta1 1.942152 1_555
O24 Si7 1.604315 1_555
O24 Y6 2.177407 1_556
O25 Si8 1.596809 1_555
O25 Y6 2.186764 1_556
O26 Si9 1.606665 1_555
O26 Y6 2.119277 1_556
O27 Si10 1.634388 1_555
O27 Y7 2.158868 1_555
O28 Si11 1.628886 1_555
O28 Y7 2.100700 1_555
O29 S5 1.474435 1_555
O29 Y7 2.355961 1_555
O30 S5 1.460423 1_555
O30 Y8 2.350048 1_555
O31 Si10 1.634182 1_555
O31 Y8 2.168567 1_555
O32 Si11 1.633416 1_555
O32 Y8 2.230936 1_555
O33 Si8 1.711810 1_555
O33 Ta2 1.916244 1_555
O34 Si9 1.692332 1_555
O34 Ta2 1.950754 1_555
O35 Si7 1.702472 1_555
O35 Ta2 2.005388 1_555
O36 S5 1.477515 1_655
O36 Y0 2.387295 1_665
O37 Si10 1.631038 1_555
O37 Y0 2.296722 1_665
O38 Si11 1.613354 1_555
O38 Y0 2.131225 1_555
O39 Si8 1.593359 1_555
O39 Y1 2.234771 1_545
O40 Si9 1.620368 1_555
O40 Y1 2.193634 1_555
O41 Si7 1.613726 1_555
O41 Y1 2.276121 1_655
O42 Si3 1.644786 1_555
O42 Y2 2.342799 1_655
O43 S3 1.490255 1_555
O43 Y2 2.424039 1_555
O44 Si4 1.645008 1_555
O44 Y2 2.328091 1_665
O45 Si5 1.651666 1_555
O45 Y3 2.244502 1_655
O46 Si6 1.642432 1_555
O46 Y3 2.363884 1_645
O47 S4 1.492740 1_555
O47 Y3 2.393528 1_545
O48 S2 1.469356 1_545
O48 Y4 2.389219 1_555
O49 Si1 1.631943 1_555
O49 Y4 2.245013 1_555
O50 Si2 1.651575 1_655
O50 Y4 2.204141 1_555
O51 S0 1.472343 1_555
O51 Y5 2.368403 1_555
O52 S1 1.490699 1_655
O52 Y5 2.319017 1_555
O53 Si0 1.655580 1_545
O53 Y5 2.219757 1_555
O54 Si7 1.699085 1_555
O54 Ta0 2.056162 1_555
O55 Si8 1.686164 1_655
O55 Ta0 1.939024 1_555
O56 Si9 1.664128 1_545
O56 Ta0 2.022714 1_555
O57 Si10 1.694307 1_545
O57 Ta1 1.939839 1_555
O58 Si11 1.702578 1_555
O58 Ta1 1.960024 1_555
O59 S5 1.523172 1_655
O59 Ta1 2.075211 1_555
O60 S4 1.482342 1_555
O60 Y6 2.415556 1_555
O61 Si5 1.637940 1_455
O61 Y6 2.294753 1_555
O62 Si6 1.633842 1_565
O62 Y6 2.245877 1_555
O63 S3 1.478019 1_565
O63 Y7 2.444395 1_555
O64 Si4 1.645815 1_555
O64 Y7 2.222165 1_555
O65 Si3 1.644493 1_455
O65 Y7 2.289722 1_555
O66 Si0 1.657215 1_555
O66 Y8 2.217045 1_555
O67 S0 1.492071 1_555
O67 Y8 2.373751 1_555
O68 S1 1.473581 1_555
O68 Y8 2.417617 1_555
O69 Si1 1.711679 1_555
O69 Ta2 2.037220 1_555
O70 Si2 1.687090 1_555
O70 Ta2 1.993323 1_555
O71 S2 1.494907 1_555
O71 Ta2 2.332738 1_555
