# generated using pymatgen
data_Na15Ta11Zn(SiO4)18
_symmetry_space_group_name_H-M   'P 1'
_cell_length_a   9.02940753
_cell_length_b   9.03020807
_cell_length_c   22.58888211
_cell_angle_alpha   90.16258060
_cell_angle_beta   89.85028078
_cell_angle_gamma   120.19466397
_symmetry_Int_Tables_number   1
_chemical_formula_structural   Na15Ta11Zn(SiO4)18
_chemical_formula_sum   'Na15 Ta11 Zn1 Si18 O72'
_cell_volume   1591.93372309
_cell_formula_units_Z   1
loop_
 _symmetry_equiv_pos_site_id
 _symmetry_equiv_pos_as_xyz
  1  'x, y, z'
loop_
 _atom_site_type_symbol
 _atom_site_label
 _atom_site_symmetry_multiplicity
 _atom_site_fract_x
 _atom_site_fract_y
 _atom_site_fract_z
 _atom_site_occupancy
  Na  Na0  1  0.36490795  0.36443078  0.25106679  1
  Na  Na1  1  0.63355811  0.61429508  0.74382901  1
  Na  Na2  1  0.98027698  0.36710612  0.74392244  1
  Na  Na3  1  0.38727180  0.01958144  0.74367553  1
  Na  Na4  1  0.31142703  0.33658690  0.58360493  1
  Na  Na5  1  0.02461170  0.68788744  0.58365063  1
  Na  Na6  1  0.66318234  0.97494799  0.58363760  1
  Na  Na7  1  0.30178883  0.96893564  0.08476064  1
  Na  Na8  1  0.69935028  0.03357975  0.91776411  1
  Na  Na9  1  0.00041473  0.00021426  0.49371244  1
  Na  Na10  1  0.00034857  0.00050096  0.00200757  1
  Na  Na11  1  0.66583248  0.33961751  0.82844746  1
  Na  Na12  1  0.67442050  0.33235075  0.33451838  1
  Na  Na13  1  0.33379367  0.66699899  0.16850283  1
  Na  Na14  1  0.33348409  0.66690871  0.66509534  1
  Ta  Ta0  1  0.99915947  0.99980977  0.35506236  1
  Ta  Ta1  1  0.00416846  0.99964265  0.85644187  1
  Ta  Ta2  1  -0.00000394  0.99987356  0.64626869  1
  Ta  Ta3  1  0.99513713  0.99942397  0.14562562  1
  Ta  Ta4  1  0.67074378  0.33393801  0.18875321  1
  Ta  Ta5  1  0.66728441  0.33766775  0.97860996  1
  Ta  Ta6  1  0.66601212  0.33340502  0.47716810  1
  Ta  Ta7  1  0.33279259  0.66226115  0.02252730  1
  Ta  Ta8  1  0.33299490  0.66658713  0.51627463  1
  Ta  Ta9  1  0.33300097  0.67114459  0.31188945  1
  Ta  Ta10  1  0.33311695  0.66573238  0.81391701  1
  Zn  Zn0  1  0.66696731  0.33371534  0.68223738  1
  Si  Si0  1  0.28600339  0.99679239  0.24914752  1
  Si  Si1  1  0.71209848  0.71197540  0.25060770  1
  Si  Si2  1  0.99738253  0.28688995  0.25075251  1
  Si  Si3  1  0.28932269  0.29104840  0.75089772  1
  Si  Si4  1  0.00165320  0.71090151  0.75099120  1
  Si  Si5  1  0.71019966  0.99863476  0.75210637  1
  Si  Si6  1  0.95684380  0.33519988  0.58471285  1
  Si  Si7  1  0.37831696  0.04259786  0.58491062  1
  Si  Si8  1  0.66377044  0.62166607  0.58480792  1
  Si  Si9  1  0.95444560  0.62196092  0.08348115  1
  Si  Si10  1  0.67036595  0.04731277  0.08233931  1
  Si  Si11  1  0.37957048  0.33528127  0.08447990  1
  Si  Si12  1  0.62092254  0.66310240  0.91690371  1
  Si  Si13  1  0.04382360  0.37831174  0.91702394  1
  Si  Si14  1  0.33116642  0.95477655  0.91833468  1
  Si  Si15  1  0.62536926  0.95841934  0.41589739  1
  Si  Si16  1  0.33380875  0.37618111  0.41478381  1
  Si  Si17  1  0.04223317  0.66712919  0.41569433  1
  O  O0  1  0.19461744  0.03347245  0.30555036  1
  O  O1  1  0.83374020  0.80542961  0.30765287  1
  O  O2  1  0.97166296  0.16632727  0.30792141  1
  O  O3  1  0.18422516  0.16628587  0.80664695  1
  O  O4  1  0.97971151  0.81476235  0.80669023  1
  O  O5  1  0.82971158  0.01872676  0.80937389  1
  O  O6  1  0.80111675  0.96522700  0.69269827  1
  O  O7  1  0.16593391  0.20108490  0.69147514  1
  O  O8  1  0.03542621  0.83482863  0.69167879  1
  O  O9  1  0.80679491  0.83328835  0.19264705  1
  O  O10  1  0.03277346  0.19516096  0.19328064  1
  O  O11  1  0.17149346  0.97226512  0.18947197  1
  O  O12  1  0.89551190  0.38447226  0.64476541  1
  O  O13  1  0.48916426  0.10481906  0.64476596  1
  O  O14  1  0.61498432  0.51084933  0.64463072  1
  O  O15  1  0.85982765  0.49980882  0.14064482  1
  O  O16  1  0.63339529  0.13960536  0.13872906  1
  O  O17  1  0.49503844  0.36127540  0.14342999  1
  O  O18  1  0.47340069  0.30119287  0.02748121  1
  O  O19  1  0.83368770  0.52662543  0.02571012  1
  O  O20  1  0.69463966  0.16151082  0.02279458  1
  O  O21  1  0.47008841  0.17227062  0.52865631  1
  O  O22  1  0.70219260  0.52988631  0.52860160  1
  O  O23  1  0.82708223  0.29785749  0.52861022  1
  O  O24  1  0.52707619  0.69974187  0.97254227  1
  O  O25  1  0.16829795  0.47549413  0.97326455  1
  O  O26  1  0.30632680  0.83702255  0.97625905  1
  O  O27  1  0.53302774  0.84177052  0.47542137  1
  O  O28  1  0.30904649  0.46935372  0.47418048  1
  O  O29  1  0.15924956  0.69177193  0.47515226  1
  O  O30  1  0.14054926  0.63928109  0.35953886  1
  O  O31  1  0.50000084  0.85889785  0.35969931  1
  O  O32  1  0.36017664  0.49565372  0.35696067  1
  O  O33  1  0.13514063  0.49601181  0.85767525  1
  O  O34  1  0.36434101  0.86359061  0.85958170  1
  O  O35  1  0.50324986  0.63824091  0.85748911  1
  O  O36  1  0.02658966  0.83832022  0.40964197  1
  O  O37  1  0.81289463  0.97509091  0.41034963  1
  O  O38  1  0.16269300  0.18723018  0.41016112  1
  O  O39  1  0.01736971  0.18539487  0.91077890  1
  O  O40  1  0.16289586  0.97510766  0.91081465  1
  O  O41  1  0.80677460  0.83966156  0.91036666  1
  O  O42  1  0.97625563  0.16108105  0.58933667  1
  O  O43  1  0.18483936  0.02338892  0.58931907  1
  O  O44  1  0.83869390  0.81537652  0.58929578  1
  O  O45  1  0.98247278  0.81560139  0.08917195  1
  O  O46  1  0.83855538  0.02622310  0.08977708  1
  O  O47  1  0.19211312  0.15916977  0.08949410  1
  O  O48  1  0.69106420  0.16509925  0.75047071  1
  O  O49  1  0.47444051  0.30921436  0.74987875  1
  O  O50  1  0.83423424  0.52529248  0.74969496  1
  O  O51  1  0.68487268  0.51813773  0.24340641  1
  O  O52  1  0.82831886  0.30663741  0.24284881  1
  O  O53  1  0.47425814  0.17314628  0.24274873  1
  O  O54  1  0.63953327  0.49416754  0.92341748  1
  O  O55  1  0.85136758  0.35187106  0.92294290  1
  O  O56  1  0.50780824  0.14084078  0.92322737  1
  O  O57  1  0.64014325  0.14552526  0.42402057  1
  O  O58  1  0.50541946  0.36013536  0.42424378  1
  O  O59  1  0.85459665  0.49469480  0.42415495  1
  O  O60  1  0.35984727  0.50456827  0.07607956  1
  O  O61  1  0.14813609  0.64832814  0.07678028  1
  O  O62  1  0.49343927  0.85933948  0.07622625  1
  O  O63  1  0.34606707  0.84701531  0.57401869  1
  O  O64  1  0.50054576  0.65364994  0.57385229  1
  O  O65  1  0.15297799  0.49899260  0.57386645  1
  O  O66  1  0.30778453  0.82851369  0.25621866  1
  O  O67  1  0.51814770  0.68440579  0.25623111  1
  O  O68  1  0.17394799  0.47394785  0.25655552  1
  O  O69  1  0.29745145  0.47776005  0.75574281  1
  O  O70  1  0.18064580  0.70369343  0.75641587  1
  O  O71  1  0.52206159  0.81948709  0.75593214  1
loop_
_geom_bond_atom_site_label_1
_geom_bond_atom_site_label_2
_geom_bond_distance
_geom_bond_site_symmetry_2
Na0 O68 2.383256 1_555
Na0 O53 2.388856 1_555
Na0 O67 2.500883 1_555
Na0 O51 2.503688 1_555
Na0 O32 2.676203 1_555
Na0 O17 2.703974 1_555
Na0 O0 2.863463 1_555
Na0 O10 2.903843 1_555
Na1 O50 2.326702 1_555
Na1 O49 2.385856 1_555
Na1 O14 2.398818 1_555
Na1 O71 2.528578 1_555
Na1 O69 2.652674 1_555
Na1 O35 2.874016 1_555
Na1 O6 2.975639 1_555
Na2 O48 2.318797 1_555
Na2 O50 2.385204 1_555
Na2 O12 2.399790 1_555
Na2 O69 2.528959 1_655
Na2 O70 2.656619 1_655
Na2 O33 2.877050 1_655
Na2 O7 2.994822 1_655
Na3 O49 2.325406 1_555
Na3 O48 2.376980 1_555
Na3 O13 2.391131 1_555
Na3 O70 2.519765 1_545
Na3 O71 2.653192 1_545
Na3 O34 2.933727 1_545
Na3 O8 2.988805 1_545
Na4 O43 2.464077 1_555
Na4 O64 2.499162 1_555
Na4 O65 2.521924 1_555
Na4 O42 2.619568 1_455
Na4 O7 2.746577 1_555
Na4 O14 2.749218 1_555
Na4 O28 2.755095 1_555
Na4 O21 2.813045 1_555
Na5 O44 2.470186 1_455
Na5 O65 2.507419 1_555
Na5 O63 2.517956 1_555
Na5 O43 2.622614 1_565
Na5 O29 2.725413 1_555
Na5 O12 2.751748 1_455
Na5 O8 2.752728 1_555
Na5 O22 2.808575 1_455
Na6 O42 2.460526 1_565
Na6 O63 2.501027 1_555
Na6 O64 2.517087 1_555
Na6 O44 2.627415 1_555
Na6 O27 2.716545 1_555
Na6 O13 2.753907 1_565
Na6 O6 2.784825 1_555
Na6 O23 2.812146 1_565
Na7 O47 2.377555 1_565
Na7 O62 2.393969 1_555
Na7 O45 2.494748 1_455
Na7 O61 2.509438 1_555
Na7 O11 2.645821 1_555
Na7 O26 2.731245 1_554
Na7 O16 2.862406 1_565
Na7 O18 2.900408 1_565
Na8 O56 2.372308 1_555
Na8 O41 2.396087 1_545
Na8 O39 2.487784 1_655
Na8 O55 2.487872 1_555
Na8 O20 2.645486 1_556
Na8 O5 2.745930 1_555
Na8 O24 2.886684 1_545
Na8 O34 2.927889 1_545
Na9 O38 2.464876 1_555
Na9 O37 2.468236 1_445
Na9 O36 2.475679 1_545
Na9 O42 2.668723 1_455
Na9 O44 2.670656 1_445
Na9 O43 2.673313 1_555
Na10 O45 2.537036 1_445
Na10 O46 2.538210 1_455
Na10 O47 2.542215 1_555
Na10 O40 2.601955 1_544
Na10 O39 2.611082 1_554
Na10 O41 2.626403 1_444
Na11 O50 2.392965 1_555
Na11 O49 2.397448 1_555
Na11 O48 2.445678 1_555
Na11 O54 2.630593 1_555
Na11 O55 2.684391 1_555
Na11 O56 2.696532 1_555
Na12 O59 2.548925 1_555
Na12 O57 2.553500 1_555
Na12 O52 2.565069 1_555
Na12 O58 2.620217 1_555
Na12 O51 2.630348 1_555
Na12 O53 2.649457 1_555
Na13 O66 2.536547 1_555
Na13 O67 2.544597 1_555
Na13 O68 2.559717 1_555
Na13 O61 2.619799 1_555
Na13 O60 2.625374 1_555
Na13 O62 2.631712 1_555
Na14 O71 2.578830 1_555
Na14 O69 2.583301 1_555
Na14 O64 2.588798 1_555
Na14 O70 2.590840 1_555
Na14 O65 2.591582 1_555
Na14 O63 2.592787 1_555
O0 Si0 1.637348 1_545
O0 Ta0 1.977374 1_445
O1 Si1 1.627232 1_555
O1 Ta0 1.954329 1_555
O2 Si2 1.630635 1_555
O2 Ta0 1.960266 1_545
O3 Si3 1.637709 1_555
O3 Ta1 1.926669 1_545
O4 Si4 1.637315 1_655
O4 Ta1 1.928426 1_655
O5 Si5 1.637031 1_545
O5 Ta1 1.981001 1_645
O6 Si5 1.675367 1_555
O6 Ta2 1.962013 1_655
O7 Si3 1.671586 1_555
O7 Ta2 1.961683 1_545
O8 Si4 1.674372 1_555
O8 Ta2 1.966161 1_555
O9 Si1 1.644828 1_555
O9 Ta3 1.924650 1_555
O10 Si2 1.652763 1_455
O10 Ta3 1.945613 1_445
O11 Si0 1.646352 1_555
O11 Ta3 1.994815 1_455
O12 Si6 1.607888 1_555
O12 Zn0 2.055907 1_555
O13 Si7 1.607059 1_555
O13 Zn0 2.055620 1_555
O14 Si8 1.607076 1_555
O14 Zn0 2.065317 1_555
O15 Si9 1.633521 1_555
O15 Ta4 1.940781 1_555
O16 Si10 1.643214 1_555
O16 Ta4 1.966115 1_555
O17 Si11 1.635433 1_555
O17 Ta4 2.007490 1_555
O18 Si11 1.650664 1_555
O18 Ta5 1.950367 1_554
O19 Si9 1.640086 1_555
O19 Ta5 1.928803 1_554
O20 Si10 1.643050 1_555
O20 Ta5 1.998282 1_554
O21 Si7 1.643009 1_555
O21 Ta6 2.002290 1_555
O22 Si8 1.643223 1_555
O22 Ta6 2.002956 1_555
O23 Si6 1.643312 1_555
O23 Ta6 2.012229 1_555
O24 Si12 1.637432 1_555
O24 Ta7 1.965061 1_556
O25 Si13 1.629819 1_555
O25 Ta7 1.940895 1_556
O26 Si14 1.630798 1_555
O26 Ta7 2.007474 1_556
O27 Si15 1.652697 1_555
O27 Ta8 1.934410 1_555
O28 Si16 1.655087 1_555
O28 Ta8 1.930577 1_555
O29 Si17 1.654993 1_555
O29 Ta8 1.934807 1_555
O30 Si17 1.636227 1_555
O30 Ta9 1.936503 1_555
O31 Si15 1.636558 1_555
O31 Ta9 1.934215 1_555
O32 Si16 1.635446 1_555
O32 Ta9 2.002423 1_555
O33 Si13 1.651539 1_555
O33 Ta10 1.940367 1_555
O34 Si14 1.664017 1_555
O34 Ta10 1.954527 1_555
O35 Si12 1.657226 1_555
O35 Ta10 1.945038 1_555
O36 Si17 1.627687 1_555
O36 Ta0 2.020661 1_455
O37 Si15 1.627276 1_555
O37 Ta0 2.012748 1_555
O38 Si16 1.630192 1_555
O38 Ta0 2.019332 1_445
O39 Si13 1.640736 1_555
O39 Ta1 2.030350 1_545
O40 Si14 1.628866 1_555
O40 Ta1 1.985413 1_555
O41 Si12 1.639724 1_555
O41 Ta1 2.038676 1_655
O42 Si6 1.670955 1_555
O42 Ta2 2.035915 1_645
O43 Si7 1.669235 1_555
O43 Ta2 2.029647 1_545
O44 Si8 1.668996 1_555
O44 Ta2 2.027332 1_655
O45 Si9 1.640729 1_555
O45 Ta3 2.047570 1_555
O46 Si10 1.631941 1_555
O46 Ta3 2.001062 1_545
O47 Si11 1.642960 1_555
O47 Ta3 2.066347 1_445
O48 Si5 1.597642 1_545
O48 Zn0 2.256044 1_555
O49 Si3 1.595424 1_555
O49 Zn0 2.237579 1_555
O50 Si4 1.595830 1_655
O50 Zn0 2.228166 1_555
O51 Si1 1.648191 1_555
O51 Ta4 2.020616 1_555
O52 Si2 1.633841 1_555
O52 Ta4 1.985440 1_555
O53 Si0 1.650308 1_545
O53 Ta4 2.037421 1_555
O54 Si12 1.623685 1_555
O54 Ta5 1.995540 1_555
O55 Si13 1.635946 1_655
O55 Ta5 2.033711 1_555
O56 Si14 1.638127 1_545
O56 Ta5 2.054281 1_555
O57 Si15 1.636423 1_545
O57 Ta6 1.991376 1_555
O58 Si16 1.641795 1_555
O58 Ta6 1.988196 1_555
O59 Si17 1.636447 1_655
O59 Ta6 1.989841 1_555
O60 Si11 1.637163 1_555
O60 Ta7 1.977883 1_555
O61 Si9 1.648710 1_455
O61 Ta7 2.019137 1_555
O62 Si10 1.650654 1_565
O62 Ta7 2.035418 1_555
O63 Si7 1.656866 1_565
O63 Ta8 2.040895 1_555
O64 Si8 1.657498 1_555
O64 Ta8 2.045238 1_555
O65 Si6 1.658023 1_455
O65 Ta8 2.037306 1_555
O66 Si0 1.635698 1_555
O66 Ta9 1.997451 1_555
O67 Si1 1.644838 1_555
O67 Ta9 2.044098 1_555
O68 Si2 1.644143 1_455
O68 Ta9 2.054306 1_555
O69 Si3 1.653671 1_555
O69 Ta10 2.037525 1_555
O70 Si4 1.654764 1_555
O70 Ta10 2.046110 1_555
O71 Si5 1.657131 1_555
O71 Ta10 2.042049 1_555
