# generated using pymatgen
data_BaIn2
_symmetry_space_group_name_H-M   'P 1'
_cell_length_a   5.29399022
_cell_length_b   6.65334712
_cell_length_c   6.65334625
_cell_angle_alpha   80.89071502
_cell_angle_beta   66.55652786
_cell_angle_gamma   66.55652659
_symmetry_Int_Tables_number   1
_chemical_formula_structural   BaIn2
_chemical_formula_sum   'Ba2 In4'
_cell_volume   197.25640713
_cell_formula_units_Z   2
loop_
 _symmetry_equiv_pos_site_id
 _symmetry_equiv_pos_as_xyz
  1  'x, y, z'
loop_
 _atom_site_type_symbol
 _atom_site_label
 _atom_site_symmetry_multiplicity
 _atom_site_fract_x
 _atom_site_fract_y
 _atom_site_fract_z
 _atom_site_occupancy
  Ba  Ba0  1  0.54827958  0.70172042  0.20172042  1
  Ba  Ba1  1  0.45172042  0.29827958  0.79827958  1
  In  In0  1  0.83948566  0.72896665  0.59206404  1
  In  In1  1  0.16051434  0.27103335  0.40793596  1
  In  In2  1  0.83948566  0.09206404  0.22896665  1
  In  In3  1  0.16051434  0.90793596  0.77103335  1
loop_
_geom_bond_atom_site_label_1
_geom_bond_atom_site_label_2
_geom_bond_distance
_geom_bond_site_symmetry_2
Ba0 In0 3.565327 1_455
Ba0 In2 3.565327 1_465
Ba0 In0 3.565334 1_555
Ba0 In2 3.565335 1_565
Ba0 In3 3.696166 1_555
Ba0 In1 3.696166 1_565
Ba0 In0 3.725130 1_554
Ba0 In2 3.725131 1_555
Ba0 In1 3.937288 1_655
Ba0 In3 3.937288 1_654
Ba0 In3 3.937295 1_554
Ba0 In1 3.937296 1_555
Ba0 Ba1 4.374527 1_554
Ba0 Ba1 4.374527 1_654
Ba0 Ba1 4.395932 1_555
Ba0 Ba1 4.395932 1_564
Ba1 In1 3.565327 1_655
Ba1 In3 3.565327 1_645
Ba1 In1 3.565334 1_555
Ba1 In3 3.565335 1_545
Ba1 In2 3.696166 1_555
Ba1 In0 3.696166 1_545
Ba1 In1 3.725130 1_556
Ba1 In3 3.725131 1_555
Ba1 In0 3.937288 1_455
Ba1 In2 3.937288 1_456
Ba1 In2 3.937295 1_556
Ba1 In0 3.937296 1_555
In0 In1 3.012832 1_655
In0 In3 3.064888 1_655
In0 In3 3.064907 1_555
In0 In2 3.134385 1_565
In1 In2 3.064888 1_455
In1 In2 3.064907 1_555
In1 In3 3.134385 1_545
In2 In3 3.012831 1_644
