# generated using pymatgen
data_YH3
_symmetry_space_group_name_H-M   'P 1'
_cell_length_a   6.32127165
_cell_length_b   6.32127138
_cell_length_c   6.59270844
_cell_angle_alpha   90.00000000
_cell_angle_beta   90.00000000
_cell_angle_gamma   120.00000133
_symmetry_Int_Tables_number   1
_chemical_formula_structural   YH3
_chemical_formula_sum   'Y6 H18'
_cell_volume   228.14102344
_cell_formula_units_Z   6
loop_
 _symmetry_equiv_pos_site_id
 _symmetry_equiv_pos_as_xyz
  1  'x, y, z'
loop_
 _atom_site_type_symbol
 _atom_site_label
 _atom_site_symmetry_multiplicity
 _atom_site_fract_x
 _atom_site_fract_y
 _atom_site_fract_z
 _atom_site_occupancy
  Y  Y0  1  0.66258168  0.66258168  0.75000000  1
  Y  Y1  1  -0.00000000  0.33741832  0.75000000  1
  Y  Y2  1  0.33741832  0.00000000  0.75000000  1
  Y  Y3  1  0.33741832  0.33741832  0.25000000  1
  Y  Y4  1  0.00000000  0.66258168  0.25000000  1
  Y  Y5  1  0.66258168  0.00000000  0.25000000  1
  H  H0  1  0.33333300  0.66666700  0.68638139  1
  H  H1  1  0.66666700  0.33333300  0.81361861  1
  H  H2  1  0.66666700  0.33333300  0.31361861  1
  H  H3  1  0.33333300  0.66666700  0.18638139  1
  H  H4  1  -0.00000000  0.00000000  0.75000000  1
  H  H5  1  -0.00000000  0.00000000  0.25000000  1
  H  H6  1  0.35243049  0.03153364  0.09092882  1
  H  H7  1  0.96846636  0.32089685  0.09092882  1
  H  H8  1  0.67910315  0.64756951  0.09092882  1
  H  H9  1  0.32089685  0.96846636  0.40907118  1
  H  H10  1  0.64756951  0.67910315  0.40907118  1
  H  H11  1  0.03153364  0.35243049  0.40907118  1
  H  H12  1  0.64756951  0.96846636  0.90907118  1
  H  H13  1  0.03153364  0.67910315  0.90907118  1
  H  H14  1  0.32089685  0.35243049  0.90907118  1
  H  H15  1  0.67910315  0.03153364  0.59092882  1
  H  H16  1  0.35243049  0.32089685  0.59092882  1
  H  H17  1  0.96846636  0.64756951  0.59092882  1
loop_
_geom_bond_atom_site_label_1
_geom_bond_atom_site_label_2
_geom_bond_distance
_geom_bond_site_symmetry_2
H0 Y2 2.135881 1_565
H0 Y1 2.135884 1_555
H0 Y0 2.135887 1_555
H1 Y1 2.135881 1_655
H1 Y2 2.135884 1_555
H1 Y0 2.135887 1_555
H2 Y5 2.135881 1_555
H2 Y4 2.135884 1_655
H2 Y3 2.135887 1_555
H3 Y4 2.135881 1_555
H3 Y5 2.135884 1_565
H3 Y3 2.135887 1_555
H4 Y1 2.132913 1_555
H4 Y0 2.132913 1_445
H4 Y2 2.132913 1_555
H5 Y4 2.132913 1_545
H5 Y3 2.132913 1_555
H5 Y5 2.132913 1_455
H6 Y3 2.242993 1_555
H6 Y2 2.254269 1_554
H6 Y5 2.318207 1_555
H6 Y4 2.511274 1_545
H7 Y5 2.242993 1_555
H7 Y1 2.254269 1_654
H7 Y4 2.318207 1_655
H7 Y3 2.511274 1_655
H8 Y4 2.242993 1_655
H8 Y0 2.254269 1_554
H8 Y3 2.318207 1_555
H8 Y5 2.511274 1_565
H9 Y4 2.242993 1_555
H9 Y2 2.254269 1_565
H9 Y5 2.318207 1_565
H9 Y3 2.511274 1_565
H10 Y5 2.242993 1_565
H10 Y0 2.254269 1_555
H10 Y3 2.318207 1_555
H10 Y4 2.511274 1_655
H11 Y3 2.242993 1_555
H11 Y1 2.254269 1_555
H11 Y4 2.318207 1_555
H11 Y5 2.511274 1_455
H12 Y0 2.242993 1_555
H12 Y5 2.254269 1_566
H12 Y2 2.318207 1_565
H12 Y1 2.511274 1_665
H13 Y2 2.242993 1_565
H13 Y4 2.254269 1_556
H13 Y1 2.318207 1_555
H13 Y0 2.511274 1_455
H14 Y1 2.242993 1_555
H14 Y3 2.254269 1_556
H14 Y0 2.318207 1_555
H14 Y2 2.511274 1_555
H15 Y1 2.242993 1_655
H15 Y5 2.254269 1_555
H15 Y2 2.318207 1_555
H15 Y0 2.511274 1_545
H16 Y2 2.242993 1_555
H16 Y3 2.254269 1_555
H16 Y0 2.318207 1_555
H16 Y1 2.511274 1_555
H17 Y0 2.242993 1_555
H17 Y4 2.254269 1_655
H17 Y1 2.318207 1_655
H17 Y2 2.511274 1_665
