# generated using pymatgen
data_Y6FeSb2
_symmetry_space_group_name_H-M   'P 1'
_cell_length_a   8.24326145
_cell_length_b   8.21598035
_cell_length_c   4.22468070
_cell_angle_alpha   90.00000000
_cell_angle_beta   90.00000000
_cell_angle_gamma   119.89058133
_symmetry_Int_Tables_number   1
_chemical_formula_structural   Y6FeSb2
_chemical_formula_sum   'Y6 Fe1 Sb2'
_cell_volume   248.06230566
_cell_formula_units_Z   1
loop_
 _symmetry_equiv_pos_site_id
 _symmetry_equiv_pos_as_xyz
  1  'x, y, z'
loop_
 _atom_site_type_symbol
 _atom_site_label
 _atom_site_symmetry_multiplicity
 _atom_site_fract_x
 _atom_site_fract_y
 _atom_site_fract_z
 _atom_site_occupancy
  Y  Y0  1  0.23396634  0.99618636  0.00000000  1
  Y  Y1  1  -0.00000000  0.59359668  0.50000000  1
  Y  Y2  1  0.40611518  0.40425855  0.50000000  1
  Y  Y3  1  0.76603366  0.76222002  0.00000000  1
  Y  Y4  1  0.00000000  0.24263751  0.00000000  1
  Y  Y5  1  0.59388482  0.99814337  0.50000000  1
  Fe  Fe0  1  -0.00000000  0.00666701  0.50000000  1
  Sb  Sb0  1  0.33757451  0.66693350  -0.00000000  1
  Sb  Sb1  1  0.66242549  0.32935799  -0.00000000  1
loop_
_geom_bond_atom_site_label_1
_geom_bond_atom_site_label_2
_geom_bond_distance
_geom_bond_site_symmetry_2
Fe0 Y4 2.867168 1_555
Fe0 Y4 2.867168 1_556
Fe0 Y0 2.890432 1_546
Fe0 Y0 2.890432 1_545
Fe0 Y3 2.890432 1_445
Fe0 Y3 2.890432 1_446
Fe0 Y5 3.313371 1_445
Fe0 Y2 3.313371 1_555
Fe0 Y1 3.393778 1_545
Sb0 Y4 3.198013 1_555
Sb0 Y3 3.214240 1_555
Sb0 Y0 3.217129 1_555
Sb0 Y5 3.255857 1_555
Sb0 Y5 3.255857 1_554
Sb0 Y2 3.264054 1_555
Sb0 Y2 3.264054 1_554
Sb0 Y1 3.301121 1_555
Sb0 Y1 3.301121 1_554
Sb1 Y4 3.198008 1_655
Sb1 Y0 3.214237 1_545
Sb1 Y3 3.217137 1_555
Sb1 Y2 3.255862 1_555
Sb1 Y2 3.255862 1_554
Sb1 Y5 3.264048 1_544
Sb1 Y5 3.264048 1_545
Sb1 Y1 3.301123 1_655
Sb1 Y1 3.301123 1_654
