# generated using pymatgen
data_MgNi2(MoO4)2
_symmetry_space_group_name_H-M   'P 1'
_cell_length_a   5.12363140
_cell_length_b   4.89504142
_cell_length_c   5.88522700
_cell_angle_alpha   90.00000000
_cell_angle_beta   90.00000000
_cell_angle_gamma   88.66270487
_symmetry_Int_Tables_number   1
_chemical_formula_structural   MgNi2(MoO4)2
_chemical_formula_sum   'Mg1 Ni2 Mo2 O8'
_cell_volume   147.56357326
_cell_formula_units_Z   1
loop_
 _symmetry_equiv_pos_site_id
 _symmetry_equiv_pos_as_xyz
  1  'x, y, z'
loop_
 _atom_site_type_symbol
 _atom_site_label
 _atom_site_symmetry_multiplicity
 _atom_site_fract_x
 _atom_site_fract_y
 _atom_site_fract_z
 _atom_site_occupancy
  Mg  Mg0  1  0.50000000  0.25000000  0.08721300  1
  Ni  Ni0  1  0.50000000  0.25000000  0.62947300  1
  Ni  Ni1  1  0.50000000  0.75000000  0.36636600  1
  Mo  Mo0  1  0.00000000  0.25000000  0.19120800  1
  Mo  Mo1  1  0.00000000  0.75000000  0.82049600  1
  O  O0  1  0.75794600  0.91101700  0.63263500  1
  O  O1  1  0.24205400  0.58898300  0.63263500  1
  O  O2  1  0.28472100  0.10267000  0.37032000  1
  O  O3  1  0.71527900  0.39733000  0.37032000  1
  O  O4  1  0.78659300  0.94703000  0.10462700  1
  O  O5  1  0.21340700  0.55297000  0.10462700  1
  O  O6  1  0.22733900  0.06138000  0.89712400  1
  O  O7  1  0.77266100  0.43862000  0.89712400  1
loop_
_geom_bond_atom_site_label_1
_geom_bond_atom_site_label_2
_geom_bond_distance
_geom_bond_site_symmetry_2
Mg0 O7 2.028761 1_554
Mg0 O6 2.028761 1_554
Mg0 O4 2.065063 1_545
Mg0 O5 2.065063 1_555
Mg0 O3 2.133055 1_555
Mg0 O2 2.133055 1_555
Ni0 O2 2.024853 1_555
Ni0 O3 2.024853 1_555
Ni0 O1 2.097155 1_555
Ni0 O0 2.097155 1_545
Ni0 O7 2.312046 1_555
Ni0 O6 2.312046 1_555
Ni1 O2 2.026949 1_565
Ni1 O3 2.026949 1_555
Ni1 O0 2.207305 1_555
Ni1 O1 2.207305 1_555
Ni1 O4 2.350597 1_555
Ni1 O5 2.350597 1_555
Mo0 O3 1.926207 1_455
Mo0 O2 1.926207 1_555
Mo0 O5 1.931407 1_555
Mo0 O4 1.931407 1_445
Mo0 O6 2.270364 1_554
Mo0 O7 2.270364 1_454
Mo1 O0 1.826487 1_455
Mo1 O1 1.826487 1_555
Mo1 O6 1.991544 1_565
Mo1 O7 1.991544 1_455
Mo1 O5 2.207423 1_556
Mo1 O4 2.207423 1_456
