# generated using pymatgen
data_MgTe4Mo4(SeS)2
_symmetry_space_group_name_H-M   'P 1'
_cell_length_a   3.39625606
_cell_length_b   3.39687359
_cell_length_c   45.91318109
_cell_angle_alpha   89.98150086
_cell_angle_beta   89.98249387
_cell_angle_gamma   119.99195763
_symmetry_Int_Tables_number   1
_chemical_formula_structural   MgTe4Mo4(SeS)2
_chemical_formula_sum   'Mg1 Te4 Mo4 Se2 S2'
_cell_volume   458.75724016
_cell_formula_units_Z   1
loop_
 _symmetry_equiv_pos_site_id
 _symmetry_equiv_pos_as_xyz
  1  'x, y, z'
loop_
 _atom_site_type_symbol
 _atom_site_label
 _atom_site_symmetry_multiplicity
 _atom_site_fract_x
 _atom_site_fract_y
 _atom_site_fract_z
 _atom_site_occupancy
  Mg  Mg0  1  0.99802500  0.99709000  0.19638000  1
  Te  Te0  1  0.33305000  0.66638100  0.69852300  1
  Te  Te1  1  0.66680600  0.33357400  0.04601500  1
  Te  Te2  1  0.66656300  0.33333800  0.12802500  1
  Te  Te3  1  0.33344000  0.66668700  0.61701700  1
  Mo  Mo0  1  0.33339300  0.66692100  0.08683300  1
  Mo  Mo1  1  0.33334600  0.66672700  0.46967900  1
  Mo  Mo2  1  0.66714900  0.33391800  0.28974300  1
  Mo  Mo3  1  0.66651900  0.33303200  0.65777600  1
  Se  Se0  1  0.66689800  0.33349500  0.43375300  1
  Se  Se1  1  0.66640400  0.33315000  0.50560800  1
  S  S0  1  0.33344300  0.66688900  0.32223500  1
  S  S1  1  0.33496300  0.66879800  0.25681600  1
loop_
_geom_bond_atom_site_label_1
_geom_bond_atom_site_label_2
_geom_bond_distance
_geom_bond_site_symmetry_2
Mo0 Te1 2.711986 1_565
Mo0 Te1 2.712670 1_555
Mo0 Te1 2.713063 1_455
Mo0 Te2 2.724006 1_455
Mo0 Te2 2.724520 1_555
Mo0 Te2 2.724869 1_565
Mo1 Se0 2.562277 1_565
Mo1 Se1 2.562428 1_555
Mo1 Se1 2.562497 1_455
Mo1 Se0 2.562658 1_455
Mo1 Se0 2.562700 1_555
Mo1 Se1 2.562975 1_565
Mo2 S0 2.463702 1_655
Mo2 S0 2.463923 1_555
Mo2 S0 2.464415 1_545
Mo2 S1 2.473415 1_545
Mo2 S1 2.476952 1_555
Mo2 S1 2.478108 1_655
Mo3 Te0 2.709732 1_545
Mo3 Te3 2.710442 1_655
Mo3 Te0 2.710543 1_555
Mo3 Te0 2.710692 1_655
Mo3 Te3 2.710717 1_555
Mo3 Te3 2.710948 1_545
