# generated using pymatgen
data_BaAg8S5
_symmetry_space_group_name_H-M   'P 1'
_cell_length_a   17.44892338
_cell_length_b   7.86976636
_cell_length_c   9.01209028
_cell_angle_alpha   71.73207021
_cell_angle_beta   90.00000000
_cell_angle_gamma   90.00000000
_symmetry_Int_Tables_number   1
_chemical_formula_structural   BaAg8S5
_chemical_formula_sum   'Ba4 Ag32 S20'
_cell_volume   1175.16056237
_cell_formula_units_Z   4
loop_
 _symmetry_equiv_pos_site_id
 _symmetry_equiv_pos_as_xyz
  1  'x, y, z'
loop_
 _atom_site_type_symbol
 _atom_site_label
 _atom_site_symmetry_multiplicity
 _atom_site_fract_x
 _atom_site_fract_y
 _atom_site_fract_z
 _atom_site_occupancy
  Ba  Ba0  1  0.75000000  0.56929523  0.25038873  1
  Ba  Ba1  1  0.25000000  0.43070477  0.74961127  1
  Ba  Ba2  1  0.75000000  0.60718380  0.71037455  1
  Ba  Ba3  1  0.25000000  0.39281620  0.28962545  1
  Ag  Ag0  1  0.83848403  0.06531083  0.12654646  1
  Ag  Ag1  1  0.16151597  0.93468917  0.87345354  1
  Ag  Ag2  1  0.45228628  0.68556322  0.78582303  1
  Ag  Ag3  1  0.95228628  0.31443678  0.21417697  1
  Ag  Ag4  1  0.54771372  0.31443678  0.21417697  1
  Ag  Ag5  1  0.66151597  0.06531083  0.12654646  1
  Ag  Ag6  1  0.49558157  0.93820583  0.35242030  1
  Ag  Ag7  1  0.99558157  0.06179417  0.64757970  1
  Ag  Ag8  1  0.50441843  0.06179417  0.64757970  1
  Ag  Ag9  1  0.00441843  0.93820583  0.35242030  1
  Ag  Ag10  1  0.45241084  0.63167628  0.14945011  1
  Ag  Ag11  1  0.95241084  0.36832372  0.85054989  1
  Ag  Ag12  1  0.54758916  0.36832372  0.85054989  1
  Ag  Ag13  1  0.04758916  0.63167628  0.14945011  1
  Ag  Ag14  1  0.50000000  0.50000000  0.50000000  1
  Ag  Ag15  1  0.00000000  0.50000000  0.50000000  1
  Ag  Ag16  1  0.09764740  0.24639166  0.07827651  1
  Ag  Ag17  1  0.59764740  0.75360834  0.92172349  1
  Ag  Ag18  1  0.90235260  0.75360834  0.92172349  1
  Ag  Ag19  1  0.40235260  0.24639166  0.07827651  1
  Ag  Ag20  1  0.16260186  0.87819953  0.22160138  1
  Ag  Ag21  1  0.66260186  0.12180047  0.77839862  1
  Ag  Ag22  1  0.83739814  0.12180047  0.77839862  1
  Ag  Ag23  1  0.33739814  0.87819953  0.22160138  1
  Ag  Ag24  1  0.00000000  0.00000000  -0.00000000  1
  Ag  Ag25  1  0.50000000  0.00000000  -0.00000000  1
  Ag  Ag26  1  0.16119098  0.88773266  0.54393725  1
  Ag  Ag27  1  0.66119098  0.11226734  0.45606275  1
  Ag  Ag28  1  0.83880902  0.11226734  0.45606275  1
  Ag  Ag29  1  0.33880902  0.88773266  0.54393725  1
  Ag  Ag30  1  0.04771372  0.68556322  0.78582303  1
  Ag  Ag31  1  0.33848403  0.93468917  0.87345354  1
  S  S0  1  0.13437357  0.62607765  0.45620854  1
  S  S1  1  0.63437357  0.37392235  0.54379146  1
  S  S2  1  0.86562643  0.37392235  0.54379146  1
  S  S3  1  0.36562643  0.62607765  0.45620854  1
  S  S4  1  0.84927621  0.40289306  0.02498626  1
  S  S5  1  0.34927621  0.59710694  0.97501374  1
  S  S6  1  0.75000000  0.88848238  0.92943081  1
  S  S7  1  0.25000000  0.11151762  0.07056919  1
  S  S8  1  0.07039879  0.22001069  0.36134442  1
  S  S9  1  0.57039879  0.77998931  0.63865558  1
  S  S10  1  0.92960121  0.77998931  0.63865558  1
  S  S11  1  0.42960121  0.22001069  0.36134442  1
  S  S12  1  0.75000000  0.91590049  0.37545600  1
  S  S13  1  0.25000000  0.08409951  0.62454400  1
  S  S14  1  0.07347284  0.22737265  0.79876041  1
  S  S15  1  0.57347284  0.77262735  0.20123959  1
  S  S16  1  0.92652716  0.77262735  0.20123959  1
  S  S17  1  0.42652716  0.22737265  0.79876041  1
  S  S18  1  0.15072379  0.59710694  0.97501374  1
  S  S19  1  0.65072379  0.40289306  0.02498626  1
loop_
_geom_bond_atom_site_label_1
_geom_bond_atom_site_label_2
_geom_bond_distance
_geom_bond_site_symmetry_2
Ba0 S6 3.181397 1_554
Ba0 S19 3.241870 1_555
Ba0 S4 3.241870 1_555
Ba0 S12 3.261624 1_555
Ba0 S1 3.298097 1_555
Ba0 S2 3.298097 1_555
Ba0 S15 3.435127 1_555
Ba0 S16 3.435127 1_555
Ba1 S7 3.181397 1_556
Ba1 S18 3.241870 1_555
Ba1 S5 3.241870 1_555
Ba1 S13 3.261624 1_555
Ba1 S3 3.298097 1_555
Ba1 S0 3.298097 1_555
Ba1 S17 3.435127 1_555
Ba1 S14 3.435127 1_555
Ba2 S12 3.227316 1_555
Ba2 S4 3.281269 1_556
Ba2 S19 3.281269 1_556
Ba2 S1 3.379629 1_555
Ba2 S2 3.379629 1_555
Ba2 S9 3.396636 1_555
Ba2 S10 3.396636 1_555
Ba2 S6 3.396738 1_555
Ba3 S13 3.227316 1_555
Ba3 S5 3.281269 1_554
Ba3 S18 3.281269 1_554
Ba3 S0 3.379629 1_555
Ba3 S3 3.379629 1_555
Ba3 S11 3.396636 1_555
Ba3 S8 3.396636 1_555
Ba3 S7 3.396738 1_555
Ag0 S4 2.531162 1_555
Ag0 S12 2.672957 1_545
Ag0 S16 2.673313 1_545
Ag0 S6 3.004298 1_544
Ag1 S18 2.531162 1_555
Ag1 S13 2.672957 1_565
Ag1 S14 2.673313 1_565
Ag1 S7 3.004298 1_566
Ag2 S5 2.424508 1_555
Ag2 S9 2.437381 1_555
Ag3 S4 2.424508 1_555
Ag3 S8 2.437381 1_655
Ag4 S19 2.424508 1_555
Ag4 S11 2.437381 1_555
Ag5 S19 2.531162 1_555
Ag5 S12 2.672957 1_545
Ag5 S15 2.673313 1_545
Ag5 S6 3.004298 1_544
Ag6 S11 2.522322 1_565
Ag6 S15 2.552347 1_555
Ag6 S9 2.809845 1_555
Ag7 S10 2.522322 1_545
Ag7 S14 2.552347 1_655
Ag7 S8 2.809845 1_655
Ag8 S9 2.522322 1_545
Ag8 S17 2.552347 1_555
Ag8 S11 2.809845 1_555
Ag9 S8 2.522322 1_565
Ag9 S16 2.552347 1_455
Ag9 S10 2.809845 1_455
Ag10 S5 2.460071 1_554
Ag10 S15 2.497016 1_555
Ag11 S4 2.460071 1_556
Ag11 S14 2.497016 1_655
Ag12 S19 2.460071 1_556
Ag12 S17 2.497016 1_555
Ag13 S18 2.460071 1_554
Ag13 S16 2.497016 1_455
Ag14 S3 2.528285 1_555
Ag14 S1 2.528285 1_555
Ag14 S11 3.106721 1_555
Ag14 S9 3.106721 1_555
Ag14 S17 3.142385 1_555
Ag14 S15 3.142385 1_555
Ag15 S2 2.528285 1_455
Ag15 S0 2.528285 1_555
Ag15 S10 3.106721 1_455
Ag15 S8 3.106721 1_555
Ag15 S16 3.142385 1_455
Ag15 S14 3.142385 1_555
Ag16 S8 2.538681 1_555
Ag16 S14 2.604264 1_554
Ag16 S18 2.780529 1_554
Ag16 S7 2.871359 1_555
Ag17 S9 2.538681 1_555
Ag17 S15 2.604264 1_556
Ag17 S19 2.780529 1_556
Ag17 S6 2.871359 1_555
Ag18 S10 2.538681 1_555
Ag18 S16 2.604264 1_556
Ag18 S4 2.780529 1_556
Ag18 S6 2.871359 1_555
Ag19 S11 2.538681 1_555
Ag19 S17 2.604264 1_554
Ag19 S5 2.780529 1_554
Ag19 S7 2.871359 1_555
Ag20 S7 2.446003 1_565
Ag20 S0 2.453509 1_555
Ag21 S6 2.446003 1_545
Ag21 S1 2.453509 1_555
Ag22 S6 2.446003 1_545
Ag22 S2 2.453509 1_555
Ag23 S7 2.446003 1_565
Ag23 S3 2.453509 1_555
Ag24 S16 2.469829 1_445
Ag24 S14 2.469829 1_554
Ag25 S15 2.469829 1_545
Ag25 S17 2.469829 1_554
Ag26 S13 2.453765 1_565
Ag26 S0 2.470796 1_555
Ag26 S8 3.059068 1_565
Ag27 S12 2.453765 1_545
Ag27 S1 2.470796 1_555
Ag27 S9 3.059068 1_545
Ag28 S12 2.453765 1_545
Ag28 S2 2.470796 1_555
Ag28 S10 3.059068 1_545
Ag29 S13 2.453765 1_565
Ag29 S3 2.470796 1_555
Ag29 S11 3.059068 1_565
Ag30 S18 2.424508 1_555
Ag30 S10 2.437381 1_455
Ag31 S5 2.531162 1_555
Ag31 S13 2.672957 1_565
Ag31 S17 2.673313 1_565
Ag31 S7 3.004298 1_566
