# generated using pymatgen
data_Na6La2Nb6Si9(SO16)3
_symmetry_space_group_name_H-M   'P 1'
_cell_length_a   18.19311643
_cell_length_b   9.15371512
_cell_length_c   23.10983241
_cell_angle_alpha   90.12076159
_cell_angle_beta   89.75917920
_cell_angle_gamma   120.13803465
_symmetry_Int_Tables_number   1
_chemical_formula_structural   Na6La2Nb6Si9(SO16)3
_chemical_formula_sum   'Na18 La6 Nb18 Si27 S9 O144'
_cell_volume   3328.29894935
_cell_formula_units_Z   3
loop_
 _symmetry_equiv_pos_site_id
 _symmetry_equiv_pos_as_xyz
  1  'x, y, z'
loop_
 _atom_site_type_symbol
 _atom_site_label
 _atom_site_symmetry_multiplicity
 _atom_site_fract_x
 _atom_site_fract_y
 _atom_site_fract_z
 _atom_site_occupancy
  Na  Na0  1  0.32496062  0.01978320  0.25702470  1
  Na  Na1  1  0.68737826  0.37568688  0.24452925  1
  Na  Na2  1  0.49011097  0.62074461  0.24899916  1
  Na  Na3  1  0.82401700  0.63091195  0.75506437  1
  Na  Na4  1  0.99075463  0.35814539  0.74676067  1
  Na  Na5  1  0.18794050  0.00357224  0.74123390  1
  Na  Na6  1  0.00336127  0.01126851  0.50080999  1
  Na  Na7  1  0.50870905  0.99685813  0.50113695  1
  Na  Na8  1  0.00824770  0.02030254  0.00027971  1
  Na  Na9  1  0.50365916  0.99541361  0.99938408  1
  Na  Na10  1  0.34399631  0.32913874  0.83365733  1
  Na  Na11  1  0.82802411  0.31953143  0.82483063  1
  Na  Na12  1  0.32679684  0.33991293  0.33224927  1
  Na  Na13  1  0.84356700  0.35850286  0.33827904  1
  Na  Na14  1  0.16704989  0.64640022  0.16676571  1
  Na  Na15  1  0.67342012  0.67415066  0.16488345  1
  Na  Na16  1  0.17556299  0.67232085  0.66221741  1
  Na  Na17  1  0.65538580  0.67159704  0.65977391  1
  La  La0  1  0.50047521  0.00180411  0.36233167  1
  La  La1  1  0.00050581  0.00056961  0.86158398  1
  La  La2  1  0.34195787  0.33784252  0.67633347  1
  La  La3  1  0.82264678  0.31463309  0.67742800  1
  La  La4  1  0.32242573  0.33121911  0.17836579  1
  La  La5  1  0.83883317  0.34264298  0.17828852  1
  Nb  Nb0  1  0.00219648  0.98613102  0.36107660  1
  Nb  Nb1  1  0.50202900  0.01791276  0.85926739  1
  Nb  Nb2  1  0.99693358  0.99076164  0.64361454  1
  Nb  Nb3  1  0.49825934  0.01941405  0.63940355  1
  Nb  Nb4  1  0.00020969  0.99379689  0.14526251  1
  Nb  Nb5  1  0.49711986  0.00216829  0.14398933  1
  Nb  Nb6  1  0.33145403  0.35252707  0.97650454  1
  Nb  Nb7  1  0.82474299  0.30218079  0.97901540  1
  Nb  Nb8  1  0.33273917  0.34634209  0.48444421  1
  Nb  Nb9  1  0.83141075  0.30932513  0.47701878  1
  Nb  Nb10  1  0.17185615  0.66237427  0.01245450  1
  Nb  Nb11  1  0.65719181  0.66061384  0.02168292  1
  Nb  Nb12  1  0.15737791  0.65112674  0.52147641  1
  Nb  Nb13  1  0.66573008  0.67092262  0.51427831  1
  Nb  Nb14  1  0.16349113  0.65805875  0.31331716  1
  Nb  Nb15  1  0.66862295  0.65394791  0.31873916  1
  Nb  Nb16  1  0.16853933  0.68343005  0.81721812  1
  Nb  Nb17  1  0.66054186  0.66516277  0.81041831  1
  Si  Si0  1  0.13851798  0.98287152  0.25289318  1
  Si  Si1  1  0.35000930  0.71017959  0.25015492  1
  Si  Si2  1  0.85579108  0.72086192  0.25387053  1
  Si  Si3  1  0.50461469  0.30182674  0.24841074  1
  Si  Si4  1  0.63797008  0.28958592  0.75153347  1
  Si  Si5  1  0.00403208  0.70793937  0.74888196  1
  Si  Si6  1  0.35643183  0.99242270  0.75292065  1
  Si  Si7  1  0.85006642  0.99071305  0.75058663  1
  Si  Si8  1  0.48824511  0.34596138  0.57858209  1
  Si  Si9  1  0.97862856  0.32329811  0.58493507  1
  Si  Si10  1  0.18283426  0.02993007  0.58332185  1
  Si  Si11  1  0.68039858  0.02724840  0.58063130  1
  Si  Si12  1  0.33240891  0.63792638  0.58284193  1
  Si  Si13  1  0.47828981  0.63314292  0.08490331  1
  Si  Si14  1  0.83300760  0.02619439  0.08180220  1
  Si  Si15  1  0.17975826  0.33600819  0.08070772  1
  Si  Si16  1  0.68288099  0.33457862  0.08349606  1
  Si  Si17  1  0.31379530  0.66930861  0.91301505  1
  Si  Si18  1  0.01654261  0.38767824  0.91683473  1
  Si  Si19  1  0.52055096  0.38407815  0.91764494  1
  Si  Si20  1  0.17481431  0.96761600  0.92348126  1
  Si  Si21  1  0.66349983  0.94589058  0.91480014  1
  Si  Si22  1  0.81220355  0.95330308  0.41564205  1
  Si  Si23  1  0.16892591  0.37876901  0.41570149  1
  Si  Si24  1  0.67651091  0.38240961  0.42265133  1
  Si  Si25  1  0.02015359  0.65520129  0.41796901  1
  Si  Si26  1  0.51480541  0.64436972  0.41618581  1
  S  S0  1  0.64458779  0.98817007  0.24671393  1
  S  S1  1  0.00602033  0.28352475  0.25343418  1
  S  S2  1  0.14542525  0.30277198  0.74711629  1
  S  S3  1  0.50374917  0.72560180  0.75508709  1
  S  S4  1  0.83351610  0.64148499  0.58096848  1
  S  S5  1  0.99090933  0.64576125  0.07853794  1
  S  S6  1  0.33253820  0.02410622  0.08165464  1
  S  S7  1  0.80043533  0.64336394  0.91925170  1
  S  S8  1  0.29941897  0.95478878  0.41840046  1
  O  O0  1  0.08854266  0.00503338  0.30845357  1
  O  O1  1  0.60920984  0.01271506  0.30020451  1
  O  O2  1  0.40826623  0.79602743  0.30494315  1
  O  O3  1  0.91473601  0.82861084  0.30871895  1
  O  O4  1  0.49310199  0.18955367  0.30374450  1
  O  O5  1  0.00072079  0.18679562  0.30495875  1
  O  O6  1  0.10902323  0.20690116  0.80080576  1
  O  O7  1  0.58917079  0.17159644  0.80853280  1
  O  O8  1  0.50209376  0.81475746  0.80733856  1
  O  O9  1  0.99206474  0.79467972  0.80499539  1
  O  O10  1  0.41460117  0.99966813  0.80872608  1
  O  O11  1  0.90707753  0.02161396  0.80633269  1
  O  O12  1  0.40515706  0.98186356  0.69382036  1
  O  O13  1  0.90411998  0.96783181  0.69386124  1
  O  O14  1  0.09124085  0.20892782  0.69591744  1
  O  O15  1  0.58348880  0.19044863  0.69323381  1
  O  O16  1  0.01526723  0.83476738  0.69177320  1
  O  O17  1  0.51277874  0.81622739  0.70081719  1
  O  O18  1  0.40435257  0.84043050  0.19282283  1
  O  O19  1  0.90637589  0.83183270  0.19420994  1
  O  O20  1  0.01326337  0.20429827  0.19845369  1
  O  O21  1  0.51506868  0.19550040  0.19059743  1
  O  O22  1  0.08331745  0.97802773  0.19399848  1
  O  O23  1  0.59082201  0.97502189  0.19531475  1
  O  O24  1  0.46495573  0.39306887  0.63991398  1
  O  O25  1  0.95569327  0.37094388  0.64600596  1
  O  O26  1  0.22913121  0.08179457  0.64546992  1
  O  O27  1  0.73024567  0.06901337  0.64020412  1
  O  O28  1  0.30658756  0.52496599  0.63971795  1
  O  O29  1  0.82031288  0.56266718  0.63883142  1
  O  O30  1  0.45523414  0.53971511  0.14579990  1
  O  O31  1  0.96412761  0.55735837  0.13470769  1
  O  O32  1  0.31818624  0.07505982  0.13871266  1
  O  O33  1  0.81176064  0.09739290  0.13846202  1
  O  O34  1  0.22964170  0.39427475  0.14011352  1
  O  O35  1  0.73031473  0.37452179  0.14536122  1
  O  O36  1  0.23509936  0.31119704  0.02713547  1
  O  O37  1  0.74235288  0.31111401  0.03190360  1
  O  O38  1  0.41245162  0.52111709  0.03129135  1
  O  O39  1  0.93165315  0.55118331  0.03161117  1
  O  O40  1  0.34269996  0.14081164  0.03454079  1
  O  O41  1  0.84809922  0.16270730  0.02660308  1
  O  O42  1  0.23888928  0.17082389  0.53170252  1
  O  O43  1  0.73668504  0.16557604  0.52765764  1
  O  O44  1  0.34881146  0.53460529  0.52788714  1
  O  O45  1  0.84463644  0.54557157  0.53451734  1
  O  O46  1  0.41805925  0.31576710  0.52782986  1
  O  O47  1  0.91337613  0.30400742  0.53125321  1
  O  O48  1  0.26763379  0.68330352  0.97198220  1
  O  O49  1  0.75228929  0.65569913  0.96774573  1
  O  O50  1  0.08150629  0.50623668  0.96843819  1
  O  O51  1  0.57932548  0.47219353  0.97330449  1
  O  O52  1  0.17647577  0.85278785  0.97587072  1
  O  O53  1  0.65557447  0.83081746  0.96990158  1
  O  O54  1  0.25089661  0.84636023  0.46671225  1
  O  O55  1  0.76858719  0.84712347  0.47316375  1
  O  O56  1  0.15555329  0.47901088  0.46898757  1
  O  O57  1  0.67875383  0.50385478  0.47302781  1
  O  O58  1  0.07909525  0.68563298  0.47320350  1
  O  O59  1  0.57976684  0.65661766  0.46738242  1
  O  O60  1  0.07032227  0.63693871  0.36030647  1
  O  O61  1  0.56619292  0.63603315  0.35554967  1
  O  O62  1  0.25596548  0.87028053  0.36103873  1
  O  O63  1  0.74915502  0.85711574  0.35963433  1
  O  O64  1  0.18084363  0.49986792  0.35765456  1
  O  O65  1  0.68197635  0.48976983  0.35983650  1
  O  O66  1  0.06504242  0.49598167  0.85660466  1
  O  O67  1  0.56971759  0.50364361  0.86083534  1
  O  O68  1  0.18093789  0.86985060  0.86191019  1
  O  O69  1  0.68074872  0.85984302  0.85755692  1
  O  O70  1  0.24867004  0.63851065  0.85943027  1
  O  O71  1  0.75747884  0.63485262  0.86248238  1
  O  O72  1  0.00924518  0.82421722  0.41050184  1
  O  O73  1  0.50684782  0.80866832  0.42368412  1
  O  O74  1  0.38427600  0.97480910  0.42056067  1
  O  O75  1  0.90812577  0.98448043  0.40758282  1
  O  O76  1  0.08411768  0.19069764  0.40680938  1
  O  O77  1  0.59308054  0.20302956  0.42665622  1
  O  O78  1  0.00579210  0.20576820  0.92546311  1
  O  O79  1  0.50947723  0.19378561  0.91025120  1
  O  O80  1  0.09164170  0.98113395  0.92791508  1
  O  O81  1  0.58319624  0.97668164  0.90844142  1
  O  O82  1  0.40799439  0.83251021  0.90873029  1
  O  O83  1  0.88594311  0.79256326  0.92190427  1
  O  O84  1  0.48819506  0.16394001  0.58514098  1
  O  O85  1  0.98682017  0.15189369  0.59041602  1
  O  O86  1  0.08877258  0.01932458  0.58947949  1
  O  O87  1  0.58953831  0.02314788  0.58962924  1
  O  O88  1  0.42031502  0.82045957  0.59216995  1
  O  O89  1  0.91593971  0.81160674  0.58315620  1
  O  O90  1  0.48709101  0.82165434  0.08974337  1
  O  O91  1  0.99321149  0.81284813  0.08427216  1
  O  O92  1  0.41395539  0.01648370  0.08291164  1
  O  O93  1  0.92080703  0.01786275  0.09191913  1
  O  O94  1  0.08877384  0.15704246  0.09079572  1
  O  O95  1  0.58977991  0.15732801  0.08818481  1
  O  O96  1  0.33847319  0.14875877  0.75577563  1
  O  O97  1  0.83819462  0.15203341  0.74593547  1
  O  O98  1  0.23123733  0.32607301  0.74281887  1
  O  O99  1  0.73577413  0.33710641  0.75281884  1
  O  O100  1  0.42988204  0.55282029  0.75665577  1
  O  O101  1  0.92300420  0.52097739  0.74465100  1
  O  O102  1  0.33822832  0.52537670  0.24556909  1
  O  O103  1  0.84024034  0.52951043  0.25401749  1
  O  O104  1  0.42268870  0.32369159  0.24368770  1
  O  O105  1  0.93226344  0.30856611  0.25200505  1
  O  O106  1  0.23553301  0.13317663  0.25228293  1
  O  O107  1  0.73062993  0.13724084  0.24175891  1
  O  O108  1  0.32069054  0.49687744  0.92135429  1
  O  O109  1  0.80618255  0.48676101  0.92327697  1
  O  O110  1  0.42759114  0.36643206  0.92711320  1
  O  O111  1  0.92404742  0.38050084  0.92722430  1
  O  O112  1  0.26223896  0.15235086  0.92720447  1
  O  O113  1  0.74986960  0.13748375  0.92530932  1
  O  O114  1  0.30313818  0.11918128  0.41953226  1
  O  O115  1  0.82042031  0.14203644  0.42217325  1
  O  O116  1  0.25259208  0.35913701  0.42537525  1
  O  O117  1  0.76351434  0.37071067  0.42561760  1
  O  O118  1  0.42252810  0.46871169  0.42254993  1
  O  O119  1  0.92762037  0.48732646  0.42570202  1
  O  O120  1  0.15955387  0.48843727  0.06649990  1
  O  O121  1  0.66829564  0.49294320  0.06884794  1
  O  O122  1  0.07859319  0.68075608  0.06930319  1
  O  O123  1  0.57445762  0.66666626  0.06961331  1
  O  O124  1  0.26117816  0.84839283  0.07311991  1
  O  O125  1  0.75532877  0.84035736  0.06473032  1
  O  O126  1  0.16724374  0.84127272  0.56815755  1
  O  O127  1  0.66383320  0.84020897  0.56441896  1
  O  O128  1  0.25551697  0.67129597  0.56408596  1
  O  O129  1  0.76342069  0.67560714  0.57277842  1
  O  O130  1  0.07487972  0.48080991  0.56977675  1
  O  O131  1  0.58639184  0.49239564  0.56709779  1
  O  O132  1  0.14115312  0.80438335  0.25874897  1
  O  O133  1  0.64592592  0.82703872  0.24813704  1
  O  O134  1  0.25910953  0.71470480  0.25523206  1
  O  O135  1  0.76017657  0.70275550  0.25806786  1
  O  O136  1  0.08593959  0.45626329  0.25489009  1
  O  O137  1  0.59513152  0.48866007  0.25274507  1
  O  O138  1  0.14587528  0.46636234  0.74930135  1
  O  O139  1  0.64155625  0.47481757  0.76009999  1
  O  O140  1  0.09518305  0.70318716  0.75396349  1
  O  O141  1  0.58387833  0.70762336  0.75749565  1
  O  O142  1  0.26068853  0.81776096  0.75993922  1
  O  O143  1  0.75927166  0.80376861  0.75689479  1
loop_
_geom_bond_atom_site_label_1
_geom_bond_atom_site_label_2
_geom_bond_distance
_geom_bond_site_symmetry_2
Na0 O106 2.331132 1_555
Na0 O134 2.424040 1_545
Na0 O104 2.455069 1_555
Na0 O62 2.736780 1_545
Na0 O32 2.796103 1_555
Na0 O4 2.861009 1_555
Na1 O137 2.379340 1_555
Na1 O103 2.415887 1_555
Na1 O35 2.419849 1_555
Na1 O135 2.614039 1_555
Na1 O107 2.666640 1_555
Na1 O65 2.879254 1_555
Na1 O21 2.988844 1_555
Na2 O104 2.358809 1_555
Na2 O102 2.446021 1_555
Na2 O30 2.484605 1_555
Na2 O133 2.495291 1_555
Na2 O137 2.727908 1_555
Na2 O61 2.798468 1_555
Na3 O99 2.340400 1_555
Na3 O143 2.400784 1_555
Na3 O101 2.475662 1_555
Na3 O29 2.749949 1_555
Na3 O71 2.765372 1_555
Na3 O139 2.882534 1_555
Na3 O9 2.888940 1_555
Na3 O13 3.020532 1_555
Na4 O101 2.364101 1_555
Na4 O25 2.435333 1_555
Na4 O97 2.450605 1_555
Na4 O138 2.478516 1_655
Na4 O140 2.754568 1_655
Na4 O66 2.857516 1_655
Na5 O26 2.329369 1_555
Na5 O96 2.393831 1_555
Na5 O140 2.415495 1_545
Na5 O98 2.646001 1_555
Na5 O142 2.664564 1_545
Na5 O16 2.951485 1_545
Na5 O68 3.024367 1_545
Na6 O85 2.531443 1_455
Na6 O86 2.555399 1_555
Na6 O89 2.561563 1_445
Na6 O76 2.672135 1_555
Na6 O75 2.703031 1_445
Na6 O72 2.732369 1_545
Na7 O77 2.441928 1_565
Na7 O87 2.463825 1_565
Na7 O73 2.470097 1_555
Na7 O84 2.608008 1_565
Na7 O88 2.645297 1_555
Na7 O74 2.864980 1_555
Na8 O80 2.397816 1_544
Na8 O78 2.441885 1_554
Na8 O94 2.502398 1_555
Na8 O91 2.634021 1_445
Na8 O93 2.636733 1_455
Na8 O83 2.817362 1_444
Na9 O90 2.551175 1_556
Na9 O95 2.558376 1_566
Na9 O92 2.591275 1_566
Na9 O81 2.600456 1_555
Na9 O82 2.655765 1_555
Na9 O79 2.715212 1_565
Na10 O96 2.407939 1_555
Na10 O100 2.565104 1_555
Na10 O110 2.568502 1_555
Na10 O112 2.659977 1_555
Na10 O108 2.697795 1_555
Na10 O98 2.931591 1_555
Na11 O99 2.430607 1_555
Na11 O97 2.445311 1_555
Na11 O101 2.570486 1_555
Na11 O113 2.792812 1_555
Na11 O111 2.830702 1_555
Na11 O109 2.875009 1_555
Na12 O102 2.567943 1_555
Na12 O106 2.570802 1_555
Na12 O116 2.587990 1_555
Na12 O118 2.595470 1_555
Na12 O114 2.733678 1_555
Na12 O104 2.735536 1_555
Na13 O119 2.452728 1_555
Na13 O117 2.518974 1_555
Na13 O103 2.520879 1_555
Na13 O115 2.652144 1_555
Na13 O105 2.738214 1_555
Na14 O134 2.519453 1_555
Na14 O136 2.600941 1_555
Na14 O120 2.696100 1_555
Na14 O132 2.737654 1_555
Na14 O124 2.800178 1_555
Na14 O122 2.881574 1_555
Na15 O133 2.567876 1_555
Na15 O137 2.568303 1_555
Na15 O135 2.609303 1_555
Na15 O121 2.741635 1_555
Na15 O125 2.757090 1_555
Na15 O123 2.828864 1_555
Na16 O138 2.623072 1_555
Na16 O140 2.664591 1_555
Na16 O142 2.686498 1_555
Na16 O128 2.691615 1_555
Na16 O126 2.718764 1_555
Na16 O130 2.790117 1_555
Na17 O131 2.606443 1_555
Na17 O127 2.652376 1_555
Na17 O141 2.702637 1_555
Na17 O129 2.793038 1_555
Na17 O143 2.793111 1_555
Na17 O139 2.870713 1_555
La0 O2 2.226268 1_545
La0 O4 2.246684 1_555
La0 O77 2.309620 1_555
La0 O73 2.316679 1_545
La0 O1 2.400633 1_555
La0 O74 2.407052 1_545
La1 O11 2.214651 1_455
La1 O9 2.233025 1_445
La1 O80 2.334369 1_545
La1 O78 2.350478 1_555
La1 O6 2.383543 1_555
La1 O83 2.431952 1_445
La2 O24 2.195749 1_555
La2 O28 2.276304 1_555
La2 O26 2.321573 1_555
La2 O98 2.487310 1_555
La2 O96 2.504495 1_555
La2 O100 2.593344 1_555
La3 O27 2.197644 1_555
La3 O97 2.288732 1_555
La3 O25 2.320753 1_555
La3 O101 2.421382 1_555
La3 O99 2.424372 1_555
La3 O29 2.461285 1_555
La4 O34 2.226463 1_555
La4 O102 2.265465 1_555
La4 O30 2.325301 1_555
La4 O104 2.400146 1_555
La4 O106 2.411640 1_555
La4 O32 2.480676 1_555
La5 O33 2.239257 1_555
La5 O35 2.270262 1_555
La5 O31 2.358719 1_555
La5 O107 2.415049 1_555
La5 O103 2.435806 1_555
La5 O105 2.539244 1_555
Nb0 O0 1.920545 1_565
Nb0 O72 1.927944 1_555
Nb0 O3 1.944197 1_455
Nb0 O75 2.010717 1_455
Nb0 O76 2.011747 1_565
Nb0 O5 2.261944 1_565
Nb1 O7 1.902337 1_555
Nb1 O10 1.915758 1_545
Nb1 O79 1.942322 1_555
Nb1 O82 2.046914 1_545
Nb1 O81 2.046954 1_545
Nb1 O8 2.211594 1_545
Nb2 O13 1.967825 1_555
Nb2 O16 1.968996 1_655
Nb2 O86 1.992567 1_665
Nb2 O85 2.000715 1_565
Nb2 O89 2.096156 1_555
Nb2 O14 2.226986 1_665
Nb3 O84 1.899579 1_555
Nb3 O88 1.982521 1_545
Nb3 O12 1.991964 1_545
Nb3 O15 1.993306 1_555
Nb3 O87 2.002291 1_555
Nb3 O17 2.459874 1_545
Nb4 O22 1.951823 1_555
Nb4 O19 1.959896 1_455
Nb4 O94 1.996647 1_565
Nb4 O93 1.997675 1_465
Nb4 O91 2.127497 1_455
Nb4 O20 2.193903 1_565
Nb5 O18 1.948288 1_545
Nb5 O21 1.952760 1_555
Nb5 O90 2.006396 1_545
Nb5 O95 2.026668 1_555
Nb5 O92 2.125217 1_555
Nb5 O23 2.195078 1_545
Nb6 O108 1.917732 1_555
Nb6 O38 1.969759 1_556
Nb6 O36 1.975813 1_556
Nb6 O112 1.981796 1_555
Nb6 O110 2.034319 1_555
Nb6 O40 2.451102 1_556
Nb7 O41 1.890653 1_556
Nb7 O113 1.900773 1_555
Nb7 O37 1.963316 1_556
Nb7 O111 1.973658 1_555
Nb7 O109 2.283355 1_555
Nb7 O39 2.451966 1_556
Nb8 O44 1.884779 1_555
Nb8 O42 1.981517 1_555
Nb8 O46 1.985840 1_555
Nb8 O118 2.029483 1_555
Nb8 O116 2.047479 1_555
Nb8 O114 2.394422 1_555
Nb9 O115 1.917777 1_555
Nb9 O43 1.945073 1_555
Nb9 O47 1.971244 1_555
Nb9 O117 1.991168 1_555
Nb9 O119 2.061996 1_555
Nb9 O45 2.442984 1_555
Nb10 O50 1.851530 1_554
Nb10 O48 1.897268 1_554
Nb10 O52 1.902202 1_554
Nb10 O120 1.947625 1_555
Nb10 O124 2.176274 1_555
Nb10 O122 2.213650 1_555
Nb11 O123 1.888136 1_555
Nb11 O51 1.945051 1_554
Nb11 O121 1.976042 1_555
Nb11 O53 1.978483 1_554
Nb11 O125 1.985612 1_555
Nb11 O49 2.146821 1_554
Nb12 O130 1.890173 1_555
Nb12 O58 1.959391 1_555
Nb12 O128 1.968393 1_555
Nb12 O56 1.973437 1_555
Nb12 O126 1.976233 1_555
Nb12 O54 2.151373 1_555
Nb13 O59 1.856229 1_555
Nb13 O57 1.912972 1_555
Nb13 O127 1.947030 1_555
Nb13 O131 1.966962 1_555
Nb13 O55 1.991652 1_555
Nb13 O129 2.220755 1_555
Nb14 O64 1.927265 1_555
Nb14 O60 1.935477 1_555
Nb14 O132 2.026696 1_555
Nb14 O134 2.043148 1_555
Nb14 O62 2.131937 1_555
Nb14 O136 2.148094 1_555
Nb15 O65 1.895826 1_555
Nb15 O63 1.940754 1_555
Nb15 O61 1.975769 1_555
Nb15 O135 2.043433 1_555
Nb15 O137 2.092569 1_555
Nb15 O133 2.452873 1_555
Nb16 O68 1.907238 1_555
Nb16 O70 1.965079 1_555
Nb16 O142 1.998232 1_555
Nb16 O66 2.016418 1_555
Nb16 O140 2.051965 1_555
Nb16 O138 2.398156 1_555
Nb17 O67 1.952355 1_555
Nb17 O69 1.958286 1_555
Nb17 O139 1.974300 1_555
Nb17 O143 2.016321 1_555
Nb17 O141 2.037868 1_555
Nb17 O71 2.268364 1_555
O0 Si0 1.640350 1_545
O1 S0 1.459516 1_545
O2 Si1 1.585788 1_555
O3 Si2 1.635088 1_555
O4 Si3 1.588211 1_555
O5 S1 1.459062 1_555
O6 S2 1.470468 1_555
O7 Si4 1.650190 1_555
O8 S3 1.464673 1_555
O9 Si5 1.589443 1_655
O10 Si6 1.651726 1_555
O11 Si7 1.590778 1_545
O12 Si6 1.654046 1_555
O13 Si7 1.710053 1_555
O14 S2 1.504933 1_555
O15 Si4 1.650457 1_555
O16 Si5 1.702141 1_555
O17 S3 1.467619 1_555
O18 Si1 1.722329 1_555
O19 Si2 1.684112 1_555
O20 S1 1.499458 1_555
O21 Si3 1.716612 1_555
O22 Si0 1.682110 1_555
O23 S0 1.507705 1_555
O24 Si8 1.596950 1_555
O25 Si9 1.591036 1_555
O26 Si10 1.613489 1_555
O27 Si11 1.588728 1_555
O28 Si12 1.590678 1_555
O29 S4 1.481107 1_555
O30 Si13 1.589888 1_555
O31 S5 1.476622 1_555
O32 S6 1.463296 1_555
O33 Si14 1.591798 1_555
O34 Si15 1.585609 1_555
O35 Si16 1.616709 1_555
O36 Si15 1.678092 1_555
O37 Si16 1.691099 1_555
O38 Si13 1.671832 1_555
O39 S5 1.468484 1_555
O40 S6 1.471658 1_555
O41 Si14 1.709795 1_555
O42 Si10 1.673892 1_555
O43 Si11 1.686586 1_555
O44 Si12 1.694575 1_555
O45 S4 1.461736 1_555
O46 Si8 1.655092 1_555
O47 Si9 1.667479 1_555
O48 Si17 1.635970 1_555
O49 S7 1.458242 1_555
O50 Si18 1.647787 1_555
O51 Si19 1.609225 1_555
O52 Si20 1.615281 1_555
O53 Si21 1.613517 1_555
O54 S8 1.458586 1_555
O55 Si22 1.601103 1_555
O56 Si23 1.623104 1_555
O57 Si24 1.594434 1_555
O58 Si25 1.602153 1_555
O59 Si26 1.639303 1_555
O60 Si25 1.666977 1_555
O61 Si26 1.704011 1_555
O62 S8 1.539818 1_555
O63 Si22 1.661253 1_555
O64 Si23 1.684568 1_555
O65 Si24 1.729049 1_555
O66 Si18 1.678061 1_555
O67 Si19 1.653690 1_555
O68 Si20 1.712115 1_555
O69 Si21 1.645970 1_555
O70 Si17 1.640799 1_555
O71 S7 1.511634 1_555
O72 Si25 1.665079 1_555
O73 Si26 1.590647 1_555
O74 S8 1.461488 1_555
O75 Si22 1.630635 1_555
O76 Si23 1.649382 1_555
O77 Si24 1.582832 1_555
O78 Si18 1.588956 1_555
O79 Si19 1.658489 1_555
O80 Si20 1.581820 1_555
O81 Si21 1.628174 1_555
O82 Si17 1.614584 1_555
O83 S7 1.468338 1_555
O84 Si8 1.672915 1_555
O85 Si9 1.654018 1_555
O86 Si10 1.670127 1_555
O87 Si11 1.646815 1_555
O88 Si12 1.647425 1_555
O89 S4 1.526961 1_555
O90 Si13 1.654587 1_555
O91 S5 1.514413 1_555
O92 S6 1.517865 1_555
O93 Si14 1.654550 1_555
O94 Si15 1.659337 1_555
O95 Si16 1.659143 1_555
O96 Si6 1.621096 1_545
O97 Si7 1.599976 1_545
O98 S2 1.468699 1_555
O99 Si4 1.606045 1_555
O100 S3 1.474535 1_555
O101 Si5 1.605829 1_655
O102 Si1 1.598169 1_555
O103 Si2 1.628028 1_555
O104 Si3 1.604539 1_555
O105 S1 1.470889 1_655
O106 Si0 1.603050 1_545
O107 S0 1.476388 1_545
O108 Si17 1.656651 1_555
O109 S7 1.491864 1_555
O110 Si19 1.630013 1_555
O111 Si18 1.667138 1_655
O112 Si20 1.642078 1_545
O113 Si21 1.684632 1_545
O114 S8 1.472174 1_545
O115 Si22 1.664189 1_545
O116 Si23 1.636129 1_555
O117 Si24 1.640969 1_555
O118 Si26 1.647338 1_555
O119 Si25 1.621195 1_655
O120 Si15 1.645518 1_555
O121 Si16 1.635697 1_555
O122 S5 1.475549 1_455
O123 Si13 1.654155 1_555
O124 S6 1.488415 1_565
O125 Si14 1.623080 1_565
O126 Si10 1.640707 1_565
O127 Si11 1.625612 1_565
O128 Si12 1.634886 1_555
O129 S4 1.470344 1_555
O130 Si9 1.652150 1_455
O131 Si8 1.627759 1_555
O132 Si0 1.664227 1_555
O133 S0 1.487757 1_555
O134 Si1 1.678544 1_555
O135 Si2 1.664922 1_555
O136 S1 1.518865 1_555
O137 Si3 1.679088 1_555
O138 S2 1.494114 1_555
O139 Si4 1.675104 1_555
O140 Si5 1.685172 1_555
O141 S3 1.548222 1_555
O142 Si6 1.678925 1_555
O143 Si7 1.684847 1_555
