# generated using pymatgen
data_Na6Y2Al2Si3(SO8)3
_symmetry_space_group_name_H-M   'P 1'
_cell_length_a   9.13970525
_cell_length_b   8.99303121
_cell_length_c   22.62037813
_cell_angle_alpha   91.30940924
_cell_angle_beta   89.87454449
_cell_angle_gamma   119.66734654
_symmetry_Int_Tables_number   1
_chemical_formula_structural   Na6Y2Al2Si3(SO8)3
_chemical_formula_sum   'Na18 Y6 Al6 Si9 S9 O72'
_cell_volume   1615.01832181
_cell_formula_units_Z   3
loop_
 _symmetry_equiv_pos_site_id
 _symmetry_equiv_pos_as_xyz
  1  'x, y, z'
loop_
 _atom_site_type_symbol
 _atom_site_label
 _atom_site_symmetry_multiplicity
 _atom_site_fract_x
 _atom_site_fract_y
 _atom_site_fract_z
 _atom_site_occupancy
  Na  Na0  1  0.63773813  0.99978170  0.26636829  1
  Na  Na1  1  0.34992087  0.35894700  0.25662050  1
  Na  Na2  1  0.64422814  0.64541516  0.73046867  1
  Na  Na3  1  0.98102658  0.35858710  0.73889121  1
  Na  Na4  1  0.02675200  0.68664965  0.59397244  1
  Na  Na5  1  0.67526443  0.96293600  0.58263793  1
  Na  Na6  1  0.31422032  0.97322578  0.10047402  1
  Na  Na7  1  0.02029756  0.32548313  0.08510557  1
  Na  Na8  1  0.97179328  0.64927693  0.89474796  1
  Na  Na9  1  0.70517395  0.04120806  0.90774093  1
  Na  Na10  1  0.95751105  0.29497585  0.42311785  1
  Na  Na11  1  0.34535699  0.02957194  0.41465058  1
  Na  Na12  1  0.97208147  0.98714658  0.50501570  1
  Na  Na13  1  0.98539803  0.01321927  0.00087586  1
  Na  Na14  1  0.66818387  0.32264977  0.81798718  1
  Na  Na15  1  0.67871730  0.34785856  0.34026131  1
  Na  Na16  1  0.32301040  0.67323899  0.17834066  1
  Na  Na17  1  0.33306228  0.66175798  0.66268379  1
  Y  Y0  1  0.00038845  0.01725829  0.83929223  1
  Y  Y1  1  0.99762146  0.00879550  0.16161016  1
  Y  Y2  1  0.67451035  0.33239241  0.98465989  1
  Y  Y3  1  0.34085437  0.66303114  0.02125751  1
  Y  Y4  1  0.34976342  0.65793635  0.51979443  1
  Y  Y5  1  0.31966810  0.66914383  0.80530245  1
  Al  Al0  1  0.99616350  0.01952288  0.34432092  1
  Al  Al1  1  0.96142570  0.97456004  0.64576578  1
  Al  Al2  1  0.69020263  0.34708758  0.68128149  1
  Al  Al3  1  0.66253878  0.29959859  0.20052772  1
  Al  Al4  1  0.67613464  0.30366551  0.49591390  1
  Al  Al5  1  0.31968557  0.69340387  0.31687723  1
  Si  Si0  1  0.29426162  0.00055526  0.25291141  1
  Si  Si1  1  0.01187556  0.32281733  0.25327319  1
  Si  Si2  1  0.98954636  0.70262858  0.74197829  1
  Si  Si3  1  0.69589217  0.01119447  0.74233249  1
  Si  Si4  1  0.96014068  0.31853508  0.58625471  1
  Si  Si5  1  0.67443064  0.60616260  0.58347174  1
  Si  Si6  1  0.66517256  0.03617440  0.08977399  1
  Si  Si7  1  0.03278652  0.36241640  0.91924676  1
  Si  Si8  1  0.63820308  0.96517098  0.41535633  1
  S  S0  1  0.69892886  0.69515473  0.25400011  1
  S  S1  1  0.30322235  0.28705448  0.74165050  1
  S  S2  1  0.38244327  0.05695180  0.58233063  1
  S  S3  1  0.96051438  0.63303306  0.08828515  1
  S  S4  1  0.37547567  0.33380276  0.09137837  1
  S  S5  1  0.63673929  0.66978995  0.91270115  1
  S  S6  1  0.32579840  0.96636067  0.92021731  1
  S  S7  1  0.32387522  0.35737611  0.40862840  1
  S  S8  1  0.04219142  0.67811733  0.41416433  1
  O  O0  1  0.17969035  0.02768270  0.30372199  1
  O  O1  1  0.81466430  0.78705716  0.30405756  1
  O  O2  1  0.96793799  0.17018954  0.30094873  1
  O  O3  1  0.23918504  0.20569389  0.80016708  1
  O  O4  1  0.97698158  0.77883637  0.80768040  1
  O  O5  1  0.80154908  0.05475852  0.80613625  1
  O  O6  1  0.80589426  0.98193024  0.69089859  1
  O  O7  1  0.18415184  0.19130220  0.69347334  1
  O  O8  1  0.00828840  0.83241980  0.68914697  1
  O  O9  1  0.76298848  0.79595247  0.19911535  1
  O  O10  1  0.06309785  0.26441862  0.19056919  1
  O  O11  1  0.20359857  0.97009138  0.18872379  1
  O  O12  1  0.86383458  0.35303252  0.64110605  1
  O  O13  1  0.49369130  0.14879980  0.63261987  1
  O  O14  1  0.65337282  0.50148136  0.64343648  1
  O  O15  1  0.85780308  0.52667772  0.13656064  1
  O  O16  1  0.65227932  0.15339187  0.14492162  1
  O  O17  1  0.47298852  0.34250080  0.14444467  1
  O  O18  1  0.46195754  0.33374924  0.03590810  1
  O  O19  1  0.87923424  0.56225614  0.02928555  1
  O  O20  1  0.67756309  0.12842488  0.02638784  1
  O  O21  1  0.46301382  0.14247140  0.52469845  1
  O  O22  1  0.69146457  0.49687735  0.52609503  1
  O  O23  1  0.84261393  0.27877425  0.52501640  1
  O  O24  1  0.55172724  0.68787525  0.96675423  1
  O  O25  1  0.12308625  0.44934313  0.98335769  1
  O  O26  1  0.31899243  0.87578186  0.97542758  1
  O  O27  1  0.56838347  0.86222330  0.47620011  1
  O  O28  1  0.28963142  0.43178295  0.46267582  1
  O  O29  1  0.14165286  0.70829279  0.46990878  1
  O  O30  1  0.13764829  0.65199435  0.36439408  1
  O  O31  1  0.49665617  0.86305436  0.36112807  1
  O  O32  1  0.34777457  0.46654009  0.35748396  1
  O  O33  1  0.13368101  0.48364928  0.86408247  1
  O  O34  1  0.35384575  0.87928578  0.86882936  1
  O  O35  1  0.54356608  0.66329087  0.85912494  1
  O  O36  1  0.02773329  0.83355579  0.40470957  1
  O  O37  1  0.82969240  0.99792014  0.39906675  1
  O  O38  1  0.16490786  0.18355161  0.40267508  1
  O  O39  1  0.00345062  0.16819075  0.91783509  1
  O  O40  1  0.16489593  0.96690441  0.91537713  1
  O  O41  1  0.80855592  0.82317797  0.91383503  1
  O  O42  1  0.97617454  0.14438277  0.59413890  1
  O  O43  1  0.21315868  0.03748418  0.58429094  1
  O  O44  1  0.84754696  0.80274400  0.58658614  1
  O  O45  1  0.99433483  0.81228178  0.09007647  1
  O  O46  1  0.83844215  0.02525218  0.09172633  1
  O  O47  1  0.20727752  0.17338670  0.08835710  1
  O  O48  1  0.67270849  0.17724804  0.73192425  1
  O  O49  1  0.47454408  0.31114795  0.73620673  1
  O  O50  1  0.81611100  0.51250093  0.74010908  1
  O  O51  1  0.67993384  0.52028213  0.24570253  1
  O  O52  1  0.83240496  0.32583065  0.24735366  1
  O  O53  1  0.48614302  0.17920005  0.25021794  1
  O  O54  1  0.65311339  0.51414735  0.91553341  1
  O  O55  1  0.84353584  0.34823526  0.91503209  1
  O  O56  1  0.47170320  0.14240152  0.92128987  1
  O  O57  1  0.65064006  0.16174938  0.42613515  1
  O  O58  1  0.46980567  0.33103853  0.41561726  1
  O  O59  1  0.87819616  0.51912062  0.41606625  1
  O  O60  1  0.34522374  0.48322364  0.09243166  1
  O  O61  1  0.12882019  0.63871274  0.08959492  1
  O  O62  1  0.48804455  0.85293313  0.09146866  1
  O  O63  1  0.36403258  0.88002539  0.58017288  1
  O  O64  1  0.51964426  0.65024178  0.58215485  1
  O  O65  1  0.13793121  0.49772244  0.57876751  1
  O  O66  1  0.33321338  0.84338120  0.26295488  1
  O  O67  1  0.52762722  0.67405405  0.26289303  1
  O  O68  1  0.18205848  0.50537739  0.26993019  1
  O  O69  1  0.31873776  0.46212821  0.74497987  1
  O  O70  1  0.14735442  0.66391661  0.73973900  1
  O  O71  1  0.52232009  0.82834307  0.74604380  1
loop_
_geom_bond_atom_site_label_1
_geom_bond_atom_site_label_2
_geom_bond_distance
_geom_bond_site_symmetry_2
Na0 O66 2.418992 1_555
Na0 O31 2.511574 1_555
Na0 O67 2.582867 1_555
Na0 O52 2.614974 1_565
Na0 O53 2.626560 1_565
Na0 O2 2.728642 1_565
Na1 O32 2.461680 1_555
Na1 O67 2.472808 1_555
Na1 O68 2.481611 1_555
Na1 O53 2.482910 1_555
Na1 O51 2.635272 1_555
Na1 O10 2.753217 1_555
Na1 O17 2.803710 1_555
Na1 O0 2.824930 1_555
Na2 O14 2.355452 1_555
Na2 O50 2.411738 1_555
Na2 O71 2.420358 1_555
Na2 O69 2.615517 1_555
Na2 O49 2.619239 1_555
Na2 O6 2.798987 1_555
Na3 O70 2.390929 1_655
Na3 O12 2.448424 1_555
Na3 O48 2.462946 1_555
Na3 O50 2.500378 1_555
Na3 O69 2.750250 1_655
Na3 O5 2.865726 1_555
Na4 O44 2.345752 1_455
Na4 O65 2.391312 1_555
Na4 O8 2.543679 1_555
Na4 O63 2.708902 1_555
Na4 O43 2.759311 1_565
Na4 O12 2.841151 1_455
Na4 O29 2.970881 1_555
Na5 O42 2.415638 1_565
Na5 O64 2.443386 1_555
Na5 O63 2.559261 1_555
Na5 O27 2.570255 1_555
Na5 O44 2.610515 1_555
Na5 O6 2.691378 1_555
Na5 O23 2.822367 1_565
Na6 O11 2.230140 1_555
Na6 O62 2.329292 1_555
Na6 O47 2.456847 1_565
Na6 O45 2.548812 1_455
Na6 O61 2.627447 1_555
Na6 O16 2.857637 1_565
Na6 O26 2.948696 1_554
Na7 O46 2.376948 1_455
Na7 O61 2.480017 1_555
Na7 O10 2.534251 1_555
Na7 O25 2.548009 1_554
Na7 O60 2.584603 1_555
Na7 O47 2.667564 1_555
Na8 O4 2.299672 1_555
Na8 O55 2.413883 1_555
Na8 O40 2.538501 1_655
Na8 O54 2.587966 1_555
Na8 O33 2.649330 1_655
Na8 O41 2.670981 1_555
Na9 O39 2.386873 1_655
Na9 O55 2.402852 1_555
Na9 O5 2.443513 1_555
Na9 O41 2.569686 1_545
Na9 O56 2.717010 1_555
Na9 O20 2.824647 1_556
Na9 O34 2.920789 1_545
Na10 O37 2.375761 1_545
Na10 O57 2.446001 1_555
Na10 O59 2.464930 1_555
Na10 O23 2.508033 1_555
Na10 O38 2.581915 1_655
Na10 O28 2.791617 1_655
Na10 O2 2.977987 1_555
Na11 O58 2.364119 1_555
Na11 O57 2.443659 1_555
Na11 O36 2.550344 1_545
Na11 O38 2.644015 1_555
Na11 O21 2.683162 1_555
Na11 O31 2.753224 1_545
Na11 O29 2.864681 1_545
Na11 O0 2.928901 1_555
Na12 O44 2.390047 1_555
Na12 O42 2.425452 1_565
Na12 O43 2.695977 1_665
Na12 O37 2.756051 1_555
Na12 O36 2.803916 1_655
Na12 O38 2.944889 1_665
Na13 O39 2.321339 1_654
Na13 O46 2.482069 1_555
Na13 O41 2.556450 1_544
Na13 O47 2.664353 1_655
Na13 O40 2.689059 1_644
Na13 O45 2.767101 1_545
Na14 O48 2.332018 1_555
Na14 O50 2.385000 1_555
Na14 O49 2.527736 1_555
Na14 O55 2.658501 1_555
Na14 O54 2.813069 1_555
Na14 O56 2.930172 1_555
Na15 O59 2.397850 1_555
Na15 O58 2.507163 1_555
Na15 O57 2.522223 1_555
Na15 O52 2.583130 1_555
Na15 O53 2.603615 1_555
Na15 O51 2.667219 1_555
Na16 O66 2.395619 1_555
Na16 O68 2.537099 1_555
Na16 O62 2.543094 1_555
Na16 O61 2.591903 1_555
Na16 O60 2.632032 1_555
Na16 O67 2.675254 1_555
Na17 O70 2.436695 1_555
Na17 O71 2.472231 1_555
Na17 O65 2.498499 1_555
Na17 O64 2.527766 1_555
Na17 O69 2.573829 1_555
Na17 O63 2.651736 1_555
Al0 O2 1.809107 1_555
Al0 O0 1.880657 1_655
Al0 O37 1.896416 1_545
Al0 O38 1.991172 1_655
Al0 O1 2.106742 1_545
Al0 O36 2.308685 1_645
Al1 O6 1.775159 1_555
Al1 O8 1.838893 1_655
Al1 O44 1.892712 1_555
Al1 O42 1.895100 1_565
Al1 O7 2.256846 1_665
Al1 O43 2.506108 1_665
Al2 O12 1.805286 1_555
Al2 O14 1.814459 1_555
Al2 O48 1.873005 1_555
Al2 O50 1.878703 1_555
Al2 O13 2.089439 1_555
Al2 O49 2.215884 1_555
Al3 O16 1.767094 1_555
Al3 O52 1.794759 1_555
Al3 O53 1.831559 1_555
Al3 O51 2.145663 1_555
Al3 O17 2.335220 1_555
Al3 O15 2.442322 1_555
Al4 O23 1.773965 1_555
Al4 O22 1.791659 1_555
Al4 O21 1.887296 1_555
Al4 O57 1.946714 1_555
Al5 O66 1.797676 1_555
Al5 O68 1.840509 1_555
Al5 O31 1.854786 1_555
Al5 O30 1.859898 1_555
Al5 O67 2.332591 1_555
Al5 O32 2.382684 1_555
O0 Si0 1.646770 1_555
O1 S0 1.476879 1_555
O2 Si1 1.651786 1_655
O3 S1 1.498983 1_555
O3 Y0 2.194815 1_555
O4 Si2 1.649939 1_555
O4 Y0 2.151960 1_665
O5 Si3 1.665765 1_555
O5 Y0 2.145499 1_655
O6 Si3 1.636001 1_565
O7 S1 1.465638 1_555
O8 Si2 1.638549 1_455
O9 S0 1.492890 1_555
O9 Y1 2.232749 1_565
O10 Si1 1.647194 1_555
O10 Y1 2.154737 1_455
O11 Si0 1.622407 1_565
O11 Y1 2.169068 1_465
O12 Si4 1.630473 1_555
O13 S2 1.463172 1_555
O14 Si5 1.625123 1_555
O15 S3 1.463887 1_555
O16 Si6 1.656346 1_555
O17 S4 1.474014 1_555
O18 S4 1.481616 1_555
O18 Y2 2.265158 1_554
O19 S3 1.495185 1_555
O19 Y2 2.208440 1_554
O20 Si6 1.648504 1_555
O20 Y2 2.094336 1_554
O21 S2 1.521272 1_555
O22 Si5 1.663409 1_555
O23 Si4 1.674577 1_555
O24 S5 1.495662 1_555
O24 Y3 2.204627 1_556
O25 Si7 1.646245 1_555
O25 Y3 2.129607 1_556
O26 S6 1.491005 1_555
O26 Y3 2.290255 1_556
O27 Si8 1.621147 1_555
O27 Y4 2.186403 1_555
O28 S7 1.486151 1_555
O28 Y4 2.210046 1_555
O29 S8 1.495062 1_555
O29 Y4 2.445762 1_555
O30 S8 1.506763 1_555
O31 Si8 1.673643 1_555
O32 S7 1.479335 1_555
O33 Si7 1.630335 1_555
O33 Y5 2.173613 1_555
O34 S6 1.478486 1_555
O34 Y5 2.242190 1_555
O35 S5 1.466064 1_555
O35 Y5 2.406886 1_555
O36 S8 1.487907 1_555
O37 Si8 1.666566 1_555
O38 S7 1.521717 1_555
O39 Si7 1.630238 1_555
O39 Y0 2.202750 1_555
O40 S6 1.477338 1_555
O40 Y0 2.479668 1_565
O41 S5 1.491199 1_555
O41 Y0 2.460857 1_665
O42 Si4 1.657169 1_555
O43 S2 1.469145 1_555
O44 Si5 1.691024 1_555
O45 S3 1.483074 1_555
O45 Y1 2.357831 1_565
O46 Si6 1.635231 1_555
O46 Y1 2.207108 1_555
O47 S4 1.499882 1_555
O47 Y1 2.428757 1_455
O48 Si3 1.630911 1_555
O49 S1 1.475959 1_555
O50 Si2 1.658899 1_555
O51 S0 1.501642 1_555
O52 Si1 1.659640 1_655
O53 Si0 1.695655 1_555
O54 S5 1.482282 1_555
O54 Y2 2.364225 1_555
O55 Si7 1.673021 1_655
O55 Y2 2.160834 1_555
O56 S6 1.481117 1_545
O56 Y2 2.274745 1_555
O57 Si8 1.726009 1_545
O58 S7 1.474914 1_555
O59 S8 1.474417 1_655
O60 S4 1.499658 1_555
O60 Y3 2.321976 1_555
O61 S3 1.513968 1_455
O61 Y3 2.403276 1_555
O62 Si6 1.643037 1_565
O62 Y3 2.204495 1_555
O63 S2 1.514517 1_565
O63 Y4 2.343001 1_555
O64 Si5 1.647810 1_555
O64 Y4 2.127391 1_555
O65 Si4 1.638603 1_455
O65 Y4 2.217880 1_555
O66 Si0 1.639946 1_565
O67 S0 1.494652 1_555
O68 Si1 1.644106 1_555
O69 S1 1.509392 1_555
O69 Y5 2.279514 1_555
O70 Si2 1.643165 1_455
O70 Y5 2.148432 1_555
O71 Si3 1.628210 1_565
O71 Y5 2.174606 1_555
