# generated using pymatgen
data_MgMnSbO4
_symmetry_space_group_name_H-M   'P 1'
_cell_length_a   5.44119779
_cell_length_b   10.76649341
_cell_length_c   10.26238128
_cell_angle_alpha   17.60483562
_cell_angle_beta   30.77952571
_cell_angle_gamma   35.02319642
_symmetry_Int_Tables_number   1
_chemical_formula_structural   MgMnSbO4
_chemical_formula_sum   'Mg1 Mn1 Sb1 O4'
_cell_volume   93.05010840
_cell_formula_units_Z   1
loop_
 _symmetry_equiv_pos_site_id
 _symmetry_equiv_pos_as_xyz
  1  'x, y, z'
loop_
 _atom_site_type_symbol
 _atom_site_label
 _atom_site_symmetry_multiplicity
 _atom_site_fract_x
 _atom_site_fract_y
 _atom_site_fract_z
 _atom_site_occupancy
  Mg  Mg0  1  0.00061000  0.49999500  0.99968600  1
  Mn  Mn0  1  0.49930000  0.50001300  0.50008700  1
  Sb  Sb0  1  0.49980100  0.00000200  0.50022500  1
  O  O0  1  0.19428700  0.99971200  0.27273000  1
  O  O1  1  0.30838800  0.49999000  0.21201600  1
  O  O2  1  0.80582100  0.00028500  0.72716600  1
  O  O3  1  0.69179200  0.50000200  0.78809100  1
loop_
_geom_bond_atom_site_label_1
_geom_bond_atom_site_label_2
_geom_bond_distance
_geom_bond_site_symmetry_2
Mg0 O3 2.197033 1_555
Mg0 O1 2.198270 1_456
Mg0 O0 2.230325 1_555
Mg0 O2 2.231220 1_456
Mg0 O0 2.231509 1_546
Mg0 O2 2.232436 1_465
Mn0 O2 2.289012 1_555
Mn0 O0 2.289712 1_555
Mn0 O2 2.290468 1_564
Mn0 O0 2.291301 1_546
Mn0 O3 2.393129 1_455
Mn0 O1 2.399440 1_655
O0 Sb0 2.136733 1_465
O1 Sb0 2.137570 1_555
O1 Sb0 2.137787 1_564
O2 Sb0 2.136904 1_655
O3 Sb0 2.138564 1_565
O3 Sb0 2.138722 1_556
