# generated using pymatgen
data_NaScAlP(SO6)2
_symmetry_space_group_name_H-M   'P 1'
_cell_length_a   8.56849072
_cell_length_b   8.56396982
_cell_length_c   22.50068043
_cell_angle_alpha   90.06012620
_cell_angle_beta   89.90068551
_cell_angle_gamma   119.94615462
_symmetry_Int_Tables_number   1
_chemical_formula_structural   NaScAlP(SO6)2
_chemical_formula_sum   'Na6 Sc6 Al6 P6 S12 O72'
_cell_volume   1430.67327430
_cell_formula_units_Z   6
loop_
 _symmetry_equiv_pos_site_id
 _symmetry_equiv_pos_as_xyz
  1  'x, y, z'
loop_
 _atom_site_type_symbol
 _atom_site_label
 _atom_site_symmetry_multiplicity
 _atom_site_fract_x
 _atom_site_fract_y
 _atom_site_fract_z
 _atom_site_occupancy
  Na  Na0  1  0.99080241  0.99371482  0.50024880  1
  Na  Na1  1  0.00364096  0.99319552  0.99995157  1
  Na  Na2  1  0.66166434  0.32130803  0.83197119  1
  Na  Na3  1  0.66031772  0.32275873  0.33519044  1
  Na  Na4  1  0.32583198  0.67013320  0.16619212  1
  Na  Na5  1  0.34326435  0.66947614  0.66480130  1
  Sc  Sc0  1  0.99867721  0.00208740  0.85193545  1
  Sc  Sc1  1  0.00595653  0.99229958  0.14674941  1
  Sc  Sc2  1  0.66802885  0.33293965  0.18627437  1
  Sc  Sc3  1  0.66713176  0.33380159  0.98061370  1
  Sc  Sc4  1  0.33905078  0.68230901  0.31738225  1
  Sc  Sc5  1  0.34335445  0.68238439  0.81051137  1
  Al  Al0  1  0.99970855  0.00205841  0.35384638  1
  Al  Al1  1  0.98176241  0.98683377  0.64589481  1
  Al  Al2  1  0.66460566  0.33287701  0.68242974  1
  Al  Al3  1  0.66896912  0.33463468  0.48372880  1
  Al  Al4  1  0.32366529  0.67231163  0.01826085  1
  Al  Al5  1  0.35738056  0.67400445  0.51865515  1
  P  P0  1  0.28577501  0.00271092  0.25423792  1
  P  P1  1  0.71599430  0.01321566  0.74474145  1
  P  P2  1  0.66665050  0.61618627  0.58307630  1
  P  P3  1  0.96756938  0.62457113  0.08153697  1
  P  P4  1  0.33155536  0.95418133  0.91876913  1
  P  P5  1  0.63346092  0.96765505  0.42001678  1
  S  S0  1  0.71416739  0.71396553  0.25299160  1
  S  S1  1  0.00139959  0.28587312  0.25274845  1
  S  S2  1  0.29169330  0.28409416  0.74456859  1
  S  S3  1  0.99068938  0.70533827  0.74511503  1
  S  S4  1  0.95720279  0.33548292  0.58294017  1
  S  S5  1  0.37698750  0.04460229  0.58317749  1
  S  S6  1  0.65952989  0.03047643  0.08163324  1
  S  S7  1  0.37284323  0.34424090  0.08127560  1
  S  S8  1  0.61683163  0.66718475  0.91913634  1
  S  S9  1  0.05063541  0.38262709  0.91810777  1
  S  S10  1  0.33417151  0.37304316  0.41937257  1
  S  S11  1  0.03914620  0.66549060  0.42049371  1
  O  O0  1  0.18946150  0.02382215  0.30891238  1
  O  O1  1  0.82442206  0.80210366  0.30602365  1
  O  O2  1  0.97488314  0.17368456  0.30597307  1
  O  O3  1  0.21919985  0.18093480  0.80046054  1
  O  O4  1  0.96302872  0.78031687  0.80068543  1
  O  O5  1  0.82274004  0.04140034  0.80288451  1
  O  O6  1  0.80860638  0.98033374  0.69167427  1
  O  O7  1  0.17549862  0.19379662  0.69285776  1
  O  O8  1  0.02435781  0.82493786  0.69353510  1
  O  O9  1  0.78825402  0.81777099  0.19806300  1
  O  O10  1  0.02355577  0.20758223  0.19761600  1
  O  O11  1  0.17977008  0.97525773  0.19657021  1
  O  O12  1  0.87484044  0.36544154  0.63653473  1
  O  O13  1  0.49096635  0.12413798  0.63657888  1
  O  O14  1  0.63542591  0.49865353  0.63865073  1
  O  O15  1  0.88151662  0.51163212  0.13820482  1
  O  O16  1  0.62708871  0.10884747  0.13588330  1
  O  O17  1  0.48021494  0.37097453  0.13576352  1
  O  O18  1  0.45237355  0.30770219  0.02922909  1
  O  O19  1  0.84924945  0.53858925  0.02719990  1
  O  O20  1  0.68968760  0.14311246  0.02929131  1
  O  O21  1  0.45907672  0.15722326  0.52981498  1
  O  O22  1  0.69677911  0.52853089  0.52760305  1
  O  O23  1  0.84202560  0.30042636  0.52984449  1
  O  O24  1  0.52801409  0.68765956  0.97231713  1
  O  O25  1  0.16066539  0.46782616  0.97158075  1
  O  O26  1  0.30851168  0.83774678  0.97348015  1
  O  O27  1  0.54061125  0.84001210  0.47334248  1
  O  O28  1  0.30097307  0.45916042  0.47169944  1
  O  O29  1  0.15734482  0.69535675  0.47222753  1
  O  O30  1  0.11107012  0.62896381  0.36565862  1
  O  O31  1  0.51741301  0.88999504  0.36373239  1
  O  O32  1  0.36677224  0.48077824  0.36501581  1
  O  O33  1  0.12989964  0.48469793  0.86324090  1
  O  O34  1  0.35931203  0.87197155  0.86152423  1
  O  O35  1  0.51359778  0.63953824  0.86398424  1
  O  O36  1  0.02215776  0.82928559  0.41185677  1
  O  O37  1  0.82034675  0.98313718  0.40859145  1
  O  O38  1  0.17067541  0.19208719  0.41184485  1
  O  O39  1  0.03142618  0.20102553  0.91486500  1
  O  O40  1  0.16132642  0.97114435  0.91324341  1
  O  O41  1  0.79652855  0.83096723  0.91482358  1
  O  O42  1  0.97893179  0.17361706  0.59076150  1
  O  O43  1  0.19601672  0.02677581  0.59182986  1
  O  O44  1  0.83588915  0.80768621  0.59155614  1
  O  O45  1  0.98625966  0.81269483  0.08642102  1
  O  O46  1  0.82179008  0.01490873  0.08828278  1
  O  O47  1  0.19096324  0.18545135  0.08737498  1
  O  O48  1  0.69281373  0.17981963  0.73549297  1
  O  O49  1  0.47437694  0.30560107  0.73765249  1
  O  O50  1  0.82859813  0.52529137  0.73749934  1
  O  O51  1  0.69998634  0.53489857  0.24833586  1
  O  O52  1  0.83781334  0.30375312  0.24876749  1
  O  O53  1  0.47387813  0.17180554  0.24841199  1
  O  O54  1  0.63962679  0.50780027  0.92287537  1
  O  O55  1  0.86958104  0.36219573  0.92249030  1
  O  O56  1  0.49937649  0.14215880  0.92302683  1
  O  O57  1  0.65229072  0.15524944  0.43123664  1
  O  O58  1  0.49537713  0.35296656  0.42838275  1
  O  O59  1  0.85689736  0.50462215  0.42857558  1
  O  O60  1  0.35954420  0.50815368  0.07291411  1
  O  O61  1  0.15455582  0.64171467  0.07432943  1
  O  O62  1  0.49902462  0.84959392  0.07405807  1
  O  O63  1  0.35570119  0.86128120  0.57482392  1
  O  O64  1  0.49695324  0.63824059  0.57428390  1
  O  O65  1  0.13754239  0.49862064  0.57418374  1
  O  O66  1  0.30522812  0.83291121  0.25741128  1
  O  O67  1  0.53089099  0.68867581  0.25783550  1
  O  O68  1  0.16270702  0.46582978  0.25848295  1
  O  O69  1  0.30801589  0.46381196  0.75077305  1
  O  O70  1  0.15143846  0.68406356  0.75036765  1
  O  O71  1  0.52814593  0.84117237  0.75010221  1
loop_
_geom_bond_atom_site_label_1
_geom_bond_atom_site_label_2
_geom_bond_distance
_geom_bond_site_symmetry_2
Na0 O37 2.504529 1_555
Na0 O36 2.526014 1_655
Na0 O44 2.531218 1_555
Na0 O38 2.569169 1_665
Na0 O42 2.584746 1_565
Na0 O43 2.632977 1_665
Na1 O40 2.431544 1_555
Na1 O45 2.443889 1_456
Na1 O41 2.508611 1_455
Na1 O39 2.544091 1_565
Na1 O47 2.553879 1_566
Na1 O46 2.586599 1_466
Na2 O56 2.520300 1_555
Na2 O48 2.562673 1_555
Na2 O55 2.614012 1_555
Na2 O49 2.625444 1_555
Na2 O54 2.657632 1_555
Na2 O50 2.668101 1_555
Na3 O53 2.445298 1_555
Na3 O52 2.521335 1_555
Na3 O51 2.573718 1_555
Na3 O57 2.576918 1_555
Na3 O58 2.610532 1_555
Na3 O59 2.657882 1_555
Na4 O61 2.477552 1_555
Na4 O66 2.534886 1_555
Na4 O62 2.565335 1_555
Na4 O60 2.608565 1_555
Na4 O68 2.623590 1_555
Na4 O67 2.664159 1_555
Na5 O71 2.456525 1_555
Na5 O64 2.509013 1_555
Na5 O69 2.531685 1_555
Na5 O70 2.572456 1_555
Na5 O63 2.576784 1_555
Na5 O65 2.614705 1_555
Al0 O0 1.841912 1_655
Al0 O37 1.910696 1_545
Al0 O2 1.918891 1_555
Al0 O1 1.944228 1_545
Al0 O38 2.029658 1_655
Al0 O36 2.054043 1_645
Al1 O6 1.782647 1_555
Al1 O44 1.870250 1_555
Al1 O8 1.927239 1_655
Al1 O7 2.019519 1_665
Al1 O42 2.035010 1_565
Al1 O43 2.081670 1_665
Al2 O14 1.845695 1_555
Al2 O48 1.876881 1_555
Al2 O13 1.954408 1_555
Al2 O49 1.966918 1_555
Al2 O12 1.970229 1_555
Al2 O50 1.978702 1_555
Al3 O22 1.841470 1_555
Al3 O57 1.884966 1_555
Al3 O23 1.949610 1_555
Al3 O21 1.971545 1_555
Al3 O59 1.977058 1_555
Al3 O58 2.006955 1_555
Al4 O26 1.796243 1_554
Al4 O61 1.837165 1_555
Al4 O25 1.918322 1_554
Al4 O62 1.965699 1_555
Al4 O24 1.978901 1_554
Al4 O60 2.004891 1_555
Al5 O27 1.815131 1_555
Al5 O64 1.860766 1_555
Al5 O28 1.960874 1_555
Al5 O63 2.046580 1_555
Al5 O29 2.093340 1_555
Al5 O65 2.129886 1_555
O0 P0 1.540176 1_555
O1 S0 1.475191 1_555
O2 S1 1.480701 1_655
O3 S2 1.483124 1_555
O3 Sc0 2.089145 1_455
O4 S3 1.476869 1_555
O4 Sc0 2.108938 1_565
O5 P1 1.545787 1_555
O5 Sc0 2.029120 1_555
O6 P1 1.534233 1_565
O7 S2 1.475301 1_555
O8 S3 1.478376 1_455
O9 S0 1.468664 1_555
O9 Sc1 2.063812 1_655
O10 S1 1.465943 1_555
O10 Sc1 2.109604 1_545
O11 P0 1.534341 1_565
O11 Sc1 1.928511 1_555
O12 S4 1.481643 1_555
O13 S5 1.483149 1_555
O14 P2 1.543048 1_555
O15 P3 1.546700 1_555
O15 Sc2 2.014884 1_555
O16 S6 1.483617 1_555
O16 Sc2 2.101510 1_555
O17 S7 1.481548 1_555
O17 Sc2 2.125568 1_555
O18 S7 1.463928 1_555
O18 Sc3 2.053193 1_554
O19 P3 1.523793 1_555
O19 Sc3 1.969558 1_554
O20 S6 1.461769 1_555
O20 Sc3 2.055105 1_554
O21 S5 1.479474 1_555
O22 P2 1.542246 1_555
O23 S4 1.482871 1_555
O24 S8 1.473569 1_555
O25 S9 1.477897 1_555
O26 P4 1.534241 1_555
O27 P5 1.548788 1_555
O28 S10 1.489143 1_555
O29 S11 1.480201 1_555
O30 S11 1.479528 1_555
O30 Sc4 2.075411 1_555
O31 P5 1.541845 1_555
O31 Sc4 1.968408 1_555
O32 S10 1.472771 1_555
O32 Sc4 2.144282 1_555
O33 S9 1.468371 1_555
O33 Sc5 2.127048 1_555
O34 P4 1.541271 1_555
O34 Sc5 1.935801 1_555
O35 S8 1.473967 1_555
O35 Sc5 2.061930 1_555
O36 S11 1.493703 1_555
O37 P5 1.560320 1_555
O38 S10 1.491856 1_555
O39 S9 1.481686 1_555
O39 Sc0 2.122567 1_455
O40 P4 1.541527 1_555
O40 Sc0 2.071615 1_465
O41 S8 1.480260 1_555
O41 Sc0 2.147495 1_565
O42 S4 1.498507 1_555
O43 S5 1.492777 1_555
O44 P2 1.566790 1_555
O45 P3 1.541240 1_555
O45 Sc1 1.993535 1_655
O46 S6 1.469349 1_555
O46 Sc1 2.138010 1_645
O47 S7 1.476697 1_555
O47 Sc1 2.100790 1_545
O48 P1 1.549899 1_555
O49 S2 1.489884 1_555
O50 S3 1.482590 1_555
O51 S0 1.480239 1_555
O51 Sc2 2.130686 1_555
O52 S1 1.486924 1_655
O52 Sc2 2.127675 1_555
O53 P0 1.543195 1_555
O53 Sc2 2.081013 1_555
O54 S8 1.474728 1_555
O54 Sc3 2.078349 1_555
O55 S9 1.474980 1_655
O55 Sc3 2.085741 1_555
O56 P4 1.535427 1_545
O56 Sc3 2.021246 1_555
O57 P5 1.552830 1_545
O58 S10 1.488883 1_555
O59 S11 1.490406 1_655
O60 S7 1.476214 1_555
O61 P3 1.542458 1_455
O62 S6 1.481013 1_565
O63 S5 1.498992 1_565
O64 P2 1.569818 1_555
O65 S4 1.490859 1_455
O66 P0 1.545869 1_565
O66 Sc4 1.986575 1_555
O67 S0 1.478121 1_555
O67 Sc4 2.098381 1_555
O68 S1 1.475026 1_555
O68 Sc4 2.163693 1_555
O69 S2 1.480737 1_555
O69 Sc5 2.198297 1_555
O70 S3 1.481717 1_455
O70 Sc5 2.137072 1_555
O71 P1 1.551828 1_565
O71 Sc5 2.012614 1_555
