# generated using pymatgen
data_Na4NbIn(SiO4)3
_symmetry_space_group_name_H-M   'P 1'
_cell_length_a   9.23996083
_cell_length_b   9.23996049
_cell_length_c   22.48749333
_cell_angle_alpha   90.00000000
_cell_angle_beta   90.00000000
_cell_angle_gamma   120.00000118
_symmetry_Int_Tables_number   1
_chemical_formula_structural   Na4NbIn(SiO4)3
_chemical_formula_sum   'Na24 Nb6 In6 Si18 O72'
_cell_volume   1662.69242600
_cell_formula_units_Z   6
loop_
 _symmetry_equiv_pos_site_id
 _symmetry_equiv_pos_as_xyz
  1  'x, y, z'
loop_
 _atom_site_type_symbol
 _atom_site_label
 _atom_site_symmetry_multiplicity
 _atom_site_fract_x
 _atom_site_fract_y
 _atom_site_fract_z
 _atom_site_occupancy
  Na  Na0  1  0.63834696  0.01249285  0.24739295  1
  Na  Na1  1  0.37414588  0.36165304  0.24739295  1
  Na  Na2  1  0.98750715  0.62585412  0.24739295  1
  Na  Na3  1  0.63834696  0.62585412  0.74739295  1
  Na  Na4  1  0.98750715  0.36165304  0.74739295  1
  Na  Na5  1  0.37414588  0.01249285  0.74739295  1
  Na  Na6  1  0.30501396  0.34582585  0.58072595  1
  Na  Na7  1  0.04081288  0.69498604  0.58072595  1
  Na  Na8  1  0.65417415  0.95918712  0.58072595  1
  Na  Na9  1  0.30501396  0.95918712  0.08072595  1
  Na  Na10  1  0.65417415  0.69498604  0.08072595  1
  Na  Na11  1  0.04081288  0.34582585  0.08072595  1
  Na  Na12  1  0.97167996  0.67915985  0.91405995  1
  Na  Na13  1  0.70747888  0.02832004  0.91405995  1
  Na  Na14  1  0.32084015  0.29252112  0.91405995  1
  Na  Na15  1  0.97167996  0.29252112  0.41405995  1
  Na  Na16  1  0.32084015  0.02832004  0.41405995  1
  Na  Na17  1  0.70747888  0.67915985  0.41405995  1
  Na  Na18  1  0.00000000  -0.00000000  0.49526874  1
  Na  Na19  1  0.00000000  -0.00000000  0.99526874  1
  Na  Na20  1  0.66666700  0.33333300  0.82860174  1
  Na  Na21  1  0.66666700  0.33333300  0.32860174  1
  Na  Na22  1  0.33333300  0.66666700  0.16193574  1
  Na  Na23  1  0.33333300  0.66666700  0.66193574  1
  Nb  Nb0  1  0.00000000  -0.00000000  0.64680153  1
  Nb  Nb1  1  0.00000000  -0.00000000  0.14680153  1
  Nb  Nb2  1  0.66666700  0.33333300  0.98013453  1
  Nb  Nb3  1  0.66666700  0.33333300  0.48013453  1
  Nb  Nb4  1  0.33333300  0.66666700  0.31346853  1
  Nb  Nb5  1  0.33333300  0.66666700  0.81346853  1
  In  In0  1  0.00000000  -0.00000000  0.34984589  1
  In  In1  1  0.00000000  -0.00000000  0.84984589  1
  In  In2  1  0.66666700  0.33333300  0.68317889  1
  In  In3  1  0.66666700  0.33333300  0.18317889  1
  In  In4  1  0.33333300  0.66666700  0.01651289  1
  In  In5  1  0.33333300  0.66666700  0.51651289  1
  Si  Si0  1  0.29394348  0.99861371  0.25120829  1
  Si  Si1  1  0.70467024  0.70605652  0.25120829  1
  Si  Si2  1  0.00138629  0.29532976  0.25120829  1
  Si  Si3  1  0.29394348  0.29532976  0.75120829  1
  Si  Si4  1  0.00138629  0.70605652  0.75120829  1
  Si  Si5  1  0.70467024  0.99861371  0.75120829  1
  Si  Si6  1  0.96061048  0.33194671  0.58454129  1
  Si  Si7  1  0.37133724  0.03938952  0.58454129  1
  Si  Si8  1  0.66805329  0.62866276  0.58454129  1
  Si  Si9  1  0.96061048  0.62866276  0.08454129  1
  Si  Si10  1  0.66805329  0.03938952  0.08454129  1
  Si  Si11  1  0.37133724  0.33194671  0.08454129  1
  Si  Si12  1  0.62727648  0.66528071  0.91787529  1
  Si  Si13  1  0.03800324  0.37272352  0.91787529  1
  Si  Si14  1  0.33471929  0.96199676  0.91787529  1
  Si  Si15  1  0.62727648  0.96199676  0.41787529  1
  Si  Si16  1  0.33471929  0.37272352  0.41787529  1
  Si  Si17  1  0.03800324  0.66528071  0.41787529  1
  O  O0  1  0.21885094  0.03346574  0.31021864  1
  O  O1  1  0.81461481  0.78114906  0.31021864  1
  O  O2  1  0.96653426  0.18538519  0.31021864  1
  O  O3  1  0.21885094  0.18538519  0.81021864  1
  O  O4  1  0.96653426  0.78114906  0.81021864  1
  O  O5  1  0.81461481  0.03346574  0.81021864  1
  O  O6  1  0.80379819  0.96944999  0.69308778  1
  O  O7  1  0.16565180  0.19620181  0.69308778  1
  O  O8  1  0.03055001  0.83434820  0.69308778  1
  O  O9  1  0.80379819  0.83434820  0.19308778  1
  O  O10  1  0.03055001  0.19620181  0.19308778  1
  O  O11  1  0.16565180  0.96944999  0.19308778  1
  O  O12  1  0.88551794  0.36679874  0.64355164  1
  O  O13  1  0.48128181  0.11448206  0.64355164  1
  O  O14  1  0.63320126  0.51871819  0.64355164  1
  O  O15  1  0.88551794  0.51871819  0.14355164  1
  O  O16  1  0.63320126  0.11448206  0.14355164  1
  O  O17  1  0.48128181  0.36679874  0.14355164  1
  O  O18  1  0.47046519  0.30278299  0.02642078  1
  O  O19  1  0.83231880  0.52953481  0.02642078  1
  O  O20  1  0.69721701  0.16768120  0.02642078  1
  O  O21  1  0.47046519  0.16768120  0.52642078  1
  O  O22  1  0.69721701  0.52953481  0.52642078  1
  O  O23  1  0.83231880  0.30278299  0.52642078  1
  O  O24  1  0.55218394  0.70013274  0.97688564  1
  O  O25  1  0.14794781  0.44781606  0.97688564  1
  O  O26  1  0.29986726  0.85205219  0.97688564  1
  O  O27  1  0.55218394  0.85205219  0.47688564  1
  O  O28  1  0.29986726  0.44781606  0.47688564  1
  O  O29  1  0.14794781  0.70013274  0.47688564  1
  O  O30  1  0.13713119  0.63611699  0.35975478  1
  O  O31  1  0.49898480  0.86286881  0.35975478  1
  O  O32  1  0.36388301  0.50101520  0.35975478  1
  O  O33  1  0.13713119  0.50101520  0.85975478  1
  O  O34  1  0.36388301  0.86286881  0.85975478  1
  O  O35  1  0.49898480  0.63611699  0.85975478  1
  O  O36  1  0.01013809  0.82387435  0.41237955  1
  O  O37  1  0.81373626  0.98986191  0.41237955  1
  O  O38  1  0.17612565  0.18626374  0.41237955  1
  O  O39  1  0.01013809  0.18626374  0.91237955  1
  O  O40  1  0.17612565  0.98986191  0.91237955  1
  O  O41  1  0.81373626  0.82387435  0.91237955  1
  O  O42  1  0.96720993  0.15468902  0.58840741  1
  O  O43  1  0.18747909  0.03279007  0.58840741  1
  O  O44  1  0.84531098  0.81252091  0.58840741  1
  O  O45  1  0.96720993  0.81252091  0.08840741  1
  O  O46  1  0.84531098  0.03279007  0.08840741  1
  O  O47  1  0.18747909  0.15468902  0.08840741  1
  O  O48  1  0.67680509  0.15720735  0.74571255  1
  O  O49  1  0.48040326  0.32319491  0.74571255  1
  O  O50  1  0.84279265  0.51959674  0.74571255  1
  O  O51  1  0.67680509  0.51959674  0.24571255  1
  O  O52  1  0.84279265  0.32319491  0.24571255  1
  O  O53  1  0.48040326  0.15720735  0.24571255  1
  O  O54  1  0.63387693  0.48802202  0.92174041  1
  O  O55  1  0.85414609  0.36612307  0.92174041  1
  O  O56  1  0.51197798  0.14585391  0.92174041  1
  O  O57  1  0.63387693  0.14585391  0.42174041  1
  O  O58  1  0.51197798  0.36612307  0.42174041  1
  O  O59  1  0.85414609  0.48802202  0.42174041  1
  O  O60  1  0.34347109  0.49054135  0.07904655  1
  O  O61  1  0.14706926  0.65652891  0.07904655  1
  O  O62  1  0.50945865  0.85293074  0.07904655  1
  O  O63  1  0.34347109  0.85293074  0.57904655  1
  O  O64  1  0.50945865  0.65652891  0.57904655  1
  O  O65  1  0.14706926  0.49054135  0.57904655  1
  O  O66  1  0.30054293  0.82135602  0.25507441  1
  O  O67  1  0.52081209  0.69945707  0.25507441  1
  O  O68  1  0.17864398  0.47918791  0.25507441  1
  O  O69  1  0.30054293  0.47918791  0.75507441  1
  O  O70  1  0.17864398  0.69945707  0.75507441  1
  O  O71  1  0.52081209  0.82135602  0.75507441  1
loop_
_geom_bond_atom_site_label_1
_geom_bond_atom_site_label_2
_geom_bond_distance
_geom_bond_site_symmetry_2
Na0 O53 2.422949 1_555
Na0 O16 2.527444 1_555
Na0 O52 2.527578 1_555
Na0 O67 2.536579 1_545
Na0 O66 2.716416 1_545
Na0 O31 2.858961 1_545
Na0 O2 2.983178 1_555
Na0 O9 3.009038 1_545
Na1 O51 2.422957 1_555
Na1 O17 2.527448 1_555
Na1 O53 2.527585 1_555
Na1 O68 2.536587 1_555
Na1 O67 2.716416 1_555
Na1 O32 2.858963 1_555
Na1 O0 2.983178 1_555
Na1 O10 3.009038 1_555
Na2 O52 2.422957 1_555
Na2 O15 2.527446 1_555
Na2 O51 2.527577 1_555
Na2 O66 2.536580 1_655
Na2 O68 2.716408 1_655
Na2 O30 2.858959 1_655
Na2 O1 2.983178 1_555
Na2 O11 3.009038 1_655
Na3 O49 2.422957 1_555
Na3 O14 2.527448 1_555
Na3 O50 2.527585 1_555
Na3 O71 2.536587 1_555
Na3 O69 2.716416 1_555
Na3 O35 2.858963 1_555
Na3 O4 2.983178 1_555
Na3 O6 3.009038 1_555
Na4 O50 2.422949 1_555
Na4 O12 2.527445 1_555
Na4 O48 2.527578 1_555
Na4 O69 2.536579 1_655
Na4 O70 2.716415 1_655
Na4 O33 2.858961 1_655
Na4 O5 2.983178 1_555
Na4 O7 3.009038 1_655
Na5 O48 2.422957 1_555
Na5 O13 2.527446 1_555
Na5 O49 2.527577 1_555
Na5 O70 2.536580 1_545
Na5 O71 2.716408 1_545
Na5 O34 2.858959 1_545
Na5 O3 2.983178 1_555
Na5 O8 3.009038 1_545
Na6 O65 2.422965 1_555
Na6 O28 2.527429 1_555
Na6 O64 2.527583 1_555
Na6 O43 2.536579 1_555
Na6 O42 2.716416 1_455
Na6 O7 2.858961 1_555
Na6 O14 2.983178 1_555
Na6 O21 3.009038 1_555
Na7 O63 2.422949 1_555
Na7 O29 2.527422 1_555
Na7 O65 2.527569 1_555
Na7 O44 2.536587 1_455
Na7 O43 2.716416 1_565
Na7 O8 2.858963 1_555
Na7 O12 2.983178 1_455
Na7 O22 3.009038 1_455
Na8 O64 2.422948 1_555
Na8 O27 2.527425 1_555
Na8 O63 2.527587 1_555
Na8 O42 2.536580 1_565
Na8 O44 2.716408 1_555
Na8 O6 2.858959 1_555
Na8 O13 2.983178 1_565
Na8 O23 3.009038 1_565
Na9 O61 2.422949 1_555
Na9 O26 2.527422 1_554
Na9 O62 2.527569 1_555
Na9 O47 2.536587 1_565
Na9 O45 2.716416 1_455
Na9 O11 2.858963 1_555
Na9 O16 2.983178 1_565
Na9 O18 3.009038 1_565
Na10 O62 2.422965 1_555
Na10 O24 2.527429 1_554
Na10 O60 2.527583 1_555
Na10 O45 2.536579 1_555
Na10 O46 2.716415 1_565
Na10 O9 2.858961 1_555
Na10 O17 2.983178 1_555
Na10 O19 3.009038 1_555
Na11 O60 2.422948 1_555
Na11 O25 2.527425 1_554
Na11 O61 2.527587 1_555
Na11 O46 2.536580 1_455
Na11 O47 2.716408 1_555
Na11 O10 2.858959 1_555
Na11 O15 2.983178 1_455
Na11 O20 3.009038 1_455
Na12 O41 2.422949 1_555
Na12 O4 2.527444 1_555
Na12 O40 2.527578 1_655
Na12 O55 2.536587 1_555
Na12 O54 2.716407 1_555
Na12 O19 2.858941 1_556
Na12 O26 2.983178 1_655
Na12 O33 3.009038 1_655
Na13 O39 2.422957 1_655
Na13 O5 2.527448 1_555
Na13 O41 2.527585 1_545
Na13 O56 2.536570 1_555
Na13 O55 2.716406 1_555
Na13 O20 2.858937 1_556
Na13 O24 2.983178 1_545
Na13 O34 3.009038 1_545
Na14 O40 2.422957 1_545
Na14 O3 2.527446 1_555
Na14 O39 2.527577 1_555
Na14 O54 2.536585 1_555
Na14 O56 2.716423 1_555
Na14 O18 2.858945 1_556
Na14 O25 2.983178 1_555
Na14 O35 3.009038 1_555
Na15 O37 2.422957 1_545
Na15 O2 2.527448 1_555
Na15 O38 2.527585 1_655
Na15 O59 2.536570 1_555
Na15 O57 2.716406 1_555
Na15 O23 2.858937 1_555
Na15 O28 2.983178 1_655
Na15 O30 3.009038 1_655
Na16 O38 2.422949 1_555
Na16 O0 2.527445 1_555
Na16 O36 2.527578 1_545
Na16 O57 2.536587 1_555
Na16 O58 2.716407 1_555
Na16 O21 2.858941 1_555
Na16 O29 2.983178 1_545
Na16 O31 3.009038 1_545
Na17 O36 2.422957 1_655
Na17 O1 2.527446 1_555
Na17 O37 2.527577 1_555
Na17 O58 2.536585 1_555
Na17 O59 2.716423 1_555
Na17 O22 2.858945 1_555
Na17 O27 2.983178 1_555
Na17 O32 3.009038 1_555
Na18 O38 2.506794 1_555
Na18 O36 2.506794 1_545
Na18 O37 2.506794 1_445
Na18 O44 2.637148 1_445
Na18 O42 2.637148 1_455
Na18 O43 2.637148 1_555
Na19 O39 2.506794 1_555
Na19 O41 2.506794 1_445
Na19 O40 2.506794 1_545
Na19 O45 2.637148 1_446
Na19 O47 2.637148 1_556
Na19 O46 2.637148 1_456
Na20 O50 2.506794 1_555
Na20 O48 2.506794 1_555
Na20 O49 2.506794 1_555
Na20 O56 2.637148 1_555
Na20 O54 2.637148 1_555
Na20 O55 2.637148 1_555
Na21 O51 2.506794 1_555
Na21 O53 2.506794 1_555
Na21 O52 2.506794 1_555
Na21 O57 2.637148 1_555
Na21 O59 2.637148 1_555
Na21 O58 2.637148 1_555
Na22 O62 2.506794 1_555
Na22 O60 2.506794 1_555
Na22 O61 2.506794 1_555
Na22 O68 2.637148 1_555
Na22 O66 2.637148 1_555
Na22 O67 2.637148 1_555
Na23 O63 2.506794 1_555
Na23 O65 2.506794 1_555
Na23 O64 2.506794 1_555
Na23 O69 2.637148 1_555
Na23 O71 2.637148 1_555
Na23 O70 2.637148 1_555
Nb0 O7 1.984421 1_555
Nb0 O8 1.984421 1_545
Nb0 O6 1.984421 1_445
Nb0 O44 2.071747 1_445
Nb0 O42 2.071747 1_455
Nb0 O43 2.071747 1_555
Nb1 O10 1.984421 1_555
Nb1 O9 1.984421 1_445
Nb1 O11 1.984421 1_545
Nb1 O45 2.071747 1_445
Nb1 O47 2.071747 1_555
Nb1 O46 2.071747 1_455
Nb2 O19 1.984421 1_556
Nb2 O20 1.984421 1_556
Nb2 O18 1.984421 1_556
Nb2 O56 2.071747 1_555
Nb2 O54 2.071747 1_555
Nb2 O55 2.071747 1_555
Nb3 O22 1.984421 1_555
Nb3 O21 1.984421 1_555
Nb3 O23 1.984421 1_555
Nb3 O57 2.071747 1_555
Nb3 O59 2.071747 1_555
Nb3 O58 2.071747 1_555
Nb4 O31 1.984421 1_555
Nb4 O32 1.984421 1_555
Nb4 O30 1.984421 1_555
Nb4 O68 2.071747 1_555
Nb4 O66 2.071747 1_555
Nb4 O67 2.071747 1_555
Nb5 O34 1.984421 1_555
Nb5 O33 1.984421 1_555
Nb5 O35 1.984421 1_555
Nb5 O69 2.071747 1_555
Nb5 O71 2.071747 1_555
Nb5 O70 2.071747 1_555
In0 O2 2.086527 1_455
In0 O1 2.086527 1_445
In0 O0 2.086527 1_555
In0 O38 2.187945 1_555
In0 O36 2.187945 1_545
In0 O37 2.187945 1_445
In1 O5 2.086527 1_455
In1 O3 2.086527 1_555
In1 O4 2.086527 1_445
In1 O39 2.187945 1_555
In1 O41 2.187945 1_445
In1 O40 2.187945 1_545
In2 O14 2.086527 1_555
In2 O13 2.086527 1_555
In2 O12 2.086527 1_555
In2 O50 2.187945 1_555
In2 O48 2.187945 1_555
In2 O49 2.187945 1_555
In3 O17 2.086527 1_555
In3 O15 2.086527 1_555
In3 O16 2.086527 1_555
In3 O51 2.187945 1_555
In3 O53 2.187945 1_555
In3 O52 2.187945 1_555
In4 O26 2.086527 1_554
In4 O25 2.086527 1_554
In4 O24 2.086527 1_554
In4 O62 2.187945 1_555
In4 O60 2.187945 1_555
In4 O61 2.187945 1_555
In5 O29 2.086527 1_555
In5 O27 2.086527 1_555
In5 O28 2.086527 1_555
In5 O63 2.187945 1_555
In5 O65 2.187945 1_555
In5 O64 2.187945 1_555
O0 Si0 1.602964 1_545
O1 Si1 1.602964 1_555
O2 Si2 1.602964 1_655
O3 Si3 1.602964 1_555
O4 Si4 1.602964 1_655
O5 Si5 1.602964 1_545
O6 Si5 1.693100 1_555
O7 Si3 1.693100 1_555
O8 Si4 1.693100 1_555
O9 Si1 1.693100 1_555
O10 Si2 1.693100 1_555
O11 Si0 1.693100 1_555
O12 Si6 1.602964 1_555
O13 Si7 1.602964 1_555
O14 Si8 1.602964 1_555
O15 Si9 1.602964 1_555
O16 Si10 1.602964 1_555
O17 Si11 1.602964 1_555
O18 Si11 1.693100 1_555
O19 Si9 1.693100 1_555
O20 Si10 1.693100 1_555
O21 Si7 1.693100 1_555
O22 Si8 1.693100 1_555
O23 Si6 1.693100 1_555
O24 Si12 1.602964 1_555
O25 Si13 1.602964 1_555
O26 Si14 1.602964 1_555
O27 Si15 1.602964 1_555
O28 Si16 1.602964 1_555
O29 Si17 1.602964 1_555
O30 Si17 1.693100 1_555
O31 Si15 1.693100 1_555
O32 Si16 1.693100 1_555
O33 Si13 1.693100 1_555
O34 Si14 1.693100 1_555
O35 Si12 1.693100 1_555
O36 Si17 1.614392 1_555
O37 Si15 1.614401 1_555
O38 Si16 1.614397 1_555
O39 Si13 1.614401 1_555
O40 Si14 1.614392 1_555
O41 Si12 1.614397 1_555
O42 Si6 1.671442 1_555
O43 Si7 1.671451 1_555
O44 Si8 1.671446 1_555
O45 Si9 1.671451 1_555
O46 Si10 1.671442 1_555
O47 Si11 1.671446 1_555
O48 Si5 1.614392 1_545
O49 Si3 1.614401 1_555
O50 Si4 1.614397 1_655
O51 Si1 1.614401 1_555
O52 Si2 1.614392 1_655
O53 Si0 1.614397 1_545
O54 Si12 1.671454 1_555
O55 Si13 1.671436 1_655
O56 Si14 1.671445 1_545
O57 Si15 1.671436 1_545
O58 Si16 1.671455 1_555
O59 Si17 1.671445 1_655
O60 Si11 1.614405 1_555
O61 Si9 1.614386 1_455
O62 Si10 1.614393 1_565
O63 Si7 1.614386 1_565
O64 Si8 1.614405 1_555
O65 Si6 1.614393 1_455
O66 Si0 1.671442 1_555
O67 Si1 1.671451 1_555
O68 Si2 1.671446 1_555
O69 Si3 1.671451 1_555
O70 Si4 1.671442 1_555
O71 Si5 1.671446 1_555
