# generated using pymatgen
data_Yb2InGe2
_symmetry_space_group_name_H-M   'P 1'
_cell_length_a   4.04923090
_cell_length_b   7.32013930
_cell_length_c   7.32013930
_cell_angle_alpha   90.00000000
_cell_angle_beta   90.00000000
_cell_angle_gamma   90.00000000
_symmetry_Int_Tables_number   1
_chemical_formula_structural   Yb2InGe2
_chemical_formula_sum   'Yb4 In2 Ge4'
_cell_volume   216.97576765
_cell_formula_units_Z   2
loop_
 _symmetry_equiv_pos_site_id
 _symmetry_equiv_pos_as_xyz
  1  'x, y, z'
loop_
 _atom_site_type_symbol
 _atom_site_label
 _atom_site_symmetry_multiplicity
 _atom_site_fract_x
 _atom_site_fract_y
 _atom_site_fract_z
 _atom_site_occupancy
  Yb  Yb0  1  0.50000000  0.32161110  0.82161110  1
  Yb  Yb1  1  0.50000000  0.82161110  0.67838890  1
  Yb  Yb2  1  0.50000000  0.17838890  0.32161110  1
  Yb  Yb3  1  0.50000000  0.67838890  0.17838890  1
  In  In0  1  0.00000000  0.00000000  0.00000000  1
  In  In1  1  0.00000000  0.50000000  0.50000000  1
  Ge  Ge0  1  0.00000000  0.12123497  0.62123497  1
  Ge  Ge1  1  0.00000000  0.62123497  0.87876503  1
  Ge  Ge2  1  0.00000000  0.37876503  0.12123497  1
  Ge  Ge3  1  0.00000000  0.87876503  0.37876503  1
loop_
_geom_bond_atom_site_label_1
_geom_bond_atom_site_label_2
_geom_bond_distance
_geom_bond_site_symmetry_2
In0 Yb2 3.368486 1_455
In0 Yb2 3.368486 1_555
In0 Yb0 3.368486 1_554
In0 Yb0 3.368486 1_454
In0 Yb3 3.368486 1_445
In0 Yb3 3.368486 1_545
In0 Yb1 3.368486 1_444
In0 Yb1 3.368486 1_544
In1 Yb1 3.368486 1_455
In1 Yb1 3.368486 1_555
In1 Yb0 3.368486 1_455
In1 Yb0 3.368486 1_555
In1 Yb3 3.368486 1_555
In1 Yb3 3.368486 1_455
In1 Yb2 3.368486 1_555
In1 Yb2 3.368486 1_455
Ge0 Ge3 2.510107 1_545
Ge0 Yb0 2.898614 1_455
Ge0 Yb0 2.898614 1_555
Ge0 In1 2.911179 1_555
Ge0 In0 2.911179 1_556
Ge0 Yb2 3.014070 1_555
Ge0 Yb2 3.014070 1_455
Ge0 Yb1 3.014070 1_445
Ge0 Yb1 3.014070 1_545
Ge1 Ge2 2.510107 1_556
Ge1 Yb1 2.898614 1_455
Ge1 Yb1 2.898614 1_555
Ge1 In1 2.911179 1_555
Ge1 In0 2.911179 1_566
Ge1 Yb3 3.014070 1_556
Ge1 Yb3 3.014070 1_456
Ge1 Yb0 3.014070 1_455
Ge1 Yb0 3.014070 1_555
Ge2 Yb2 2.898614 1_455
Ge2 Yb2 2.898614 1_555
Ge2 In0 2.911179 1_555
Ge2 In1 2.911179 1_555
Ge2 Yb0 3.014070 1_454
Ge2 Yb0 3.014070 1_554
Ge2 Yb3 3.014070 1_455
Ge2 Yb3 3.014070 1_555
Ge3 Yb3 2.898614 1_555
Ge3 Yb3 2.898614 1_455
Ge3 In0 2.911179 1_565
Ge3 In1 2.911179 1_555
Ge3 Yb2 3.014070 1_565
Ge3 Yb2 3.014070 1_465
Ge3 Yb1 3.014070 1_555
Ge3 Yb1 3.014070 1_455
