# generated using pymatgen
data_Na6Ta3Ga(SiO4)6
_symmetry_space_group_name_H-M   'P 1'
_cell_length_a   9.00291023
_cell_length_b   9.00357498
_cell_length_c   22.43739159
_cell_angle_alpha   90.02874454
_cell_angle_beta   90.01205466
_cell_angle_gamma   119.96909232
_symmetry_Int_Tables_number   1
_chemical_formula_structural   Na6Ta3Ga(SiO4)6
_chemical_formula_sum   'Na18 Ta9 Ga3 Si18 O72'
_cell_volume   1575.56369046
_cell_formula_units_Z   3
loop_
 _symmetry_equiv_pos_site_id
 _symmetry_equiv_pos_as_xyz
  1  'x, y, z'
loop_
 _atom_site_type_symbol
 _atom_site_label
 _atom_site_symmetry_multiplicity
 _atom_site_fract_x
 _atom_site_fract_y
 _atom_site_fract_z
 _atom_site_occupancy
  Na  Na0  1  0.00591390  0.00038418  0.49855747  1
  Na  Na1  1  0.99306075  0.99356795  0.99729952  1
  Na  Na2  1  0.66661649  0.33288117  0.83271731  1
  Na  Na3  1  0.66669212  0.33302433  0.32737065  1
  Na  Na4  1  0.34071828  0.66712128  0.16384592  1
  Na  Na5  1  0.32630529  0.65983375  0.66551526  1
  Na  Na6  1  0.63801916  0.01230625  0.24664960  1
  Na  Na7  1  0.37386537  0.36153020  0.24611820  1
  Na  Na8  1  0.98809799  0.62585965  0.24654128  1
  Na  Na9  1  0.63531960  0.62506610  0.74700990  1
  Na  Na10  1  0.98913300  0.36416650  0.74715650  1
  Na  Na11  1  0.37541625  0.01025458  0.74758477  1
  Na  Na12  1  0.66614571  0.96997450  0.58572284  1
  Na  Na13  1  0.30535116  0.97259834  0.08359566  1
  Na  Na14  1  0.02922674  0.33606844  0.08361430  1
  Na  Na15  1  0.96694317  0.29043119  0.41332717  1
  Na  Na16  1  0.32368624  0.03239479  0.41345881  1
  Na  Na17  1  0.70930772  0.67696656  0.41356151  1
  Ta  Ta0  1  0.00071683  0.00058398  0.85554088  1
  Ta  Ta1  1  0.00427196  0.00015044  0.64460158  1
  Ta  Ta2  1  0.99596636  0.99632659  0.14556377  1
  Ta  Ta3  1  0.66723402  0.33418876  0.97753778  1
  Ta  Ta4  1  0.66634330  0.33402225  0.48171319  1
  Ta  Ta5  1  0.33746591  0.66683144  0.01972793  1
  Ta  Ta6  1  0.32948112  0.66278967  0.52236969  1
  Ta  Ta7  1  0.33288714  0.66651325  0.31221470  1
  Ta  Ta8  1  0.33374242  0.66691365  0.81433835  1
  Ga  Ga0  1  0.99970148  0.99991097  0.35024339  1
  Ga  Ga1  1  0.66683133  0.33410938  0.68507593  1
  Ga  Ga2  1  0.66636600  0.33374776  0.18391292  1
  Si  Si0  1  0.29120595  0.00461324  0.25163945  1
  Si  Si1  1  0.71295639  0.70842510  0.25214101  1
  Si  Si2  1  0.99561145  0.28642632  0.25143105  1
  Si  Si3  1  0.29234140  0.28948148  0.74963374  1
  Si  Si4  1  0.99676926  0.70714215  0.74991589  1
  Si  Si5  1  0.71076757  0.00294235  0.74924952  1
  Si  Si6  1  0.95569574  0.33600981  0.58658162  1
  Si  Si7  1  0.37785120  0.04658816  0.58569374  1
  Si  Si8  1  0.66649053  0.61976040  0.58642348  1
  Si  Si9  1  0.95077353  0.61939282  0.08482904  1
  Si  Si10  1  0.66561926  0.04616565  0.08496402  1
  Si  Si11  1  0.38368920  0.33718826  0.08550730  1
  Si  Si12  1  0.62567217  0.66656640  0.91627489  1
  Si  Si13  1  0.04167629  0.37545142  0.91686056  1
  Si  Si14  1  0.33345141  0.95802689  0.91718054  1
  Si  Si15  1  0.62673175  0.95730756  0.41692444  1
  Si  Si16  1  0.33070292  0.37303722  0.41617205  1
  Si  Si17  1  0.04266270  0.66956912  0.41649280  1
  O  O0  1  0.20696855  0.03667114  0.31059496  1
  O  O1  1  0.82880441  0.79143135  0.31125370  1
  O  O2  1  0.96306851  0.17031733  0.31045330  1
  O  O3  1  0.19522633  0.16343046  0.80647033  1
  O  O4  1  0.96870105  0.80525146  0.80662342  1
  O  O5  1  0.83761958  0.03106807  0.80580214  1
  O  O6  1  0.79709439  0.96315658  0.69060137  1
  O  O7  1  0.16039187  0.19773826  0.69269456  1
  O  O8  1  0.03616900  0.83874265  0.69286894  1
  O  O9  1  0.80381734  0.83947961  0.19468022  1
  O  O10  1  0.03611089  0.20080553  0.19245926  1
  O  O11  1  0.16510635  0.96456947  0.19263920  1
  O  O12  1  0.87339156  0.36616987  0.64495995  1
  O  O13  1  0.49952084  0.12342025  0.64307137  1
  O  O14  1  0.63189886  0.50599754  0.64467819  1
  O  O15  1  0.87797969  0.50233553  0.14416942  1
  O  O16  1  0.62550086  0.12169452  0.14454810  1
  O  O17  1  0.49102507  0.36648217  0.14601756  1
  O  O18  1  0.47045989  0.29794596  0.02795033  1
  O  O19  1  0.83109232  0.52750865  0.02674691  1
  O  O20  1  0.70172242  0.17131924  0.02748163  1
  O  O21  1  0.46895893  0.16380251  0.52483329  1
  O  O22  1  0.69473601  0.53078334  0.52530514  1
  O  O23  1  0.83354573  0.30174460  0.52589273  1
  O  O24  1  0.52698871  0.69390381  0.97320604  1
  O  O25  1  0.16214252  0.46893458  0.97549365  1
  O  O26  1  0.30558075  0.83705903  0.97567849  1
  O  O27  1  0.53176667  0.83479882  0.47446152  1
  O  O28  1  0.30381510  0.47351273  0.47220336  1
  O  O29  1  0.17075792  0.69753455  0.47234777  1
  O  O30  1  0.13173399  0.63070289  0.35813671  1
  O  O31  1  0.49796792  0.86656891  0.35882841  1
  O  O32  1  0.36911392  0.50096358  0.35799426  1
  O  O33  1  0.13598287  0.49670153  0.85805520  1
  O  O34  1  0.36086527  0.86412025  0.85821230  1
  O  O35  1  0.50462373  0.63874721  0.85730361  1
  O  O36  1  0.02419312  0.83813448  0.41190979  1
  O  O37  1  0.81430254  0.97637576  0.41191851  1
  O  O38  1  0.16209891  0.18605052  0.41187210  1
  O  O39  1  0.02595673  0.18814656  0.90967528  1
  O  O40  1  0.16214573  0.97408697  0.90970503  1
  O  O41  1  0.81230298  0.83813123  0.90963798  1
  O  O42  1  0.96706548  0.15851729  0.58933207  1
  O  O43  1  0.18677155  0.02557238  0.58910262  1
  O  O44  1  0.83405174  0.81585129  0.58929816  1
  O  O45  1  0.98202500  0.81653258  0.08992721  1
  O  O46  1  0.84125054  0.03143206  0.09023688  1
  O  O47  1  0.18784821  0.16318707  0.09031464  1
  O  O48  1  0.68995273  0.17055480  0.74536620  1
  O  O49  1  0.47960745  0.30825637  0.74488111  1
  O  O50  1  0.82908735  0.51961487  0.74546140  1
  O  O51  1  0.68809913  0.51843436  0.24476623  1
  O  O52  1  0.83066795  0.31233612  0.24462058  1
  O  O53  1  0.48229092  0.16880532  0.24520745  1
  O  O54  1  0.64004081  0.49482606  0.92348624  1
  O  O55  1  0.85412068  0.35885254  0.92317450  1
  O  O56  1  0.50488650  0.14495438  0.92371029  1
  O  O57  1  0.63932110  0.14623231  0.42265412  1
  O  O58  1  0.50688397  0.36106071  0.42263843  1
  O  O59  1  0.85478798  0.49318134  0.42307701  1
  O  O60  1  0.34764063  0.49879959  0.07683306  1
  O  O61  1  0.14628545  0.64525980  0.07632130  1
  O  O62  1  0.49404382  0.85560706  0.07619478  1
  O  O63  1  0.36264733  0.85763693  0.57484977  1
  O  O64  1  0.50145213  0.65055776  0.57559828  1
  O  O65  1  0.14686877  0.50269458  0.57564597  1
  O  O66  1  0.30470732  0.82602549  0.25655179  1
  O  O67  1  0.52144572  0.69535385  0.25648215  1
  O  O68  1  0.17379202  0.47846680  0.25653103  1
  O  O69  1  0.30555336  0.47885391  0.75595134  1
  O  O70  1  0.17329266  0.69422190  0.75592716  1
  O  O71  1  0.52076630  0.82676877  0.75602031  1
loop_
_geom_bond_atom_site_label_1
_geom_bond_atom_site_label_2
_geom_bond_distance
_geom_bond_site_symmetry_2
Na0 O36 2.485613 1_545
Na0 O38 2.492123 1_555
Na0 O37 2.535179 1_445
Na0 O43 2.541502 1_555
Na0 O44 2.595399 1_445
Na0 O42 2.606270 1_455
Na1 O41 2.489190 1_555
Na1 O40 2.545282 1_655
Na1 O39 2.551001 1_665
Na1 O45 2.591365 1_556
Na1 O46 2.607399 1_566
Na1 O47 2.661360 1_666
Na2 O48 2.515069 1_555
Na2 O50 2.519275 1_555
Na2 O49 2.528458 1_555
Na2 O55 2.574372 1_555
Na2 O54 2.583955 1_555
Na2 O56 2.587403 1_555
Na3 O53 2.425792 1_555
Na3 O52 2.436573 1_555
Na3 O51 2.437397 1_555
Na3 O57 2.655112 1_555
Na3 O58 2.658278 1_555
Na3 O59 2.667220 1_555
Na4 O60 2.490722 1_555
Na4 O62 2.513421 1_555
Na4 O61 2.571654 1_555
Na4 O67 2.572362 1_555
Na4 O68 2.631157 1_555
Na4 O66 2.634285 1_555
Na5 O65 2.527790 1_555
Na5 O69 2.550852 1_555
Na5 O70 2.556451 1_555
Na5 O64 2.587746 1_555
Na5 O71 2.610428 1_555
Na5 O63 2.615131 1_555
Na6 O52 2.372085 1_555
Na6 O53 2.434292 1_555
Na6 O67 2.510442 1_545
Na6 O16 2.518717 1_555
Na6 O66 2.615239 1_545
Na6 O31 2.828175 1_545
Na6 O9 2.885909 1_545
Na6 O2 2.911012 1_555
Na7 O53 2.378330 1_555
Na7 O51 2.450968 1_555
Na7 O17 2.472481 1_555
Na7 O68 2.510406 1_555
Na7 O67 2.619648 1_555
Na7 O32 2.815942 1_555
Na7 O10 2.896629 1_555
Na7 O0 2.918910 1_555
Na8 O51 2.371033 1_555
Na8 O52 2.445766 1_555
Na8 O66 2.508050 1_655
Na8 O15 2.527981 1_555
Na8 O68 2.612057 1_655
Na8 O30 2.808180 1_655
Na8 O11 2.907151 1_655
Na8 O1 2.919208 1_555
Na9 O50 2.366547 1_555
Na9 O49 2.471573 1_555
Na9 O71 2.504672 1_555
Na9 O14 2.527176 1_555
Na9 O69 2.585192 1_555
Na9 O35 2.769393 1_555
Na9 O4 2.925899 1_555
Na9 O6 2.926523 1_555
Na10 O48 2.367327 1_555
Na10 O50 2.459921 1_555
Na10 O69 2.506204 1_655
Na10 O12 2.522277 1_555
Na10 O70 2.587545 1_655
Na10 O33 2.789774 1_655
Na10 O7 2.902236 1_655
Na10 O5 2.916198 1_555
Na11 O49 2.359712 1_555
Na11 O48 2.453825 1_555
Na11 O70 2.504093 1_545
Na11 O71 2.576310 1_545
Na11 O13 2.579094 1_555
Na11 O34 2.782230 1_545
Na11 O8 2.916261 1_545
Na11 O3 2.917802 1_555
Na12 O42 2.373373 1_565
Na12 O63 2.405576 1_555
Na12 O64 2.501973 1_555
Na12 O44 2.512538 1_555
Na12 O6 2.646214 1_555
Na12 O27 2.775175 1_555
Na12 O13 2.807908 1_565
Na12 O23 2.916083 1_565
Na13 O62 2.410525 1_555
Na13 O47 2.428949 1_565
Na13 O45 2.526224 1_455
Na13 O61 2.558573 1_555
Na13 O26 2.711433 1_554
Na13 O11 2.737848 1_555
Na13 O18 2.829028 1_565
Na13 O16 2.847961 1_565
Na14 O46 2.402542 1_455
Na14 O61 2.440613 1_555
Na14 O60 2.488326 1_555
Na14 O47 2.589536 1_555
Na14 O25 2.705952 1_554
Na14 O10 2.744022 1_555
Na14 O15 2.824258 1_455
Na14 O20 2.847315 1_455
Na15 O38 2.370839 1_655
Na15 O37 2.450035 1_545
Na15 O59 2.498190 1_555
Na15 O2 2.541342 1_555
Na15 O57 2.569813 1_555
Na15 O23 2.820457 1_555
Na15 O30 2.929869 1_655
Na15 O28 2.943105 1_655
Na16 O36 2.370398 1_545
Na16 O38 2.458099 1_555
Na16 O57 2.501540 1_555
Na16 O0 2.544012 1_555
Na16 O58 2.577313 1_555
Na16 O21 2.793712 1_555
Na16 O31 2.921116 1_545
Na16 O29 2.930697 1_545
Na17 O37 2.369867 1_555
Na17 O36 2.456395 1_655
Na17 O58 2.504940 1_555
Na17 O1 2.526784 1_555
Na17 O59 2.581590 1_555
Na17 O22 2.804763 1_555
Na17 O32 2.931469 1_555
Na17 O27 2.951208 1_555
Ga0 O2 1.940772 1_565
Ga0 O0 1.940850 1_665
Ga0 O1 1.941231 1_555
Ga0 O37 2.096136 1_555
Ga0 O38 2.099342 1_665
Ga0 O36 2.099382 1_655
Ga1 O14 1.950164 1_555
Ga1 O12 1.953570 1_555
Ga1 O13 1.974464 1_555
Ga1 O49 2.074897 1_555
Ga1 O50 2.078120 1_555
Ga1 O48 2.085638 1_555
Ga2 O17 1.940680 1_555
Ga2 O15 1.960034 1_555
Ga2 O16 1.963943 1_555
Ga2 O51 2.083307 1_555
Ga2 O52 2.089227 1_555
Ga2 O53 2.094621 1_555
O0 Si0 1.620804 1_555
O1 Si1 1.620238 1_555
O2 Si2 1.621121 1_555
O3 Si3 1.639917 1_555
O3 Ta0 1.966164 1_555
O4 Si4 1.638619 1_555
O4 Ta0 1.967802 1_665
O5 Si5 1.639696 1_555
O5 Ta0 1.969545 1_655
O6 Si5 1.655919 1_565
O6 Ta1 2.008895 1_665
O7 Si3 1.656390 1_555
O7 Ta1 1.950411 1_555
O8 Si4 1.658290 1_455
O8 Ta1 1.945674 1_565
O9 Si1 1.661721 1_555
O9 Ta2 1.939853 1_555
O10 Si2 1.660723 1_455
O10 Ta2 1.990060 1_445
O11 Si0 1.661702 1_565
O11 Ta2 1.987664 1_455
O12 Si6 1.593608 1_555
O13 Si7 1.605392 1_555
O14 Si8 1.592927 1_555
O15 Si9 1.620101 1_555
O16 Si10 1.620155 1_555
O17 Si11 1.609706 1_555
O18 Si11 1.636642 1_555
O18 Ta3 1.986946 1_554
O19 Si9 1.628343 1_555
O19 Ta3 1.963922 1_554
O20 Si10 1.635414 1_555
O20 Ta3 1.989703 1_554
O21 Si7 1.669839 1_555
O21 Ta4 1.929774 1_555
O22 Si8 1.670203 1_555
O22 Ta4 1.925134 1_555
O23 Si6 1.678915 1_555
O23 Ta4 1.941584 1_555
O24 Si12 1.643245 1_555
O24 Ta5 1.909398 1_556
O25 Si13 1.643686 1_555
O25 Ta5 1.959338 1_556
O26 Si14 1.643320 1_555
O26 Ta5 1.961947 1_556
O27 Si15 1.635230 1_555
O27 Ta6 2.013771 1_555
O28 Si16 1.635628 1_555
O28 Ta6 1.956813 1_555
O29 Si17 1.634908 1_555
O29 Ta6 1.961070 1_555
O30 Si17 1.661401 1_555
O30 Ta7 1.965446 1_555
O31 Si15 1.662102 1_555
O31 Ta7 1.967245 1_555
O32 Si16 1.659501 1_555
O32 Ta7 1.967292 1_555
O33 Si13 1.652107 1_555
O33 Ta8 1.938274 1_555
O34 Si14 1.653434 1_555
O34 Ta8 1.935540 1_555
O35 Si12 1.651510 1_555
O35 Ta8 1.936447 1_555
O36 Si17 1.610554 1_555
O37 Si15 1.613752 1_555
O38 Si16 1.610716 1_555
O39 Si13 1.628277 1_555
O39 Ta0 1.998310 1_555
O40 Si14 1.627971 1_555
O40 Ta0 1.997995 1_565
O41 Si12 1.624418 1_555
O41 Ta0 2.003475 1_665
O42 Si6 1.652764 1_555
O42 Ta1 2.040081 1_655
O43 Si7 1.635806 1_555
O43 Ta1 1.981921 1_555
O44 Si8 1.654052 1_555
O44 Ta1 2.024418 1_665
O45 Si9 1.656380 1_555
O45 Ta2 1.997373 1_555
O46 Si10 1.655675 1_555
O46 Ta2 2.005148 1_545
O47 Si11 1.677877 1_555
O47 Ta2 2.046436 1_445
O48 Si5 1.613315 1_555
O49 Si3 1.611740 1_555
O50 Si4 1.610273 1_555
O51 Si1 1.618903 1_555
O52 Si2 1.621402 1_555
O53 Si0 1.620267 1_555
O54 Si12 1.622950 1_555
O54 Ta3 1.994482 1_555
O55 Si13 1.625300 1_655
O55 Ta3 1.998974 1_555
O56 Si14 1.625001 1_545
O56 Ta3 2.001770 1_555
O57 Si15 1.652250 1_545
O57 Ta4 2.064114 1_555
O58 Si16 1.649036 1_555
O58 Ta4 2.055674 1_555
O59 Si17 1.649704 1_655
O59 Ta4 2.058309 1_555
O60 Si11 1.653032 1_555
O60 Ta5 2.019721 1_555
O61 Si9 1.667193 1_455
O61 Ta5 2.068764 1_555
O62 Si10 1.649301 1_565
O62 Ta5 2.021031 1_555
O63 Si7 1.655012 1_565
O63 Ta6 2.006935 1_555
O64 Si8 1.659847 1_555
O64 Ta6 2.001314 1_555
O65 Si6 1.641554 1_455
O65 Ta6 1.960747 1_555
O66 Si0 1.675647 1_565
O66 Ta7 2.013080 1_555
O67 Si1 1.671348 1_555
O67 Ta7 2.018353 1_555
O68 Si2 1.674711 1_455
O68 Ta7 2.013313 1_555
O69 Si3 1.654841 1_555
O69 Ta8 2.053273 1_555
O70 Si4 1.655893 1_455
O70 Ta8 2.054044 1_555
O71 Si5 1.659734 1_565
O71 Ta8 2.049493 1_555
