# generated using pymatgen
data_Li10B14Cl2O25
_symmetry_space_group_name_H-M   'P 1'
_cell_length_a   8.65194079
_cell_length_b   8.65194079
_cell_length_c   8.65194079
_cell_angle_alpha   60.00000000
_cell_angle_beta   60.00000000
_cell_angle_gamma   60.00000000
_symmetry_Int_Tables_number   1
_chemical_formula_structural   Li10B14Cl2O25
_chemical_formula_sum   'Li10 B14 Cl2 O25'
_cell_volume   457.95796568
_cell_formula_units_Z   1
loop_
 _symmetry_equiv_pos_site_id
 _symmetry_equiv_pos_as_xyz
  1  'x, y, z'
loop_
 _atom_site_type_symbol
 _atom_site_label
 _atom_site_symmetry_multiplicity
 _atom_site_fract_x
 _atom_site_fract_y
 _atom_site_fract_z
 _atom_site_occupancy
  Li  Li0  1  0.40517500  0.86494200  0.86494200  1
  Li  Li1  1  0.86494200  0.86494200  0.40517500  1
  Li  Li2  1  0.86494200  0.40517500  0.86494200  1
  Li  Li3  1  0.86494200  0.86494200  0.86494200  1
  Li  Li4  1  0.04333000  0.45667000  0.45667000  1
  Li  Li5  1  0.45667000  0.04333000  0.45667000  1
  Li  Li6  1  0.45667000  0.45667000  0.04333000  1
  Li  Li7  1  0.04333000  0.04333000  0.45667000  1
  Li  Li8  1  0.04333000  0.45667000  0.04333000  1
  Li  Li9  1  0.45667000  0.04333000  0.04333000  1
  B  B0  1  0.60085100  0.60085100  0.60085100  1
  B  B1  1  0.60085100  0.19744600  0.60085100  1
  B  B2  1  0.60085100  0.60085100  0.19744600  1
  B  B3  1  0.19744600  0.60085100  0.60085100  1
  B  B4  1  0.75714100  0.08095300  0.08095300  1
  B  B5  1  0.08095300  0.08095300  0.75714100  1
  B  B6  1  0.08095300  0.75714100  0.08095300  1
  B  B7  1  0.08095300  0.08095300  0.08095300  1
  B  B8  1  0.25051100  0.74948900  0.74948900  1
  B  B9  1  0.74948900  0.25051100  0.74948900  1
  B  B10  1  0.74948900  0.74948900  0.25051100  1
  B  B11  1  0.25051100  0.25051100  0.74948900  1
  B  B12  1  0.25051100  0.74948900  0.25051100  1
  B  B13  1  0.74948900  0.25051100  0.25051100  1
  Cl  Cl0  1  0.25000000  0.25000000  0.25000000  1
  Cl  Cl1  1  0.75000000  0.75000000  0.75000000  1
  O  O0  1  0.93638600  0.25770000  0.10226400  1
  O  O1  1  0.10226400  0.93638600  0.25770000  1
  O  O2  1  0.25770000  0.10226400  0.93638600  1
  O  O3  1  0.93638600  0.70364900  0.25770000  1
  O  O4  1  0.93638600  0.10226400  0.70364900  1
  O  O5  1  0.25770000  0.70364900  0.10226400  1
  O  O6  1  0.70364900  0.93638600  0.10226400  1
  O  O7  1  0.70364900  0.25770000  0.93638600  1
  O  O8  1  0.10226400  0.25770000  0.70364900  1
  O  O9  1  0.25770000  0.93638600  0.70364900  1
  O  O10  1  0.10226400  0.70364900  0.93638600  1
  O  O11  1  0.70364900  0.10226400  0.25770000  1
  O  O12  1  0.60707400  0.75829000  0.43889100  1
  O  O13  1  0.43889100  0.60707400  0.75829000  1
  O  O14  1  0.75829000  0.43889100  0.60707400  1
  O  O15  1  0.60707400  0.19574500  0.75829000  1
  O  O16  1  0.60707400  0.43889100  0.19574500  1
  O  O17  1  0.75829000  0.19574500  0.43889100  1
  O  O18  1  0.19574500  0.60707400  0.43889100  1
  O  O19  1  0.19574500  0.75829000  0.60707400  1
  O  O20  1  0.43889100  0.75829000  0.19574500  1
  O  O21  1  0.75829000  0.60707400  0.19574500  1
  O  O22  1  0.43889100  0.19574500  0.60707400  1
  O  O23  1  0.19574500  0.43889100  0.75829000  1
  O  O24  1  0.00000000  0.00000000  0.00000000  1
loop_
_geom_bond_atom_site_label_1
_geom_bond_atom_site_label_2
_geom_bond_distance
_geom_bond_site_symmetry_2
Li0 O2 2.021572 1_565
Li0 O5 2.021581 1_556
Li0 O9 2.021587 1_555
Li1 O1 2.021572 1_655
Li1 O11 2.021581 1_565
Li1 O3 2.021587 1_555
Li2 O0 2.021572 1_556
Li2 O8 2.021581 1_655
Li2 O7 2.021587 1_555
Li3 O6 2.021573 1_556
Li3 O10 2.021573 1_655
Li3 O4 2.021573 1_565
Li4 O8 2.079147 1_555
Li4 O3 2.079150 1_455
Li4 O18 2.183785 1_555
Li4 O14 2.183785 1_455
Li5 O11 2.079147 1_555
Li5 O9 2.079150 1_545
Li5 O22 2.183785 1_555
Li5 O12 2.183785 1_545
Li6 O5 2.079147 1_555
Li6 O7 2.079150 1_554
Li6 O16 2.183785 1_555
Li6 O13 2.183785 1_554
Li7 O4 2.079145 1_455
Li7 O1 2.079154 1_545
Li7 O17 2.183785 1_455
Li7 O19 2.183785 1_545
Li8 O10 2.079145 1_554
Li8 O0 2.079154 1_455
Li8 O23 2.183785 1_554
Li8 O21 2.183785 1_455
Li9 O6 2.079145 1_545
Li9 O2 2.079154 1_554
Li9 O15 2.183785 1_554
Li9 O20 2.183785 1_545
B0 O12 1.382413 1_555
B0 O13 1.382413 1_555
B0 O14 1.382413 1_555
B1 O22 1.382408 1_555
B1 O17 1.382412 1_555
B1 O15 1.382417 1_555
B2 O16 1.382408 1_555
B2 O20 1.382412 1_555
B2 O21 1.382417 1_555
B3 O18 1.382408 1_555
B3 O23 1.382412 1_555
B3 O19 1.382417 1_555
B4 O11 1.440677 1_555
B4 O7 1.440681 1_554
B4 O6 1.440685 1_545
B4 O24 1.715624 1_655
B5 O8 1.440677 1_555
B5 O9 1.440681 1_545
B5 O4 1.440685 1_455
B5 O24 1.715624 1_556
B6 O5 1.440677 1_555
B6 O3 1.440681 1_455
B6 O10 1.440685 1_554
B6 O24 1.715624 1_565
B7 O1 1.440679 1_545
B7 O2 1.440679 1_554
B7 O0 1.440679 1_455
B7 O24 1.715624 1_555
B8 O19 1.484077 1_555
B8 O13 1.484077 1_555
B8 O9 1.486779 1_555
B8 O10 1.486783 1_555
B9 O15 1.484077 1_555
B9 O14 1.484077 1_555
B9 O7 1.486779 1_555
B9 O4 1.486783 1_555
B10 O21 1.484077 1_555
B10 O12 1.484077 1_555
B10 O3 1.486779 1_555
B10 O6 1.486783 1_555
B11 O22 1.484077 1_555
B11 O23 1.484077 1_555
B11 O2 1.486782 1_555
B11 O8 1.486788 1_555
B12 O18 1.484077 1_555
B12 O20 1.484077 1_555
B12 O1 1.486782 1_555
B12 O5 1.486788 1_555
B13 O16 1.484077 1_555
B13 O17 1.484077 1_555
B13 O0 1.486782 1_555
B13 O11 1.486788 1_555
Cl0 Li7 2.528750 1_555
Cl0 Li8 2.528750 1_555
Cl0 Li9 2.528750 1_555
Cl0 Li6 2.528750 1_555
Cl0 Li5 2.528750 1_555
Cl0 Li4 2.528750 1_555
Cl1 Li1 2.435940 1_555
Cl1 Li2 2.435940 1_555
Cl1 Li0 2.435940 1_555
Cl1 Li3 2.435947 1_555
