# generated using pymatgen
data_Yb5Sb3
_symmetry_space_group_name_H-M   'P 1'
_cell_length_a   9.07073257
_cell_length_b   9.07073257
_cell_length_c   6.89263700
_cell_angle_alpha   90.00000000
_cell_angle_beta   90.00000000
_cell_angle_gamma   120.00000415
_symmetry_Int_Tables_number   1
_chemical_formula_structural   Yb5Sb3
_chemical_formula_sum   'Yb10 Sb6'
_cell_volume   491.13484368
_cell_formula_units_Z   2
loop_
 _symmetry_equiv_pos_site_id
 _symmetry_equiv_pos_as_xyz
  1  'x, y, z'
loop_
 _atom_site_type_symbol
 _atom_site_label
 _atom_site_symmetry_multiplicity
 _atom_site_fract_x
 _atom_site_fract_y
 _atom_site_fract_z
 _atom_site_occupancy
  Yb  Yb0  1  0.00000000  0.74626900  0.75000000  1
  Yb  Yb1  1  0.00000000  0.25373100  0.25000000  1
  Yb  Yb2  1  0.74626900  0.74626900  0.25000000  1
  Yb  Yb3  1  0.74626900  0.00000000  0.75000000  1
  Yb  Yb4  1  0.25373100  0.25373100  0.75000000  1
  Yb  Yb5  1  0.25373100  0.00000000  0.25000000  1
  Yb  Yb6  1  0.33333300  0.66666700  0.50000000  1
  Yb  Yb7  1  0.66666700  0.33333300  0.00000000  1
  Yb  Yb8  1  0.66666700  0.33333300  0.50000000  1
  Yb  Yb9  1  0.33333300  0.66666700  0.00000000  1
  Sb  Sb0  1  0.38897100  0.00000000  0.75000000  1
  Sb  Sb1  1  0.38897100  0.38897100  0.25000000  1
  Sb  Sb2  1  0.00000000  0.61102900  0.25000000  1
  Sb  Sb3  1  0.00000000  0.38897100  0.75000000  1
  Sb  Sb4  1  0.61102900  0.61102900  0.75000000  1
  Sb  Sb5  1  0.61102900  0.00000000  0.25000000  1
loop_
_geom_bond_atom_site_label_1
_geom_bond_atom_site_label_2
_geom_bond_distance
_geom_bond_site_symmetry_2
Sb0 Yb0 3.102454 1_545
Sb0 Yb4 3.102454 1_555
Sb0 Yb3 3.240955 1_555
Sb0 Yb6 3.292423 1_545
Sb0 Yb9 3.292423 1_546
Sb0 Yb8 3.292426 1_555
Sb0 Yb7 3.292426 1_556
Sb0 Yb5 3.658137 1_556
Sb0 Yb5 3.658137 1_555
Sb1 Yb5 3.102454 1_555
Sb1 Yb1 3.102454 1_555
Sb1 Yb2 3.240954 1_555
Sb1 Yb8 3.292431 1_555
Sb1 Yb7 3.292431 1_555
Sb1 Yb9 3.292431 1_555
Sb1 Yb6 3.292431 1_555
Sb1 Yb4 3.658137 1_555
Sb1 Yb4 3.658137 1_554
Sb2 Yb5 3.102454 1_565
Sb2 Yb2 3.102454 1_455
Sb2 Yb1 3.240955 1_555
Sb2 Yb9 3.292423 1_555
Sb2 Yb6 3.292423 1_555
Sb2 Yb8 3.292426 1_455
Sb2 Yb7 3.292426 1_455
Sb2 Yb0 3.658137 1_554
Sb2 Yb0 3.658137 1_555
Sb3 Yb3 3.102454 1_455
Sb3 Yb4 3.102454 1_555
Sb3 Yb0 3.240955 1_555
Sb3 Yb7 3.292423 1_456
Sb3 Yb8 3.292423 1_455
Sb3 Yb6 3.292426 1_555
Sb3 Yb9 3.292426 1_556
Sb3 Yb1 3.658137 1_556
Sb3 Yb1 3.658137 1_555
Sb4 Yb3 3.102454 1_565
Sb4 Yb0 3.102454 1_655
Sb4 Yb4 3.240954 1_555
Sb4 Yb7 3.292431 1_556
Sb4 Yb8 3.292431 1_555
Sb4 Yb6 3.292431 1_555
Sb4 Yb9 3.292431 1_556
Sb4 Yb2 3.658137 1_556
Sb4 Yb2 3.658137 1_555
Sb5 Yb1 3.102454 1_655
Sb5 Yb2 3.102454 1_545
Sb5 Yb5 3.240955 1_555
Sb5 Yb7 3.292423 1_555
Sb5 Yb8 3.292423 1_555
Sb5 Yb6 3.292426 1_545
Sb5 Yb9 3.292426 1_545
Sb5 Yb3 3.658137 1_555
Sb5 Yb3 3.658137 1_554
