# generated using pymatgen
data_Na2Ca2SiSn2S5O24
_symmetry_space_group_name_H-M   'P 1'
_cell_length_a   9.03142467
_cell_length_b   9.03869530
_cell_length_c   23.45979822
_cell_angle_alpha   89.97002504
_cell_angle_beta   89.92990586
_cell_angle_gamma   120.04194212
_symmetry_Int_Tables_number   1
_chemical_formula_structural   Na2Ca2SiSn2S5O24
_chemical_formula_sum   'Na6 Ca6 Si3 Sn6 S15 O72'
_cell_volume   1657.80143672
_cell_formula_units_Z   3
loop_
 _symmetry_equiv_pos_site_id
 _symmetry_equiv_pos_as_xyz
  1  'x, y, z'
loop_
 _atom_site_type_symbol
 _atom_site_label
 _atom_site_symmetry_multiplicity
 _atom_site_fract_x
 _atom_site_fract_y
 _atom_site_fract_z
 _atom_site_occupancy
  Na  Na0  1  0.99893803  0.99987270  0.49935482  1
  Na  Na1  1  0.99555093  0.98161809  0.00098481  1
  Na  Na2  1  0.66934185  0.31168350  0.82363403  1
  Na  Na3  1  0.64203631  0.31419051  0.33747327  1
  Na  Na4  1  0.30470450  0.67450911  0.16620951  1
  Na  Na5  1  0.34683694  0.67675279  0.66529578  1
  Ca  Ca0  1  0.01309608  0.00147561  0.34893344  1
  Ca  Ca1  1  0.99608721  0.00001459  0.85256130  1
  Ca  Ca2  1  0.66765521  0.32940524  0.68381715  1
  Ca  Ca3  1  0.66132738  0.32979269  0.48509814  1
  Ca  Ca4  1  0.32482814  0.66807052  0.02445274  1
  Ca  Ca5  1  0.33570431  0.67128280  0.52099098  1
  Si  Si0  1  0.30740005  0.00119593  0.24981434  1
  Si  Si1  1  0.69694964  0.99392992  0.75281899  1
  Si  Si2  1  0.95133589  0.62718863  0.08666221  1
  Sn  Sn0  1  0.98835533  0.99711572  0.65386762  1
  Sn  Sn1  1  0.00740277  0.98581383  0.15164029  1
  Sn  Sn2  1  0.66798925  0.33226534  0.18546432  1
  Sn  Sn3  1  0.67586736  0.34388875  0.98277489  1
  Sn  Sn4  1  0.33211072  0.67616324  0.31548904  1
  Sn  Sn5  1  0.34018795  0.67186663  0.81380670  1
  S  S0  1  0.69644300  0.69980398  0.24884217  1
  S  S1  1  0.00339422  0.29657007  0.24706522  1
  S  S2  1  0.29108942  0.30090264  0.75099943  1
  S  S3  1  0.00889468  0.70755453  0.75134165  1
  S  S4  1  0.96997874  0.32235420  0.58607062  1
  S  S5  1  0.34735462  0.03045269  0.58812109  1
  S  S6  1  0.67930719  0.64605994  0.58641400  1
  S  S7  1  0.68203368  0.04917308  0.08556096  1
  S  S8  1  0.37149248  0.32168118  0.08472646  1
  S  S9  1  0.61996843  0.65202973  0.91891996  1
  S  S10  1  0.03584794  0.37984145  0.91687981  1
  S  S11  1  0.34893100  0.97391001  0.91920074  1
  S  S12  1  0.62838282  0.96423863  0.41380296  1
  S  S13  1  0.33766386  0.38344540  0.41239041  1
  S  S14  1  0.03443106  0.65884577  0.41473413  1
  O  O0  1  0.23673931  0.03946437  0.30536900  1
  O  O1  1  0.79902066  0.77736251  0.29891834  1
  O  O2  1  0.97228850  0.19432840  0.29764440  1
  O  O3  1  0.21534661  0.19949873  0.80180097  1
  O  O4  1  0.99768280  0.79156654  0.80237997  1
  O  O5  1  0.80078109  0.01144724  0.81036780  1
  O  O6  1  0.78383846  0.96226656  0.69447431  1
  O  O7  1  0.18680430  0.21831640  0.69793258  1
  O  O8  1  0.04223927  0.81636558  0.69841457  1
  O  O9  1  0.77140709  0.80965097  0.19617523  1
  O  O10  1  0.02585701  0.21346818  0.19415767  1
  O  O11  1  0.18691184  0.96386702  0.19155607  1
  O  O12  1  0.88594724  0.33578104  0.63719253  1
  O  O13  1  0.45038305  0.11550622  0.63797087  1
  O  O14  1  0.66575444  0.54820258  0.63739722  1
  O  O15  1  0.85026401  0.51014774  0.14207202  1
  O  O16  1  0.64934977  0.12775940  0.13597216  1
  O  O17  1  0.47162248  0.33436378  0.13623064  1
  O  O18  1  0.44562578  0.28762730  0.03188247  1
  O  O19  1  0.83829888  0.54408038  0.02702641  1
  O  O20  1  0.70447664  0.15138939  0.03203897  1
  O  O21  1  0.41959316  0.12643394  0.53477521  1
  O  O22  1  0.69492835  0.56633741  0.53374636  1
  O  O23  1  0.87163433  0.30177049  0.53367955  1
  O  O24  1  0.53336089  0.66538261  0.96888785  1
  O  O25  1  0.13316668  0.46864523  0.96688825  1
  O  O26  1  0.33386396  0.87403296  0.96934720  1
  O  O27  1  0.53920290  0.86462531  0.46405546  1
  O  O28  1  0.33198071  0.47543963  0.46237784  1
  O  O29  1  0.13705535  0.67116138  0.46424022  1
  O  O30  1  0.11845039  0.64241052  0.35926159  1
  O  O31  1  0.52730168  0.87808497  0.35896010  1
  O  O32  1  0.35305531  0.48483886  0.35671926  1
  O  O33  1  0.11529389  0.48205478  0.86243579  1
  O  O34  1  0.37113854  0.89525556  0.86518712  1
  O  O35  1  0.51954992  0.63118973  0.86473455  1
  O  O36  1  0.01934320  0.81333371  0.41158044  1
  O  O37  1  0.79759954  0.97923069  0.40970984  1
  O  O38  1  0.18013504  0.21679013  0.40972441  1
  O  O39  1  0.01596759  0.20984532  0.91402537  1
  O  O40  1  0.20249489  0.00100903  0.91511898  1
  O  O41  1  0.79456393  0.79653752  0.91547387  1
  O  O42  1  0.98492922  0.16056023  0.58951077  1
  O  O43  1  0.17216000  0.01822021  0.59376962  1
  O  O44  1  0.84529520  0.81978751  0.58893904  1
  O  O45  1  0.95608068  0.81466412  0.08989243  1
  O  O46  1  0.84716387  0.04852230  0.09236825  1
  O  O47  1  0.19431514  0.16861187  0.08941586  1
  O  O48  1  0.66598447  0.15489135  0.74798405  1
  O  O49  1  0.46632336  0.33820860  0.74404767  1
  O  O50  1  0.85810676  0.53975096  0.74510409  1
  O  O51  1  0.67932496  0.52709401  0.24127722  1
  O  O52  1  0.85459554  0.32499771  0.23975008  1
  O  O53  1  0.50373866  0.16900040  0.23936781  1
  O  O54  1  0.62702643  0.48583467  0.92022982  1
  O  O55  1  0.85873129  0.36371536  0.91856011  1
  O  O56  1  0.51427111  0.14897291  0.92235585  1
  O  O57  1  0.64167144  0.13390643  0.41428366  1
  O  O58  1  0.49139090  0.36555495  0.41205915  1
  O  O59  1  0.86436563  0.50364586  0.41547503  1
  O  O60  1  0.36224609  0.47700742  0.08024206  1
  O  O61  1  0.13814741  0.65019096  0.08621753  1
  O  O62  1  0.53837342  0.87587762  0.08082833  1
  O  O63  1  0.31865373  0.85488188  0.58470327  1
  O  O64  1  0.53397148  0.67781301  0.58403804  1
  O  O65  1  0.14524514  0.47024893  0.58308608  1
  O  O66  1  0.32736573  0.82576714  0.25346713  1
  O  O67  1  0.51879049  0.67251571  0.25355091  1
  O  O68  1  0.16212221  0.46984218  0.25113483  1
  O  O69  1  0.29004049  0.46934849  0.75491793  1
  O  O70  1  0.16598368  0.68611879  0.75477720  1
  O  O71  1  0.50434700  0.81261885  0.75452874  1
loop_
_geom_bond_atom_site_label_1
_geom_bond_atom_site_label_2
_geom_bond_distance
_geom_bond_site_symmetry_2
Na0 O44 2.592217 1_555
Na0 O42 2.604887 1_565
Na0 O43 2.670221 1_665
Na0 O36 2.725947 1_655
Na0 O37 2.726572 1_555
Na0 O38 2.778170 1_665
Na1 O45 2.492175 1_555
Na1 O41 2.662661 1_554
Na1 O40 2.691485 1_664
Na1 O47 2.712543 1_665
Na1 O46 2.750182 1_565
Na1 O39 2.839909 1_664
Na2 O48 2.262472 1_555
Na2 O50 2.649430 1_555
Na2 O55 2.703905 1_555
Na2 O49 2.711719 1_555
Na2 O56 2.722932 1_555
Na2 O54 2.891899 1_555
Na3 O58 2.399124 1_555
Na3 O57 2.427750 1_555
Na3 O59 2.623408 1_555
Na3 O53 2.635966 1_555
Na3 O51 2.873011 1_555
Na3 O52 2.958367 1_555
Na4 O61 2.347119 1_555
Na4 O66 2.413554 1_555
Na4 O68 2.579628 1_555
Na4 O62 2.813969 1_555
Na4 O67 2.825197 1_555
Na4 O60 2.907636 1_555
Na5 O71 2.484917 1_555
Na5 O64 2.542897 1_555
Na5 O63 2.576834 1_555
Na5 O65 2.669841 1_555
Na5 O70 2.685516 1_555
Na5 O69 2.688582 1_555
Ca0 O0 2.131252 1_555
Ca0 O36 2.269077 1_545
Ca0 O38 2.272834 1_555
Ca0 O2 2.294398 1_455
Ca0 O1 2.303217 1_445
Ca0 O37 2.337153 1_445
Ca1 O5 2.070862 1_555
Ca1 O4 2.228318 1_545
Ca1 O3 2.237723 1_655
Ca1 O39 2.317547 1_655
Ca1 O41 2.347850 1_545
Ca1 O40 2.370424 1_655
Ca2 O48 2.174404 1_555
Ca2 O13 2.225751 1_555
Ca2 O12 2.228765 1_555
Ca2 O14 2.264746 1_555
Ca2 O50 2.318416 1_555
Ca2 O49 2.334063 1_555
Ca3 O22 2.306435 1_555
Ca3 O23 2.336105 1_555
Ca3 O21 2.340230 1_555
Ca3 O59 2.367379 1_555
Ca3 O57 2.369677 1_555
Ca3 O58 2.428704 1_555
Ca4 O61 2.165461 1_555
Ca4 O25 2.225604 1_554
Ca4 O26 2.233536 1_554
Ca4 O24 2.299271 1_554
Ca4 O62 2.319154 1_555
Ca4 O60 2.322204 1_555
Ca5 O28 2.229001 1_555
Ca5 O27 2.234175 1_555
Ca5 O29 2.234979 1_555
Ca5 O65 2.290027 1_555
Ca5 O63 2.295562 1_555
Ca5 O64 2.301794 1_555
O0 Si0 1.563634 1_555
O1 S0 1.443278 1_555
O2 S1 1.441873 1_655
O3 S2 1.448268 1_555
O4 S3 1.448505 1_655
O5 Si1 1.606804 1_545
O6 Si1 1.671481 1_555
O6 Sn0 1.957356 1_555
O7 S2 1.514612 1_555
O7 Sn0 2.167281 1_445
O8 S3 1.516887 1_555
O8 Sn0 2.189437 1_455
O9 S0 1.514721 1_555
O9 Sn1 2.182763 1_655
O10 S1 1.516203 1_555
O10 Sn1 2.217199 1_545
O11 Si0 1.674043 1_565
O11 Sn1 1.967262 1_555
O12 S4 1.455742 1_555
O13 S5 1.453217 1_555
O14 S6 1.455339 1_555
O15 Si2 1.634289 1_555
O15 Sn2 1.917128 1_555
O16 S7 1.483333 1_555
O16 Sn2 2.117646 1_555
O17 S8 1.479826 1_555
O17 Sn2 2.125626 1_555
O18 S8 1.511491 1_555
O18 Sn3 2.201027 1_554
O19 Si2 1.673487 1_555
O19 Sn3 1.962603 1_554
O20 S7 1.510598 1_555
O20 Sn3 2.208763 1_554
O21 S5 1.474667 1_555
O22 S6 1.472442 1_555
O23 S4 1.473634 1_555
O24 S9 1.446705 1_555
O25 S10 1.445783 1_555
O26 S11 1.446708 1_555
O27 S12 1.455912 1_555
O28 S13 1.453568 1_555
O29 S14 1.455937 1_555
O30 S14 1.549870 1_555
O30 Sn4 2.067980 1_555
O31 S12 1.545079 1_555
O31 Sn4 2.064844 1_555
O32 S13 1.560674 1_555
O32 Sn4 2.070784 1_555
O33 S10 1.527258 1_555
O33 Sn5 2.207613 1_555
O34 S11 1.514731 1_555
O34 Sn5 2.246387 1_555
O35 S9 1.518521 1_555
O35 Sn5 2.187988 1_555
O36 S14 1.471164 1_555
O37 S12 1.468148 1_555
O38 S13 1.466833 1_555
O39 S10 1.456568 1_555
O40 S11 1.463857 1_545
O41 S9 1.461639 1_555
O42 S4 1.536552 1_555
O42 Sn0 2.122849 1_545
O43 S5 1.535457 1_555
O43 Sn0 2.111104 1_445
O44 S6 1.536200 1_555
O44 Sn0 2.119528 1_555
O45 Si2 1.675249 1_555
O45 Sn1 1.998104 1_655
O46 S7 1.503017 1_555
O46 Sn1 2.274761 1_645
O47 S8 1.506496 1_555
O47 Sn1 2.215689 1_545
O48 Si1 1.617111 1_545
O49 S2 1.452564 1_555
O50 S3 1.452250 1_655
O51 S0 1.500352 1_555
O51 Sn2 2.155977 1_555
O52 S1 1.499234 1_655
O52 Sn2 2.140682 1_555
O53 Si0 1.676449 1_555
O53 Sn2 1.943952 1_555
O54 S9 1.535384 1_555
O54 Sn3 2.135392 1_555
O55 S10 1.532304 1_655
O55 Sn3 2.174022 1_555
O56 S11 1.540666 1_545
O56 Sn3 2.162435 1_555
O57 S12 1.477200 1_545
O58 S13 1.475995 1_555
O59 S14 1.473030 1_655
O60 S8 1.451332 1_555
O61 Si2 1.593305 1_455
O62 S7 1.454265 1_565
O63 S5 1.476578 1_565
O64 S6 1.478421 1_555
O65 S4 1.475947 1_455
O66 Si0 1.685324 1_565
O66 Sn4 2.000887 1_555
O67 S0 1.500204 1_555
O67 Sn4 2.237122 1_555
O68 S1 1.506483 1_555
O68 Sn4 2.292592 1_555
O69 S2 1.530107 1_555
O69 Sn5 2.153725 1_555
O70 S3 1.527202 1_555
O70 Sn5 2.148886 1_555
O71 Si1 1.690730 1_555
O71 Sn5 1.963428 1_555
