# generated using pymatgen
data_MgTi2Zn4O8
_symmetry_space_group_name_H-M   'P 1'
_cell_length_a   6.04571098
_cell_length_b   6.15047284
_cell_length_c   6.04570989
_cell_angle_alpha   62.85244099
_cell_angle_beta   59.62781364
_cell_angle_gamma   62.85243294
_symmetry_Int_Tables_number   1
_chemical_formula_structural   MgTi2Zn4O8
_chemical_formula_sum   'Mg1 Ti2 Zn4 O8'
_cell_volume   164.96609340
_cell_formula_units_Z   1
loop_
 _symmetry_equiv_pos_site_id
 _symmetry_equiv_pos_as_xyz
  1  'x, y, z'
loop_
 _atom_site_type_symbol
 _atom_site_label
 _atom_site_symmetry_multiplicity
 _atom_site_fract_x
 _atom_site_fract_y
 _atom_site_fract_z
 _atom_site_occupancy
  Mg  Mg0  1  0.00000000  0.50000000  0.00000000  1
  Ti  Ti0  1  0.50000000  0.00000000  0.50000000  1
  Ti  Ti1  1  0.50000000  0.50000000  0.50000000  1
  Zn  Zn0  1  0.16274300  0.03435300  0.16274300  1
  Zn  Zn1  1  0.50000000  0.50000000  0.00000000  1
  Zn  Zn2  1  0.00000000  0.50000000  0.50000000  1
  Zn  Zn3  1  0.83725700  0.96564700  0.83725700  1
  O  O0  1  0.26149500  0.24062400  0.26149500  1
  O  O1  1  0.28051600  0.67861700  0.28051600  1
  O  O2  1  0.25644500  0.25211600  0.75540800  1
  O  O3  1  0.75540800  0.25211600  0.25644500  1
  O  O4  1  0.24459200  0.74788400  0.74355500  1
  O  O5  1  0.74355500  0.74788400  0.24459200  1
  O  O6  1  0.71948400  0.32138300  0.71948400  1
  O  O7  1  0.73850500  0.75937600  0.73850500  1
loop_
_geom_bond_atom_site_label_1
_geom_bond_atom_site_label_2
_geom_bond_distance
_geom_bond_site_symmetry_2
Mg0 O2 2.120547 1_554
Mg0 O5 2.120547 1_455
Mg0 O4 2.120547 1_554
Mg0 O3 2.120547 1_455
Mg0 O0 2.338359 1_555
Mg0 O7 2.338359 1_454
O0 Zn0 2.016243 1_555
O0 Ti0 2.134547 1_555
O0 Zn2 2.148463 1_555
O0 Zn1 2.148463 1_555
O1 Zn0 1.862903 1_565
O1 Ti1 1.961722 1_555
O1 Zn1 1.984450 1_555
O1 Zn2 1.984450 1_555
O2 Zn0 2.109748 1_556
O2 Ti1 2.116124 1_555
O2 Ti0 2.181543 1_555
O2 Zn2 2.286464 1_555
O3 Zn0 2.109748 1_655
O3 Ti1 2.116124 1_555
O3 Ti0 2.181543 1_555
O3 Zn1 2.286464 1_555
O4 Zn3 2.109748 1_455
O4 Ti1 2.116124 1_555
O4 Ti0 2.181543 1_565
O4 Zn1 2.286464 1_556
O5 Zn3 2.109748 1_554
O5 Ti1 2.116124 1_555
O5 Ti0 2.181543 1_565
O5 Zn2 2.286464 1_655
O6 Zn3 1.862903 1_545
O6 Ti1 1.961722 1_555
O6 Zn1 1.984450 1_556
O6 Zn2 1.984450 1_655
O7 Zn3 2.016243 1_555
O7 Ti0 2.134547 1_565
O7 Zn2 2.148463 1_655
O7 Zn1 2.148463 1_556
