# generated using pymatgen
data_K3OsF6
_symmetry_space_group_name_H-M   'P 1'
_cell_length_a   8.25006357
_cell_length_b   6.62112054
_cell_length_c   6.60377570
_cell_angle_alpha   77.24687421
_cell_angle_beta   110.64793718
_cell_angle_gamma   128.59611721
_symmetry_Int_Tables_number   1
_chemical_formula_structural   K3OsF6
_chemical_formula_sum   'K3 Os1 F6'
_cell_volume   263.82225813
_cell_formula_units_Z   1
loop_
 _symmetry_equiv_pos_site_id
 _symmetry_equiv_pos_as_xyz
  1  'x, y, z'
loop_
 _atom_site_type_symbol
 _atom_site_label
 _atom_site_symmetry_multiplicity
 _atom_site_fract_x
 _atom_site_fract_y
 _atom_site_fract_z
 _atom_site_occupancy
  K  K0  1  -0.00000000  -0.00000000  0.50000000  1
  K  K1  1  0.50000000  0.50000000  0.00000000  1
  K  K2  1  -0.00000000  0.50000000  0.00000000  1
  Os  Os0  1  -0.00000000  -0.00000000  0.00000000  1
  F  F0  1  0.07572867  0.29603614  0.78070952  1
  F  F1  1  0.92427133  0.70396386  0.21929048  1
  F  F2  1  0.78030183  0.70587577  0.77942688  1
  F  F3  1  0.21969817  0.29412423  0.22057312  1
  F  F4  1  0.77928255  -0.00008978  0.07390326  1
  F  F5  1  0.22071745  0.00008978  0.92609674  1
loop_
_geom_bond_atom_site_label_1
_geom_bond_atom_site_label_2
_geom_bond_distance
_geom_bond_site_symmetry_2
F0 Os0 2.046073 1_556
F0 K2 2.620193 1_556
F0 K0 2.632145 1_555
F0 K1 2.750217 1_556
F1 Os0 2.046073 1_665
F1 K2 2.620193 1_655
F1 K0 2.632145 1_665
F1 K1 2.750217 1_555
F2 Os0 2.045962 1_666
F2 K0 2.617454 1_665
F2 K1 2.625565 1_556
F2 K2 2.758456 1_656
F3 Os0 2.045962 1_555
F3 K0 2.617454 1_555
F3 K1 2.625565 1_555
F3 K2 2.758456 1_555
F4 Os0 2.044321 1_655
F4 K1 2.628282 1_545
F4 K2 2.628389 1_655
F4 K0 2.760316 1_655
F5 Os0 2.044321 1_556
F5 K1 2.628282 1_556
F5 K2 2.628389 1_546
F5 K0 2.760316 1_555
