# generated using pymatgen
data_Ca3(AlN2)2
_symmetry_space_group_name_H-M   'P 1'
_cell_length_a   5.81386699
_cell_length_b   10.68021306
_cell_length_c   15.85468931
_cell_angle_alpha   90.00000000
_cell_angle_beta   90.00000000
_cell_angle_gamma   90.00000000
_symmetry_Int_Tables_number   1
_chemical_formula_structural   Ca3(AlN2)2
_chemical_formula_sum   'Ca24 Al16 N32'
_cell_volume   984.47058468
_cell_formula_units_Z   8
loop_
 _symmetry_equiv_pos_site_id
 _symmetry_equiv_pos_as_xyz
  1  'x, y, z'
loop_
 _atom_site_type_symbol
 _atom_site_label
 _atom_site_symmetry_multiplicity
 _atom_site_fract_x
 _atom_site_fract_y
 _atom_site_fract_z
 _atom_site_occupancy
  Ca  Ca0  1  0.72226661  0.76765790  0.55907597  1
  Ca  Ca1  1  0.22226661  0.73234210  0.44092403  1
  Ca  Ca2  1  0.27773339  0.26765790  0.94092403  1
  Ca  Ca3  1  0.77773339  0.23234210  0.05907597  1
  Ca  Ca4  1  0.99780917  0.51043548  0.57308783  1
  Ca  Ca5  1  0.49780917  0.98956452  0.42691217  1
  Ca  Ca6  1  0.00219083  0.01043548  0.92691217  1
  Ca  Ca7  1  0.50219083  0.48956452  0.07308783  1
  Ca  Ca8  1  0.03620850  0.97174124  0.70367906  1
  Ca  Ca9  1  0.53620850  0.52825876  0.29632094  1
  Ca  Ca10  1  0.96379150  0.47174124  0.79632094  1
  Ca  Ca11  1  0.46379150  0.02825876  0.20367906  1
  Ca  Ca12  1  0.20705845  0.75871021  0.06161730  1
  Ca  Ca13  1  0.70705845  0.74128979  0.93838270  1
  Ca  Ca14  1  0.79294155  0.25871021  0.43838270  1
  Ca  Ca15  1  0.29294155  0.24128979  0.56161730  1
  Ca  Ca16  1  0.23930805  0.73591236  0.83290936  1
  Ca  Ca17  1  0.73930805  0.76408764  0.16709064  1
  Ca  Ca18  1  0.76069195  0.23591236  0.66709064  1
  Ca  Ca19  1  0.26069195  0.26408764  0.33290936  1
  Ca  Ca20  1  0.46759765  0.49103408  0.67995948  1
  Ca  Ca21  1  0.96759765  0.00896592  0.32004052  1
  Ca  Ca22  1  0.53240235  0.99103408  0.82004052  1
  Ca  Ca23  1  0.03240235  0.50896592  0.17995948  1
  Al  Al0  1  0.01317513  0.99078914  0.50687843  1
  Al  Al1  1  0.51317513  0.50921086  0.49312157  1
  Al  Al2  1  0.98682487  0.49078914  0.99312157  1
  Al  Al3  1  0.48682487  0.00921086  0.00687843  1
  Al  Al4  1  0.25553914  0.24952681  0.74855631  1
  Al  Al5  1  0.75553914  0.25047319  0.25144369  1
  Al  Al6  1  0.74446086  0.74952681  0.75144369  1
  Al  Al7  1  0.24446086  0.75047319  0.24855631  1
  Al  Al8  1  0.26331907  0.75648484  0.62841558  1
  Al  Al9  1  0.76331907  0.74351516  0.37158442  1
  Al  Al10  1  0.73668093  0.25648484  0.87158442  1
  Al  Al11  1  0.23668093  0.24351516  0.12841558  1
  Al  Al12  1  0.49211479  0.98158984  0.63096743  1
  Al  Al13  1  0.99211479  0.51841016  0.36903257  1
  Al  Al14  1  0.50788521  0.48158984  0.86903257  1
  Al  Al15  1  0.00788521  0.01841016  0.13096743  1
  N  N0  1  0.88089078  0.86468302  0.82759163  1
  N  N1  1  0.38089078  0.63531698  0.17240837  1
  N  N2  1  0.11910922  0.36468302  0.67240837  1
  N  N3  1  0.61910922  0.13531698  0.32759163  1
  N  N4  1  0.97836231  0.70802942  0.67259020  1
  N  N5  1  0.47836231  0.79197058  0.32740980  1
  N  N6  1  0.02163769  0.20802942  0.82740980  1
  N  N7  1  0.52163769  0.29197058  0.17259020  1
  N  N8  1  0.12778514  0.88727237  0.19101355  1
  N  N9  1  0.62778514  0.61272763  0.80898645  1
  N  N10  1  0.87221486  0.38727237  0.30898645  1
  N  N11  1  0.37221486  0.11272763  0.69101355  1
  N  N12  1  0.21975706  0.52546191  0.91189738  1
  N  N13  1  0.71975706  0.97453809  0.08810262  1
  N  N14  1  0.78024294  0.02546191  0.58810262  1
  N  N15  1  0.28024294  0.47453809  0.41189738  1
  N  N16  1  0.27308644  0.90463532  0.55590504  1
  N  N17  1  0.77308644  0.59536468  0.44409496  1
  N  N18  1  0.72691356  0.40463532  0.94409496  1
  N  N19  1  0.22691356  0.09536468  0.05590504  1
  N  N20  1  0.37037131  0.87413047  0.94231143  1
  N  N21  1  0.87037131  0.62586953  0.05768857  1
  N  N22  1  0.62962869  0.37413047  0.55768857  1
  N  N23  1  0.12962869  0.12586953  0.44231143  1
  N  N24  1  0.38030013  0.62760619  0.56561597  1
  N  N25  1  0.88030013  0.87239381  0.43438403  1
  N  N26  1  0.61969987  0.12760619  0.93438403  1
  N  N27  1  0.11969987  0.37239381  0.06561597  1
  N  N28  1  0.48129172  0.83337896  0.70318009  1
  N  N29  1  0.98129172  0.66662104  0.29681991  1
  N  N30  1  0.51870828  0.33337896  0.79681991  1
  N  N31  1  0.01870828  0.16662104  0.20318009  1
loop_
_geom_bond_atom_site_label_1
_geom_bond_atom_site_label_2
_geom_bond_distance
_geom_bond_site_symmetry_2
Ca0 N4 2.421044 1_555
Ca0 N25 2.450261 1_555
Ca0 N24 2.490150 1_555
Ca0 N17 2.607039 1_555
Ca0 N14 2.811873 1_565
Ca1 N5 2.421044 1_555
Ca1 N24 2.450261 1_555
Ca1 N25 2.490150 1_455
Ca1 N16 2.607039 1_555
Ca1 N15 2.811873 1_555
Ca2 N6 2.421044 1_555
Ca2 N27 2.450261 1_556
Ca2 N26 2.490150 1_555
Ca2 N19 2.607039 1_556
Ca2 N12 2.811873 1_555
Ca3 N7 2.421044 1_555
Ca3 N26 2.450261 1_554
Ca3 N27 2.490150 1_655
Ca3 N18 2.607039 1_554
Ca3 N13 2.811873 1_545
Ca4 N2 2.323837 1_655
Ca4 N24 2.554433 1_655
Ca4 N17 2.590816 1_555
Ca4 N22 2.600160 1_555
Ca4 N4 2.637252 1_555
Ca4 N15 3.061777 1_655
Ca5 N3 2.323837 1_565
Ca5 N25 2.554433 1_555
Ca5 N16 2.590816 1_555
Ca5 N23 2.600160 1_565
Ca5 N5 2.637252 1_555
Ca5 N14 3.061777 1_565
Ca6 N0 2.323837 1_445
Ca6 N26 2.554433 1_455
Ca6 N19 2.590816 1_556
Ca6 N20 2.600160 1_545
Ca6 N6 2.637252 1_555
Ca6 N13 3.061777 1_446
Ca7 N1 2.323837 1_555
Ca7 N27 2.554433 1_555
Ca7 N18 2.590816 1_554
Ca7 N21 2.600160 1_555
Ca7 N7 2.637252 1_555
Ca7 N12 3.061777 1_554
Ca8 N14 2.429315 1_465
Ca8 N0 2.445897 1_455
Ca8 N11 2.474631 1_565
Ca9 N15 2.429315 1_555
Ca9 N1 2.445897 1_555
Ca9 N10 2.474631 1_555
Ca10 N12 2.429315 1_655
Ca10 N2 2.445897 1_655
Ca10 N9 2.474631 1_555
Ca11 N13 2.429315 1_545
Ca11 N3 2.445897 1_555
Ca11 N8 2.474631 1_545
Ca12 N1 2.417366 1_555
Ca12 N21 2.418348 1_455
Ca12 N20 2.449302 1_554
Ca12 N8 2.511283 1_555
Ca13 N0 2.417366 1_555
Ca13 N20 2.418348 1_555
Ca13 N21 2.449302 1_556
Ca13 N9 2.511283 1_555
Ca14 N3 2.417366 1_555
Ca14 N23 2.418348 1_655
Ca14 N22 2.449302 1_555
Ca14 N10 2.511283 1_555
Ca15 N2 2.417366 1_555
Ca15 N22 2.418348 1_555
Ca15 N23 2.449302 1_555
Ca15 N11 2.511283 1_555
Ca16 N20 2.401749 1_555
Ca16 N0 2.498146 1_455
Ca16 N12 2.575501 1_555
Ca16 N9 2.641180 1_555
Ca16 N28 2.700622 1_555
Ca16 N4 2.975078 1_455
Ca17 N21 2.401749 1_555
Ca17 N1 2.498146 1_555
Ca17 N13 2.575501 1_555
Ca17 N8 2.641180 1_655
Ca17 N29 2.700622 1_555
Ca17 N5 2.975078 1_555
Ca18 N22 2.401749 1_555
Ca18 N2 2.498146 1_655
Ca18 N14 2.575501 1_555
Ca18 N11 2.641180 1_555
Ca18 N30 2.700622 1_555
Ca18 N6 2.975078 1_655
Ca19 N23 2.401749 1_555
Ca19 N3 2.498146 1_555
Ca19 N15 2.575501 1_555
Ca19 N10 2.641180 1_455
Ca19 N31 2.700622 1_555
Ca19 N7 2.975078 1_555
Ca20 N24 2.381533 1_555
Ca20 N2 2.437274 1_555
Ca20 N22 2.490853 1_555
Ca20 N30 2.521163 1_555
Ca20 N9 2.596422 1_555
Ca21 N25 2.381533 1_545
Ca21 N3 2.437274 1_555
Ca21 N23 2.490853 1_655
Ca21 N31 2.521163 1_655
Ca21 N8 2.596422 1_645
Ca22 N26 2.381533 1_565
Ca22 N0 2.437274 1_555
Ca22 N20 2.490853 1_555
Ca22 N28 2.521163 1_555
Ca22 N11 2.596422 1_565
Ca23 N27 2.381533 1_555
Ca23 N1 2.437274 1_555
Ca23 N21 2.490853 1_455
Ca23 N29 2.521163 1_455
Ca23 N10 2.596422 1_455
Al0 N25 1.875307 1_455
Al0 N23 1.894117 1_565
Al0 N14 1.905119 1_465
Al0 N16 1.932421 1_555
Al1 N24 1.875307 1_555
Al1 N22 1.894117 1_555
Al1 N15 1.905119 1_555
Al1 N17 1.932421 1_555
Al2 N27 1.875307 1_656
Al2 N21 1.894117 1_556
Al2 N12 1.905119 1_655
Al2 N18 1.932421 1_555
Al3 N26 1.875307 1_554
Al3 N20 1.894117 1_544
Al3 N13 1.905119 1_545
Al3 N19 1.932421 1_555
Al4 N11 1.851249 1_555
Al4 N2 1.897197 1_555
Al4 N6 1.899651 1_555
Al4 N30 1.930947 1_555
Al5 N10 1.851249 1_555
Al5 N3 1.897197 1_555
Al5 N7 1.899651 1_555
Al5 N31 1.930947 1_655
Al6 N9 1.851249 1_555
Al6 N0 1.897197 1_555
Al6 N4 1.899651 1_555
Al6 N28 1.930947 1_555
Al7 N8 1.851249 1_555
Al7 N1 1.897197 1_555
Al7 N5 1.899651 1_555
Al7 N29 1.930947 1_455
Al8 N24 1.829898 1_555
Al8 N4 1.871631 1_455
Al8 N28 1.919766 1_555
Al8 N16 1.956651 1_555
Al9 N25 1.829898 1_555
Al9 N5 1.871631 1_555
Al9 N29 1.919766 1_555
Al9 N17 1.956651 1_555
Al10 N26 1.829898 1_555
Al10 N6 1.871631 1_655
Al10 N30 1.919766 1_555
Al10 N18 1.956651 1_555
Al11 N27 1.829898 1_555
Al11 N7 1.871631 1_555
Al11 N31 1.919766 1_555
Al11 N19 1.956651 1_555
Al12 N11 1.831359 1_565
Al12 N14 1.867487 1_565
Al12 N16 1.927011 1_555
Al12 N28 1.954591 1_555
Al13 N10 1.831359 1_555
Al13 N15 1.867487 1_655
Al13 N17 1.927011 1_555
Al13 N29 1.954591 1_555
Al14 N9 1.831359 1_555
Al14 N12 1.867487 1_555
Al14 N18 1.927011 1_555
Al14 N30 1.954591 1_555
Al15 N8 1.831359 1_545
Al15 N13 1.867487 1_445
Al15 N19 1.927011 1_555
Al15 N31 1.954591 1_555
