# generated using pymatgen
data_Na6Ti2Zn2Si3(SO8)3
_symmetry_space_group_name_H-M   'P 1'
_cell_length_a   8.96775561
_cell_length_b   8.97575695
_cell_length_c   22.09903878
_cell_angle_alpha   89.84228753
_cell_angle_beta   91.08107131
_cell_angle_gamma   119.46362537
_symmetry_Int_Tables_number   1
_chemical_formula_structural   Na6Ti2Zn2Si3(SO8)3
_chemical_formula_sum   'Na18 Ti6 Zn6 Si9 S9 O72'
_cell_volume   1548.42923772
_cell_formula_units_Z   3
loop_
 _symmetry_equiv_pos_site_id
 _symmetry_equiv_pos_as_xyz
  1  'x, y, z'
loop_
 _atom_site_type_symbol
 _atom_site_label
 _atom_site_symmetry_multiplicity
 _atom_site_fract_x
 _atom_site_fract_y
 _atom_site_fract_z
 _atom_site_occupancy
  Na  Na0  1  0.37215350  0.35469080  0.24592491  1
  Na  Na1  1  0.99583903  0.63273882  0.24177772  1
  Na  Na2  1  0.98677621  0.35521824  0.74588998  1
  Na  Na3  1  0.38010298  0.02364409  0.74654260  1
  Na  Na4  1  0.29861883  0.33739085  0.58065837  1
  Na  Na5  1  0.65669043  0.97220052  0.58895599  1
  Na  Na6  1  0.30537603  0.95739091  0.07436397  1
  Na  Na7  1  0.65682841  0.68763040  0.08230240  1
  Na  Na8  1  0.98226166  0.68103660  0.91699352  1
  Na  Na9  1  0.31999491  0.28638882  0.90906963  1
  Na  Na10  1  0.98171178  0.30139975  0.42297655  1
  Na  Na11  1  0.32480684  0.03838975  0.41394249  1
  Na  Na12  1  0.00368010  0.99288244  0.50214205  1
  Na  Na13  1  -0.00003620  0.00996720  0.99266427  1
  Na  Na14  1  0.65765503  0.32035371  0.82521831  1
  Na  Na15  1  0.65386432  0.32613874  0.33056451  1
  Na  Na16  1  0.32193331  0.65739193  0.15833595  1
  Na  Na17  1  0.32193708  0.66434299  0.66084780  1
  Ti  Ti0  1  0.00598518  0.02762964  0.64790495  1
  Ti  Ti1  1  0.02254137  0.99535366  0.14156161  1
  Ti  Ti2  1  0.64915264  0.32436960  0.98331022  1
  Ti  Ti3  1  0.64600182  0.32805661  0.48909240  1
  Ti  Ti4  1  0.34337618  0.67019924  0.31538552  1
  Ti  Ti5  1  0.35626182  0.68884536  0.80772115  1
  Zn  Zn0  1  0.02094888  0.01406218  0.34787570  1
  Zn  Zn1  1  0.01861154  0.01226611  0.84416299  1
  Zn  Zn2  1  0.65806135  0.31377494  0.68443782  1
  Zn  Zn3  1  0.65647295  0.32672010  0.17814368  1
  Zn  Zn4  1  0.30456313  0.65519382  0.01811060  1
  Zn  Zn5  1  0.30589210  0.64861650  0.52201696  1
  Si  Si0  1  0.30771718  0.00096542  0.25230375  1
  Si  Si1  1  0.30605451  0.30681121  0.75348770  1
  Si  Si2  1  0.71734208  0.00098020  0.75161380  1
  Si  Si3  1  0.95491087  0.33800359  0.58649841  1
  Si  Si4  1  0.35893277  0.02362069  0.58575615  1
  Si  Si5  1  0.95385024  0.61406135  0.08737047  1
  Si  Si6  1  0.37012691  0.34133771  0.08504264  1
  Si  Si7  1  0.33477862  0.95924207  0.91845997  1
  Si  Si8  1  0.33866416  0.37536883  0.41896590  1
  S  S0  1  0.70909064  0.71688567  0.25169008  1
  S  S1  1  0.99912106  0.29123303  0.25144271  1
  S  S2  1  0.00089046  0.70960677  0.75166508  1
  S  S3  1  0.67442412  0.62894514  0.58460811  1
  S  S4  1  0.67488651  0.04452634  0.08406720  1
  S  S5  1  0.62542871  0.66597819  0.91846171  1
  S  S6  1  0.03424398  0.37228902  0.91655548  1
  S  S7  1  0.62918270  0.95927898  0.41706662  1
  S  S8  1  0.03688293  0.66451738  0.41431913  1
  O  O0  1  0.22125739  0.03125581  0.31064571  1
  O  O1  1  0.81380660  0.80561926  0.30518668  1
  O  O2  1  0.97754466  0.19730041  0.30854116  1
  O  O3  1  0.23487083  0.18850722  0.81243498  1
  O  O4  1  0.98191001  0.78001781  0.80933852  1
  O  O5  1  0.83187105  0.02561249  0.81009398  1
  O  O6  1  0.80286853  0.96988366  0.68903694  1
  O  O7  1  0.16568999  0.20634417  0.69329003  1
  O  O8  1  0.02961172  0.82511993  0.69969566  1
  O  O9  1  0.78347761  0.81362237  0.19521207  1
  O  O10  1  0.02273074  0.20114035  0.19933511  1
  O  O11  1  0.17010693  0.96582930  0.19187063  1
  O  O12  1  0.87267408  0.36164257  0.64612316  1
  O  O13  1  0.47733077  0.10518778  0.64455565  1
  O  O14  1  0.64715821  0.52242888  0.63800478  1
  O  O15  1  0.87192263  0.51676061  0.14907032  1
  O  O16  1  0.64358830  0.11752970  0.13852717  1
  O  O17  1  0.47707539  0.37161134  0.14711098  1
  O  O18  1  0.46355127  0.29464140  0.02714339  1
  O  O19  1  0.82562393  0.52150883  0.02709788  1
  O  O20  1  0.69646791  0.15430023  0.02993970  1
  O  O21  1  0.45984142  0.16716875  0.52624172  1
  O  O22  1  0.69039160  0.53496653  0.52892671  1
  O  O23  1  0.82793705  0.30783403  0.52386698  1
  O  O24  1  0.55071191  0.68592454  0.97373965  1
  O  O25  1  0.14513210  0.44978231  0.97056323  1
  O  O26  1  0.30838370  0.84957828  0.97882324  1
  O  O27  1  0.55452003  0.86397965  0.47169448  1
  O  O28  1  0.30670293  0.46550240  0.47543173  1
  O  O29  1  0.14846444  0.69998905  0.46778049  1
  O  O30  1  0.12523103  0.64080046  0.35932043  1
  O  O31  1  0.50885233  0.86770722  0.36263282  1
  O  O32  1  0.35728786  0.50135986  0.35778619  1
  O  O33  1  0.11351073  0.47865020  0.86193563  1
  O  O34  1  0.35757887  0.85819438  0.85849089  1
  O  O35  1  0.51093957  0.63879009  0.86428932  1
  O  O36  1  0.01049174  0.81331331  0.40739270  1
  O  O37  1  0.80131585  0.98354231  0.40771693  1
  O  O38  1  0.16754895  0.18459511  0.41377831  1
  O  O39  1  0.01287113  0.19919435  0.91287087  1
  O  O40  1  0.16540807  0.98418718  0.91379474  1
  O  O41  1  0.80024356  0.80832606  0.91190857  1
  O  O42  1  0.95838592  0.14910145  0.58623560  1
  O  O43  1  0.17504786  0.02256949  0.58823424  1
  O  O44  1  0.83168436  0.79700028  0.58508220  1
  O  O45  1  0.95900109  0.81116172  0.09057508  1
  O  O46  1  0.83309078  0.02915871  0.08910146  1
  O  O47  1  0.18212355  0.15608013  0.08968385  1
  O  O48  1  0.68621055  0.16339286  0.74918937  1
  O  O49  1  0.49104716  0.32874410  0.74207839  1
  O  O50  1  0.85626299  0.53631476  0.74492763  1
  O  O51  1  0.68963246  0.54269971  0.25033976  1
  O  O52  1  0.85536975  0.32450516  0.24579730  1
  O  O53  1  0.49120167  0.16999131  0.24444276  1
  O  O54  1  0.63438389  0.49833965  0.92028403  1
  O  O55  1  0.86471172  0.36779708  0.92277748  1
  O  O56  1  0.51070806  0.15553725  0.92418402  1
  O  O57  1  0.63840769  0.13244112  0.41708275  1
  O  O58  1  0.51246021  0.35281615  0.42044081  1
  O  O59  1  0.87176882  0.50123635  0.41783857  1
  O  O60  1  0.36265156  0.51355198  0.07344851  1
  O  O61  1  0.15271030  0.66895068  0.08402377  1
  O  O62  1  0.52681863  0.87058020  0.07676629  1
  O  O63  1  0.36360112  0.85048791  0.57153280  1
  O  O64  1  0.52325840  0.65152119  0.57614721  1
  O  O65  1  0.15262703  0.48344170  0.58276691  1
  O  O66  1  0.30370404  0.81286828  0.25816444  1
  O  O67  1  0.52899421  0.69409677  0.25528436  1
  O  O68  1  0.16513556  0.46586745  0.25445859  1
  O  O69  1  0.29524208  0.48595715  0.75995811  1
  O  O70  1  0.16579183  0.69584687  0.75460466  1
  O  O71  1  0.51827157  0.82545646  0.75503944  1
loop_
_geom_bond_atom_site_label_1
_geom_bond_atom_site_label_2
_geom_bond_distance
_geom_bond_site_symmetry_2
Na0 O17 2.368972 1_555
Na0 O53 2.373165 1_555
Na0 O51 2.495419 1_555
Na0 O68 2.512888 1_555
Na0 O67 2.660655 1_555
Na0 O32 2.839854 1_555
Na0 O10 2.901066 1_555
Na0 O0 2.913805 1_555
Na1 O15 2.302984 1_555
Na1 O52 2.413169 1_555
Na1 O66 2.437587 1_655
Na1 O51 2.462722 1_555
Na1 O68 2.616395 1_655
Na1 O30 2.811368 1_655
Na1 O11 2.836856 1_655
Na2 O48 2.382501 1_555
Na2 O50 2.425471 1_555
Na2 O12 2.425590 1_555
Na2 O69 2.429409 1_655
Na2 O70 2.669291 1_655
Na2 O33 2.786171 1_655
Na2 O7 2.810532 1_655
Na2 O5 2.950202 1_555
Na3 O48 2.391525 1_555
Na3 O13 2.410994 1_555
Na3 O49 2.412659 1_555
Na3 O70 2.613320 1_545
Na3 O71 2.625387 1_545
Na3 O3 2.825905 1_555
Na3 O34 2.840793 1_545
Na3 O8 2.916138 1_545
Na4 O65 2.264010 1_555
Na4 O43 2.482918 1_555
Na4 O64 2.537016 1_555
Na4 O28 2.577727 1_555
Na4 O42 2.668548 1_455
Na4 O7 2.777848 1_555
Na4 O21 2.849508 1_555
Na4 O14 2.981491 1_555
Na5 O63 2.321509 1_555
Na5 O42 2.371549 1_565
Na5 O64 2.529882 1_555
Na5 O6 2.554919 1_555
Na5 O44 2.715966 1_555
Na5 O13 2.737341 1_565
Na5 O27 2.747172 1_555
Na6 O61 2.267999 1_555
Na6 O26 2.331111 1_554
Na6 O62 2.464046 1_555
Na6 O47 2.544276 1_565
Na6 O45 2.743774 1_455
Na6 O18 2.842300 1_565
Na6 O11 2.903596 1_555
Na6 O16 2.972539 1_565
Na7 O60 2.316564 1_555
Na7 O45 2.373304 1_555
Na7 O62 2.438798 1_555
Na7 O24 2.561520 1_554
Na7 O46 2.673028 1_565
Na7 O9 2.727618 1_555
Na7 O17 2.874401 1_555
Na7 O19 2.881492 1_555
Na8 O40 2.390263 1_655
Na8 O41 2.410257 1_555
Na8 O55 2.473849 1_555
Na8 O4 2.537743 1_555
Na8 O54 2.720677 1_555
Na8 O19 2.841662 1_556
Na8 O26 2.866522 1_655
Na8 O33 2.887087 1_655
Na9 O3 2.281262 1_555
Na9 O40 2.365384 1_545
Na9 O39 2.468425 1_555
Na9 O54 2.515800 1_555
Na9 O56 2.523557 1_555
Na9 O18 2.872605 1_556
Na9 O35 2.938527 1_555
Na9 O25 2.968232 1_555
Na10 O38 2.377102 1_655
Na10 O59 2.436524 1_555
Na10 O37 2.512926 1_545
Na10 O23 2.659158 1_555
Na10 O57 2.681043 1_555
Na10 O2 2.691641 1_555
Na10 O28 2.768790 1_655
Na11 O38 2.351878 1_555
Na11 O0 2.437155 1_555
Na11 O58 2.477591 1_555
Na11 O57 2.506778 1_555
Na11 O36 2.536085 1_545
Na11 O21 2.736197 1_555
Na11 O29 2.909989 1_545
Na11 O31 2.987379 1_545
Na12 O43 2.354155 1_565
Na12 O42 2.487534 1_465
Na12 O44 2.500192 1_455
Na12 O38 2.556558 1_565
Na12 O36 2.665723 1_555
Na12 O37 2.713502 1_455
Na13 O40 2.393778 1_545
Na13 O39 2.409439 1_555
Na13 O41 2.525209 1_445
Na13 O47 2.600226 1_556
Na13 O46 2.680849 1_456
Na13 O45 2.713812 1_446
Na14 O48 2.292935 1_555
Na14 O49 2.370667 1_555
Na14 O50 2.604219 1_555
Na14 O56 2.623239 1_555
Na14 O55 2.711731 1_555
Na14 O54 2.715208 1_555
Na15 O53 2.369196 1_555
Na15 O58 2.450842 1_555
Na15 O51 2.532491 1_555
Na15 O57 2.540107 1_555
Na15 O59 2.619471 1_555
Na15 O52 2.632253 1_555
Na16 O61 2.251786 1_555
Na16 O60 2.412939 1_555
Na16 O62 2.633286 1_555
Na16 O66 2.663853 1_555
Na16 O68 2.675702 1_555
Na16 O67 2.720043 1_555
Na17 O65 2.326049 1_555
Na17 O63 2.494493 1_555
Na17 O70 2.614549 1_555
Na17 O71 2.626328 1_555
Na17 O69 2.653592 1_555
Na17 O64 2.666356 1_555
O0 Si0 1.607610 1_555
O0 Zn0 1.926096 1_555
O1 S0 1.463340 1_555
O1 Zn0 2.089425 1_665
O2 S1 1.477616 1_555
O2 Zn0 2.054578 1_655
O3 Si1 1.609027 1_555
O3 Zn1 1.944828 1_555
O4 S2 1.473517 1_655
O4 Zn1 2.090571 1_665
O5 Si2 1.581782 1_555
O5 Zn1 1.880134 1_655
O6 Si2 1.682643 1_565
O6 Ti0 1.882519 1_665
O7 Si1 1.730359 1_555
O7 Ti0 1.823425 1_555
O8 S2 1.483989 1_555
O8 Ti0 2.239875 1_565
O9 S0 1.487396 1_555
O9 Ti1 2.303844 1_655
O10 S1 1.485770 1_455
O10 Ti1 2.247582 1_545
O11 Si0 1.721400 1_565
O11 Ti1 1.829027 1_555
O12 Si3 1.586580 1_555
O12 Zn2 1.962556 1_555
O13 Si4 1.593830 1_555
O13 Zn2 1.969507 1_555
O14 S3 1.463211 1_555
O14 Zn2 2.176178 1_555
O15 Si5 1.600533 1_555
O15 Zn3 1.963190 1_555
O16 S4 1.467856 1_555
O16 Zn3 2.024148 1_555
O17 Si6 1.603480 1_555
O17 Zn3 1.953312 1_555
O18 Si6 1.703998 1_555
O18 Ti2 1.844547 1_554
O19 Si5 1.671852 1_555
O19 Ti2 1.941331 1_554
O20 S4 1.501249 1_555
O20 Ti2 2.045515 1_554
O21 Si4 1.759933 1_555
O21 Ti3 1.794429 1_555
O22 S3 1.541874 1_555
O22 Ti3 1.910755 1_555
O23 Si3 1.710227 1_555
O23 Ti3 1.878490 1_555
O24 S5 1.457186 1_555
O24 Zn4 2.321941 1_556
O25 S6 1.475301 1_555
O25 Zn4 1.976952 1_556
O26 Si7 1.606196 1_555
O26 Zn4 1.932120 1_556
O27 S7 1.448715 1_555
O27 Zn5 2.405509 1_555
O28 Si8 1.594030 1_555
O28 Zn5 1.944900 1_555
O29 S8 1.463730 1_555
O29 Zn5 2.053242 1_555
O30 S8 1.534259 1_555
O30 Ti4 2.098036 1_555
O31 S7 1.539806 1_555
O31 Ti4 1.949058 1_555
O32 Si8 1.717263 1_555
O32 Ti4 1.834106 1_555
O33 S6 1.494022 1_555
O33 Ti5 2.404070 1_555
O34 Si7 1.679287 1_555
O34 Ti5 1.886975 1_555
O35 S5 1.501873 1_555
O35 Ti5 2.057485 1_555
O36 S8 1.473637 1_555
O36 Zn0 2.193365 1_565
O37 S7 1.467666 1_555
O37 Zn0 2.295380 1_665
O38 Si8 1.646069 1_555
O38 Zn0 2.037834 1_555
O39 S6 1.471182 1_555
O39 Zn1 2.285859 1_555
O40 Si7 1.642026 1_555
O40 Zn1 2.100529 1_565
O41 S5 1.465677 1_555
O41 Zn1 2.448700 1_665
O42 Si3 1.711111 1_555
O42 Ti0 1.912063 1_655
O43 Si4 1.646360 1_555
O43 Ti0 2.045250 1_555
O44 S3 1.473480 1_555
O44 Ti0 2.325236 1_665
O45 Si5 1.748465 1_555
O45 Ti1 1.840334 1_655
O46 S4 1.493550 1_555
O46 Ti1 2.180223 1_645
O47 Si6 1.692836 1_555
O47 Ti1 1.861560 1_545
O48 Si2 1.614093 1_555
O48 Zn2 2.060147 1_555
O49 Si1 1.596475 1_555
O49 Zn2 2.038321 1_555
O50 S2 1.460518 1_655
O50 Zn2 2.316995 1_555
O51 S0 1.485731 1_555
O51 Zn3 2.413308 1_555
O52 S1 1.462551 1_555
O52 Zn3 2.313264 1_555
O53 Si0 1.610256 1_555
O53 Zn3 2.083698 1_555
O54 S5 1.546143 1_555
O54 Ti2 2.140168 1_555
O55 S6 1.509793 1_655
O55 Ti2 2.243140 1_555
O56 Si7 1.693681 1_545
O56 Ti2 1.908923 1_555
O57 S7 1.515284 1_545
O57 Ti3 2.348084 1_555
O58 Si8 1.667202 1_555
O58 Ti3 1.994155 1_555
O59 S8 1.488406 1_655
O59 Ti3 2.450651 1_555
O60 Si6 1.599564 1_555
O60 Zn4 2.000525 1_555
O61 Si5 1.602785 1_455
O61 Zn4 2.057348 1_555
O62 S4 1.476717 1_565
O62 Zn4 2.348616 1_555
O63 Si4 1.607061 1_565
O63 Zn5 1.953317 1_555
O64 S3 1.474510 1_555
O64 Zn5 2.256889 1_555
O65 Si3 1.607063 1_455
O65 Zn5 1.985836 1_555
O66 Si0 1.675611 1_565
O66 Ti4 1.946212 1_555
O67 S0 1.528508 1_555
O67 Ti4 2.076414 1_555
O68 S1 1.542410 1_455
O68 Ti4 2.186316 1_555
O69 Si1 1.664507 1_555
O69 Ti5 1.933481 1_555
O70 S2 1.543473 1_555
O70 Ti5 2.080604 1_555
O71 Si2 1.706585 1_565
O71 Ti5 1.809197 1_555
