# generated using pymatgen
data_Hg3(SBr)2
_symmetry_space_group_name_H-M   'P 1'
_cell_length_a   10.31746673
_cell_length_b   10.31746673
_cell_length_c   10.47915111
_cell_angle_alpha   67.11992443
_cell_angle_beta   67.11992443
_cell_angle_gamma   54.13464691
_symmetry_Int_Tables_number   1
_chemical_formula_structural   Hg3(SBr)2
_chemical_formula_sum   'Hg12 S8 Br8'
_cell_volume   813.27946162
_cell_formula_units_Z   4
loop_
 _symmetry_equiv_pos_site_id
 _symmetry_equiv_pos_as_xyz
  1  'x, y, z'
loop_
 _atom_site_type_symbol
 _atom_site_label
 _atom_site_symmetry_multiplicity
 _atom_site_fract_x
 _atom_site_fract_y
 _atom_site_fract_z
 _atom_site_occupancy
  Hg  Hg0  1  0.33958614  0.80383542  0.70902378  1
  Hg  Hg1  1  0.19616458  0.66041386  0.29097622  1
  Hg  Hg2  1  0.66041386  0.19616458  0.29097622  1
  Hg  Hg3  1  0.80383542  0.33958614  0.70902378  1
  Hg  Hg4  1  0.39576702  0.86686049  0.99596902  1
  Hg  Hg5  1  0.13313951  0.60423298  0.00403098  1
  Hg  Hg6  1  0.60423298  0.13313951  0.00403098  1
  Hg  Hg7  1  0.86686049  0.39576702  0.99596902  1
  Hg  Hg8  1  0.78526954  0.78526954  0.28265821  1
  Hg  Hg9  1  0.21473046  0.21473046  0.71734179  1
  Hg  Hg10  1  0.92472208  0.92472208  0.72898168  1
  Hg  Hg11  1  0.07527792  0.07527792  0.27101832  1
  S  S0  1  0.32581867  0.81210893  0.25164645  1
  S  S1  1  0.18789107  0.67418133  0.74835355  1
  S  S2  1  0.67418133  0.18789107  0.74835355  1
  S  S3  1  0.81210893  0.32581867  0.25164645  1
  S  S4  1  0.45207128  0.93871292  0.74019346  1
  S  S5  1  0.06128708  0.54792872  0.25980654  1
  S  S6  1  0.54792872  0.06128708  0.25980654  1
  S  S7  1  0.93871292  0.45207128  0.74019346  1
  Br  Br0  1  0.24949903  0.24949903  0.99706757  1
  Br  Br1  1  0.75050097  0.75050097  0.00293243  1
  Br  Br2  1  0.88233082  0.88233082  0.48549142  1
  Br  Br3  1  0.11766918  0.11766918  0.51450858  1
  Br  Br4  1  0.00000000  -0.00000000  0.00000000  1
  Br  Br5  1  0.50000000  0.50000000  0.00000000  1
  Br  Br6  1  0.61956983  0.61956983  0.50303093  1
  Br  Br7  1  0.38043017  0.38043017  0.49696907  1
loop_
_geom_bond_atom_site_label_1
_geom_bond_atom_site_label_2
_geom_bond_distance
_geom_bond_site_symmetry_2
Hg0 S4 2.435321 1_555
Hg0 S1 2.435535 1_555
Hg1 S5 2.435321 1_555
Hg1 S0 2.435535 1_555
Hg2 S6 2.435321 1_555
Hg2 S3 2.435535 1_555
Hg3 S7 2.435321 1_555
Hg3 S2 2.435535 1_555
Hg4 S0 2.411575 1_556
Hg4 S4 2.412438 1_555
Hg5 S1 2.411575 1_554
Hg5 S5 2.412438 1_555
Hg6 S2 2.411575 1_554
Hg6 S6 2.412438 1_555
Hg7 S3 2.411575 1_556
Hg7 S7 2.412438 1_555
Hg8 S5 2.432701 1_655
Hg8 S6 2.432701 1_565
Hg9 S7 2.432701 1_455
Hg9 S4 2.432701 1_545
Hg10 S2 2.427328 1_565
Hg10 S1 2.427328 1_655
Hg11 S3 2.427328 1_455
Hg11 S0 2.427328 1_545
Br0 Hg5 3.135732 1_556
Br0 Hg6 3.135732 1_556
Br0 Hg11 3.234846 1_556
Br0 Hg9 3.261280 1_555
Br0 Hg7 3.302103 1_455
Br0 Hg4 3.302103 1_545
Br1 Hg7 3.135732 1_554
Br1 Hg4 3.135732 1_554
Br1 Hg10 3.234846 1_554
Br1 Hg8 3.261280 1_555
Br1 Hg5 3.302103 1_655
Br1 Hg6 3.302103 1_565
Br2 Hg10 2.975373 1_555
Br2 Hg2 3.113100 1_565
Br2 Hg1 3.113100 1_655
Br3 Hg11 2.975373 1_555
Br3 Hg3 3.113100 1_455
Br3 Hg0 3.113100 1_545
Br5 Hg4 3.259809 1_554
Br5 Hg6 3.259809 1_555
Br5 Hg5 3.259809 1_555
Br5 Hg7 3.259809 1_554
Br6 Hg8 2.909154 1_555
Br6 Hg0 2.919909 1_555
Br6 Hg3 2.919909 1_555
Br7 Hg9 2.909154 1_555
Br7 Hg2 2.919909 1_555
Br7 Hg1 2.919909 1_555
