# generated using pymatgen
data_Na4Nb2Zn2Si3(SO8)3
_symmetry_space_group_name_H-M   'P 1'
_cell_length_a   9.02209178
_cell_length_b   9.00988239
_cell_length_c   22.74260415
_cell_angle_alpha   89.10429107
_cell_angle_beta   90.84197252
_cell_angle_gamma   120.64826209
_symmetry_Int_Tables_number   1
_chemical_formula_structural   Na4Nb2Zn2Si3(SO8)3
_chemical_formula_sum   'Na12 Nb6 Zn6 Si9 S9 O72'
_cell_volume   1590.21799525
_cell_formula_units_Z   3
loop_
 _symmetry_equiv_pos_site_id
 _symmetry_equiv_pos_as_xyz
  1  'x, y, z'
loop_
 _atom_site_type_symbol
 _atom_site_label
 _atom_site_symmetry_multiplicity
 _atom_site_fract_x
 _atom_site_fract_y
 _atom_site_fract_z
 _atom_site_occupancy
  Na  Na0  1  0.37216811  0.35158830  0.24469915  1
  Na  Na1  1  0.64346454  0.62649917  0.74562144  1
  Na  Na2  1  0.02862085  0.68316122  0.58917030  1
  Na  Na3  1  0.32004751  0.96532144  0.07838067  1
  Na  Na4  1  0.70437909  0.02588590  0.90734223  1
  Na  Na5  1  0.98478637  0.30208720  0.42138190  1
  Na  Na6  1  0.01095767  0.01433972  0.49814514  1
  Na  Na7  1  0.01055250  0.00129191  0.98817594  1
  Na  Na8  1  0.67899489  0.33430983  0.81965548  1
  Na  Na9  1  0.64988699  0.32010063  0.32766278  1
  Na  Na10  1  0.34736866  0.66823978  0.15357787  1
  Na  Na11  1  0.33254969  0.65110788  0.65560643  1
  Nb  Nb0  1  0.98185877  0.99528574  0.64812086  1
  Nb  Nb1  1  0.00930163  0.00113570  0.14177124  1
  Nb  Nb2  1  0.65143991  0.31575451  0.98058112  1
  Nb  Nb3  1  0.66069681  0.34081972  0.48595158  1
  Nb  Nb4  1  0.34175792  0.67209232  0.31349691  1
  Nb  Nb5  1  0.32970165  0.68197396  0.81001322  1
  Zn  Zn0  1  0.02675843  0.00810772  0.35078734  1
  Zn  Zn1  1  0.00817674  0.99366693  0.84616374  1
  Zn  Zn2  1  0.69571978  0.34223671  0.68615205  1
  Zn  Zn3  1  0.63622859  0.30513433  0.17992461  1
  Zn  Zn4  1  0.34598606  0.67322979  0.01767992  1
  Zn  Zn5  1  0.33850286  0.62527382  0.52343548  1
  Si  Si0  1  0.29737834  0.00183605  0.25145517  1
  Si  Si1  1  0.99352286  0.70907878  0.75077413  1
  Si  Si2  1  0.71344052  0.01293147  0.75670031  1
  Si  Si3  1  0.96225127  0.33522336  0.58288902  1
  Si  Si4  1  0.66022085  0.62616153  0.59099878  1
  Si  Si5  1  0.66578793  0.03627784  0.08621220  1
  Si  Si6  1  0.38135242  0.35189804  0.08618524  1
  Si  Si7  1  0.31453507  0.95028490  0.92019139  1
  Si  Si8  1  0.33058466  0.36474348  0.41653726  1
  S  S0  1  0.71474032  0.71601659  0.25294147  1
  S  S1  1  0.99788332  0.29076291  0.25086492  1
  S  S2  1  0.28807946  0.29196323  0.75162379  1
  S  S3  1  0.37282437  0.04180876  0.58510795  1
  S  S4  1  0.94915610  0.61825314  0.08639192  1
  S  S5  1  0.62393508  0.66184788  0.91763309  1
  S  S6  1  0.04284619  0.38076776  0.91882280  1
  S  S7  1  0.62453890  0.95896261  0.41803488  1
  S  S8  1  0.04233759  0.66677858  0.41745105  1
  O  O0  1  0.20680529  0.03367217  0.30465155  1
  O  O1  1  0.80861672  0.80179301  0.30640428  1
  O  O2  1  0.97165117  0.19349251  0.30578681  1
  O  O3  1  0.21060000  0.19484344  0.80507194  1
  O  O4  1  0.96574205  0.79429578  0.80625724  1
  O  O5  1  0.81731945  0.02917870  0.81588627  1
  O  O6  1  0.80684565  0.97015619  0.69814685  1
  O  O7  1  0.17716952  0.21003824  0.69791410  1
  O  O8  1  0.03546517  0.83414427  0.68994196  1
  O  O9  1  0.79218646  0.82081053  0.19876296  1
  O  O10  1  0.02729754  0.20275665  0.19993772  1
  O  O11  1  0.17049926  0.97141432  0.19161603  1
  O  O12  1  0.87147714  0.36616346  0.63582604  1
  O  O13  1  0.47505011  0.12198445  0.63682531  1
  O  O14  1  0.63619641  0.51255075  0.64755198  1
  O  O15  1  0.86844850  0.52224711  0.13962758  1
  O  O16  1  0.63851551  0.12668663  0.14026425  1
  O  O17  1  0.47788189  0.37335813  0.14757666  1
  O  O18  1  0.47798988  0.30430999  0.03064599  1
  O  O19  1  0.84518440  0.54128380  0.03202049  1
  O  O20  1  0.69970814  0.16474287  0.02490677  1
  O  O21  1  0.46521884  0.15924390  0.52977434  1
  O  O22  1  0.69274099  0.52413352  0.53133915  1
  O  O23  1  0.83512772  0.30054252  0.52049311  1
  O  O24  1  0.53766816  0.67957572  0.96861829  1
  O  O25  1  0.14340946  0.46098006  0.97135655  1
  O  O26  1  0.30869079  0.85067732  0.97933914  1
  O  O27  1  0.53829121  0.85871925  0.46913260  1
  O  O28  1  0.29239224  0.45928498  0.46688960  1
  O  O29  1  0.14086810  0.69234272  0.47106354  1
  O  O30  1  0.13592208  0.64360369  0.36519951  1
  O  O31  1  0.51173335  0.86866004  0.36214951  1
  O  O32  1  0.35920382  0.49510701  0.35643568  1
  O  O33  1  0.13042076  0.48520566  0.86446611  1
  O  O34  1  0.35860885  0.85652243  0.86277023  1
  O  O35  1  0.51950090  0.63242098  0.86246553  1
  O  O36  1  0.00613035  0.80550226  0.40722763  1
  O  O37  1  0.79551775  0.98000160  0.40900112  1
  O  O38  1  0.15398150  0.17983747  0.41112403  1
  O  O39  1  0.00671588  0.20271263  0.91376814  1
  O  O40  1  0.16627034  0.99454615  0.91136870  1
  O  O41  1  0.79482656  0.81935956  0.91367889  1
  O  O42  1  0.98437731  0.16294634  0.58978628  1
  O  O43  1  0.20198088  0.03291320  0.58423642  1
  O  O44  1  0.85356781  0.81300183  0.58981763  1
  O  O45  1  0.96444448  0.79984482  0.08908731  1
  O  O46  1  0.84243129  0.02305722  0.09398295  1
  O  O47  1  0.19063488  0.15459684  0.09090814  1
  O  O48  1  0.66436223  0.15551138  0.74426471  1
  O  O49  1  0.46085732  0.31907064  0.74463784  1
  O  O50  1  0.82724284  0.52147571  0.74603916  1
  O  O51  1  0.68603681  0.54152972  0.24836371  1
  O  O52  1  0.85999254  0.32723397  0.24077593  1
  O  O53  1  0.48686081  0.17135210  0.24728613  1
  O  O54  1  0.64443620  0.50612482  0.92463431  1
  O  O55  1  0.86709494  0.36994011  0.92093474  1
  O  O56  1  0.51078089  0.14552029  0.92378771  1
  O  O57  1  0.64315269  0.13492978  0.41670236  1
  O  O58  1  0.50883250  0.35216189  0.42296339  1
  O  O59  1  0.87092703  0.49484161  0.41849798  1
  O  O60  1  0.33260642  0.49430822  0.07340816  1
  O  O61  1  0.12658720  0.65622661  0.08090733  1
  O  O62  1  0.49683553  0.85162112  0.07776734  1
  O  O63  1  0.34643230  0.87157065  0.57351708  1
  O  O64  1  0.51631829  0.67487804  0.58016828  1
  O  O65  1  0.14207410  0.51363684  0.57506235  1
  O  O66  1  0.30724698  0.82114313  0.25976686  1
  O  O67  1  0.53132080  0.69530156  0.25590989  1
  O  O68  1  0.17084406  0.46481089  0.25481030  1
  O  O69  1  0.30616643  0.47025287  0.75556150  1
  O  O70  1  0.17211952  0.69152829  0.75832467  1
  O  O71  1  0.52422376  0.81552599  0.76049258  1
loop_
_geom_bond_atom_site_label_1
_geom_bond_atom_site_label_2
_geom_bond_distance
_geom_bond_site_symmetry_2
Na0 O53 2.328023 1_555
Na0 O17 2.384250 1_555
Na0 O51 2.451781 1_555
Na0 O68 2.510263 1_555
Na0 O67 2.682804 1_555
Na0 O0 2.805418 1_555
Na0 O10 2.865552 1_555
Na0 O32 2.899831 1_555
Na1 O50 2.289869 1_555
Na1 O49 2.394868 1_555
Na1 O14 2.455906 1_555
Na1 O71 2.463536 1_555
Na1 O69 2.633657 1_555
Na1 O4 2.847316 1_555
Na1 O6 2.866128 1_555
Na1 O35 2.909941 1_555
Na2 O65 2.258880 1_555
Na2 O44 2.397498 1_455
Na2 O63 2.505706 1_555
Na2 O12 2.667281 1_455
Na2 O8 2.667283 1_555
Na2 O43 2.712603 1_565
Na2 O29 2.869650 1_555
Na2 O22 2.912182 1_455
Na3 O62 2.293608 1_555
Na3 O61 2.418195 1_555
Na3 O26 2.471656 1_554
Na3 O47 2.531322 1_565
Na3 O45 2.776706 1_455
Na3 O16 2.834829 1_565
Na3 O18 2.835859 1_565
Na3 O11 2.938964 1_555
Na4 O5 2.322686 1_555
Na4 O39 2.359011 1_655
Na4 O41 2.384412 1_545
Na4 O56 2.510747 1_555
Na4 O55 2.690164 1_555
Na5 O38 2.308792 1_655
Na5 O59 2.426721 1_555
Na5 O37 2.525027 1_545
Na5 O28 2.594825 1_655
Na5 O23 2.640712 1_555
Na5 O57 2.653762 1_555
Na5 O2 2.799232 1_555
Na5 O30 2.934382 1_655
Na6 O38 2.413790 1_555
Na6 O43 2.539444 1_555
Na6 O42 2.573567 1_455
Na6 O44 2.645053 1_445
Na6 O37 2.697161 1_445
Na6 O36 2.802347 1_545
Na7 O40 2.278429 1_545
Na7 O41 2.466329 1_445
Na7 O39 2.474784 1_555
Na7 O47 2.776272 1_556
Na7 O45 2.803987 1_446
Na7 O46 2.924867 1_456
Na8 O50 2.261349 1_555
Na8 O48 2.327073 1_555
Na8 O49 2.536929 1_555
Na8 O55 2.764289 1_555
Na8 O56 2.855327 1_555
Na8 O54 2.970397 1_555
Na9 O53 2.299751 1_555
Na9 O51 2.565248 1_555
Na9 O57 2.585030 1_555
Na9 O58 2.622205 1_555
Na9 O52 2.735692 1_555
Na9 O59 2.739148 1_555
Na10 O62 2.286631 1_555
Na10 O60 2.380600 1_555
Na10 O61 2.529808 1_555
Na10 O67 2.778814 1_555
Na10 O68 2.862889 1_555
Na10 O66 2.915365 1_555
Na11 O64 2.334167 1_555
Na11 O65 2.377200 1_555
Na11 O63 2.661567 1_555
Na11 O69 2.717376 1_555
Na11 O71 2.872715 1_555
Na11 O70 2.889343 1_555
Nb0 O6 1.875932 1_555
Nb0 O44 1.969802 1_555
Nb0 O8 1.976274 1_655
Nb0 O42 1.986391 1_565
Nb0 O7 2.159864 1_665
Nb0 O43 2.356451 1_665
Nb1 O47 1.904141 1_555
Nb1 O46 1.932657 1_455
Nb1 O11 1.952173 1_545
Nb1 O45 2.047912 1_445
Nb1 O10 2.200999 1_555
Nb1 O9 2.218280 1_445
Nb2 O20 1.898788 1_556
Nb2 O18 1.907903 1_556
Nb2 O56 1.913266 1_555
Nb2 O54 2.145879 1_555
Nb2 O19 2.223955 1_556
Nb2 O55 2.225420 1_555
Nb3 O22 1.853292 1_555
Nb3 O23 1.939701 1_555
Nb3 O21 1.959377 1_555
Nb3 O58 2.005069 1_555
Nb3 O59 2.283003 1_555
Nb3 O57 2.393999 1_555
Nb4 O32 1.929740 1_555
Nb4 O66 1.938405 1_555
Nb4 O31 1.988730 1_555
Nb4 O67 2.092032 1_555
Nb4 O30 2.113286 1_555
Nb4 O68 2.174488 1_555
Nb5 O70 1.866299 1_555
Nb5 O34 1.900660 1_555
Nb5 O71 1.912854 1_555
Nb5 O33 2.157841 1_555
Nb5 O69 2.206965 1_555
Nb5 O35 2.292899 1_555
O0 Si0 1.578789 1_555
O0 Zn0 1.858419 1_555
O1 S0 1.457655 1_555
O1 Zn0 2.148964 1_665
O2 S1 1.465348 1_555
O2 Zn0 2.205164 1_655
O3 S2 1.449133 1_555
O3 Zn1 2.028881 1_545
O4 Si1 1.574907 1_555
O4 Zn1 1.880588 1_655
O5 Si2 1.593997 1_555
O5 Zn1 2.015328 1_645
O6 Si2 1.735557 1_565
O7 S2 1.509110 1_555
O8 Si1 1.690819 1_455
O9 S0 1.488031 1_555
O10 S1 1.514234 1_455
O11 Si0 1.698096 1_565
O12 Si3 1.571654 1_555
O12 Zn2 1.888916 1_555
O13 S3 1.439198 1_555
O13 Zn2 2.266308 1_555
O14 Si4 1.577920 1_555
O14 Zn2 2.048892 1_555
O15 S4 1.447509 1_555
O15 Zn3 2.208598 1_555
O16 Si5 1.574723 1_555
O16 Zn3 1.865127 1_555
O17 Si6 1.595697 1_555
O17 Zn3 1.951997 1_555
O18 Si6 1.723329 1_555
O19 S4 1.489762 1_555
O20 Si5 1.725754 1_555
O21 S3 1.577345 1_555
O22 Si4 1.760041 1_555
O23 Si3 1.739944 1_555
O24 S5 1.461115 1_555
O24 Zn4 2.047655 1_556
O25 S6 1.448980 1_555
O25 Zn4 2.133148 1_556
O26 Si7 1.591788 1_555
O26 Zn4 1.981391 1_556
O27 S7 1.431409 1_555
O27 Zn5 2.305881 1_555
O28 Si8 1.580190 1_555
O28 Zn5 1.863758 1_555
O29 S8 1.448490 1_555
O29 Zn5 2.444749 1_555
O30 S8 1.544545 1_555
O31 S7 1.569473 1_555
O32 Si8 1.722081 1_555
O33 S6 1.507404 1_555
O34 Si7 1.723198 1_555
O35 S5 1.501062 1_555
O36 S8 1.458743 1_555
O36 Zn0 2.145211 1_565
O37 S7 1.472308 1_555
O37 Zn0 2.387787 1_665
O38 Si8 1.619781 1_555
O38 Zn0 1.950361 1_555
O39 S6 1.471264 1_555
O39 Zn1 2.455200 1_545
O40 Si7 1.588110 1_555
O40 Zn1 2.039672 1_555
O41 S5 1.472595 1_555
O41 Zn1 2.336376 1_655
O42 Si3 1.667675 1_555
O43 S3 1.501941 1_555
O44 Si4 1.698109 1_555
O45 S4 1.572411 1_555
O46 Si5 1.664297 1_555
O47 Si6 1.735878 1_555
O48 Si2 1.578356 1_555
O48 Zn2 2.028139 1_555
O49 S2 1.460383 1_555
O49 Zn2 2.434332 1_555
O50 Si1 1.592135 1_555
O50 Zn2 1.984588 1_555
O51 S0 1.462420 1_555
O51 Zn3 2.503658 1_555
O52 S1 1.454083 1_555
O52 Zn3 2.355245 1_555
O53 Si0 1.613203 1_555
O53 Zn3 1.990668 1_555
O54 S5 1.511567 1_555
O55 S6 1.539634 1_655
O56 Si7 1.749488 1_545
O57 S7 1.506634 1_545
O58 Si8 1.672976 1_555
O59 S8 1.532780 1_655
O60 Si6 1.576104 1_555
O60 Zn4 1.990441 1_555
O61 S4 1.463325 1_455
O61 Zn4 2.403530 1_555
O62 Si5 1.595060 1_565
O62 Zn4 2.021602 1_555
O63 S3 1.455076 1_565
O63 Zn5 2.478227 1_555
O64 Si4 1.583393 1_555
O64 Zn5 1.914253 1_555
O65 Si3 1.608867 1_455
O65 Zn5 1.933351 1_555
O66 Si0 1.682790 1_565
O67 S0 1.570301 1_555
O68 S1 1.551660 1_455
O69 S2 1.533586 1_555
O70 Si1 1.703414 1_455
O71 Si2 1.728894 1_565
