# generated using pymatgen
data_Nd2ScSi2
_symmetry_space_group_name_H-M   'P 1'
_cell_length_a   7.39113405
_cell_length_b   7.39141135
_cell_length_c   4.43158823
_cell_angle_alpha   90.00019533
_cell_angle_beta   90.00011335
_cell_angle_gamma   90.00164145
_symmetry_Int_Tables_number   1
_chemical_formula_structural   Nd2ScSi2
_chemical_formula_sum   'Nd4 Sc2 Si4'
_cell_volume   242.10170704
_cell_formula_units_Z   2
loop_
 _symmetry_equiv_pos_site_id
 _symmetry_equiv_pos_as_xyz
  1  'x, y, z'
loop_
 _atom_site_type_symbol
 _atom_site_label
 _atom_site_symmetry_multiplicity
 _atom_site_fract_x
 _atom_site_fract_y
 _atom_site_fract_z
 _atom_site_occupancy
  Nd  Nd0  1  0.67732661  0.17718847  0.50000039  1
  Nd  Nd1  1  0.17732057  0.32282503  0.50000888  1
  Nd  Nd2  1  0.82267957  0.67717507  0.49999069  1
  Nd  Nd3  1  0.32267693  0.82281319  0.50000043  1
  Sc  Sc0  1  0.00000354  0.00000187  0.99999445  1
  Sc  Sc1  1  0.49999323  0.49999805  0.00000287  1
  Si  Si0  1  0.38246038  0.11761599  0.00001182  1
  Si  Si1  1  0.88246488  0.38241252  0.00000036  1
  Si  Si2  1  0.11753449  0.61758846  0.00000041  1
  Si  Si3  1  0.61754281  0.88238337  0.99998870  1
loop_
_geom_bond_atom_site_label_1
_geom_bond_atom_site_label_2
_geom_bond_distance
_geom_bond_site_symmetry_2
Nd0 Si1 3.083735 1_556
Nd0 Si1 3.083747 1_555
Nd0 Si3 3.138933 1_545
Nd0 Si0 3.138963 1_555
Nd0 Si3 3.138994 1_544
Nd0 Si0 3.139043 1_556
Nd1 Si0 3.083724 1_555
Nd1 Si0 3.083746 1_556
Nd1 Si2 3.138738 1_556
Nd1 Si2 3.138801 1_555
Nd1 Si1 3.138957 1_456
Nd1 Si1 3.139007 1_455
Nd2 Si3 3.083713 1_555
Nd2 Si3 3.083729 1_554
Nd2 Si1 3.138729 1_555
Nd2 Si1 3.138799 1_556
Nd2 Si2 3.138949 1_655
Nd2 Si2 3.139006 1_656
Nd3 Si2 3.083753 1_555
Nd3 Si2 3.083765 1_556
Nd3 Si0 3.138921 1_565
Nd3 Si3 3.138958 1_555
Nd3 Si0 3.138981 1_566
Nd3 Si3 3.139040 1_554
Sc0 Si1 2.957071 1_456
Sc0 Si2 2.957073 1_546
Sc0 Si0 2.957421 1_556
Sc0 Si3 2.957458 1_445
Sc1 Si0 2.956808 1_555
Sc1 Si3 2.956868 1_554
Sc1 Si2 2.957431 1_555
Sc1 Si1 2.957512 1_555
Si0 Si3 2.458099 1_544
Si1 Si2 2.457665 1_655
