# generated using pymatgen
data_NdBrO
_symmetry_space_group_name_H-M   'P 1'
_cell_length_a   4.02843134
_cell_length_b   4.02843134
_cell_length_c   7.89926955
_cell_angle_alpha   90.00000000
_cell_angle_beta   90.00000000
_cell_angle_gamma   90.00000000
_symmetry_Int_Tables_number   1
_chemical_formula_structural   NdBrO
_chemical_formula_sum   'Nd2 Br2 O2'
_cell_volume   128.19139265
_cell_formula_units_Z   2
loop_
 _symmetry_equiv_pos_site_id
 _symmetry_equiv_pos_as_xyz
  1  'x, y, z'
loop_
 _atom_site_type_symbol
 _atom_site_label
 _atom_site_symmetry_multiplicity
 _atom_site_fract_x
 _atom_site_fract_y
 _atom_site_fract_z
 _atom_site_occupancy
  Nd  Nd0  1  0.75000000  0.75000000  0.84947640  1
  Nd  Nd1  1  0.25000000  0.25000000  0.15052360  1
  Br  Br0  1  0.25000000  0.25000000  0.65024439  1
  Br  Br1  1  0.75000000  0.75000000  0.34975561  1
  O  O0  1  0.75000000  0.25000000  -0.00000000  1
  O  O1  1  0.25000000  0.75000000  0.00000000  1
loop_
_geom_bond_atom_site_label_1
_geom_bond_atom_site_label_2
_geom_bond_distance
_geom_bond_site_symmetry_2
Nd0 O1 2.338985 1_556
Nd0 O0 2.338985 1_566
Nd0 O1 2.338985 1_656
Nd0 O0 2.338985 1_556
Nd1 O1 2.338985 1_555
Nd1 O0 2.338985 1_455
Nd1 O1 2.338985 1_545
Nd1 O0 2.338985 1_555
Br0 Nd0 3.254372 1_455
Br0 Nd0 3.254372 1_555
Br0 Nd0 3.254372 1_545
Br0 Nd0 3.254372 1_445
Br1 Nd1 3.254372 1_655
Br1 Nd1 3.254372 1_565
Br1 Nd1 3.254372 1_665
Br1 Nd1 3.254372 1_555
