# generated using pymatgen
data_Na2Al2In2SiS5O24
_symmetry_space_group_name_H-M   'P 1'
_cell_length_a   8.64001512
_cell_length_b   8.64171073
_cell_length_c   22.68547589
_cell_angle_alpha   89.33790049
_cell_angle_beta   90.41872972
_cell_angle_gamma   119.76630911
_symmetry_Int_Tables_number   1
_chemical_formula_structural   Na2Al2In2SiS5O24
_chemical_formula_sum   'Na6 Al6 In6 Si3 S15 O72'
_cell_volume   1470.21524574
_cell_formula_units_Z   3
loop_
 _symmetry_equiv_pos_site_id
 _symmetry_equiv_pos_as_xyz
  1  'x, y, z'
loop_
 _atom_site_type_symbol
 _atom_site_label
 _atom_site_symmetry_multiplicity
 _atom_site_fract_x
 _atom_site_fract_y
 _atom_site_fract_z
 _atom_site_occupancy
  Na  Na0  1  0.99041284  0.98547384  0.50211473  1
  Na  Na1  1  0.00003640  0.99971907  0.00015102  1
  Na  Na2  1  0.66904948  0.32517622  0.83323824  1
  Na  Na3  1  0.63814396  0.31200009  0.32637815  1
  Na  Na4  1  0.32814620  0.68170727  0.17202719  1
  Na  Na5  1  0.37729143  0.68649544  0.66886709  1
  Al  Al0  1  0.99069789  0.00015610  0.84523603  1
  Al  Al1  1  0.00454974  0.99450405  0.15556796  1
  Al  Al2  1  0.66035599  0.32663269  0.18314588  1
  Al  Al3  1  0.66748024  0.33098674  0.98649769  1
  Al  Al4  1  0.33409728  0.66719461  0.01881267  1
  Al  Al5  1  0.33365341  0.68245418  0.31271811  1
  In  In0  1  0.01320669  0.00065660  0.34329900  1
  In  In1  1  0.97764137  0.98699166  0.64761849  1
  In  In2  1  0.66770455  0.33009252  0.68877011  1
  In  In3  1  0.66407175  0.33716050  0.47948562  1
  In  In4  1  0.34777473  0.66929499  0.52053462  1
  In  In5  1  0.34267778  0.67027820  0.81910733  1
  Si  Si0  1  0.30486531  0.00154391  0.24550528  1
  Si  Si1  1  0.70629759  0.00534348  0.75578369  1
  Si  Si2  1  0.67027493  0.62639935  0.58231524  1
  S  S0  1  0.70392008  0.69945141  0.24357590  1
  S  S1  1  0.99610929  0.29372747  0.24287472  1
  S  S2  1  0.28237040  0.28229629  0.75659102  1
  S  S3  1  0.99839633  0.71225807  0.75881645  1
  S  S4  1  0.96570912  0.33366361  0.58053812  1
  S  S5  1  0.36519088  0.03531282  0.58222835  1
  S  S6  1  0.95303000  0.61863439  0.08253240  1
  S  S7  1  0.66744732  0.04273822  0.08266975  1
  S  S8  1  0.37961282  0.33782807  0.08221614  1
  S  S9  1  0.62933186  0.65874090  0.92555840  1
  S  S10  1  0.03764437  0.37587510  0.92465880  1
  S  S11  1  0.33771479  0.96843886  0.92501683  1
  S  S12  1  0.62840003  0.96145180  0.40939554  1
  S  S13  1  0.33114580  0.38382201  0.40754173  1
  S  S14  1  0.04487934  0.66108228  0.41160982  1
  O  O0  1  0.24444677  0.05887286  0.30536633  1
  O  O1  1  0.80764029  0.76295857  0.29877894  1
  O  O2  1  0.94118715  0.18293063  0.29723226  1
  O  O3  1  0.19058356  0.17545645  0.81142051  1
  O  O4  1  0.00270970  0.81659039  0.81248899  1
  O  O5  1  0.81322329  0.01108644  0.81695131  1
  O  O6  1  0.78507106  0.98582614  0.69465918  1
  O  O7  1  0.19488582  0.19655889  0.70164765  1
  O  O8  1  0.03371272  0.81329967  0.70359424  1
  O  O9  1  0.79024207  0.82862448  0.19333502  1
  O  O10  1  0.02140571  0.19745500  0.19258255  1
  O  O11  1  0.16413519  0.96205841  0.19089701  1
  O  O12  1  0.87458971  0.33307195  0.63450662  1
  O  O13  1  0.47942239  0.11280325  0.63401978  1
  O  O14  1  0.65398779  0.51750696  0.64251978  1
  O  O15  1  0.86973485  0.50396509  0.13469549  1
  O  O16  1  0.63577664  0.12614122  0.13390835  1
  O  O17  1  0.49453206  0.37166012  0.13456448  1
  O  O18  1  0.46345222  0.30574211  0.03021022  1
  O  O19  1  0.84224455  0.53299683  0.02945376  1
  O  O20  1  0.69779721  0.15590001  0.02902989  1
  O  O21  1  0.44726621  0.12255770  0.52483189  1
  O  O22  1  0.67774791  0.54653564  0.51800894  1
  O  O23  1  0.85711312  0.29902634  0.52568054  1
  O  O24  1  0.53379175  0.68966733  0.97503675  1
  O  O25  1  0.15729710  0.47135803  0.97591773  1
  O  O26  1  0.30943581  0.84495622  0.97631985  1
  O  O27  1  0.55563836  0.87046108  0.46587055  1
  O  O28  1  0.32324815  0.46250991  0.46336086  1
  O  O29  1  0.14122771  0.67513921  0.46660873  1
  O  O30  1  0.14585243  0.66331709  0.35845421  1
  O  O31  1  0.51881297  0.86203470  0.35770214  1
  O  O32  1  0.33816626  0.49349660  0.35496928  1
  O  O33  1  0.10531007  0.48368012  0.87036926  1
  O  O34  1  0.37860460  0.90395296  0.87108042  1
  O  O35  1  0.52326460  0.61424899  0.87079434  1
  O  O36  1  0.01498729  0.81674044  0.41012790  1
  O  O37  1  0.80901903  0.98270257  0.40413354  1
  O  O38  1  0.16558556  0.20739571  0.40646967  1
  O  O39  1  0.02625964  0.20021950  0.91976785  1
  O  O40  1  0.17609366  0.98560798  0.91874646  1
  O  O41  1  0.80764571  0.81824261  0.91966435  1
  O  O42  1  0.01525429  0.19325621  0.58192399  1
  O  O43  1  0.19976299  0.04276472  0.58675603  1
  O  O44  1  0.84922801  0.82006418  0.58064747  1
  O  O45  1  0.96720092  0.79710711  0.08869479  1
  O  O46  1  0.82778561  0.02207744  0.09093570  1
  O  O47  1  0.19830545  0.18012830  0.08973604  1
  O  O48  1  0.69569241  0.18847281  0.75541162  1
  O  O49  1  0.46421443  0.31020002  0.75940795  1
  O  O50  1  0.82447805  0.54871594  0.75960314  1
  O  O51  1  0.69339268  0.52694887  0.23001951  1
  O  O52  1  0.85041469  0.33175592  0.22881904  1
  O  O53  1  0.50144679  0.17169396  0.23124990  1
  O  O54  1  0.64953768  0.49952148  0.93767490  1
  O  O55  1  0.85557699  0.35231287  0.93463705  1
  O  O56  1  0.49618083  0.14804373  0.93661200  1
  O  O57  1  0.63814509  0.13850841  0.40952461  1
  O  O58  1  0.49153919  0.36302458  0.40514445  1
  O  O59  1  0.87190128  0.49230096  0.40944046  1
  O  O60  1  0.36183836  0.50148415  0.07274682  1
  O  O61  1  0.13631813  0.64066379  0.07509723  1
  O  O62  1  0.50483829  0.86230001  0.07413120  1
  O  O63  1  0.32293630  0.84750185  0.58018714  1
  O  O64  1  0.49418001  0.64979457  0.58498967  1
  O  O65  1  0.12813852  0.50954779  0.57732337  1
  O  O66  1  0.31980844  0.82044717  0.25680111  1
  O  O67  1  0.52336703  0.67451283  0.25124862  1
  O  O68  1  0.16344404  0.46379407  0.25125572  1
  O  O69  1  0.28278490  0.45365128  0.75929014  1
  O  O70  1  0.14218451  0.66890814  0.76446128  1
  O  O71  1  0.50762338  0.82955777  0.75745330  1
loop_
_geom_bond_atom_site_label_1
_geom_bond_atom_site_label_2
_geom_bond_distance
_geom_bond_site_symmetry_2
Na0 O44 2.224132 1_555
Na0 O42 2.496992 1_665
Na0 O43 2.507139 1_665
Na0 O36 2.628700 1_655
Na0 O37 2.703792 1_555
Na0 O38 2.783199 1_665
Na1 O39 2.433507 1_564
Na1 O40 2.443252 1_554
Na1 O41 2.447404 1_454
Na1 O45 2.571909 1_455
Na1 O46 2.614048 1_465
Na1 O47 2.620271 1_565
Na2 O48 2.211301 1_555
Na2 O49 2.385022 1_555
Na2 O50 2.389119 1_555
Na2 O55 2.743458 1_555
Na2 O56 2.787736 1_555
Na2 O54 2.872630 1_555
Na3 O58 2.365919 1_555
Na3 O57 2.395886 1_555
Na3 O53 2.474561 1_555
Na3 O59 2.635336 1_555
Na3 O51 2.738174 1_555
Na3 O52 2.833836 1_555
Na3 O0 3.032325 1_555
Na4 O66 2.298303 1_555
Na4 O68 2.469819 1_555
Na4 O67 2.477082 1_555
Na4 O61 2.662517 1_555
Na4 O62 2.702218 1_555
Na4 O60 2.850205 1_555
Na5 O64 2.258593 1_555
Na5 O71 2.340316 1_555
Na5 O63 2.602671 1_555
Na5 O69 2.687202 1_555
Na5 O65 2.832777 1_555
Na5 O70 2.932991 1_555
Al0 O5 1.702920 1_555
Al0 O3 1.805748 1_655
Al0 O4 1.808561 1_645
Al0 O41 2.309221 1_545
Al0 O39 2.339818 1_655
Al0 O40 2.349183 1_645
Al1 O11 1.727604 1_555
Al1 O9 1.891224 1_455
Al1 O10 1.892325 1_565
Al1 O45 2.195806 1_455
Al1 O46 2.204444 1_465
Al1 O47 2.218278 1_565
Al2 O53 1.741113 1_555
Al2 O52 1.917297 1_555
Al2 O51 1.938116 1_555
Al2 O17 1.984758 1_555
Al2 O16 1.992616 1_555
Al2 O15 2.016574 1_555
Al3 O54 1.885820 1_555
Al3 O20 1.909183 1_556
Al3 O56 1.914194 1_555
Al3 O19 1.917708 1_556
Al3 O18 1.943483 1_556
Al3 O55 1.945447 1_555
Al4 O25 1.895750 1_554
Al4 O26 1.903213 1_554
Al4 O24 1.920594 1_554
Al4 O60 1.975137 1_555
Al4 O62 2.036170 1_555
Al4 O61 2.058896 1_555
Al5 O66 1.774801 1_555
Al5 O30 1.868392 1_555
Al5 O31 1.885909 1_555
Al5 O32 1.900825 1_555
Al5 O67 2.187075 1_555
Al5 O68 2.224650 1_555
In0 O0 2.000593 1_555
In0 O38 2.162160 1_555
In0 O36 2.189273 1_545
In0 O1 2.189327 1_445
In0 O37 2.190854 1_445
In0 O2 2.210454 1_455
In1 O6 1.978944 1_555
In1 O44 2.014180 1_555
In1 O8 2.183840 1_655
In1 O42 2.207801 1_665
In1 O43 2.219597 1_665
In1 O7 2.224327 1_665
In2 O14 1.971656 1_555
In2 O48 2.021761 1_555
In2 O12 2.167224 1_555
In2 O13 2.169396 1_555
In2 O49 2.328785 1_555
In2 O50 2.341699 1_555
In3 O22 1.968306 1_555
In3 O23 2.121522 1_555
In3 O21 2.130996 1_555
In3 O59 2.269104 1_555
In3 O57 2.278605 1_555
In3 O58 2.324140 1_555
In4 O64 1.986308 1_555
In4 O65 2.135413 1_555
In4 O28 2.143358 1_555
In4 O63 2.151635 1_555
In4 O27 2.160561 1_555
In4 O29 2.177140 1_555
In5 O71 1.979578 1_555
In5 O70 2.118078 1_555
In5 O69 2.168002 1_555
In5 O35 2.180370 1_555
In5 O33 2.206004 1_555
In5 O34 2.234174 1_555
O0 Si0 1.626266 1_555
O1 S0 1.477730 1_555
O2 S1 1.480765 1_555
O3 S2 1.513055 1_555
O4 S3 1.512664 1_455
O5 Si1 1.648864 1_555
O6 Si1 1.596125 1_565
O7 S2 1.457857 1_555
O8 S3 1.463098 1_455
O9 S0 1.502562 1_555
O10 S1 1.499237 1_455
O11 Si0 1.644787 1_565
O12 S4 1.459001 1_555
O13 S5 1.465584 1_555
O14 Si2 1.616249 1_555
O15 S6 1.475612 1_555
O16 S7 1.471494 1_555
O17 S8 1.477889 1_555
O18 S8 1.487603 1_555
O19 S6 1.488008 1_555
O20 S7 1.492759 1_555
O21 S5 1.492186 1_555
O22 Si2 1.636317 1_555
O23 S4 1.493765 1_555
O24 S9 1.500741 1_555
O25 S10 1.503126 1_555
O26 S11 1.506480 1_555
O27 S12 1.467155 1_555
O28 S13 1.462109 1_555
O29 S14 1.467086 1_555
O30 S14 1.487844 1_555
O31 S12 1.486323 1_555
O32 S13 1.497391 1_555
O33 S10 1.472995 1_555
O34 S11 1.466306 1_555
O35 S9 1.475001 1_555
O36 S14 1.490318 1_555
O37 S12 1.483561 1_555
O38 S13 1.485303 1_555
O39 S10 1.477051 1_555
O40 S11 1.481396 1_555
O41 S9 1.477004 1_555
O42 S4 1.473475 1_455
O43 S5 1.466726 1_555
O44 Si2 1.619570 1_555
O45 S6 1.493481 1_555
O46 S7 1.492377 1_555
O47 S8 1.489646 1_555
O48 Si1 1.629907 1_555
O49 S2 1.467449 1_555
O50 S3 1.465202 1_555
O51 S0 1.483456 1_555
O52 S1 1.482135 1_555
O53 Si0 1.633618 1_555
O54 S9 1.492741 1_555
O55 S10 1.501111 1_655
O56 S11 1.498969 1_545
O57 S12 1.490101 1_545
O58 S13 1.484700 1_555
O59 S14 1.483099 1_655
O60 S8 1.509317 1_555
O61 S6 1.508754 1_455
O62 S7 1.506839 1_565
O63 S5 1.477408 1_565
O64 Si2 1.632931 1_555
O65 S4 1.471732 1_455
O66 Si0 1.649966 1_565
O67 S0 1.476336 1_555
O68 S1 1.476142 1_455
O69 S2 1.480999 1_555
O70 S3 1.469285 1_455
O71 Si1 1.632813 1_565
