# generated using pymatgen
data_Na5La3Si3Ge(SO8)3
_symmetry_space_group_name_H-M   'P 1'
_cell_length_a   9.57715787
_cell_length_b   9.34512057
_cell_length_c   23.65463334
_cell_angle_alpha   93.50592809
_cell_angle_beta   88.97880292
_cell_angle_gamma   119.58651381
_symmetry_Int_Tables_number   1
_chemical_formula_structural   Na5La3Si3Ge(SO8)3
_chemical_formula_sum   'Na15 La9 Si9 Ge3 S9 O72'
_cell_volume   1837.40637467
_cell_formula_units_Z   3
loop_
 _symmetry_equiv_pos_site_id
 _symmetry_equiv_pos_as_xyz
  1  'x, y, z'
loop_
 _atom_site_type_symbol
 _atom_site_label
 _atom_site_symmetry_multiplicity
 _atom_site_fract_x
 _atom_site_fract_y
 _atom_site_fract_z
 _atom_site_occupancy
  Na  Na0  1  0.65546807  0.01612182  0.26092607  1
  Na  Na1  1  0.99601601  0.62222039  0.25047684  1
  Na  Na2  1  0.65474278  0.66312464  0.74196023  1
  Na  Na3  1  0.35363727  0.99903662  0.76852205  1
  Na  Na4  1  0.66626393  0.94208478  0.57914267  1
  Na  Na5  1  0.98572067  0.68262199  0.91929454  1
  Na  Na6  1  0.69264650  0.02146896  0.91751290  1
  Na  Na7  1  0.96631281  0.32198689  0.40850351  1
  Na  Na8  1  0.69075043  0.67928347  0.43653200  1
  Na  Na9  1  0.00701983  0.96481778  0.50436603  1
  Na  Na10  1  0.00303893  0.97661890  0.99663252  1
  Na  Na11  1  0.64723077  0.31729778  0.83673483  1
  Na  Na12  1  0.66186811  0.31029459  0.34141531  1
  Na  Na13  1  0.27097776  0.61029599  0.16105145  1
  Na  Na14  1  0.31742286  0.61177658  0.68019195  1
  La  La0  1  0.99835236  0.00684370  0.35283551  1
  La  La1  1  0.01568559  0.02305658  0.84923126  1
  La  La2  1  0.00453904  0.01625367  0.65418396  1
  La  La3  1  0.00047242  0.99389746  0.14055612  1
  La  La4  1  0.65888555  0.33599770  0.68713400  1
  La  La5  1  0.67563624  0.33508941  0.17788611  1
  La  La6  1  0.32760049  0.66817123  0.01709335  1
  La  La7  1  0.33167632  0.66979913  0.51671779  1
  La  La8  1  0.31951670  0.66939723  0.32604977  1
  Si  Si0  1  0.99874708  0.30757256  0.25419127  1
  Si  Si1  1  0.30835355  0.33292622  0.75705828  1
  Si  Si2  1  0.68546665  0.99723160  0.75571084  1
  Si  Si3  1  0.67668914  0.63106084  0.58158068  1
  Si  Si4  1  0.94062370  0.61485941  0.07505232  1
  Si  Si5  1  0.64290557  0.66739495  0.91732729  1
  Si  Si6  1  0.35768923  0.97307510  0.91718902  1
  Si  Si7  1  0.64086894  0.99400958  0.42244324  1
  Si  Si8  1  0.00968829  0.65934498  0.41860656  1
  Ge  Ge0  1  0.64462953  0.35811764  0.97335756  1
  Ge  Ge1  1  0.70504446  0.36027689  0.48179607  1
  Ge  Ge2  1  0.41658226  0.70142566  0.81998333  1
  S  S0  1  0.30625099  0.99347079  0.24892826  1
  S  S1  1  0.68904425  0.70162371  0.25131736  1
  S  S2  1  0.02237834  0.70314130  0.75190618  1
  S  S3  1  0.95091890  0.32455549  0.57541852  1
  S  S4  1  0.36919801  0.05083201  0.58049847  1
  S  S5  1  0.67509933  0.02913549  0.07890174  1
  S  S6  1  0.37362557  0.32227894  0.07356434  1
  S  S7  1  0.00874198  0.37266004  0.91653737  1
  S  S8  1  0.35935024  0.36300432  0.41733245  1
  O  O0  1  0.22416946  0.00120954  0.30149074  1
  O  O1  1  0.77578403  0.77686607  0.30618608  1
  O  O2  1  0.99278930  0.22472253  0.31454897  1
  O  O3  1  0.23710533  0.18795869  0.80145885  1
  O  O4  1  0.99761195  0.76948873  0.80759921  1
  O  O5  1  0.78570358  0.01075881  0.81202833  1
  O  O6  1  0.76929923  0.96883791  0.69769962  1
  O  O7  1  0.19871123  0.26150137  0.69859476  1
  O  O8  1  0.02409216  0.81022127  0.70694522  1
  O  O9  1  0.78876859  0.79822915  0.20460098  1
  O  O10  1  0.99789163  0.18617829  0.20111826  1
  O  O11  1  0.21176787  0.98435811  0.19873824  1
  O  O12  1  0.86421671  0.33328359  0.62598721  1
  O  O13  1  0.43542174  0.12643939  0.63786558  1
  O  O14  1  0.67694452  0.54835934  0.63960303  1
  O  O15  1  0.86204111  0.55019217  0.13768603  1
  O  O16  1  0.68027300  0.10975970  0.13596620  1
  O  O17  1  0.45770709  0.31821502  0.12436243  1
  O  O18  1  0.45911478  0.31435073  0.01983539  1
  O  O19  1  0.80467026  0.48854928  0.02129776  1
  O  O20  1  0.66397997  0.11984388  0.03266671  1
  O  O21  1  0.46980915  0.14772781  0.53501839  1
  O  O22  1  0.67884001  0.50879414  0.52270063  1
  O  O23  1  0.86433506  0.32526902  0.52216339  1
  O  O24  1  0.54577049  0.69759213  0.96781552  1
  O  O25  1  0.09276806  0.45071218  0.97066274  1
  O  O26  1  0.31862278  0.86056262  0.96976603  1
  O  O27  1  0.55789248  0.85816451  0.47023693  1
  O  O28  1  0.33811407  0.44091608  0.47037269  1
  O  O29  1  0.13041741  0.66843667  0.46728700  1
  O  O30  1  0.07318914  0.62511039  0.35699775  1
  O  O31  1  0.54397815  0.92688880  0.36130729  1
  O  O32  1  0.36666440  0.46221266  0.36906203  1
  O  O33  1  0.10389636  0.45718598  0.86796925  1
  O  O34  1  0.40065872  0.87266418  0.85936521  1
  O  O35  1  0.54977599  0.65405928  0.85562803  1
  O  O36  1  0.96739867  0.80814554  0.41980278  1
  O  O37  1  0.82946228  0.03756863  0.41756407  1
  O  O38  1  0.21982652  0.19490803  0.41186015  1
  O  O39  1  0.96898523  0.19571247  0.91716972  1
  O  O40  1  0.20490079  0.99253171  0.90330759  1
  O  O41  1  0.82940645  0.81217439  0.91439539  1
  O  O42  1  0.94931138  0.16406909  0.57220288  1
  O  O43  1  0.20313151  0.02469144  0.57654376  1
  O  O44  1  0.83495913  0.81507093  0.57656583  1
  O  O45  1  0.96258350  0.79768901  0.06796704  1
  O  O46  1  0.82593815  0.01888760  0.07334743  1
  O  O47  1  0.21094488  0.17496711  0.06959935  1
  O  O48  1  0.63138426  0.13742273  0.75360702  1
  O  O49  1  0.49872749  0.38429564  0.74927105  1
  O  O50  1  0.88335614  0.53473362  0.74377533  1
  O  O51  1  0.66162224  0.53103890  0.24745500  1
  O  O52  1  0.83154189  0.32279144  0.25262894  1
  O  O53  1  0.47201052  0.13708565  0.24922078  1
  O  O54  1  0.63923230  0.48480956  0.91992816  1
  O  O55  1  0.85145755  0.37427148  0.91438994  1
  O  O56  1  0.53509011  0.15926478  0.92824252  1
  O  O57  1  0.64557957  0.17596861  0.43845773  1
  O  O58  1  0.51249010  0.36040252  0.41837254  1
  O  O59  1  0.83173362  0.48267295  0.42580311  1
  O  O60  1  0.36252218  0.47417982  0.07768922  1
  O  O61  1  0.11081425  0.61834306  0.07566397  1
  O  O62  1  0.53430759  0.86112029  0.08184042  1
  O  O63  1  0.36356590  0.88727391  0.58017735  1
  O  O64  1  0.51696636  0.65189636  0.57633447  1
  O  O65  1  0.11621080  0.46334122  0.57701719  1
  O  O66  1  0.31898239  0.83956972  0.24683896  1
  O  O67  1  0.53530660  0.70391444  0.25141767  1
  O  O68  1  0.15471569  0.49475421  0.25041179  1
  O  O69  1  0.30723592  0.51119926  0.77639395  1
  O  O70  1  0.17611012  0.70422636  0.75075989  1
  O  O71  1  0.51071368  0.81193369  0.75769360  1
loop_
_geom_bond_atom_site_label_1
_geom_bond_atom_site_label_2
_geom_bond_distance
_geom_bond_site_symmetry_2
Na0 O52 2.525890 1_555
Na0 O53 2.541352 1_555
Na0 O67 2.549674 1_545
Na0 O31 2.597344 1_545
Na0 O66 2.817608 1_545
Na1 O68 2.348721 1_655
Na1 O52 2.444548 1_555
Na1 O30 2.633306 1_655
Na1 O66 2.740124 1_655
Na1 O15 2.875293 1_555
Na1 O51 2.879837 1_555
Na2 O49 2.292030 1_555
Na2 O71 2.405765 1_555
Na2 O14 2.635720 1_555
Na2 O6 2.773372 1_555
Na2 O35 2.845114 1_555
Na2 O50 2.973034 1_555
Na3 O48 2.344797 1_565
Na3 O70 2.432261 1_555
Na3 O3 2.591530 1_565
Na3 O34 2.661788 1_555
Na3 O71 2.813326 1_555
Na4 O64 2.356985 1_555
Na4 O44 2.429839 1_555
Na4 O42 2.480228 1_565
Na4 O63 2.683242 1_555
Na4 O27 2.715350 1_555
Na4 O6 2.944538 1_555
Na5 O41 2.352322 1_555
Na5 O55 2.505175 1_555
Na5 O40 2.653189 1_655
Na5 O4 2.795177 1_555
Na6 O39 2.324023 1_555
Na6 O56 2.421709 1_555
Na6 O5 2.647373 1_555
Na6 O34 2.776468 1_545
Na6 O41 2.838134 1_545
Na6 O20 2.873428 1_556
Na6 O55 2.874523 1_555
Na6 O24 2.954977 1_545
Na7 O37 2.334091 1_555
Na7 O2 2.406295 1_555
Na7 O59 2.429159 1_555
Na7 O57 2.775091 1_555
Na7 O30 2.840929 1_655
Na7 O23 2.847661 1_555
Na8 O36 2.344547 1_555
Na8 O58 2.612514 1_555
Na8 O22 2.629730 1_555
Na8 O27 2.636350 1_555
Na8 O59 2.764752 1_555
Na9 O36 2.325756 1_455
Na9 O44 2.346358 1_455
Na9 O43 2.390692 1_565
Na9 O42 2.639451 1_465
Na10 O45 2.339964 1_456
Na10 O41 2.477345 1_455
Na10 O47 2.542877 1_566
Na10 O46 2.605776 1_466
Na10 O40 2.870036 1_555
Na10 O39 2.997249 1_465
Na11 O54 2.462790 1_555
Na11 O48 2.463670 1_555
Na11 O55 2.542321 1_555
Na11 O56 2.600342 1_555
Na11 O49 2.799614 1_555
Na12 O58 2.458497 1_555
Na12 O59 2.522076 1_555
Na12 O52 2.605009 1_555
Na12 O57 2.648719 1_555
Na12 O53 2.735972 1_555
Na13 O68 2.425241 1_555
Na13 O61 2.584780 1_555
Na13 O60 2.647256 1_555
Na13 O66 2.729246 1_555
Na14 O69 2.496904 1_555
Na14 O70 2.502432 1_555
Na14 O71 2.562971 1_555
Na14 O7 2.945962 1_555
Na14 O65 2.950929 1_555
Na14 O64 3.010966 1_555
La0 O2 2.302854 1_555
La0 O37 2.315088 1_555
La0 O1 2.377025 1_545
La0 O38 2.379398 1_655
La0 O36 2.417555 1_545
La0 O0 2.483161 1_655
La1 O3 2.247047 1_555
La1 O5 2.333611 1_455
La1 O40 2.374697 1_545
La1 O39 2.399142 1_455
La1 O4 2.435267 1_445
La1 O41 2.498845 1_445
La2 O6 2.306280 1_445
La2 O7 2.319696 1_555
La2 O8 2.440925 1_545
La2 O44 2.492450 1_445
La2 O43 2.596471 1_555
La2 O42 2.652203 1_455
La3 O10 2.238180 1_465
La3 O45 2.328558 1_455
La3 O46 2.429332 1_465
La3 O11 2.507887 1_555
La3 O9 2.513534 1_455
La3 O47 2.569489 1_565
La4 O14 2.271447 1_555
La4 O49 2.288881 1_555
La4 O13 2.333386 1_555
La4 O50 2.392009 1_555
La4 O48 2.417625 1_555
La4 O12 2.429648 1_555
La5 O15 2.182123 1_555
La5 O16 2.292324 1_555
La5 O52 2.378430 1_555
La5 O17 2.393483 1_555
La5 O51 2.438351 1_555
La5 O53 2.602987 1_555
La6 O26 2.212571 1_554
La6 O24 2.277109 1_554
La6 O61 2.338512 1_555
La6 O25 2.386636 1_554
La6 O62 2.400312 1_555
La6 O60 2.527161 1_555
La7 O29 2.266459 1_555
La7 O27 2.321023 1_555
La7 O63 2.346758 1_555
La7 O64 2.361556 1_555
La7 O28 2.371016 1_555
La7 O65 2.513044 1_555
La8 O30 2.298697 1_555
La8 O68 2.357073 1_555
La8 O31 2.411941 1_555
La8 O32 2.471521 1_555
La8 O66 2.532310 1_555
La8 O67 2.602507 1_555
Ge0 O19 1.780174 1_556
Ge0 O54 1.802084 1_555
Ge0 O56 1.888122 1_555
Ge0 O18 1.949479 1_556
Ge0 O55 2.350334 1_555
Ge1 O22 1.759702 1_555
Ge1 O57 1.782727 1_555
Ge1 O59 1.814471 1_555
Ge1 O23 1.982193 1_555
Ge1 O58 2.398446 1_555
Ge2 O35 1.782025 1_555
Ge2 O71 1.808219 1_555
Ge2 O69 1.815488 1_555
Ge2 O34 1.872285 1_555
O0 S0 1.476282 1_545
O1 S1 1.489654 1_555
O2 Si0 1.652216 1_555
O3 Si1 1.624701 1_555
O4 S2 1.486746 1_655
O5 Si2 1.617832 1_545
O6 Si2 1.650640 1_555
O7 Si1 1.645422 1_555
O8 S2 1.498682 1_555
O9 S1 1.476928 1_555
O10 Si0 1.637107 1_555
O11 S0 1.478310 1_555
O12 S3 1.465111 1_555
O13 S4 1.487893 1_555
O14 Si3 1.616409 1_555
O15 Si4 1.657506 1_555
O16 S5 1.494433 1_555
O17 S6 1.471063 1_555
O18 S6 1.517369 1_555
O19 Si4 1.750212 1_555
O20 S5 1.460377 1_555
O21 S4 1.458213 1_555
O22 Si3 1.753109 1_555
O23 S3 1.522598 1_555
O24 Si5 1.596800 1_555
O25 S7 1.470279 1_555
O26 Si6 1.595983 1_555
O27 Si7 1.633570 1_555
O28 S8 1.473443 1_555
O29 Si8 1.615114 1_555
O30 Si8 1.643029 1_555
O31 Si7 1.645597 1_555
O32 S8 1.493549 1_555
O33 S7 1.461901 1_555
O34 Si6 1.767772 1_555
O35 Si5 1.689823 1_555
O36 Si8 1.627702 1_655
O37 Si7 1.647309 1_545
O38 S8 1.475965 1_555
O39 S7 1.503553 1_655
O40 Si6 1.602879 1_555
O41 Si5 1.626776 1_555
O42 S3 1.489499 1_555
O43 S4 1.488890 1_555
O44 Si3 1.647218 1_555
O45 Si4 1.634151 1_555
O46 S5 1.497208 1_555
O47 S6 1.484189 1_555
O48 Si2 1.632817 1_545
O49 Si1 1.650195 1_555
O50 S2 1.479690 1_655
O51 S1 1.479261 1_555
O52 Si0 1.677368 1_555
O53 S0 1.488893 1_545
O54 Si5 1.694081 1_555
O55 S7 1.515613 1_655
O56 Si6 1.738810 1_545
O57 Si7 1.697961 1_545
O58 S8 1.479465 1_555
O59 Si8 1.704386 1_655
O60 S6 1.472294 1_555
O61 Si4 1.614424 1_455
O62 S5 1.485818 1_565
O63 S4 1.502122 1_565
O64 Si3 1.642286 1_555
O65 S3 1.469098 1_455
O66 S0 1.500019 1_555
O67 S1 1.483014 1_555
O68 Si0 1.653258 1_455
O69 Si1 1.705594 1_555
O70 S2 1.467111 1_555
O71 Si2 1.716718 1_555
