# generated using pymatgen
data_Er(SiNi5)2
_symmetry_space_group_name_H-M   'P 1'
_cell_length_a   8.06681565
_cell_length_b   8.06681565
_cell_length_c   4.62600222
_cell_angle_alpha   90.00000000
_cell_angle_beta   90.00000000
_cell_angle_gamma   90.00000000
_symmetry_Int_Tables_number   1
_chemical_formula_structural   Er(SiNi5)2
_chemical_formula_sum   'Er2 Si4 Ni20'
_cell_volume   301.03022361
_cell_formula_units_Z   2
loop_
 _symmetry_equiv_pos_site_id
 _symmetry_equiv_pos_as_xyz
  1  'x, y, z'
loop_
 _atom_site_type_symbol
 _atom_site_label
 _atom_site_symmetry_multiplicity
 _atom_site_fract_x
 _atom_site_fract_y
 _atom_site_fract_z
 _atom_site_occupancy
  Er  Er0  1  0.50000000  -0.00000000  0.77911418  1
  Er  Er1  1  0.00000000  0.50000000  0.22088582  1
  Si  Si0  1  0.75000000  0.75000000  0.50000000  1
  Si  Si1  1  0.25000000  0.25000000  0.50000000  1
  Si  Si2  1  0.75000000  0.25000000  0.50000000  1
  Si  Si3  1  0.25000000  0.75000000  0.50000000  1
  Ni  Ni0  1  0.25000000  0.25000000  0.00000000  1
  Ni  Ni1  1  0.25000000  0.75000000  0.00000000  1
  Ni  Ni2  1  0.50000000  0.22290144  0.27063322  1
  Ni  Ni3  1  0.75000000  0.75000000  0.00000000  1
  Ni  Ni4  1  0.75000000  0.25000000  0.00000000  1
  Ni  Ni5  1  0.50000000  0.77709856  0.27063322  1
  Ni  Ni6  1  0.35251887  0.50000000  0.23918166  1
  Ni  Ni7  1  0.00000000  0.14748113  0.23918166  1
  Ni  Ni8  1  0.00000000  0.85251887  0.23918166  1
  Ni  Ni9  1  0.64748113  0.50000000  0.23918166  1
  Ni  Ni10  1  0.14748113  -0.00000000  0.76081834  1
  Ni  Ni11  1  0.85251887  -0.00000000  0.76081834  1
  Ni  Ni12  1  0.50000000  0.35251887  0.76081834  1
  Ni  Ni13  1  0.50000000  0.64748113  0.76081834  1
  Ni  Ni14  1  0.77709856  0.50000000  0.72936678  1
  Ni  Ni15  1  0.00000000  0.72290144  0.72936678  1
  Ni  Ni16  1  0.00000000  0.27709856  0.72936678  1
  Ni  Ni17  1  0.22290144  0.50000000  0.72936678  1
  Ni  Ni18  1  0.72290144  -0.00000000  0.27063322  1
  Ni  Ni19  1  0.27709856  -0.00000000  0.27063322  1
loop_
_geom_bond_atom_site_label_1
_geom_bond_atom_site_label_2
_geom_bond_distance
_geom_bond_site_symmetry_2
Er0 Ni10 2.844964 1_555
Er0 Ni12 2.844964 1_555
Er0 Ni11 2.844964 1_555
Er0 Ni13 2.844964 1_545
Er0 Ni19 2.898828 1_556
Er0 Ni18 2.898828 1_556
Er0 Ni2 2.898828 1_556
Er0 Ni5 2.898828 1_546
Er0 Ni18 2.960775 1_555
Er0 Ni19 2.960775 1_555
Er0 Ni5 2.960775 1_545
Er0 Ni2 2.960775 1_555
Er0 Ni0 3.029571 1_556
Er0 Ni1 3.029571 1_546
Er0 Ni3 3.029571 1_546
Er0 Ni4 3.029571 1_556
Er0 Si3 3.130710 1_545
Er0 Si1 3.130710 1_555
Er0 Si2 3.130710 1_555
Er0 Si0 3.130710 1_545
Er1 Ni6 2.844964 1_555
Er1 Ni7 2.844964 1_555
Er1 Ni9 2.844964 1_455
Er1 Ni8 2.844964 1_555
Er1 Ni15 2.898828 1_554
Er1 Ni14 2.898828 1_454
Er1 Ni17 2.898828 1_554
Er1 Ni16 2.898828 1_554
Er1 Ni16 2.960775 1_555
Er1 Ni15 2.960775 1_555
Er1 Ni17 2.960775 1_555
Er1 Ni14 2.960775 1_455
Er1 Ni0 3.029571 1_555
Er1 Ni1 3.029571 1_555
Er1 Ni4 3.029571 1_455
Er1 Ni3 3.029571 1_455
Er1 Si2 3.130710 1_455
Er1 Si1 3.130710 1_555
Er1 Si0 3.130710 1_455
Er1 Si3 3.130710 1_555
Ni0 Si1 2.313001 1_554
Ni0 Si1 2.313001 1_555
Ni0 Ni19 2.383749 1_555
Ni0 Ni16 2.383749 1_554
Ni0 Ni17 2.383749 1_554
Ni0 Ni2 2.383749 1_555
Ni0 Ni6 2.444436 1_555
Ni0 Ni7 2.444436 1_555
Ni0 Ni12 2.444436 1_554
Ni0 Ni10 2.444436 1_554
Ni1 Si3 2.313001 1_555
Ni1 Si3 2.313001 1_554
Ni1 Ni5 2.383749 1_555
Ni1 Ni17 2.383749 1_554
Ni1 Ni19 2.383749 1_565
Ni1 Ni15 2.383749 1_554
Ni1 Ni6 2.444436 1_555
Ni1 Ni10 2.444436 1_564
Ni1 Ni8 2.444436 1_555
Ni1 Ni13 2.444436 1_554
Ni2 Si1 2.289260 1_555
Ni2 Si2 2.289260 1_555
Ni2 Ni4 2.383749 1_555
Ni2 Ni6 2.536364 1_555
Ni2 Ni9 2.536364 1_555
Ni3 Si0 2.313001 1_555
Ni3 Si0 2.313001 1_554
Ni3 Ni5 2.383749 1_555
Ni3 Ni8 2.444436 1_655
Ni3 Ni9 2.444436 1_555
Ni4 Si2 2.313001 1_554
Ni4 Si2 2.313001 1_555
Ni4 Ni7 2.444436 1_655
Ni4 Ni9 2.444436 1_555
Ni5 Si3 2.289260 1_555
Ni5 Si0 2.289260 1_555
Ni5 Ni9 2.536364 1_555
Ni5 Ni6 2.536364 1_555
Ni6 Ni9 2.379406 1_555
Ni6 Si3 2.491341 1_555
Ni6 Si1 2.491341 1_555
Ni7 Ni8 2.379406 1_545
Ni7 Si2 2.491341 1_455
Ni7 Si1 2.491341 1_555
Ni8 Si0 2.491341 1_455
Ni8 Si3 2.491341 1_555
Ni9 Si2 2.491341 1_555
Ni9 Si0 2.491341 1_555
Ni10 Ni11 2.379406 1_455
Ni10 Si3 2.491341 1_545
Ni10 Si1 2.491341 1_555
Ni10 Ni19 2.497054 1_555
Ni10 Ni15 2.536364 1_545
Ni10 Ni16 2.536364 1_555
Ni10 Ni19 2.579797 1_556
Ni10 Ni8 2.779884 1_546
Ni10 Ni7 2.779884 1_556
Ni10 Ni7 2.941735 1_555
Ni10 Ni8 2.941735 1_545
Ni11 Ni4 2.444436 1_556
Ni11 Ni3 2.444436 1_546
Ni11 Si2 2.491341 1_555
Ni11 Si0 2.491341 1_545
Ni11 Ni18 2.497054 1_555
Ni11 Ni16 2.536364 1_655
Ni11 Ni15 2.536364 1_645
Ni11 Ni18 2.579797 1_556
Ni11 Ni8 2.779884 1_646
Ni11 Ni7 2.779884 1_656
Ni11 Ni8 2.941735 1_645
Ni11 Ni7 2.941735 1_655
Ni12 Ni13 2.379406 1_555
Ni12 Ni4 2.444436 1_556
Ni12 Si2 2.491341 1_555
Ni12 Si1 2.491341 1_555
Ni12 Ni2 2.497054 1_555
Ni12 Ni14 2.536364 1_555
Ni12 Ni17 2.536364 1_555
Ni12 Ni2 2.579797 1_556
Ni12 Ni9 2.779884 1_556
Ni12 Ni6 2.779884 1_556
Ni12 Ni9 2.941735 1_555
Ni12 Ni6 2.941735 1_555
Ni13 Ni3 2.444436 1_556
Ni13 Si0 2.491341 1_555
Ni13 Si3 2.491341 1_555
Ni13 Ni5 2.497054 1_555
Ni13 Ni14 2.536364 1_555
Ni13 Ni17 2.536364 1_555
Ni13 Ni5 2.579797 1_556
Ni13 Ni9 2.779884 1_556
Ni13 Ni6 2.779884 1_556
Ni13 Ni9 2.941735 1_555
Ni13 Ni6 2.941735 1_555
Ni14 Si2 2.289260 1_555
Ni14 Si0 2.289260 1_555
Ni14 Ni4 2.383749 1_556
Ni14 Ni3 2.383749 1_556
Ni14 Ni9 2.497054 1_555
Ni14 Ni15 2.542904 1_655
Ni14 Ni16 2.542904 1_655
Ni14 Ni9 2.579797 1_556
Ni15 Si3 2.289260 1_555
Ni15 Si0 2.289260 1_455
Ni15 Ni3 2.383749 1_456
Ni15 Ni8 2.497054 1_555
Ni15 Ni17 2.542904 1_555
Ni15 Ni8 2.579797 1_556
Ni16 Si2 2.289260 1_455
Ni16 Si1 2.289260 1_555
Ni16 Ni4 2.383749 1_456
Ni16 Ni7 2.497054 1_555
Ni16 Ni17 2.542904 1_555
Ni16 Ni7 2.579797 1_556
Ni17 Si3 2.289260 1_555
Ni17 Si1 2.289260 1_555
Ni17 Ni6 2.497054 1_555
Ni17 Ni6 2.579797 1_556
Ni18 Si0 2.289260 1_545
Ni18 Si2 2.289260 1_555
Ni18 Ni3 2.383749 1_545
Ni18 Ni4 2.383749 1_555
Ni18 Ni8 2.536364 1_645
Ni18 Ni7 2.536364 1_655
Ni18 Ni5 2.542904 1_545
Ni18 Ni2 2.542904 1_555
Ni19 Si1 2.289260 1_555
Ni19 Si3 2.289260 1_545
Ni19 Ni7 2.536364 1_555
Ni19 Ni8 2.536364 1_545
Ni19 Ni5 2.542904 1_545
Ni19 Ni2 2.542904 1_555
