# generated using pymatgen
data_MgScNi2SbO6
_symmetry_space_group_name_H-M   'P 1'
_cell_length_a   5.36578613
_cell_length_b   5.36585886
_cell_length_c   6.14495431
_cell_angle_alpha   64.10444190
_cell_angle_beta   64.10704131
_cell_angle_gamma   59.99855141
_symmetry_Int_Tables_number   1
_chemical_formula_structural   MgScNi2SbO6
_chemical_formula_sum   'Mg1 Sc1 Ni2 Sb1 O6'
_cell_volume   132.31277834
_cell_formula_units_Z   1
loop_
 _symmetry_equiv_pos_site_id
 _symmetry_equiv_pos_as_xyz
  1  'x, y, z'
loop_
 _atom_site_type_symbol
 _atom_site_label
 _atom_site_symmetry_multiplicity
 _atom_site_fract_x
 _atom_site_fract_y
 _atom_site_fract_z
 _atom_site_occupancy
  Mg  Mg0  1  0.16719900  0.16719600  0.49847900  1
  Sc  Sc0  1  0.81152000  0.81158600  0.56531600  1
  Ni  Ni0  1  0.98921500  0.98916500  0.03225900  1
  Ni  Ni1  1  0.55404300  0.55405000  0.33785300  1
  Sb  Sb0  1  0.35349200  0.35344800  0.93939400  1
  O  O0  1  0.19861300  0.90690300  0.29639000  1
  O  O1  1  0.90688700  0.59809200  0.29644900  1
  O  O2  1  0.59807800  0.19863700  0.29643000  1
  O  O3  1  0.77359200  0.08515600  0.75483300  1
  O  O4  1  0.08515300  0.38629300  0.75486700  1
  O  O5  1  0.38630800  0.77357100  0.75483500  1
loop_
_geom_bond_atom_site_label_1
_geom_bond_atom_site_label_2
_geom_bond_distance
_geom_bond_site_symmetry_2
Mg0 O4 2.133684 1_555
Mg0 O5 2.133760 1_545
Mg0 O3 2.134058 1_455
Mg0 O2 2.148344 1_555
Mg0 O1 2.148433 1_455
Mg0 O0 2.148961 1_545
Ni0 O1 2.135232 1_555
Ni0 O2 2.135971 1_565
Ni0 O0 2.136034 1_655
Ni0 O4 2.206662 1_664
Ni0 O5 2.206714 1_654
Ni0 O3 2.206781 1_564
Ni1 O2 1.917938 1_555
Ni1 O0 1.918052 1_555
Ni1 O1 1.918158 1_555
O0 Sc0 2.152428 1_455
O0 Sb0 2.655597 1_564
O1 Sc0 2.152313 1_555
O1 Sb0 2.656622 1_654
O2 Sc0 2.152156 1_545
O2 Sb0 2.656797 1_554
O3 Sb0 2.094760 1_555
O3 Sc0 2.130714 1_545
O4 Sb0 2.094657 1_555
O4 Sc0 2.131056 1_455
O5 Sb0 2.094895 1_555
O5 Sc0 2.130917 1_555
