# generated using pymatgen
data_Rb2TeI6
_symmetry_space_group_name_H-M   'P 1'
_cell_length_a   8.10855166
_cell_length_b   8.10855166
_cell_length_c   12.27226015
_cell_angle_alpha   90.00000000
_cell_angle_beta   90.00000000
_cell_angle_gamma   90.00000000
_symmetry_Int_Tables_number   1
_chemical_formula_structural   Rb2TeI6
_chemical_formula_sum   'Rb4 Te2 I12'
_cell_volume   806.88404670
_cell_formula_units_Z   2
loop_
 _symmetry_equiv_pos_site_id
 _symmetry_equiv_pos_as_xyz
  1  'x, y, z'
loop_
 _atom_site_type_symbol
 _atom_site_label
 _atom_site_symmetry_multiplicity
 _atom_site_fract_x
 _atom_site_fract_y
 _atom_site_fract_z
 _atom_site_occupancy
  Rb  Rb0  1  -0.00000000  0.50000000  0.25000000  1
  Rb  Rb1  1  0.50000000  -0.00000000  0.25000000  1
  Rb  Rb2  1  -0.00000000  0.50000000  0.75000000  1
  Rb  Rb3  1  0.50000000  -0.00000000  0.75000000  1
  Te  Te0  1  -0.00000000  -0.00000000  0.00000000  1
  Te  Te1  1  0.50000000  0.50000000  0.50000000  1
  I  I0  1  -0.00000000  -0.00000000  0.24200126  1
  I  I1  1  0.50000000  0.50000000  0.25799774  1
  I  I2  1  -0.00000000  -0.00000000  0.75799774  1
  I  I3  1  0.50000000  0.50000000  0.74200226  1
  I  I4  1  0.20334529  0.30311554  0.00000000  1
  I  I5  1  0.69688446  0.20334529  0.00000000  1
  I  I6  1  0.30311554  0.79665471  0.00000000  1
  I  I7  1  0.70334529  0.19688446  0.50000000  1
  I  I8  1  0.29665471  0.80311554  0.50000000  1
  I  I9  1  0.79665471  0.69688446  0.00000000  1
  I  I10  1  0.80311554  0.70334529  0.50000000  1
  I  I11  1  0.19688446  0.29665471  0.50000000  1
loop_
_geom_bond_atom_site_label_1
_geom_bond_atom_site_label_2
_geom_bond_distance
_geom_bond_site_symmetry_2
I0 Te0 2.969902 1_555
I0 Rb0 4.055464 1_555
I0 Rb0 4.055464 1_545
I0 Rb1 4.055464 1_555
I0 Rb1 4.055464 1_455
I1 Te1 2.969915 1_555
I1 Rb0 4.055464 1_655
I1 Rb1 4.055464 1_565
I1 Rb1 4.055464 1_555
I1 Rb0 4.055464 1_555
I2 Te0 2.969915 1_556
I2 Rb3 4.055464 1_555
I2 Rb3 4.055464 1_455
I2 Rb2 4.055464 1_545
I2 Rb2 4.055464 1_555
I3 Te1 2.969915 1_555
I3 Rb3 4.055464 1_555
I3 Rb3 4.055464 1_565
I3 Rb2 4.055464 1_555
I3 Rb2 4.055464 1_655
I4 Te0 2.959658 1_555
I4 Rb0 3.831492 1_555
I4 Rb2 3.831492 1_554
I5 Te0 2.959658 1_655
I5 Rb3 3.831492 1_554
I5 Rb1 3.831492 1_555
I6 Te0 2.959658 1_565
I6 Rb1 3.831492 1_565
I6 Rb3 3.831492 1_564
I7 Te1 2.959658 1_555
I7 Rb1 3.831492 1_555
I7 Rb3 3.831492 1_555
I8 Te1 2.959658 1_555
I8 Rb3 3.831492 1_565
I8 Rb1 3.831492 1_565
I9 Te0 2.959658 1_665
I9 Rb2 3.831492 1_654
I9 Rb0 3.831492 1_655
I10 Te1 2.959658 1_555
I10 Rb2 3.831492 1_655
I10 Rb0 3.831492 1_655
I11 Te1 2.959658 1_555
I11 Rb2 3.831492 1_555
I11 Rb0 3.831492 1_555
