# generated using pymatgen
data_Rb2TeBr6
_symmetry_space_group_name_H-M   'P 1'
_cell_length_a   7.67329655
_cell_length_b   7.67329620
_cell_length_c   7.67329772
_cell_angle_alpha   60.00000234
_cell_angle_beta   60.00000381
_cell_angle_gamma   60.00000366
_symmetry_Int_Tables_number   1
_chemical_formula_structural   Rb2TeBr6
_chemical_formula_sum   'Rb2 Te1 Br6'
_cell_volume   319.47069663
_cell_formula_units_Z   1
loop_
 _symmetry_equiv_pos_site_id
 _symmetry_equiv_pos_as_xyz
  1  'x, y, z'
loop_
 _atom_site_type_symbol
 _atom_site_label
 _atom_site_symmetry_multiplicity
 _atom_site_fract_x
 _atom_site_fract_y
 _atom_site_fract_z
 _atom_site_occupancy
  Rb  Rb0  1  0.75000000  0.75000000  0.75000000  1
  Rb  Rb1  1  0.25000000  0.25000000  0.25000000  1
  Te  Te0  1  -0.00000000  -0.00000000  0.00000000  1
  Br  Br0  1  0.25003812  0.74996188  0.74996188  1
  Br  Br1  1  0.25003812  0.74996188  0.25003812  1
  Br  Br2  1  0.74996188  0.25003812  0.74996188  1
  Br  Br3  1  0.74996188  0.25003812  0.25003812  1
  Br  Br4  1  0.74996188  0.74996188  0.25003812  1
  Br  Br5  1  0.25003812  0.25003812  0.74996188  1
loop_
_geom_bond_atom_site_label_1
_geom_bond_atom_site_label_2
_geom_bond_distance
_geom_bond_site_symmetry_2
Br0 Te0 2.713334 1_566
Br0 Rb0 3.836648 1_555
Br0 Rb0 3.836648 1_455
Br0 Rb1 3.836649 1_565
Br0 Rb1 3.836649 1_556
Br1 Te0 2.713334 1_565
Br1 Rb1 3.836648 1_565
Br1 Rb1 3.836648 1_555
Br1 Rb0 3.836649 1_455
Br1 Rb0 3.836649 1_554
Br2 Te0 2.713334 1_656
Br2 Rb0 3.836648 1_545
Br2 Rb0 3.836648 1_555
Br2 Rb1 3.836649 1_655
Br2 Rb1 3.836649 1_556
Br3 Te0 2.713334 1_655
Br3 Rb1 3.836648 1_555
Br3 Rb1 3.836648 1_655
Br3 Rb0 3.836649 1_545
Br3 Rb0 3.836649 1_554
Br4 Te0 2.713334 1_665
Br4 Rb1 3.836648 1_565
Br4 Rb1 3.836648 1_655
Br4 Rb0 3.836649 1_555
Br4 Rb0 3.836649 1_554
Br5 Te0 2.713334 1_556
Br5 Rb0 3.836648 1_545
Br5 Rb0 3.836648 1_455
Br5 Rb1 3.836649 1_555
Br5 Rb1 3.836649 1_556
