# generated using pymatgen
data_Li3Fe2(PO4)3
_symmetry_space_group_name_H-M   'P 1'
_cell_length_a   8.73650800
_cell_length_b   8.67753600
_cell_length_c   14.91671564
_cell_angle_alpha   54.81237540
_cell_angle_beta   90.00000000
_cell_angle_gamma   90.00000000
_symmetry_Int_Tables_number   1
_chemical_formula_structural   Li3Fe2(PO4)3
_chemical_formula_sum   'Li12 Fe8 P12 O48'
_cell_volume   924.21442720
_cell_formula_units_Z   4
loop_
 _symmetry_equiv_pos_site_id
 _symmetry_equiv_pos_as_xyz
  1  'x, y, z'
loop_
 _atom_site_type_symbol
 _atom_site_label
 _atom_site_symmetry_multiplicity
 _atom_site_fract_x
 _atom_site_fract_y
 _atom_site_fract_z
 _atom_site_occupancy
  Li  Li0  1  0.92125200  0.37577300  0.69995800  1
  Li  Li1  1  0.07874800  0.62422700  0.30004200  1
  Li  Li2  1  0.70147000  0.67223300  0.24045200  1
  Li  Li3  1  0.77469800  0.97239900  0.81994300  1
  Li  Li4  1  0.27469800  0.02760100  0.68005700  1
  Li  Li5  1  0.20147000  0.32776700  0.25954800  1
  Li  Li6  1  0.57874800  0.37577300  0.19995800  1
  Li  Li7  1  0.42125200  0.62422700  0.80004200  1
  Li  Li8  1  0.79853000  0.67223300  0.74045200  1
  Li  Li9  1  0.29853000  0.32776700  0.75954800  1
  Li  Li10  1  0.22530200  0.02760100  0.18005700  1
  Li  Li11  1  0.72530200  0.97239900  0.31994300  1
  Fe  Fe0  1  0.53114000  0.36009000  0.39454100  1
  Fe  Fe1  1  0.03114000  0.63991000  0.10545900  1
  Fe  Fe2  1  0.45942400  0.86204000  0.89264000  1
  Fe  Fe3  1  0.95942400  0.13796000  0.60736000  1
  Fe  Fe4  1  0.04057600  0.86204000  0.39264000  1
  Fe  Fe5  1  0.54057600  0.13796000  0.10736000  1
  Fe  Fe6  1  0.96886000  0.36009000  0.89454100  1
  Fe  Fe7  1  0.46886000  0.63991000  0.60545900  1
  P  P0  1  0.11571700  0.74744600  0.64898900  1
  P  P1  1  0.39743800  0.04629300  0.35089200  1
  P  P2  1  0.25242500  0.45728300  0.00695100  1
  P  P3  1  0.74757500  0.54271700  0.99304900  1
  P  P4  1  0.60256200  0.95370700  0.64910800  1
  P  P5  1  0.88428300  0.25255400  0.35101100  1
  P  P6  1  0.10256200  0.04629300  0.85089200  1
  P  P7  1  0.38428300  0.74744600  0.14898900  1
  P  P8  1  0.75242500  0.54271700  0.49304900  1
  P  P9  1  0.61571700  0.25255400  0.85101100  1
  P  P10  1  0.89743800  0.95370700  0.14910800  1
  P  P11  1  0.24757500  0.45728300  0.50695100  1
  O  O0  1  0.83226300  0.73778700  0.43308100  1
  O  O1  1  0.40828100  0.82596200  0.02798700  1
  O  O2  1  0.21750000  0.67354400  0.18410000  1
  O  O3  1  0.37289500  0.46766100  0.43156600  1
  O  O4  1  0.59122400  0.09647200  0.83186900  1
  O  O5  1  0.68872800  0.52369100  0.40281100  1
  O  O6  1  0.88946000  0.77267000  0.15032000  1
  O  O7  1  0.86694100  0.38220400  0.56952700  1
  O  O8  1  0.13305900  0.61779600  0.43047300  1
  O  O9  1  0.11054000  0.22733000  0.84968000  1
  O  O10  1  0.31127200  0.47630900  0.59718900  1
  O  O11  1  0.40877600  0.90352800  0.16813100  1
  O  O12  1  0.62710500  0.53233900  0.56843400  1
  O  O13  1  0.78250000  0.32645600  0.81590000  1
  O  O14  1  0.59171900  0.17403800  0.97201300  1
  O  O15  1  0.02058600  0.91162200  0.23627200  1
  O  O16  1  0.73559400  0.97010800  0.18686400  1
  O  O17  1  0.97941400  0.08837800  0.76372800  1
  O  O18  1  0.94312100  0.12957200  0.03857300  1
  O  O19  1  0.49603200  0.41352900  0.78060600  1
  O  O20  1  0.99603200  0.58647100  0.71939400  1
  O  O21  1  0.44312100  0.87042800  0.46142700  1
  O  O22  1  0.33226300  0.26221300  0.06691900  1
  O  O23  1  0.23559400  0.02989200  0.31313600  1
  O  O24  1  0.09171900  0.82596200  0.52798700  1
  O  O25  1  0.52058600  0.08837800  0.26372800  1
  O  O26  1  0.28250000  0.67354400  0.68410000  1
  O  O27  1  0.12710500  0.46766100  0.93156600  1
  O  O28  1  0.81127200  0.52369100  0.90281100  1
  O  O29  1  0.61054000  0.77267000  0.65032000  1
  O  O30  1  0.90877600  0.09647200  0.33186900  1
  O  O31  1  0.63305900  0.38220400  0.06952700  1
  O  O32  1  0.36694100  0.61779600  0.93047300  1
  O  O33  1  0.09122400  0.90352800  0.66813100  1
  O  O34  1  0.38946000  0.22733000  0.34968000  1
  O  O35  1  0.18872800  0.47630900  0.09718900  1
  O  O36  1  0.87289500  0.53233900  0.06843400  1
  O  O37  1  0.71750000  0.32645600  0.31590000  1
  O  O38  1  0.47941400  0.91162200  0.73627200  1
  O  O39  1  0.90828100  0.17403800  0.47201300  1
  O  O40  1  0.26440600  0.02989200  0.81313600  1
  O  O41  1  0.66773700  0.73778700  0.93308100  1
  O  O42  1  0.55687900  0.12957200  0.53857300  1
  O  O43  1  0.00396800  0.41352900  0.28060600  1
  O  O44  1  0.50396800  0.58647100  0.21939400  1
  O  O45  1  0.05687900  0.87042800  0.96142700  1
  O  O46  1  0.16773700  0.26221300  0.56691900  1
  O  O47  1  0.76440600  0.97010800  0.68686400  1
loop_
_geom_bond_atom_site_label_1
_geom_bond_atom_site_label_2
_geom_bond_distance
_geom_bond_site_symmetry_2
Li0 O13 1.946962 1_555
Li0 O7 1.971925 1_555
Li0 O20 2.112964 1_555
Li0 O17 2.156019 1_555
Li0 O9 2.462995 1_655
Li1 O2 1.946962 1_555
Li1 O8 1.971925 1_555
Li1 O43 2.112964 1_555
Li1 O15 2.156019 1_555
Li1 O6 2.462995 1_455
Li2 O44 1.974639 1_555
Li2 O6 1.978414 1_555
Li2 O5 1.985308 1_555
Li2 O16 2.242284 1_555
Li2 O37 2.529289 1_555
Li3 O41 1.976431 1_555
Li3 O17 1.985481 1_565
Li3 O4 1.995224 1_565
Li3 O47 1.998647 1_555
Li4 O46 1.976431 1_555
Li4 O38 1.985481 1_545
Li4 O33 1.995224 1_545
Li4 O40 1.998647 1_555
Li5 O43 1.974639 1_555
Li5 O34 1.978414 1_555
Li5 O35 1.985308 1_555
Li5 O23 2.242284 1_555
Li5 O2 2.529289 1_555
Li6 O37 1.946962 1_555
Li6 O31 1.971925 1_555
Li6 O44 2.112964 1_555
Li6 O25 2.156019 1_555
Li6 O34 2.462995 1_555
Li7 O26 1.946962 1_555
Li7 O32 1.971925 1_555
Li7 O19 2.112964 1_555
Li7 O38 2.156019 1_555
Li7 O29 2.462995 1_555
Li8 O20 1.974639 1_555
Li8 O29 1.978414 1_555
Li8 O28 1.985308 1_555
Li8 O47 2.242284 1_555
Li8 O13 2.529289 1_555
Li9 O19 1.974639 1_555
Li9 O9 1.978414 1_555
Li9 O10 1.985308 1_555
Li9 O40 2.242284 1_555
Li9 O26 2.529289 1_555
Li10 O22 1.976431 1_555
Li10 O15 1.985481 1_545
Li10 O11 1.995224 1_545
Li10 O23 1.998647 1_555
Li11 O0 1.976431 1_555
Li11 O25 1.985481 1_565
Li11 O30 1.995224 1_565
Li11 O16 1.998647 1_555
Fe0 O3 1.918815 1_555
Fe0 O42 1.927367 1_555
Fe0 O5 2.031740 1_555
Fe0 O34 2.048312 1_555
Fe0 O37 2.122894 1_555
Fe0 O44 2.196832 1_555
Fe1 O36 1.918815 1_455
Fe1 O45 1.927367 1_554
Fe1 O35 2.031740 1_555
Fe1 O6 2.048312 1_455
Fe1 O2 2.122894 1_555
Fe1 O43 2.196832 1_555
Fe2 O1 1.909262 1_556
Fe2 O32 2.021092 1_555
Fe2 O41 2.022117 1_555
Fe2 O4 2.039765 1_565
Fe2 O40 2.107132 1_565
Fe2 O38 2.121214 1_555
Fe3 O39 1.909262 1_555
Fe3 O7 2.021092 1_555
Fe3 O46 2.022117 1_655
Fe3 O33 2.039765 1_645
Fe3 O47 2.107132 1_545
Fe3 O17 2.121214 1_555
Fe4 O24 1.909262 1_555
Fe4 O8 2.021092 1_555
Fe4 O0 2.022117 1_455
Fe4 O30 2.039765 1_465
Fe4 O23 2.107132 1_565
Fe4 O15 2.121214 1_555
Fe5 O14 1.909262 1_554
Fe5 O31 2.021092 1_555
Fe5 O22 2.022117 1_555
Fe5 O11 2.039765 1_545
Fe5 O16 2.107132 1_545
Fe5 O25 2.121214 1_555
Fe6 O27 1.918815 1_655
Fe6 O18 1.927367 1_556
Fe6 O28 2.031740 1_555
Fe6 O9 2.048312 1_655
Fe6 O13 2.122894 1_555
Fe6 O20 2.196832 1_555
Fe7 O12 1.918815 1_555
Fe7 O21 1.927367 1_555
Fe7 O10 2.031740 1_555
Fe7 O29 2.048312 1_555
Fe7 O26 2.122894 1_555
Fe7 O19 2.196832 1_555
O0 P8 1.551417 1_555
O1 P7 1.532547 1_555
O2 P7 1.556151 1_555
O3 P11 1.534473 1_555
O4 P9 1.551596 1_555
O5 P8 1.550782 1_555
O6 P10 1.562163 1_555
O7 P8 1.552774 1_555
O8 P11 1.552774 1_555
O9 P6 1.562163 1_555
O10 P11 1.550782 1_555
O11 P7 1.551596 1_555
O12 P8 1.534473 1_555
O13 P9 1.556151 1_555
O14 P9 1.532547 1_555
O15 P10 1.560183 1_455
O16 P10 1.558551 1_555
O17 P6 1.560183 1_655
O18 P10 1.518823 1_545
O19 P9 1.567412 1_555
O20 P0 1.567412 1_655
O21 P1 1.518823 1_565
O22 P2 1.551417 1_555
O23 P1 1.558551 1_555
O24 P0 1.532547 1_555
O25 P1 1.560183 1_555
O26 P0 1.556151 1_555
O27 P2 1.534473 1_556
O28 P3 1.550782 1_555
O29 P4 1.562163 1_555
O30 P5 1.551596 1_555
O31 P3 1.552774 1_554
O32 P2 1.552774 1_556
O33 P0 1.551596 1_555
O34 P1 1.562163 1_555
O35 P2 1.550782 1_555
O36 P3 1.534473 1_554
O37 P5 1.556151 1_555
O38 P4 1.560183 1_555
O39 P5 1.532547 1_555
O40 P6 1.558551 1_555
O41 P3 1.551417 1_555
O42 P4 1.518823 1_545
O43 P5 1.567412 1_455
O44 P7 1.567412 1_555
O45 P6 1.518823 1_565
O46 P11 1.551417 1_555
O47 P4 1.558551 1_555
