# generated using pymatgen
data_Sr8MgMn6O20
_symmetry_space_group_name_H-M   'P 1'
_cell_length_a   5.68621845
_cell_length_b   6.67298372
_cell_length_c   14.22047343
_cell_angle_alpha   94.35347756
_cell_angle_beta   83.89676327
_cell_angle_gamma   112.86210344
_symmetry_Int_Tables_number   1
_chemical_formula_structural   Sr8MgMn6O20
_chemical_formula_sum   'Sr8 Mg1 Mn6 O20'
_cell_volume   494.02324788
_cell_formula_units_Z   1
loop_
 _symmetry_equiv_pos_site_id
 _symmetry_equiv_pos_as_xyz
  1  'x, y, z'
loop_
 _atom_site_type_symbol
 _atom_site_label
 _atom_site_symmetry_multiplicity
 _atom_site_fract_x
 _atom_site_fract_y
 _atom_site_fract_z
 _atom_site_occupancy
  Sr  Sr0  1  0.15613300  0.46168600  0.07599400  1
  Sr  Sr1  1  0.76477900  0.50204200  0.86547500  1
  Sr  Sr2  1  0.78747300  0.52483300  0.33824500  1
  Sr  Sr3  1  0.29739600  0.49051700  0.65815500  1
  Sr  Sr4  1  0.02230000  0.90702800  0.64446100  1
  Sr  Sr5  1  0.20012800  0.19443000  0.42507400  1
  Sr  Sr6  1  0.43827100  0.05826600  0.12575200  1
  Sr  Sr7  1  0.47795400  0.92599000  0.86809200  1
  Mg  Mg0  1  0.87136200  0.02615500  0.26336600  1
  Mn  Mn0  1  0.66971700  0.22152900  0.66134000  1
  Mn  Mn1  1  0.36121900  0.78186300  0.34537400  1
  Mn  Mn2  1  0.74351800  0.69050600  0.12319300  1
  Mn  Mn3  1  0.13390700  0.22981600  0.84535900  1
  Mn  Mn4  1  0.55652700  0.99034300  0.50211800  1
  Mn  Mn5  1  0.96327900  0.98966000  0.99537000  1
  O  O0  1  0.39488000  0.18618900  0.75700000  1
  O  O1  1  0.13041600  0.89873800  0.28753200  1
  O  O2  1  0.55399400  0.78457000  0.22480800  1
  O  O3  1  0.87467700  0.17817400  0.74708300  1
  O  O4  1  0.21074600  0.83790600  0.46745500  1
  O  O5  1  0.45304800  0.22485300  0.55837700  1
  O  O6  1  0.31702200  0.18424200  0.97427700  1
  O  O7  1  0.03000800  0.74285100  0.03024600  1
  O  O8  1  0.88908400  0.17248100  0.55180900  1
  O  O9  1  0.60151300  0.75153600  0.43009900  1
  O  O10  1  0.59883600  0.79039100  0.02300400  1
  O  O11  1  0.87103900  0.21896100  0.95543500  1
  O  O12  1  0.82400900  0.52539100  0.68063400  1
  O  O13  1  0.18663600  0.48229900  0.33074700  1
  O  O14  1  0.97804100  0.08427000  0.12940600  1
  O  O15  1  0.97157200  0.90632600  0.86334700  1
  O  O16  1  0.49067200  0.88673600  0.62823200  1
  O  O17  1  0.73375300  0.43351500  0.16932700  1
  O  O18  1  0.27820300  0.53513900  0.83624500  1
  O  O19  1  0.63217700  0.10669100  0.36756800  1
loop_
_geom_bond_atom_site_label_1
_geom_bond_atom_site_label_2
_geom_bond_distance
_geom_bond_site_symmetry_2
Mg0 O14 1.957276 1_555
Mg0 O2 1.992942 1_545
Mg0 O1 2.033730 1_645
Mg0 O19 2.086339 1_555
Mn0 O12 1.881717 1_555
Mn0 O3 1.883186 1_555
Mn0 O0 1.912769 1_555
Mn0 O8 1.978842 1_555
Mn0 O5 2.017911 1_555
Mn0 O16 2.103362 1_545
Mn1 O13 1.861054 1_555
Mn1 O4 1.928737 1_555
Mn1 O2 1.931608 1_555
Mn1 O9 1.990340 1_555
Mn1 O1 2.032110 1_555
Mn1 O19 2.139243 1_565
Mn2 O17 1.861027 1_555
Mn2 O7 1.921695 1_655
Mn2 O2 1.923595 1_555
Mn2 O10 1.992600 1_555
Mn2 O14 2.440785 1_565
Mn3 O18 1.886689 1_555
Mn3 O0 1.936319 1_555
Mn3 O15 2.015580 1_445
Mn3 O11 2.031078 1_455
Mn3 O3 2.053013 1_455
Mn3 O6 2.296550 1_555
Mn4 O9 1.914937 1_555
Mn4 O16 1.918012 1_555
Mn4 O4 1.928592 1_555
Mn4 O5 1.964797 1_565
Mn4 O8 1.979967 1_565
Mn4 O19 2.059075 1_565
Mn5 O15 1.918136 1_555
Mn5 O6 1.929589 1_665
Mn5 O7 1.937006 1_656
Mn5 O11 1.938487 1_565
Mn5 O14 1.961842 1_566
Mn5 O10 1.995499 1_556
O0 Sr7 2.635532 1_545
O0 Sr4 2.778743 1_545
O0 Sr3 2.807282 1_555
O0 Sr1 2.827976 1_555
O1 Sr2 2.596461 1_455
O1 Sr5 2.616722 1_565
O1 Sr6 2.749137 1_565
O2 Sr6 2.697101 1_565
O3 Sr4 2.574263 1_645
O3 Sr7 2.747065 1_545
O3 Sr3 2.753537 1_655
O3 Sr1 2.858129 1_555
O4 Sr5 2.522680 1_565
O4 Sr4 2.707591 1_555
O5 Sr5 2.448948 1_555
O5 Sr3 2.551388 1_555
O5 Sr4 2.777756 1_545
O6 Sr7 2.573671 1_545
O6 Sr6 2.619727 1_556
O6 Sr0 2.642904 1_556
O6 Sr1 2.972966 1_555
O7 Sr0 2.405783 1_555
O7 Sr6 2.846676 1_565
O7 Sr1 2.940000 1_454
O8 Sr5 2.357679 1_655
O8 Sr4 2.656435 1_645
O8 Sr3 2.934650 1_655
O9 Sr2 2.400433 1_555
O10 Sr6 2.598396 1_565
O10 Sr7 2.692948 1_554
O10 Sr0 2.696851 1_555
O10 Sr1 3.149259 1_554
O11 Sr0 2.513913 1_656
O11 Sr1 2.643489 1_555
O11 Sr7 2.680848 1_545
O11 Sr6 3.185598 1_556
O12 Sr4 2.421932 1_655
O12 Sr1 2.622978 1_555
O12 Sr3 2.773898 1_655
O12 Sr3 2.962055 1_555
O13 Sr2 2.384976 1_455
O13 Sr5 2.454137 1_555
O14 Sr0 2.467859 1_655
O14 Sr6 2.684009 1_655
O14 Sr6 3.011945 1_555
O15 Sr1 2.490283 1_555
O15 Sr7 2.838854 1_655
O15 Sr7 2.853870 1_555
O15 Sr4 3.095503 1_655
O16 Sr3 2.488563 1_555
O16 Sr4 2.703582 1_555
O16 Sr4 3.005891 1_655
O17 Sr2 2.454354 1_555
O17 Sr6 2.488740 1_555
O17 Sr0 2.564080 1_655
O18 Sr7 2.434296 1_555
O18 Sr3 2.523142 1_555
O18 Sr1 2.828352 1_455
O18 Sr1 2.934264 1_555
O19 Sr2 2.631154 1_555
O19 Sr5 2.768535 1_555
