# generated using pymatgen
data_MgMn6(O2F)4
_symmetry_space_group_name_H-M   'P 1'
_cell_length_a   5.21689296
_cell_length_b   5.20395043
_cell_length_c   8.87883923
_cell_angle_alpha   89.05315846
_cell_angle_beta   88.34893258
_cell_angle_gamma   90.82111547
_symmetry_Int_Tables_number   1
_chemical_formula_structural   MgMn6(O2F)4
_chemical_formula_sum   'Mg1 Mn6 O8 F4'
_cell_volume   240.88732953
_cell_formula_units_Z   1
loop_
 _symmetry_equiv_pos_site_id
 _symmetry_equiv_pos_as_xyz
  1  'x, y, z'
loop_
 _atom_site_type_symbol
 _atom_site_label
 _atom_site_symmetry_multiplicity
 _atom_site_fract_x
 _atom_site_fract_y
 _atom_site_fract_z
 _atom_site_occupancy
  Mg  Mg0  1  0.97150900  0.50731700  0.51660400  1
  Mn  Mn0  1  0.06340200  0.02568900  0.00734200  1
  Mn  Mn1  1  0.06058100  0.02141700  0.32585500  1
  Mn  Mn2  1  0.02807000  0.99367300  0.68063300  1
  Mn  Mn3  1  0.45269000  0.50821300  0.82454700  1
  Mn  Mn4  1  0.44004600  0.51216100  0.16486500  1
  Mn  Mn5  1  0.46097100  0.52192600  0.50770700  1
  O  O0  1  0.22816700  0.83886500  0.16432100  1
  O  O1  1  0.18409400  0.83127800  0.50652100  1
  O  O2  1  0.20372200  0.83632900  0.83662900  1
  O  O3  1  0.29439900  0.31979500  0.99106500  1
  O  O4  1  0.25379200  0.37065400  0.35725900  1
  O  O5  1  0.25119400  0.35765100  0.66317100  1
  O  O6  1  0.68739900  0.63181100  0.65836800  1
  O  O7  1  0.86290800  0.14314700  0.16943400  1
  F  F0  1  0.66891800  0.64339500  0.98472300  1
  F  F1  1  0.72197700  0.62810600  0.35294300  1
  F  F2  1  0.81426900  0.15937800  0.51004900  1
  F  F3  1  0.82411600  0.14919400  0.84224800  1
loop_
_geom_bond_atom_site_label_1
_geom_bond_atom_site_label_2
_geom_bond_distance
_geom_bond_site_symmetry_2
Mg0 O1 2.003959 1_655
Mg0 O6 2.036626 1_555
Mg0 O5 2.130150 1_655
Mg0 O4 2.149261 1_655
Mn0 O7 1.870712 1_455
Mn0 O0 1.917009 1_545
Mn0 O3 1.935299 1_554
Mn0 O2 1.952044 1_544
Mn1 O7 1.861664 1_455
Mn1 O0 1.928847 1_545
Mn1 O1 1.998194 1_545
Mn1 O4 2.092166 1_555
Mn2 O2 1.867010 1_555
Mn2 O1 1.938284 1_555
Mn2 O5 2.209836 1_565
Mn2 O6 2.584650 1_455
Mn3 O3 1.920362 1_555
Mn3 O5 1.967786 1_555
Mn3 O6 1.982920 1_555
Mn3 O2 2.162322 1_555
Mn4 O3 2.014341 1_554
Mn4 O0 2.041136 1_555
Mn4 O4 2.060765 1_555
Mn5 O6 1.899672 1_555
Mn5 O4 1.914637 1_555
Mn5 O5 1.918585 1_555
Mn5 O1 2.178325 1_555
F0 Mn3 1.972995 1_555
F0 Mn4 2.069001 1_556
F1 Mn5 1.973100 1_555
F1 Mg0 2.074506 1_555
F1 Mn4 2.337805 1_555
F1 Mn1 2.687587 1_665
F2 Mg0 1.979502 1_555
F2 Mn2 2.088873 1_645
F2 Mn1 2.187555 1_655
F2 Mn5 2.656626 1_555
F3 Mn2 1.954811 1_645
F3 Mn0 2.053633 1_656
