# generated using pymatgen
data_Y6UO12
_symmetry_space_group_name_H-M   'P 1'
_cell_length_a   6.53478681
_cell_length_b   6.53478680
_cell_length_c   6.53478693
_cell_angle_alpha   99.05869272
_cell_angle_beta   99.05867946
_cell_angle_gamma   99.05869725
_symmetry_Int_Tables_number   1
_chemical_formula_structural   Y6UO12
_chemical_formula_sum   'Y6 U1 O12'
_cell_volume   267.34650443
_cell_formula_units_Z   1
loop_
 _symmetry_equiv_pos_site_id
 _symmetry_equiv_pos_as_xyz
  1  'x, y, z'
loop_
 _atom_site_type_symbol
 _atom_site_label
 _atom_site_symmetry_multiplicity
 _atom_site_fract_x
 _atom_site_fract_y
 _atom_site_fract_z
 _atom_site_occupancy
  Y  Y0  1  0.67927090  0.39071195  0.85510934  1
  Y  Y1  1  0.39071195  0.85510934  0.67927090  1
  Y  Y2  1  0.85510934  0.67927090  0.39071195  1
  Y  Y3  1  0.32072910  0.60928805  0.14489066  1
  Y  Y4  1  0.60928805  0.14489066  0.32072910  1
  Y  Y5  1  0.14489066  0.32072910  0.60928805  1
  U  U0  1  -0.00000000  -0.00000000  0.00000000  1
  O  O0  1  0.42751324  0.17722291  0.58795105  1
  O  O1  1  0.17722291  0.58795105  0.42751324  1
  O  O2  1  0.58795105  0.42751324  0.17722291  1
  O  O3  1  0.57248676  0.82277709  0.41204895  1
  O  O4  1  0.82277709  0.41204895  0.57248676  1
  O  O5  1  0.41204895  0.57248676  0.82277709  1
  O  O6  1  0.04713558  0.92222347  0.69146866  1
  O  O7  1  0.30853134  0.95286442  0.07777653  1
  O  O8  1  0.07777653  0.30853134  0.95286442  1
  O  O9  1  0.95286442  0.07777653  0.30853134  1
  O  O10  1  0.69146866  0.04713558  0.92222347  1
  O  O11  1  0.92222347  0.69146866  0.04713558  1
loop_
_geom_bond_atom_site_label_1
_geom_bond_atom_site_label_2
_geom_bond_distance
_geom_bond_site_symmetry_2
O0 Y5 2.212495 1_555
O0 Y4 2.262968 1_555
O0 Y1 2.264084 1_545
O0 Y0 2.303631 1_555
O1 Y3 2.212495 1_555
O1 Y5 2.262969 1_555
O1 Y2 2.264084 1_455
O1 Y1 2.303631 1_555
O2 Y4 2.212495 1_555
O2 Y3 2.262969 1_555
O2 Y0 2.264084 1_554
O2 Y2 2.303631 1_555
O3 Y2 2.212495 1_555
O3 Y1 2.262968 1_555
O3 Y4 2.264084 1_565
O3 Y3 2.303631 1_555
O4 Y0 2.212495 1_555
O4 Y2 2.262969 1_555
O4 Y5 2.264084 1_655
O4 Y4 2.303631 1_555
O5 Y1 2.212495 1_555
O5 Y0 2.262969 1_555
O5 Y3 2.264084 1_556
O5 Y5 2.303631 1_555
O6 U0 2.083358 1_566
O6 Y2 2.360395 1_455
O6 Y1 2.365383 1_555
O6 Y5 2.739095 1_565
O7 U0 2.083358 1_565
O7 Y4 2.360395 1_565
O7 Y3 2.365383 1_555
O7 Y1 2.739095 1_554
O8 U0 2.083358 1_556
O8 Y3 2.360395 1_556
O8 Y5 2.365383 1_555
O8 Y0 2.739095 1_455
O9 U0 2.083358 1_655
O9 Y5 2.360395 1_655
O9 Y4 2.365383 1_555
O9 Y2 2.739095 1_545
O10 U0 2.083358 1_656
O10 Y1 2.360395 1_545
O10 Y0 2.365383 1_555
O10 Y4 2.739095 1_556
O11 U0 2.083358 1_665
O11 Y0 2.360395 1_554
O11 Y2 2.365383 1_555
O11 Y3 2.739095 1_655
