# generated using pymatgen
data_Na2Zr4Al4Si3(S3O16)3
_symmetry_space_group_name_H-M   'P 1'
_cell_length_a   17.43941568
_cell_length_b   8.72907428
_cell_length_c   22.64965529
_cell_angle_alpha   89.81808451
_cell_angle_beta   90.54275827
_cell_angle_gamma   120.04329854
_symmetry_Int_Tables_number   1
_chemical_formula_structural   Na2Zr4Al4Si3(S3O16)3
_chemical_formula_sum   'Na6 Zr12 Al12 Si9 S27 O144'
_cell_volume   2984.57501294
_cell_formula_units_Z   3
loop_
 _symmetry_equiv_pos_site_id
 _symmetry_equiv_pos_as_xyz
  1  'x, y, z'
loop_
 _atom_site_type_symbol
 _atom_site_label
 _atom_site_symmetry_multiplicity
 _atom_site_fract_x
 _atom_site_fract_y
 _atom_site_fract_z
 _atom_site_occupancy
  Na  Na0  1  0.99514617  0.00617150  0.50008167  1
  Na  Na1  1  0.49573678  0.98729880  0.00437027  1
  Na  Na2  1  0.33018829  0.32669653  0.84230191  1
  Na  Na3  1  0.82585925  0.32924872  0.83502562  1
  Na  Na4  1  0.32891149  0.32389449  0.33351305  1
  Na  Na5  1  0.82093222  0.31894739  0.33802754  1
  Zr  Zr0  1  0.51141852  0.01335624  0.35812272  1
  Zr  Zr1  1  0.00368935  0.99867081  0.86076900  1
  Zr  Zr2  1  0.50617365  0.02146775  0.64417822  1
  Zr  Zr3  1  0.00539715  0.98914320  0.14478770  1
  Zr  Zr4  1  0.33897759  0.33572741  0.68901454  1
  Zr  Zr5  1  0.83270264  0.33589351  0.68846887  1
  Zr  Zr6  1  0.33399816  0.33165365  0.18995001  1
  Zr  Zr7  1  0.83575288  0.33576336  0.19245047  1
  Zr  Zr8  1  0.16492737  0.67769078  0.02398200  1
  Zr  Zr9  1  0.65913876  0.66187767  0.02479725  1
  Zr  Zr10  1  0.15943134  0.65807629  0.52302469  1
  Zr  Zr11  1  0.66514178  0.65551242  0.52155472  1
  Al  Al0  1  0.00326772  0.00169319  0.34971117  1
  Al  Al1  1  0.50376436  0.00580793  0.85069226  1
  Al  Al2  1  0.99573413  0.00863531  0.64573536  1
  Al  Al3  1  0.49994433  0.96725794  0.15044681  1
  Al  Al4  1  0.33290930  0.33127690  0.98286521  1
  Al  Al5  1  0.83006214  0.33665892  0.98368211  1
  Al  Al6  1  0.33422557  0.32853324  0.47849637  1
  Al  Al7  1  0.83426319  0.32413100  0.47668990  1
  Al  Al8  1  0.16771218  0.67539817  0.31023779  1
  Al  Al9  1  0.66926500  0.65968319  0.31095896  1
  Al  Al10  1  0.17181701  0.68678922  0.81790634  1
  Al  Al11  1  0.66489806  0.65561334  0.81154653  1
  Si  Si0  1  0.14418900  0.99183215  0.25828374  1
  Si  Si1  1  0.64219293  0.97515127  0.25004906  1
  Si  Si2  1  0.64454215  0.29713411  0.75802322  1
  Si  Si3  1  0.47286004  0.33162017  0.57743708  1
  Si  Si4  1  0.96778461  0.31191929  0.58093762  1
  Si  Si5  1  0.46614728  0.62428393  0.07995966  1
  Si  Si6  1  0.97053015  0.61181253  0.07893175  1
  Si  Si7  1  0.18234001  0.97436847  0.91563230  1
  Si  Si8  1  0.68093664  0.39313017  0.41397068  1
  S  S0  1  0.35148361  0.71786765  0.25122077  1
  S  S1  1  0.85421936  0.72082871  0.25516427  1
  S  S2  1  0.00686648  0.29361461  0.25697969  1
  S  S3  1  0.50668001  0.28998331  0.24851218  1
  S  S4  1  0.14018210  0.29812889  0.75001124  1
  S  S5  1  0.00883394  0.72287901  0.74895979  1
  S  S6  1  0.50456759  0.71745757  0.75708163  1
  S  S7  1  0.35122194  0.98302569  0.75516387  1
  S  S8  1  0.85260335  0.98589032  0.75039078  1
  S  S9  1  0.18523678  0.05215170  0.58223658  1
  S  S10  1  0.69217477  0.05391915  0.57846726  1
  S  S11  1  0.33487014  0.61429664  0.57919983  1
  S  S12  1  0.84260905  0.63458949  0.58302987  1
  S  S13  1  0.34310916  0.05423969  0.08287548  1
  S  S14  1  0.83534327  0.05665315  0.07913435  1
  S  S15  1  0.19179610  0.32937627  0.07873389  1
  S  S16  1  0.68612563  0.31880702  0.08095675  1
  S  S17  1  0.31637730  0.67263120  0.91130038  1
  S  S18  1  0.80464004  0.65020658  0.91580774  1
  S  S19  1  0.01843773  0.38830139  0.91387120  1
  S  S20  1  0.52097318  0.37130394  0.91281930  1
  S  S21  1  0.66703646  0.96063365  0.91325911  1
  S  S22  1  0.30611943  0.95954682  0.41568409  1
  S  S23  1  0.81870922  0.96385955  0.41293340  1
  S  S24  1  0.16772018  0.37336083  0.41398722  1
  S  S25  1  0.01995658  0.66869788  0.41277845  1
  S  S26  1  0.51420791  0.64712059  0.41566757  1
  O  O0  1  0.09448117  0.02894668  0.31107456  1
  O  O1  1  0.60189064  0.02525468  0.30756890  1
  O  O2  1  0.40694740  0.79478737  0.30396335  1
  O  O3  1  0.91144801  0.80665272  0.30693739  1
  O  O4  1  0.48558407  0.17774124  0.30203526  1
  O  O5  1  0.98672496  0.17260258  0.30773073  1
  O  O6  1  0.10205602  0.18376494  0.80284895  1
  O  O7  1  0.59389569  0.15912083  0.81054953  1
  O  O8  1  0.48516770  0.79871182  0.80751251  1
  O  O9  1  0.99136054  0.80114864  0.80198128  1
  O  O10  1  0.40959523  0.01687242  0.80669962  1
  O  O11  1  0.90969768  0.02102875  0.80304269  1
  O  O12  1  0.39017205  0.96196649  0.70024026  1
  O  O13  1  0.89497371  0.96010111  0.69757802  1
  O  O14  1  0.08537873  0.20787741  0.69684343  1
  O  O15  1  0.58829962  0.20704866  0.69581108  1
  O  O16  1  0.01808987  0.83125845  0.69620318  1
  O  O17  1  0.51406534  0.81107677  0.70129053  1
  O  O18  1  0.39157368  0.82546048  0.19744905  1
  O  O19  1  0.89314143  0.82239860  0.20024325  1
  O  O20  1  0.01648680  0.21818788  0.20142687  1
  O  O21  1  0.51288545  0.20034206  0.19546186  1
  O  O22  1  0.08837935  0.96911269  0.19579308  1
  O  O23  1  0.58159072  0.95956073  0.19282087  1
  O  O24  1  0.43043556  0.35622476  0.63987718  1
  O  O25  1  0.93084696  0.35410351  0.64083118  1
  O  O26  1  0.24039733  0.12990403  0.63630795  1
  O  O27  1  0.74164984  0.13187632  0.63444069  1
  O  O28  1  0.31676064  0.50530212  0.63402761  1
  O  O29  1  0.82183834  0.52264299  0.63687780  1
  O  O30  1  0.42898453  0.50697655  0.13929494  1
  O  O31  1  0.92864192  0.50079375  0.13922870  1
  O  O32  1  0.32104217  0.12359481  0.13578932  1
  O  O33  1  0.81638775  0.12637199  0.13295419  1
  O  O34  1  0.24159702  0.35210773  0.13416103  1
  O  O35  1  0.74076260  0.35170672  0.13445643  1
  O  O36  1  0.23199810  0.29575153  0.02725130  1
  O  O37  1  0.72690149  0.29008960  0.02736880  1
  O  O38  1  0.40927366  0.52316901  0.02147898  1
  O  O39  1  0.91095105  0.51742998  0.02136836  1
  O  O40  1  0.35207414  0.16065922  0.02970268  1
  O  O41  1  0.84224714  0.15991552  0.02529739  1
  O  O42  1  0.22440507  0.16303447  0.52934608  1
  O  O43  1  0.73269985  0.16838851  0.52723921  1
  O  O44  1  0.34211330  0.52414464  0.52654506  1
  O  O45  1  0.85468524  0.55101302  0.53089264  1
  O  O46  1  0.40828199  0.30384313  0.52326203  1
  O  O47  1  0.90875329  0.29562748  0.52344651  1
  O  O48  1  0.27969271  0.70390174  0.96528406  1
  O  O49  1  0.76855786  0.68283284  0.96933248  1
  O  O50  1  0.07301447  0.45805585  0.96761006  1
  O  O51  1  0.57670392  0.44626269  0.96727284  1
  O  O52  1  0.15891717  0.84865822  0.97304396  1
  O  O53  1  0.65405916  0.85213068  0.96706130  1
  O  O54  1  0.26748442  0.85525436  0.46998613  1
  O  O55  1  0.78246168  0.86193699  0.46802984  1
  O  O56  1  0.15470221  0.45590997  0.46796091  1
  O  O57  1  0.66337908  0.47594980  0.47357075  1
  O  O58  1  0.07564475  0.70505747  0.46784255  1
  O  O59  1  0.56954285  0.68422746  0.46969188  1
  O  O60  1  0.06489397  0.63942010  0.36305020  1
  O  O61  1  0.55588581  0.62016385  0.36418978  1
  O  O62  1  0.24932611  0.86709619  0.36391433  1
  O  O63  1  0.76082635  0.87879887  0.36164151  1
  O  O64  1  0.18306125  0.48875799  0.36251729  1
  O  O65  1  0.68781145  0.51461681  0.35784048  1
  O  O66  1  0.06340996  0.49925350  0.86147726  1
  O  O67  1  0.56585382  0.49090305  0.86249139  1
  O  O68  1  0.19080768  0.87504214  0.85802102  1
  O  O69  1  0.68219139  0.87593155  0.86150837  1
  O  O70  1  0.25607756  0.64066334  0.85930317  1
  O  O71  1  0.75034332  0.63411364  0.86324992  1
  O  O72  1  0.00843730  0.82618200  0.40625276  1
  O  O73  1  0.49972722  0.79947383  0.40987371  1
  O  O74  1  0.39479960  0.98474175  0.40877191  1
  O  O75  1  0.90983140  0.98551677  0.40532437  1
  O  O76  1  0.08675570  0.19656379  0.40872912  1
  O  O77  1  0.59056248  0.20000750  0.41049730  1
  O  O78  1  0.00627046  0.20790447  0.90581422  1
  O  O79  1  0.50966321  0.19090266  0.90568375  1
  O  O80  1  0.09368121  0.99412186  0.90687733  1
  O  O81  1  0.58549710  0.97430290  0.90758327  1
  O  O82  1  0.40639016  0.83424618  0.90236064  1
  O  O83  1  0.89524114  0.80441370  0.90819045  1
  O  O84  1  0.47907291  0.15385502  0.58753697  1
  O  O85  1  0.98196636  0.14272497  0.59224310  1
  O  O86  1  0.09609794  0.02790949  0.59195741  1
  O  O87  1  0.60166934  0.02493948  0.58579202  1
  O  O88  1  0.41542256  0.78355736  0.58825926  1
  O  O89  1  0.92540575  0.80651137  0.59430511  1
  O  O90  1  0.47776630  0.81946408  0.08934067  1
  O  O91  1  0.97969039  0.80573587  0.08700147  1
  O  O92  1  0.42480268  0.04737104  0.09212195  1
  O  O93  1  0.91594835  0.04777884  0.08685203  1
  O  O94  1  0.10133432  0.17833203  0.08526399  1
  O  O95  1  0.59695043  0.16671641  0.08740837  1
  O  O96  1  0.33988005  0.14376166  0.74964497  1
  O  O97  1  0.84371019  0.14644222  0.74413842  1
  O  O98  1  0.23034948  0.31800794  0.74364575  1
  O  O99  1  0.74276353  0.31497816  0.75022534  1
  O  O100  1  0.42348431  0.53340013  0.75202681  1
  O  O101  1  0.92827749  0.54368060  0.74459115  1
  O  O102  1  0.34184914  0.53829486  0.24458849  1
  O  O103  1  0.84672582  0.54209243  0.25005834  1
  O  O104  1  0.42748180  0.31609307  0.24438625  1
  O  O105  1  0.92769148  0.31807477  0.25184577  1
  O  O106  1  0.24201824  0.17011922  0.24983833  1
  O  O107  1  0.74113075  0.15474868  0.24350848  1
  O  O108  1  0.32542361  0.51371768  0.91693502  1
  O  O109  1  0.81102493  0.48649126  0.92128014  1
  O  O110  1  0.43439982  0.35859787  0.92041823  1
  O  O111  1  0.92860150  0.36599520  0.91967302  1
  O  O112  1  0.26606857  0.17010382  0.92767306  1
  O  O113  1  0.74711810  0.14046347  0.92221289  1
  O  O114  1  0.31084531  0.13593910  0.42157060  1
  O  O115  1  0.82802197  0.14321012  0.41974987  1
  O  O116  1  0.24781617  0.35406670  0.42352168  1
  O  O117  1  0.76538794  0.36430394  0.42634829  1
  O  O118  1  0.42357054  0.48663486  0.42316130  1
  O  O119  1  0.93358625  0.50753114  0.42148324  1
  O  O120  1  0.18760097  0.49158438  0.07099886  1
  O  O121  1  0.68106096  0.48299025  0.07232552  1
  O  O122  1  0.06899752  0.63437369  0.07542325  1
  O  O123  1  0.56606481  0.64861669  0.07050311  1
  O  O124  1  0.26743892  0.87164576  0.07573202  1
  O  O125  1  0.75858759  0.87477053  0.07130231  1
  O  O126  1  0.17877621  0.87726431  0.57489403  1
  O  O127  1  0.68748448  0.88311343  0.57264684  1
  O  O128  1  0.25787089  0.64129876  0.57277634  1
  O  O129  1  0.76832044  0.66882816  0.57678124  1
  O  O130  1  0.06728545  0.48655535  0.57113308  1
  O  O131  1  0.57008972  0.50505221  0.57571922  1
  O  O132  1  0.15316555  0.81969308  0.26609380  1
  O  O133  1  0.65134007  0.80638113  0.26693799  1
  O  O134  1  0.26255872  0.69384987  0.26039031  1
  O  O135  1  0.76615640  0.69865240  0.26066050  1
  O  O136  1  0.08632109  0.46605616  0.26780237  1
  O  O137  1  0.58606057  0.46261879  0.25744876  1
  O  O138  1  0.14844379  0.47182932  0.76006253  1
  O  O139  1  0.65369053  0.48759582  0.76593402  1
  O  O140  1  0.08726548  0.70429496  0.75855016  1
  O  O141  1  0.58318179  0.70048285  0.76751033  1
  O  O142  1  0.26354532  0.82432442  0.76163978  1
  O  O143  1  0.76453915  0.83161067  0.76021432  1
loop_
_geom_bond_atom_site_label_1
_geom_bond_atom_site_label_2
_geom_bond_distance
_geom_bond_site_symmetry_2
Na0 O85 2.475929 1_555
Na0 O75 2.554563 1_545
Na0 O89 2.640894 1_545
Na0 O76 2.641553 1_655
Na0 O86 2.657907 1_655
Na0 O72 2.726507 1_645
Na1 O90 2.341419 1_555
Na1 O95 2.508694 1_565
Na1 O92 2.541323 1_565
Na1 O82 2.723611 1_554
Na1 O81 2.741050 1_554
Na1 O79 2.786884 1_564
Na2 O112 2.313317 1_555
Na2 O108 2.384438 1_555
Na2 O110 2.438515 1_555
Na2 O100 2.680241 1_555
Na2 O96 2.698347 1_555
Na2 O98 2.797417 1_555
Na3 O99 2.360643 1_555
Na3 O109 2.479870 1_555
Na3 O113 2.503164 1_555
Na3 O111 2.520404 1_555
Na3 O97 2.722384 1_555
Na3 O101 2.754403 1_555
Na4 O106 2.369584 1_555
Na4 O114 2.498508 1_555
Na4 O118 2.544163 1_555
Na4 O116 2.580046 1_555
Na4 O102 2.678056 1_555
Na4 O104 2.686741 1_555
Na5 O117 2.350010 1_555
Na5 O115 2.441762 1_555
Na5 O107 2.557343 1_555
Na5 O119 2.617955 1_555
Na5 O103 2.661091 1_555
Na5 O105 2.712901 1_555
Al0 O0 1.731731 1_555
Al0 O5 1.905203 1_455
Al0 O3 1.911172 1_445
Al0 O75 2.017210 1_445
Al0 O72 2.029537 1_545
Al0 O76 2.073144 1_555
Al1 O7 1.732450 1_555
Al1 O8 1.935932 1_545
Al1 O10 1.956115 1_555
Al1 O82 1.994007 1_545
Al1 O79 2.004090 1_555
Al1 O81 2.030557 1_545
Al2 O85 1.778337 1_555
Al2 O89 1.947653 1_545
Al2 O13 1.984072 1_545
Al2 O14 2.016143 1_655
Al2 O86 2.078385 1_655
Al2 O16 2.107304 1_645
Al3 O23 1.738544 1_555
Al3 O90 1.797519 1_555
Al3 O18 1.981063 1_555
Al3 O21 2.186122 1_565
Al3 O92 2.197802 1_565
Al3 O95 2.238888 1_565
Al4 O38 1.760058 1_556
Al4 O112 1.800632 1_555
Al4 O36 1.920666 1_556
Al4 O40 1.984163 1_556
Al4 O110 2.193789 1_555
Al4 O108 2.229918 1_555
Al5 O39 1.722029 1_556
Al5 O41 1.905018 1_556
Al5 O37 1.918291 1_556
Al5 O109 2.057336 1_555
Al5 O113 2.111922 1_555
Al5 O111 2.173658 1_555
Al6 O46 1.730603 1_555
Al6 O118 1.943206 1_555
Al6 O44 1.972978 1_555
Al6 O114 1.993096 1_555
Al6 O116 2.042041 1_555
Al6 O42 2.083820 1_555
Al7 O47 1.779580 1_555
Al7 O117 1.805296 1_555
Al7 O43 1.978302 1_555
Al7 O115 2.001838 1_555
Al7 O119 2.092473 1_555
Al7 O45 2.203900 1_555
Al8 O132 1.719793 1_555
Al8 O136 1.914659 1_555
Al8 O134 1.950398 1_555
Al8 O62 1.974658 1_555
Al8 O60 2.054030 1_555
Al8 O64 2.132246 1_555
Al9 O133 1.765908 1_555
Al9 O65 1.797416 1_555
Al9 O135 1.930607 1_555
Al9 O137 2.003514 1_555
Al9 O63 2.108768 1_555
Al9 O61 2.200396 1_555
Al10 O68 1.759089 1_555
Al10 O142 1.931413 1_555
Al10 O70 1.940227 1_555
Al10 O66 2.038159 1_555
Al10 O140 2.047375 1_555
Al10 O138 2.154796 1_555
Al11 O139 1.724906 1_555
Al11 O141 1.925764 1_555
Al11 O71 1.967897 1_555
Al11 O67 1.980569 1_555
Al11 O143 2.021227 1_555
Al11 O69 2.120544 1_555
O0 Si0 1.609170 1_545
O1 Si1 1.646615 1_545
O1 Zr0 1.918502 1_555
O2 S0 1.465055 1_555
O2 Zr0 2.226247 1_565
O3 S1 1.472123 1_555
O4 S3 1.484890 1_555
O4 Zr0 2.121495 1_555
O5 S2 1.479509 1_655
O6 S4 1.487870 1_555
O6 Zr1 2.127949 1_545
O7 Si2 1.610040 1_555
O8 S6 1.474786 1_555
O9 S5 1.490794 1_655
O9 Zr1 2.104745 1_655
O10 S7 1.471270 1_545
O11 S8 1.477049 1_545
O11 Zr1 2.170839 1_645
O12 S7 1.478251 1_555
O12 Zr2 2.228683 1_565
O13 S8 1.487467 1_555
O14 S4 1.488137 1_555
O15 Si2 1.665675 1_555
O15 Zr2 1.923614 1_555
O16 S5 1.480699 1_555
O17 S6 1.467633 1_555
O17 Zr2 2.302108 1_565
O18 S0 1.485114 1_555
O19 S1 1.483444 1_555
O19 Zr3 2.170370 1_655
O20 S2 1.471296 1_555
O20 Zr3 2.303244 1_545
O21 S3 1.470032 1_555
O22 Si0 1.665041 1_555
O22 Zr3 1.918298 1_555
O23 Si1 1.626889 1_555
O24 Si3 1.665676 1_555
O24 Zr4 1.887118 1_555
O25 Si4 1.627289 1_555
O25 Zr5 1.969883 1_555
O26 S9 1.488328 1_555
O26 Zr4 2.119100 1_555
O27 S10 1.487156 1_555
O27 Zr5 2.082289 1_555
O28 S11 1.498714 1_555
O28 Zr4 2.108489 1_555
O29 S12 1.489965 1_555
O29 Zr5 2.086073 1_555
O30 Si5 1.618011 1_555
O30 Zr6 1.972033 1_555
O31 Si6 1.624676 1_555
O31 Zr7 1.960056 1_555
O32 S13 1.482431 1_555
O32 Zr6 2.110058 1_555
O33 S14 1.476280 1_555
O33 Zr7 2.158648 1_555
O34 S15 1.475830 1_555
O34 Zr6 2.115024 1_555
O35 S16 1.471410 1_555
O35 Zr7 2.162746 1_555
O36 S15 1.470070 1_555
O37 S16 1.496153 1_555
O38 Si5 1.619639 1_555
O39 Si6 1.606929 1_555
O40 S13 1.479482 1_555
O41 S14 1.483588 1_555
O42 S9 1.478053 1_555
O43 S10 1.464671 1_555
O44 S11 1.471702 1_555
O45 S12 1.461204 1_555
O46 Si3 1.592184 1_555
O47 Si4 1.613947 1_555
O48 S17 1.473303 1_555
O48 Zr8 2.327146 1_556
O49 S18 1.463854 1_555
O49 Zr9 2.224262 1_556
O50 S19 1.469900 1_555
O50 Zr8 2.185149 1_556
O51 S20 1.496513 1_555
O51 Zr9 2.139500 1_556
O52 Si7 1.616817 1_555
O52 Zr8 1.926837 1_556
O53 S21 1.488801 1_555
O53 Zr9 2.146458 1_556
O54 S22 1.479819 1_555
O54 Zr10 2.176843 1_555
O55 S23 1.480942 1_555
O55 Zr11 2.290035 1_555
O56 S24 1.496629 1_555
O56 Zr10 2.131384 1_555
O57 Si8 1.635347 1_555
O57 Zr11 1.897591 1_555
O58 S25 1.506750 1_555
O58 Zr10 2.104178 1_555
O59 S26 1.483441 1_555
O59 Zr11 2.145152 1_555
O60 S25 1.472136 1_555
O61 S26 1.460193 1_555
O62 S22 1.480141 1_555
O63 S23 1.467208 1_555
O64 S24 1.474412 1_555
O65 Si8 1.619339 1_555
O66 S19 1.486989 1_555
O67 S20 1.480902 1_555
O68 Si7 1.617183 1_555
O69 S21 1.482384 1_555
O70 S17 1.501842 1_555
O71 S18 1.476471 1_555
O72 S25 1.492195 1_555
O73 S26 1.477899 1_555
O73 Zr0 2.123825 1_565
O74 S22 1.458915 1_555
O74 Zr0 2.246855 1_565
O75 S23 1.514894 1_555
O76 S24 1.485131 1_555
O77 Si8 1.634061 1_555
O77 Zr0 1.922593 1_555
O78 S19 1.491482 1_555
O78 Zr1 2.075426 1_545
O79 S20 1.494933 1_555
O80 Si7 1.649419 1_555
O80 Zr1 1.893763 1_555
O81 S21 1.489691 1_555
O82 S17 1.510679 1_555
O83 S18 1.487366 1_555
O83 Zr1 2.102767 1_655
O84 Si3 1.624052 1_555
O84 Zr2 1.931490 1_555
O85 Si4 1.634059 1_555
O86 S9 1.478722 1_555
O87 S10 1.479068 1_555
O87 Zr2 2.124662 1_555
O88 S11 1.454887 1_555
O88 Zr2 2.260404 1_565
O89 S12 1.492643 1_555
O90 Si5 1.626267 1_555
O91 Si6 1.629429 1_555
O91 Zr3 1.939247 1_655
O92 S13 1.468669 1_555
O93 S14 1.454943 1_555
O93 Zr3 2.274583 1_645
O94 S15 1.472926 1_555
O94 Zr3 2.146178 1_545
O95 S16 1.462243 1_555
O96 S7 1.516468 1_545
O96 Zr4 2.169190 1_555
O97 S8 1.491371 1_545
O97 Zr5 2.159073 1_555
O98 S4 1.501487 1_555
O98 Zr4 2.212152 1_555
O99 Si2 1.651654 1_555
O99 Zr5 2.050177 1_555
O100 S6 1.522238 1_555
O100 Zr4 2.148420 1_555
O101 S5 1.492714 1_655
O101 Zr5 2.152011 1_555
O102 S0 1.498388 1_555
O102 Zr6 2.137189 1_555
O103 S1 1.503790 1_555
O103 Zr7 2.155929 1_555
O104 S3 1.510275 1_555
O104 Zr6 2.092632 1_555
O105 S2 1.502539 1_655
O105 Zr7 2.147110 1_555
O106 Si0 1.647725 1_545
O106 Zr6 2.040966 1_555
O107 Si1 1.658799 1_545
O107 Zr7 1.992689 1_555
O108 S17 1.477510 1_555
O109 S18 1.492645 1_555
O110 S20 1.469189 1_555
O111 S19 1.485930 1_655
O112 Si7 1.619591 1_545
O113 S21 1.502390 1_545
O114 S22 1.506453 1_545
O115 S23 1.499223 1_545
O116 S24 1.501913 1_555
O117 Si8 1.635176 1_555
O118 S26 1.508688 1_555
O119 S25 1.472716 1_655
O120 S15 1.463831 1_555
O120 Zr8 2.133954 1_555
O121 S16 1.491520 1_555
O121 Zr9 2.079100 1_555
O122 Si6 1.630270 1_455
O122 Zr8 1.923543 1_555
O123 Si5 1.662376 1_555
O123 Zr9 1.887500 1_555
O124 S13 1.483095 1_565
O124 Zr8 2.092488 1_555
O125 S14 1.487694 1_565
O125 Zr9 2.078817 1_555
O126 S9 1.483208 1_565
O126 Zr10 2.124903 1_555
O127 S10 1.458083 1_565
O127 Zr11 2.160800 1_555
O128 S11 1.480843 1_555
O128 Zr10 2.110086 1_555
O129 S12 1.473693 1_555
O129 Zr11 2.136534 1_555
O130 Si4 1.655495 1_455
O130 Zr10 1.903946 1_555
O131 Si3 1.612163 1_555
O131 Zr11 1.956055 1_555
O132 Si0 1.595924 1_555
O133 Si1 1.603962 1_555
O134 S0 1.473884 1_555
O135 S1 1.455107 1_555
O136 S2 1.467419 1_555
O137 S3 1.461521 1_555
O138 S4 1.467790 1_555
O139 Si2 1.599187 1_555
O140 S5 1.469932 1_555
O141 S6 1.467788 1_555
O142 S7 1.469878 1_555
O143 S8 1.468125 1_555
