# generated using pymatgen
data_BaCuO2
_symmetry_space_group_name_H-M   'P 1'
_cell_length_a   5.74511433
_cell_length_b   11.73081400
_cell_length_c   3.76754746
_cell_angle_alpha   90.00093275
_cell_angle_beta   90.00395148
_cell_angle_gamma   89.99803389
_symmetry_Int_Tables_number   1
_chemical_formula_structural   BaCuO2
_chemical_formula_sum   'Ba4 Cu4 O8'
_cell_volume   253.91336118
_cell_formula_units_Z   4
loop_
 _symmetry_equiv_pos_site_id
 _symmetry_equiv_pos_as_xyz
  1  'x, y, z'
loop_
 _atom_site_type_symbol
 _atom_site_label
 _atom_site_symmetry_multiplicity
 _atom_site_fract_x
 _atom_site_fract_y
 _atom_site_fract_z
 _atom_site_occupancy
  Ba  Ba0  1  0.23672800  0.11282500  0.49951500  1
  Ba  Ba1  1  0.26342700  0.38769800  0.49891100  1
  Ba  Ba2  1  0.73667400  0.88768400  0.50101300  1
  Ba  Ba3  1  0.76319100  0.61282300  0.50048000  1
  Cu  Cu0  1  0.24310900  0.87410400  0.00046300  1
  Cu  Cu1  1  0.25674000  0.62647300  0.00005900  1
  Cu  Cu2  1  0.74319500  0.12646600  0.99993200  1
  Cu  Cu3  1  0.75694000  0.37411300  0.99959500  1
  O  O0  1  0.02073000  0.74816600  0.00047100  1
  O  O1  1  0.97926700  0.24813900  0.99955300  1
  O  O2  1  0.00929700  0.49796600  0.99986300  1
  O  O3  1  0.49019700  0.00233800  0.00031000  1
  O  O4  1  0.47901900  0.75243800  0.00087000  1
  O  O5  1  0.52098100  0.25246300  0.99914900  1
  O  O6  1  0.50977700  0.50241600  0.99968600  1
  O  O7  1  0.99072700  0.99788800  0.00012900  1
loop_
_geom_bond_atom_site_label_1
_geom_bond_atom_site_label_2
_geom_bond_distance
_geom_bond_site_symmetry_2
Ba0 O3 2.708860 1_555
Ba0 O7 2.711997 1_445
Ba0 O3 2.712912 1_556
Ba0 O7 2.715374 1_446
Ba0 O1 2.873176 1_454
Ba0 O1 2.873463 1_455
Ba0 O5 2.982153 1_555
Ba0 O5 2.984071 1_554
Ba1 O2 2.709155 1_554
Ba1 O6 2.711512 1_554
Ba1 O2 2.714249 1_555
Ba1 O6 2.715400 1_555
Ba1 O5 2.872545 1_554
Ba1 O5 2.873621 1_555
Ba1 O1 2.980695 1_454
Ba1 O1 2.983927 1_455
Ba2 O7 2.708755 1_556
Ba2 O3 2.711630 1_566
Ba2 O7 2.713552 1_555
Ba2 O3 2.715202 1_565
Ba2 O4 2.873240 1_556
Ba2 O4 2.873778 1_555
Ba2 O0 2.980314 1_656
Ba2 O0 2.983003 1_655
Ba3 O6 2.708321 1_555
Ba3 O2 2.711819 1_655
Ba3 O6 2.712310 1_554
Ba3 O2 2.715152 1_654
Ba3 O0 2.873688 1_656
Ba3 O0 2.873900 1_655
Ba3 O4 2.981665 1_555
Ba3 O4 2.983630 1_556
Cu0 O0 1.953190 1_555
Cu0 O4 1.968199 1_555
Cu0 O7 2.052025 1_455
Cu0 O3 2.068369 1_565
Cu1 O4 1.953056 1_555
Cu1 O0 1.968824 1_555
Cu1 O6 2.056951 1_554
Cu1 O2 2.072098 1_554
Cu2 O5 1.953030 1_555
Cu2 O1 1.968967 1_555
Cu2 O3 2.057452 1_556
Cu2 O7 2.072984 1_546
Cu3 O1 1.953248 1_555
Cu3 O5 1.968324 1_555
Cu3 O2 2.052567 1_655
Cu3 O6 2.069183 1_555
