# generated using pymatgen
data_Ba2GdMgCu3O7
_symmetry_space_group_name_H-M   'P 1'
_cell_length_a   3.77185100
_cell_length_b   4.16209600
_cell_length_c   13.15469900
_cell_angle_alpha   90.00000000
_cell_angle_beta   90.00000000
_cell_angle_gamma   90.00000000
_symmetry_Int_Tables_number   1
_chemical_formula_structural   Ba2GdMgCu3O7
_chemical_formula_sum   'Ba2 Gd1 Mg1 Cu3 O7'
_cell_volume   206.51306706
_cell_formula_units_Z   1
loop_
 _symmetry_equiv_pos_site_id
 _symmetry_equiv_pos_as_xyz
  1  'x, y, z'
loop_
 _atom_site_type_symbol
 _atom_site_label
 _atom_site_symmetry_multiplicity
 _atom_site_fract_x
 _atom_site_fract_y
 _atom_site_fract_z
 _atom_site_occupancy
  Ba  Ba0  1  0.50000000  0.55966800  0.22847100  1
  Ba  Ba1  1  0.50000000  0.55966800  0.77152900  1
  Gd  Gd0  1  0.50000000  0.52172200  0.50000000  1
  Mg  Mg0  1  0.50000000  0.27825400  0.00000000  1
  Cu  Cu0  1  0.00000000  0.02593800  0.61166600  1
  Cu  Cu1  1  0.00000000  0.02593800  0.38833400  1
  Cu  Cu2  1  0.00000000  0.88789000  0.00000000  1
  O  O0  1  0.00000000  0.94208900  0.85554900  1
  O  O1  1  0.00000000  0.94208900  0.14445100  1
  O  O2  1  0.00000000  0.52437200  0.61390900  1
  O  O3  1  0.00000000  0.52437200  0.38609100  1
  O  O4  1  0.50000000  0.02061900  0.61335700  1
  O  O5  1  0.50000000  0.02061900  0.38664300  1
  O  O6  1  0.00000000  0.41676400  0.00000000  1
loop_
_geom_bond_atom_site_label_1
_geom_bond_atom_site_label_2
_geom_bond_distance
_geom_bond_site_symmetry_2
Ba0 O1 2.704022 1_555
Ba0 O1 2.704022 1_655
Ba0 O3 2.806682 1_555
Ba0 O3 2.806682 1_655
Ba0 O5 2.830205 1_565
Ba0 O5 3.059895 1_555
Ba0 Mg0 3.225634 1_555
Ba0 O1 3.374224 1_545
Ba0 O1 3.374224 1_645
Ba1 O0 2.704022 1_655
Ba1 O0 2.704022 1_555
Ba1 O2 2.806682 1_555
Ba1 O2 2.806682 1_655
Ba1 O4 2.830205 1_565
Ba1 O4 3.059895 1_555
Ba1 Mg0 3.225634 1_556
Ba1 O0 3.374224 1_545
Ba1 O0 3.374224 1_645
Gd0 O2 2.408766 1_555
Gd0 O2 2.408766 1_655
Gd0 O3 2.408766 1_555
Gd0 O3 2.408766 1_655
Gd0 O4 2.556420 1_565
Gd0 O5 2.556420 1_565
Gd0 O4 2.563884 1_555
Gd0 O5 2.563884 1_555
Mg0 O6 1.972069 1_655
Mg0 O6 1.972069 1_555
Cu0 O4 1.886187 1_555
Cu0 O4 1.886187 1_455
Cu0 O2 2.074740 1_555
Cu0 O2 2.087774 1_545
Cu1 O5 1.886187 1_555
Cu1 O5 1.886187 1_455
Cu1 O3 2.074740 1_555
Cu1 O3 2.087774 1_545
Cu2 O1 1.913552 1_555
Cu2 O0 1.913552 1_554
Cu2 O6 1.960872 1_555
Cu2 O6 2.201224 1_565
