# generated using pymatgen
data_Na10Mg4Ti4Si5S7O48
_symmetry_space_group_name_H-M   'P 1'
_cell_length_a   17.79324228
_cell_length_b   8.87835744
_cell_length_c   22.26209712
_cell_angle_alpha   89.76422668
_cell_angle_beta   90.51417980
_cell_angle_gamma   119.87351638
_symmetry_Int_Tables_number   1
_chemical_formula_structural   Na10Mg4Ti4Si5S7O48
_chemical_formula_sum   'Na30 Mg12 Ti12 Si15 S21 O144'
_cell_volume   3049.43240436
_cell_formula_units_Z   3
loop_
 _symmetry_equiv_pos_site_id
 _symmetry_equiv_pos_as_xyz
  1  'x, y, z'
loop_
 _atom_site_type_symbol
 _atom_site_label
 _atom_site_symmetry_multiplicity
 _atom_site_fract_x
 _atom_site_fract_y
 _atom_site_fract_z
 _atom_site_occupancy
  Na  Na0  1  0.32484407  0.02002896  0.24984368  1
  Na  Na1  1  0.67846560  0.35355133  0.25343322  1
  Na  Na2  1  0.99762132  0.63124445  0.24482261  1
  Na  Na3  1  0.49793409  0.62655598  0.24311603  1
  Na  Na4  1  0.32223245  0.62626795  0.75215994  1
  Na  Na5  1  0.82241038  0.62637975  0.75107808  1
  Na  Na6  1  0.99698917  0.36829709  0.74268421  1
  Na  Na7  1  0.49716234  0.36826962  0.74337976  1
  Na  Na8  1  0.17811119  0.00451403  0.75259308  1
  Na  Na9  1  0.67894284  0.00504903  0.75192958  1
  Na  Na10  1  0.33379074  0.96685340  0.57790228  1
  Na  Na11  1  0.83367004  0.96732059  0.57635881  1
  Na  Na12  1  0.33414996  0.70083341  0.07772822  1
  Na  Na13  1  0.83187950  0.69898445  0.07704591  1
  Na  Na14  1  0.48431152  0.67825935  0.91165824  1
  Na  Na15  1  0.98475099  0.67845919  0.91084066  1
  Na  Na16  1  0.48666258  0.29323586  0.40946488  1
  Na  Na17  1  0.16483889  0.03094836  0.41183437  1
  Na  Na18  1  0.99107125  0.00072822  0.49656202  1
  Na  Na19  1  0.50138915  0.99590664  0.49690704  1
  Na  Na20  1  0.99890982  0.00735194  0.99530349  1
  Na  Na21  1  0.49783165  0.00248039  0.99773785  1
  Na  Na22  1  0.32826354  0.33445215  0.83136311  1
  Na  Na23  1  0.82877842  0.33469277  0.83047998  1
  Na  Na24  1  0.32964235  0.33376563  0.32651837  1
  Na  Na25  1  0.82560405  0.30760673  0.33305924  1
  Na  Na26  1  0.15786078  0.65826830  0.16062731  1
  Na  Na27  1  0.65718176  0.67029150  0.16228567  1
  Na  Na28  1  0.15337083  0.64532511  0.66068742  1
  Na  Na29  1  0.65553692  0.64797981  0.65980908  1
  Mg  Mg0  1  0.99721112  0.00558544  0.35250226  1
  Mg  Mg1  1  0.50155050  0.00476052  0.35154135  1
  Mg  Mg2  1  0.00005019  0.99571374  0.85204811  1
  Mg  Mg3  1  0.49982823  0.99563516  0.85241733  1
  Mg  Mg4  1  0.33759095  0.34444938  0.68426164  1
  Mg  Mg5  1  0.83780428  0.34538765  0.68358958  1
  Mg  Mg6  1  0.33562400  0.33101068  0.18511179  1
  Mg  Mg7  1  0.83457382  0.32271457  0.18407213  1
  Mg  Mg8  1  0.16617645  0.67159285  0.01847225  1
  Mg  Mg9  1  0.66502313  0.67061419  0.01871776  1
  Mg  Mg10  1  0.16356729  0.65482224  0.51860012  1
  Mg  Mg11  1  0.66692446  0.66046900  0.51796291  1
  Ti  Ti0  1  0.01060692  0.01500891  0.64777502  1
  Ti  Ti1  1  0.51241773  0.01651044  0.64785082  1
  Ti  Ti2  1  0.00721687  0.99291312  0.14563393  1
  Ti  Ti3  1  0.51097018  0.00617620  0.14898194  1
  Ti  Ti4  1  0.33506624  0.35297264  0.98180075  1
  Ti  Ti5  1  0.83468691  0.35195243  0.98102906  1
  Ti  Ti6  1  0.34028574  0.32895031  0.48113557  1
  Ti  Ti7  1  0.83793151  0.31678944  0.47982644  1
  Ti  Ti8  1  0.17020261  0.68177018  0.31573565  1
  Ti  Ti9  1  0.67042801  0.68632477  0.31196735  1
  Ti  Ti10  1  0.16595418  0.65199344  0.81378448  1
  Ti  Ti11  1  0.66595437  0.65199680  0.81376008  1
  Si  Si0  1  0.14713770  0.00687374  0.25494745  1
  Si  Si1  1  0.65050630  0.00940351  0.25318894  1
  Si  Si2  1  0.50050304  0.29335908  0.25247097  1
  Si  Si3  1  0.14692335  0.28858587  0.75278327  1
  Si  Si4  1  0.64725006  0.28904729  0.75308082  1
  Si  Si5  1  -0.00000976  0.70827680  0.75247026  1
  Si  Si6  1  0.50013764  0.70854156  0.75255236  1
  Si  Si7  1  0.48555550  0.33640977  0.58749676  1
  Si  Si8  1  0.98411289  0.33628197  0.58728881  1
  Si  Si9  1  0.48457814  0.63315874  0.08741800  1
  Si  Si10  1  0.98319568  0.62239667  0.08725996  1
  Si  Si11  1  0.31375000  0.67540727  0.92112252  1
  Si  Si12  1  0.81356565  0.67652961  0.92116520  1
  Si  Si13  1  0.31572907  0.95494276  0.42229458  1
  Si  Si14  1  0.81473383  0.95306066  0.42076189  1
  S  S0  1  0.35241213  0.70841688  0.25070422  1
  S  S1  1  0.85523656  0.71326688  0.24961716  1
  S  S2  1  0.00114103  0.28916035  0.24992189  1
  S  S3  1  0.35406541  0.99735159  0.74989435  1
  S  S4  1  0.85405432  0.99743105  0.75023750  1
  S  S5  1  0.18786812  0.04449390  0.58332098  1
  S  S6  1  0.68819503  0.04453687  0.58394325  1
  S  S7  1  0.33369684  0.62345454  0.58328815  1
  S  S8  1  0.83391880  0.62448211  0.58343092  1
  S  S9  1  0.33355954  0.04418711  0.08351550  1
  S  S10  1  0.83444552  0.04520600  0.08331731  1
  S  S11  1  0.18751709  0.33037954  0.08450724  1
  S  S12  1  0.68783469  0.33163948  0.08380250  1
  S  S13  1  0.02074497  0.37268826  0.91754990  1
  S  S14  1  0.52073132  0.37233635  0.91735577  1
  S  S15  1  0.16965382  0.96135731  0.91690182  1
  S  S16  1  0.66994328  0.96179052  0.91692706  1
  S  S17  1  0.16744341  0.37885847  0.41686746  1
  S  S18  1  0.67003790  0.37792242  0.41685691  1
  S  S19  1  0.01985775  0.66318778  0.41696710  1
  S  S20  1  0.52156084  0.66964786  0.41711966  1
  O  O0  1  0.10028036  0.01767123  0.31352313  1
  O  O1  1  0.60139479  0.03133688  0.30804156  1
  O  O2  1  0.40657705  0.78760661  0.30368406  1
  O  O3  1  0.91043335  0.79495740  0.30166863  1
  O  O4  1  0.48026437  0.17463226  0.31085082  1
  O  O5  1  0.98938389  0.18713645  0.30370634  1
  O  O6  1  0.10015152  0.16978203  0.80838051  1
  O  O7  1  0.59970428  0.16937141  0.80829083  1
  O  O8  1  0.48085712  0.78646841  0.81092653  1
  O  O9  1  0.98094866  0.78621167  0.81101728  1
  O  O10  1  0.40838870  0.02894759  0.80283054  1
  O  O11  1  0.90830856  0.02871316  0.80322606  1
  O  O12  1  0.39168368  0.96528004  0.69490018  1
  O  O13  1  0.89174050  0.96532792  0.69532863  1
  O  O14  1  0.08205226  0.20423931  0.69175833  1
  O  O15  1  0.58248930  0.20537023  0.69178428  1
  O  O16  1  0.01734375  0.84439002  0.69410553  1
  O  O17  1  0.51714678  0.84458278  0.69404704  1
  O  O18  1  0.38954416  0.81792579  0.19551855  1
  O  O19  1  0.89326031  0.81793183  0.19348939  1
  O  O20  1  0.01232637  0.20510215  0.19545345  1
  O  O21  1  0.51631189  0.18816585  0.19434109  1
  O  O22  1  0.07930011  0.96515871  0.19492223  1
  O  O23  1  0.58399859  0.96319625  0.19200266  1
  O  O24  1  0.43493782  0.34670819  0.64432175  1
  O  O25  1  0.93602996  0.34696749  0.64564767  1
  O  O26  1  0.24001621  0.12555119  0.63737578  1
  O  O27  1  0.73875381  0.12268823  0.63898224  1
  O  O28  1  0.32144854  0.52400377  0.63865045  1
  O  O29  1  0.82188869  0.52554144  0.63920751  1
  O  O30  1  0.43441448  0.52217860  0.14455874  1
  O  O31  1  0.93501610  0.51915225  0.14622188  1
  O  O32  1  0.32163881  0.11948021  0.13868660  1
  O  O33  1  0.82218458  0.12285423  0.13712756  1
  O  O34  1  0.24067304  0.35408898  0.13748003  1
  O  O35  1  0.74002351  0.35668495  0.13809309  1
  O  O36  1  0.22676808  0.30074654  0.02943340  1
  O  O37  1  0.73075356  0.30567507  0.02994246  1
  O  O38  1  0.41488094  0.52863576  0.02636734  1
  O  O39  1  0.91498740  0.52933966  0.02698261  1
  O  O40  1  0.34260839  0.15340568  0.03003434  1
  O  O41  1  0.84552506  0.15295788  0.02906631  1
  O  O42  1  0.22920485  0.15282946  0.52827070  1
  O  O43  1  0.72981212  0.15485679  0.53031767  1
  O  O44  1  0.34299654  0.53145491  0.53022568  1
  O  O45  1  0.84389249  0.53573615  0.53050568  1
  O  O46  1  0.41624289  0.30337692  0.52620446  1
  O  O47  1  0.91420250  0.30028390  0.52783256  1
  O  O48  1  0.26748986  0.68561417  0.98000609  1
  O  O49  1  0.76744370  0.68609515  0.98020046  1
  O  O50  1  0.07367067  0.45872389  0.97013381  1
  O  O51  1  0.57403561  0.45876149  0.96978120  1
  O  O52  1  0.15428859  0.84746415  0.96851305  1
  O  O53  1  0.65505475  0.84826154  0.96848126  1
  O  O54  1  0.26491597  0.84818942  0.47960616  1
  O  O55  1  0.76999619  0.85169959  0.48069466  1
  O  O56  1  0.15570929  0.45771408  0.47019837  1
  O  O57  1  0.65429337  0.46059300  0.46820627  1
  O  O58  1  0.07566175  0.68989467  0.46871004  1
  O  O59  1  0.57363100  0.68847514  0.47017797  1
  O  O60  1  0.05984546  0.63491919  0.36067438  1
  O  O61  1  0.55782097  0.63125391  0.36167557  1
  O  O62  1  0.24893125  0.86156638  0.36071706  1
  O  O63  1  0.74769763  0.85405471  0.36137398  1
  O  O64  1  0.17802334  0.48753471  0.36224240  1
  O  O65  1  0.68032073  0.48009130  0.36049038  1
  O  O66  1  0.05930330  0.48509779  0.86152343  1
  O  O67  1  0.55961153  0.48552387  0.86125717  1
  O  O68  1  0.17994814  0.87896245  0.86067276  1
  O  O69  1  0.68094114  0.88075677  0.86066086  1
  O  O70  1  0.25001923  0.64275328  0.85969450  1
  O  O71  1  0.75004621  0.64254624  0.85984419  1
  O  O72  1  0.01201740  0.81957583  0.40997025  1
  O  O73  1  0.50828540  0.81723322  0.40975310  1
  O  O74  1  0.41232976  0.99123353  0.41455279  1
  O  O75  1  0.91008736  0.98578091  0.41020200  1
  O  O76  1  0.09291856  0.20101158  0.41074427  1
  O  O77  1  0.59268132  0.20251373  0.41219202  1
  O  O78  1  0.00911989  0.20008011  0.90985607  1
  O  O79  1  0.50942636  0.20015094  0.90954646  1
  O  O80  1  0.09235891  0.98197411  0.91194690  1
  O  O81  1  0.59282625  0.98257202  0.91184689  1
  O  O82  1  0.41150225  0.83180789  0.91393456  1
  O  O83  1  0.91159823  0.83185601  0.91422685  1
  O  O84  1  0.48275980  0.14431565  0.58896198  1
  O  O85  1  0.98310612  0.14483506  0.58965600  1
  O  O86  1  0.10051158  0.02898545  0.58630296  1
  O  O87  1  0.60033838  0.02883795  0.58700173  1
  O  O88  1  0.41334367  0.79902593  0.58664590  1
  O  O89  1  0.91331051  0.80191738  0.58784076  1
  O  O90  1  0.48303054  0.82143743  0.08935138  1
  O  O91  1  0.98394340  0.81760980  0.09121342  1
  O  O92  1  0.41312232  0.02665450  0.08709465  1
  O  O93  1  0.91492948  0.02767536  0.08860199  1
  O  O94  1  0.09869289  0.17212392  0.08930799  1
  O  O95  1  0.60092931  0.17237134  0.08660000  1
  O  O96  1  0.33906071  0.14609940  0.74307719  1
  O  O97  1  0.83897188  0.14597034  0.74350887  1
  O  O98  1  0.24177568  0.31391045  0.74210845  1
  O  O99  1  0.74196743  0.31410749  0.74241657  1
  O  O100  1  0.41925973  0.51438579  0.74479981  1
  O  O101  1  0.91901976  0.51410773  0.74509759  1
  O  O102  1  0.33983773  0.53333008  0.24350019  1
  O  O103  1  0.84399716  0.53661722  0.24390591  1
  O  O104  1  0.41951359  0.32542826  0.24472161  1
  O  O105  1  0.92604911  0.31793536  0.24431749  1
  O  O106  1  0.24333478  0.15950885  0.24333074  1
  O  O107  1  0.74303275  0.17886916  0.24284571  1
  O  O108  1  0.32069465  0.48757283  0.92442412  1
  O  O109  1  0.82103592  0.48844564  0.92485509  1
  O  O110  1  0.43318184  0.36282396  0.92145892  1
  O  O111  1  0.93302061  0.36320805  0.92175339  1
  O  O112  1  0.24953060  0.13367961  0.92301624  1
  O  O113  1  0.74992949  0.13501379  0.92343934  1
  O  O114  1  0.31860973  0.15266720  0.42446861  1
  O  O115  1  0.81874202  0.15011666  0.42461226  1
  O  O116  1  0.24784239  0.36181306  0.42123906  1
  O  O117  1  0.74979509  0.36476289  0.42369966  1
  O  O118  1  0.43233866  0.50328737  0.42269042  1
  O  O119  1  0.93238631  0.50616893  0.42166107  1
  O  O120  1  0.17814796  0.48508484  0.07772425  1
  O  O121  1  0.67898960  0.48656940  0.07694057  1
  O  O122  1  0.07750678  0.65277096  0.07644827  1
  O  O123  1  0.57737386  0.65433974  0.07606604  1
  O  O124  1  0.25802022  0.86594514  0.07820199  1
  O  O125  1  0.75982930  0.86678952  0.07793559  1
  O  O126  1  0.17926245  0.87155863  0.57754903  1
  O  O127  1  0.67862022  0.87099324  0.57800335  1
  O  O128  1  0.25842663  0.65056820  0.57725675  1
  O  O129  1  0.75825658  0.65149541  0.57849160  1
  O  O130  1  0.07724384  0.50054302  0.57679728  1
  O  O131  1  0.57770034  0.50096613  0.57584099  1
  O  O132  1  0.15075754  0.81585439  0.25869185  1
  O  O133  1  0.65301859  0.82337148  0.25732983  1
  O  O134  1  0.26439755  0.69665320  0.25693845  1
  O  O135  1  0.76633150  0.69079841  0.25467954  1
  O  O136  1  0.08095979  0.46856567  0.25495319  1
  O  O137  1  0.59212180  0.48509321  0.25776936  1
  O  O138  1  0.15448084  0.48524735  0.75738564  1
  O  O139  1  0.65444747  0.48523985  0.75748126  1
  O  O140  1  0.09164639  0.69831248  0.75856580  1
  O  O141  1  0.59174347  0.69876524  0.75854424  1
  O  O142  1  0.26586574  0.83632332  0.75541803  1
  O  O143  1  0.76587241  0.83610362  0.75567673  1
loop_
_geom_bond_atom_site_label_1
_geom_bond_atom_site_label_2
_geom_bond_distance
_geom_bond_site_symmetry_2
Na0 O106 2.332773 1_555
Na0 O104 2.377690 1_555
Na0 O134 2.519493 1_545
Na0 O32 2.633652 1_555
Na0 O132 2.708162 1_545
Na0 O4 2.746421 1_555
Na0 O62 2.834500 1_545
Na0 O18 2.847500 1_545
Na1 O137 2.350437 1_555
Na1 O107 2.358707 1_555
Na1 O103 2.569292 1_555
Na1 O135 2.597481 1_555
Na1 O65 2.631948 1_555
Na1 O1 2.763253 1_555
Na1 O35 2.795205 1_555
Na1 O21 2.817567 1_555
Na2 O132 2.397159 1_655
Na2 O105 2.414687 1_555
Na2 O103 2.426840 1_555
Na2 O31 2.432965 1_555
Na2 O136 2.541781 1_655
Na2 O60 2.791437 1_655
Na2 O22 2.800884 1_655
Na2 O3 2.901300 1_555
Na3 O104 2.319455 1_555
Na3 O30 2.424679 1_555
Na3 O133 2.439997 1_555
Na3 O102 2.505858 1_555
Na3 O137 2.564396 1_555
Na3 O61 2.830142 1_555
Na3 O23 2.831379 1_555
Na3 O2 2.979196 1_555
Na4 O100 2.389327 1_555
Na4 O98 2.415515 1_555
Na4 O142 2.520891 1_555
Na4 O138 2.602427 1_555
Na4 O28 2.686206 1_555
Na4 O70 2.765649 1_555
Na4 O8 2.765998 1_555
Na4 O12 2.915954 1_555
Na5 O101 2.382935 1_555
Na5 O99 2.412212 1_555
Na5 O143 2.521701 1_555
Na5 O139 2.607264 1_555
Na5 O29 2.648344 1_555
Na5 O9 2.777069 1_555
Na5 O71 2.790056 1_555
Na5 O13 2.901149 1_555
Na6 O101 2.322599 1_555
Na6 O25 2.373957 1_555
Na6 O138 2.475042 1_655
Na6 O97 2.504775 1_555
Na6 O140 2.574577 1_655
Na6 O14 2.817490 1_655
Na6 O66 2.851057 1_655
Na6 O11 2.943103 1_555
Na7 O100 2.323304 1_555
Na7 O24 2.423650 1_555
Na7 O139 2.470008 1_555
Na7 O96 2.505324 1_555
Na7 O141 2.575807 1_555
Na7 O15 2.819308 1_555
Na7 O67 2.832432 1_555
Na7 O10 2.930333 1_555
Na8 O140 2.368427 1_545
Na8 O98 2.404787 1_555
Na8 O96 2.499799 1_555
Na8 O142 2.644245 1_545
Na8 O68 2.654362 1_545
Na8 O6 2.773650 1_555
Na8 O26 2.792144 1_555
Na8 O16 2.792227 1_545
Na9 O141 2.370948 1_545
Na9 O99 2.401198 1_555
Na9 O97 2.483369 1_555
Na9 O143 2.637640 1_545
Na9 O69 2.663418 1_545
Na9 O27 2.732219 1_555
Na9 O7 2.790426 1_555
Na9 O17 2.800150 1_545
Na10 O84 2.323819 1_565
Na10 O128 2.435697 1_555
Na10 O126 2.440949 1_555
Na10 O54 2.466786 1_555
Na10 O88 2.521009 1_555
Na10 O12 2.794857 1_555
Na10 O46 2.835344 1_565
Na10 O26 2.986508 1_565
Na11 O85 2.335956 1_565
Na11 O55 2.385170 1_555
Na11 O129 2.432522 1_555
Na11 O127 2.448488 1_555
Na11 O89 2.508652 1_555
Na11 O47 2.782262 1_565
Na11 O13 2.837481 1_555
Na12 O90 2.322790 1_555
Na12 O48 2.440152 1_554
Na12 O124 2.441819 1_555
Na12 O120 2.465244 1_555
Na12 O92 2.517233 1_565
Na12 O18 2.807808 1_555
Na12 O38 2.817748 1_555
Na13 O91 2.382906 1_555
Na13 O125 2.401438 1_555
Na13 O49 2.408907 1_554
Na13 O121 2.417927 1_555
Na13 O93 2.543513 1_565
Na13 O19 2.801913 1_555
Na13 O39 2.821266 1_555
Na13 O35 2.968495 1_555
Na14 O82 2.302283 1_555
Na14 O81 2.414751 1_555
Na14 O8 2.448302 1_555
Na14 O110 2.485717 1_555
Na14 O108 2.554112 1_555
Na14 O38 2.864604 1_556
Na14 O67 2.882520 1_555
Na14 O53 2.913250 1_555
Na15 O83 2.307214 1_555
Na15 O80 2.405833 1_655
Na15 O9 2.429524 1_555
Na15 O111 2.484386 1_555
Na15 O109 2.558422 1_555
Na15 O66 2.867485 1_655
Na15 O39 2.893288 1_556
Na15 O52 2.904678 1_655
Na16 O74 2.327848 1_545
Na16 O77 2.392111 1_555
Na16 O4 2.415882 1_555
Na16 O118 2.510827 1_555
Na16 O114 2.628190 1_555
Na16 O61 2.820273 1_555
Na16 O57 2.888844 1_555
Na16 O46 2.916328 1_555
Na17 O114 2.403395 1_555
Na17 O72 2.415097 1_545
Na17 O76 2.417001 1_555
Na17 O0 2.438353 1_555
Na17 O116 2.555748 1_555
Na17 O42 2.817253 1_555
Na17 O62 2.842805 1_545
Na17 O58 2.916838 1_545
Na18 O75 2.356288 1_545
Na18 O85 2.481911 1_555
Na18 O89 2.597560 1_545
Na18 O76 2.630595 1_655
Na18 O72 2.660315 1_645
Na18 O86 2.700711 1_655
Na19 O74 2.399399 1_555
Na19 O84 2.552510 1_565
Na19 O73 2.553329 1_555
Na19 O77 2.572624 1_565
Na19 O87 2.576192 1_565
Na19 O88 2.607741 1_555
Na20 O83 2.379184 1_545
Na20 O78 2.499832 1_655
Na20 O80 2.586730 1_645
Na20 O93 2.628086 1_556
Na20 O91 2.646014 1_546
Na20 O94 2.653870 1_656
Na21 O82 2.406113 1_545
Na21 O90 2.524587 1_546
Na21 O79 2.568157 1_555
Na21 O92 2.579663 1_556
Na21 O95 2.599391 1_556
Na21 O81 2.627320 1_545
Na22 O98 2.453190 1_555
Na22 O100 2.518180 1_555
Na22 O108 2.523672 1_555
Na22 O112 2.614751 1_555
Na22 O110 2.653292 1_555
Na22 O96 2.655213 1_555
Na23 O99 2.435197 1_555
Na23 O101 2.492093 1_555
Na23 O109 2.551997 1_555
Na23 O97 2.631502 1_555
Na23 O113 2.634037 1_555
Na23 O111 2.664954 1_555
Na24 O106 2.405680 1_555
Na24 O104 2.459637 1_555
Na24 O102 2.499353 1_555
Na24 O114 2.653877 1_555
Na24 O116 2.654702 1_555
Na24 O118 2.721162 1_555
Na25 O107 2.406554 1_555
Na25 O115 2.436199 1_555
Na25 O117 2.624474 1_555
Na25 O105 2.646539 1_555
Na25 O119 2.689442 1_555
Na25 O103 2.737868 1_555
Na26 O122 2.332728 1_555
Na26 O120 2.547334 1_555
Na26 O124 2.588495 1_555
Na26 O136 2.616338 1_555
Na26 O132 2.635477 1_555
Na26 O134 2.756120 1_555
Na27 O123 2.339606 1_555
Na27 O133 2.540938 1_555
Na27 O137 2.584838 1_555
Na27 O125 2.601156 1_555
Na27 O121 2.662767 1_555
Na27 O135 2.759512 1_555
Na28 O130 2.283590 1_555
Na28 O138 2.580007 1_555
Na28 O126 2.595214 1_555
Na28 O140 2.596451 1_555
Na28 O128 2.630784 1_555
Na28 O142 2.811049 1_555
Na29 O131 2.299761 1_555
Na29 O127 2.565023 1_555
Na29 O129 2.573089 1_555
Na29 O139 2.600570 1_555
Na29 O141 2.624109 1_555
Na29 O143 2.808281 1_555
Mg0 O75 1.961227 1_545
Mg0 O0 1.989875 1_655
Mg0 O5 2.001022 1_555
Mg0 O3 2.066751 1_545
Mg0 O76 2.151066 1_655
Mg0 O72 2.200786 1_645
Mg1 O1 1.939336 1_555
Mg1 O4 1.946863 1_555
Mg1 O74 2.085922 1_545
Mg1 O2 2.108761 1_545
Mg1 O73 2.154988 1_545
Mg1 O77 2.163127 1_555
Mg2 O6 1.944855 1_565
Mg2 O9 1.946342 1_455
Mg2 O83 2.061836 1_455
Mg2 O11 2.091358 1_465
Mg2 O80 2.156313 1_555
Mg2 O78 2.167534 1_565
Mg3 O7 1.946946 1_565
Mg3 O8 1.949316 1_555
Mg3 O82 2.050892 1_555
Mg3 O10 2.097062 1_565
Mg3 O79 2.156356 1_565
Mg3 O81 2.156995 1_555
Mg4 O24 1.945277 1_555
Mg4 O100 2.000458 1_555
Mg4 O28 2.022972 1_555
Mg4 O98 2.052933 1_555
Mg4 O26 2.122190 1_555
Mg4 O96 2.200588 1_555
Mg5 O25 1.941720 1_555
Mg5 O101 2.008008 1_555
Mg5 O29 2.011942 1_555
Mg5 O99 2.065286 1_555
Mg5 O27 2.124864 1_555
Mg5 O97 2.220624 1_555
Mg6 O30 1.956895 1_555
Mg6 O104 2.007275 1_555
Mg6 O32 2.050109 1_555
Mg6 O106 2.055723 1_555
Mg6 O34 2.081264 1_555
Mg6 O102 2.192053 1_555
Mg7 O31 1.963590 1_555
Mg7 O33 1.977591 1_555
Mg7 O107 1.987032 1_555
Mg7 O35 2.107376 1_555
Mg7 O105 2.116354 1_555
Mg7 O103 2.260222 1_555
Mg8 O48 1.949819 1_554
Mg8 O122 1.988739 1_555
Mg8 O52 2.007573 1_554
Mg8 O50 2.079702 1_554
Mg8 O124 2.141727 1_555
Mg8 O120 2.203551 1_555
Mg9 O49 1.962863 1_554
Mg9 O123 1.973019 1_555
Mg9 O53 2.007592 1_554
Mg9 O51 2.073028 1_554
Mg9 O125 2.160854 1_555
Mg9 O121 2.189315 1_555
Mg10 O130 1.959399 1_555
Mg10 O54 1.970952 1_555
Mg10 O56 2.003039 1_555
Mg10 O58 2.056250 1_555
Mg10 O128 2.139857 1_555
Mg10 O126 2.232007 1_555
Mg11 O55 1.961703 1_555
Mg11 O131 1.992013 1_555
Mg11 O57 2.010221 1_555
Mg11 O59 2.079991 1_555
Mg11 O129 2.133498 1_555
Mg11 O127 2.225204 1_555
O0 Si0 1.582701 1_555
O1 Si1 1.575860 1_555
O2 S0 1.457966 1_555
O3 S1 1.452675 1_555
O4 Si2 1.596528 1_555
O5 S2 1.450761 1_655
O6 Si3 1.571744 1_555
O7 Si4 1.570921 1_555
O8 Si6 1.592794 1_555
O9 Si5 1.594130 1_655
O10 S3 1.453940 1_545
O11 S4 1.454568 1_545
O12 S3 1.495134 1_555
O12 Ti1 2.232047 1_565
O13 S4 1.494353 1_555
O13 Ti0 2.212599 1_665
O14 Si3 1.690537 1_555
O14 Ti0 1.805827 1_555
O15 Si4 1.693861 1_555
O15 Ti1 1.797680 1_555
O16 Si5 1.693080 1_555
O16 Ti0 1.881132 1_565
O17 Si6 1.696111 1_555
O17 Ti1 1.873024 1_565
O18 S0 1.501988 1_555
O18 Ti3 2.227876 1_565
O19 S1 1.503954 1_555
O19 Ti2 2.132379 1_655
O20 S2 1.492203 1_555
O20 Ti2 2.152243 1_545
O21 Si2 1.704182 1_555
O21 Ti3 1.870331 1_555
O22 Si0 1.705753 1_565
O22 Ti2 1.788045 1_555
O23 Si1 1.707678 1_565
O23 Ti3 1.794418 1_565
O24 Si7 1.588492 1_555
O25 Si8 1.590812 1_555
O26 S5 1.465900 1_555
O27 S6 1.468826 1_555
O28 S7 1.466388 1_555
O29 S8 1.472335 1_555
O30 Si9 1.587347 1_555
O31 Si10 1.589212 1_555
O32 S9 1.467334 1_555
O33 S10 1.455746 1_555
O34 S11 1.453714 1_555
O35 S12 1.465912 1_555
O36 S11 1.503752 1_555
O36 Ti4 2.048226 1_554
O37 S12 1.506019 1_555
O37 Ti5 2.012473 1_554
O38 Si9 1.754994 1_555
O38 Ti4 1.792931 1_554
O39 Si10 1.713842 1_555
O39 Ti5 1.820382 1_554
O40 S9 1.490688 1_555
O40 Ti4 2.128147 1_554
O41 S10 1.489829 1_555
O41 Ti5 2.149969 1_554
O42 S5 1.506583 1_555
O42 Ti6 2.097051 1_555
O43 S6 1.488829 1_555
O43 Ti7 2.074050 1_555
O44 S7 1.495349 1_555
O44 Ti6 2.087572 1_555
O45 S8 1.480275 1_555
O45 Ti7 2.207567 1_555
O46 Si7 1.755464 1_555
O46 Ti6 1.778851 1_555
O47 Si8 1.726086 1_555
O47 Ti7 1.782180 1_555
O48 Si11 1.580750 1_555
O49 Si12 1.580395 1_555
O50 S13 1.453158 1_555
O51 S14 1.453611 1_555
O52 S15 1.462211 1_555
O53 S16 1.460585 1_555
O54 Si13 1.581368 1_555
O55 Si14 1.587212 1_555
O56 S17 1.449217 1_555
O57 S18 1.463378 1_555
O58 S19 1.454720 1_555
O59 S20 1.452327 1_555
O60 S19 1.528469 1_555
O60 Ti8 2.061026 1_555
O61 S20 1.514200 1_555
O61 Ti9 2.130180 1_555
O62 Si13 1.725599 1_555
O62 Ti8 1.809323 1_555
O63 Si14 1.697101 1_555
O63 Ti9 1.806772 1_555
O64 S17 1.502910 1_555
O64 Ti8 2.070492 1_555
O65 S18 1.503439 1_555
O65 Ti9 2.202694 1_555
O66 S13 1.531478 1_555
O66 Ti10 2.036746 1_555
O67 S14 1.536479 1_555
O67 Ti11 2.029782 1_555
O68 S15 1.510221 1_555
O68 Ti10 2.173722 1_555
O69 S16 1.508966 1_555
O69 Ti11 2.181563 1_555
O70 Si11 1.699408 1_555
O70 Ti10 1.839245 1_555
O71 Si12 1.693521 1_555
O71 Ti11 1.842604 1_555
O72 S19 1.470496 1_555
O73 S20 1.451028 1_555
O74 Si13 1.594080 1_555
O75 Si14 1.591815 1_555
O76 S17 1.477465 1_555
O77 S18 1.481231 1_555
O78 S13 1.451329 1_555
O79 S14 1.450142 1_555
O80 S15 1.478205 1_555
O81 S16 1.476112 1_555
O82 Si11 1.605066 1_555
O83 Si12 1.604699 1_555
O84 Si7 1.681445 1_555
O84 Ti1 1.963812 1_555
O85 Si8 1.691491 1_555
O85 Ti0 1.944301 1_655
O86 S5 1.492637 1_555
O86 Ti0 2.070593 1_555
O87 S6 1.500869 1_555
O87 Ti1 2.039748 1_555
O88 S7 1.497405 1_555
O88 Ti1 2.297878 1_565
O89 S8 1.506247 1_555
O89 Ti0 2.252381 1_665
O90 Si9 1.686222 1_555
O90 Ti3 1.973167 1_565
O91 Si10 1.729182 1_555
O91 Ti2 1.850975 1_655
O92 S9 1.500708 1_555
O92 Ti3 2.287495 1_555
O93 S10 1.519130 1_555
O93 Ti2 2.206343 1_645
O94 S11 1.507689 1_555
O94 Ti2 2.047819 1_545
O95 S12 1.489066 1_555
O95 Ti3 2.082836 1_555
O96 S3 1.478936 1_545
O97 S4 1.477791 1_545
O98 Si3 1.607545 1_555
O99 Si4 1.606053 1_555
O100 Si6 1.612138 1_555
O101 Si5 1.611951 1_655
O102 S0 1.465311 1_555
O103 S1 1.484805 1_555
O104 Si2 1.609771 1_555
O105 S2 1.484204 1_655
O106 Si0 1.589801 1_555
O107 Si1 1.601125 1_555
O108 Si11 1.733746 1_555
O108 Ti4 1.846899 1_555
O109 Si12 1.741462 1_555
O109 Ti5 1.834862 1_555
O110 S14 1.521057 1_555
O110 Ti4 2.179223 1_555
O111 S13 1.524445 1_655
O111 Ti5 2.163070 1_555
O112 S15 1.487061 1_545
O112 Ti4 2.202950 1_555
O113 S16 1.493151 1_545
O113 Ti5 2.172515 1_555
O114 Si13 1.731375 1_545
O114 Ti6 1.896296 1_555
O115 Si14 1.717594 1_545
O115 Ti7 1.822453 1_555
O116 S17 1.513908 1_555
O116 Ti6 2.237017 1_555
O117 S18 1.487265 1_555
O117 Ti7 2.197239 1_555
O118 S20 1.543834 1_555
O118 Ti6 2.065817 1_555
O119 S19 1.488967 1_655
O119 Ti7 2.129436 1_555
O120 S11 1.470754 1_555
O121 S12 1.467537 1_555
O122 Si10 1.581956 1_455
O123 Si9 1.588480 1_555
O124 S9 1.484814 1_565
O125 S10 1.479838 1_565
O126 S5 1.471197 1_565
O127 S6 1.469796 1_565
O128 S7 1.478980 1_555
O129 S8 1.483524 1_555
O130 Si8 1.588742 1_455
O131 Si7 1.583752 1_555
O132 Si0 1.730566 1_565
O132 Ti8 1.881366 1_555
O133 Si1 1.676513 1_565
O133 Ti9 1.847285 1_555
O134 S0 1.524327 1_555
O134 Ti8 2.087398 1_555
O135 S1 1.497862 1_555
O135 Ti9 2.123942 1_555
O136 S2 1.520456 1_555
O136 Ti8 2.218967 1_555
O137 Si2 1.674211 1_555
O137 Ti9 2.024073 1_555
O138 Si3 1.686575 1_555
O138 Ti10 1.876007 1_555
O139 Si4 1.684951 1_555
O139 Ti11 1.874112 1_555
O140 Si5 1.680952 1_555
O140 Ti10 1.984117 1_555
O141 Si6 1.679003 1_555
O141 Ti11 1.984905 1_555
O142 S3 1.512909 1_555
O142 Ti10 2.157020 1_555
O143 S4 1.513707 1_555
O143 Ti11 2.152569 1_555
