# generated using pymatgen
data_Cs2Cu5Se4
_symmetry_space_group_name_H-M   'P 1'
_cell_length_a   9.98295929
_cell_length_b   9.98295929
_cell_length_c   13.17271000
_cell_angle_alpha   90.00000000
_cell_angle_beta   90.00000000
_cell_angle_gamma   156.93866190
_symmetry_Int_Tables_number   1
_chemical_formula_structural   Cs2Cu5Se4
_chemical_formula_sum   'Cs4 Cu10 Se8'
_cell_volume   514.23950001
_cell_formula_units_Z   2
loop_
 _symmetry_equiv_pos_site_id
 _symmetry_equiv_pos_as_xyz
  1  'x, y, z'
loop_
 _atom_site_type_symbol
 _atom_site_label
 _atom_site_symmetry_multiplicity
 _atom_site_fract_x
 _atom_site_fract_y
 _atom_site_fract_z
 _atom_site_occupancy
  Cs  Cs0  1  0.85925028  0.14074972  0.25000000  1
  Cs  Cs1  1  0.14074972  0.85925028  0.75000000  1
  Cs  Cs2  1  -0.00000000  0.00000000  0.50000000  1
  Cs  Cs3  1  -0.00000000  0.00000000  -0.00000000  1
  Cu  Cu0  1  0.21579193  0.78420807  0.04251977  1
  Cu  Cu1  1  0.78420807  0.21579193  0.54251977  1
  Cu  Cu2  1  0.21579193  0.78420807  0.45748023  1
  Cu  Cu3  1  0.78420807  0.21579193  0.95748023  1
  Cu  Cu4  1  0.91435890  0.08564110  0.75000000  1
  Cu  Cu5  1  0.08564110  0.91435890  0.25000000  1
  Cu  Cu6  1  0.35220765  0.64779235  0.65846389  1
  Cu  Cu7  1  0.64779235  0.35220765  0.34153611  1
  Cu  Cu8  1  0.64779235  0.35220765  0.15846389  1
  Cu  Cu9  1  0.35220765  0.64779235  0.84153611  1
  Se  Se0  1  0.65830243  0.34169757  0.98035532  1
  Se  Se1  1  0.65830243  0.34169757  0.51964468  1
  Se  Se2  1  0.34169757  0.65830243  0.01964468  1
  Se  Se3  1  0.34169757  0.65830243  0.48035532  1
  Se  Se4  1  0.79260494  0.20739506  0.75000000  1
  Se  Se5  1  0.20739506  0.79260494  0.25000000  1
  Se  Se6  1  0.47861903  0.52138097  0.75000000  1
  Se  Se7  1  0.52138097  0.47861903  0.25000000  1
loop_
_geom_bond_atom_site_label_1
_geom_bond_atom_site_label_2
_geom_bond_distance
_geom_bond_site_symmetry_2
Cs0 Se5 3.578740 1_545
Cs0 Se5 3.578740 1_655
Cs0 Se3 3.647960 1_545
Cs0 Se3 3.647960 1_655
Cs0 Se2 3.647960 1_545
Cs0 Se2 3.647960 1_655
Cs0 Se7 3.747283 1_545
Cs0 Se7 3.747283 1_655
Cs1 Se4 3.578740 1_565
Cs1 Se4 3.578740 1_455
Cs1 Se1 3.647960 1_455
Cs1 Se0 3.647960 1_455
Cs1 Se1 3.647960 1_565
Cs1 Se0 3.647960 1_565
Cs1 Se6 3.747283 1_455
Cs1 Se6 3.747283 1_565
Cs2 Se3 3.693187 1_445
Cs2 Se3 3.693187 1_555
Cs2 Se1 3.693187 1_445
Cs2 Se1 3.693187 1_555
Cs2 Cu5 3.694856 1_545
Cs2 Cu4 3.694856 1_455
Cs2 Se6 3.873250 1_555
Cs2 Se6 3.873250 1_445
Cs2 Se7 3.873250 1_555
Cs2 Se7 3.873250 1_445
Cs3 Se0 3.693187 1_444
Cs3 Se0 3.693187 1_554
Cs3 Se2 3.693187 1_555
Cs3 Se2 3.693187 1_445
Cs3 Cu5 3.694856 1_545
Cs3 Cu4 3.694856 1_454
Cs3 Se6 3.873250 1_444
Cs3 Se7 3.873250 1_555
Cs3 Se6 3.873250 1_554
Cs3 Se7 3.873250 1_445
Cu0 Se0 2.432595 1_454
Cu0 Se0 2.432595 1_564
Cu0 Se2 2.481451 1_555
Cu0 Se5 2.738009 1_555
Cu1 Se3 2.432595 1_545
Cu1 Se3 2.432595 1_655
Cu1 Se1 2.481451 1_555
Cu1 Se4 2.738009 1_555
Cu2 Se1 2.432595 1_565
Cu2 Se1 2.432595 1_455
Cu2 Se3 2.481451 1_555
Cu2 Se5 2.738009 1_555
Cu3 Se2 2.432595 1_656
Cu3 Se2 2.432595 1_546
Cu3 Se0 2.481451 1_555
Cu3 Se4 2.738009 1_555
Cu4 Se6 2.358482 1_655
Cu4 Se6 2.358482 1_545
Cu4 Se4 2.381868 1_555
Cu5 Se7 2.358482 1_565
Cu5 Se7 2.358482 1_455
Cu5 Se5 2.381868 1_555
Cu6 Se3 2.355165 1_555
Cu6 Se4 2.606830 1_455
Cu6 Se4 2.606830 1_565
Cu7 Se1 2.355165 1_555
Cu7 Se5 2.606830 1_545
Cu7 Se5 2.606830 1_655
Cu8 Se0 2.355165 1_554
Cu8 Se5 2.606830 1_545
Cu8 Se5 2.606830 1_655
Cu9 Se2 2.355165 1_556
Cu9 Se4 2.606830 1_455
Cu9 Se4 2.606830 1_565
