# generated using pymatgen
data_Ca3PI3
_symmetry_space_group_name_H-M   'P 1'
_cell_length_a   10.72369632
_cell_length_b   10.72418777
_cell_length_c   10.72435175
_cell_angle_alpha   109.47420433
_cell_angle_beta   109.47066111
_cell_angle_gamma   109.46818107
_symmetry_Int_Tables_number   1
_chemical_formula_structural   Ca3PI3
_chemical_formula_sum   'Ca12 P4 I12'
_cell_volume   949.42655143
_cell_formula_units_Z   4
loop_
 _symmetry_equiv_pos_site_id
 _symmetry_equiv_pos_as_xyz
  1  'x, y, z'
loop_
 _atom_site_type_symbol
 _atom_site_label
 _atom_site_symmetry_multiplicity
 _atom_site_fract_x
 _atom_site_fract_y
 _atom_site_fract_z
 _atom_site_occupancy
  Ca  Ca0  1  0.75000378  0.23218098  0.26783679  1
  Ca  Ca1  1  0.23216112  0.26781614  0.74998899  1
  Ca  Ca2  1  0.46434681  0.48216598  0.23216642  1
  Ca  Ca3  1  0.26782759  0.01782890  0.03565107  1
  Ca  Ca4  1  0.23216389  0.46433539  0.48216480  1
  Ca  Ca5  1  0.01783806  0.03566018  0.26783798  1
  Ca  Ca6  1  0.01783535  0.48217675  0.74998633  1
  Ca  Ca7  1  0.48216800  0.23216801  0.46433470  1
  Ca  Ca8  1  0.75001041  0.01782320  0.48216303  1
  Ca  Ca9  1  0.03565698  0.26782335  0.01781935  1
  Ca  Ca10  1  0.48217485  0.74999776  0.01782288  1
  Ca  Ca11  1  0.26782189  0.74999912  0.23216502  1
  P  P0  1  0.49999121  -0.00001015  0.24999047  1
  P  P1  1  0.25000141  0.50000207  0.00000185  1
  P  P2  1  -0.00000136  0.24999883  0.49999798  1
  P  P3  1  0.25000539  0.24999940  0.24999072  1
  I  I0  1  0.99665594  0.99329922  0.74658055  1
  I  I1  1  0.99330879  0.74672838  0.99666966  1
  I  I2  1  0.24995688  0.99666566  0.50336797  1
  I  I3  1  0.74670443  0.99672460  0.99341810  1
  I  I4  1  0.50333078  0.24999171  0.99668178  1
  I  I5  1  0.74671704  0.25002979  0.75328194  1
  I  I6  1  0.50333530  0.75329365  0.50665493  1
  I  I7  1  0.99667549  0.50332299  0.25009097  1
  I  I8  1  0.50659168  0.50328101  0.75330748  1
  I  I9  1  0.24996143  0.75329209  0.74664054  1
  I  I10  1  0.75339471  0.50669748  0.50334077  1
  I  I11  1  0.75335917  0.74670953  0.25005094  1
loop_
_geom_bond_atom_site_label_1
_geom_bond_atom_site_label_2
_geom_bond_distance
_geom_bond_site_symmetry_2
Ca0 P2 2.883430 1_655
Ca0 P0 2.883622 1_555
Ca0 I3 3.155070 1_544
Ca0 I10 3.155445 1_555
Ca0 I7 3.326585 1_555
Ca0 I4 3.327032 1_554
Ca1 P2 2.883434 1_555
Ca1 P1 2.883523 1_556
Ca1 I8 3.155192 1_555
Ca1 I0 3.155502 1_445
Ca1 I2 3.326518 1_545
Ca1 I4 3.327304 1_555
Ca2 P3 2.883478 1_555
Ca2 P1 2.883501 1_555
Ca2 I6 3.155428 1_555
Ca2 I4 3.155480 1_554
Ca2 I11 3.327305 1_555
Ca2 I10 3.327383 1_555
Ca3 P3 2.883335 1_555
Ca3 P0 2.883459 1_555
Ca3 I4 3.155579 1_554
Ca3 I1 3.155602 1_444
Ca3 I9 3.327241 1_544
Ca3 I0 3.327546 1_444
Ca4 P3 2.883471 1_555
Ca4 P2 2.883485 1_555
Ca4 I7 3.154999 1_455
Ca4 I8 3.155411 1_555
Ca4 I9 3.326924 1_555
Ca4 I6 3.327098 1_555
Ca5 P2 2.883379 1_555
Ca5 P3 2.883608 1_555
Ca5 I3 3.155362 1_444
Ca5 I2 3.155585 1_545
Ca5 I1 3.326546 1_444
Ca5 I11 3.327109 1_445
Ca6 P2 2.883335 1_555
Ca6 P1 2.883572 1_556
Ca6 I5 3.155098 1_455
Ca6 I9 3.155314 1_555
Ca6 I10 3.326827 1_455
Ca6 I1 3.327743 1_455
Ca7 P0 2.883418 1_555
Ca7 P3 2.883427 1_555
Ca7 I10 3.156309 1_555
Ca7 I2 3.156325 1_545
Ca7 I5 3.326979 1_555
Ca7 I8 3.327093 1_555
Ca8 P2 2.883436 1_655
Ca8 P0 2.883568 1_555
Ca8 I11 3.155090 1_545
Ca8 I5 3.155285 1_555
Ca8 I0 3.326717 1_545
Ca8 I6 3.327486 1_545
Ca9 P3 2.883482 1_555
Ca9 P1 2.883531 1_555
Ca9 I7 3.156146 1_455
Ca9 I0 3.156259 1_444
Ca9 I3 3.327125 1_444
Ca9 I5 3.327231 1_454
Ca10 P0 2.883412 1_565
Ca10 P1 2.883568 1_555
Ca10 I9 3.155858 1_554
Ca10 I11 3.155866 1_555
Ca10 I8 3.326963 1_554
Ca10 I3 3.327181 1_554
Ca11 P1 2.883396 1_555
Ca11 P0 2.883486 1_565
Ca11 I6 3.155980 1_555
Ca11 I1 3.156152 1_454
Ca11 I2 3.327590 1_555
Ca11 I7 3.327804 1_455
