# generated using pymatgen
data_Ba2Cu3P4
_symmetry_space_group_name_H-M   'P 1'
_cell_length_a   8.36218014
_cell_length_b   8.36228335
_cell_length_c   8.36119689
_cell_angle_alpha   136.36718624
_cell_angle_beta   111.91172791
_cell_angle_gamma   84.43290690
_symmetry_Int_Tables_number   1
_chemical_formula_structural   Ba2Cu3P4
_chemical_formula_sum   'Ba4 Cu6 P8'
_cell_volume   360.35926849
_cell_formula_units_Z   2
loop_
 _symmetry_equiv_pos_site_id
 _symmetry_equiv_pos_as_xyz
  1  'x, y, z'
loop_
 _atom_site_type_symbol
 _atom_site_label
 _atom_site_symmetry_multiplicity
 _atom_site_fract_x
 _atom_site_fract_y
 _atom_site_fract_z
 _atom_site_occupancy
  Ba  Ba0  1  0.09282353  0.89158639  0.20116644  1
  Ba  Ba1  1  0.90717648  0.10841376  0.79883402  1
  Ba  Ba2  1  0.30956915  0.60833861  0.70125497  1
  Ba  Ba3  1  0.69043024  0.39166146  0.29874508  1
  Cu  Cu0  1  0.50009477  0.74961737  0.24966053  1
  Cu  Cu1  1  0.49990387  0.25038134  0.75033881  1
  Cu  Cu2  1  0.28223782  0.03205213  0.74998231  1
  Cu  Cu3  1  0.71798121  0.46760878  0.74975781  1
  Cu  Cu4  1  0.28201908  0.53239152  0.25024256  1
  Cu  Cu5  1  0.71776237  0.96794787  0.25001762  1
  P  P0  1  0.48943292  0.12153344  0.36794448  1
  P  P1  1  0.51056788  0.87846696  0.63205599  1
  P  P2  1  0.24632170  0.37842104  0.86816933  1
  P  P3  1  0.75367828  0.62157899  0.13183017  1
  P  P4  1  0.97222570  0.33803133  0.63396148  1
  P  P5  1  0.02777368  0.66196844  0.36603818  1
  P  P6  1  0.70408495  0.83804358  0.86594855  1
  P  P7  1  0.29591537  0.16195600  0.13405167  1
loop_
_geom_bond_atom_site_label_1
_geom_bond_atom_site_label_2
_geom_bond_distance
_geom_bond_site_symmetry_2
Ba0 P6 3.207648 1_454
Ba0 P5 3.236825 1_555
Ba0 P4 3.238314 1_465
Ba0 P4 3.239433 1_454
Ba0 P0 3.247378 1_565
Ba0 Cu3 3.255216 1_454
Ba0 Cu5 3.255939 1_455
Ba0 P3 3.405504 1_455
Ba0 P7 3.406408 1_565
Ba0 Cu1 3.470857 1_565
Ba0 Cu0 3.471907 1_555
Ba0 Cu4 3.474352 1_555
Ba0 Cu2 3.475511 1_565
Ba0 P2 3.481057 1_554
Ba0 P2 3.482694 1_565
Ba1 P7 3.207651 1_656
Ba1 P4 3.236826 1_555
Ba1 P5 3.238315 1_645
Ba1 P5 3.239430 1_656
Ba1 P1 3.247371 1_545
Ba1 Cu4 3.255218 1_656
Ba1 Cu2 3.255942 1_655
Ba1 P2 3.405508 1_655
Ba1 P6 3.406409 1_545
Ba1 Cu0 3.470867 1_545
Ba1 Cu1 3.471913 1_555
Ba1 Cu3 3.474353 1_555
Ba1 Cu5 3.475514 1_545
Ba1 P3 3.481057 1_556
Ba1 P3 3.482699 1_545
Ba2 P5 3.208539 1_555
Ba2 P6 3.237193 1_555
Ba2 P7 3.238969 1_555
Ba2 P7 3.239691 1_566
Ba2 P2 3.249043 1_555
Ba2 Cu4 3.254240 1_555
Ba2 Cu2 3.255044 1_565
Ba2 P4 3.405154 1_455
Ba2 P1 3.408336 1_555
Ba2 Cu1 3.468159 1_555
Ba2 Cu0 3.468490 1_556
Ba2 Cu5 3.475078 1_556
Ba2 Cu3 3.477126 1_555
Ba2 P0 3.481146 1_566
Ba2 P0 3.481169 1_555
Ba3 P4 3.208539 1_555
Ba3 P7 3.237188 1_555
Ba3 P6 3.238966 1_555
Ba3 P6 3.239696 1_544
Ba3 P3 3.249049 1_555
Ba3 Cu3 3.254239 1_555
Ba3 Cu5 3.255044 1_545
Ba3 P5 3.405154 1_655
Ba3 P0 3.408329 1_555
Ba3 Cu0 3.468154 1_555
Ba3 Cu1 3.468489 1_554
Ba3 Cu2 3.475074 1_554
Ba3 Cu4 3.477120 1_555
Ba3 P1 3.481144 1_544
Ba3 P1 3.481164 1_555
Cu0 P3 2.491053 1_555
Cu0 P2 2.491280 1_554
Cu0 P1 2.492739 1_555
Cu0 P0 2.493621 1_565
Cu1 P2 2.491044 1_555
Cu1 P3 2.491290 1_556
Cu1 P0 2.492744 1_555
Cu1 P1 2.493613 1_545
Cu2 P1 2.315916 1_545
Cu2 P2 2.316370 1_555
Cu2 P7 2.491140 1_556
Cu2 P5 2.491789 1_545
Cu3 P3 2.315395 1_556
Cu3 P0 2.316241 1_555
Cu3 P4 2.490435 1_555
Cu3 P6 2.492210 1_555
Cu4 P2 2.315400 1_554
Cu4 P1 2.316243 1_555
Cu4 P5 2.490439 1_555
Cu4 P7 2.492215 1_555
Cu5 P0 2.315914 1_565
Cu5 P3 2.316368 1_555
Cu5 P6 2.491136 1_554
Cu5 P4 2.491784 1_565
P0 P7 2.246378 1_555
P1 P6 2.246379 1_555
P2 P4 2.246138 1_455
P3 P5 2.246136 1_655
