# generated using pymatgen
data_NaTi3Nb(PO4)6
_symmetry_space_group_name_H-M   'P 1'
_cell_length_a   8.63086561
_cell_length_b   8.63086535
_cell_length_c   22.52903463
_cell_angle_alpha   90.00000000
_cell_angle_beta   90.00000000
_cell_angle_gamma   120.00000104
_symmetry_Int_Tables_number   1
_chemical_formula_structural   NaTi3Nb(PO4)6
_chemical_formula_sum   'Na3 Ti9 Nb3 P18 O72'
_cell_volume   1453.38912152
_cell_formula_units_Z   3
loop_
 _symmetry_equiv_pos_site_id
 _symmetry_equiv_pos_as_xyz
  1  'x, y, z'
loop_
 _atom_site_type_symbol
 _atom_site_label
 _atom_site_symmetry_multiplicity
 _atom_site_fract_x
 _atom_site_fract_y
 _atom_site_fract_z
 _atom_site_occupancy
  Na  Na0  1  -0.00000000  -0.00000000  0.99673010  1
  Na  Na1  1  0.66666700  0.33333300  0.83420300  1
  Na  Na2  1  0.66666700  0.33333300  0.33282471  1
  Ti  Ti0  1  -0.00000000  -0.00000000  0.35777561  1
  Ti  Ti1  1  -0.00000000  -0.00000000  0.85530573  1
  Ti  Ti2  1  0.66666700  0.33333300  0.68956647  1
  Ti  Ti3  1  0.66666700  0.33333300  0.18669247  1
  Ti  Ti4  1  0.66666700  0.33333300  0.97710490  1
  Ti  Ti5  1  0.66666700  0.33333300  0.47691834  1
  Ti  Ti6  1  0.33333300  0.66666700  0.02209584  1
  Ti  Ti7  1  0.33333300  0.66666700  0.30904729  1
  Ti  Ti8  1  0.33333300  0.66666700  0.81122216  1
  Nb  Nb0  1  -0.00000000  -0.00000000  0.64390779  1
  Nb  Nb1  1  -0.00000000  -0.00000000  0.14596154  1
  Nb  Nb2  1  0.33333300  0.66666700  0.52245272  1
  P  P0  1  0.28949268  0.00170781  0.25234413  1
  P  P1  1  0.71221513  0.71050732  0.25234413  1
  P  P2  1  0.99829219  0.28778487  0.25234413  1
  P  P3  1  0.28835800  0.28870286  0.75162829  1
  P  P4  1  0.00034486  0.71164200  0.75162829  1
  P  P5  1  0.71129714  0.99965514  0.75162829  1
  P  P6  1  0.94538117  0.33357657  0.58332264  1
  P  P7  1  0.38819639  0.05461883  0.58332264  1
  P  P8  1  0.66642343  0.61180361  0.58332264  1
  P  P9  1  0.95224640  0.61416611  0.08212055  1
  P  P10  1  0.66192070  0.04775360  0.08212055  1
  P  P11  1  0.38583389  0.33807930  0.08212055  1
  P  P12  1  0.61785399  0.66686054  0.91663338  1
  P  P13  1  0.04900555  0.38214601  0.91663338  1
  P  P14  1  0.33313946  0.95099445  0.91663338  1
  P  P15  1  0.62016754  0.95423761  0.41467459  1
  P  P16  1  0.33406907  0.37983246  0.41467459  1
  P  P17  1  0.04576239  0.66593093  0.41467459  1
  O  O0  1  0.20074827  0.03329643  0.30617555  1
  O  O1  1  0.83254816  0.79925173  0.30617555  1
  O  O2  1  0.96670357  0.16745184  0.30617555  1
  O  O3  1  0.20055178  0.16711744  0.80598036  1
  O  O4  1  0.96656566  0.79944822  0.80598036  1
  O  O5  1  0.83288256  0.03343434  0.80598036  1
  O  O6  1  0.79871433  0.97165906  0.69503611  1
  O  O7  1  0.17294473  0.20128567  0.69503611  1
  O  O8  1  0.02834094  0.82705527  0.69503611  1
  O  O9  1  0.79835579  0.82734521  0.19526809  1
  O  O10  1  0.02898942  0.20164421  0.19526809  1
  O  O11  1  0.17265479  0.97101058  0.19526809  1
  O  O12  1  0.86322794  0.36397839  0.63923789  1
  O  O13  1  0.50075145  0.13677206  0.63923789  1
  O  O14  1  0.63602161  0.49924855  0.63923789  1
  O  O15  1  0.86538066  0.50299111  0.13875979  1
  O  O16  1  0.63761144  0.13461934  0.13875979  1
  O  O17  1  0.49700889  0.36238856  0.13875979  1
  O  O18  1  0.46897083  0.30182931  0.02715697  1
  O  O19  1  0.83285948  0.53102917  0.02715697  1
  O  O20  1  0.69817069  0.16714052  0.02715697  1
  O  O21  1  0.47009333  0.16746058  0.52745045  1
  O  O22  1  0.69736824  0.52990667  0.52745045  1
  O  O23  1  0.83253942  0.30263176  0.52745045  1
  O  O24  1  0.53381513  0.69683360  0.97253364  1
  O  O25  1  0.16301746  0.46618487  0.97253364  1
  O  O26  1  0.30316640  0.83698254  0.97253364  1
  O  O27  1  0.53509326  0.83963934  0.47164269  1
  O  O28  1  0.30454508  0.46490674  0.47164269  1
  O  O29  1  0.16036066  0.69545492  0.47164269  1
  O  O30  1  0.13210897  0.63260969  0.36057335  1
  O  O31  1  0.50049972  0.86789103  0.36057335  1
  O  O32  1  0.36739031  0.49950028  0.36057335  1
  O  O33  1  0.13293935  0.49649074  0.86082353  1
  O  O34  1  0.36355039  0.86706065  0.86082353  1
  O  O35  1  0.50350926  0.63644961  0.86082353  1
  O  O36  1  0.02622196  0.83165571  0.40643682  1
  O  O37  1  0.80543375  0.97377804  0.40643682  1
  O  O38  1  0.16834429  0.19456625  0.40643682  1
  O  O39  1  0.02688091  0.19293983  0.90914135  1
  O  O40  1  0.16605893  0.97311909  0.90914135  1
  O  O41  1  0.80706017  0.83394107  0.90914135  1
  O  O42  1  0.96983538  0.16908335  0.59234067  1
  O  O43  1  0.19924797  0.03016462  0.59234067  1
  O  O44  1  0.83091665  0.80075203  0.59234067  1
  O  O45  1  0.97246801  0.80421653  0.09024712  1
  O  O46  1  0.83174853  0.02753199  0.09024712  1
  O  O47  1  0.19578347  0.16825147  0.09024712  1
  O  O48  1  0.69322378  0.16772850  0.74273586  1
  O  O49  1  0.47450573  0.30677622  0.74273586  1
  O  O50  1  0.83227150  0.52549427  0.74273586  1
  O  O51  1  0.69198817  0.52416697  0.24283326  1
  O  O52  1  0.83217979  0.30801183  0.24283326  1
  O  O53  1  0.47583303  0.16782021  0.24283326  1
  O  O54  1  0.63990831  0.49984770  0.92405804  1
  O  O55  1  0.85994039  0.36009169  0.92405804  1
  O  O56  1  0.50015230  0.14005961  0.92405804  1
  O  O57  1  0.64099179  0.14146941  0.42403051  1
  O  O58  1  0.50047863  0.35900821  0.42403051  1
  O  O59  1  0.85853059  0.49952137  0.42403051  1
  O  O60  1  0.36246637  0.50031042  0.07342357  1
  O  O61  1  0.13784304  0.63753363  0.07342357  1
  O  O62  1  0.49968958  0.86215696  0.07342357  1
  O  O63  1  0.36348509  0.86575157  0.57437877  1
  O  O64  1  0.50226548  0.63651491  0.57437877  1
  O  O65  1  0.13424843  0.49773452  0.57437877  1
  O  O66  1  0.30661704  0.83475328  0.26043224  1
  O  O67  1  0.52813524  0.69338296  0.26043224  1
  O  O68  1  0.16524672  0.47186476  0.26043224  1
  O  O69  1  0.30719723  0.47262066  0.76019891  1
  O  O70  1  0.16542244  0.69280277  0.76019891  1
  O  O71  1  0.52737934  0.83457756  0.76019891  1
loop_
_geom_bond_atom_site_label_1
_geom_bond_atom_site_label_2
_geom_bond_distance
_geom_bond_site_symmetry_2
Na0 O39 2.516818 1_555
Na0 O41 2.516818 1_445
Na0 O40 2.516818 1_545
Na0 O46 2.636115 1_456
Na0 O47 2.636115 1_556
Na0 O45 2.636115 1_446
Na1 O56 2.559039 1_555
Na1 O54 2.559039 1_555
Na1 O55 2.559039 1_555
Na1 O50 2.582522 1_555
Na1 O49 2.582522 1_555
Na1 O48 2.582522 1_555
Na2 O52 2.551677 1_555
Na2 O53 2.551677 1_555
Na2 O51 2.551677 1_555
Na2 O58 2.578067 1_555
Na2 O59 2.578067 1_555
Na2 O57 2.578067 1_555
Nb0 O44 1.981680 1_445
Nb0 O42 1.981680 1_455
Nb0 O43 1.981680 1_555
Nb0 O7 1.994943 1_555
Nb0 O8 1.994943 1_545
Nb0 O6 1.994943 1_445
Nb1 O10 1.972299 1_555
Nb1 O9 1.972299 1_445
Nb1 O11 1.972299 1_545
Nb1 O46 2.021336 1_455
Nb1 O47 2.021336 1_555
Nb1 O45 2.021336 1_445
Nb2 O63 1.985335 1_555
Nb2 O65 1.985335 1_555
Nb2 O64 1.985336 1_555
Nb2 O28 1.992928 1_555
Nb2 O27 1.992928 1_555
Nb2 O29 1.992928 1_555
O0 P0 1.529912 1_555
O0 Ti0 1.984461 1_555
O1 P1 1.529912 1_555
O1 Ti0 1.984461 1_665
O2 P2 1.529912 1_555
O2 Ti0 1.984461 1_655
O3 P3 1.542617 1_555
O3 Ti1 1.953151 1_555
O4 P4 1.542618 1_655
O4 Ti1 1.953151 1_665
O5 P5 1.542618 1_545
O5 Ti1 1.953151 1_655
O6 P5 1.560603 1_555
O7 P3 1.560603 1_555
O8 P4 1.560603 1_555
O9 P1 1.572697 1_555
O10 P2 1.572697 1_455
O11 P0 1.572697 1_565
O12 P6 1.531191 1_555
O12 Ti2 1.945495 1_555
O13 P7 1.531191 1_555
O13 Ti2 1.945495 1_555
O14 P8 1.531191 1_555
O14 Ti2 1.945495 1_555
O15 P9 1.546498 1_555
O15 Ti3 1.934010 1_555
O16 P10 1.546498 1_555
O16 Ti3 1.934010 1_555
O17 P11 1.546498 1_555
O17 Ti3 1.934010 1_555
O18 P11 1.539669 1_555
O18 Ti4 1.947548 1_554
O19 P9 1.539669 1_555
O19 Ti4 1.947548 1_554
O20 P10 1.539669 1_555
O20 Ti4 1.947548 1_554
O21 P7 1.531073 1_555
O21 Ti5 1.948115 1_555
O22 P8 1.531073 1_555
O22 Ti5 1.948115 1_555
O23 P6 1.531073 1_555
O23 Ti5 1.948115 1_555
O24 P12 1.538407 1_555
O24 Ti6 1.964205 1_556
O25 P13 1.538407 1_555
O25 Ti6 1.964205 1_556
O26 P14 1.538407 1_555
O26 Ti6 1.964205 1_556
O27 P15 1.561534 1_555
O28 P16 1.561534 1_555
O29 P17 1.561534 1_555
O30 P17 1.529058 1_555
O30 Ti7 1.984865 1_555
O31 P15 1.529058 1_555
O31 Ti7 1.984865 1_555
O32 P16 1.529058 1_555
O32 Ti7 1.984865 1_555
O33 P13 1.537767 1_555
O33 Ti8 1.963950 1_555
O34 P14 1.537767 1_555
O34 Ti8 1.963950 1_555
O35 P12 1.537767 1_555
O35 Ti8 1.963950 1_555
O36 P17 1.532975 1_555
O36 Ti0 1.921714 1_565
O37 P15 1.532983 1_555
O37 Ti0 1.921714 1_665
O38 P16 1.532980 1_555
O38 Ti0 1.921714 1_555
O39 P13 1.555588 1_555
O39 Ti1 1.977761 1_555
O40 P14 1.555579 1_555
O40 Ti1 1.977761 1_565
O41 P12 1.555584 1_555
O41 Ti1 1.977761 1_665
O42 P6 1.549539 1_555
O43 P7 1.549548 1_555
O44 P8 1.549545 1_555
O45 P9 1.571077 1_555
O46 P10 1.571068 1_555
O47 P11 1.571073 1_555
O48 P5 1.547592 1_545
O48 Ti2 1.964161 1_555
O49 P3 1.547601 1_555
O49 Ti2 1.964161 1_555
O50 P4 1.547597 1_655
O50 Ti2 1.964161 1_555
O51 P1 1.543432 1_555
O51 Ti3 2.000084 1_555
O52 P2 1.543423 1_555
O52 Ti3 2.000083 1_555
O53 P0 1.543428 1_555
O53 Ti3 2.000083 1_555
O54 P12 1.554482 1_555
O54 Ti4 1.969505 1_555
O55 P13 1.554465 1_655
O55 Ti4 1.969505 1_555
O56 P14 1.554472 1_545
O56 Ti4 1.969505 1_555
O57 P15 1.548437 1_545
O57 Ti5 1.960616 1_555
O58 P16 1.548454 1_555
O58 Ti5 1.960616 1_555
O59 P17 1.548444 1_655
O59 Ti5 1.960616 1_555
O60 P11 1.523813 1_555
O60 Ti6 1.955238 1_555
O61 P9 1.523796 1_455
O61 Ti6 1.955238 1_555
O62 P10 1.523803 1_565
O62 Ti6 1.955238 1_555
O63 P7 1.547776 1_565
O64 P8 1.547793 1_555
O65 P6 1.547783 1_455
O66 P0 1.531140 1_565
O66 Ti7 1.921424 1_555
O67 P1 1.531149 1_555
O67 Ti7 1.921424 1_555
O68 P2 1.531145 1_455
O68 Ti7 1.921424 1_555
O69 P3 1.524913 1_555
O69 Ti8 1.949197 1_555
O70 P4 1.524905 1_555
O70 Ti8 1.949197 1_555
O71 P5 1.524909 1_555
O71 Ti8 1.949197 1_555
