# generated using pymatgen
data_Mg(Ag3O4)2
_symmetry_space_group_name_H-M   'P 1'
_cell_length_a   3.68021484
_cell_length_b   5.75787563
_cell_length_c   10.00034268
_cell_angle_alpha   88.55454243
_cell_angle_beta   89.24056356
_cell_angle_gamma   101.95893551
_symmetry_Int_Tables_number   1
_chemical_formula_structural   Mg(Ag3O4)2
_chemical_formula_sum   'Mg1 Ag6 O8'
_cell_volume   207.20727347
_cell_formula_units_Z   1
loop_
 _symmetry_equiv_pos_site_id
 _symmetry_equiv_pos_as_xyz
  1  'x, y, z'
loop_
 _atom_site_type_symbol
 _atom_site_label
 _atom_site_symmetry_multiplicity
 _atom_site_fract_x
 _atom_site_fract_y
 _atom_site_fract_z
 _atom_site_occupancy
  Mg  Mg0  1  0.69246000  0.08784800  0.82386900  1
  Ag  Ag0  1  0.28581700  0.55077100  0.85557400  1
  Ag  Ag1  1  0.67777700  0.93866600  0.35559700  1
  Ag  Ag2  1  0.73376100  0.44402800  0.14495500  1
  Ag  Ag3  1  0.21138200  0.03961900  0.60654700  1
  Ag  Ag4  1  0.95146400  0.48495800  0.48941800  1
  Ag  Ag5  1  0.09389500  0.97241300  0.04063300  1
  O  O0  1  0.98365800  0.32118000  0.68337300  1
  O  O1  1  0.96090800  0.16056000  0.21023800  1
  O  O2  1  0.92746100  0.65735600  0.30455900  1
  O  O3  1  0.13507200  0.91426200  0.81255400  1
  O  O4  1  0.53051500  0.26781300  0.97416900  1
  O  O5  1  0.50245000  0.22445500  0.43448600  1
  O  O6  1  0.41372200  0.75418100  0.52694000  1
  O  O7  1  0.57823000  0.72355800  0.04423300  1
loop_
_geom_bond_atom_site_label_1
_geom_bond_atom_site_label_2
_geom_bond_distance
_geom_bond_site_symmetry_2
Mg0 O4 1.999720 1_555
Mg0 O0 2.048337 1_555
Mg0 O3 2.083421 1_645
Mg0 O3 2.093282 1_545
Ag0 O3 2.305499 1_555
Ag0 O4 2.326118 1_555
Ag0 O7 2.326407 1_556
Ag0 O0 2.346499 1_455
Ag1 O1 2.036074 1_565
Ag1 O5 2.058771 1_565
Ag1 O2 2.091540 1_555
Ag1 O6 2.108316 1_555
Ag2 O7 2.061058 1_555
Ag2 O4 2.076707 1_554
Ag2 O1 2.077299 1_555
Ag2 O2 2.081019 1_555
Ag3 O6 2.108771 1_545
Ag3 O0 2.128317 1_455
Ag3 O5 2.151072 1_555
Ag3 O3 2.160941 1_545
Ag4 O5 2.078630 1_555
Ag4 O2 2.087764 1_555
Ag4 O6 2.095535 1_655
Ag4 O0 2.150707 1_555
Ag5 O7 2.127107 1_455
Ag5 O1 2.140172 1_465
Ag5 O4 2.167661 1_564
Ag5 O3 2.321169 1_554
Ag5 O7 2.507814 1_555
