# generated using pymatgen
data_Ga2TeO6
_symmetry_space_group_name_H-M   'P 1'
_cell_length_a   4.55683832
_cell_length_b   4.55683832
_cell_length_c   8.99347239
_cell_angle_alpha   90.00000000
_cell_angle_beta   90.00000000
_cell_angle_gamma   90.00000000
_symmetry_Int_Tables_number   1
_chemical_formula_structural   Ga2TeO6
_chemical_formula_sum   'Ga4 Te2 O12'
_cell_volume   186.74743492
_cell_formula_units_Z   2
loop_
 _symmetry_equiv_pos_site_id
 _symmetry_equiv_pos_as_xyz
  1  'x, y, z'
loop_
 _atom_site_type_symbol
 _atom_site_label
 _atom_site_symmetry_multiplicity
 _atom_site_fract_x
 _atom_site_fract_y
 _atom_site_fract_z
 _atom_site_occupancy
  Ga  Ga0  1  0.00000000  0.00000000  0.33483746  1
  Ga  Ga1  1  0.50000000  0.50000000  0.83483746  1
  Ga  Ga2  1  0.50000000  0.50000000  0.16516254  1
  Ga  Ga3  1  0.00000000  0.00000000  0.66516254  1
  Te  Te0  1  0.50000000  0.50000000  0.50000000  1
  Te  Te1  1  0.00000000  0.00000000  0.00000000  1
  O  O0  1  0.80699189  0.80699189  0.83719512  1
  O  O1  1  0.19300811  0.19300811  0.83719512  1
  O  O2  1  0.80699189  0.80699189  0.16280488  1
  O  O3  1  0.30699189  0.69300811  0.33719512  1
  O  O4  1  0.69300811  0.30699189  0.33719512  1
  O  O5  1  0.69300811  0.30699189  0.66280488  1
  O  O6  1  0.29987981  0.70012019  0.00000000  1
  O  O7  1  0.79987981  0.79987981  0.50000000  1
  O  O8  1  0.20012019  0.20012019  0.50000000  1
  O  O9  1  0.70012019  0.29987981  0.00000000  1
  O  O10  1  0.19300811  0.19300811  0.16280488  1
  O  O11  1  0.30699189  0.69300811  0.66280488  1
loop_
_geom_bond_atom_site_label_1
_geom_bond_atom_site_label_2
_geom_bond_distance
_geom_bond_site_symmetry_2
Ga0 O7 1.967116 1_445
Ga0 O8 1.967116 1_555
Ga0 O3 1.978475 1_545
Ga0 O4 1.978475 1_455
Ga0 O2 1.985145 1_445
Ga0 O10 1.985145 1_555
Ga1 O9 1.967116 1_556
Ga1 O6 1.967116 1_556
Ga1 O1 1.978475 1_555
Ga1 O0 1.978475 1_555
Ga1 O5 1.985145 1_555
Ga1 O11 1.985145 1_555
Ga2 O9 1.967116 1_555
Ga2 O6 1.967116 1_555
Ga2 O10 1.978475 1_555
Ga2 O2 1.978475 1_555
Ga2 O3 1.985145 1_555
Ga2 O4 1.985145 1_555
Ga3 O8 1.967116 1_555
Ga3 O7 1.967116 1_445
Ga3 O5 1.978475 1_455
Ga3 O11 1.978475 1_545
Ga3 O0 1.985145 1_445
Ga3 O1 1.985145 1_555
O0 Te1 1.921169 1_666
O1 Te1 1.921169 1_556
O2 Te1 1.921169 1_665
O3 Te0 1.921169 1_555
O4 Te0 1.921169 1_555
O5 Te0 1.921169 1_555
O6 Te1 1.932528 1_565
O7 Te0 1.932528 1_555
O8 Te0 1.932528 1_555
O9 Te1 1.932528 1_655
O10 Te1 1.921169 1_555
O11 Te0 1.921169 1_555
