# generated using pymatgen
data_Na4AlSi2SnPO12
_symmetry_space_group_name_H-M   'P 1'
_cell_length_a   8.92505285
_cell_length_b   8.92505255
_cell_length_c   22.02000554
_cell_angle_alpha   90.08311222
_cell_angle_beta   89.91688778
_cell_angle_gamma   119.75073485
_symmetry_Int_Tables_number   1
_chemical_formula_structural   Na4AlSi2SnPO12
_chemical_formula_sum   'Na24 Al6 Si12 Sn6 P6 O72'
_cell_volume   1522.84042367
_cell_formula_units_Z   6
loop_
 _symmetry_equiv_pos_site_id
 _symmetry_equiv_pos_as_xyz
  1  'x, y, z'
loop_
 _atom_site_type_symbol
 _atom_site_label
 _atom_site_symmetry_multiplicity
 _atom_site_fract_x
 _atom_site_fract_y
 _atom_site_fract_z
 _atom_site_occupancy
  Na  Na0  1  0.63812360  0.00270540  0.25026671  1
  Na  Na1  1  0.36817372  0.36691351  0.24713677  1
  Na  Na2  1  0.99378090  0.62773751  0.24995806  1
  Na  Na3  1  0.63308649  0.63182628  0.74713677  1
  Na  Na4  1  0.99729460  0.36187640  0.75026671  1
  Na  Na5  1  0.37226249  0.00621910  0.74995806  1
  Na  Na6  1  0.30479060  0.33603840  0.58359971  1
  Na  Na7  1  0.03484072  0.70024651  0.58046977  1
  Na  Na8  1  0.66044790  0.96107051  0.58329106  1
  Na  Na9  1  0.29975349  0.96515928  0.08046977  1
  Na  Na10  1  0.66396160  0.69520940  0.08359971  1
  Na  Na11  1  0.03892949  0.33955210  0.08329106  1
  Na  Na12  1  0.97145660  0.66937240  0.91693371  1
  Na  Na13  1  0.70150672  0.03358051  0.91380377  1
  Na  Na14  1  0.32711390  0.29440451  0.91662506  1
  Na  Na15  1  0.96641949  0.29849328  0.41380377  1
  Na  Na16  1  0.33062760  0.02854340  0.41693371  1
  Na  Na17  1  0.70559549  0.67288610  0.41662506  1
  Na  Na18  1  0.99817463  0.99498881  0.49777979  1
  Na  Na19  1  0.00501119  0.00182537  0.99777979  1
  Na  Na20  1  0.66484163  0.32832181  0.83111279  1
  Na  Na21  1  0.67167819  0.33515837  0.33111279  1
  Na  Na22  1  0.33150763  0.66165581  0.16444679  1
  Na  Na23  1  0.33834419  0.66849237  0.66444679  1
  Al  Al0  1  0.98666048  0.99101680  0.35233596  1
  Al  Al1  1  0.00898320  0.01333952  0.85233596  1
  Al  Al2  1  0.65332748  0.32434980  0.68566896  1
  Al  Al3  1  0.67565020  0.34667252  0.18566896  1
  Al  Al4  1  0.31999348  0.65768380  0.01900296  1
  Al  Al5  1  0.34231620  0.68000652  0.51900296  1
  Si  Si0  1  0.70968097  0.70500172  0.25153830  1
  Si  Si1  1  0.99381895  0.28823736  0.25217192  1
  Si  Si2  1  0.29499828  0.29031903  0.75153830  1
  Si  Si3  1  0.71176264  0.00618105  0.75217192  1
  Si  Si4  1  0.37634797  0.03833472  0.58487130  1
  Si  Si5  1  0.66048595  0.62157036  0.58550492  1
  Si  Si6  1  0.96166528  0.62365203  0.08487130  1
  Si  Si7  1  0.37842964  0.33951405  0.08550492  1
  Si  Si8  1  0.04301397  0.37166872  0.91820530  1
  Si  Si9  1  0.32715195  0.95490436  0.91883892  1
  Si  Si10  1  0.62833128  0.95698603  0.41820530  1
  Si  Si11  1  0.04509564  0.67284805  0.41883892  1
  Sn  Sn0  1  0.99859003  0.99946845  0.64946944  1
  Sn  Sn1  1  0.00053155  0.00140997  0.14946944  1
  Sn  Sn2  1  0.66525703  0.33280145  0.98280244  1
  Sn  Sn3  1  0.66719855  0.33474297  0.48280244  1
  Sn  Sn4  1  0.33192303  0.66613545  0.31613644  1
  Sn  Sn5  1  0.33386455  0.66807697  0.81613644  1
  P  P0  1  0.29289958  0.00488719  0.25222290  1
  P  P1  1  0.99511281  0.70710042  0.75222290  1
  P  P2  1  0.95956658  0.33822019  0.58555590  1
  P  P3  1  0.66177981  0.04043342  0.08555590  1
  P  P4  1  0.62623258  0.67155419  0.91888990  1
  P  P5  1  0.32844581  0.37376742  0.41888990  1
  O  O0  1  0.20520493  0.03457176  0.30710907  1
  O  O1  1  0.83608898  0.79702493  0.30927930  1
  O  O2  1  0.96740906  0.16377223  0.31011190  1
  O  O3  1  0.20297507  0.16391102  0.80927930  1
  O  O4  1  0.96542824  0.79479507  0.80710907  1
  O  O5  1  0.83622777  0.03259094  0.81011190  1
  O  O6  1  0.78154109  0.95559628  0.69048735  1
  O  O7  1  0.17418911  0.21809124  0.69027490  1
  O  O8  1  0.03887249  0.81987106  0.69338945  1
  O  O9  1  0.78190876  0.82581089  0.19027490  1
  O  O10  1  0.04440372  0.21845891  0.19048735  1
  O  O11  1  0.18012894  0.96112751  0.19338945  1
  O  O12  1  0.87187193  0.36790476  0.64044207  1
  O  O13  1  0.50275598  0.13035793  0.64261230  1
  O  O14  1  0.63407606  0.49710523  0.64344490  1
  O  O15  1  0.86964207  0.49724402  0.14261230  1
  O  O16  1  0.63209524  0.12812807  0.14044207  1
  O  O17  1  0.50289477  0.36592394  0.14344490  1
  O  O18  1  0.44820809  0.28892928  0.02382035  1
  O  O19  1  0.84085611  0.55142424  0.02360790  1
  O  O20  1  0.70553949  0.15320406  0.02672245  1
  O  O21  1  0.44857576  0.15914389  0.52360790  1
  O  O22  1  0.71107072  0.55179191  0.52382035  1
  O  O23  1  0.84679594  0.29446051  0.52672245  1
  O  O24  1  0.53853793  0.70123876  0.97377607  1
  O  O25  1  0.16942198  0.46369193  0.97594630  1
  O  O26  1  0.30074206  0.83043923  0.97677890  1
  O  O27  1  0.53630807  0.83057802  0.47594630  1
  O  O28  1  0.29876124  0.46146207  0.47377607  1
  O  O29  1  0.16956077  0.69925794  0.47677890  1
  O  O30  1  0.11487409  0.62226328  0.35715435  1
  O  O31  1  0.50752211  0.88475824  0.35694190  1
  O  O32  1  0.37220549  0.48653806  0.36005645  1
  O  O33  1  0.11524176  0.49247789  0.85694190  1
  O  O34  1  0.37773672  0.88512591  0.85715435  1
  O  O35  1  0.51346194  0.62779451  0.86005645  1
  O  O36  1  0.03001422  0.84763959  0.40975934  1
  O  O37  1  0.82071566  0.97831740  0.41065005  1
  O  O38  1  0.16862235  0.19316713  0.41064750  1
  O  O39  1  0.02168260  0.17928434  0.91065005  1
  O  O40  1  0.15236041  0.96998578  0.90975934  1
  O  O41  1  0.80683287  0.83137765  0.91064750  1
  O  O42  1  0.97721982  0.17219767  0.58841302  1
  O  O43  1  0.18331996  0.02119878  0.58875136  1
  O  O44  1  0.83509979  0.81579554  0.58824690  1
  O  O45  1  0.97880122  0.81668004  0.08875136  1
  O  O46  1  0.82780233  0.02278018  0.08841302  1
  O  O47  1  0.18420446  0.16490021  0.08824690  1
  O  O48  1  0.69668122  0.18097259  0.74309234  1
  O  O49  1  0.48738266  0.31165040  0.74398305  1
  O  O50  1  0.83528935  0.52650013  0.74398050  1
  O  O51  1  0.68834960  0.51261734  0.24398305  1
  O  O52  1  0.81902741  0.30331878  0.24309234  1
  O  O53  1  0.47349987  0.16471065  0.24398050  1
  O  O54  1  0.64388682  0.50553067  0.92174602  1
  O  O55  1  0.84998696  0.35453178  0.92208436  1
  O  O56  1  0.50176679  0.14912854  0.92157990  1
  O  O57  1  0.64546822  0.15001304  0.42208436  1
  O  O58  1  0.49446933  0.35611318  0.42174602  1
  O  O59  1  0.85087146  0.49823321  0.42157990  1
  O  O60  1  0.36334722  0.51430659  0.07642634  1
  O  O61  1  0.15404866  0.64498440  0.07731705  1
  O  O62  1  0.50195535  0.85983413  0.07731450  1
  O  O63  1  0.35501560  0.84595134  0.57731705  1
  O  O64  1  0.48569341  0.63665278  0.57642634  1
  O  O65  1  0.14016587  0.49804465  0.57731450  1
  O  O66  1  0.31055282  0.83886467  0.25508002  1
  O  O67  1  0.51665296  0.68786578  0.25541836  1
  O  O68  1  0.16843279  0.48246254  0.25491390  1
  O  O69  1  0.31213422  0.48334704  0.75541836  1
  O  O70  1  0.16113533  0.68944718  0.75508002  1
  O  O71  1  0.51753746  0.83156721  0.75491390  1
loop_
_geom_bond_atom_site_label_1
_geom_bond_atom_site_label_2
_geom_bond_distance
_geom_bond_site_symmetry_2
Na0 O52 2.351921 1_555
Na0 O67 2.461965 1_545
Na0 O53 2.525500 1_555
Na0 O66 2.540385 1_545
Na0 O31 2.601158 1_545
Na0 O16 2.678120 1_555
Na0 O9 2.807901 1_545
Na0 O2 2.872806 1_555
Na1 O53 2.414220 1_555
Na1 O68 2.468618 1_555
Na1 O51 2.484628 1_555
Na1 O67 2.495322 1_555
Na1 O17 2.581042 1_555
Na1 O32 2.697824 1_555
Na1 O10 2.804923 1_555
Na1 O0 2.895122 1_555
Na2 O51 2.392686 1_555
Na2 O68 2.475799 1_655
Na2 O66 2.503921 1_655
Na2 O52 2.521233 1_555
Na2 O30 2.608134 1_655
Na2 O15 2.624934 1_555
Na2 O1 2.840645 1_555
Na2 O11 2.874852 1_655
Na3 O50 2.414220 1_555
Na3 O71 2.468618 1_555
Na3 O49 2.484628 1_555
Na3 O69 2.495322 1_555
Na3 O14 2.581042 1_555
Na3 O35 2.697824 1_555
Na3 O6 2.804923 1_555
Na3 O4 2.895122 1_555
Na4 O48 2.351921 1_555
Na4 O69 2.461965 1_655
Na4 O50 2.525500 1_555
Na4 O70 2.540385 1_655
Na4 O33 2.601158 1_655
Na4 O12 2.678120 1_555
Na4 O7 2.807901 1_655
Na4 O5 2.872806 1_555
Na5 O49 2.392686 1_555
Na5 O71 2.475799 1_545
Na5 O70 2.503921 1_545
Na5 O48 2.521234 1_555
Na5 O34 2.608134 1_545
Na5 O13 2.624934 1_555
Na5 O3 2.840645 1_555
Na5 O8 2.874852 1_545
Na6 O64 2.351925 1_555
Na6 O43 2.461965 1_555
Na6 O65 2.525514 1_555
Na6 O42 2.540385 1_455
Na6 O7 2.601158 1_555
Na6 O28 2.678106 1_555
Na6 O21 2.807901 1_555
Na6 O14 2.872806 1_555
Na7 O65 2.414204 1_555
Na7 O44 2.468618 1_455
Na7 O63 2.484619 1_555
Na7 O43 2.495322 1_565
Na7 O29 2.581017 1_555
Na7 O8 2.697824 1_555
Na7 O22 2.804923 1_455
Na7 O12 2.895122 1_455
Na8 O63 2.392694 1_555
Na8 O44 2.475799 1_555
Na8 O42 2.503921 1_565
Na8 O64 2.521225 1_555
Na8 O6 2.608134 1_555
Na8 O27 2.624914 1_555
Na8 O13 2.840645 1_565
Na8 O23 2.874852 1_565
Na9 O62 2.414204 1_555
Na9 O47 2.468618 1_565
Na9 O61 2.484619 1_555
Na9 O45 2.495322 1_455
Na9 O26 2.581017 1_554
Na9 O11 2.697824 1_555
Na9 O18 2.804923 1_565
Na9 O16 2.895122 1_565
Na10 O60 2.351925 1_555
Na10 O45 2.461965 1_555
Na10 O62 2.525514 1_555
Na10 O46 2.540385 1_565
Na10 O9 2.601158 1_555
Na10 O24 2.678106 1_554
Na10 O19 2.807901 1_555
Na10 O17 2.872806 1_555
Na11 O61 2.392694 1_555
Na11 O47 2.475799 1_555
Na11 O46 2.503921 1_455
Na11 O60 2.521225 1_555
Na11 O10 2.608134 1_555
Na11 O25 2.624914 1_554
Na11 O15 2.840645 1_455
Na11 O20 2.874852 1_455
Na12 O40 2.351921 1_655
Na12 O55 2.461973 1_555
Na12 O41 2.525500 1_555
Na12 O54 2.540377 1_555
Na12 O19 2.601138 1_556
Na12 O4 2.678120 1_555
Na12 O33 2.807901 1_655
Na12 O26 2.872806 1_655
Na13 O41 2.414220 1_545
Na13 O56 2.468602 1_555
Na13 O39 2.484628 1_655
Na13 O55 2.495313 1_555
Na13 O5 2.581042 1_555
Na13 O20 2.697799 1_556
Na13 O34 2.804923 1_545
Na13 O24 2.895122 1_545
Na14 O39 2.392686 1_555
Na14 O56 2.475813 1_555
Na14 O54 2.503925 1_555
Na14 O40 2.521233 1_545
Na14 O18 2.608120 1_556
Na14 O3 2.624934 1_555
Na14 O25 2.840645 1_555
Na14 O35 2.874852 1_555
Na15 O38 2.414220 1_655
Na15 O59 2.468602 1_555
Na15 O37 2.484628 1_545
Na15 O57 2.495313 1_555
Na15 O2 2.581042 1_555
Na15 O23 2.697799 1_555
Na15 O30 2.804923 1_655
Na15 O28 2.895122 1_655
Na16 O36 2.351921 1_545
Na16 O57 2.461973 1_555
Na16 O38 2.525500 1_555
Na16 O58 2.540377 1_555
Na16 O21 2.601138 1_555
Na16 O0 2.678120 1_555
Na16 O31 2.807901 1_545
Na16 O29 2.872806 1_545
Na17 O37 2.392686 1_555
Na17 O59 2.475813 1_555
Na17 O58 2.503925 1_555
Na17 O36 2.521234 1_655
Na17 O22 2.608120 1_555
Na17 O1 2.624934 1_555
Na17 O27 2.840645 1_555
Na17 O32 2.874852 1_555
Na18 O36 2.434913 1_655
Na18 O37 2.446585 1_555
Na18 O44 2.516985 1_555
Na18 O43 2.534296 1_665
Na18 O38 2.540647 1_665
Na18 O42 2.608208 1_565
Na19 O40 2.434913 1_545
Na19 O39 2.446585 1_555
Na19 O47 2.516985 1_556
Na19 O45 2.534296 1_446
Na19 O41 2.540647 1_445
Na19 O46 2.608208 1_456
Na20 O48 2.434913 1_555
Na20 O49 2.446585 1_555
Na20 O56 2.516985 1_555
Na20 O55 2.534296 1_555
Na20 O50 2.540647 1_555
Na20 O54 2.608208 1_555
Na21 O52 2.434913 1_555
Na21 O51 2.446585 1_555
Na21 O59 2.516985 1_555
Na21 O57 2.534296 1_555
Na21 O53 2.540647 1_555
Na21 O58 2.608208 1_555
Na22 O60 2.434913 1_555
Na22 O61 2.446585 1_555
Na22 O68 2.516985 1_555
Na22 O67 2.534296 1_555
Na22 O62 2.540647 1_555
Na22 O66 2.608208 1_555
Na23 O64 2.434913 1_555
Na23 O63 2.446585 1_555
Na23 O71 2.516985 1_555
Na23 O69 2.534296 1_555
Na23 O65 2.540647 1_555
Na23 O70 2.608208 1_555
Al0 O1 1.841824 1_555
Al0 O2 1.881184 1_565
Al0 O37 1.919260 1_555
Al0 O36 1.970687 1_655
Al0 O0 2.047055 1_665
Al0 O38 2.152364 1_665
Al1 O3 1.841824 1_555
Al1 O5 1.881184 1_455
Al1 O39 1.919260 1_555
Al1 O40 1.970687 1_545
Al1 O4 2.047055 1_445
Al1 O41 2.152364 1_445
Al2 O13 1.841824 1_555
Al2 O14 1.881184 1_555
Al2 O49 1.919260 1_555
Al2 O48 1.970687 1_555
Al2 O12 2.047055 1_555
Al2 O50 2.152364 1_555
Al3 O15 1.841824 1_555
Al3 O17 1.881184 1_555
Al3 O51 1.919260 1_555
Al3 O52 1.970687 1_555
Al3 O16 2.047055 1_555
Al3 O53 2.152364 1_555
Al4 O25 1.841824 1_554
Al4 O26 1.881184 1_554
Al4 O61 1.919260 1_555
Al4 O60 1.970687 1_555
Al4 O24 2.047055 1_554
Al4 O62 2.152364 1_555
Al5 O27 1.841824 1_555
Al5 O29 1.881184 1_555
Al5 O63 1.919260 1_555
Al5 O64 1.970687 1_555
Al5 O28 2.047055 1_555
Al5 O65 2.152364 1_555
O0 P0 1.531535 1_555
O1 Si0 1.626502 1_555
O2 Si1 1.631166 1_555
O3 Si2 1.626502 1_555
O4 P1 1.531535 1_555
O5 Si3 1.631166 1_555
O6 Si3 1.646649 1_565
O6 Sn0 1.991208 1_555
O7 Si2 1.646167 1_555
O7 Sn0 2.008706 1_445
O8 P1 1.567192 1_455
O8 Sn0 2.052160 1_455
O9 Si0 1.646167 1_555
O9 Sn1 2.008706 1_665
O10 Si1 1.646649 1_455
O10 Sn1 1.991208 1_555
O11 P0 1.567192 1_565
O11 Sn1 2.052160 1_565
O12 P2 1.531535 1_555
O13 Si4 1.626502 1_555
O14 Si5 1.631166 1_555
O15 Si6 1.626502 1_555
O16 P3 1.531535 1_555
O17 Si7 1.631166 1_555
O18 Si7 1.646649 1_555
O18 Sn2 1.991208 1_554
O19 Si6 1.646167 1_555
O19 Sn2 2.008706 1_554
O20 P3 1.567192 1_555
O20 Sn2 2.052160 1_554
O21 Si4 1.646167 1_555
O21 Sn3 2.008706 1_555
O22 Si5 1.646649 1_555
O22 Sn3 1.991208 1_555
O23 P2 1.567192 1_555
O23 Sn3 2.052160 1_555
O24 P4 1.531535 1_555
O25 Si8 1.626502 1_555
O26 Si9 1.631166 1_555
O27 Si10 1.626502 1_555
O28 P5 1.531535 1_555
O29 Si11 1.631166 1_555
O30 Si11 1.646649 1_555
O30 Sn4 1.991208 1_555
O31 Si10 1.646167 1_555
O31 Sn4 2.008706 1_555
O32 P5 1.567192 1_555
O32 Sn4 2.052160 1_555
O33 Si8 1.646167 1_555
O33 Sn5 2.008706 1_555
O34 Si9 1.646649 1_555
O34 Sn5 1.991208 1_555
O35 P4 1.567192 1_555
O35 Sn5 2.052160 1_555
O36 Si11 1.643516 1_555
O37 Si10 1.639203 1_555
O38 P5 1.543955 1_555
O39 Si8 1.639203 1_555
O40 Si9 1.643517 1_555
O41 P4 1.543955 1_555
O42 P2 1.567288 1_555
O42 Sn0 2.125821 1_545
O43 Si4 1.654327 1_555
O43 Sn0 2.054390 1_445
O44 Si5 1.660162 1_555
O44 Sn0 2.063784 1_555
O45 Si6 1.654327 1_555
O45 Sn1 2.054390 1_665
O46 P3 1.567288 1_555
O46 Sn1 2.125821 1_655
O47 Si7 1.660162 1_555
O47 Sn1 2.063784 1_555
O48 Si3 1.643516 1_555
O49 Si2 1.639203 1_555
O50 P1 1.543955 1_555
O51 Si0 1.639203 1_555
O52 Si1 1.643517 1_555
O53 P0 1.543955 1_555
O54 P4 1.567301 1_555
O54 Sn2 2.125821 1_555
O55 Si8 1.654313 1_655
O55 Sn2 2.054390 1_555
O56 Si9 1.660160 1_545
O56 Sn2 2.063784 1_555
O57 Si10 1.654313 1_545
O57 Sn3 2.054390 1_555
O58 P5 1.567301 1_555
O58 Sn3 2.125821 1_555
O59 Si11 1.660160 1_655
O59 Sn3 2.063784 1_555
O60 Si7 1.643528 1_555
O61 Si6 1.639188 1_455
O62 P3 1.543951 1_565
O63 Si4 1.639188 1_565
O64 Si5 1.643528 1_555
O65 P2 1.543951 1_455
O66 P0 1.567288 1_565
O66 Sn4 2.125821 1_555
O67 Si0 1.654327 1_555
O67 Sn4 2.054390 1_555
O68 Si1 1.660162 1_455
O68 Sn4 2.063784 1_555
O69 Si2 1.654327 1_555
O69 Sn5 2.054390 1_555
O70 P1 1.567288 1_455
O70 Sn5 2.125821 1_555
O71 Si3 1.660162 1_565
O71 Sn5 2.063784 1_555
