# generated using pymatgen
data_MgTi4(CuS4)2
_symmetry_space_group_name_H-M   'P 1'
_cell_length_a   7.39423985
_cell_length_b   7.39596875
_cell_length_c   7.39475704
_cell_angle_alpha   59.99822203
_cell_angle_beta   60.00464944
_cell_angle_gamma   59.98884483
_symmetry_Int_Tables_number   1
_chemical_formula_structural   MgTi4(CuS4)2
_chemical_formula_sum   'Mg1 Ti4 Cu2 S8'
_cell_volume   285.93696719
_cell_formula_units_Z   1
loop_
 _symmetry_equiv_pos_site_id
 _symmetry_equiv_pos_as_xyz
  1  'x, y, z'
loop_
 _atom_site_type_symbol
 _atom_site_label
 _atom_site_symmetry_multiplicity
 _atom_site_fract_x
 _atom_site_fract_y
 _atom_site_fract_z
 _atom_site_occupancy
  Mg  Mg0  1  0.62365800  0.62639900  0.62361100  1
  Ti  Ti0  1  0.47776100  0.06716600  0.47773600  1
  Ti  Ti1  1  0.06507200  0.47825400  0.47844100  1
  Ti  Ti2  1  0.47842800  0.47823900  0.06500000  1
  Ti  Ti3  1  0.47774500  0.47733500  0.47780100  1
  Cu  Cu0  1  0.87425900  0.87570700  0.87439300  1
  Cu  Cu1  1  0.12515400  0.12483100  0.12515600  1
  S  S0  1  0.74853800  0.74819800  0.74842900  1
  S  S1  1  0.25113300  0.25200300  0.74487800  1
  S  S2  1  0.25157100  0.74442300  0.25159400  1
  S  S3  1  0.74486600  0.25200500  0.25113500  1
  S  S4  1  0.74848600  0.25487100  0.74842800  1
  S  S5  1  0.25275600  0.74890000  0.74940400  1
  S  S6  1  0.25153500  0.25241600  0.25159000  1
  S  S7  1  0.74940700  0.74888300  0.25277400  1
loop_
_geom_bond_atom_site_label_1
_geom_bond_atom_site_label_2
_geom_bond_distance
_geom_bond_site_symmetry_2
Mg0 S7 2.239192 1_555
Mg0 S5 2.239219 1_555
Mg0 S0 2.243173 1_555
Mg0 S4 2.243363 1_555
Mg0 Ti0 2.661442 1_565
Mg0 Ti3 2.661559 1_555
Mg0 Ti1 2.664888 1_655
Mg0 Ti2 2.665175 1_556
Cu0 S7 2.284714 1_556
Cu0 S5 2.285035 1_655
Cu0 S4 2.289451 1_565
Cu0 S0 2.289628 1_555
Cu1 S3 2.295842 1_455
Cu1 S1 2.296159 1_554
Cu1 S6 2.296904 1_555
Cu1 S2 2.296957 1_545
S0 Ti1 2.844231 1_655
S0 Ti2 2.845276 1_556
S0 Ti0 2.853197 1_565
S1 Ti0 2.382970 1_555
S1 Ti3 2.382992 1_555
S1 Ti1 2.384308 1_555
S2 Ti3 2.384315 1_555
S2 Ti1 2.385618 1_555
S2 Ti2 2.385855 1_555
S3 Ti0 2.382961 1_555
S3 Ti3 2.382975 1_555
S3 Ti2 2.384560 1_555
S4 Ti2 2.844367 1_556
S4 Ti1 2.844749 1_655
S4 Ti3 2.852654 1_555
S5 Ti2 2.849277 1_556
S5 Ti3 2.861174 1_555
S5 Ti0 2.862040 1_565
S6 Ti0 2.384303 1_555
S6 Ti1 2.385519 1_555
S6 Ti2 2.385758 1_555
S7 Ti1 2.849526 1_655
S7 Ti0 2.861578 1_565
S7 Ti3 2.861621 1_555
