# generated using pymatgen
data_MgTi6AgS12
_symmetry_space_group_name_H-M   'P 1'
_cell_length_a   10.28043066
_cell_length_b   5.93390209
_cell_length_c   8.68139971
_cell_angle_alpha   70.08856104
_cell_angle_beta   53.74488621
_cell_angle_gamma   90.03280315
_symmetry_Int_Tables_number   1
_chemical_formula_structural   MgTi6AgS12
_chemical_formula_sum   'Mg1 Ti6 Ag1 S12'
_cell_volume   387.01937468
_cell_formula_units_Z   1
loop_
 _symmetry_equiv_pos_site_id
 _symmetry_equiv_pos_as_xyz
  1  'x, y, z'
loop_
 _atom_site_type_symbol
 _atom_site_label
 _atom_site_symmetry_multiplicity
 _atom_site_fract_x
 _atom_site_fract_y
 _atom_site_fract_z
 _atom_site_occupancy
  Mg  Mg0  1  0.99890300  0.99943100  0.00140000  1
  Ti  Ti0  1  0.08179000  0.74589500  0.50251400  1
  Ti  Ti1  1  0.25492500  0.24613400  0.48923700  1
  Ti  Ti2  1  0.41506300  0.74584600  0.50276000  1
  Ti  Ti3  1  0.58302800  0.25272100  0.50031700  1
  Ti  Ti4  1  0.74344600  0.75278600  0.51324800  1
  Ti  Ti5  1  0.91691700  0.25334500  0.49953400  1
  Ag  Ag0  1  0.49970400  0.49947900  0.00126900  1
  S  S0  1  0.02937000  0.69984500  0.27202900  1
  S  S1  1  0.19214700  0.19157500  0.27306400  1
  S  S2  1  0.36133900  0.70128300  0.27716800  1
  S  S3  1  0.13378700  0.80129400  0.73221700  1
  S  S4  1  0.30021300  0.29947300  0.73032500  1
  S  S5  1  0.53416300  0.19116000  0.27355900  1
  S  S6  1  0.69803200  0.69933800  0.27240100  1
  S  S7  1  0.46423500  0.80741400  0.72924300  1
  S  S8  1  0.86450500  0.19756900  0.27025900  1
  S  S9  1  0.63726100  0.29764700  0.72526000  1
  S  S10  1  0.80656700  0.80763000  0.72909900  1
  S  S11  1  0.96906700  0.29941900  0.73016000  1
loop_
_geom_bond_atom_site_label_1
_geom_bond_atom_site_label_2
_geom_bond_distance
_geom_bond_site_symmetry_2
Mg0 S8 2.606913 1_565
Mg0 S0 2.608523 1_655
Mg0 S6 2.608895 1_555
Mg0 S3 2.608983 1_654
Mg0 S11 2.609108 1_564
Mg0 S4 2.611705 1_664
Ag0 S5 2.665702 1_555
Ag0 S10 2.666982 1_554
Ag0 S2 2.668358 1_555
Ag0 S9 2.669179 1_554
Ag0 S7 2.669991 1_554
Ag0 S1 2.671285 1_555
S0 Ti5 2.447186 1_455
S0 Ti0 2.452844 1_555
S0 Ti4 2.508560 1_455
S1 Ti1 2.426813 1_555
S1 Ti5 2.432721 1_455
S1 Ti0 2.446317 1_545
S2 Ti2 2.417114 1_555
S2 Ti0 2.420810 1_555
S2 Ti1 2.471489 1_555
S3 Ti1 2.462671 1_565
S3 Ti2 2.464250 1_555
S3 Ti0 2.465263 1_555
S4 Ti2 2.446646 1_555
S4 Ti3 2.455415 1_555
S4 Ti1 2.510200 1_555
S5 Ti1 2.431624 1_555
S5 Ti3 2.433179 1_555
S5 Ti2 2.444246 1_545
S6 Ti3 2.448289 1_555
S6 Ti2 2.456425 1_555
S6 Ti4 2.509280 1_555
S7 Ti4 2.430933 1_555
S7 Ti2 2.433014 1_555
S7 Ti3 2.443797 1_565
S8 Ti4 2.462424 1_545
S8 Ti5 2.465495 1_555
S8 Ti3 2.465805 1_555
S9 Ti3 2.416115 1_555
S9 Ti5 2.421355 1_555
S9 Ti4 2.471382 1_555
S10 Ti4 2.427307 1_555
S10 Ti0 2.432755 1_655
S10 Ti5 2.446657 1_565
S11 Ti0 2.447251 1_655
S11 Ti5 2.452156 1_555
S11 Ti1 2.508464 1_655
