# generated using pymatgen
data_La3PI3
_symmetry_space_group_name_H-M   'P 1'
_cell_length_a   10.86957726
_cell_length_b   10.86903996
_cell_length_c   10.86984576
_cell_angle_alpha   109.47108382
_cell_angle_beta   109.47277803
_cell_angle_gamma   109.47066992
_symmetry_Int_Tables_number   1
_chemical_formula_structural   La3PI3
_chemical_formula_sum   'La12 P4 I12'
_cell_volume   988.55461372
_cell_formula_units_Z   4
loop_
 _symmetry_equiv_pos_site_id
 _symmetry_equiv_pos_as_xyz
  1  'x, y, z'
loop_
 _atom_site_type_symbol
 _atom_site_label
 _atom_site_symmetry_multiplicity
 _atom_site_fract_x
 _atom_site_fract_y
 _atom_site_fract_z
 _atom_site_occupancy
  La  La0  1  0.26825920  0.01827359  0.03652171  1
  La  La1  1  0.03650891  0.26824108  0.01825435  1
  La  La2  1  0.48171603  0.75001547  0.01828157  1
  La  La3  1  0.74999557  0.23173633  0.26825280  1
  La  La4  1  0.01824956  0.03652088  0.26824255  1
  La  La5  1  0.01836860  0.48183094  0.74999248  1
  La  La6  1  0.23175345  0.26827300  0.74999574  1
  La  La7  1  0.26826761  0.75001034  0.23172943  1
  La  La8  1  0.23174895  0.46346696  0.48173657  1
  La  La9  1  0.46347302  0.48173156  0.23173720  1
  La  La10  1  0.74999664  0.01825453  0.48173048  1
  La  La11  1  0.48173935  0.23176104  0.46347161  1
  P  P0  1  -0.00000304  0.24999996  0.49999337  1
  P  P1  1  0.24999607  0.49999181  -0.00000447  1
  P  P2  1  0.50000177  0.00002205  0.25000362  1
  P  P3  1  0.24999004  0.24999714  0.24998993  1
  I  I0  1  0.75968191  0.74017192  0.24997419  1
  I  I1  1  0.50979868  0.24999632  0.99022071  1
  I  I2  1  0.24999319  0.99018123  0.50980894  1
  I  I3  1  0.51946957  0.50970412  0.75968759  1
  I  I4  1  0.99022441  0.98049457  0.74022440  1
  I  I5  1  0.74031262  0.99029001  0.98049074  1
  I  I6  1  0.50976408  0.75979210  0.51959981  1
  I  I7  1  0.75976072  0.51948852  0.50976523  1
  I  I8  1  0.99019732  0.50979078  0.25001609  1
  I  I9  1  0.98039359  0.74021789  0.99020866  1
  I  I10  1  0.25000491  0.75973672  0.74026870  1
  I  I11  1  0.74033628  0.25000613  0.75980601  1
loop_
_geom_bond_atom_site_label_1
_geom_bond_atom_site_label_2
_geom_bond_distance
_geom_bond_site_symmetry_2
La0 P3 2.917452 1_555
La0 P2 2.917551 1_555
La1 P3 2.917456 1_555
La1 P1 2.917662 1_555
La2 P2 2.917354 1_565
La2 P1 2.917434 1_555
La3 P2 2.917429 1_555
La3 P0 2.917581 1_655
La4 P3 2.917505 1_555
La4 P0 2.917612 1_555
La5 P0 2.917462 1_555
La5 P1 2.917541 1_556
La6 P1 2.917563 1_556
La6 P0 2.917633 1_555
La7 P2 2.917504 1_565
La7 P1 2.917584 1_555
La8 P3 2.917453 1_555
La8 P0 2.917558 1_555
La9 P3 2.917487 1_555
La9 P1 2.917584 1_555
La10 P0 2.917574 1_655
La10 P2 2.917637 1_555
La11 P3 2.917491 1_555
La11 P2 2.917509 1_555
I0 La2 3.287054 1_555
I0 La10 3.287182 1_565
I0 La9 3.386749 1_555
I0 La4 3.388211 1_665
I1 La0 3.287460 1_556
I1 La9 3.287582 1_556
I1 La3 3.387329 1_556
I1 La6 3.387667 1_555
I2 La4 3.288041 1_565
I2 La11 3.288119 1_565
I2 La6 3.387525 1_565
I2 La7 3.387636 1_555
I3 La8 3.286594 1_555
I3 La6 3.286733 1_555
I3 La11 3.386854 1_555
I3 La2 3.388329 1_556
I4 La1 3.286956 1_666
I4 La6 3.287172 1_665
I4 La10 3.387208 1_565
I4 La0 3.387688 1_666
I5 La4 3.286748 1_666
I5 La3 3.287238 1_566
I5 La1 3.386554 1_666
I5 La2 3.388379 1_556
I6 La7 3.287694 1_555
I6 La9 3.287869 1_555
I6 La8 3.387234 1_555
I6 La10 3.387783 1_565
I7 La11 3.286704 1_555
I7 La3 3.286947 1_555
I7 La5 3.387228 1_655
I7 La9 3.387695 1_555
I8 La8 3.287687 1_655
I8 La1 3.287838 1_655
I8 La3 3.387307 1_555
I8 La7 3.387883 1_655
I9 La0 3.287712 1_666
I9 La7 3.287759 1_656
I9 La4 3.387262 1_666
I9 La5 3.387948 1_655
I10 La5 3.285509 1_555
I10 La2 3.286724 1_556
I10 La0 3.387517 1_566
I10 La8 3.387549 1_555
I11 La10 3.287009 1_555
I11 La5 3.288024 1_655
I11 La1 3.386570 1_656
I11 La11 3.388476 1_555
