# generated using pymatgen
data_Na6Zn2Si5Ge6S7O48
_symmetry_space_group_name_H-M   'P 1'
_cell_length_a   17.14532943
_cell_length_b   8.75385880
_cell_length_c   22.07548778
_cell_angle_alpha   89.48322656
_cell_angle_beta   89.86382255
_cell_angle_gamma   120.65864791
_symmetry_Int_Tables_number   1
_chemical_formula_structural   Na6Zn2Si5Ge6S7O48
_chemical_formula_sum   'Na18 Zn6 Si15 Ge18 S21 O144'
_cell_volume   2849.92566320
_cell_formula_units_Z   3
loop_
 _symmetry_equiv_pos_site_id
 _symmetry_equiv_pos_as_xyz
  1  'x, y, z'
loop_
 _atom_site_type_symbol
 _atom_site_label
 _atom_site_symmetry_multiplicity
 _atom_site_fract_x
 _atom_site_fract_y
 _atom_site_fract_z
 _atom_site_occupancy
  Na  Na0  1  0.65789770  0.35695350  0.58288943  1
  Na  Na1  1  0.51214678  0.68065604  0.58764456  1
  Na  Na2  1  0.82798267  0.97520545  0.58412704  1
  Na  Na3  1  0.15782639  0.96038448  0.08717321  1
  Na  Na4  1  0.32715351  0.68298199  0.09025033  1
  Na  Na5  1  0.01117488  0.34560875  0.09407537  1
  Na  Na6  1  0.00924601  0.99405125  0.49764434  1
  Na  Na7  1  0.48819389  0.00489272  0.49651878  1
  Na  Na8  1  0.98992665  0.97455566  0.00030537  1
  Na  Na9  1  0.50813798  0.01532153  0.99945138  1
  Na  Na10  1  0.32717208  0.32104613  0.82721873  1
  Na  Na11  1  0.82872893  0.33017393  0.83132855  1
  Na  Na12  1  0.32559941  0.32836666  0.33132066  1
  Na  Na13  1  0.83418918  0.33614759  0.32941715  1
  Na  Na14  1  0.16227652  0.66306569  0.16379983  1
  Na  Na15  1  0.67565486  0.68281967  0.16899864  1
  Na  Na16  1  0.17417676  0.66699662  0.66518795  1
  Na  Na17  1  0.66434694  0.66260844  0.65911375  1
  Zn  Zn0  1  0.33015204  0.30839032  0.69490073  1
  Zn  Zn1  1  0.83073377  0.33277823  0.68038155  1
  Zn  Zn2  1  0.32890898  0.32574842  0.18235479  1
  Zn  Zn3  1  0.83221762  0.35418815  0.19684743  1
  Zn  Zn4  1  0.16456862  0.66635172  0.02146213  1
  Zn  Zn5  1  0.66556634  0.66527694  0.51976032  1
  Si  Si0  1  0.64007956  0.99901470  0.25029320  1
  Si  Si1  1  0.85936337  0.72791747  0.25651146  1
  Si  Si2  1  0.14037361  0.28094960  0.75040942  1
  Si  Si3  1  0.36139033  0.99147622  0.75626648  1
  Si  Si4  1  0.46552800  0.32935915  0.58357725  1
  Si  Si5  1  0.68806981  0.05374059  0.58562694  1
  Si  Si6  1  0.84129582  0.64082972  0.58966472  1
  Si  Si7  1  0.96540336  0.60683571  0.08419548  1
  Si  Si8  1  0.34232502  0.04561360  0.08691150  1
  Si  Si9  1  0.18591920  0.32467373  0.08663120  1
  Si  Si10  1  0.81194554  0.67415850  0.91231376  1
  Si  Si11  1  0.66837152  0.96531655  0.91601623  1
  Si  Si12  1  0.30992023  0.94383611  0.41032962  1
  Si  Si13  1  0.16793195  0.37090668  0.41642880  1
  Si  Si14  1  0.01887394  0.65499364  0.41766647  1
  Ge  Ge0  1  0.00470827  0.98747217  0.35984288  1
  Ge  Ge1  1  0.49918106  0.00138685  0.35190747  1
  Ge  Ge2  1  0.99945801  0.99370070  0.85224148  1
  Ge  Ge3  1  0.50679227  0.99540699  0.85146898  1
  Ge  Ge4  1  0.00853044  0.00376462  0.64706775  1
  Ge  Ge5  1  0.48581036  0.00391365  0.63882727  1
  Ge  Ge6  1  0.99230747  0.97317323  0.14563641  1
  Ge  Ge7  1  0.50382444  0.02267088  0.15377649  1
  Ge  Ge8  1  0.33102858  0.30492583  0.98880110  1
  Ge  Ge9  1  0.82401283  0.35362882  0.97455174  1
  Ge  Ge10  1  0.32384078  0.28818871  0.47182077  1
  Ge  Ge11  1  0.83630446  0.37386767  0.48733398  1
  Ge  Ge12  1  0.67142269  0.68695303  0.01085525  1
  Ge  Ge13  1  0.16820142  0.65753901  0.50673456  1
  Ge  Ge14  1  0.16044501  0.64560501  0.32173753  1
  Ge  Ge15  1  0.67260236  0.69609269  0.30904648  1
  Ge  Ge16  1  0.17056625  0.64530757  0.80712200  1
  Ge  Ge17  1  0.67229101  0.68652060  0.81695706  1
  S  S0  1  0.14454070  0.98422934  0.25327281  1
  S  S1  1  0.35164513  0.71291111  0.25045651  1
  S  S2  1  0.01125198  0.29153663  0.25321290  1
  S  S3  1  0.50122396  0.29690188  0.25480657  1
  S  S4  1  0.64514721  0.30681169  0.75418686  1
  S  S5  1  0.00314768  0.71062977  0.75478512  1
  S  S6  1  0.51040640  0.71740564  0.75264211  1
  S  S7  1  0.85213821  0.99332312  0.75090171  1
  S  S8  1  0.98798667  0.34299110  0.58383692  1
  S  S9  1  0.18647663  0.02545524  0.58195395  1
  S  S10  1  0.32430435  0.61948415  0.58229682  1
  S  S11  1  0.48546060  0.62328799  0.07905908  1
  S  S12  1  0.82491338  0.03449468  0.08143280  1
  S  S13  1  0.68481082  0.34787039  0.07974163  1
  S  S14  1  0.31558970  0.65327991  0.91712125  1
  S  S15  1  0.02066193  0.37508458  0.91325351  1
  S  S16  1  0.52001908  0.38417756  0.91738000  1
  S  S17  1  0.17120511  0.96636005  0.91531898  1
  S  S18  1  0.81299457  0.96888424  0.41630056  1
  S  S19  1  0.66690650  0.37708289  0.41378420  1
  S  S20  1  0.51970906  0.66457132  0.41321244  1
  O  O0  1  0.10097061  0.00057032  0.30885349  1
  O  O1  1  0.59106642  0.03349102  0.30837128  1
  O  O2  1  0.40554671  0.81266098  0.30382955  1
  O  O3  1  0.91591434  0.83419073  0.31555954  1
  O  O4  1  0.48316775  0.17939083  0.30809043  1
  O  O5  1  0.01482135  0.19191247  0.30600999  1
  O  O6  1  0.09121913  0.15177751  0.80946072  1
  O  O7  1  0.60237830  0.19897555  0.81156639  1
  O  O8  1  0.51189172  0.81673894  0.80839938  1
  O  O9  1  0.98458437  0.78675554  0.80979878  1
  O  O10  1  0.41852261  0.00508114  0.81746562  1
  O  O11  1  0.90232526  0.99424263  0.80592736  1
  O  O12  1  0.40470394  0.94449390  0.69669122  1
  O  O13  1  0.89350324  0.97752444  0.69378511  1
  O  O14  1  0.07820083  0.18965301  0.68912143  1
  O  O15  1  0.59471014  0.21767809  0.69866267  1
  O  O16  1  0.01306680  0.81783962  0.69871386  1
  O  O17  1  0.52561331  0.81870217  0.69609545  1
  O  O18  1  0.39409221  0.81659122  0.19196847  1
  O  O19  1  0.89976555  0.85615063  0.19460519  1
  O  O20  1  0.02382114  0.22319290  0.19388016  1
  O  O21  1  0.51278815  0.21484843  0.19741765  1
  O  O22  1  0.09451229  0.97589863  0.19583631  1
  O  O23  1  0.57746441  0.96743965  0.18783771  1
  O  O24  1  0.42756371  0.39131971  0.63807951  1
  O  O25  1  0.95380243  0.36377663  0.64172837  1
  O  O26  1  0.23819762  0.10631308  0.63595429  1
  O  O27  1  0.75506703  0.11182580  0.64213316  1
  O  O28  1  0.30799156  0.52893604  0.63986226  1
  O  O29  1  0.81938622  0.51988650  0.64800165  1
  O  O30  1  0.45128936  0.53201936  0.13662390  1
  O  O31  1  0.92494411  0.45987193  0.13684901  1
  O  O32  1  0.32009963  0.12523860  0.14377046  1
  O  O33  1  0.80709577  0.09182460  0.13779256  1
  O  O34  1  0.25735966  0.40091971  0.14051235  1
  O  O35  1  0.74031712  0.38461111  0.13277071  1
  O  O36  1  0.23019042  0.26275588  0.02861978  1
  O  O37  1  0.71827078  0.30877852  0.02194959  1
  O  O38  1  0.42098933  0.53225558  0.02609938  1
  O  O39  1  0.90859327  0.52173401  0.01909053  1
  O  O40  1  0.36943859  0.17234502  0.02402524  1
  O  O41  1  0.83400364  0.13955385  0.02662710  1
  O  O42  1  0.22162425  0.13149942  0.52395060  1
  O  O43  1  0.73626004  0.20708638  0.52810743  1
  O  O44  1  0.33726161  0.53769754  0.52903556  1
  O  O45  1  0.86828322  0.56973157  0.52832946  1
  O  O46  1  0.40880429  0.30450323  0.51927339  1
  O  O47  1  0.92484780  0.30899807  0.53180114  1
  O  O48  1  0.27629264  0.67820366  0.97183730  1
  O  O49  1  0.76822342  0.70980502  0.97217072  1
  O  O50  1  0.06958331  0.44752593  0.96903243  1
  O  O51  1  0.57749182  0.46955599  0.97114983  1
  O  O52  1  0.16248909  0.87547808  0.97264526  1
  O  O53  1  0.64124657  0.83122115  0.97378080  1
  O  O54  1  0.27121719  0.83031318  0.47299155  1
  O  O55  1  0.77477646  0.85773216  0.47031989  1
  O  O56  1  0.14465060  0.45205293  0.47510873  1
  O  O57  1  0.65683671  0.44657785  0.47130827  1
  O  O58  1  0.08498765  0.69797047  0.47576591  1
  O  O59  1  0.56748775  0.68814391  0.46964029  1
  O  O60  1  0.05849530  0.60994283  0.35731296  1
  O  O61  1  0.56677188  0.63767842  0.35993893  1
  O  O62  1  0.24525877  0.85482230  0.35229006  1
  O  O63  1  0.75562947  0.87959366  0.36045275  1
  O  O64  1  0.19366662  0.50121460  0.35739835  1
  O  O65  1  0.67425679  0.48551103  0.36013786  1
  O  O66  1  0.06790295  0.50038607  0.85941009  1
  O  O67  1  0.56032452  0.49205511  0.86098880  1
  O  O68  1  0.18023586  0.87951337  0.86148151  1
  O  O69  1  0.68807983  0.88002271  0.85660663  1
  O  O70  1  0.25805199  0.62496117  0.86165543  1
  O  O71  1  0.74780412  0.63567218  0.85356624  1
  O  O72  1  0.00587213  0.82733584  0.41273591  1
  O  O73  1  0.51236597  0.82761650  0.40537312  1
  O  O74  1  0.41315682  0.97241587  0.40514093  1
  O  O75  1  0.90640059  0.00006638  0.40940891  1
  O  O76  1  0.08130030  0.16915710  0.40857432  1
  O  O77  1  0.58398055  0.19231463  0.40932166  1
  O  O78  1  0.01263531  0.19825734  0.90503522  1
  O  O79  1  0.50858860  0.20630139  0.91476401  1
  O  O80  1  0.08936643  0.98827802  0.91133594  1
  O  O81  1  0.58126100  0.99906966  0.90880653  1
  O  O82  1  0.40832608  0.81467578  0.91020400  1
  O  O83  1  0.91524218  0.85245257  0.90736271  1
  O  O84  1  0.46484904  0.13926646  0.58890499  1
  O  O85  1  0.99705305  0.18079533  0.58366745  1
  O  O86  1  0.09438177  0.01010948  0.58688454  1
  O  O87  1  0.58724008  0.04714905  0.59565505  1
  O  O88  1  0.41650042  0.80126472  0.58477007  1
  O  O89  1  0.92919057  0.84963587  0.59615860  1
  O  O90  1  0.49774153  0.80240081  0.07744977  1
  O  O91  1  0.96843602  0.79846544  0.09214651  1
  O  O92  1  0.43032674  0.01074868  0.09517943  1
  O  O93  1  0.91313026  0.03163359  0.08332479  1
  O  O94  1  0.08575298  0.13245367  0.09598078  1
  O  O95  1  0.59392469  0.18101478  0.08797382  1
  O  O96  1  0.35509349  0.16474082  0.75284586  1
  O  O97  1  0.84320719  0.14982789  0.75261006  1
  O  O98  1  0.24011447  0.31766317  0.74659724  1
  O  O99  1  0.73707123  0.33701974  0.75387823  1
  O  O100  1  0.42908289  0.54563770  0.75527180  1
  O  O101  1  0.92893579  0.52840934  0.75078611  1
  O  O102  1  0.34752563  0.54232659  0.25058335  1
  O  O103  1  0.85379002  0.54253551  0.25354294  1
  O  O104  1  0.42543438  0.32587819  0.24970172  1
  O  O105  1  0.92987510  0.30221723  0.25467619  1
  O  O106  1  0.23553757  0.14198574  0.25164902  1
  O  O107  1  0.74005918  0.16166164  0.24600913  1
  O  O108  1  0.32504250  0.49358392  0.92070333  1
  O  O109  1  0.82055241  0.49723774  0.91676354  1
  O  O110  1  0.43012907  0.37337265  0.92281576  1
  O  O111  1  0.92924258  0.35210384  0.91334894  1
  O  O112  1  0.25671961  0.15146922  0.91724668  1
  O  O113  1  0.75717947  0.16196597  0.92690681  1
  O  O114  1  0.32199349  0.14175173  0.41520003  1
  O  O115  1  0.81561777  0.13785202  0.42006216  1
  O  O116  1  0.25760713  0.35148509  0.42772546  1
  O  O117  1  0.75023175  0.36178916  0.41538955  1
  O  O118  1  0.42803264  0.50604493  0.41345377  1
  O  O119  1  0.91865383  0.47329990  0.42761064  1
  O  O120  1  0.16263453  0.47529399  0.07181055  1
  O  O121  1  0.67006867  0.49928756  0.06906524  1
  O  O122  1  0.07014064  0.66077860  0.07553901  1
  O  O123  1  0.57414944  0.62984560  0.07040155  1
  O  O124  1  0.25826569  0.84894063  0.07555558  1
  O  O125  1  0.74632622  0.84175363  0.07428664  1
  O  O126  1  0.17505377  0.84852375  0.57516127  1
  O  O127  1  0.66340609  0.85656569  0.56973304  1
  O  O128  1  0.24906570  0.66016600  0.57396893  1
  O  O129  1  0.75677405  0.66863710  0.57762540  1
  O  O130  1  0.07907560  0.50631464  0.57506795  1
  O  O131  1  0.57073478  0.48301251  0.57526298  1
  O  O132  1  0.14536680  0.81525791  0.25399024  1
  O  O133  1  0.63409990  0.80389691  0.25716107  1
  O  O134  1  0.26202735  0.69860416  0.25176625  1
  O  O135  1  0.75739426  0.71025987  0.25923654  1
  O  O136  1  0.09621374  0.47913614  0.25492370  1
  O  O137  1  0.58930537  0.46471797  0.25898574  1
  O  O138  1  0.13482691  0.46484455  0.75601540  1
  O  O139  1  0.64291703  0.47565383  0.75764551  1
  O  O140  1  0.09265339  0.72120865  0.76000459  1
  O  O141  1  0.59419247  0.69843200  0.75715924  1
  O  O142  1  0.26024723  0.80454917  0.76043581  1
  O  O143  1  0.76057556  0.82325904  0.75203214  1
loop_
_geom_bond_atom_site_label_1
_geom_bond_atom_site_label_2
_geom_bond_distance
_geom_bond_site_symmetry_2
Na0 O131 2.271363 1_555
Na0 O87 2.352838 1_555
Na0 O129 2.368104 1_555
Na0 O57 2.581311 1_555
Na0 O43 2.609069 1_555
Na0 O15 2.788472 1_555
Na0 O29 2.791942 1_555
Na0 O84 2.857471 1_555
Na1 O127 2.272584 1_555
Na1 O88 2.360716 1_555
Na1 O131 2.420084 1_555
Na1 O24 2.439938 1_555
Na1 O17 2.648705 1_555
Na1 O59 2.759052 1_555
Na1 O87 2.789338 1_565
Na1 O44 2.907172 1_555
Na2 O129 2.319374 1_555
Na2 O127 2.482582 1_555
Na2 O27 2.485509 1_565
Na2 O89 2.496413 1_555
Na2 O85 2.514154 1_565
Na2 O13 2.667019 1_555
Na2 O55 2.702286 1_555
Na2 O47 2.758870 1_565
Na3 O122 2.279809 1_555
Na3 O124 2.387204 1_555
Na3 O94 2.395009 1_565
Na3 O36 2.607253 1_565
Na3 O52 2.654140 1_554
Na3 O22 2.663624 1_555
Na3 O32 2.709004 1_565
Na3 O91 2.804774 1_455
Na4 O124 2.313884 1_555
Na4 O34 2.385510 1_555
Na4 O92 2.490738 1_565
Na4 O120 2.493264 1_555
Na4 O18 2.533371 1_555
Na4 O90 2.568971 1_555
Na4 O48 2.751530 1_554
Na4 O38 2.919348 1_555
Na5 O120 2.291549 1_555
Na5 O31 2.365689 1_455
Na5 O93 2.395426 1_455
Na5 O122 2.436064 1_555
Na5 O20 2.499254 1_555
Na5 O94 2.747824 1_555
Na6 O72 2.368612 1_555
Na6 O76 2.396843 1_565
Na6 O86 2.416778 1_565
Na6 O89 2.525524 1_455
Na6 O85 2.593240 1_465
Na6 O75 2.648644 1_465
Na7 O74 2.335551 1_545
Na7 O88 2.484996 1_545
Na7 O84 2.494565 1_555
Na7 O77 2.504856 1_555
Na7 O87 2.683604 1_555
Na7 O73 2.708645 1_545
Na8 O83 2.376562 1_554
Na8 O91 2.446063 1_555
Na8 O93 2.453184 1_565
Na8 O80 2.559226 1_654
Na8 O94 2.612263 1_665
Na8 O78 2.748412 1_664
Na9 O81 2.402349 1_545
Na9 O95 2.444395 1_556
Na9 O90 2.464226 1_546
Na9 O92 2.485524 1_556
Na9 O79 2.494088 1_555
Na9 O82 2.628351 1_545
Na10 O98 2.316218 1_555
Na10 O96 2.345575 1_555
Na10 O112 2.391479 1_555
Na10 O100 2.422395 1_555
Na10 O108 2.579457 1_555
Na10 O110 2.643853 1_555
Na11 O99 2.345940 1_555
Na11 O111 2.443128 1_555
Na11 O109 2.443988 1_555
Na11 O101 2.452287 1_555
Na11 O97 2.453746 1_555
Na11 O113 2.492862 1_555
Na12 O106 2.373817 1_555
Na12 O114 2.437842 1_555
Na12 O102 2.458561 1_555
Na12 O118 2.463982 1_555
Na12 O116 2.483076 1_555
Na12 O104 2.490157 1_555
Na13 O103 2.346505 1_555
Na13 O107 2.424623 1_555
Na13 O105 2.448453 1_555
Na13 O117 2.459402 1_555
Na13 O115 2.547416 1_555
Na13 O119 2.554630 1_555
Na14 O136 2.448008 1_555
Na14 O132 2.502417 1_555
Na14 O122 2.505035 1_555
Na14 O134 2.505359 1_555
Na14 O124 2.519423 1_555
Na14 O120 2.626041 1_555
Na15 O135 2.380880 1_555
Na15 O125 2.447772 1_555
Na15 O133 2.493902 1_555
Na15 O137 2.611159 1_555
Na15 O123 2.682254 1_555
Na15 O121 2.713885 1_555
Na16 O128 2.403207 1_555
Na16 O142 2.509372 1_555
Na16 O138 2.513750 1_555
Na16 O130 2.514343 1_555
Na16 O126 2.528549 1_555
Na16 O140 2.690829 1_555
Na17 O129 2.376869 1_555
Na17 O131 2.442811 1_555
Na17 O143 2.570823 1_555
Na17 O141 2.571830 1_555
Na17 O127 2.596903 1_555
Na17 O139 2.619797 1_555
Ge0 O3 1.738170 1_455
Ge0 O76 1.821770 1_565
Ge0 O72 1.824272 1_555
Ge0 O0 1.949356 1_565
Ge0 O75 2.057500 1_465
Ge0 O5 2.071071 1_565
Ge1 O1 1.738091 1_555
Ge1 O74 1.795992 1_545
Ge1 O2 1.941124 1_545
Ge1 O4 1.962001 1_555
Ge1 O73 2.019325 1_545
Ge1 O77 2.020509 1_555
Ge2 O6 1.740988 1_665
Ge2 O83 1.799479 1_555
Ge2 O9 1.945581 1_555
Ge2 O11 1.958282 1_555
Ge2 O80 2.040440 1_655
Ge2 O78 2.059631 1_665
Ge3 O10 1.730899 1_565
Ge3 O81 1.788861 1_555
Ge3 O8 1.877159 1_555
Ge3 O7 1.903614 1_565
Ge3 O82 2.064700 1_555
Ge3 O79 2.313069 1_565
Ge4 O14 1.728240 1_555
Ge4 O89 1.759745 1_445
Ge4 O86 1.959802 1_555
Ge4 O16 2.012688 1_545
Ge4 O13 2.128357 1_445
Ge4 O85 2.161562 1_455
Ge5 O12 1.754394 1_545
Ge5 O84 1.777692 1_555
Ge5 O87 1.841247 1_555
Ge5 O88 1.969307 1_545
Ge5 O15 2.285965 1_555
Ge5 O17 2.405861 1_545
Ge6 O19 1.746343 1_555
Ge6 O91 1.815850 1_555
Ge6 O94 1.843489 1_665
Ge6 O22 2.065526 1_655
Ge6 O93 2.168316 1_565
Ge6 O20 2.248348 1_665
Ge7 O23 1.736019 1_545
Ge7 O92 1.774318 1_555
Ge7 O21 1.883651 1_555
Ge7 O18 2.002127 1_545
Ge7 O95 2.046240 1_555
Ge8 O40 1.775091 1_556
Ge8 O36 1.798355 1_556
Ge8 O38 1.980503 1_556
Ge8 O112 2.055552 1_555
Ge8 O110 2.074142 1_555
Ge8 O108 2.264208 1_555
Ge9 O39 1.758326 1_556
Ge9 O109 1.805219 1_555
Ge9 O113 1.819652 1_555
Ge9 O37 1.947692 1_556
Ge9 O111 2.256997 1_555
Ge9 O41 2.269836 1_556
Ge10 O46 1.742863 1_555
Ge10 O116 1.783644 1_555
Ge10 O114 1.787247 1_555
Ge10 O42 1.946146 1_555
Ge10 O118 2.226812 1_555
Ge10 O44 2.440777 1_555
Ge11 O45 1.769460 1_555
Ge11 O119 1.790659 1_555
Ge11 O43 1.816290 1_555
Ge11 O47 2.113508 1_555
Ge11 O117 2.136925 1_555
Ge11 O115 2.431105 1_555
Ge12 O49 1.781972 1_554
Ge12 O53 1.783866 1_554
Ge12 O125 1.927259 1_555
Ge12 O123 1.971495 1_555
Ge12 O51 1.973501 1_554
Ge12 O121 2.067236 1_555
Ge13 O58 1.772978 1_555
Ge13 O56 1.780276 1_555
Ge13 O54 1.791933 1_555
Ge13 O128 2.025730 1_555
Ge13 O130 2.062292 1_555
Ge13 O126 2.221880 1_555
Ge14 O60 1.789451 1_555
Ge14 O62 1.798494 1_555
Ge14 O64 1.805608 1_555
Ge14 O136 1.980316 1_555
Ge14 O134 2.187416 1_555
Ge14 O132 2.205089 1_555
Ge15 O135 1.773137 1_555
Ge15 O133 1.804916 1_555
Ge15 O63 1.898180 1_555
Ge15 O61 1.962083 1_555
Ge15 O137 2.112131 1_555
Ge15 O65 2.164947 1_555
Ge16 O142 1.774886 1_555
Ge16 O138 1.786656 1_555
Ge16 O66 1.930455 1_555
Ge16 O70 2.002018 1_555
Ge16 O140 2.051134 1_555
Ge16 O68 2.317226 1_555
Ge17 O71 1.764574 1_555
Ge17 O69 1.808008 1_555
Ge17 O141 1.922172 1_555
Ge17 O143 1.972085 1_555
Ge17 O67 2.038741 1_555
Ge17 O139 2.115176 1_555
O0 S0 1.480457 1_545
O1 Si0 1.643642 1_545
O2 S1 1.485103 1_555
O3 Si1 1.616380 1_555
O4 S3 1.479622 1_555
O5 S2 1.469412 1_555
O6 Si2 1.638449 1_555
O7 S4 1.517024 1_555
O8 S6 1.506212 1_555
O9 S5 1.499781 1_655
O10 Si3 1.639856 1_545
O11 S7 1.487985 1_555
O12 Si3 1.663391 1_555
O13 S7 1.486893 1_555
O14 Si2 1.662243 1_555
O15 S4 1.480939 1_555
O16 S5 1.502373 1_555
O17 S6 1.468067 1_555
O18 S1 1.523556 1_555
O19 Si1 1.668042 1_555
O20 S2 1.504734 1_555
O21 S3 1.523389 1_555
O22 S0 1.513860 1_555
O23 Si0 1.685563 1_555
O24 Si4 1.591724 1_555
O24 Zn0 1.904452 1_555
O25 S8 1.455765 1_555
O25 Zn1 2.158097 1_555
O26 S9 1.445183 1_555
O26 Zn0 2.124890 1_555
O27 Si5 1.598946 1_555
O27 Zn1 1.900701 1_555
O28 S10 1.440644 1_555
O28 Zn0 2.460870 1_555
O29 Si6 1.577332 1_555
O29 Zn1 1.880455 1_555
O30 S11 1.448174 1_555
O30 Zn2 2.185261 1_555
O31 Si7 1.595745 1_555
O31 Zn3 1.898843 1_555
O32 Si8 1.578272 1_555
O32 Zn2 1.893774 1_555
O33 S12 1.434905 1_555
O33 Zn3 2.491521 1_555
O34 Si9 1.596270 1_555
O34 Zn2 1.899681 1_555
O35 S13 1.442034 1_555
O35 Zn3 2.232998 1_555
O36 Si9 1.713894 1_555
O37 S13 1.509456 1_555
O38 S11 1.532423 1_555
O39 Si7 1.689754 1_555
O40 Si8 1.678472 1_555
O41 S12 1.471975 1_555
O42 S9 1.506261 1_555
O43 Si5 1.711748 1_555
O44 S10 1.456200 1_555
O45 Si6 1.655509 1_555
O46 Si4 1.674695 1_555
O47 S8 1.504505 1_555
O48 S14 1.453046 1_555
O48 Zn4 2.159971 1_556
O49 Si10 1.626846 1_555
O50 S15 1.448596 1_555
O50 Zn4 2.128059 1_556
O51 S16 1.486277 1_555
O52 S17 1.454805 1_555
O52 Zn4 2.131924 1_556
O53 Si11 1.622877 1_555
O54 Si12 1.624720 1_555
O55 S18 1.457157 1_555
O55 Zn5 2.067731 1_555
O56 Si13 1.626427 1_555
O57 S19 1.460301 1_555
O57 Zn5 2.139412 1_555
O58 Si14 1.628541 1_555
O59 S20 1.449977 1_555
O59 Zn5 2.107161 1_555
O60 Si14 1.634170 1_555
O61 S20 1.511225 1_555
O62 Si12 1.619141 1_555
O63 S18 1.528854 1_555
O64 Si13 1.628240 1_555
O65 S19 1.475233 1_555
O66 S15 1.528998 1_555
O67 S16 1.492711 1_555
O68 S17 1.466261 1_555
O69 Si11 1.632345 1_555
O70 S14 1.515155 1_555
O71 Si10 1.625302 1_555
O72 Si14 1.636378 1_555
O73 S20 1.503935 1_555
O74 Si12 1.660001 1_555
O75 S18 1.488172 1_545
O76 Si13 1.639147 1_555
O77 S19 1.518402 1_555
O78 S15 1.495274 1_555
O79 S16 1.468595 1_555
O80 S17 1.512686 1_555
O81 Si11 1.671414 1_555
O82 S14 1.500494 1_555
O83 Si10 1.661780 1_555
O84 Si4 1.661241 1_555
O85 S8 1.505092 1_555
O86 S9 1.518460 1_555
O87 Si5 1.713815 1_555
O88 S10 1.571796 1_555
O89 Si6 1.682010 1_555
O90 S11 1.471822 1_555
O91 Si7 1.662503 1_555
O92 Si8 1.694973 1_555
O93 S12 1.526095 1_555
O94 Si9 1.693604 1_555
O95 S13 1.505762 1_555
O96 Si3 1.575694 1_545
O96 Zn0 1.980506 1_555
O97 S7 1.454881 1_545
O97 Zn1 2.336200 1_555
O98 Si2 1.572610 1_555
O98 Zn0 1.952732 1_555
O99 S4 1.459054 1_555
O99 Zn1 2.293937 1_555
O100 S6 1.438158 1_555
O100 Zn0 2.331204 1_555
O101 S5 1.450648 1_655
O101 Zn1 2.302833 1_555
O102 S1 1.458499 1_555
O102 Zn2 2.324115 1_555
O103 Si1 1.578205 1_555
O103 Zn3 1.959384 1_555
O104 S3 1.449795 1_555
O104 Zn2 2.226887 1_555
O105 S2 1.445455 1_655
O105 Zn3 2.327389 1_555
O106 S0 1.464255 1_545
O106 Zn2 2.192751 1_555
O107 Si0 1.575524 1_545
O107 Zn3 1.938530 1_555
O108 S14 1.488601 1_555
O109 Si10 1.631080 1_555
O110 S16 1.499625 1_555
O111 S15 1.475014 1_655
O112 S17 1.534866 1_545
O113 Si11 1.635741 1_545
O114 Si12 1.641271 1_545
O115 S18 1.459830 1_545
O116 Si13 1.650053 1_555
O117 S19 1.501800 1_555
O118 S20 1.473672 1_555
O119 Si14 1.653843 1_655
O120 Si9 1.592027 1_555
O120 Zn4 1.985804 1_555
O121 S13 1.487504 1_555
O122 Si7 1.617460 1_455
O122 Zn4 1.989433 1_555
O123 S11 1.503810 1_555
O124 Si8 1.607179 1_565
O124 Zn4 1.996581 1_555
O125 S12 1.540922 1_565
O126 S9 1.467889 1_565
O127 Si5 1.596371 1_565
O127 Zn5 2.029468 1_555
O128 S10 1.514318 1_555
O129 Si6 1.609458 1_555
O129 Zn5 2.010300 1_555
O130 S8 1.495667 1_455
O131 Si4 1.617463 1_555
O131 Zn5 2.000031 1_555
O132 S0 1.486367 1_555
O133 Si0 1.663593 1_555
O134 S1 1.476788 1_555
O135 Si1 1.675642 1_555
O136 S2 1.543363 1_555
O137 S3 1.479123 1_555
O138 Si2 1.665969 1_555
O139 S4 1.500498 1_555
O140 S5 1.494310 1_555
O141 S6 1.531304 1_555
O142 Si3 1.672085 1_555
O143 S7 1.515608 1_555
