# generated using pymatgen
data_SmSnPt
_symmetry_space_group_name_H-M   'P 1'
_cell_length_a   7.55417216
_cell_length_b   7.55418361
_cell_length_c   4.08573463
_cell_angle_alpha   90.00000000
_cell_angle_beta   90.00000000
_cell_angle_gamma   120.00005984
_symmetry_Int_Tables_number   1
_chemical_formula_structural   SmSnPt
_chemical_formula_sum   'Sm3 Sn3 Pt3'
_cell_volume   201.91795558
_cell_formula_units_Z   3
loop_
 _symmetry_equiv_pos_site_id
 _symmetry_equiv_pos_as_xyz
  1  'x, y, z'
loop_
 _atom_site_type_symbol
 _atom_site_label
 _atom_site_symmetry_multiplicity
 _atom_site_fract_x
 _atom_site_fract_y
 _atom_site_fract_z
 _atom_site_occupancy
  Sm  Sm0  1  0.40799758  0.40799758  -0.00000000  1
  Sm  Sm1  1  0.59200242  0.00000000  0.00000000  1
  Sm  Sm2  1  0.00000000  0.59200142  -0.00000000  1
  Sn  Sn0  1  -0.00000000  0.25582764  0.50000000  1
  Sn  Sn1  1  0.74417236  0.74417236  0.50000000  1
  Sn  Sn2  1  0.25582764  -0.00000000  0.50000000  1
  Pt  Pt0  1  0.33333300  0.66666700  0.50000000  1
  Pt  Pt1  1  -0.00000000  -0.00000000  -0.00000000  1
  Pt  Pt2  1  0.66666700  0.33333300  0.50000000  1
loop_
_geom_bond_atom_site_label_1
_geom_bond_atom_site_label_2
_geom_bond_distance
_geom_bond_site_symmetry_2
Sm0 Sn1 3.259214 1_555
Sm0 Sn1 3.259214 1_554
Sm0 Sn0 3.383936 1_555
Sm0 Sn0 3.383936 1_554
Sm0 Sn2 3.383939 1_555
Sm0 Sn2 3.383939 1_554
Sm1 Sn2 3.259215 1_555
Sm1 Sn2 3.259215 1_554
Sm1 Sn0 3.383936 1_655
Sm1 Sn0 3.383936 1_654
Sm1 Sn1 3.383940 1_544
Sm1 Sn1 3.383940 1_545
Sm2 Sn0 3.259212 1_554
Sm2 Sn0 3.259212 1_555
Sm2 Sn2 3.383943 1_565
Sm2 Sn2 3.383943 1_564
Sm2 Sn1 3.383943 1_454
Sm2 Sn1 3.383943 1_455
Pt0 Sn2 2.856171 1_565
Pt0 Sn0 2.856173 1_555
Pt0 Sn1 2.856174 1_555
Pt0 Sm2 3.067860 1_555
Pt0 Sm2 3.067860 1_556
Pt0 Sm1 3.067865 1_565
Pt0 Sm1 3.067865 1_566
Pt0 Sm0 3.067870 1_556
Pt0 Sm0 3.067870 1_555
Pt1 Sn1 2.812137 1_445
Pt1 Sn1 2.812137 1_444
Pt1 Sn2 2.812138 1_555
Pt1 Sn2 2.812138 1_554
Pt1 Sn0 2.812140 1_554
Pt1 Sn0 2.812140 1_555
Pt1 Sm0 3.082084 1_555
Pt1 Sm1 3.082084 1_455
Pt1 Sm2 3.082096 1_545
Pt2 Sn0 2.856168 1_655
Pt2 Sn2 2.856171 1_555
Pt2 Sn1 2.856179 1_555
Pt2 Sm2 3.067862 1_656
Pt2 Sm2 3.067862 1_655
Pt2 Sm1 3.067865 1_555
Pt2 Sm1 3.067865 1_556
Pt2 Sm0 3.067869 1_556
Pt2 Sm0 3.067869 1_555
