# generated using pymatgen
data_NaMgNb3(PO4)6
_symmetry_space_group_name_H-M   'P 1'
_cell_length_a   8.77432925
_cell_length_b   8.77432897
_cell_length_c   22.78057243
_cell_angle_alpha   90.00000000
_cell_angle_beta   90.00000000
_cell_angle_gamma   120.00000108
_symmetry_Int_Tables_number   1
_chemical_formula_structural   NaMgNb3(PO4)6
_chemical_formula_sum   'Na3 Mg3 Nb9 P18 O72'
_cell_volume   1518.87872870
_cell_formula_units_Z   3
loop_
 _symmetry_equiv_pos_site_id
 _symmetry_equiv_pos_as_xyz
  1  'x, y, z'
loop_
 _atom_site_type_symbol
 _atom_site_label
 _atom_site_symmetry_multiplicity
 _atom_site_fract_x
 _atom_site_fract_y
 _atom_site_fract_z
 _atom_site_occupancy
  Na  Na0  1  0.00000000  -0.00000000  0.98590601  1
  Na  Na1  1  0.66666700  0.33333300  0.84294296  1
  Na  Na2  1  0.66666700  0.33333300  0.34157929  1
  Mg  Mg0  1  0.00000000  -0.00000000  0.85517759  1
  Mg  Mg1  1  0.66666700  0.33333300  0.97636030  1
  Mg  Mg2  1  0.66666700  0.33333300  0.47952944  1
  Nb  Nb0  1  0.00000000  -0.00000000  0.36113087  1
  Nb  Nb1  1  0.00000000  -0.00000000  0.64593722  1
  Nb  Nb2  1  0.00000000  -0.00000000  0.14306182  1
  Nb  Nb3  1  0.66666700  0.33333300  0.68844755  1
  Nb  Nb4  1  0.66666700  0.33333300  0.18500169  1
  Nb  Nb5  1  0.33333300  0.66666700  0.01809442  1
  Nb  Nb6  1  0.33333300  0.66666700  0.52723354  1
  Nb  Nb7  1  0.33333300  0.66666700  0.31083509  1
  Nb  Nb8  1  0.33333300  0.66666700  0.81143437  1
  P  P0  1  0.28568410  0.00262654  0.25106630  1
  P  P1  1  0.71694243  0.71431590  0.25106630  1
  P  P2  1  0.99737346  0.28305757  0.25106630  1
  P  P3  1  0.28466183  0.28415698  0.75227615  1
  P  P4  1  0.99949515  0.71533817  0.75227615  1
  P  P5  1  0.71584302  0.00050485  0.75227615  1
  P  P6  1  0.94670710  0.32833096  0.58118659  1
  P  P7  1  0.38162486  0.05329290  0.58118659  1
  P  P8  1  0.67166904  0.61837514  0.58118659  1
  P  P9  1  0.95421527  0.61845524  0.08070722  1
  P  P10  1  0.66424098  0.04578473  0.08070722  1
  P  P11  1  0.38154476  0.33575902  0.08070722  1
  P  P12  1  0.62688289  0.66706627  0.91571403  1
  P  P13  1  0.04018238  0.37311711  0.91571403  1
  P  P14  1  0.33293373  0.95981762  0.91571403  1
  P  P15  1  0.61500873  0.95547151  0.41731543  1
  P  P16  1  0.34046178  0.38499127  0.41731543  1
  P  P17  1  0.04452849  0.65953822  0.41731543  1
  O  O0  1  0.19926494  0.03116491  0.30543763  1
  O  O1  1  0.83189997  0.80073506  0.30543763  1
  O  O2  1  0.96883509  0.16810003  0.30543763  1
  O  O3  1  0.21284233  0.17198413  0.80538308  1
  O  O4  1  0.95914180  0.78715767  0.80538308  1
  O  O5  1  0.82801587  0.04085820  0.80538308  1
  O  O6  1  0.80166047  0.97510081  0.69551522  1
  O  O7  1  0.17344034  0.19833953  0.69551522  1
  O  O8  1  0.02489919  0.82655966  0.69551522  1
  O  O9  1  0.80108682  0.82696549  0.19596700  1
  O  O10  1  0.02587867  0.19891318  0.19596700  1
  O  O11  1  0.17303451  0.97412133  0.19596700  1
  O  O12  1  0.86651687  0.36315441  0.63705727  1
  O  O13  1  0.49663854  0.13348313  0.63705727  1
  O  O14  1  0.63684559  0.50336146  0.63705727  1
  O  O15  1  0.86275674  0.50569108  0.13847730  1
  O  O16  1  0.64293534  0.13724326  0.13847730  1
  O  O17  1  0.49430892  0.35706466  0.13847730  1
  O  O18  1  0.45527087  0.29243672  0.02890998  1
  O  O19  1  0.83716685  0.54472913  0.02890998  1
  O  O20  1  0.70756328  0.16283315  0.02890998  1
  O  O21  1  0.45508247  0.15856909  0.52689959  1
  O  O22  1  0.70348761  0.54491753  0.52689959  1
  O  O23  1  0.84143091  0.29651239  0.52689959  1
  O  O24  1  0.52519459  0.68594689  0.97185513  1
  O  O25  1  0.16075130  0.47480541  0.97185513  1
  O  O26  1  0.31405311  0.83924870  0.97185513  1
  O  O27  1  0.53249369  0.83735765  0.47122804  1
  O  O28  1  0.30486296  0.46750631  0.47122804  1
  O  O29  1  0.16264235  0.69513704  0.47122804  1
  O  O30  1  0.14183310  0.64498420  0.36135100  1
  O  O31  1  0.50315011  0.85816690  0.36135100  1
  O  O32  1  0.35501580  0.49684989  0.36135100  1
  O  O33  1  0.14161208  0.49361429  0.86141834  1
  O  O34  1  0.35200121  0.85838792  0.86141834  1
  O  O35  1  0.50638571  0.64799879  0.86141834  1
  O  O36  1  0.03436658  0.83245033  0.40611665  1
  O  O37  1  0.79808375  0.96563342  0.40611665  1
  O  O38  1  0.16754967  0.20191625  0.40611665  1
  O  O39  1  0.03653083  0.20009829  0.91346409  1
  O  O40  1  0.16356746  0.96346917  0.91346409  1
  O  O41  1  0.79990171  0.83643254  0.91346409  1
  O  O42  1  0.97951554  0.17399891  0.59529552  1
  O  O43  1  0.19448338  0.02048446  0.59529552  1
  O  O44  1  0.82600109  0.80551662  0.59529552  1
  O  O45  1  0.97833022  0.80659940  0.09502033  1
  O  O46  1  0.82826918  0.02166978  0.09502033  1
  O  O47  1  0.19340060  0.17173082  0.09502033  1
  O  O48  1  0.68773119  0.16183150  0.73883222  1
  O  O49  1  0.47410131  0.31226881  0.73883222  1
  O  O50  1  0.83816850  0.52589869  0.73883222  1
  O  O51  1  0.69361581  0.52820103  0.24307828  1
  O  O52  1  0.83458622  0.30638419  0.24307828  1
  O  O53  1  0.47179897  0.16541378  0.24307828  1
  O  O54  1  0.62998935  0.49750832  0.92037216  1
  O  O55  1  0.86751997  0.37001065  0.92037216  1
  O  O56  1  0.50249168  0.13248003  0.92037216  1
  O  O57  1  0.63911877  0.13639795  0.41961452  1
  O  O58  1  0.49728018  0.36088123  0.41961452  1
  O  O59  1  0.86360205  0.50271982  0.41961452  1
  O  O60  1  0.35775911  0.49639538  0.07680843  1
  O  O61  1  0.13863527  0.64224089  0.07680843  1
  O  O62  1  0.50360462  0.86136473  0.07680843  1
  O  O63  1  0.35898444  0.86313822  0.57369986  1
  O  O64  1  0.50415278  0.64101556  0.57369986  1
  O  O65  1  0.13686178  0.49584722  0.57369986  1
  O  O66  1  0.30627950  0.83908257  0.25989716  1
  O  O67  1  0.53280207  0.69372050  0.25989716  1
  O  O68  1  0.16091743  0.46719793  0.25989716  1
  O  O69  1  0.30916772  0.47134003  0.75803343  1
  O  O70  1  0.16217131  0.69083228  0.75803343  1
  O  O71  1  0.52865997  0.83782869  0.75803343  1
loop_
_geom_bond_atom_site_label_1
_geom_bond_atom_site_label_2
_geom_bond_distance
_geom_bond_site_symmetry_2
Na0 O39 2.312129 1_555
Na0 O41 2.312129 1_445
Na0 O40 2.312129 1_545
Na0 O45 2.961724 1_446
Na0 O47 2.961724 1_556
Na0 O46 2.961724 1_456
Na1 O56 2.398658 1_555
Na1 O54 2.398658 1_555
Na1 O55 2.398658 1_555
Na1 O50 2.863863 1_555
Na1 O48 2.863863 1_555
Na1 O49 2.863863 1_555
Na2 O57 2.405579 1_555
Na2 O59 2.405579 1_555
Na2 O58 2.405579 1_555
Na2 O51 2.758673 1_555
Na2 O53 2.758673 1_555
Na2 O52 2.758673 1_555
Mg0 O4 2.057543 1_445
Mg0 O3 2.057543 1_555
Mg0 O5 2.057543 1_455
Mg0 O39 2.094184 1_555
Mg0 O41 2.094184 1_445
Mg0 O40 2.094184 1_545
Mg1 O56 2.066165 1_555
Mg1 O54 2.066165 1_555
Mg1 O55 2.066165 1_555
Mg1 O19 2.082487 1_556
Mg1 O20 2.082487 1_556
Mg1 O18 2.082487 1_556
Mg2 O23 2.028724 1_555
Mg2 O21 2.028724 1_555
Mg2 O22 2.028724 1_555
Mg2 O57 2.118863 1_555
Mg2 O59 2.118863 1_555
Mg2 O58 2.118863 1_555
Nb0 O38 1.935396 1_555
Nb0 O36 1.935396 1_545
Nb0 O37 1.935396 1_445
Nb0 O1 2.064773 1_445
Nb0 O2 2.064773 1_455
Nb0 O0 2.064773 1_555
Nb1 O42 1.992110 1_455
Nb1 O44 1.992110 1_445
Nb1 O43 1.992110 1_555
Nb1 O7 1.992920 1_555
Nb1 O8 1.992920 1_545
Nb1 O6 1.992920 1_445
Nb2 O45 1.947026 1_445
Nb2 O47 1.947026 1_555
Nb2 O46 1.947026 1_455
Nb2 O10 2.038126 1_555
Nb2 O9 2.038126 1_445
Nb2 O11 2.038126 1_545
Nb3 O50 1.973364 1_555
Nb3 O48 1.973364 1_555
Nb3 O49 1.973364 1_555
Nb3 O13 2.013728 1_555
Nb3 O14 2.013728 1_555
Nb3 O12 2.013728 1_555
Nb4 O16 1.941311 1_555
Nb4 O15 1.941311 1_555
Nb4 O17 1.941311 1_555
Nb4 O51 2.079790 1_555
Nb4 O53 2.079790 1_555
Nb4 O52 2.079790 1_555
Nb5 O25 1.920265 1_554
Nb5 O26 1.920265 1_554
Nb5 O24 1.920265 1_554
Nb5 O62 2.094574 1_555
Nb5 O60 2.094574 1_555
Nb5 O61 2.094574 1_555
Nb6 O63 1.937777 1_555
Nb6 O65 1.937777 1_555
Nb6 O64 1.937777 1_555
Nb6 O28 2.075425 1_555
Nb6 O27 2.075425 1_555
Nb6 O29 2.075425 1_555
Nb7 O31 1.965749 1_555
Nb7 O30 1.965749 1_555
Nb7 O32 1.965749 1_555
Nb7 O68 2.012618 1_555
Nb7 O66 2.012618 1_555
Nb7 O67 2.012618 1_555
Nb8 O34 1.969190 1_555
Nb8 O33 1.969190 1_555
Nb8 O35 1.969190 1_555
Nb8 O69 2.024542 1_555
Nb8 O71 2.024542 1_555
Nb8 O70 2.024542 1_555
O0 P0 1.536784 1_555
O1 P1 1.536784 1_555
O2 P2 1.536784 1_555
O3 P3 1.486350 1_555
O4 P4 1.486350 1_555
O5 P5 1.486350 1_555
O6 P5 1.567321 1_565
O7 P3 1.567321 1_555
O8 P4 1.567321 1_455
O9 P1 1.538776 1_555
O10 P2 1.538776 1_455
O11 P0 1.538776 1_565
O12 P6 1.556715 1_555
O13 P7 1.556715 1_555
O14 P8 1.556715 1_555
O15 P9 1.600282 1_555
O16 P10 1.600282 1_555
O17 P11 1.600282 1_555
O18 P11 1.483645 1_555
O19 P9 1.483645 1_555
O20 P10 1.483645 1_555
O21 P7 1.484158 1_555
O22 P8 1.484158 1_555
O23 P6 1.484158 1_555
O24 P12 1.614625 1_555
O25 P13 1.614625 1_555
O26 P14 1.614625 1_555
O27 P15 1.535021 1_555
O28 P16 1.535021 1_555
O29 P17 1.535021 1_555
O30 P17 1.574693 1_555
O31 P15 1.574693 1_555
O32 P16 1.574692 1_555
O33 P13 1.580771 1_555
O34 P14 1.580771 1_555
O35 P12 1.580771 1_555
O36 P17 1.584352 1_555
O37 P15 1.584361 1_555
O38 P16 1.584357 1_555
O39 P13 1.503234 1_555
O40 P14 1.503226 1_555
O41 P12 1.503230 1_555
O42 P6 1.552337 1_555
O43 P7 1.552345 1_555
O44 P8 1.552342 1_555
O45 P9 1.589670 1_555
O46 P10 1.589661 1_555
O47 P11 1.589667 1_555
O48 P5 1.583518 1_555
O49 P3 1.583527 1_555
O50 P4 1.583524 1_555
O51 P1 1.551632 1_555
O52 P2 1.551623 1_555
O53 P0 1.551628 1_555
O54 P12 1.505316 1_555
O55 P13 1.505299 1_655
O56 P14 1.505307 1_545
O57 P15 1.493935 1_545
O58 P16 1.493952 1_555
O59 P17 1.493942 1_655
O60 P11 1.527164 1_555
O61 P9 1.527147 1_455
O62 P10 1.527154 1_565
O63 P7 1.587742 1_565
O64 P8 1.587760 1_555
O65 P6 1.587749 1_455
O66 P0 1.546492 1_565
O67 P1 1.546500 1_555
O68 P2 1.546497 1_455
O69 P3 1.551702 1_555
O70 P4 1.551693 1_455
O71 P5 1.551698 1_565
