# generated using pymatgen
data_BaYMgMnCuO5
_symmetry_space_group_name_H-M   'P 1'
_cell_length_a   3.95755265
_cell_length_b   3.95755504
_cell_length_c   9.60841850
_cell_angle_alpha   90.14100777
_cell_angle_beta   90.13205080
_cell_angle_gamma   90.00178544
_symmetry_Int_Tables_number   1
_chemical_formula_structural   BaYMgMnCuO5
_chemical_formula_sum   'Ba1 Y1 Mg1 Mn1 Cu1 O5'
_cell_volume   150.48842833
_cell_formula_units_Z   1
loop_
 _symmetry_equiv_pos_site_id
 _symmetry_equiv_pos_as_xyz
  1  'x, y, z'
loop_
 _atom_site_type_symbol
 _atom_site_label
 _atom_site_symmetry_multiplicity
 _atom_site_fract_x
 _atom_site_fract_y
 _atom_site_fract_z
 _atom_site_occupancy
  Ba  Ba0  1  0.99976400  0.99973200  0.03802900  1
  Y  Y0  1  0.00109200  0.00116000  0.40257900  1
  Mg  Mg0  1  0.99961900  0.99960300  0.68826700  1
  Mn  Mn0  1  0.49996700  0.49997300  0.73276100  1
  Cu  Cu0  1  0.50017400  0.50018100  0.26968800  1
  O  O0  1  0.99961100  0.49926300  0.63106900  1
  O  O1  1  0.49930200  0.99959100  0.63106900  1
  O  O2  1  0.00024800  0.50013900  0.28527500  1
  O  O3  1  0.50013500  0.00026300  0.28527300  1
  O  O4  1  0.50008200  0.50009200  0.94890700  1
loop_
_geom_bond_atom_site_label_1
_geom_bond_atom_site_label_2
_geom_bond_distance
_geom_bond_site_symmetry_2
Ba0 O4 2.921884 1_554
Ba0 O4 2.926341 1_654
Ba0 O4 2.926747 1_564
Ba0 O4 2.931031 1_664
Ba0 O2 3.089084 1_665
Ba0 O3 3.089216 1_665
Ba0 O3 3.094345 1_565
Ba0 O2 3.094507 1_655
Ba0 Mg0 3.360657 1_554
Mg0 O1 2.053667 1_555
Mg0 O0 2.053673 1_555
Mg0 O0 2.053686 1_565
Mg0 O1 2.053690 1_655
Mn0 O4 2.076819 1_555
Mn0 O1 2.206069 1_545
Mn0 O0 2.206112 1_455
Mn0 O0 2.207624 1_555
Mn0 O1 2.207670 1_555
Cu0 O2 1.984384 1_655
Cu0 O3 1.984392 1_565
Cu0 O3 1.984479 1_555
Cu0 O2 1.984488 1_555
O2 Y0 2.276160 1_555
O2 Y0 2.278361 1_565
O3 Y0 2.276235 1_555
O3 Y0 2.278302 1_655
