# generated using pymatgen
data_Rb2CdO2
_symmetry_space_group_name_H-M   'P 1'
_cell_length_a   6.29971944
_cell_length_b   6.39054469
_cell_length_c   10.57636650
_cell_angle_alpha   90.00000000
_cell_angle_beta   90.00000000
_cell_angle_gamma   90.00000000
_symmetry_Int_Tables_number   1
_chemical_formula_structural   Rb2CdO2
_chemical_formula_sum   'Rb8 Cd4 O8'
_cell_volume   425.79011679
_cell_formula_units_Z   4
loop_
 _symmetry_equiv_pos_site_id
 _symmetry_equiv_pos_as_xyz
  1  'x, y, z'
loop_
 _atom_site_type_symbol
 _atom_site_label
 _atom_site_symmetry_multiplicity
 _atom_site_fract_x
 _atom_site_fract_y
 _atom_site_fract_z
 _atom_site_occupancy
  Rb  Rb0  1  0.39751843  0.10867858  0.65576498  1
  Rb  Rb1  1  0.60248157  0.39132142  0.15576498  1
  Rb  Rb2  1  0.89751843  0.89132142  0.65576498  1
  Rb  Rb3  1  0.10248157  0.60867858  0.15576498  1
  Rb  Rb4  1  0.60248157  0.89132142  0.34423502  1
  Rb  Rb5  1  0.39751843  0.60867858  0.84423502  1
  Rb  Rb6  1  0.89751843  0.39132142  0.84423502  1
  Rb  Rb7  1  0.10248157  0.10867858  0.34423502  1
  Cd  Cd0  1  0.75000000  0.46388086  0.50000000  1
  Cd  Cd1  1  0.25000000  0.53611914  0.50000000  1
  Cd  Cd2  1  0.75000000  0.96388086  0.00000000  1
  Cd  Cd3  1  0.25000000  0.03611914  0.00000000  1
  O  O0  1  0.51764291  0.18996195  0.90402352  1
  O  O1  1  0.01764291  0.81003805  0.90402352  1
  O  O2  1  0.51764291  0.68996195  0.59597648  1
  O  O3  1  0.48235709  0.31003805  0.40402352  1
  O  O4  1  0.48235709  0.81003805  0.09597648  1
  O  O5  1  0.98235709  0.18996195  0.09597648  1
  O  O6  1  0.01764291  0.31003805  0.59597648  1
  O  O7  1  0.98235709  0.68996195  0.40402352  1
loop_
_geom_bond_atom_site_label_1
_geom_bond_atom_site_label_2
_geom_bond_distance
_geom_bond_site_symmetry_2
Cd0 O6 2.199956 1_655
Cd0 O3 2.199956 1_555
Cd0 O7 2.293567 1_555
Cd0 O2 2.293567 1_555
Cd1 O7 2.199956 1_455
Cd1 O2 2.199956 1_555
Cd1 O3 2.293567 1_555
Cd1 O6 2.293567 1_555
Cd2 O1 2.199956 1_654
Cd2 O4 2.199956 1_555
Cd2 O0 2.293567 1_564
Cd2 O5 2.293567 1_565
Cd3 O5 2.199956 1_455
Cd3 O0 2.199956 1_554
Cd3 O4 2.293567 1_545
Cd3 O1 2.293567 1_544
O0 Rb0 2.781484 1_555
O0 Rb6 2.789745 1_555
O0 Rb5 2.851769 1_555
O0 Rb1 3.005071 1_556
O1 Rb2 2.781484 1_455
O1 Rb5 2.789745 1_555
O1 Rb6 2.851769 1_455
O1 Rb3 3.005071 1_556
O2 Rb5 2.781484 1_555
O2 Rb2 2.789745 1_555
O2 Rb0 2.851769 1_565
O2 Rb4 3.005071 1_555
O3 Rb1 2.781484 1_555
O3 Rb7 2.789745 1_555
O3 Rb4 2.851769 1_545
O3 Rb0 3.005071 1_555
O4 Rb4 2.781484 1_555
O4 Rb3 2.789745 1_555
O4 Rb1 2.851769 1_555
O4 Rb5 3.005071 1_554
O5 Rb7 2.781484 1_655
O5 Rb1 2.789745 1_555
O5 Rb3 2.851769 1_655
O5 Rb6 3.005071 1_554
O6 Rb6 2.781484 1_455
O6 Rb0 2.789745 1_555
O6 Rb2 2.851769 1_445
O6 Rb7 3.005071 1_555
O7 Rb3 2.781484 1_655
O7 Rb4 2.789745 1_555
O7 Rb7 2.851769 1_665
O7 Rb2 3.005071 1_555
