# generated using pymatgen
data_Mn2P3O10
_symmetry_space_group_name_H-M   'P 1'
_cell_length_a   8.69441000
_cell_length_b   4.74451800
_cell_length_c   9.11269258
_cell_angle_alpha   80.45270833
_cell_angle_beta   90.00000000
_cell_angle_gamma   90.00000000
_symmetry_Int_Tables_number   1
_chemical_formula_structural   Mn2P3O10
_chemical_formula_sum   'Mn4 P6 O20'
_cell_volume   370.69906333
_cell_formula_units_Z   2
loop_
 _symmetry_equiv_pos_site_id
 _symmetry_equiv_pos_as_xyz
  1  'x, y, z'
loop_
 _atom_site_type_symbol
 _atom_site_label
 _atom_site_symmetry_multiplicity
 _atom_site_fract_x
 _atom_site_fract_y
 _atom_site_fract_z
 _atom_site_occupancy
  Mn  Mn0  1  0.43764600  0.04291200  0.67512800  1
  Mn  Mn1  1  0.93764600  0.95708800  0.32487200  1
  Mn  Mn2  1  0.56235400  0.95708800  0.32487200  1
  Mn  Mn3  1  0.06235400  0.04291200  0.67512800  1
  P  P0  1  0.25000000  0.33741500  0.18100700  1
  P  P1  1  0.75000000  0.66258500  0.81899300  1
  P  P2  1  0.75000000  0.39507600  0.54283100  1
  P  P3  1  0.25000000  0.60492400  0.45716900  1
  P  P4  1  0.25000000  0.47254200  0.85500300  1
  P  P5  1  0.75000000  0.52745800  0.14499700  1
  O  O0  1  0.89757900  0.82750700  0.79877800  1
  O  O1  1  0.10162500  0.77071600  0.48160600  1
  O  O2  1  0.75000000  0.69857000  0.45009100  1
  O  O3  1  0.25000000  0.54061700  0.02334700  1
  O  O4  1  0.39757900  0.17249300  0.20122200  1
  O  O5  1  0.89791600  0.67948800  0.17106500  1
  O  O6  1  0.25000000  0.58204500  0.28408600  1
  O  O7  1  0.75000000  0.41795500  0.71591400  1
  O  O8  1  0.60208400  0.67948800  0.17106500  1
  O  O9  1  0.75000000  0.21204300  0.23758300  1
  O  O10  1  0.25000000  0.78795700  0.76241700  1
  O  O11  1  0.39837500  0.77071600  0.48160600  1
  O  O12  1  0.89837500  0.22928400  0.51839400  1
  O  O13  1  0.25000000  0.30143000  0.54990900  1
  O  O14  1  0.39791600  0.32051200  0.82893500  1
  O  O15  1  0.10242100  0.17249300  0.20122200  1
  O  O16  1  0.10208400  0.32051200  0.82893500  1
  O  O17  1  0.75000000  0.45938300  0.97665300  1
  O  O18  1  0.60162500  0.22928400  0.51839400  1
  O  O19  1  0.60242100  0.82750700  0.79877800  1
loop_
_geom_bond_atom_site_label_1
_geom_bond_atom_site_label_2
_geom_bond_distance
_geom_bond_site_symmetry_2
Mn0 O19 1.996125 1_545
Mn0 O14 2.104959 1_555
Mn0 O18 2.106067 1_555
Mn0 O10 2.106766 1_545
Mn0 O13 2.236940 1_555
Mn0 O11 2.376938 1_545
Mn1 O15 1.996125 1_665
Mn1 O5 2.104959 1_555
Mn1 O1 2.106067 1_655
Mn1 O9 2.106766 1_565
Mn1 O2 2.236940 1_555
Mn1 O12 2.376938 1_565
Mn2 O4 1.996125 1_565
Mn2 O8 2.104959 1_555
Mn2 O11 2.106067 1_555
Mn2 O9 2.106766 1_565
Mn2 O2 2.236940 1_555
Mn2 O18 2.376938 1_565
Mn3 O0 1.996125 1_445
Mn3 O16 2.104959 1_555
Mn3 O12 2.106067 1_455
Mn3 O10 2.106766 1_545
Mn3 O13 2.236940 1_555
Mn3 O1 2.376938 1_545
O0 P1 1.498254 1_555
O1 P3 1.546165 1_555
O2 P2 1.544003 1_555
O3 P0 1.591895 1_555
O3 P4 1.619272 1_554
O4 P0 1.498254 1_555
O5 P5 1.512436 1_555
O6 P3 1.598844 1_555
O6 P0 1.609690 1_555
O7 P2 1.598844 1_555
O7 P1 1.609690 1_555
O8 P5 1.512436 1_555
O9 P5 1.591382 1_555
O10 P4 1.591382 1_555
O11 P3 1.546165 1_555
O12 P2 1.546165 1_555
O13 P3 1.544003 1_555
O14 P4 1.512436 1_555
O15 P0 1.498254 1_555
O16 P4 1.512436 1_555
O17 P1 1.591895 1_555
O17 P5 1.619272 1_556
O18 P2 1.546165 1_555
O19 P1 1.498254 1_555
