# generated using pymatgen
data_Na4LaNb3Si5SO24
_symmetry_space_group_name_H-M   'P 1'
_cell_length_a   9.19127001
_cell_length_b   9.13830561
_cell_length_c   23.08623337
_cell_angle_alpha   90.29023556
_cell_angle_beta   89.87507328
_cell_angle_gamma   120.06776847
_symmetry_Int_Tables_number   1
_chemical_formula_structural   Na4LaNb3Si5SO24
_chemical_formula_sum   'Na12 La3 Nb9 Si15 S3 O72'
_cell_volume   1678.11735997
_cell_formula_units_Z   3
loop_
 _symmetry_equiv_pos_site_id
 _symmetry_equiv_pos_as_xyz
  1  'x, y, z'
loop_
 _atom_site_type_symbol
 _atom_site_label
 _atom_site_symmetry_multiplicity
 _atom_site_fract_x
 _atom_site_fract_y
 _atom_site_fract_z
 _atom_site_occupancy
  Na  Na0  1  0.63083788  0.62239356  0.74744826  1
  Na  Na1  1  0.99144141  0.36723584  0.75231734  1
  Na  Na2  1  0.38086055  0.00699231  0.74828637  1
  Na  Na3  1  0.65802101  0.68143688  0.08364342  1
  Na  Na4  1  0.02499014  0.35072446  0.08123440  1
  Na  Na5  1  0.32273736  0.02561398  0.42018937  1
  Na  Na6  1  0.98753599  0.99639927  0.50075486  1
  Na  Na7  1  0.00973387  0.99392584  0.99327084  1
  Na  Na8  1  0.66653391  0.33264980  0.83507232  1
  Na  Na9  1  0.70009428  0.33921466  0.33075344  1
  Na  Na10  1  0.33305034  0.68074139  0.16841725  1
  Na  Na11  1  0.34679196  0.67680639  0.66172220  1
  La  La0  1  0.98485360  0.00255404  0.35959680  1
  La  La1  1  0.66008773  0.33077426  0.67803892  1
  La  La2  1  0.67136140  0.32953546  0.17738197  1
  Nb  Nb0  1  0.99912309  0.00091804  0.85819023  1
  Nb  Nb1  1  0.00278970  0.98828451  0.64763284  1
  Nb  Nb2  1  0.00695159  0.01712845  0.14228517  1
  Nb  Nb3  1  0.66791087  0.33547876  0.97752197  1
  Nb  Nb4  1  0.65830527  0.34279861  0.47982818  1
  Nb  Nb5  1  0.33320391  0.67054783  0.01301102  1
  Nb  Nb6  1  0.34121536  0.67613050  0.51932087  1
  Nb  Nb7  1  0.32140192  0.65158053  0.31817057  1
  Nb  Nb8  1  0.33555873  0.66665503  0.81548669  1
  Si  Si0  1  0.01200388  0.31182294  0.25046539  1
  Si  Si1  1  0.27686136  0.28644347  0.75278511  1
  Si  Si2  1  0.01064511  0.71762237  0.75432943  1
  Si  Si3  1  0.71406732  0.99051331  0.75261119  1
  Si  Si4  1  0.36085092  0.03106443  0.58357807  1
  Si  Si5  1  0.66646289  0.64009486  0.58530805  1
  Si  Si6  1  0.97055581  0.63588629  0.07964621  1
  Si  Si7  1  0.66052962  0.03076449  0.07990415  1
  Si  Si8  1  0.37350029  0.33975674  0.07911565  1
  Si  Si9  1  0.62494202  0.66250701  0.91563132  1
  Si  Si10  1  0.03888332  0.37675135  0.91550411  1
  Si  Si11  1  0.33724856  0.96292685  0.91468290  1
  Si  Si12  1  0.61179805  0.96173656  0.41799206  1
  Si  Si13  1  0.34438725  0.38574315  0.42098779  1
  Si  Si14  1  0.03867945  0.64751843  0.42116916  1
  S  S0  1  0.28481054  0.98362339  0.25002424  1
  S  S1  1  0.69110408  0.70981829  0.24678985  1
  S  S2  1  0.97235074  0.33112015  0.58112699  1
  O  O0  1  0.20993604  0.99262364  0.30508369  1
  O  O1  1  0.78850850  0.78499709  0.29952620  1
  O  O2  1  0.00128098  0.20596357  0.30614376  1
  O  O3  1  0.17634661  0.17095990  0.80888971  1
  O  O4  1  0.99207154  0.82060188  0.80873454  1
  O  O5  1  0.82825905  0.00589952  0.80915706  1
  O  O6  1  0.80965277  0.96813352  0.69468653  1
  O  O7  1  0.15984387  0.19041821  0.69469151  1
  O  O8  1  0.03090148  0.83212574  0.69440456  1
  O  O9  1  0.78664230  0.81006842  0.19396516  1
  O  O10  1  0.02129967  0.19629157  0.19124071  1
  O  O11  1  0.17696636  0.97725501  0.19904640  1
  O  O12  1  0.91844737  0.36306214  0.63803369  1
  O  O13  1  0.45312269  0.07919468  0.64578298  1
  O  O14  1  0.63026326  0.54932597  0.64743319  1
  O  O15  1  0.92200181  0.51492465  0.13483859  1
  O  O16  1  0.61339043  0.07817958  0.14042229  1
  O  O17  1  0.48713696  0.40544148  0.13582687  1
  O  O18  1  0.47365275  0.30499395  0.02618842  1
  O  O19  1  0.82943035  0.53464905  0.02745254  1
  O  O20  1  0.70624439  0.17338762  0.02858828  1
  O  O21  1  0.47600882  0.16548130  0.53042838  1
  O  O22  1  0.68950669  0.52244262  0.53319021  1
  O  O23  1  0.85430913  0.31439437  0.53439615  1
  O  O24  1  0.52682108  0.68254784  0.97106443  1
  O  O25  1  0.15822948  0.47152044  0.97110657  1
  O  O26  1  0.31664827  0.83804936  0.96819508  1
  O  O27  1  0.50099492  0.84757635  0.47298848  1
  O  O28  1  0.33238772  0.48974691  0.47476529  1
  O  O29  1  0.15520773  0.65563981  0.47448117  1
  O  O30  1  0.13406242  0.62727005  0.36043812  1
  O  O31  1  0.49332473  0.86021288  0.35954017  1
  O  O32  1  0.35986488  0.49704295  0.36077646  1
  O  O33  1  0.13654951  0.49734777  0.85787582  1
  O  O34  1  0.36141843  0.86708003  0.85661541  1
  O  O35  1  0.50401146  0.63970456  0.85798960  1
  O  O36  1  0.03890820  0.82204824  0.41963997  1
  O  O37  1  0.79116295  0.97792820  0.42513673  1
  O  O38  1  0.19960584  0.19218177  0.42185296  1
  O  O39  1  0.01897198  0.18870863  0.90982817  1
  O  O40  1  0.16922162  0.98064053  0.91020024  1
  O  O41  1  0.81169592  0.83089769  0.91019298  1
  O  O42  1  0.97976630  0.17285947  0.58311481  1
  O  O43  1  0.17919427  0.02781373  0.58922242  1
  O  O44  1  0.84244994  0.82491625  0.58862745  1
  O  O45  1  0.97200367  0.81620826  0.09241309  1
  O  O46  1  0.84165247  0.02182267  0.08989243  1
  O  O47  1  0.18450724  0.16353789  0.09015199  1
  O  O48  1  0.69601265  0.15779077  0.75180797  1
  O  O49  1  0.46256244  0.30683385  0.75248094  1
  O  O50  1  0.84687935  0.53127878  0.75192582  1
  O  O51  1  0.65776363  0.53564852  0.24389615  1
  O  O52  1  0.85609745  0.34421221  0.24831971  1
  O  O53  1  0.45346865  0.13251148  0.24602298  1
  O  O54  1  0.64070927  0.49238153  0.92316027  1
  O  O55  1  0.85451949  0.36178430  0.92406050  1
  O  O56  1  0.50795842  0.14604756  0.92466890  1
  O  O57  1  0.61525358  0.14405987  0.42441097  1
  O  O58  1  0.52416843  0.38242241  0.42538929  1
  O  O59  1  0.85317495  0.47737835  0.42807056  1
  O  O60  1  0.32448342  0.48593548  0.06563451  1
  O  O61  1  0.15883177  0.66974843  0.06392373  1
  O  O62  1  0.51758857  0.83473499  0.06620331  1
  O  O63  1  0.32174555  0.83797401  0.57111674  1
  O  O64  1  0.50666630  0.66681188  0.57204520  1
  O  O65  1  0.14370958  0.47680200  0.57256434  1
  O  O66  1  0.29362608  0.82449359  0.24856570  1
  O  O67  1  0.52973963  0.71281346  0.24931827  1
  O  O68  1  0.19578022  0.49614862  0.25333351  1
  O  O69  1  0.29004088  0.47447669  0.75710834  1
  O  O70  1  0.18589665  0.70898294  0.75681763  1
  O  O71  1  0.52633211  0.81630903  0.75699944  1
loop_
_geom_bond_atom_site_label_1
_geom_bond_atom_site_label_2
_geom_bond_distance
_geom_bond_site_symmetry_2
Na0 O14 2.399608 1_555
Na0 O71 2.410848 1_555
Na0 O49 2.500935 1_555
Na0 O50 2.511068 1_555
Na0 O69 2.728702 1_555
Na0 O35 2.839755 1_555
Na1 O69 2.410406 1_655
Na1 O48 2.414285 1_555
Na1 O50 2.451301 1_555
Na1 O70 2.713423 1_655
Na1 O12 2.719131 1_555
Na1 O33 2.743544 1_655
Na2 O70 2.404192 1_545
Na2 O49 2.452943 1_555
Na2 O13 2.458912 1_555
Na2 O48 2.509222 1_555
Na2 O71 2.684020 1_545
Na2 O34 2.778975 1_545
Na3 O62 2.368651 1_555
Na3 O45 2.514900 1_555
Na3 O17 2.516438 1_555
Na3 O60 2.696783 1_555
Na3 O46 2.698292 1_565
Na3 O9 2.802928 1_555
Na3 O19 2.838198 1_555
Na3 O24 2.869741 1_554
Na4 O60 2.413680 1_555
Na4 O15 2.465439 1_455
Na4 O61 2.566745 1_555
Na4 O46 2.615851 1_455
Na4 O47 2.763342 1_555
Na4 O25 2.800446 1_554
Na4 O20 2.815059 1_455
Na4 O10 2.903530 1_555
Na5 O38 2.307519 1_555
Na5 O36 2.324501 1_545
Na5 O57 2.343846 1_555
Na5 O0 2.813903 1_545
Na6 O37 2.457497 1_555
Na6 O44 2.505155 1_555
Na6 O42 2.510856 1_565
Na6 O38 2.615605 1_665
Na6 O43 2.619145 1_665
Na6 O36 2.643483 1_655
Na7 O40 2.450553 1_555
Na7 O41 2.545627 1_455
Na7 O39 2.601742 1_565
Na7 O45 2.732455 1_456
Na7 O47 2.733304 1_566
Na7 O46 2.793064 1_466
Na8 O54 2.576355 1_555
Na8 O48 2.592735 1_555
Na8 O50 2.594895 1_555
Na8 O49 2.602654 1_555
Na8 O55 2.612626 1_555
Na8 O56 2.615860 1_555
Na9 O52 2.367098 1_555
Na9 O59 2.612723 1_555
Na9 O57 2.664927 1_555
Na9 O51 2.852058 1_555
Na9 O58 2.856474 1_555
Na9 O53 2.867767 1_555
Na10 O66 2.393769 1_555
Na10 O68 2.484066 1_555
Na10 O67 2.514096 1_555
Na10 O62 2.837251 1_555
Na10 O61 2.871743 1_555
Na10 O60 2.936554 1_555
Na11 O64 2.563802 1_555
Na11 O63 2.640182 1_555
Na11 O71 2.658184 1_555
Na11 O70 2.740108 1_555
Na11 O69 2.758587 1_555
Na11 O65 2.760689 1_555
La0 O2 2.177619 1_655
La0 O37 2.258233 1_545
La0 O1 2.349544 1_545
La0 O38 2.350393 1_655
La0 O36 2.395119 1_645
La0 O0 2.459183 1_645
La1 O13 2.250589 1_555
La1 O14 2.264267 1_555
La1 O12 2.422834 1_555
La1 O49 2.426865 1_555
La1 O50 2.458328 1_555
La1 O48 2.461914 1_555
La2 O16 2.245829 1_555
La2 O15 2.288671 1_555
La2 O52 2.316197 1_555
La2 O17 2.336533 1_555
La2 O51 2.475274 1_555
La2 O53 2.483053 1_555
Nb0 O5 1.956968 1_555
Nb0 O3 1.958787 1_655
Nb0 O4 1.974139 1_545
Nb0 O39 2.016410 1_655
Nb0 O41 2.037355 1_545
Nb0 O40 2.054527 1_645
Nb1 O8 1.911910 1_555
Nb1 O43 1.996563 1_565
Nb1 O7 1.997667 1_565
Nb1 O6 2.007795 1_455
Nb1 O44 2.009919 1_455
Nb1 O42 2.343668 1_465
Nb2 O47 1.929181 1_555
Nb2 O10 1.934132 1_555
Nb2 O46 1.961377 1_455
Nb2 O45 2.046747 1_445
Nb2 O11 2.208196 1_545
Nb2 O9 2.297194 1_445
Nb3 O18 2.005955 1_556
Nb3 O54 2.017974 1_555
Nb3 O56 2.020668 1_555
Nb3 O55 2.025717 1_555
Nb3 O19 2.030766 1_556
Nb3 O20 2.061684 1_556
Nb4 O58 1.920767 1_555
Nb4 O22 1.950429 1_555
Nb4 O59 1.986599 1_555
Nb4 O21 2.021817 1_555
Nb4 O57 2.085732 1_555
Nb4 O23 2.319842 1_555
Nb5 O26 1.920085 1_554
Nb5 O25 1.971853 1_554
Nb5 O24 1.978572 1_554
Nb5 O61 1.982516 1_555
Nb5 O62 2.018350 1_555
Nb5 O60 2.052636 1_555
Nb6 O27 1.860117 1_555
Nb6 O29 1.927308 1_555
Nb6 O28 1.951864 1_555
Nb6 O63 1.973732 1_555
Nb6 O64 1.985011 1_555
Nb6 O65 2.196314 1_555
Nb7 O30 1.891558 1_555
Nb7 O32 1.898070 1_555
Nb7 O68 1.983385 1_555
Nb7 O31 2.003330 1_555
Nb7 O67 2.329933 1_555
Nb7 O66 2.361336 1_555
Nb8 O35 1.952398 1_555
Nb8 O34 1.964627 1_555
Nb8 O33 1.966961 1_555
Nb8 O69 2.077944 1_555
Nb8 O71 2.091299 1_555
Nb8 O70 2.103089 1_555
O0 S0 1.465589 1_555
O1 S1 1.461409 1_555
O2 Si0 1.585654 1_555
O3 Si1 1.636014 1_555
O4 Si2 1.624920 1_655
O5 Si3 1.637605 1_545
O6 Si3 1.665563 1_555
O7 Si1 1.665582 1_555
O8 Si2 1.691680 1_555
O9 S1 1.515962 1_555
O10 Si0 1.751179 1_555
O11 S0 1.522355 1_555
O12 S2 1.481493 1_555
O13 Si4 1.612502 1_555
O14 Si5 1.609094 1_555
O15 Si6 1.600642 1_555
O16 Si7 1.583287 1_555
O17 Si8 1.592205 1_555
O18 Si8 1.650907 1_555
O19 Si6 1.668344 1_555
O20 Si7 1.656333 1_555
O21 Si4 1.685686 1_555
O22 Si5 1.691880 1_555
O23 S2 1.483793 1_555
O24 Si9 1.625644 1_555
O25 Si10 1.626038 1_555
O26 Si11 1.631277 1_555
O27 Si12 1.637286 1_555
O28 Si13 1.596658 1_555
O29 Si14 1.610160 1_555
O30 Si14 1.709718 1_555
O31 Si12 1.687854 1_555
O32 Si13 1.689803 1_555
O33 Si10 1.675914 1_555
O34 Si11 1.671943 1_555
O35 Si9 1.679662 1_555
O36 Si14 1.594424 1_555
O37 Si12 1.588540 1_555
O38 Si13 1.594229 1_555
O39 Si10 1.638972 1_555
O40 Si11 1.635053 1_555
O41 Si9 1.638388 1_555
O42 S2 1.482500 1_555
O43 Si4 1.659820 1_555
O44 Si5 1.654257 1_555
O45 Si6 1.665995 1_555
O46 Si7 1.723199 1_555
O47 Si8 1.695518 1_555
O48 Si3 1.618360 1_545
O49 Si1 1.621513 1_555
O50 Si2 1.612290 1_655
O51 S1 1.463519 1_555
O52 Si0 1.602794 1_655
O53 S0 1.466276 1_545
O54 Si9 1.642190 1_555
O55 Si10 1.641876 1_655
O56 Si11 1.637677 1_545
O57 Si12 1.656333 1_545
O58 Si13 1.671149 1_555
O59 Si14 1.641586 1_655
O60 Si8 1.640778 1_555
O61 Si6 1.638271 1_455
O62 Si7 1.634900 1_565
O63 Si4 1.638680 1_565
O64 Si5 1.634803 1_555
O65 S2 1.480632 1_455
O66 S0 1.496626 1_555
O67 S1 1.498051 1_555
O68 Si0 1.686168 1_555
O69 Si1 1.663414 1_555
O70 Si2 1.652888 1_555
O71 Si3 1.664414 1_555
