# generated using pymatgen
data_Ta5Zn(PO4)9
_symmetry_space_group_name_H-M   'P 1'
_cell_length_a   8.76118663
_cell_length_b   8.76118636
_cell_length_c   22.59689231
_cell_angle_alpha   90.00000000
_cell_angle_beta   90.00000000
_cell_angle_gamma   120.00000107
_symmetry_Int_Tables_number   1
_chemical_formula_structural   Ta5Zn(PO4)9
_chemical_formula_sum   'Ta10 Zn2 P18 O72'
_cell_volume   1502.12195155
_cell_formula_units_Z   2
loop_
 _symmetry_equiv_pos_site_id
 _symmetry_equiv_pos_as_xyz
  1  'x, y, z'
loop_
 _atom_site_type_symbol
 _atom_site_label
 _atom_site_symmetry_multiplicity
 _atom_site_fract_x
 _atom_site_fract_y
 _atom_site_fract_z
 _atom_site_occupancy
  Ta  Ta0  1  -0.00000000  0.00000000  0.35470100  1
  Ta  Ta1  1  -0.00000000  0.00000000  0.85470100  1
  Ta  Ta2  1  -0.00000000  0.00000000  0.64349666  1
  Ta  Ta3  1  -0.00000000  0.00000000  0.14349666  1
  Ta  Ta4  1  0.66666700  0.33333300  0.97861429  1
  Ta  Ta5  1  0.66666700  0.33333300  0.47861429  1
  Ta  Ta6  1  0.33333300  0.66666700  0.02379739  1
  Ta  Ta7  1  0.33333300  0.66666700  0.52379739  1
  Ta  Ta8  1  0.33333300  0.66666700  0.30738437  1
  Ta  Ta9  1  0.33333300  0.66666700  0.80738437  1
  Zn  Zn0  1  0.66666700  0.33333300  0.68913300  1
  Zn  Zn1  1  0.66666700  0.33333300  0.18913300  1
  P  P0  1  0.28992245  0.00481929  0.24952702  1
  P  P1  1  0.71489684  0.71007755  0.24952702  1
  P  P2  1  0.99518071  0.28510316  0.24952702  1
  P  P3  1  0.28992245  0.28510316  0.74952702  1
  P  P4  1  0.99518071  0.71007755  0.74952702  1
  P  P5  1  0.71489684  0.00481929  0.74952702  1
  P  P6  1  0.95123289  0.33345617  0.58500711  1
  P  P7  1  0.38222428  0.04876711  0.58500711  1
  P  P8  1  0.66654383  0.61777572  0.58500711  1
  P  P9  1  0.95123289  0.61777572  0.08500711  1
  P  P10  1  0.66654383  0.04876711  0.08500711  1
  P  P11  1  0.38222428  0.33345617  0.08500711  1
  P  P12  1  0.61803148  0.66625238  0.91618101  1
  P  P13  1  0.04821990  0.38196852  0.91618101  1
  P  P14  1  0.33374762  0.95178010  0.91618101  1
  P  P15  1  0.61803148  0.95178010  0.41618101  1
  P  P16  1  0.33374762  0.38196852  0.41618101  1
  P  P17  1  0.04821990  0.66625238  0.41618101  1
  O  O0  1  0.19136179  0.02137337  0.30522274  1
  O  O1  1  0.83001158  0.80863821  0.30522274  1
  O  O2  1  0.97862663  0.16998842  0.30522274  1
  O  O3  1  0.19136179  0.16998842  0.80522274  1
  O  O4  1  0.97862663  0.80863821  0.80522274  1
  O  O5  1  0.83001158  0.02137337  0.80522274  1
  O  O6  1  0.80141491  0.96662372  0.69523207  1
  O  O7  1  0.16520881  0.19858509  0.69523207  1
  O  O8  1  0.03337628  0.83479119  0.69523207  1
  O  O9  1  0.80141491  0.83479119  0.19523207  1
  O  O10  1  0.03337628  0.19858509  0.19523207  1
  O  O11  1  0.16520881  0.96662372  0.19523207  1
  O  O12  1  0.88067447  0.37302919  0.63852350  1
  O  O13  1  0.49235572  0.11932553  0.63852350  1
  O  O14  1  0.62697081  0.50764428  0.63852350  1
  O  O15  1  0.88067447  0.50764428  0.13852350  1
  O  O16  1  0.62697081  0.11932553  0.13852350  1
  O  O17  1  0.49235572  0.37302919  0.13852350  1
  O  O18  1  0.46739345  0.30318986  0.02798808  1
  O  O19  1  0.83579741  0.53260655  0.02798808  1
  O  O20  1  0.69681014  0.16420259  0.02798808  1
  O  O21  1  0.46739345  0.16420259  0.52798808  1
  O  O22  1  0.69681014  0.53260655  0.52798808  1
  O  O23  1  0.83579741  0.30318986  0.52798808  1
  O  O24  1  0.53240221  0.69635769  0.97111480  1
  O  O25  1  0.16395448  0.46759779  0.97111480  1
  O  O26  1  0.30364231  0.83604552  0.97111480  1
  O  O27  1  0.53240221  0.83604552  0.47111480  1
  O  O28  1  0.30364231  0.46759779  0.47111480  1
  O  O29  1  0.16395448  0.69635769  0.47111480  1
  O  O30  1  0.13426621  0.63526131  0.36165637  1
  O  O31  1  0.50099409  0.86573379  0.36165637  1
  O  O32  1  0.36473869  0.49900590  0.36165637  1
  O  O33  1  0.13426621  0.49900590  0.86165637  1
  O  O34  1  0.36473869  0.86573379  0.86165637  1
  O  O35  1  0.50099410  0.63526131  0.86165637  1
  O  O36  1  0.02582375  0.82831711  0.40670516  1
  O  O37  1  0.80249337  0.97417625  0.40670516  1
  O  O38  1  0.17168289  0.19750663  0.40670516  1
  O  O39  1  0.02582375  0.19750663  0.90670516  1
  O  O40  1  0.17168289  0.97417625  0.90670516  1
  O  O41  1  0.80249337  0.82831711  0.90670516  1
  O  O42  1  0.97490116  0.16923280  0.59191684  1
  O  O43  1  0.19433164  0.02509884  0.59191684  1
  O  O44  1  0.83076720  0.80566836  0.59191684  1
  O  O45  1  0.97490116  0.80566836  0.09191684  1
  O  O46  1  0.83076720  0.02509884  0.09191684  1
  O  O47  1  0.19433164  0.16923280  0.09191684  1
  O  O48  1  0.69433107  0.16086511  0.74406268  1
  O  O49  1  0.46653504  0.30566893  0.74406268  1
  O  O50  1  0.83913489  0.53346496  0.74406268  1
  O  O51  1  0.69433107  0.53346496  0.24406268  1
  O  O52  1  0.83913489  0.30566893  0.24406268  1
  O  O53  1  0.46653504  0.16086511  0.24406268  1
  O  O54  1  0.63939786  0.50362911  0.92700460  1
  O  O55  1  0.86423225  0.36060214  0.92700460  1
  O  O56  1  0.49637089  0.13576775  0.92700460  1
  O  O57  1  0.63939786  0.13576775  0.42700460  1
  O  O58  1  0.49637089  0.36060214  0.42700460  1
  O  O59  1  0.86423225  0.50362911  0.42700460  1
  O  O60  1  0.35318749  0.49222007  0.07013824  1
  O  O61  1  0.13903158  0.64681251  0.07013824  1
  O  O62  1  0.50777993  0.86096842  0.07013824  1
  O  O63  1  0.35318749  0.86096842  0.57013824  1
  O  O64  1  0.50777993  0.64681251  0.57013824  1
  O  O65  1  0.13903158  0.49222007  0.57013824  1
  O  O66  1  0.29822556  0.83155423  0.26067755  1
  O  O67  1  0.53332766  0.70177444  0.26067755  1
  O  O68  1  0.16844577  0.46667234  0.26067755  1
  O  O69  1  0.29822556  0.46667234  0.76067755  1
  O  O70  1  0.16844577  0.70177444  0.76067755  1
  O  O71  1  0.53332766  0.83155423  0.76067755  1
loop_
_geom_bond_atom_site_label_1
_geom_bond_atom_site_label_2
_geom_bond_distance
_geom_bond_site_symmetry_2
O0 P0 1.573489 1_555
O0 Ta0 1.944738 1_555
O1 P1 1.573489 1_555
O1 Ta0 1.944738 1_665
O2 P2 1.573489 1_555
O2 Ta0 1.944738 1_655
O3 P3 1.573489 1_555
O3 Ta1 1.944738 1_555
O4 P4 1.573489 1_555
O4 Ta1 1.944738 1_665
O5 P5 1.573489 1_555
O5 Ta1 1.944738 1_655
O6 P5 1.563803 1_565
O6 Ta2 1.992611 1_665
O7 P3 1.563803 1_555
O7 Ta2 1.992611 1_555
O8 P4 1.563803 1_455
O8 Ta2 1.992611 1_565
O9 P1 1.563803 1_555
O9 Ta3 1.992611 1_665
O10 P2 1.563803 1_455
O10 Ta3 1.992611 1_555
O11 P0 1.563803 1_565
O11 Ta3 1.992611 1_565
O12 P6 1.476174 1_555
O12 Zn0 2.071764 1_555
O13 P7 1.476174 1_555
O13 Zn0 2.071764 1_555
O14 P8 1.476174 1_555
O14 Zn0 2.071764 1_555
O15 P9 1.476174 1_555
O15 Zn1 2.071764 1_555
O16 P10 1.476174 1_555
O16 Zn1 2.071764 1_555
O17 P11 1.476174 1_555
O17 Zn1 2.071764 1_555
O18 P11 1.576413 1_555
O18 Ta4 1.975227 1_554
O19 P9 1.576413 1_555
O19 Ta4 1.975227 1_554
O20 P10 1.576413 1_555
O20 Ta4 1.975227 1_554
O21 P7 1.576413 1_555
O21 Ta5 1.975227 1_555
O22 P8 1.576413 1_555
O22 Ta5 1.975227 1_555
O23 P6 1.576413 1_555
O23 Ta5 1.975227 1_555
O24 P12 1.539861 1_555
O24 Ta6 2.018170 1_556
O25 P13 1.539861 1_555
O25 Ta6 2.018170 1_556
O26 P14 1.539861 1_555
O26 Ta6 2.018170 1_556
O27 P15 1.539861 1_555
O27 Ta7 2.018170 1_555
O28 P16 1.539861 1_555
O28 Ta7 2.018170 1_555
O29 P17 1.539861 1_555
O29 Ta7 2.018170 1_555
O30 P17 1.537780 1_555
O30 Ta8 2.035088 1_555
O31 P15 1.537780 1_555
O31 Ta8 2.035088 1_555
O32 P16 1.537780 1_555
O32 Ta8 2.035088 1_555
O33 P13 1.537780 1_555
O33 Ta9 2.035088 1_555
O34 P14 1.537780 1_555
O34 Ta9 2.035088 1_555
O35 P12 1.537780 1_555
O35 Ta9 2.035088 1_555
O36 P17 1.542405 1_555
O36 Ta0 2.008703 1_565
O37 P15 1.542413 1_555
O37 Ta0 2.008703 1_665
O38 P16 1.542410 1_555
O38 Ta0 2.008703 1_555
O39 P13 1.542413 1_555
O39 Ta1 2.008703 1_555
O40 P14 1.542405 1_555
O40 Ta1 2.008703 1_565
O41 P12 1.542410 1_555
O41 Ta1 2.008703 1_665
O42 P6 1.560721 1_555
O42 Ta2 1.982731 1_655
O43 P7 1.560730 1_555
O43 Ta2 1.982731 1_555
O44 P8 1.560726 1_555
O44 Ta2 1.982731 1_665
O45 P9 1.560730 1_555
O45 Ta3 1.982731 1_665
O46 P10 1.560721 1_555
O46 Ta3 1.982731 1_655
O47 P11 1.560726 1_555
O47 Ta3 1.982731 1_555
O48 P5 1.470760 1_555
O48 Zn0 2.061271 1_555
O49 P3 1.470769 1_555
O49 Zn0 2.061271 1_555
O50 P4 1.470765 1_555
O50 Zn0 2.061271 1_555
O51 P1 1.470768 1_555
O51 Zn1 2.061271 1_555
O52 P2 1.470760 1_555
O52 Zn1 2.061271 1_555
O53 P0 1.470765 1_555
O53 Zn1 2.061271 1_555
O54 P12 1.546463 1_555
O54 Ta4 1.999912 1_555
O55 P13 1.546446 1_655
O55 Ta4 1.999912 1_555
O56 P14 1.546453 1_545
O56 Ta4 1.999912 1_555
O57 P15 1.546446 1_545
O57 Ta5 1.999912 1_555
O58 P16 1.546463 1_555
O58 Ta5 1.999912 1_555
O59 P17 1.546453 1_655
O59 Ta5 1.999912 1_555
O60 P11 1.570424 1_555
O60 Ta6 1.930945 1_555
O61 P9 1.570408 1_455
O61 Ta6 1.930945 1_555
O62 P10 1.570414 1_565
O62 Ta6 1.930945 1_555
O63 P7 1.570407 1_565
O63 Ta7 1.930945 1_555
O64 P8 1.570424 1_555
O64 Ta7 1.930945 1_555
O65 P6 1.570414 1_455
O65 Ta7 1.930945 1_555
O66 P0 1.575929 1_565
O66 Ta8 1.933847 1_555
O67 P1 1.575938 1_555
O67 Ta8 1.933847 1_555
O68 P2 1.575934 1_455
O68 Ta8 1.933847 1_555
O69 P3 1.575938 1_555
O69 Ta9 1.933847 1_555
O70 P4 1.575930 1_455
O70 Ta9 1.933847 1_555
O71 P5 1.575934 1_565
O71 Ta9 1.933847 1_555
