# generated using pymatgen
data_CeInNi
_symmetry_space_group_name_H-M   'P 1'
_cell_length_a   7.29006660
_cell_length_b   7.29034891
_cell_length_c   4.03253753
_cell_angle_alpha   90.00000000
_cell_angle_beta   90.00000000
_cell_angle_gamma   120.00127163
_symmetry_Int_Tables_number   1
_chemical_formula_structural   CeInNi
_chemical_formula_sum   'Ce3 In3 Ni3'
_cell_volume   185.60227463
_cell_formula_units_Z   3
loop_
 _symmetry_equiv_pos_site_id
 _symmetry_equiv_pos_as_xyz
  1  'x, y, z'
loop_
 _atom_site_type_symbol
 _atom_site_label
 _atom_site_symmetry_multiplicity
 _atom_site_fract_x
 _atom_site_fract_y
 _atom_site_fract_z
 _atom_site_occupancy
  Ce  Ce0  1  -0.00000000  0.58367747  -0.00000000  1
  Ce  Ce1  1  0.41631115  0.41631565  0.00000000  1
  Ce  Ce2  1  0.58368885  0.00000450  0.00000000  1
  In  In0  1  0.75420505  0.75430531  0.50000000  1
  In  In1  1  -0.00000000  0.24560487  0.50000000  1
  In  In2  1  0.24579495  0.00010126  0.50000000  1
  Ni  Ni0  1  0.33340320  0.66668489  0.50000000  1
  Ni  Ni1  1  0.00000000  0.00002536  0.00000000  1
  Ni  Ni2  1  0.66659680  0.33328069  0.50000000  1
loop_
_geom_bond_atom_site_label_1
_geom_bond_atom_site_label_2
_geom_bond_distance
_geom_bond_site_symmetry_2
Ce0 Ni0 2.977941 1_555
Ce0 Ni0 2.977941 1_554
Ce0 Ni2 2.977943 1_455
Ce0 Ni2 2.977943 1_454
Ce0 Ni1 3.035321 1_565
Ce0 In1 3.184325 1_555
Ce0 In1 3.184325 1_554
Ce0 In0 3.324535 1_455
Ce0 In0 3.324535 1_454
Ce0 In2 3.324540 1_564
Ce0 In2 3.324540 1_565
Ce1 Ni2 2.977503 1_555
Ce1 Ni2 2.977503 1_554
Ce1 Ni0 2.977505 1_555
Ce1 Ni0 2.977505 1_554
Ce1 Ni1 3.034860 1_555
Ce1 In0 3.183513 1_554
Ce1 In0 3.183513 1_555
Ce1 In2 3.323519 1_555
Ce1 In2 3.323519 1_554
Ce1 In1 3.323825 1_554
Ce1 In1 3.323825 1_555
Ce2 Ni0 2.977500 1_544
Ce2 Ni0 2.977500 1_545
Ce2 Ni2 2.977500 1_555
Ce2 Ni2 2.977500 1_554
Ce2 Ni1 3.034860 1_655
Ce2 In2 3.183516 1_554
Ce2 In2 3.183516 1_555
Ce2 In0 3.323524 1_544
Ce2 In0 3.323524 1_545
Ce2 In1 3.323825 1_654
Ce2 In1 3.323825 1_655
In0 Ni1 2.697245 1_666
In0 Ni1 2.697245 1_665
In0 Ni0 2.803393 1_555
In0 Ni2 2.805138 1_555
In0 In1 3.101843 1_665
In0 In2 3.103555 1_665
In1 Ni1 2.696429 1_556
In1 Ni1 2.696429 1_555
In1 Ni2 2.805293 1_455
In1 Ni0 2.805298 1_555
In1 In2 3.101836 1_555
In2 Ni1 2.697242 1_555
In2 Ni1 2.697242 1_556
In2 Ni2 2.803388 1_555
In2 Ni0 2.805137 1_545
