# generated using pymatgen
data_MgNb2(GaO4)2
_symmetry_space_group_name_H-M   'P 1'
_cell_length_a   3.69410500
_cell_length_b   6.88428759
_cell_length_c   6.81218278
_cell_angle_alpha   109.38829458
_cell_angle_beta   90.00000000
_cell_angle_gamma   105.56311157
_symmetry_Int_Tables_number   1
_chemical_formula_structural   MgNb2(GaO4)2
_chemical_formula_sum   'Mg1 Nb2 Ga2 O8'
_cell_volume   156.66837551
_cell_formula_units_Z   1
loop_
 _symmetry_equiv_pos_site_id
 _symmetry_equiv_pos_as_xyz
  1  'x, y, z'
loop_
 _atom_site_type_symbol
 _atom_site_label
 _atom_site_symmetry_multiplicity
 _atom_site_fract_x
 _atom_site_fract_y
 _atom_site_fract_z
 _atom_site_occupancy
  Mg  Mg0  1  0.49956400  0.00000000  0.50000000  1
  Nb  Nb0  1  0.10736100  0.21869900  0.21493200  1
  Nb  Nb1  1  0.88866200  0.78130100  0.78506800  1
  Ga  Ga0  1  0.18786500  0.37932700  0.80519200  1
  Ga  Ga1  1  0.80853900  0.62067300  0.19480800  1
  O  O0  1  0.90042500  0.80326800  0.48517500  1
  O  O1  1  0.09715700  0.19673200  0.51482500  1
  O  O2  1  0.94187600  0.88871200  0.11619200  1
  O  O3  1  0.05316400  0.11128800  0.88380800  1
  O  O4  1  0.26298100  0.52963200  0.14709900  1
  O  O5  1  0.73334800  0.47036800  0.85290100  1
  O  O6  1  0.33204900  0.66791700  0.73558700  1
  O  O7  1  0.66413200  0.33208300  0.26441300  1
loop_
_geom_bond_atom_site_label_1
_geom_bond_atom_site_label_2
_geom_bond_distance
_geom_bond_site_symmetry_2
Mg0 O0 2.241138 1_545
Mg0 O1 2.241138 1_655
Mg0 O1 2.245840 1_555
Mg0 O0 2.245840 1_445
Nb0 O7 1.978606 1_455
Nb0 O7 1.979151 1_555
Nb0 O2 2.056006 1_445
Nb0 O1 2.097594 1_555
Nb0 O3 2.118511 1_554
Nb0 O4 2.263268 1_555
Nb1 O6 1.978606 1_555
Nb1 O6 1.979151 1_655
Nb1 O3 2.056006 1_665
Nb1 O0 2.097594 1_555
Nb1 O2 2.118511 1_556
Nb1 O5 2.263268 1_555
Ga0 O1 1.930845 1_555
Ga0 O5 1.935463 1_555
Ga0 O5 1.935728 1_455
Ga0 O3 2.025538 1_555
Ga0 O6 2.124446 1_555
Ga0 O4 2.195075 1_556
Ga1 O0 1.930845 1_555
Ga1 O4 1.935463 1_655
Ga1 O4 1.935728 1_555
Ga1 O2 2.025538 1_555
Ga1 O7 2.124446 1_555
Ga1 O5 2.195075 1_554
