# generated using pymatgen
data_Na2La3TaP4(SO12)2
_symmetry_space_group_name_H-M   'P 1'
_cell_length_a   9.29951525
_cell_length_b   9.30798505
_cell_length_c   24.27293897
_cell_angle_alpha   90.36490101
_cell_angle_beta   89.75788340
_cell_angle_gamma   120.11554599
_symmetry_Int_Tables_number   1
_chemical_formula_structural   Na2La3TaP4(SO12)2
_chemical_formula_sum   'Na6 La9 Ta3 P12 S6 O72'
_cell_volume   1817.41049937
_cell_formula_units_Z   3
loop_
 _symmetry_equiv_pos_site_id
 _symmetry_equiv_pos_as_xyz
  1  'x, y, z'
loop_
 _atom_site_type_symbol
 _atom_site_label
 _atom_site_symmetry_multiplicity
 _atom_site_fract_x
 _atom_site_fract_y
 _atom_site_fract_z
 _atom_site_occupancy
  Na  Na0  1  0.98703842  0.98304941  0.50399284  1
  Na  Na1  1  0.01239355  0.99771571  0.00082812  1
  Na  Na2  1  0.66884473  0.32869723  0.83275896  1
  Na  Na3  1  0.69412251  0.34642197  0.32911804  1
  Na  Na4  1  0.32452021  0.63928282  0.16053192  1
  Na  Na5  1  0.33486062  0.66594486  0.67725034  1
  La  La0  1  0.98746270  0.99226633  0.35035135  1
  La  La1  1  0.00223664  0.00194093  0.85375923  1
  La  La2  1  0.99942928  0.99911508  0.66427020  1
  La  La3  1  0.99650869  0.00129868  0.14559797  1
  La  La4  1  0.66702864  0.33395997  0.69168898  1
  La  La5  1  0.67289266  0.34478300  0.18603657  1
  La  La6  1  0.67631795  0.33221381  0.47500487  1
  La  La7  1  0.32781773  0.66045584  0.01824544  1
  La  La8  1  0.33258266  0.67399151  0.51917162  1
  Ta  Ta0  1  0.66358342  0.34337885  0.97612559  1
  Ta  Ta1  1  0.33293439  0.66773537  0.31517963  1
  Ta  Ta2  1  0.33249266  0.66838012  0.82274921  1
  P  P0  1  0.68037898  0.69686079  0.25228224  1
  P  P1  1  0.01460151  0.31495717  0.25353016  1
  P  P2  1  0.30323833  0.32256801  0.75572959  1
  P  P3  1  0.01891252  0.69748330  0.75581511  1
  P  P4  1  0.67865762  0.98173937  0.75593786  1
  P  P5  1  0.94341531  0.62706171  0.07620610  1
  P  P6  1  0.37478525  0.31759227  0.07779004  1
  P  P7  1  0.61591693  0.64946139  0.91745870  1
  P  P8  1  0.02512605  0.38473011  0.91686449  1
  P  P9  1  0.35743746  0.97258248  0.91868501  1
  P  P10  1  0.61554317  0.95931222  0.41213623  1
  P  P11  1  0.04222664  0.66046396  0.41202246  1
  S  S0  1  0.30335316  0.98270258  0.25383416  1
  S  S1  1  0.96594733  0.32110568  0.58414294  1
  S  S2  1  0.35850528  0.03862217  0.58349599  1
  S  S3  1  0.67619056  0.63950792  0.58295980  1
  S  S4  1  0.67797550  0.05941925  0.07643483  1
  S  S5  1  0.34259136  0.38614771  0.41067649  1
  O  O0  1  0.22476725  0.00627669  0.30252530  1
  O  O1  1  0.79133081  0.77749877  0.30225887  1
  O  O2  1  0.99436707  0.20742228  0.30325067  1
  O  O3  1  0.21971615  0.20084426  0.80233160  1
  O  O4  1  0.98163703  0.78193053  0.80262653  1
  O  O5  1  0.80054396  0.01795685  0.80232447  1
  O  O6  1  0.74177574  0.94626710  0.70102593  1
  O  O7  1  0.20359793  0.25736117  0.70132264  1
  O  O8  1  0.05311124  0.79567062  0.70132176  1
  O  O9  1  0.75634876  0.79916625  0.19948836  1
  O  O10  1  0.04344456  0.24303110  0.19971408  1
  O  O11  1  0.20550910  0.95628107  0.20332577  1
  O  O12  1  0.87446485  0.32569011  0.63303325  1
  O  O13  1  0.45162576  0.13026438  0.63278648  1
  O  O14  1  0.67463307  0.54733763  0.63223771  1
  O  O15  1  0.85785794  0.53530723  0.12876674  1
  O  O16  1  0.67622196  0.13959887  0.12817180  1
  O  O17  1  0.46369852  0.31314520  0.12959048  1
  O  O18  1  0.48307251  0.31704061  0.02482788  1
  O  O19  1  0.83281000  0.51640998  0.02423041  1
  O  O20  1  0.67829732  0.15880659  0.02726406  1
  O  O21  1  0.44827353  0.12607894  0.53244292  1
  O  O22  1  0.67699727  0.54989475  0.53184794  1
  O  O23  1  0.87691910  0.31981187  0.53285106  1
  O  O24  1  0.54907091  0.67654254  0.97073382  1
  O  O25  1  0.12118734  0.45050462  0.96983848  1
  O  O26  1  0.33053243  0.87586380  0.97113067  1
  O  O27  1  0.53223213  0.87311882  0.46614271  1
  O  O28  1  0.33722531  0.46427656  0.46266625  1
  O  O29  1  0.12320996  0.65494315  0.46625148  1
  O  O30  1  0.15648921  0.66116395  0.36237211  1
  O  O31  1  0.50664570  0.84379994  0.36222922  1
  O  O32  1  0.33973542  0.48770448  0.36258329  1
  O  O33  1  0.13130219  0.50830137  0.86829605  1
  O  O34  1  0.37626738  0.87056473  0.86872550  1
  O  O35  1  0.49398191  0.62690452  0.86855545  1
  O  O36  1  0.02867712  0.81714039  0.41113519  1
  O  O37  1  0.79087111  0.98341555  0.41162075  1
  O  O38  1  0.19784599  0.21829649  0.40831155  1
  O  O39  1  0.98871415  0.20897224  0.90612914  1
  O  O40  1  0.21714673  0.00809493  0.90892807  1
  O  O41  1  0.79285624  0.78580400  0.90749030  1
  O  O42  1  0.97973404  0.16923724  0.58428969  1
  O  O43  1  0.19110294  0.02161168  0.58321413  1
  O  O44  1  0.82743738  0.80708102  0.58294904  1
  O  O45  1  0.95013287  0.79641147  0.07412956  1
  O  O46  1  0.83293793  0.04892087  0.07375435  1
  O  O47  1  0.20124336  0.15881726  0.07438901  1
  O  O48  1  0.63985052  0.12370954  0.75010176  1
  O  O49  1  0.48455631  0.36233427  0.74939864  1
  O  O50  1  0.87772353  0.51588971  0.74979061  1
  O  O51  1  0.64001765  0.51576800  0.24913132  1
  O  O52  1  0.86866049  0.34754494  0.25048769  1
  O  O53  1  0.47494208  0.11989894  0.24907679  1
  O  O54  1  0.62115089  0.47913525  0.92391488  1
  O  O55  1  0.85256391  0.38011316  0.92288425  1
  O  O56  1  0.52550972  0.14716376  0.92482542  1
  O  O57  1  0.62176304  0.12790812  0.40687885  1
  O  O58  1  0.49878962  0.38023771  0.40657200  1
  O  O59  1  0.86986986  0.50101347  0.40600115  1
  O  O60  1  0.36212846  0.47532517  0.07809780  1
  O  O61  1  0.11699674  0.64790805  0.07543254  1
  O  O62  1  0.53137628  0.89170502  0.07599309  1
  O  O63  1  0.34126487  0.87054838  0.58550555  1
  O  O64  1  0.52488262  0.65550984  0.58404026  1
  O  O65  1  0.13431803  0.47136479  0.58487487  1
  O  O66  1  0.31304280  0.82471059  0.26180254  1
  O  O67  1  0.50713330  0.68787346  0.26399198  1
  O  O68  1  0.17728797  0.49220149  0.26483689  1
  O  O69  1  0.30966440  0.49210424  0.77085177  1
  O  O70  1  0.18257657  0.69182120  0.77060888  1
  O  O71  1  0.50845874  0.81867686  0.77080488  1
loop_
_geom_bond_atom_site_label_1
_geom_bond_atom_site_label_2
_geom_bond_distance
_geom_bond_site_symmetry_2
Na0 O44 2.476905 1_555
Na0 O43 2.601210 1_665
Na0 O42 2.623122 1_565
Na0 O36 2.857145 1_655
Na0 O37 2.897593 1_555
Na1 O47 2.422960 1_565
Na1 O45 2.440679 1_455
Na1 O46 2.628320 1_465
Na1 O40 2.897094 1_564
Na2 O55 2.670463 1_555
Na2 O48 2.679212 1_555
Na2 O56 2.718202 1_555
Na2 O50 2.734981 1_555
Na2 O54 2.762003 1_555
Na2 O49 2.775804 1_555
Na3 O59 2.419902 1_555
Na3 O52 2.496875 1_555
Na3 O57 2.610936 1_555
Na3 O51 2.711155 1_555
Na3 O58 2.733246 1_555
Na3 O53 2.836101 1_555
Na4 O60 2.635491 1_555
Na4 O61 2.861620 1_555
Na4 O68 2.879708 1_555
Na4 O67 2.940380 1_555
Na4 O62 2.987323 1_555
Na4 O66 3.026774 1_555
Na5 O71 2.733273 1_555
Na5 O69 2.738052 1_555
Na5 O70 2.739872 1_555
Na5 O65 2.894821 1_555
Na5 O64 2.895962 1_555
Na5 O63 2.920393 1_555
La0 O1 2.239429 1_555
La0 O2 2.285034 1_565
La0 O37 2.321271 1_555
La0 O36 2.375541 1_655
La0 O0 2.434373 1_665
La0 O38 2.467461 1_665
La1 O3 2.308007 1_555
La1 O4 2.312314 1_445
La1 O5 2.324156 1_455
La1 O39 2.357078 1_455
La1 O41 2.370797 1_445
La1 O40 2.386943 1_555
La2 O6 2.363003 1_555
La2 O7 2.366193 1_665
La2 O8 2.370257 1_655
La2 O42 2.577419 1_565
La2 O43 2.587093 1_665
La2 O44 2.600447 1_555
La3 O10 2.441374 1_655
La3 O47 2.442417 1_655
La3 O45 2.443597 1_545
La3 O9 2.455377 1_545
La3 O46 2.502046 1_555
La3 O11 2.600837 1_645
La4 O49 2.310056 1_555
La4 O50 2.314952 1_555
La4 O48 2.332386 1_555
La4 O13 2.414538 1_555
La4 O12 2.424591 1_555
La4 O14 2.434496 1_555
La5 O15 2.232976 1_555
La5 O17 2.278382 1_555
La5 O51 2.329197 1_555
La5 O16 2.376141 1_555
La5 O52 2.395630 1_555
La5 O53 2.502388 1_555
La6 O57 2.367930 1_555
La6 O59 2.384093 1_555
La6 O23 2.388552 1_555
La6 O22 2.441462 1_555
La6 O21 2.459359 1_555
La6 O58 2.541201 1_555
La7 O25 2.261311 1_554
La7 O24 2.293225 1_554
La7 O26 2.303636 1_554
La7 O61 2.352326 1_555
La7 O60 2.401949 1_555
La7 O62 2.465051 1_555
La8 O27 2.257483 1_555
La8 O29 2.268109 1_555
La8 O28 2.396536 1_555
La8 O63 2.400332 1_555
La8 O65 2.454375 1_555
La8 O64 2.458205 1_555
O0 S0 1.459241 1_545
O1 P0 1.523604 1_555
O2 P1 1.522582 1_655
O3 P2 1.514044 1_555
O4 P3 1.512546 1_655
O5 P4 1.512837 1_545
O6 P4 1.553178 1_555
O7 P2 1.551380 1_555
O8 P3 1.551176 1_555
O9 P0 1.543000 1_555
O10 P1 1.546807 1_555
O11 S0 1.473934 1_555
O12 S1 1.470075 1_555
O13 S2 1.470871 1_555
O14 S3 1.472207 1_555
O15 P5 1.521028 1_555
O16 S4 1.460959 1_555
O17 P6 1.519907 1_555
O18 P6 1.631229 1_555
O18 Ta0 1.961998 1_554
O19 P5 1.625342 1_555
O19 Ta0 1.970299 1_554
O20 S4 1.513788 1_555
O20 Ta0 2.185293 1_554
O21 S2 1.489083 1_555
O22 S3 1.492650 1_555
O23 S1 1.494706 1_555
O24 P7 1.506150 1_555
O25 P8 1.508998 1_555
O26 P9 1.509798 1_555
O27 P10 1.530824 1_555
O28 S5 1.465619 1_555
O29 P11 1.533142 1_555
O30 P11 1.601210 1_555
O30 Ta1 1.972969 1_555
O31 P10 1.596929 1_555
O31 Ta1 1.983601 1_555
O32 S5 1.515429 1_555
O32 Ta1 2.065798 1_555
O33 P8 1.598584 1_555
O33 Ta2 2.036891 1_555
O34 P9 1.597910 1_555
O34 Ta2 2.039878 1_555
O35 P7 1.583734 1_555
O35 Ta2 2.059597 1_555
O36 P11 1.525753 1_555
O37 P10 1.530259 1_555
O38 S5 1.464676 1_555
O39 P8 1.516023 1_655
O40 P9 1.517823 1_545
O41 P7 1.510516 1_555
O42 S1 1.482100 1_555
O43 S2 1.483694 1_555
O44 S3 1.486498 1_555
O45 P5 1.547046 1_555
O46 S4 1.493626 1_555
O47 P6 1.549719 1_555
O48 P4 1.542054 1_545
O49 P2 1.541434 1_555
O50 P3 1.540701 1_655
O51 P0 1.533533 1_555
O52 P1 1.534157 1_655
O53 S0 1.464865 1_545
O54 P7 1.618970 1_555
O54 Ta0 1.970660 1_555
O55 P8 1.589747 1_655
O55 Ta0 2.063733 1_555
O56 P9 1.598730 1_545
O56 Ta0 2.041109 1_555
O57 P10 1.547158 1_545
O58 S5 1.483846 1_555
O59 P11 1.550878 1_655
O60 P6 1.530592 1_555
O61 P5 1.526171 1_455
O62 S4 1.469673 1_565
O63 S2 1.491553 1_565
O64 S3 1.487524 1_555
O65 S1 1.486750 1_455
O66 S0 1.531307 1_555
O66 Ta1 2.035949 1_555
O67 P0 1.595186 1_555
O67 Ta1 1.970890 1_555
O68 P1 1.605945 1_555
O68 Ta1 1.968283 1_555
O69 P2 1.589557 1_555
O69 Ta2 1.987574 1_555
O70 P3 1.591712 1_555
O70 Ta2 1.979058 1_555
O71 P4 1.590757 1_555
O71 Ta2 1.983026 1_555
