# generated using pymatgen
data_Na10Ga8Si5S7O48
_symmetry_space_group_name_H-M   'P 1'
_cell_length_a   17.49327443
_cell_length_b   8.78706982
_cell_length_c   22.06859285
_cell_angle_alpha   89.68164316
_cell_angle_beta   88.70045088
_cell_angle_gamma   120.02037255
_symmetry_Int_Tables_number   1
_chemical_formula_structural   Na10Ga8Si5S7O48
_chemical_formula_sum   'Na30 Ga24 Si15 S21 O144'
_cell_volume   2935.86940743
_cell_formula_units_Z   3
loop_
 _symmetry_equiv_pos_site_id
 _symmetry_equiv_pos_as_xyz
  1  'x, y, z'
loop_
 _atom_site_type_symbol
 _atom_site_label
 _atom_site_symmetry_multiplicity
 _atom_site_fract_x
 _atom_site_fract_y
 _atom_site_fract_z
 _atom_site_occupancy
  Na  Na0  1  0.32222871  0.00000906  0.24911928  1
  Na  Na1  1  0.82164120  0.99954015  0.24969318  1
  Na  Na2  1  0.18306696  0.37201831  0.24481505  1
  Na  Na3  1  0.68319632  0.37253216  0.24547438  1
  Na  Na4  1  0.99683625  0.62847747  0.25511064  1
  Na  Na5  1  0.49734706  0.62853753  0.25550974  1
  Na  Na6  1  0.82204483  0.64313151  0.74801750  1
  Na  Na7  1  0.99665672  0.36492409  0.75524503  1
  Na  Na8  1  0.49807037  0.36070121  0.75451879  1
  Na  Na9  1  0.18154061  0.99214406  0.74686632  1
  Na  Na10  1  0.01785946  0.70541212  0.58456818  1
  Na  Na11  1  0.33127697  0.96815984  0.58749807  1
  Na  Na12  1  0.01988171  0.33153801  0.08340209  1
  Na  Na13  1  0.51972812  0.33126515  0.08398190  1
  Na  Na14  1  0.16335586  0.30017868  0.92138107  1
  Na  Na15  1  0.66471274  0.30098061  0.92198850  1
  Na  Na16  1  0.16334311  0.02658745  0.42136617  1
  Na  Na17  1  0.66366920  0.02594713  0.42262445  1
  Na  Na18  1  0.99752973  0.00036391  0.50012331  1
  Na  Na19  1  0.50644708  0.99541541  0.50018038  1
  Na  Na20  1  0.00029612  0.99807296  0.99993475  1
  Na  Na21  1  0.49978149  0.99671394  0.00113839  1
  Na  Na22  1  0.34030409  0.33556074  0.83565455  1
  Na  Na23  1  0.84106285  0.32649369  0.83354941  1
  Na  Na24  1  0.34474282  0.35448565  0.33535069  1
  Na  Na25  1  0.84357366  0.35276072  0.33605616  1
  Na  Na26  1  0.17232460  0.66255653  0.16470354  1
  Na  Na27  1  0.67237008  0.66245757  0.16528237  1
  Na  Na28  1  0.16998718  0.66979931  0.66869055  1
  Na  Na29  1  0.67372281  0.69459042  0.66366974  1
  Ga  Ga0  1  0.98651422  0.97698849  0.35041998  1
  Ga  Ga1  1  0.48853594  0.97898965  0.35034667  1
  Ga  Ga2  1  0.98842225  0.99830223  0.84942949  1
  Ga  Ga3  1  0.49133812  0.01159969  0.85306734  1
  Ga  Ga4  1  0.99867044  0.98829854  0.65054864  1
  Ga  Ga5  1  0.50460561  0.99593290  0.64867557  1
  Ga  Ga6  1  0.00179038  0.01297268  0.14987712  1
  Ga  Ga7  1  0.50193778  0.01321220  0.15010677  1
  Ga  Ga8  1  0.32989269  0.31552394  0.68234399  1
  Ga  Ga9  1  0.83075077  0.31170626  0.68711973  1
  Ga  Ga10  1  0.33518995  0.35039001  0.18544316  1
  Ga  Ga11  1  0.83501965  0.35018869  0.18545213  1
  Ga  Ga12  1  0.33498064  0.32992730  0.98275282  1
  Ga  Ga13  1  0.83612252  0.33169370  0.98306900  1
  Ga  Ga14  1  0.33683708  0.34548343  0.48273507  1
  Ga  Ga15  1  0.83322404  0.33949373  0.48351978  1
  Ga  Ga16  1  0.16538158  0.64396976  0.01679138  1
  Ga  Ga17  1  0.66513948  0.64537309  0.01815053  1
  Ga  Ga18  1  0.16032713  0.67545763  0.51626068  1
  Ga  Ga19  1  0.66228077  0.69234565  0.51941730  1
  Ga  Ga20  1  0.15843255  0.64351999  0.31454288  1
  Ga  Ga21  1  0.65882511  0.64325645  0.31545675  1
  Ga  Ga22  1  0.16146981  0.67251523  0.81369694  1
  Ga  Ga23  1  0.66553958  0.67960026  0.81757629  1
  Si  Si0  1  0.35469862  0.71160142  0.24946319  1
  Si  Si1  1  0.85437964  0.71108588  0.24927059  1
  Si  Si2  1  0.99817787  0.28758776  0.25018625  1
  Si  Si3  1  0.49839869  0.28801284  0.25036923  1
  Si  Si4  1  0.99791691  0.70764253  0.75051140  1
  Si  Si5  1  0.35509087  0.99563777  0.74769243  1
  Si  Si6  1  0.85090843  0.99540936  0.74974710  1
  Si  Si7  1  0.18575576  0.04608091  0.58141197  1
  Si  Si8  1  0.68819838  0.04641074  0.58358185  1
  Si  Si9  1  0.18873246  0.32917660  0.08300367  1
  Si  Si10  1  0.68877311  0.32867887  0.08294068  1
  Si  Si11  1  0.01704281  0.36908783  0.91635023  1
  Si  Si12  1  0.51805358  0.37616778  0.91641995  1
  Si  Si13  1  0.01577917  0.66435484  0.41656631  1
  Si  Si14  1  0.51734362  0.66550905  0.41582180  1
  S  S0  1  0.14560634  -0.00004302  0.24991300  1
  S  S1  1  0.64566131  -0.00006603  0.24972726  1
  S  S2  1  0.14858056  0.29467657  0.74937290  1
  S  S3  1  0.64468073  0.28766962  0.75058144  1
  S  S4  1  0.49879522  0.71026494  0.75090331  1
  S  S5  1  0.48156438  0.33718387  0.58299359  1
  S  S6  1  0.98018240  0.32984394  0.58263767  1
  S  S7  1  0.33240864  0.62140272  0.58376846  1
  S  S8  1  0.82942973  0.62339849  0.58319121  1
  S  S9  1  0.48056166  0.63129322  0.08199257  1
  S  S10  1  0.98089544  0.63180514  0.08225731  1
  S  S11  1  0.32983992  0.03618745  0.08295917  1
  S  S12  1  0.82979371  0.03600586  0.08308548  1
  S  S13  1  0.31334297  0.66991994  0.91541532  1
  S  S14  1  0.81334186  0.66881786  0.91688310  1
  S  S15  1  0.16689475  0.95520361  0.91801783  1
  S  S16  1  0.66555296  0.95477225  0.91759377  1
  S  S17  1  0.31327742  0.95715138  0.41689405  1
  S  S18  1  0.81234389  0.95628748  0.41643296  1
  S  S19  1  0.16679555  0.37759555  0.41820893  1
  S  S20  1  0.66636324  0.37734257  0.41852236  1
  O  O0  1  0.10852499  0.03640818  0.30592458  1
  O  O1  1  0.60871409  0.03666061  0.30553914  1
  O  O2  1  0.41741881  0.78250105  0.30734415  1
  O  O3  1  0.91775556  0.78118725  0.30709784  1
  O  O4  1  0.47996502  0.16028937  0.30925718  1
  O  O5  1  0.98081820  0.16122909  0.30933780  1
  O  O6  1  0.11178390  0.18308232  0.80533118  1
  O  O7  1  0.60736100  0.17884662  0.80720864  1
  O  O8  1  0.48601811  0.79095630  0.80597898  1
  O  O9  1  0.98128183  0.80101111  0.80908458  1
  O  O10  1  0.42013341  0.04843629  0.80459979  1
  O  O11  1  0.91426750  0.04642145  0.80780690  1
  O  O12  1  0.40052264  0.97037811  0.68556636  1
  O  O13  1  0.89584098  0.95482419  0.69053575  1
  O  O14  1  0.09230147  0.21554089  0.69640270  1
  O  O15  1  0.58838112  0.20895585  0.69821147  1
  O  O16  1  0.02410727  0.83014139  0.68871080  1
  O  O17  1  0.51549889  0.81792372  0.69523879  1
  O  O18  1  0.39876601  0.83842381  0.18962224  1
  O  O19  1  0.89892652  0.83867468  0.18969129  1
  O  O20  1  0.02323575  0.21814283  0.18867038  1
  O  O21  1  0.52302789  0.21807174  0.18867045  1
  O  O22  1  0.09001694  0.96529768  0.19720343  1
  O  O23  1  0.58988507  0.96542560  0.19690176  1
  O  O24  1  0.44365308  0.37127647  0.63994943  1
  O  O25  1  0.94448746  0.37282124  0.63831355  1
  O  O26  1  0.24753153  0.12245897  0.64105756  1
  O  O27  1  0.74909037  0.13849965  0.64118233  1
  O  O28  1  0.31939892  0.51328322  0.63928700  1
  O  O29  1  0.81782786  0.52127430  0.63995279  1
  O  O30  1  0.44448998  0.51618574  0.13843865  1
  O  O31  1  0.94447118  0.51618876  0.13857042  1
  O  O32  1  0.31718600  0.11406764  0.13951701  1
  O  O33  1  0.81693151  0.11338202  0.13957064  1
  O  O34  1  0.24601235  0.35843557  0.14376648  1
  O  O35  1  0.74606433  0.35830562  0.14359722  1
  O  O36  1  0.23382902  0.30400190  0.02063019  1
  O  O37  1  0.73398147  0.30376605  0.02052463  1
  O  O38  1  0.42589260  0.54666644  0.02945581  1
  O  O39  1  0.92573848  0.54713115  0.02966421  1
  O  O40  1  0.35040905  0.15654725  0.02956889  1
  O  O41  1  0.84989612  0.15573689  0.02965655  1
  O  O42  1  0.23504416  0.16491017  0.52037961  1
  O  O43  1  0.73042090  0.16095483  0.51965741  1
  O  O44  1  0.34892191  0.54576342  0.52870935  1
  O  O45  1  0.85091929  0.54517247  0.53002607  1
  O  O46  1  0.42312806  0.30425888  0.53116504  1
  O  O47  1  0.92653852  0.30571260  0.52935434  1
  O  O48  1  0.27602272  0.70526112  0.97130616  1
  O  O49  1  0.77193590  0.70043685  0.97125041  1
  O  O50  1  0.07959443  0.45198469  0.97587943  1
  O  O51  1  0.58082578  0.45763709  0.97519875  1
  O  O52  1  0.15559962  0.84507827  0.97203632  1
  O  O53  1  0.65289784  0.84599897  0.97215239  1
  O  O54  1  0.27254907  0.84652307  0.47318992  1
  O  O55  1  0.77182265  0.84297488  0.47098018  1
  O  O56  1  0.15527421  0.46448153  0.47192206  1
  O  O57  1  0.65506880  0.46445899  0.47158923  1
  O  O58  1  0.07907216  0.70884677  0.47577470  1
  O  O59  1  0.58261620  0.70852703  0.47236148  1
  O  O60  1  0.06360099  0.63844574  0.35570224  1
  O  O61  1  0.56185788  0.63765341  0.35352548  1
  O  O62  1  0.25830772  0.87662291  0.36291971  1
  O  O63  1  0.75941305  0.87938372  0.36133859  1
  O  O64  1  0.18393590  0.48374599  0.36094757  1
  O  O65  1  0.68356575  0.48240858  0.36053550  1
  O  O66  1  0.06465575  0.49020320  0.85536162  1
  O  O67  1  0.56456695  0.49446297  0.85406985  1
  O  O68  1  0.18365437  0.88339993  0.86097890  1
  O  O69  1  0.68312402  0.88173129  0.86173062  1
  O  O70  1  0.25753828  0.64004424  0.86242211  1
  O  O71  1  0.75887464  0.63758665  0.86215346  1
  O  O72  1  0.01452593  0.85215621  0.41047628  1
  O  O73  1  0.51438742  0.85169846  0.41027615  1
  O  O74  1  0.40173721  0.97754061  0.41364807  1
  O  O75  1  0.90220124  0.97822396  0.41301494  1
  O  O76  1  0.08750469  0.20160101  0.41375930  1
  O  O77  1  0.58748597  0.20054604  0.41338183  1
  O  O78  1  0.01451688  0.17740942  0.91021978  1
  O  O79  1  0.51549194  0.18398981  0.91196462  1
  O  O80  1  0.08768229  0.97392824  0.91360343  1
  O  O81  1  0.58491752  0.97080190  0.91140645  1
  O  O82  1  0.40410491  0.82480633  0.90973154  1
  O  O83  1  0.90216024  0.82571055  0.91307787  1
  O  O84  1  0.48598517  0.17377398  0.58855578  1
  O  O85  1  0.98894621  0.17300432  0.58978652  1
  O  O86  1  0.08640643  0.02069425  0.58685160  1
  O  O87  1  0.58817365  0.02413672  0.59026639  1
  O  O88  1  0.41015664  0.80135106  0.58726066  1
  O  O89  1  0.91087299  0.80136018  0.58586661  1
  O  O90  1  0.48786157  0.80360627  0.08904693  1
  O  O91  1  0.98788659  0.80387884  0.08925615  1
  O  O92  1  0.41087926  0.02078486  0.08593496  1
  O  O93  1  0.91065506  0.02036034  0.08598722  1
  O  O94  1  0.08777922  0.15377383  0.08723805  1
  O  O95  1  0.58768694  0.15339808  0.08705761  1
  O  O96  1  0.34543175  0.17736301  0.74340999  1
  O  O97  1  0.84424996  0.17348369  0.74535292  1
  O  O98  1  0.23810148  0.31293279  0.74236959  1
  O  O99  1  0.73543140  0.31620244  0.74457646  1
  O  O100  1  0.41911355  0.53175573  0.74490267  1
  O  O101  1  0.90857408  0.51406250  0.74161024  1
  O  O102  1  0.34049471  0.51205172  0.24482244  1
  O  O103  1  0.84051637  0.51185986  0.24468364  1
  O  O104  1  0.40874237  0.30418742  0.24166696  1
  O  O105  1  0.90873354  0.30398441  0.24167212  1
  O  O106  1  0.23553019  0.15748252  0.24357684  1
  O  O107  1  0.73556856  0.15786697  0.24331034  1
  O  O108  1  0.31937158  0.50762376  0.92120306  1
  O  O109  1  0.81896458  0.50647712  0.92212067  1
  O  O110  1  0.42020382  0.35619553  0.92423390  1
  O  O111  1  0.91969632  0.35305829  0.92488658  1
  O  O112  1  0.24579989  0.13605813  0.92090832  1
  O  O113  1  0.74332243  0.13521983  0.92071978  1
  O  O114  1  0.31863367  0.13112751  0.42172241  1
  O  O115  1  0.81882955  0.13106114  0.42133328  1
  O  O116  1  0.24562843  0.35481663  0.42129091  1
  O  O117  1  0.74577525  0.35480196  0.42076560  1
  O  O118  1  0.42011077  0.48667523  0.42419258  1
  O  O119  1  0.91960946  0.48564052  0.42550330  1
  O  O120  1  0.17614076  0.50564276  0.07899237  1
  O  O121  1  0.67568096  0.50454366  0.07915774  1
  O  O122  1  0.07020363  0.64894302  0.07605501  1
  O  O123  1  0.57020794  0.64867890  0.07604730  1
  O  O124  1  0.24982313  0.86381129  0.07564649  1
  O  O125  1  0.74951908  0.86316882  0.07564879  1
  O  O126  1  0.17878594  0.84749510  0.57755172  1
  O  O127  1  0.67959856  0.85072914  0.57981065  1
  O  O128  1  0.25198779  0.63841096  0.57821177  1
  O  O129  1  0.74966406  0.63568964  0.57531368  1
  O  O130  1  0.07065513  0.49219013  0.57623994  1
  O  O131  1  0.57083323  0.49147284  0.57632782  1
  O  O132  1  0.15705534  0.84409539  0.25578731  1
  O  O133  1  0.65714941  0.84440481  0.25535935  1
  O  O134  1  0.25680633  0.69677007  0.25875276  1
  O  O135  1  0.75685186  0.69656490  0.25862488  1
  O  O136  1  0.08493312  0.48651400  0.25414999  1
  O  O137  1  0.58522220  0.48630788  0.25421588  1
  O  O138  1  0.15714859  0.46997898  0.75523552  1
  O  O139  1  0.65282651  0.46476110  0.75547138  1
  O  O140  1  0.08486775  0.68220366  0.75439849  1
  O  O141  1  0.57744890  0.68569693  0.75434047  1
  O  O142  1  0.25618682  0.82546547  0.75741694  1
  O  O143  1  0.75413204  0.81045279  0.75847986  1
loop_
_geom_bond_atom_site_label_1
_geom_bond_atom_site_label_2
_geom_bond_distance
_geom_bond_site_symmetry_2
Na0 O134 2.320834 1_545
Na0 O104 2.323305 1_555
Na0 O132 2.502967 1_545
Na0 O106 2.517204 1_555
Na0 O32 2.633232 1_555
Na0 O62 2.713360 1_545
Na0 O18 2.715846 1_545
Na0 O4 2.767140 1_555
Na1 O135 2.318594 1_555
Na1 O105 2.326654 1_565
Na1 O133 2.492132 1_555
Na1 O107 2.515147 1_565
Na1 O33 2.641610 1_565
Na1 O63 2.658897 1_555
Na1 O19 2.726013 1_555
Na1 O5 2.780859 1_565
Na2 O102 2.389033 1_555
Na2 O136 2.390834 1_555
Na2 O106 2.475353 1_555
Na2 O34 2.494533 1_555
Na2 O134 2.499234 1_555
Na2 O64 2.747224 1_555
Na2 O20 2.752059 1_555
Na2 O0 2.871247 1_555
Na3 O137 2.382396 1_555
Na3 O103 2.387288 1_555
Na3 O107 2.475459 1_555
Na3 O135 2.491327 1_555
Na3 O35 2.511661 1_555
Na3 O65 2.720604 1_555
Na3 O21 2.763534 1_555
Na3 O1 2.862773 1_555
Na4 O103 2.409986 1_555
Na4 O136 2.419503 1_655
Na4 O132 2.476705 1_655
Na4 O105 2.495264 1_555
Na4 O60 2.513397 1_655
Na4 O3 2.614039 1_555
Na4 O31 2.767291 1_555
Na4 O22 2.843569 1_655
Na5 O137 2.417977 1_555
Na5 O102 2.419477 1_555
Na5 O61 2.445610 1_555
Na5 O133 2.471100 1_555
Na5 O104 2.495920 1_555
Na5 O2 2.632728 1_555
Na5 O30 2.779904 1_555
Na5 O23 2.850260 1_555
Na6 O101 2.303767 1_555
Na6 O143 2.316349 1_555
Na6 O99 2.491275 1_555
Na6 O139 2.564932 1_555
Na6 O29 2.607057 1_555
Na6 O13 2.669519 1_555
Na6 O71 2.717808 1_555
Na6 O9 2.797228 1_555
Na7 O97 2.351239 1_555
Na7 O140 2.418177 1_655
Na7 O138 2.478114 1_655
Na7 O101 2.493856 1_555
Na7 O66 2.518802 1_655
Na7 O11 2.665980 1_555
Na7 O25 2.768559 1_555
Na7 O14 2.885598 1_655
Na8 O96 2.348392 1_555
Na8 O139 2.385642 1_555
Na8 O141 2.472907 1_555
Na8 O100 2.509798 1_555
Na8 O67 2.517491 1_555
Na8 O10 2.600758 1_555
Na8 O24 2.739092 1_555
Na8 O15 2.802701 1_555
Na9 O140 2.382954 1_555
Na9 O142 2.414152 1_555
Na9 O98 2.477122 1_565
Na9 O96 2.488781 1_565
Na9 O26 2.573254 1_565
Na9 O68 2.696131 1_555
Na9 O16 2.741534 1_555
Na9 O6 2.823121 1_565
Na10 O89 2.406456 1_455
Na10 O86 2.407442 1_565
Na10 O126 2.443137 1_555
Na10 O130 2.474816 1_555
Na10 O16 2.532744 1_555
Na10 O58 2.600423 1_555
Na10 O25 2.781053 1_455
Na10 O45 2.832582 1_455
Na11 O126 2.342503 1_555
Na11 O84 2.387436 1_565
Na11 O88 2.464966 1_555
Na11 O12 2.499470 1_555
Na11 O128 2.521819 1_555
Na11 O26 2.703390 1_565
Na11 O54 2.758664 1_555
Na11 O46 2.823070 1_565
Na12 O120 2.371441 1_555
Na12 O94 2.391103 1_555
Na12 O93 2.428226 1_455
Na12 O122 2.472217 1_555
Na12 O20 2.536166 1_555
Na12 O50 2.568122 1_554
Na12 O31 2.818860 1_455
Na12 O41 2.866953 1_455
Na13 O121 2.366631 1_555
Na13 O95 2.392139 1_555
Na13 O92 2.422314 1_555
Na13 O123 2.472410 1_555
Na13 O21 2.523533 1_555
Na13 O51 2.608668 1_554
Na13 O30 2.811906 1_555
Na13 O40 2.864222 1_555
Na14 O78 2.285849 1_555
Na14 O108 2.406836 1_555
Na14 O80 2.493744 1_545
Na14 O112 2.498100 1_555
Na14 O36 2.529853 1_556
Na14 O50 2.695646 1_555
Na14 O6 2.763488 1_555
Na14 O70 2.874436 1_555
Na15 O79 2.294191 1_555
Na15 O109 2.380492 1_555
Na15 O113 2.452803 1_555
Na15 O37 2.507593 1_556
Na15 O81 2.527950 1_545
Na15 O51 2.718147 1_555
Na15 O7 2.764536 1_555
Na15 O71 2.861515 1_555
Na16 O72 2.285618 1_545
Na16 O114 2.393236 1_555
Na16 O76 2.490366 1_555
Na16 O116 2.497225 1_555
Na16 O42 2.540380 1_555
Na16 O58 2.678479 1_545
Na16 O0 2.758376 1_555
Na16 O62 2.876108 1_545
Na17 O73 2.296561 1_545
Na17 O115 2.389308 1_555
Na17 O43 2.472232 1_555
Na17 O77 2.495242 1_555
Na17 O117 2.501571 1_555
Na17 O59 2.633054 1_545
Na17 O1 2.794665 1_555
Na17 O63 2.892745 1_545
Na18 O86 2.444031 1_655
Na18 O72 2.467348 1_645
Na18 O89 2.473261 1_545
Na18 O76 2.505655 1_655
Na18 O75 2.517770 1_545
Na18 O85 2.546972 1_555
Na19 O73 2.396131 1_555
Na19 O87 2.415270 1_565
Na19 O77 2.491889 1_565
Na19 O88 2.526043 1_555
Na19 O74 2.626924 1_555
Na19 O84 2.636624 1_565
Na20 O94 2.448235 1_566
Na20 O78 2.452719 1_565
Na20 O80 2.491703 1_555
Na20 O93 2.506014 1_466
Na20 O91 2.533197 1_456
Na20 O83 2.548532 1_455
Na21 O95 2.428641 1_565
Na21 O79 2.478564 1_564
Na21 O92 2.483306 1_565
Na21 O90 2.505489 1_555
Na21 O81 2.530188 1_554
Na21 O82 2.609495 1_554
Na22 O110 2.383711 1_555
Na22 O96 2.496487 1_555
Na22 O112 2.503666 1_555
Na22 O100 2.518333 1_555
Na22 O108 2.557080 1_555
Na22 O98 2.699977 1_555
Na23 O97 2.387121 1_555
Na23 O111 2.412329 1_555
Na23 O101 2.476775 1_555
Na23 O113 2.527529 1_555
Na23 O109 2.661414 1_555
Na23 O99 2.697665 1_555
Na24 O118 2.354076 1_555
Na24 O102 2.448012 1_555
Na24 O104 2.474565 1_555
Na24 O116 2.541487 1_555
Na24 O114 2.591496 1_555
Na24 O106 2.766540 1_555
Na25 O119 2.370611 1_555
Na25 O103 2.464104 1_555
Na25 O105 2.492513 1_555
Na25 O117 2.511562 1_555
Na25 O115 2.569569 1_555
Na25 O107 2.769209 1_555
Na26 O120 2.366179 1_555
Na26 O136 2.467673 1_555
Na26 O124 2.503903 1_555
Na26 O134 2.506749 1_555
Na26 O122 2.642014 1_555
Na26 O132 2.663473 1_555
Na27 O121 2.376129 1_555
Na27 O137 2.457895 1_555
Na27 O135 2.493792 1_555
Na27 O125 2.510614 1_555
Na27 O133 2.648755 1_555
Na27 O123 2.651877 1_555
Na28 O140 2.417352 1_555
Na28 O142 2.465494 1_555
Na28 O126 2.493525 1_555
Na28 O138 2.515931 1_555
Na28 O128 2.528398 1_555
Na28 O130 2.664650 1_555
Na29 O127 2.267138 1_555
Na29 O143 2.473285 1_555
Na29 O129 2.533077 1_555
Na29 O141 2.561263 1_555
Na29 O131 2.668629 1_555
Na29 O139 2.738389 1_555
Ga0 O3 1.822278 1_555
Ga0 O5 1.897907 1_565
Ga0 O72 1.936760 1_655
Ga0 O75 2.001866 1_555
Ga0 O0 2.139278 1_665
Ga0 O76 2.371514 1_665
Ga1 O2 1.830794 1_555
Ga1 O4 1.900476 1_565
Ga1 O73 1.929139 1_555
Ga1 O74 2.035058 1_555
Ga1 O1 2.118591 1_565
Ga1 O77 2.342836 1_565
Ga2 O11 1.817646 1_565
Ga2 O9 1.902436 1_555
Ga2 O78 1.953831 1_665
Ga2 O83 2.034782 1_555
Ga2 O6 2.149770 1_665
Ga2 O80 2.355184 1_655
Ga3 O10 1.805654 1_555
Ga3 O79 1.889163 1_555
Ga3 O82 1.992703 1_545
Ga3 O7 2.051596 1_555
Ga3 O8 2.166507 1_545
Ga3 O81 2.267943 1_545
Ga4 O16 1.860489 1_655
Ga4 O13 1.869946 1_555
Ga4 O86 1.968030 1_665
Ga4 O14 2.125795 1_665
Ga4 O89 2.166982 1_555
Ga4 O85 2.173400 1_565
Ga5 O87 1.846215 1_565
Ga5 O12 1.884142 1_555
Ga5 O17 1.956571 1_555
Ga5 O15 2.048682 1_565
Ga5 O88 2.188795 1_555
Ga5 O84 2.194158 1_565
Ga6 O20 1.865176 1_555
Ga6 O19 1.873857 1_445
Ga6 O94 1.931010 1_555
Ga6 O22 2.088905 1_545
Ga6 O93 2.176775 1_455
Ga6 O91 2.195357 1_445
Ga7 O21 1.862133 1_555
Ga7 O18 1.875310 1_545
Ga7 O95 1.934132 1_555
Ga7 O23 2.079276 1_545
Ga7 O92 2.180528 1_555
Ga7 O90 2.203981 1_545
Ga8 O26 1.847970 1_555
Ga8 O96 1.921599 1_555
Ga8 O24 2.002629 1_555
Ga8 O98 2.049454 1_555
Ga8 O28 2.065196 1_555
Ga8 O100 2.260907 1_555
Ga9 O27 1.814422 1_555
Ga9 O97 1.861694 1_555
Ga9 O101 2.033955 1_555
Ga9 O25 2.057755 1_555
Ga9 O99 2.088136 1_555
Ga9 O29 2.220720 1_555
Ga10 O34 1.859911 1_555
Ga10 O102 1.907359 1_555
Ga10 O104 1.987308 1_555
Ga10 O30 1.990043 1_555
Ga10 O106 2.115651 1_555
Ga10 O32 2.195920 1_555
Ga11 O35 1.858844 1_555
Ga11 O103 1.904128 1_555
Ga11 O105 1.989421 1_555
Ga11 O31 1.990694 1_555
Ga11 O107 2.108628 1_555
Ga11 O33 2.198718 1_555
Ga12 O36 1.846376 1_556
Ga12 O110 1.873148 1_555
Ga12 O40 1.966704 1_556
Ga12 O38 2.069804 1_556
Ga12 O112 2.159105 1_555
Ga12 O108 2.185754 1_555
Ga13 O37 1.851505 1_556
Ga13 O111 1.859795 1_555
Ga13 O41 1.967737 1_556
Ga13 O39 2.055212 1_556
Ga13 O109 2.171321 1_555
Ga13 O113 2.198300 1_555
Ga14 O118 1.849010 1_555
Ga14 O42 1.862725 1_555
Ga14 O44 1.956664 1_555
Ga14 O46 2.041608 1_555
Ga14 O116 2.149185 1_555
Ga14 O114 2.215769 1_555
Ga15 O43 1.851847 1_555
Ga15 O119 1.877285 1_555
Ga15 O45 1.972506 1_555
Ga15 O47 2.081420 1_555
Ga15 O117 2.139192 1_555
Ga15 O115 2.209835 1_555
Ga16 O50 1.859666 1_554
Ga16 O120 1.902420 1_555
Ga16 O48 1.976503 1_554
Ga16 O52 2.102018 1_554
Ga16 O122 2.111688 1_555
Ga16 O124 2.204619 1_555
Ga17 O51 1.855105 1_554
Ga17 O121 1.897125 1_555
Ga17 O49 1.948808 1_554
Ga17 O123 2.084131 1_555
Ga17 O53 2.133520 1_554
Ga17 O125 2.176421 1_555
Ga18 O58 1.837599 1_555
Ga18 O126 1.942463 1_555
Ga18 O54 1.990882 1_555
Ga18 O130 2.039737 1_555
Ga18 O56 2.064504 1_555
Ga18 O128 2.272213 1_555
Ga19 O59 1.817412 1_555
Ga19 O127 1.849885 1_555
Ga19 O55 1.979899 1_555
Ga19 O131 2.076258 1_555
Ga19 O57 2.217333 1_555
Ga19 O129 2.224042 1_555
Ga20 O60 1.853709 1_555
Ga20 O136 1.912079 1_555
Ga20 O134 1.946284 1_555
Ga20 O64 1.962228 1_555
Ga20 O132 2.192418 1_555
Ga20 O62 2.217170 1_555
Ga21 O61 1.853891 1_555
Ga21 O137 1.925922 1_555
Ga21 O65 1.946951 1_555
Ga21 O135 1.955804 1_555
Ga21 O63 2.208509 1_555
Ga21 O133 2.216183 1_555
Ga22 O66 1.865015 1_555
Ga22 O140 1.925585 1_555
Ga22 O142 1.937559 1_555
Ga22 O68 1.998372 1_555
Ga22 O70 2.149485 1_555
Ga22 O138 2.175520 1_555
Ga23 O67 1.860304 1_555
Ga23 O143 1.879720 1_555
Ga23 O69 1.919618 1_555
Ga23 O71 2.107570 1_555
Ga23 O141 2.122344 1_555
Ga23 O139 2.261463 1_555
O0 S0 1.492392 1_555
O1 S1 1.488612 1_555
O2 Si0 1.616172 1_555
O3 Si1 1.620717 1_555
O4 Si3 1.629454 1_555
O5 Si2 1.630217 1_555
O6 S2 1.489906 1_555
O7 S3 1.492433 1_555
O8 S4 1.478455 1_555
O9 Si4 1.631656 1_555
O10 Si5 1.621768 1_545
O11 Si6 1.626278 1_545
O12 Si5 1.640457 1_555
O13 Si6 1.640602 1_555
O14 S2 1.481728 1_555
O15 S3 1.470704 1_555
O16 Si4 1.640283 1_455
O17 S4 1.477693 1_555
O18 Si0 1.630341 1_555
O19 Si1 1.629700 1_555
O20 Si2 1.630143 1_455
O21 Si3 1.632465 1_555
O22 S0 1.466421 1_565
O23 S1 1.470540 1_565
O24 S5 1.508187 1_555
O25 S6 1.499501 1_555
O26 Si7 1.643017 1_555
O27 Si8 1.617301 1_555
O28 S7 1.487823 1_555
O29 S8 1.486383 1_555
O30 S9 1.511511 1_555
O31 S10 1.511577 1_555
O32 S11 1.491221 1_555
O33 S12 1.488810 1_555
O34 Si9 1.635628 1_555
O35 Si10 1.633315 1_555
O36 Si9 1.641573 1_555
O37 Si10 1.642513 1_555
O38 S9 1.469721 1_555
O39 S10 1.474363 1_555
O40 S11 1.490777 1_555
O41 S12 1.489306 1_555
O42 Si7 1.636665 1_555
O43 Si8 1.655845 1_555
O44 S7 1.478778 1_555
O45 S8 1.495964 1_555
O46 S5 1.482465 1_555
O47 S6 1.470374 1_555
O48 S13 1.488156 1_555
O49 S14 1.485611 1_555
O50 Si11 1.652907 1_555
O51 Si12 1.639899 1_555
O52 S15 1.477075 1_555
O53 S16 1.475008 1_555
O54 S17 1.499829 1_555
O55 S18 1.478071 1_555
O56 S19 1.477096 1_555
O57 S20 1.465377 1_555
O58 Si13 1.650524 1_555
O59 Si14 1.625279 1_555
O60 Si13 1.642806 1_555
O61 Si14 1.643849 1_555
O62 S17 1.491529 1_555
O63 S18 1.492116 1_555
O64 S19 1.498892 1_555
O65 S20 1.507285 1_555
O66 Si11 1.638341 1_555
O67 Si12 1.650118 1_555
O68 S15 1.498574 1_555
O69 S16 1.488375 1_555
O70 S13 1.479310 1_555
O71 S14 1.495392 1_555
O72 Si13 1.666029 1_555
O73 Si14 1.666452 1_555
O74 S17 1.466032 1_555
O75 S18 1.484921 1_555
O76 S19 1.478733 1_555
O77 S20 1.481339 1_555
O78 Si11 1.668960 1_555
O79 Si12 1.670223 1_555
O80 S15 1.480123 1_555
O81 S16 1.495174 1_555
O82 S13 1.488545 1_555
O83 S14 1.473497 1_555
O84 S5 1.480684 1_555
O85 S6 1.468950 1_555
O86 Si7 1.639187 1_555
O87 Si8 1.663436 1_555
O88 S7 1.486673 1_555
O89 S8 1.501398 1_555
O90 S9 1.463958 1_555
O91 S10 1.464052 1_555
O92 S11 1.492801 1_555
O93 S12 1.490803 1_555
O94 Si9 1.664443 1_555
O95 Si10 1.665341 1_555
O96 Si5 1.690085 1_545
O97 Si6 1.628686 1_545
O98 S2 1.496461 1_555
O99 S3 1.480703 1_555
O100 S4 1.497934 1_555
O101 Si4 1.652923 1_555
O102 Si0 1.647433 1_555
O103 Si1 1.646809 1_555
O104 Si3 1.659311 1_555
O105 Si2 1.656164 1_555
O106 S0 1.489688 1_555
O107 S1 1.491071 1_555
O108 S13 1.486707 1_555
O109 S14 1.482233 1_555
O110 Si12 1.635905 1_555
O111 Si11 1.643281 1_655
O112 S15 1.498342 1_545
O113 S16 1.488868 1_545
O114 S17 1.488662 1_545
O115 S18 1.486992 1_545
O116 S19 1.492233 1_555
O117 S20 1.499940 1_555
O118 Si14 1.644579 1_555
O119 Si13 1.634989 1_655
O120 Si9 1.673889 1_555
O121 Si10 1.673636 1_555
O122 S10 1.495603 1_455
O123 S9 1.500183 1_555
O124 S11 1.473463 1_565
O125 S12 1.478056 1_565
O126 Si7 1.690071 1_565
O127 Si8 1.652105 1_565
O128 S7 1.494835 1_555
O129 S8 1.466464 1_555
O130 S6 1.512709 1_455
O131 S5 1.472148 1_555
O132 S0 1.485363 1_565
O133 S1 1.482436 1_565
O134 Si0 1.658912 1_555
O135 Si1 1.653939 1_555
O136 Si2 1.649118 1_455
O137 Si3 1.646063 1_555
O138 S2 1.477868 1_555
O139 S3 1.494701 1_555
O140 Si4 1.648288 1_455
O141 S4 1.499085 1_555
O142 Si5 1.632891 1_555
O143 Si6 1.665279 1_555
