# generated using pymatgen
data_LiMoP2O7
_symmetry_space_group_name_H-M   'P 1'
_cell_length_a   5.40712612
_cell_length_b   5.40712612
_cell_length_c   4.59639132
_cell_angle_alpha   81.89050815
_cell_angle_beta   81.89050815
_cell_angle_gamma   103.24838065
_symmetry_Int_Tables_number   1
_chemical_formula_structural   LiMoP2O7
_chemical_formula_sum   'Li1 Mo1 P2 O7'
_cell_volume   127.38655091
_cell_formula_units_Z   1
loop_
 _symmetry_equiv_pos_site_id
 _symmetry_equiv_pos_as_xyz
  1  'x, y, z'
loop_
 _atom_site_type_symbol
 _atom_site_label
 _atom_site_symmetry_multiplicity
 _atom_site_fract_x
 _atom_site_fract_y
 _atom_site_fract_z
 _atom_site_occupancy
  Li  Li0  1  0.74929600  0.25070400  0.00000000  1
  Mo  Mo0  1  0.12329100  0.87670900  0.00000000  1
  P  P0  1  0.25434500  0.33432600  0.41176600  1
  P  P1  1  0.66567400  0.74565500  0.58823400  1
  O  O0  1  0.07615900  0.19377500  0.71001100  1
  O  O1  1  0.80622500  0.92384100  0.28998900  1
  O  O2  1  0.84257200  0.64845000  0.78906100  1
  O  O3  1  0.47648600  0.87254800  0.74559300  1
  O  O4  1  0.52180000  0.47820000  0.50000000  1
  O  O5  1  0.12745200  0.52351400  0.25440700  1
  O  O6  1  0.35155000  0.15742800  0.21093900  1
loop_
_geom_bond_atom_site_label_1
_geom_bond_atom_site_label_2
_geom_bond_distance
_geom_bond_site_symmetry_2
Li0 O6 2.143908 1_555
Li0 O2 2.143908 1_554
Li0 O0 2.166918 1_654
Li0 O1 2.166918 1_545
Mo0 O3 2.100519 1_554
Mo0 O5 2.100519 1_555
Mo0 O1 2.105275 1_455
Mo0 O0 2.105275 1_564
Mo0 O6 2.159044 1_565
Mo0 O2 2.159044 1_454
O0 P0 1.543668 1_555
O1 P1 1.543668 1_555
O2 P1 1.544633 1_555
O3 P1 1.514375 1_555
O4 P1 1.612418 1_555
O4 P0 1.612418 1_555
O5 P0 1.514375 1_555
O6 P0 1.544633 1_555
