# generated using pymatgen
data_KSb4F13
_symmetry_space_group_name_H-M   'P 1'
_cell_length_a   6.33830589
_cell_length_b   7.37805425
_cell_length_c   7.37805425
_cell_angle_alpha   79.36786476
_cell_angle_beta   64.56176858
_cell_angle_gamma   64.56177291
_symmetry_Int_Tables_number   1
_chemical_formula_structural   KSb4F13
_chemical_formula_sum   'K1 Sb4 F13'
_cell_volume   281.37105191
_cell_formula_units_Z   1
loop_
 _symmetry_equiv_pos_site_id
 _symmetry_equiv_pos_as_xyz
  1  'x, y, z'
loop_
 _atom_site_type_symbol
 _atom_site_label
 _atom_site_symmetry_multiplicity
 _atom_site_fract_x
 _atom_site_fract_y
 _atom_site_fract_z
 _atom_site_occupancy
  K  K0  1  0.50000000  -0.00000000  -0.00000000  1
  Sb  Sb0  1  0.70383721  0.32306066  0.27339041  1
  Sb  Sb1  1  0.02277138  0.27339041  0.67693934  1
  Sb  Sb2  1  0.97310313  0.72660959  0.32306066  1
  Sb  Sb3  1  0.30028828  0.67693934  0.72660959  1
  F  F0  1  0.67199995  0.33064476  0.86876585  1
  F  F1  1  0.45923520  0.86876585  0.66935524  1
  F  F2  1  0.99735529  0.13123415  0.33064476  1
  F  F3  1  0.87141255  0.66935524  0.13123415  1
  F  F4  1  0.23710277  0.77701581  0.07321041  1
  F  F5  1  0.75000000  0.50000000  0.50000000  1
  F  F6  1  0.23335230  0.44680188  0.28301982  1
  F  F7  1  0.48362888  0.28301982  0.55319812  1
  F  F8  1  0.31984582  0.71698018  0.44680188  1
  F  F9  1  0.96317301  0.55319812  0.71698018  1
  F  F10  1  0.08732999  0.22298419  0.92678959  1
  F  F11  1  0.98588142  0.92678959  0.77701581  1
  F  F12  1  0.68968682  0.07321041  0.22298419  1
loop_
_geom_bond_atom_site_label_1
_geom_bond_atom_site_label_2
_geom_bond_distance
_geom_bond_site_symmetry_2
F0 Sb1 1.958358 1_655
F0 K0 2.929771 1_556
F1 Sb3 1.958367 1_555
F1 K0 2.929767 1_566
F2 Sb0 1.958363 1_555
F2 K0 2.929771 1_655
F3 Sb2 1.958358 1_555
F3 K0 2.929779 1_565
F4 Sb2 1.992025 1_455
F4 Sb3 2.609205 1_554
F4 K0 2.651224 1_565
F5 Sb1 2.477707 1_655
F5 Sb3 2.477710 1_555
F5 Sb0 2.477710 1_555
F5 Sb2 2.477715 1_555
F6 Sb2 1.987736 1_455
F7 Sb0 1.987736 1_555
F8 Sb3 1.987738 1_555
F9 Sb1 1.987738 1_655
F10 Sb1 1.992035 1_555
F10 Sb0 2.609208 1_456
F10 K0 2.651219 1_556
F11 Sb3 1.992028 1_655
F11 Sb1 2.609203 1_665
F11 K0 2.651224 1_566
F12 Sb0 1.992028 1_555
F12 Sb2 2.609208 1_545
F12 K0 2.651224 1_555
