# generated using pymatgen
data_Li2Fe3(P2O7)2
_symmetry_space_group_name_H-M   'P 1'
_cell_length_a   7.93307900
_cell_length_b   7.40709200
_cell_length_c   9.68414201
_cell_angle_alpha   69.78729521
_cell_angle_beta   90.00000000
_cell_angle_gamma   90.00000000
_symmetry_Int_Tables_number   1
_chemical_formula_structural   Li2Fe3(P2O7)2
_chemical_formula_sum   'Li4 Fe6 P8 O28'
_cell_volume   534.00616584
_cell_formula_units_Z   2
loop_
 _symmetry_equiv_pos_site_id
 _symmetry_equiv_pos_as_xyz
  1  'x, y, z'
loop_
 _atom_site_type_symbol
 _atom_site_label
 _atom_site_symmetry_multiplicity
 _atom_site_fract_x
 _atom_site_fract_y
 _atom_site_fract_z
 _atom_site_occupancy
  Li  Li0  1  0.91798000  0.29562100  0.63909000  1
  Li  Li1  1  0.08202000  0.70437900  0.36091000  1
  Li  Li2  1  0.58202000  0.29562100  0.13909000  1
  Li  Li3  1  0.41798000  0.70437900  0.86091000  1
  Fe  Fe0  1  0.87690900  0.19332200  0.97837100  1
  Fe  Fe1  1  0.12309100  0.80667800  0.02162900  1
  Fe  Fe2  1  0.62309100  0.19332200  0.47837100  1
  Fe  Fe3  1  0.37690900  0.80667800  0.52162900  1
  Fe  Fe4  1  0.00000000  0.00000000  0.50000000  1
  Fe  Fe5  1  0.50000000  0.00000000  0.00000000  1
  P  P0  1  0.44985900  0.59692600  0.28219500  1
  P  P1  1  0.20591400  0.11926400  0.19407300  1
  P  P2  1  0.55014100  0.40307400  0.71780500  1
  P  P3  1  0.29408600  0.11926400  0.69407300  1
  P  P4  1  0.79408600  0.88073600  0.80592700  1
  P  P5  1  0.94985900  0.40307400  0.21780500  1
  P  P6  1  0.05014100  0.59692600  0.78219500  1
  P  P7  1  0.70591400  0.88073600  0.30592700  1
  O  O0  1  0.79019200  0.00826700  0.64104800  1
  O  O1  1  0.49536200  0.38840100  0.29975500  1
  O  O2  1  0.87683300  0.84319300  0.38141500  1
  O  O3  1  0.99536200  0.61159900  0.20024500  1
  O  O4  1  0.37683300  0.15680700  0.11858500  1
  O  O5  1  0.39158900  0.71740600  0.12481600  1
  O  O6  1  0.60841100  0.28259400  0.87518400  1
  O  O7  1  0.12316700  0.15680700  0.61858500  1
  O  O8  1  0.86624100  0.67795400  0.80891800  1
  O  O9  1  0.13375900  0.32204600  0.19108200  1
  O  O10  1  0.89158900  0.28259400  0.37518400  1
  O  O11  1  0.58145200  0.96443200  0.39003500  1
  O  O12  1  0.20980800  0.99173300  0.35895200  1
  O  O13  1  0.29019200  0.99173300  0.85895200  1
  O  O14  1  0.50463800  0.61159900  0.70024500  1
  O  O15  1  0.67153000  0.38170300  0.60195800  1
  O  O16  1  0.82847000  0.38170300  0.10195800  1
  O  O17  1  0.41854800  0.03556800  0.60996500  1
  O  O18  1  0.70980800  0.00826700  0.14104800  1
  O  O19  1  0.36624100  0.32204600  0.69108200  1
  O  O20  1  0.63375900  0.67795400  0.30891800  1
  O  O21  1  0.91854800  0.96443200  0.89003500  1
  O  O22  1  0.62316700  0.84319300  0.88141500  1
  O  O23  1  0.08145200  0.03556800  0.10996500  1
  O  O24  1  0.00463800  0.38840100  0.79975500  1
  O  O25  1  0.17153000  0.61829700  0.89804200  1
  O  O26  1  0.32847000  0.61829700  0.39804200  1
  O  O27  1  0.10841100  0.71740600  0.62481600  1
loop_
_geom_bond_atom_site_label_1
_geom_bond_atom_site_label_2
_geom_bond_distance
_geom_bond_site_symmetry_2
Li0 O7 1.971636 1_655
Li0 O24 2.025981 1_655
Li0 O15 2.049358 1_555
Li0 O0 2.351701 1_555
Li0 O10 2.599071 1_555
Li1 O2 1.971636 1_455
Li1 O3 2.025981 1_455
Li1 O26 2.049358 1_555
Li1 O12 2.351701 1_555
Li1 O27 2.599071 1_555
Li2 O4 1.971636 1_555
Li2 O1 2.025981 1_555
Li2 O16 2.049358 1_555
Li2 O18 2.351701 1_555
Li2 O6 2.599071 1_554
Li3 O22 1.971636 1_555
Li3 O14 2.025981 1_555
Li3 O25 2.049358 1_555
Li3 O13 2.351701 1_555
Li3 O5 2.599071 1_556
Fe0 O24 2.092739 1_655
Fe0 O23 2.143232 1_656
Fe0 O18 2.150771 1_556
Fe0 O16 2.163583 1_556
Fe0 O21 2.171992 1_545
Fe0 O6 2.348653 1_555
Fe1 O3 2.092739 1_455
Fe1 O21 2.143232 1_454
Fe1 O13 2.150771 1_554
Fe1 O25 2.163583 1_554
Fe1 O23 2.171992 1_565
Fe1 O5 2.348653 1_555
Fe2 O1 2.092739 1_555
Fe2 O17 2.143232 1_555
Fe2 O0 2.150771 1_555
Fe2 O15 2.163583 1_555
Fe2 O11 2.171992 1_545
Fe2 O10 2.348653 1_555
Fe3 O14 2.092739 1_555
Fe3 O11 2.143232 1_555
Fe3 O12 2.150771 1_555
Fe3 O26 2.163583 1_555
Fe3 O17 2.171992 1_565
Fe3 O27 2.348653 1_555
Fe4 O7 2.131728 1_555
Fe4 O2 2.131728 1_445
Fe4 O0 2.167398 1_455
Fe4 O12 2.167398 1_545
Fe4 O27 2.198599 1_545
Fe4 O10 2.198599 1_455
Fe5 O4 2.131728 1_555
Fe5 O22 2.131728 1_544
Fe5 O18 2.167398 1_555
Fe5 O13 2.167398 1_544
Fe5 O6 2.198599 1_554
Fe5 O5 2.198599 1_545
O0 P4 1.549360 1_545
O1 P0 1.537336 1_555
O2 P7 1.519793 1_555
O3 P5 1.537336 1_555
O4 P1 1.519793 1_555
O5 P0 1.546949 1_555
O6 P2 1.546949 1_555
O7 P3 1.519793 1_555
O8 P4 1.598283 1_555
O8 P6 1.631836 1_655
O9 P1 1.598283 1_555
O9 P5 1.631836 1_455
O10 P5 1.546949 1_555
O11 P7 1.539995 1_555
O12 P1 1.549360 1_565
O13 P3 1.549360 1_565
O14 P2 1.537336 1_555
O15 P2 1.527656 1_555
O16 P5 1.527656 1_555
O17 P3 1.539995 1_555
O18 P7 1.549360 1_545
O19 P3 1.598283 1_555
O19 P2 1.631836 1_555
O20 P7 1.598283 1_555
O20 P0 1.631836 1_555
O21 P4 1.539995 1_555
O22 P4 1.519793 1_555
O23 P1 1.539995 1_555
O24 P6 1.537336 1_555
O25 P6 1.527656 1_555
O26 P0 1.527656 1_555
O27 P6 1.546949 1_555
