# generated using pymatgen
data_Eu6MgWO12
_symmetry_space_group_name_H-M   'P 1'
_cell_length_a   6.71206700
_cell_length_b   6.71213368
_cell_length_c   6.71066667
_cell_angle_alpha   95.56233219
_cell_angle_beta   95.54128773
_cell_angle_gamma   95.55727785
_symmetry_Int_Tables_number   1
_chemical_formula_structural   Eu6MgWO12
_chemical_formula_sum   'Eu6 Mg1 W1 O12'
_cell_volume   297.77514669
_cell_formula_units_Z   1
loop_
 _symmetry_equiv_pos_site_id
 _symmetry_equiv_pos_as_xyz
  1  'x, y, z'
loop_
 _atom_site_type_symbol
 _atom_site_label
 _atom_site_symmetry_multiplicity
 _atom_site_fract_x
 _atom_site_fract_y
 _atom_site_fract_z
 _atom_site_occupancy
  Eu  Eu0  1  0.41277800  0.90194000  0.71783100  1
  Eu  Eu1  1  0.28212100  0.58722000  0.09806600  1
  Eu  Eu2  1  0.09810100  0.28213900  0.58720100  1
  Eu  Eu3  1  0.90187500  0.71785600  0.41274400  1
  Eu  Eu4  1  0.71786000  0.41276700  0.90195700  1
  Eu  Eu5  1  0.58728200  0.09806800  0.28216300  1
  Mg  Mg0  1  0.49995400  0.50002600  0.49999000  1
  W  W0  1  0.99998100  0.99999000  0.99998900  1
  O  O0  1  0.04159100  0.93684500  0.71471300  1
  O  O1  1  0.28528700  0.95832400  0.06314600  1
  O  O2  1  0.19835900  0.55959600  0.42110200  1
  O  O3  1  0.57888200  0.80164700  0.44053500  1
  O  O4  1  0.06317000  0.28523600  0.95839500  1
  O  O5  1  0.44045500  0.57890400  0.80159100  1
  O  O6  1  0.55960000  0.42115900  0.19838000  1
  O  O7  1  0.93680100  0.71472400  0.04157100  1
  O  O8  1  0.42111700  0.19837900  0.55959600  1
  O  O9  1  0.80163300  0.44042100  0.57891500  1
  O  O10  1  0.71473900  0.04165400  0.93684600  1
  O  O11  1  0.95841500  0.06310700  0.28526900  1
loop_
_geom_bond_atom_site_label_1
_geom_bond_atom_site_label_2
_geom_bond_distance
_geom_bond_site_symmetry_2
Eu0 O5 2.312124 1_555
Eu0 O3 2.337113 1_555
Eu0 O8 2.342912 1_565
Eu0 O10 2.436554 1_565
Eu0 O0 2.523192 1_555
Eu0 O1 2.553630 1_556
Eu1 O2 2.311465 1_555
Eu1 O6 2.338738 1_555
Eu1 O5 2.342892 1_554
Eu1 O4 2.436300 1_554
Eu1 O1 2.522660 1_555
Eu1 O7 2.554565 1_455
Eu2 O8 2.311825 1_555
Eu2 O2 2.338390 1_555
Eu2 O9 2.343311 1_455
Eu2 O11 2.436082 1_455
Eu2 O4 2.522693 1_555
Eu2 O0 2.554309 1_545
Eu3 O3 2.311927 1_555
Eu3 O9 2.338523 1_555
Eu3 O2 2.343320 1_655
Eu3 O0 2.436174 1_655
Eu3 O7 2.522528 1_555
Eu3 O11 2.553952 1_565
Eu4 O9 2.311558 1_555
Eu4 O5 2.338719 1_555
Eu4 O6 2.342307 1_556
Eu4 O7 2.436040 1_556
Eu4 O10 2.522704 1_555
Eu4 O4 2.554546 1_655
Eu5 O6 2.312537 1_555
Eu5 O8 2.338131 1_555
Eu5 O3 2.343293 1_545
Eu5 O1 2.436778 1_545
Eu5 O11 2.522909 1_555
Eu5 O10 2.553562 1_554
Mg0 O5 2.127315 1_555
Mg0 O6 2.127659 1_555
Mg0 O3 2.127958 1_555
Mg0 O2 2.128112 1_555
Mg0 O8 2.128324 1_555
Mg0 O9 2.128760 1_555
O0 W0 1.972671 1_455
O1 W0 1.973576 1_454
O4 W0 1.972995 1_445
O7 W0 1.973096 1_554
O10 W0 1.973146 1_545
O11 W0 1.972596 1_544
