# generated using pymatgen
data_Ba3Te4O11
_symmetry_space_group_name_H-M   'P 1'
_cell_length_a   7.98571980
_cell_length_b   9.48828108
_cell_length_c   10.07840018
_cell_angle_alpha   97.68380037
_cell_angle_beta   111.08245668
_cell_angle_gamma   103.29171518
_symmetry_Int_Tables_number   1
_chemical_formula_structural   Ba3Te4O11
_chemical_formula_sum   'Ba6 Te8 O22'
_cell_volume   673.46533381
_cell_formula_units_Z   2
loop_
 _symmetry_equiv_pos_site_id
 _symmetry_equiv_pos_as_xyz
  1  'x, y, z'
loop_
 _atom_site_type_symbol
 _atom_site_label
 _atom_site_symmetry_multiplicity
 _atom_site_fract_x
 _atom_site_fract_y
 _atom_site_fract_z
 _atom_site_occupancy
  Ba  Ba0  1  0.30935720  0.01215120  0.11227713  1
  Ba  Ba1  1  0.69064280  0.98784880  0.88772287  1
  Ba  Ba2  1  0.14465653  0.40608703  0.17760314  1
  Ba  Ba3  1  0.85534347  0.59391297  0.82239686  1
  Ba  Ba4  1  0.71867556  0.45601989  0.37111597  1
  Ba  Ba5  1  0.28132444  0.54398011  0.62888403  1
  Te  Te0  1  0.43322278  0.19143754  0.53774419  1
  Te  Te1  1  0.56677722  0.80856246  0.46225581  1
  Te  Te2  1  0.94472030  0.23903557  0.71573437  1
  Te  Te3  1  0.05527970  0.76096443  0.28426563  1
  Te  Te4  1  0.46870597  0.30872582  0.93983518  1
  Te  Te5  1  0.53129403  0.69127418  0.06016482  1
  Te  Te6  1  0.07838181  0.88196251  0.70138850  1
  Te  Te7  1  0.92161819  0.11803749  0.29861150  1
  O  O0  1  0.85443849  0.72443496  0.58385796  1
  O  O1  1  0.14556151  0.27556504  0.41614204  1
  O  O2  1  0.20878737  0.76409421  0.80449521  1
  O  O3  1  0.79121263  0.23590579  0.19550479  1
  O  O4  1  0.99517027  0.94496564  0.84409530  1
  O  O5  1  0.00482973  0.05503436  0.15590470  1
  O  O6  1  0.59719288  0.68550496  0.90066866  1
  O  O7  1  0.40280712  0.31449504  0.09933134  1
  O  O8  1  0.59814544  0.89751751  0.12510199  1
  O  O9  1  0.40185456  0.10248249  0.87489801  1
  O  O10  1  0.74208022  0.64815488  0.18833437  1
  O  O11  1  0.25791978  0.35184512  0.81166563  1
  O  O12  1  0.06937826  0.60007483  0.37004710  1
  O  O13  1  0.93062174  0.39992517  0.62995290  1
  O  O14  1  0.47440934  0.21078928  0.37161382  1
  O  O15  1  0.52559066  0.78921072  0.62838618  1
  O  O16  1  0.53328750  0.38934881  0.64328795  1
  O  O17  1  0.46671250  0.61065119  0.35671205  1
  O  O18  1  0.66209874  0.13307903  0.63590176  1
  O  O19  1  0.33790126  0.86692097  0.36409824  1
  O  O20  1  0.93577597  0.31775850  0.89115458  1
  O  O21  1  0.06422403  0.68224150  0.10884542  1
loop_
_geom_bond_atom_site_label_1
_geom_bond_atom_site_label_2
_geom_bond_distance
_geom_bond_site_symmetry_2
Ba0 O14 2.680098 1_555
Ba0 O5 2.729341 1_555
Ba0 O8 2.737657 1_545
Ba0 O4 2.816369 1_444
Ba0 O7 2.826527 1_555
Ba0 O9 2.921021 1_554
Ba0 O19 3.009229 1_545
Ba0 O21 3.276673 1_545
Ba0 O2 3.345583 1_544
Ba1 O15 2.680098 1_555
Ba1 O4 2.729341 1_555
Ba1 O9 2.737657 1_565
Ba1 O5 2.816369 1_666
Ba1 O6 2.826527 1_555
Ba1 O8 2.921021 1_556
Ba1 O18 3.009229 1_565
Ba1 O20 3.276673 1_565
Ba1 O3 3.345583 1_566
Ba2 O20 2.658005 1_454
Ba2 O17 2.658576 1_555
Ba2 O7 2.727236 1_555
Ba2 O12 2.811397 1_555
Ba2 O1 2.846259 1_555
Ba2 O21 2.949168 1_555
Ba2 O3 2.992496 1_455
Ba2 O5 3.210730 1_555
Ba3 O21 2.658005 1_656
Ba3 O16 2.658576 1_555
Ba3 O6 2.727236 1_555
Ba3 O13 2.811397 1_555
Ba3 O0 2.846259 1_555
Ba3 O20 2.949168 1_555
Ba3 O2 2.992496 1_655
Ba3 O4 3.210730 1_555
Ba4 O14 2.672499 1_555
Ba4 O17 2.725168 1_555
Ba4 O13 2.749939 1_555
Ba4 O10 2.782256 1_555
Ba4 O0 2.802956 1_555
Ba4 O12 2.824404 1_655
Ba4 O3 2.852237 1_555
Ba4 O7 2.856048 1_555
Ba5 O15 2.672499 1_555
Ba5 O16 2.725168 1_555
Ba5 O12 2.749939 1_555
Ba5 O11 2.782256 1_555
Ba5 O1 2.802956 1_555
Ba5 O13 2.824404 1_455
Ba5 O2 2.852237 1_555
Ba5 O6 2.856048 1_555
O0 Te6 1.899684 1_655
O0 Te1 2.548636 1_555
O1 Te7 1.899684 1_455
O1 Te0 2.548636 1_555
O2 Te6 1.866235 1_555
O3 Te7 1.866235 1_555
O4 Te6 1.872916 1_655
O5 Te7 1.872916 1_455
O6 Te5 1.860693 1_556
O7 Te4 1.860693 1_554
O8 Te5 1.862405 1_555
O8 Te7 2.719406 1_565
O9 Te4 1.862405 1_555
O9 Te6 2.719406 1_545
O10 Te5 1.887623 1_555
O10 Te3 2.255806 1_655
O11 Te4 1.887623 1_555
O11 Te2 2.255806 1_455
O12 Te3 1.858073 1_555
O13 Te2 1.858073 1_555
O14 Te0 1.842794 1_555
O15 Te1 1.842794 1_555
O16 Te0 1.860284 1_555
O17 Te1 1.860284 1_555
O18 Te0 1.984171 1_555
O18 Te2 2.045925 1_555
O19 Te1 1.984171 1_555
O19 Te3 2.045925 1_555
O20 Te2 1.857670 1_555
O21 Te3 1.857670 1_555
