# generated using pymatgen
data_LiSn2(PO4)3
_symmetry_space_group_name_H-M   'P 1'
_cell_length_a   8.52997692
_cell_length_b   9.16473346
_cell_length_c   14.70908297
_cell_angle_alpha   74.42373039
_cell_angle_beta   89.74444840
_cell_angle_gamma   62.10606187
_symmetry_Int_Tables_number   1
_chemical_formula_structural   LiSn2(PO4)3
_chemical_formula_sum   'Li4 Sn8 P12 O48'
_cell_volume   968.99410690
_cell_formula_units_Z   4
loop_
 _symmetry_equiv_pos_site_id
 _symmetry_equiv_pos_as_xyz
  1  'x, y, z'
loop_
 _atom_site_type_symbol
 _atom_site_label
 _atom_site_symmetry_multiplicity
 _atom_site_fract_x
 _atom_site_fract_y
 _atom_site_fract_z
 _atom_site_occupancy
  Li  Li0  1  0.72422800  0.87402300  0.65599300  1
  Li  Li1  1  0.81712400  0.12328500  0.12159400  1
  Li  Li2  1  0.18287600  0.87671500  0.87840600  1
  Li  Li3  1  0.27577200  0.12597600  0.34400700  1
  Sn  Sn0  1  0.78728100  0.43207700  0.92930400  1
  Sn  Sn1  1  0.71732700  0.56449600  0.57079200  1
  Sn  Sn2  1  0.52352300  0.94725400  0.17503800  1
  Sn  Sn3  1  0.97233100  0.04417200  0.32916900  1
  Sn  Sn4  1  0.02766900  0.95582800  0.67083100  1
  Sn  Sn5  1  0.47647700  0.05274600  0.82496200  1
  Sn  Sn6  1  0.28267300  0.43550400  0.42920800  1
  Sn  Sn7  1  0.21271900  0.56792300  0.07069600  1
  P  P0  1  0.98263500  0.74624800  0.52192900  1
  P  P1  1  0.97735600  0.75302800  0.22811100  1
  P  P2  1  0.91007800  0.75237500  0.87236400  1
  P  P3  1  0.48295100  0.74732400  0.73227600  1
  P  P4  1  0.48021200  0.74921600  0.01785400  1
  P  P5  1  0.41613000  0.75276400  0.37638000  1
  P  P6  1  0.58387000  0.24723600  0.62362000  1
  P  P7  1  0.51978800  0.25078400  0.98214600  1
  P  P8  1  0.51704900  0.25267500  0.26772400  1
  P  P9  1  0.08992200  0.24762500  0.12763600  1
  P  P10  1  0.02264400  0.24697200  0.77188900  1
  P  P11  1  0.01736500  0.25375200  0.47807100  1
  O  O0  1  0.90132300  0.88592400  0.42346600  1
  O  O1  1  0.93558200  0.80350400  0.76523300  1
  O  O2  1  0.91607800  0.57623400  0.89673600  1
  O  O3  1  0.82348500  0.73168900  0.56911800  1
  O  O4  1  0.73578000  0.89362800  0.89229500  1
  O  O5  1  0.78245800  0.79696700  0.24125500  1
  O  O6  1  0.98707500  0.26659500  0.87190900  1
  O  O7  1  0.89561200  0.41232500  0.69361700  1
  O  O8  1  0.88279100  0.43050800  0.48736000  1
  O  O9  1  0.93164900  0.26427100  0.06527900  1
  O  O10  1  0.99596200  0.08808300  0.77083100  1
  O  O11  1  0.92419000  0.20254700  0.41238900  1
  O  O12  1  0.53265100  0.89084600  0.73579300  1
  O  O13  1  0.56470100  0.80595900  0.08317000  1
  O  O14  1  0.56685000  0.73469300  0.44320700  1
  O  O15  1  0.62480900  0.57400700  0.01035500  1
  O  O16  1  0.59802600  0.57749700  0.81082600  1
  O  O17  1  0.51634400  0.72447700  0.63291100  1
  O  O18  1  0.44980800  0.79339100  0.27180000  1
  O  O19  1  0.39945100  0.88808400  0.91656100  1
  O  O20  1  0.68522000  0.26368900  0.94720700  1
  O  O21  1  0.71597900  0.19441800  0.25280300  1
  O  O22  1  0.59992600  0.41160600  0.59747200  1
  O  O23  1  0.75843700  0.08763900  0.61168800  1
  O  O24  1  0.24156300  0.91236100  0.38831200  1
  O  O25  1  0.40007400  0.58839400  0.40252800  1
  O  O26  1  0.28402100  0.80558200  0.74719700  1
  O  O27  1  0.31478000  0.73631100  0.05279300  1
  O  O28  1  0.60054900  0.11191600  0.08343900  1
  O  O29  1  0.55019200  0.20660900  0.72820000  1
  O  O30  1  0.48365600  0.27552300  0.36708900  1
  O  O31  1  0.40197400  0.42250300  0.18917400  1
  O  O32  1  0.37519100  0.42599300  0.98964500  1
  O  O33  1  0.43315000  0.26530700  0.55679300  1
  O  O34  1  0.43529900  0.19404100  0.91683000  1
  O  O35  1  0.46734900  0.10915400  0.26420700  1
  O  O36  1  0.07581000  0.79745300  0.58761100  1
  O  O37  1  0.00403800  0.91191700  0.22916900  1
  O  O38  1  0.06835100  0.73572900  0.93472100  1
  O  O39  1  0.11720900  0.56949200  0.51264000  1
  O  O40  1  0.10438800  0.58767500  0.30638300  1
  O  O41  1  0.01292500  0.73340500  0.12809100  1
  O  O42  1  0.21754200  0.20303300  0.75874500  1
  O  O43  1  0.26422000  0.10637200  0.10770500  1
  O  O44  1  0.17651500  0.26831100  0.43088200  1
  O  O45  1  0.08392200  0.42376600  0.10326400  1
  O  O46  1  0.06441800  0.19649600  0.23476700  1
  O  O47  1  0.09867700  0.11407600  0.57653400  1
loop_
_geom_bond_atom_site_label_1
_geom_bond_atom_site_label_2
_geom_bond_distance
_geom_bond_site_symmetry_2
Li0 O3 1.975726 1_555
Li0 O12 1.978968 1_555
Li0 O23 2.047002 1_565
Li0 O1 2.151219 1_555
Li1 O9 1.977127 1_555
Li1 O28 1.989824 1_555
Li1 O37 2.069978 1_645
Li1 O21 2.242473 1_555
Li1 O20 2.529783 1_554
Li2 O38 1.977127 1_555
Li2 O19 1.989824 1_555
Li2 O10 2.069978 1_465
Li2 O26 2.242473 1_555
Li2 O27 2.529783 1_556
Li3 O44 1.975732 1_555
Li3 O35 1.978970 1_555
Li3 O24 2.046993 1_545
Li3 O46 2.151216 1_555
O0 P0 1.549142 1_555
O0 Sn3 2.031797 1_565
O1 P2 1.563910 1_555
O1 Sn4 2.114057 1_655
O2 P2 1.532685 1_555
O2 Sn0 2.048284 1_555
O3 P0 1.566480 1_555
O3 Sn1 2.108616 1_555
O4 P2 1.539905 1_555
O4 Sn5 2.055638 1_565
O5 P1 1.541399 1_555
O5 Sn2 2.043627 1_555
O6 P10 1.541391 1_655
O6 Sn0 2.042941 1_555
O7 P10 1.527693 1_655
O7 Sn1 2.051482 1_555
O8 P11 1.529077 1_655
O8 Sn1 2.044061 1_555
O9 P9 1.558980 1_655
O9 Sn0 2.116587 1_554
O10 P10 1.579491 1_655
O10 Sn4 2.086397 1_645
O11 P11 1.544218 1_655
O11 Sn3 2.041022 1_555
O12 P3 1.571947 1_555
O12 Sn5 2.127381 1_565
O13 P4 1.529056 1_555
O13 Sn2 2.033749 1_555
O14 P5 1.539848 1_555
O14 Sn1 2.044140 1_555
O15 P4 1.533835 1_555
O15 Sn0 2.040901 1_554
O16 P3 1.528325 1_555
O16 Sn0 2.045480 1_555
O17 P3 1.538178 1_555
O17 Sn1 2.068151 1_555
O18 P5 1.541427 1_555
O18 Sn2 2.037971 1_555
O19 P4 1.576279 1_556
O19 Sn5 2.086201 1_565
O20 P7 1.544811 1_555
O20 Sn0 2.060485 1_555
O21 P8 1.557082 1_555
O21 Sn3 2.076850 1_555
O22 P6 1.522290 1_555
O22 Sn1 2.033306 1_555
O23 P6 1.576426 1_555
O23 Sn4 2.085150 1_645
O24 P5 1.576426 1_555
O24 Sn3 2.085150 1_465
O25 P5 1.522290 1_555
O25 Sn6 2.033306 1_555
O26 P3 1.557080 1_555
O26 Sn4 2.076850 1_555
O27 P4 1.544811 1_555
O27 Sn7 2.060485 1_555
O28 P7 1.576279 1_554
O28 Sn2 2.086201 1_545
O29 P6 1.541427 1_555
O29 Sn5 2.037971 1_555
O30 P8 1.538181 1_555
O30 Sn6 2.068151 1_555
O31 P8 1.528330 1_555
O31 Sn7 2.045480 1_555
O32 P7 1.533835 1_555
O32 Sn7 2.040901 1_556
O33 P6 1.539848 1_555
O33 Sn6 2.044140 1_555
O34 P7 1.529056 1_555
O34 Sn5 2.033749 1_555
O35 P8 1.571938 1_555
O35 Sn2 2.127381 1_545
O36 P0 1.544218 1_455
O36 Sn4 2.041022 1_555
O37 P1 1.579491 1_455
O37 Sn3 2.086397 1_465
O38 P2 1.558980 1_455
O38 Sn7 2.116587 1_556
O39 P0 1.529077 1_455
O39 Sn6 2.044061 1_555
O40 P1 1.527693 1_455
O40 Sn6 2.051482 1_555
O41 P1 1.541391 1_455
O41 Sn7 2.042941 1_555
O42 P10 1.541399 1_555
O42 Sn5 2.043627 1_555
O43 P9 1.539905 1_555
O43 Sn2 2.055638 1_545
O44 P11 1.566480 1_555
O44 Sn6 2.108616 1_555
O45 P9 1.532685 1_555
O45 Sn7 2.048284 1_555
O46 P9 1.563910 1_555
O46 Sn3 2.114057 1_455
O47 P11 1.549142 1_555
O47 Sn4 2.031797 1_545
