# generated using pymatgen
data_Dy2Cu(GeO3)4
_symmetry_space_group_name_H-M   'P 1'
_cell_length_a   4.98725900
_cell_length_b   7.28374058
_cell_length_c   8.00866603
_cell_angle_alpha   113.65292160
_cell_angle_beta   87.00960117
_cell_angle_gamma   102.97836385
_symmetry_Int_Tables_number   1
_chemical_formula_structural   Dy2Cu(GeO3)4
_chemical_formula_sum   'Dy2 Cu1 Ge4 O12'
_cell_volume   259.44048607
_cell_formula_units_Z   1
loop_
 _symmetry_equiv_pos_site_id
 _symmetry_equiv_pos_as_xyz
  1  'x, y, z'
loop_
 _atom_site_type_symbol
 _atom_site_label
 _atom_site_symmetry_multiplicity
 _atom_site_fract_x
 _atom_site_fract_y
 _atom_site_fract_z
 _atom_site_occupancy
  Dy  Dy0  1  0.95483100  0.76956800  0.54813300  1
  Dy  Dy1  1  0.04516900  0.23043200  0.45186700  1
  Cu  Cu0  1  0.00000000  0.00000000  0.00000000  1
  Ge  Ge0  1  0.45958900  0.83207700  0.22319100  1
  Ge  Ge1  1  0.54041100  0.16792300  0.77680900  1
  Ge  Ge2  1  0.41955200  0.61692400  0.79511200  1
  Ge  Ge3  1  0.58044800  0.38307600  0.20488800  1
  O  O0  1  0.22561300  0.93322000  0.38771100  1
  O  O1  1  0.77438700  0.06678000  0.61228900  1
  O  O2  1  0.21152900  0.57548400  0.60893000  1
  O  O3  1  0.78847100  0.42451600  0.39107000  1
  O  O4  1  0.58403000  0.65647900  0.28996500  1
  O  O5  1  0.41597000  0.34352100  0.71003500  1
  O  O6  1  0.26614100  0.69208600  0.01045100  1
  O  O7  1  0.25426100  0.22465600  0.19359900  1
  O  O8  1  0.74573900  0.77534400  0.80640100  1
  O  O9  1  0.24874600  0.99208800  0.79690100  1
  O  O10  1  0.75125400  0.00791200  0.20309900  1
  O  O11  1  0.73385900  0.30791400  0.98954900  1
loop_
_geom_bond_atom_site_label_1
_geom_bond_atom_site_label_2
_geom_bond_distance
_geom_bond_site_symmetry_2
Dy0 O8 2.256598 1_555
Dy0 O0 2.284725 1_655
Dy0 O3 2.285336 1_555
Dy0 O2 2.303192 1_655
Dy0 O9 2.321947 1_655
Dy0 O1 2.386334 1_565
Dy0 O4 2.592571 1_555
Dy1 O7 2.256598 1_555
Dy1 O1 2.284725 1_455
Dy1 O2 2.285336 1_555
Dy1 O3 2.303192 1_455
Dy1 O10 2.321947 1_455
Dy1 O0 2.386334 1_545
Dy1 O5 2.592571 1_555
Cu0 O8 1.981649 1_444
Cu0 O7 1.981649 1_555
Cu0 O10 1.983519 1_455
Cu0 O9 1.983519 1_544
Ge0 O10 1.756764 1_565
Ge0 O0 1.757063 1_555
Ge0 O6 1.791365 1_555
Ge0 O4 1.801943 1_555
Ge1 O9 1.756764 1_545
Ge1 O1 1.757063 1_555
Ge1 O11 1.791365 1_555
Ge1 O5 1.801943 1_555
Ge2 O2 1.746525 1_555
Ge2 O8 1.753438 1_555
Ge2 O6 1.775433 1_556
Ge2 O5 1.823950 1_555
Ge3 O3 1.746525 1_555
Ge3 O7 1.753438 1_555
Ge3 O11 1.775433 1_554
Ge3 O4 1.823950 1_555
