# generated using pymatgen
data_YIr2
_symmetry_space_group_name_H-M   'P 1'
_cell_length_a   5.33826711
_cell_length_b   5.33826767
_cell_length_c   5.33826945
_cell_angle_alpha   60.00000789
_cell_angle_beta   60.00000439
_cell_angle_gamma   60.00000636
_symmetry_Int_Tables_number   1
_chemical_formula_structural   YIr2
_chemical_formula_sum   'Y2 Ir4'
_cell_volume   107.56876975
_cell_formula_units_Z   2
loop_
 _symmetry_equiv_pos_site_id
 _symmetry_equiv_pos_as_xyz
  1  'x, y, z'
loop_
 _atom_site_type_symbol
 _atom_site_label
 _atom_site_symmetry_multiplicity
 _atom_site_fract_x
 _atom_site_fract_y
 _atom_site_fract_z
 _atom_site_occupancy
  Y  Y0  1  0.12500000  0.12500000  0.12500000  1
  Y  Y1  1  0.87500000  0.87500000  0.87500000  1
  Ir  Ir0  1  0.00000000  0.50000000  0.50000000  1
  Ir  Ir1  1  0.50000000  0.00000000  0.50000000  1
  Ir  Ir2  1  0.50000000  0.50000000  0.00000000  1
  Ir  Ir3  1  0.50000000  0.50000000  0.50000000  1
loop_
_geom_bond_atom_site_label_1
_geom_bond_atom_site_label_2
_geom_bond_distance
_geom_bond_site_symmetry_2
Y0 Y1 3.269008 1_544
Y0 Y1 3.269008 1_444
Y0 Y1 3.269008 1_454
Y0 Y1 3.269009 1_445
Ir0 Ir3 2.669134 1_455
Ir0 Ir3 2.669134 1_555
Ir0 Ir1 2.669134 1_465
Ir0 Ir1 2.669134 1_555
Ir0 Ir2 2.669134 1_555
Ir0 Ir2 2.669134 1_456
Ir0 Y0 3.129837 1_565
Ir0 Y1 3.129837 1_445
Ir0 Y0 3.129837 1_555
Ir0 Y1 3.129837 1_455
Ir0 Y0 3.129838 1_556
Ir0 Y1 3.129838 1_454
Ir1 Ir3 2.669134 1_555
Ir1 Ir3 2.669134 1_545
Ir1 Ir2 2.669135 1_546
Ir1 Ir2 2.669135 1_555
Ir1 Y0 3.129837 1_655
Ir1 Y1 3.129837 1_445
Ir1 Y1 3.129837 1_545
Ir1 Y0 3.129837 1_555
Ir1 Y0 3.129838 1_556
Ir1 Y1 3.129838 1_544
Ir2 Ir3 2.669135 1_555
Ir2 Ir3 2.669135 1_554
Ir2 Y0 3.129837 1_555
Ir2 Y1 3.129837 1_554
Ir2 Y1 3.129837 1_454
Ir2 Y0 3.129837 1_655
Ir2 Y0 3.129837 1_565
Ir2 Y1 3.129837 1_544
Ir3 Y0 3.129837 1_655
Ir3 Y1 3.129837 1_455
Ir3 Y0 3.129837 1_565
Ir3 Y1 3.129837 1_545
Ir3 Y1 3.129838 1_554
Ir3 Y0 3.129838 1_556
