# generated using pymatgen
data_KMgMn4O8
_symmetry_space_group_name_H-M   'P 1'
_cell_length_a   2.99818414
_cell_length_b   7.68622113
_cell_length_c   7.55624314
_cell_angle_alpha   97.15931079
_cell_angle_beta   75.92309832
_cell_angle_gamma   79.16283516
_symmetry_Int_Tables_number   1
_chemical_formula_structural   KMgMn4O8
_chemical_formula_sum   'K1 Mg1 Mn4 O8'
_cell_volume   163.21604798
_cell_formula_units_Z   1
loop_
 _symmetry_equiv_pos_site_id
 _symmetry_equiv_pos_as_xyz
  1  'x, y, z'
loop_
 _atom_site_type_symbol
 _atom_site_label
 _atom_site_symmetry_multiplicity
 _atom_site_fract_x
 _atom_site_fract_y
 _atom_site_fract_z
 _atom_site_occupancy
  K  K0  1  0.53488802  0.89797478  0.06255801  1
  Mg  Mg0  1  0.57121746  0.16877897  0.79024729  1
  Mn  Mn0  1  0.65497269  0.48794779  0.16799201  1
  Mn  Mn1  1  0.21373112  0.18667803  0.44210755  1
  Mn  Mn2  1  0.78129618  0.81583961  0.53098045  1
  Mn  Mn3  1  0.29410620  0.52295319  0.79626684  1
  O  O0  1  0.73818283  0.66610157  0.73028582  1
  O  O1  1  0.40871784  0.68100576  0.39091355  1
  O  O2  1  0.57204244  0.31533619  0.58216067  1
  O  O3  1  0.19999346  0.34366469  0.23384140  1
  O  O4  1  0.15297763  0.61851802  0.06884397  1
  O  O5  1  0.83413940  0.01704177  0.36065706  1
  O  O6  1  0.91977429  0.34859819  0.90269814  1
  O  O7  1  0.20728544  0.99438145  0.69970723  1
loop_
_geom_bond_atom_site_label_1
_geom_bond_atom_site_label_2
_geom_bond_distance
_geom_bond_site_symmetry_2
K0 O4 2.573247 1_655
K0 O5 2.605087 1_465
K0 O4 2.617435 1_555
K0 O5 2.737584 1_565
K0 O0 2.753788 1_554
Mg0 O7 2.019206 1_645
Mg0 O7 2.034699 1_545
Mg0 O2 2.044965 1_555
Mg0 O6 2.081325 1_455
Mg0 O6 2.099227 1_555
Mn0 O3 1.927297 1_555
Mn0 O1 1.986057 1_555
Mn0 O3 1.999813 1_655
Mn0 O4 2.000412 1_555
Mn0 O4 2.001149 1_655
Mn0 O6 2.041298 1_554
Mn1 O2 1.957693 1_455
Mn1 O5 1.967204 1_555
Mn1 O2 1.985853 1_555
Mn1 O5 2.018117 1_455
Mn1 O3 2.102470 1_555
Mn1 O7 2.585211 1_545
Mn2 O1 1.938520 1_655
Mn2 O0 2.000660 1_555
Mn2 O7 2.019646 1_555
Mn2 O1 2.044279 1_555
Mn2 O5 2.135918 1_565
Mn2 O7 2.480932 1_655
Mn3 O0 1.896456 1_555
Mn3 O4 2.010687 1_556
Mn3 O2 2.014690 1_555
Mn3 O0 2.022032 1_455
Mn3 O6 2.024221 1_455
Mn3 O6 2.453321 1_555
