# generated using pymatgen
data_Yb4Bi3
_symmetry_space_group_name_H-M   'P 1'
_cell_length_a   8.35004547
_cell_length_b   8.35004547
_cell_length_c   8.35004547
_cell_angle_alpha   109.47122063
_cell_angle_beta   109.47122063
_cell_angle_gamma   109.47122063
_symmetry_Int_Tables_number   1
_chemical_formula_structural   Yb4Bi3
_chemical_formula_sum   'Yb8 Bi6'
_cell_volume   448.17190767
_cell_formula_units_Z   2
loop_
 _symmetry_equiv_pos_site_id
 _symmetry_equiv_pos_as_xyz
  1  'x, y, z'
loop_
 _atom_site_type_symbol
 _atom_site_label
 _atom_site_symmetry_multiplicity
 _atom_site_fract_x
 _atom_site_fract_y
 _atom_site_fract_z
 _atom_site_occupancy
  Yb  Yb0  1  0.14917900  0.50000000  0.00000000  1
  Yb  Yb1  1  0.64917900  0.50000000  0.00000000  1
  Yb  Yb2  1  0.50000000  0.00000000  0.64917900  1
  Yb  Yb3  1  0.35082100  0.35082100  0.35082100  1
  Yb  Yb4  1  0.50000000  0.00000000  0.14917900  1
  Yb  Yb5  1  0.00000000  0.64917900  0.50000000  1
  Yb  Yb6  1  0.85082100  0.85082100  0.85082100  1
  Yb  Yb7  1  0.00000000  0.14917900  0.50000000  1
  Bi  Bi0  1  0.37500000  0.62500000  0.75000000  1
  Bi  Bi1  1  0.87500000  0.25000000  0.12500000  1
  Bi  Bi2  1  0.62500000  0.75000000  0.37500000  1
  Bi  Bi3  1  0.12500000  0.87500000  0.25000000  1
  Bi  Bi4  1  0.25000000  0.12500000  0.87500000  1
  Bi  Bi5  1  0.75000000  0.37500000  0.62500000  1
loop_
_geom_bond_atom_site_label_1
_geom_bond_atom_site_label_2
_geom_bond_distance
_geom_bond_site_symmetry_2
Bi0 Yb1 3.247773 1_556
Bi0 Yb4 3.247773 1_566
Bi0 Yb5 3.247773 1_555
Bi0 Yb3 3.247773 1_555
Bi0 Yb6 3.430354 1_555
Bi0 Yb2 3.430354 1_565
Bi0 Yb0 3.430354 1_556
Bi0 Yb7 3.430354 1_555
Bi1 Yb0 3.247773 1_655
Bi1 Yb6 3.247773 1_544
Bi1 Yb5 3.247773 1_655
Bi1 Yb4 3.247773 1_555
Bi1 Yb3 3.430354 1_655
Bi1 Yb7 3.430354 1_655
Bi1 Yb2 3.430354 1_554
Bi1 Yb1 3.430354 1_555
Bi2 Yb1 3.247773 1_555
Bi2 Yb7 3.247773 1_665
Bi2 Yb3 3.247773 1_555
Bi2 Yb2 3.247773 1_565
Bi2 Yb4 3.430354 1_565
Bi2 Yb6 3.430354 1_555
Bi2 Yb0 3.430354 1_555
Bi2 Yb5 3.430354 1_655
Bi3 Yb7 3.247773 1_565
Bi3 Yb6 3.247773 1_454
Bi3 Yb2 3.247773 1_565
Bi3 Yb0 3.247773 1_555
Bi3 Yb4 3.430354 1_565
Bi3 Yb5 3.430354 1_555
Bi3 Yb3 3.430354 1_565
Bi3 Yb1 3.430354 1_455
Bi4 Yb4 3.247773 1_556
Bi4 Yb1 3.247773 1_556
Bi4 Yb6 3.247773 1_445
Bi4 Yb7 3.247773 1_555
Bi4 Yb5 3.430354 1_545
Bi4 Yb2 3.430354 1_555
Bi4 Yb0 3.430354 1_556
Bi4 Yb3 3.430354 1_556
Bi5 Yb0 3.247773 1_656
Bi5 Yb2 3.247773 1_555
Bi5 Yb5 3.247773 1_655
Bi5 Yb3 3.247773 1_555
Bi5 Yb4 3.430354 1_555
Bi5 Yb7 3.430354 1_655
Bi5 Yb6 3.430354 1_555
Bi5 Yb1 3.430354 1_556
