# generated using pymatgen
data_MgCO3
_symmetry_space_group_name_H-M   'P 1'
_cell_length_a   9.52529817
_cell_length_b   7.14228800
_cell_length_c   8.24341312
_cell_angle_alpha   90.00000000
_cell_angle_beta   102.90277733
_cell_angle_gamma   90.00000000
_symmetry_Int_Tables_number   1
_chemical_formula_structural   MgCO3
_chemical_formula_sum   'Mg12 C12 O36'
_cell_volume   546.65888600
_cell_formula_units_Z   12
loop_
 _symmetry_equiv_pos_site_id
 _symmetry_equiv_pos_as_xyz
  1  'x, y, z'
loop_
 _atom_site_type_symbol
 _atom_site_label
 _atom_site_symmetry_multiplicity
 _atom_site_fract_x
 _atom_site_fract_y
 _atom_site_fract_z
 _atom_site_occupancy
  Mg  Mg0  1  0.52689600  0.00000000  0.70015900  1
  Mg  Mg1  1  0.47310400  0.00000000  0.29984100  1
  Mg  Mg2  1  0.02689600  0.50000000  0.70015900  1
  Mg  Mg3  1  0.97310400  0.50000000  0.29984100  1
  Mg  Mg4  1  0.15819200  0.00000000  0.34582900  1
  Mg  Mg5  1  0.84180800  0.00000000  0.65417100  1
  Mg  Mg6  1  0.65819200  0.50000000  0.34582900  1
  Mg  Mg7  1  0.34180800  0.50000000  0.65417100  1
  Mg  Mg8  1  0.00000000  0.22998300  0.00000000  1
  Mg  Mg9  1  0.00000000  0.77001700  0.00000000  1
  Mg  Mg10  1  0.50000000  0.72998300  0.00000000  1
  Mg  Mg11  1  0.50000000  0.27001700  0.00000000  1
  C  C0  1  0.13462500  0.17566800  0.70092800  1
  C  C1  1  0.86537500  0.17566800  0.29907200  1
  C  C2  1  0.86537500  0.82433200  0.29907200  1
  C  C3  1  0.13462500  0.82433200  0.70092800  1
  C  C4  1  0.63462500  0.67566800  0.70092800  1
  C  C5  1  0.36537500  0.67566800  0.29907200  1
  C  C6  1  0.36537500  0.32433200  0.29907200  1
  C  C7  1  0.63462500  0.32433200  0.70092800  1
  C  C8  1  0.25103300  0.00000000  0.95675200  1
  C  C9  1  0.74896700  0.00000000  0.04324800  1
  C  C10  1  0.75103300  0.50000000  0.95675200  1
  C  C11  1  0.24896700  0.50000000  0.04324800  1
  O  O0  1  0.24887600  0.16092800  0.84652000  1
  O  O1  1  0.75112400  0.16092800  0.15348000  1
  O  O2  1  0.75112400  0.83907200  0.15348000  1
  O  O3  1  0.24887600  0.83907200  0.84652000  1
  O  O4  1  0.74887600  0.66092800  0.84652000  1
  O  O5  1  0.25112400  0.66092800  0.15348000  1
  O  O6  1  0.25112400  0.33907200  0.15348000  1
  O  O7  1  0.74887600  0.33907200  0.84652000  1
  O  O8  1  0.33625000  0.17821400  0.38777400  1
  O  O9  1  0.66375000  0.17821400  0.61222600  1
  O  O10  1  0.66375000  0.82178600  0.61222600  1
  O  O11  1  0.33625000  0.82178600  0.38777400  1
  O  O12  1  0.83625000  0.67821400  0.38777400  1
  O  O13  1  0.16375000  0.67821400  0.61222600  1
  O  O14  1  0.16375000  0.32178600  0.61222600  1
  O  O15  1  0.83625000  0.32178600  0.38777400  1
  O  O16  1  0.99949600  0.20016900  0.25897300  1
  O  O17  1  0.00050400  0.20016900  0.74102700  1
  O  O18  1  0.00050400  0.79983100  0.74102700  1
  O  O19  1  0.99949600  0.79983100  0.25897300  1
  O  O20  1  0.49949600  0.70016900  0.25897300  1
  O  O21  1  0.50050400  0.70016900  0.74102700  1
  O  O22  1  0.50050400  0.29983100  0.74102700  1
  O  O23  1  0.49949600  0.29983100  0.25897300  1
  O  O24  1  0.14125400  0.00000000  0.03487100  1
  O  O25  1  0.85874600  0.00000000  0.96512900  1
  O  O26  1  0.64125400  0.50000000  0.03487100  1
  O  O27  1  0.35874600  0.50000000  0.96512900  1
  O  O28  1  0.38613700  0.00000000  0.05359200  1
  O  O29  1  0.61386300  0.00000000  0.94640800  1
  O  O30  1  0.88613700  0.50000000  0.05359200  1
  O  O31  1  0.11386300  0.50000000  0.94640800  1
  O  O32  1  0.13760900  0.00000000  0.60532200  1
  O  O33  1  0.86239100  0.00000000  0.39467800  1
  O  O34  1  0.63760900  0.50000000  0.60532200  1
  O  O35  1  0.36239100  0.50000000  0.39467800  1
loop_
_geom_bond_atom_site_label_1
_geom_bond_atom_site_label_2
_geom_bond_distance
_geom_bond_site_symmetry_2
Mg0 O29 2.013919 1_555
Mg0 O10 2.065648 1_545
Mg0 O9 2.065648 1_555
Mg0 O22 2.190993 1_555
Mg0 O21 2.190993 1_545
Mg1 O28 2.013919 1_555
Mg1 O8 2.065648 1_555
Mg1 O11 2.065648 1_545
Mg1 O20 2.190993 1_545
Mg1 O23 2.190993 1_555
Mg2 O31 2.013919 1_555
Mg2 O13 2.065648 1_555
Mg2 O14 2.065648 1_555
Mg2 O18 2.190993 1_555
Mg2 O17 2.190993 1_555
Mg3 O30 2.013919 1_555
Mg3 O12 2.065648 1_555
Mg3 O15 2.065648 1_555
Mg3 O19 2.190993 1_555
Mg3 O16 2.190993 1_555
Mg4 O11 2.086725 1_545
Mg4 O8 2.086725 1_555
Mg4 O16 2.087641 1_455
Mg4 O19 2.087641 1_445
Mg4 O32 2.191237 1_555
Mg4 O24 2.532217 1_555
Mg5 O10 2.086725 1_545
Mg5 O9 2.086725 1_555
Mg5 O17 2.087641 1_655
Mg5 O18 2.087641 1_645
Mg5 O33 2.191237 1_555
Mg5 O25 2.532217 1_555
Mg6 O12 2.086725 1_555
Mg6 O15 2.086725 1_555
Mg6 O23 2.087641 1_555
Mg6 O20 2.087641 1_555
Mg6 O34 2.191237 1_555
Mg6 O26 2.532217 1_555
Mg7 O13 2.086725 1_555
Mg7 O14 2.086725 1_555
Mg7 O22 2.087641 1_555
Mg7 O21 2.087641 1_555
Mg7 O35 2.191237 1_555
Mg7 O27 2.532217 1_555
Mg8 O25 2.101996 1_454
Mg8 O24 2.101996 1_555
Mg8 O16 2.146487 1_455
Mg8 O17 2.146487 1_554
Mg8 O31 2.303200 1_554
Mg8 O30 2.303200 1_455
Mg8 O6 2.564768 1_555
Mg8 O7 2.564768 1_454
Mg9 O25 2.101996 1_464
Mg9 O24 2.101996 1_565
Mg9 O18 2.146487 1_554
Mg9 O19 2.146487 1_455
Mg9 O31 2.303200 1_554
Mg9 O30 2.303200 1_455
Mg9 O4 2.564768 1_454
Mg9 O5 2.564768 1_555
Mg10 O26 2.101996 1_555
Mg10 O27 2.101996 1_554
Mg10 O21 2.146487 1_554
Mg10 O20 2.146487 1_555
Mg10 O28 2.303200 1_565
Mg10 O29 2.303200 1_564
Mg10 O2 2.564768 1_555
Mg10 O3 2.564768 1_554
Mg11 O27 2.101996 1_554
Mg11 O26 2.101996 1_555
Mg11 O22 2.146487 1_554
Mg11 O23 2.146487 1_555
Mg11 O29 2.303200 1_554
Mg11 O28 2.303200 1_555
Mg11 O1 2.564768 1_555
Mg11 O0 2.564768 1_554
C0 O14 1.338416 1_555
C0 O17 1.400213 1_555
C0 O0 1.432669 1_555
C0 O32 1.485310 1_555
C1 O15 1.338416 1_555
C1 O16 1.400213 1_555
C1 O1 1.432669 1_555
C1 O33 1.485310 1_555
C2 O12 1.338416 1_555
C2 O19 1.400213 1_555
C2 O2 1.432669 1_555
C2 O33 1.485310 1_565
C3 O13 1.338416 1_555
C3 O18 1.400213 1_555
C3 O3 1.432669 1_555
C3 O32 1.485310 1_565
C4 O10 1.338416 1_555
C4 O21 1.400213 1_555
C4 O4 1.432669 1_555
C4 O34 1.485310 1_555
C5 O11 1.338416 1_555
C5 O20 1.400213 1_555
C5 O5 1.432669 1_555
C5 O35 1.485310 1_555
C6 O8 1.338416 1_555
C6 O23 1.400213 1_555
C6 O6 1.432669 1_555
C6 O35 1.485310 1_555
C7 O9 1.338416 1_555
C7 O22 1.400213 1_555
C7 O7 1.432669 1_555
C7 O34 1.485310 1_555
C8 O24 1.344940 1_556
C8 O28 1.354473 1_556
C8 O3 1.462500 1_545
C8 O0 1.462500 1_555
C9 O25 1.344940 1_554
C9 O29 1.354473 1_554
C9 O2 1.462500 1_545
C9 O1 1.462500 1_555
C10 O26 1.344940 1_556
C10 O30 1.354473 1_556
C10 O4 1.462500 1_555
C10 O7 1.462500 1_555
C11 O27 1.344940 1_554
C11 O31 1.354473 1_554
C11 O5 1.462500 1_555
C11 O6 1.462500 1_555
