# generated using pymatgen
data_TlAgSe
_symmetry_space_group_name_H-M   'P 1'
_cell_length_a   4.66301900
_cell_length_b   8.43302557
_cell_length_c   7.57223970
_cell_angle_alpha   90.00000000
_cell_angle_beta   90.00000000
_cell_angle_gamma   90.00000000
_symmetry_Int_Tables_number   1
_chemical_formula_structural   TlAgSe
_chemical_formula_sum   'Tl4 Ag4 Se4'
_cell_volume   297.76589607
_cell_formula_units_Z   4
loop_
 _symmetry_equiv_pos_site_id
 _symmetry_equiv_pos_as_xyz
  1  'x, y, z'
loop_
 _atom_site_type_symbol
 _atom_site_label
 _atom_site_symmetry_multiplicity
 _atom_site_fract_x
 _atom_site_fract_y
 _atom_site_fract_z
 _atom_site_occupancy
  Tl  Tl0  1  0.25000000  0.99516980  0.81886253  1
  Tl  Tl1  1  0.75000000  0.00483020  0.18113747  1
  Tl  Tl2  1  0.25000000  0.49516980  0.68113747  1
  Tl  Tl3  1  0.75000000  0.50483020  0.31886253  1
  Ag  Ag0  1  0.75000000  0.32572206  0.91349844  1
  Ag  Ag1  1  0.25000000  0.67427794  0.08650156  1
  Ag  Ag2  1  0.75000000  0.82572206  0.58650156  1
  Ag  Ag3  1  0.25000000  0.17427794  0.41349844  1
  Se  Se0  1  0.25000000  0.81895880  0.39977892  1
  Se  Se1  1  0.75000000  0.18104120  0.60022108  1
  Se  Se2  1  0.25000000  0.31895880  0.10022108  1
  Se  Se3  1  0.75000000  0.68104120  0.89977892  1
loop_
_geom_bond_atom_site_label_1
_geom_bond_atom_site_label_2
_geom_bond_distance
_geom_bond_site_symmetry_2
Ag0 Se1 2.667588 1_555
Ag0 Se2 2.727330 1_656
Ag0 Se2 2.727330 1_556
Ag0 Se3 2.998216 1_555
Ag0 Tl2 3.251718 1_555
Ag0 Tl2 3.251718 1_655
Ag0 Tl1 3.380848 1_556
Ag0 Tl3 3.421008 1_556
Ag1 Se0 2.667588 1_555
Ag1 Se3 2.727330 1_454
Ag1 Se3 2.727330 1_554
Ag1 Se2 2.998216 1_555
Ag1 Tl3 3.251718 1_555
Ag1 Tl3 3.251718 1_455
Ag1 Tl0 3.380848 1_554
Ag1 Tl2 3.421008 1_554
Ag2 Se3 2.667588 1_555
Ag2 Se0 2.727330 1_655
Ag2 Se0 2.727330 1_555
Ag2 Se1 2.998216 1_565
Ag2 Tl0 3.251718 1_555
Ag2 Tl0 3.251718 1_655
Ag2 Tl3 3.380848 1_555
Ag2 Tl1 3.421008 1_565
Ag3 Se2 2.667588 1_555
Ag3 Se1 2.727330 1_455
Ag3 Se1 2.727330 1_555
Ag3 Se0 2.998216 1_545
Ag3 Tl1 3.251718 1_555
Ag3 Tl1 3.251718 1_455
Ag3 Tl2 3.380848 1_555
Ag3 Tl0 3.421008 1_545
Se0 Tl1 3.260965 1_465
Se0 Tl1 3.260965 1_565
Se1 Tl0 3.260965 1_645
Se1 Tl0 3.260965 1_545
Se2 Tl3 3.260965 1_455
Se2 Tl3 3.260965 1_555
Se3 Tl2 3.260965 1_555
Se3 Tl2 3.260965 1_655
