# generated using pymatgen
data_Na6Ta3In5(PO4)12
_symmetry_space_group_name_H-M   'P 1'
_cell_length_a   17.83549844
_cell_length_b   8.92352325
_cell_length_c   22.74714090
_cell_angle_alpha   90.03376255
_cell_angle_beta   90.01902205
_cell_angle_gamma   120.01731853
_symmetry_Int_Tables_number   1
_chemical_formula_structural   Na6Ta3In5(PO4)12
_chemical_formula_sum   'Na18 Ta9 In15 P36 O144'
_cell_volume   3134.75103106
_cell_formula_units_Z   3
loop_
 _symmetry_equiv_pos_site_id
 _symmetry_equiv_pos_as_xyz
  1  'x, y, z'
loop_
 _atom_site_type_symbol
 _atom_site_label
 _atom_site_symmetry_multiplicity
 _atom_site_fract_x
 _atom_site_fract_y
 _atom_site_fract_z
 _atom_site_occupancy
  Na  Na0  1  0.68294455  0.37161243  0.24921208  1
  Na  Na1  1  0.00146996  0.63204007  0.24964144  1
  Na  Na2  1  0.00085381  0.37051101  0.74600810  1
  Na  Na3  1  0.50094757  0.37054946  0.74622828  1
  Na  Na4  1  0.18296742  0.99430083  0.74602309  1
  Na  Na5  1  0.68302096  0.99444873  0.74638213  1
  Na  Na6  1  0.00023068  0.99958990  0.50685582  1
  Na  Na7  1  0.49978638  0.99980704  0.50711441  1
  Na  Na8  1  0.99873407  0.99758463  0.00788072  1
  Na  Na9  1  0.50148155  0.00294380  0.00766778  1
  Na  Na10  1  0.33295254  0.34629567  0.83735658  1
  Na  Na11  1  0.83249828  0.34558310  0.83822840  1
  Na  Na12  1  0.33311722  0.33375184  0.34203350  1
  Na  Na13  1  0.83283137  0.31789228  0.33824606  1
  Na  Na14  1  0.17236401  0.66350299  0.17221259  1
  Na  Na15  1  0.66962724  0.68848502  0.17153026  1
  Na  Na16  1  0.17563352  0.66535957  0.66521308  1
  Na  Na17  1  0.67556248  0.66519733  0.66555509  1
  Ta  Ta0  1  0.00123978  0.00476652  0.35549789  1
  Ta  Ta1  1  0.49766991  0.99582441  0.35516308  1
  Ta  Ta2  1  0.99878861  0.99778561  0.85707976  1
  Ta  Ta3  1  0.49898560  0.99765062  0.85662936  1
  Ta  Ta4  1  0.33362981  0.33523946  0.18660267  1
  Ta  Ta5  1  0.16774177  0.66863759  0.02038086  1
  Ta  Ta6  1  0.66535721  0.66346226  0.01942871  1
  Ta  Ta7  1  0.16612990  0.66679254  0.51790630  1
  Ta  Ta8  1  0.66629973  0.66767887  0.51779420  1
  In  In0  1  0.99825548  0.99648862  0.64571926  1
  In  In1  1  0.49839934  0.99647659  0.64571993  1
  In  In2  1  0.99783455  0.00095975  0.14762086  1
  In  In3  1  0.50078122  0.99986534  0.14742454  1
  In  In4  1  0.33288212  0.34122823  0.68077608  1
  In  In5  1  0.83293989  0.34112196  0.68081162  1
  In  In6  1  0.83253341  0.32247906  0.18338040  1
  In  In7  1  0.33333663  0.33186957  0.98161696  1
  In  In8  1  0.83345994  0.33267034  0.98351088  1
  In  In9  1  0.33323116  0.33278806  0.48351665  1
  In  In10  1  0.83343873  0.33443351  0.48240487  1
  In  In11  1  0.17044410  0.66657420  0.31664505  1
  In  In12  1  0.66624107  0.67295629  0.31729062  1
  In  In13  1  0.16956463  0.66633425  0.81859438  1
  In  In14  1  0.66985862  0.66678263  0.81876768  1
  P  P0  1  0.14626047  0.00376165  0.24977615  1
  P  P1  1  0.64526604  0.99984901  0.25060587  1
  P  P2  1  0.35516873  0.70739804  0.24881946  1
  P  P3  1  0.85409477  0.70882972  0.25095387  1
  P  P4  1  0.00000869  0.29263166  0.25083923  1
  P  P5  1  0.49742724  0.28778085  0.25017547  1
  P  P6  1  0.14472388  0.28897237  0.75154064  1
  P  P7  1  0.64483549  0.28928729  0.75142339  1
  P  P8  1  0.99862743  0.70798439  0.75206527  1
  P  P9  1  0.49868588  0.70773669  0.75195018  1
  P  P10  1  0.35427088  0.99953464  0.75099844  1
  P  P11  1  0.85431931  0.99950553  0.75106424  1
  P  P12  1  0.48390328  0.33618383  0.58347596  1
  P  P13  1  0.98353916  0.33630527  0.58336406  1
  P  P14  1  0.18441469  0.03277856  0.58363043  1
  P  P15  1  0.68479110  0.03367678  0.58337107  1
  P  P16  1  0.33175623  0.63092798  0.58106913  1
  P  P17  1  0.83172889  0.63055813  0.58093550  1
  P  P18  1  0.47991657  0.62367476  0.08208437  1
  P  P19  1  0.98285082  0.63148737  0.08357994  1
  P  P20  1  0.33205191  0.04074179  0.08258939  1
  P  P21  1  0.83241304  0.03351348  0.08076240  1
  P  P22  1  0.18841863  0.33741850  0.08241897  1
  P  P23  1  0.68415493  0.33297101  0.08324754  1
  P  P24  1  0.31469219  0.66831045  0.91722075  1
  P  P25  1  0.81394477  0.66643669  0.91710450  1
  P  P26  1  0.02060415  0.37307259  0.91570854  1
  P  P27  1  0.51938596  0.37114639  0.91429516  1
  P  P28  1  0.16599768  0.95958572  0.91516324  1
  P  P29  1  0.66585761  0.96026575  0.91533393  1
  P  P30  1  0.31341386  0.96037746  0.41542482  1
  P  P31  1  0.81478353  0.96126859  0.41570762  1
  P  P32  1  0.16661949  0.37176925  0.41590305  1
  P  P33  1  0.66546752  0.37166296  0.41340514  1
  P  P34  1  0.02023323  0.66845038  0.41328211  1
  P  P35  1  0.51896280  0.66694595  0.41548317  1
  O  O0  1  0.10116339  0.02877047  0.30559337  1
  O  O1  1  0.59193793  0.01504486  0.30477992  1
  O  O2  1  0.41207999  0.79837434  0.30488524  1
  O  O3  1  0.91437883  0.81399390  0.30526024  1
  O  O4  1  0.48350735  0.16796100  0.30500691  1
  O  O5  1  0.99522540  0.17936648  0.30632109  1
  O  O6  1  0.09417691  0.17153181  0.80707650  1
  O  O7  1  0.59422387  0.17169572  0.80687425  1
  O  O8  1  0.49183135  0.80731793  0.80785344  1
  O  O9  1  0.99193919  0.80786760  0.80802077  1
  O  O10  1  0.41172085  0.01255332  0.80665255  1
  O  O11  1  0.91188086  0.01273448  0.80678619  1
  O  O12  1  0.39435360  0.97664002  0.69571036  1
  O  O13  1  0.89430197  0.97632731  0.69577177  1
  O  O14  1  0.08954812  0.20911977  0.69704981  1
  O  O15  1  0.58950013  0.20930937  0.69697726  1
  O  O16  1  0.01589337  0.81956669  0.69777949  1
  O  O17  1  0.51583509  0.81942704  0.69773752  1
  O  O18  1  0.39431018  0.81219789  0.19400008  1
  O  O19  1  0.89265586  0.80939604  0.19497154  1
  O  O20  1  0.01171688  0.21434177  0.19512344  1
  O  O21  1  0.51538559  0.21301742  0.19577289  1
  O  O22  1  0.08957985  0.96814683  0.19602099  1
  O  O23  1  0.59587343  0.97982403  0.19428280  1
  O  O24  1  0.45154205  0.37180189  0.64263197  1
  O  O25  1  0.95137396  0.37160078  0.64269466  1
  O  O26  1  0.23474215  0.09808426  0.64279573  1
  O  O27  1  0.73484090  0.09856906  0.64263555  1
  O  O28  1  0.31153602  0.52524344  0.63839038  1
  O  O29  1  0.81162839  0.52505970  0.63825432  1
  O  O30  1  0.43210616  0.50378820  0.13736286  1
  O  O31  1  0.95020586  0.52955462  0.14192472  1
  O  O32  1  0.31965544  0.13699228  0.13737499  1
  O  O33  1  0.81193976  0.09968648  0.13745864  1
  O  O34  1  0.24892533  0.36269180  0.13754262  1
  O  O35  1  0.73485273  0.36893468  0.14179949  1
  O  O36  1  0.22700284  0.30999267  0.02734887  1
  O  O37  1  0.72781639  0.30775074  0.03034138  1
  O  O38  1  0.42774396  0.54522847  0.02705363  1
  O  O39  1  0.92658443  0.54433564  0.03064479  1
  O  O40  1  0.34557516  0.14362668  0.02711234  1
  O  O41  1  0.84613878  0.14194907  0.02651415  1
  O  O42  1  0.22929681  0.14791494  0.53160220  1
  O  O43  1  0.72971628  0.14884894  0.53133024  1
  O  O44  1  0.34516514  0.54700104  0.52757269  1
  O  O45  1  0.84532941  0.54718934  0.52731074  1
  O  O46  1  0.42614752  0.31101413  0.53151772  1
  O  O47  1  0.92573635  0.31153596  0.53147226  1
  O  O48  1  0.26714147  0.69373946  0.97113277  1
  O  O49  1  0.76452193  0.69030775  0.96988395  1
  O  O50  1  0.08371961  0.47364456  0.96833470  1
  O  O51  1  0.58056526  0.47131946  0.96705806  1
  O  O52  1  0.15637437  0.83702812  0.96782853  1
  O  O53  1  0.65322044  0.83514941  0.96764422  1
  O  O54  1  0.26590045  0.83950252  0.46890802  1
  O  O55  1  0.76658508  0.84028414  0.46914654  1
  O  O56  1  0.15407630  0.46820008  0.46928332  1
  O  O57  1  0.65337447  0.47167612  0.46591885  1
  O  O58  1  0.08192527  0.69222704  0.46613232  1
  O  O59  1  0.57982113  0.69432424  0.46912446  1
  O  O60  1  0.05705753  0.64537544  0.35564456  1
  O  O61  1  0.55629455  0.63871992  0.35978049  1
  O  O62  1  0.26253116  0.88718894  0.35925301  1
  O  O63  1  0.76417630  0.88620594  0.35965323  1
  O  O64  1  0.17942695  0.47205993  0.35972942  1
  O  O65  1  0.67728554  0.46775737  0.35564851  1
  O  O66  1  0.05640710  0.46904858  0.85777225  1
  O  O67  1  0.55556441  0.46756892  0.85650522  1
  O  O68  1  0.17710147  0.88735237  0.85707989  1
  O  O69  1  0.67725134  0.88823315  0.85711001  1
  O  O70  1  0.26402735  0.64049484  0.86090942  1
  O  O71  1  0.76428686  0.63888258  0.86023851  1
  O  O72  1  0.01705865  0.84230684  0.40886290  1
  O  O73  1  0.51520225  0.84052953  0.40969220  1
  O  O74  1  0.40315735  0.96489922  0.40951310  1
  O  O75  1  0.90547802  0.96952768  0.41000471  1
  O  O76  1  0.07976167  0.19115531  0.41111859  1
  O  O77  1  0.57825211  0.19042103  0.40833398  1
  O  O78  1  0.01667367  0.19213075  0.91133550  1
  O  O79  1  0.51611654  0.19102300  0.91078606  1
  O  O80  1  0.07911759  0.96609121  0.91192008  1
  O  O81  1  0.57917160  0.96793692  0.91142827  1
  O  O82  1  0.40443932  0.84207485  0.91205349  1
  O  O83  1  0.90384135  0.84092381  0.91196630  1
  O  O84  1  0.50051179  0.18431548  0.58631583  1
  O  O85  1  0.00058656  0.18493268  0.58625804  1
  O  O86  1  0.09190483  0.00007525  0.58665404  1
  O  O87  1  0.59214913  0.00039387  0.58644996  1
  O  O88  1  0.40829581  0.81519035  0.58550213  1
  O  O89  1  0.90815626  0.81494164  0.58545530  1
  O  O90  1  0.49518944  0.80569762  0.08933903  1
  O  O91  1  0.00182992  0.81826402  0.08660828  1
  O  O92  1  0.40688136  0.00793261  0.09044801  1
  O  O93  1  0.90869266  0.00107554  0.08509828  1
  O  O94  1  0.09730851  0.18793881  0.09060916  1
  O  O95  1  0.59103951  0.18126280  0.08572708  1
  O  O96  1  0.35174979  0.17147956  0.75127180  1
  O  O97  1  0.85172038  0.17128208  0.75129525  1
  O  O98  1  0.23191163  0.29171457  0.75042156  1
  O  O99  1  0.73193152  0.29173632  0.75037401  1
  O  O100  1  0.41677805  0.52755979  0.75047223  1
  O  O101  1  0.91684931  0.52771289  0.75053699  1
  O  O102  1  0.35089240  0.52557407  0.24214774  1
  O  O103  1  0.85218149  0.53232699  0.25146746  1
  O  O104  1  0.41312250  0.30090750  0.24230625  1
  O  O105  1  0.91596966  0.30372906  0.25185899  1
  O  O106  1  0.23692631  0.17347254  0.24164967  1
  O  O107  1  0.73196143  0.17491626  0.25205421  1
  O  O108  1  0.33117553  0.51815042  0.92351726  1
  O  O109  1  0.83118449  0.51749073  0.92409672  1
  O  O110  1  0.42818136  0.34023385  0.92134113  1
  O  O111  1  0.92980057  0.34352244  0.92311551  1
  O  O112  1  0.24176433  0.14202788  0.92197876  1
  O  O113  1  0.74179920  0.14249258  0.92251534  1
  O  O114  1  0.33126263  0.14454833  0.42299139  1
  O  O115  1  0.83102234  0.14432602  0.42323611  1
  O  O116  1  0.24151419  0.33776758  0.42293549  1
  O  O117  1  0.74090481  0.33974763  0.42151705  1
  O  O118  1  0.42740020  0.51660619  0.42292291  1
  O  O119  1  0.92919514  0.51643359  0.42125355  1
  O  O120  1  0.18506613  0.51122236  0.07607132  1
  O  O121  1  0.67609520  0.50098133  0.07114507  1
  O  O122  1  0.07460159  0.64331458  0.07096202  1
  O  O123  1  0.57036207  0.63281904  0.07598418  1
  O  O124  1  0.24546899  0.86032731  0.07613176  1
  O  O125  1  0.74757693  0.84889454  0.07017937  1
  O  O126  1  0.17669021  0.84990464  0.57182757  1
  O  O127  1  0.67722774  0.85046459  0.57183538  1
  O  O128  1  0.24842998  0.64867875  0.57068623  1
  O  O129  1  0.74806333  0.64726059  0.57036457  1
  O  O130  1  0.07488973  0.50492744  0.57162198  1
  O  O131  1  0.57549925  0.50396547  0.57151977  1
  O  O132  1  0.15811210  0.84589288  0.25633878  1
  O  O133  1  0.65771212  0.84361849  0.25598309  1
  O  O134  1  0.26326039  0.67500977  0.25492423  1
  O  O135  1  0.76091214  0.67461103  0.25637977  1
  O  O136  1  0.07788579  0.47850780  0.25554910  1
  O  O137  1  0.57686222  0.46779125  0.25771143  1
  O  O138  1  0.15321075  0.46838960  0.75712424  1
  O  O139  1  0.65329715  0.46860918  0.75705079  1
  O  O140  1  0.07965953  0.68692694  0.75755696  1
  O  O141  1  0.57973875  0.68691036  0.75753047  1
  O  O142  1  0.26117053  0.84621823  0.75578674  1
  O  O143  1  0.76122631  0.84621891  0.75581680  1
loop_
_geom_bond_atom_site_label_1
_geom_bond_atom_site_label_2
_geom_bond_distance
_geom_bond_site_symmetry_2
Na0 O107 2.320489 1_555
Na0 O135 2.346999 1_555
Na0 O137 2.445097 1_555
Na0 O65 2.586980 1_555
Na0 O103 2.615144 1_555
Na0 O35 2.617464 1_555
Na0 O21 2.859298 1_555
Na1 O103 2.347927 1_455
Na1 O136 2.370856 1_555
Na1 O132 2.476953 1_555
Na1 O105 2.537983 1_455
Na1 O60 2.586763 1_555
Na1 O31 2.614445 1_455
Na1 O22 2.870998 1_555
Na2 O97 2.349305 1_455
Na2 O138 2.415678 1_555
Na2 O140 2.458691 1_555
Na2 O25 2.511779 1_455
Na2 O101 2.515158 1_455
Na2 O66 2.709662 1_555
Na2 O14 2.845257 1_555
Na3 O96 2.349619 1_555
Na3 O139 2.414543 1_555
Na3 O141 2.457679 1_555
Na3 O100 2.516015 1_555
Na3 O24 2.517594 1_555
Na3 O67 2.672633 1_555
Na3 O15 2.844769 1_555
Na4 O98 2.344629 1_565
Na4 O142 2.363287 1_555
Na4 O140 2.435521 1_555
Na4 O26 2.524374 1_565
Na4 O96 2.610282 1_565
Na4 O68 2.684525 1_555
Na4 O16 2.803945 1_555
Na5 O99 2.343311 1_565
Na5 O143 2.363752 1_555
Na5 O141 2.435594 1_555
Na5 O27 2.536068 1_565
Na5 O97 2.608604 1_565
Na5 O69 2.675521 1_555
Na5 O17 2.809146 1_555
Na6 O89 2.430336 1_455
Na6 O86 2.441155 1_565
Na6 O85 2.446159 1_565
Na6 O76 2.693921 1_565
Na6 O75 2.706430 1_455
Na6 O72 2.728896 1_555
Na7 O88 2.423202 1_555
Na7 O84 2.435565 1_565
Na7 O87 2.441293 1_565
Na7 O73 2.719269 1_555
Na7 O74 2.730534 1_555
Na7 O77 2.743274 1_565
Na8 O93 2.391040 1_565
Na8 O91 2.421234 1_655
Na8 O94 2.554157 1_665
Na8 O83 2.684325 1_554
Na8 O80 2.702525 1_654
Na8 O78 2.718157 1_664
Na9 O95 2.384960 1_555
Na9 O90 2.523567 1_545
Na9 O92 2.543947 1_555
Na9 O81 2.691534 1_544
Na9 O82 2.700873 1_544
Na9 O79 2.703333 1_554
Na10 O108 2.497829 1_555
Na10 O100 2.518689 1_555
Na10 O98 2.552205 1_555
Na10 O110 2.574339 1_555
Na10 O112 2.590962 1_555
Na10 O96 2.626881 1_555
Na11 O109 2.490272 1_555
Na11 O101 2.538336 1_555
Na11 O99 2.564375 1_555
Na11 O113 2.578788 1_555
Na11 O111 2.601988 1_555
Na11 O97 2.641499 1_555
Na12 O116 2.473398 1_555
Na12 O118 2.474857 1_555
Na12 O114 2.488139 1_555
Na12 O102 2.766793 1_555
Na12 O104 2.772720 1_555
Na12 O106 2.782370 1_555
Na13 O115 2.468003 1_555
Na13 O105 2.503060 1_555
Na13 O107 2.531131 1_555
Na13 O119 2.570087 1_555
Na13 O117 2.575973 1_555
Na13 O103 2.649782 1_555
Na14 O134 2.451497 1_555
Na14 O136 2.526025 1_555
Na14 O132 2.605019 1_555
Na14 O120 2.642995 1_555
Na14 O124 2.697541 1_555
Na14 O122 2.838988 1_555
Na15 O133 2.437930 1_555
Na15 O135 2.567327 1_555
Na15 O137 2.684314 1_555
Na15 O123 2.687221 1_555
Na15 O125 2.704033 1_555
Na15 O121 2.866346 1_555
Na16 O128 2.554636 1_555
Na16 O142 2.589876 1_555
Na16 O138 2.630971 1_555
Na16 O126 2.682877 1_555
Na16 O130 2.688975 1_555
Na16 O140 2.776865 1_555
Na17 O129 2.568035 1_555
Na17 O143 2.585345 1_555
Na17 O139 2.621953 1_555
Na17 O127 2.689600 1_555
Na17 O131 2.693574 1_555
Na17 O141 2.769270 1_555
In0 O13 2.105735 1_555
In0 O89 2.115953 1_555
In0 O16 2.119602 1_655
In0 O14 2.125977 1_665
In0 O86 2.131687 1_665
In0 O85 2.142820 1_665
In1 O12 2.107381 1_555
In1 O88 2.114406 1_555
In1 O17 2.118117 1_555
In1 O15 2.124892 1_565
In1 O87 2.134908 1_565
In1 O84 2.139269 1_565
In2 O20 2.092905 1_655
In2 O19 2.096762 1_545
In2 O22 2.110444 1_645
In2 O93 2.133208 1_555
In2 O94 2.157716 1_655
In2 O91 2.168575 1_645
In3 O23 2.084965 1_555
In3 O18 2.086778 1_555
In3 O21 2.096874 1_565
In3 O95 2.139704 1_565
In3 O90 2.140598 1_555
In3 O92 2.146863 1_565
In4 O28 2.097147 1_555
In4 O26 2.171364 1_555
In4 O24 2.174870 1_555
In4 O100 2.241240 1_555
In4 O98 2.270404 1_555
In4 O96 2.343436 1_555
In5 O29 2.097989 1_555
In5 O27 2.169776 1_555
In5 O25 2.171262 1_555
In5 O101 2.242724 1_555
In5 O99 2.269786 1_555
In5 O97 2.343107 1_555
In6 O33 2.108385 1_555
In6 O35 2.196280 1_555
In6 O31 2.198111 1_555
In6 O105 2.217388 1_555
In6 O107 2.243387 1_555
In6 O103 2.316845 1_555
In7 O40 2.075835 1_556
In7 O38 2.077822 1_556
In7 O36 2.085226 1_556
In7 O108 2.139616 1_555
In7 O112 2.145979 1_555
In7 O110 2.149965 1_555
In8 O41 2.071563 1_556
In8 O37 2.077705 1_556
In8 O39 2.081681 1_556
In8 O109 2.148903 1_555
In8 O111 2.164371 1_555
In8 O113 2.167394 1_555
In9 O44 2.072219 1_555
In9 O46 2.073048 1_555
In9 O42 2.073168 1_555
In9 O116 2.155967 1_555
In9 O114 2.157911 1_555
In9 O118 2.158491 1_555
In10 O45 2.070639 1_555
In10 O47 2.081585 1_555
In10 O43 2.083681 1_555
In10 O115 2.148336 1_555
In10 O119 2.172199 1_555
In10 O117 2.172829 1_555
In11 O62 2.067406 1_555
In11 O64 2.068607 1_555
In11 O60 2.128646 1_555
In11 O134 2.143415 1_555
In11 O136 2.167232 1_555
In11 O132 2.201185 1_555
In12 O63 2.066850 1_555
In12 O61 2.067616 1_555
In12 O65 2.125014 1_555
In12 O133 2.126350 1_555
In12 O135 2.178909 1_555
In12 O137 2.192111 1_555
In13 O70 2.050864 1_555
In13 O68 2.099261 1_555
In13 O66 2.101158 1_555
In13 O138 2.154440 1_555
In13 O142 2.160440 1_555
In13 O140 2.196896 1_555
In14 O71 2.051114 1_555
In14 O69 2.102457 1_555
In14 O67 2.104704 1_555
In14 O139 2.158603 1_555
In14 O143 2.159510 1_555
In14 O141 2.200864 1_555
O0 P0 1.577586 1_555
O0 Ta0 2.032340 1_555
O1 P1 1.603509 1_545
O1 Ta1 1.970461 1_545
O2 P2 1.577753 1_555
O2 Ta1 2.012004 1_555
O3 P3 1.597164 1_555
O3 Ta0 1.990435 1_665
O4 P5 1.580094 1_555
O4 Ta1 2.028560 1_545
O5 P4 1.592772 1_655
O5 Ta0 1.964573 1_655
O6 P6 1.601231 1_555
O6 Ta2 1.989028 1_445
O7 P7 1.600481 1_555
O7 Ta3 1.985499 1_545
O8 P9 1.590319 1_555
O8 Ta3 1.978091 1_555
O9 P8 1.591822 1_555
O9 Ta2 1.980643 1_555
O10 P10 1.595604 1_545
O10 Ta3 1.984583 1_545
O11 P11 1.597567 1_545
O11 Ta2 1.983715 1_545
O12 P10 1.510269 1_555
O13 P11 1.510328 1_555
O14 P6 1.519579 1_555
O15 P7 1.520089 1_555
O16 P8 1.518560 1_455
O17 P9 1.518005 1_555
O18 P2 1.505206 1_555
O19 P3 1.511423 1_555
O20 P4 1.510964 1_555
O21 P5 1.513997 1_555
O22 P0 1.515067 1_565
O23 P1 1.513577 1_555
O24 P12 1.558343 1_555
O25 P13 1.559016 1_555
O26 P14 1.559332 1_555
O27 P15 1.559048 1_555
O28 P16 1.543072 1_555
O29 P17 1.542358 1_555
O30 P18 1.594466 1_555
O30 Ta4 1.990426 1_555
O31 P19 1.549137 1_555
O32 P20 1.590143 1_555
O32 Ta4 2.000490 1_555
O33 P21 1.536372 1_555
O34 P22 1.594679 1_555
O34 Ta4 1.989285 1_555
O35 P23 1.550128 1_555
O36 P22 1.507121 1_555
O37 P23 1.510310 1_555
O38 P18 1.506437 1_555
O39 P19 1.509654 1_555
O40 P20 1.507843 1_555
O41 P21 1.511150 1_555
O42 P14 1.508718 1_555
O43 P15 1.509222 1_555
O44 P16 1.509049 1_555
O45 P17 1.509937 1_555
O46 P12 1.508590 1_555
O47 P13 1.508613 1_555
O48 P24 1.570853 1_555
O48 Ta5 2.013060 1_556
O49 P25 1.565901 1_555
O49 Ta6 2.008327 1_556
O50 P26 1.578829 1_555
O50 Ta5 2.015567 1_556
O51 P27 1.565934 1_555
O51 Ta6 2.011989 1_556
O52 P28 1.573073 1_555
O52 Ta5 2.008682 1_556
O53 P29 1.569452 1_555
O53 Ta6 2.028640 1_556
O54 P30 1.565042 1_555
O54 Ta7 2.010825 1_555
O55 P31 1.567118 1_555
O55 Ta8 2.010741 1_555
O56 P32 1.567313 1_555
O56 Ta7 2.006584 1_555
O57 P33 1.568901 1_555
O57 Ta8 2.024519 1_555
O58 P34 1.570415 1_555
O58 Ta7 2.008531 1_555
O59 P35 1.568491 1_555
O59 Ta8 2.006805 1_555
O60 P34 1.525869 1_555
O61 P35 1.510044 1_555
O62 P30 1.512615 1_555
O63 P31 1.510797 1_555
O64 P32 1.510913 1_555
O65 P33 1.525278 1_555
O66 P26 1.527347 1_555
O67 P27 1.526814 1_555
O68 P28 1.525529 1_555
O69 P29 1.529197 1_555
O70 P24 1.514387 1_555
O71 P25 1.516278 1_555
O72 P34 1.583748 1_555
O72 Ta0 2.016409 1_565
O73 P35 1.589139 1_555
O73 Ta1 1.998007 1_555
O74 P30 1.586577 1_555
O74 Ta1 1.995616 1_555
O75 P31 1.587357 1_555
O75 Ta0 2.004446 1_665
O76 P32 1.584589 1_555
O76 Ta0 1.998566 1_555
O77 P33 1.590991 1_555
O77 Ta1 2.010771 1_545
O78 P26 1.583801 1_555
O78 Ta2 2.018969 1_445
O79 P27 1.580939 1_555
O79 Ta3 2.014514 1_545
O80 P28 1.581091 1_555
O80 Ta2 2.023227 1_455
O81 P29 1.583911 1_555
O81 Ta3 2.011983 1_555
O82 P24 1.580308 1_555
O82 Ta3 2.005381 1_555
O83 P25 1.584714 1_555
O83 Ta2 2.004406 1_555
O84 P12 1.526509 1_555
O85 P13 1.527215 1_455
O86 P14 1.526631 1_555
O87 P15 1.527209 1_555
O88 P16 1.526846 1_555
O89 P17 1.526947 1_555
O90 P18 1.515488 1_555
O91 P19 1.527288 1_455
O92 P20 1.513186 1_555
O93 P21 1.529180 1_555
O94 P22 1.512074 1_555
O95 P23 1.531237 1_555
O96 P10 1.557344 1_545
O97 P11 1.556564 1_545
O98 P6 1.543160 1_555
O99 P7 1.542777 1_555
O100 P9 1.539545 1_555
O101 P8 1.539066 1_555
O102 P2 1.592883 1_555
O102 Ta4 2.012452 1_555
O103 P3 1.558286 1_555
O104 P5 1.575656 1_555
O104 Ta4 2.035528 1_555
O105 P4 1.550970 1_655
O106 P0 1.578885 1_555
O106 Ta4 2.034452 1_555
O107 P1 1.554210 1_545
O108 P24 1.515508 1_555
O109 P25 1.515096 1_555
O110 P27 1.516291 1_555
O111 P26 1.514511 1_655
O112 P28 1.516251 1_545
O113 P29 1.517021 1_545
O114 P30 1.519237 1_545
O115 P31 1.519167 1_545
O116 P32 1.519011 1_555
O117 P33 1.519443 1_555
O118 P35 1.517819 1_555
O119 P34 1.518619 1_655
O120 P22 1.588361 1_555
O120 Ta5 2.027198 1_555
O121 P23 1.600085 1_555
O121 Ta6 1.950000 1_555
O122 P19 1.612123 1_455
O122 Ta5 1.939195 1_555
O123 P18 1.580063 1_555
O123 Ta6 2.034384 1_555
O124 P20 1.584392 1_565
O124 Ta5 2.019844 1_555
O125 P21 1.602105 1_565
O125 Ta6 1.946801 1_555
O126 P14 1.590161 1_565
O126 Ta7 1.974701 1_555
O127 P15 1.593348 1_565
O127 Ta8 1.972052 1_555
O128 P16 1.588994 1_555
O128 Ta7 1.964336 1_555
O129 P17 1.590306 1_555
O129 Ta8 1.963355 1_555
O130 P13 1.593088 1_455
O130 Ta7 1.969547 1_555
O131 P12 1.593111 1_555
O131 Ta8 1.971484 1_555
O132 P0 1.532871 1_565
O133 P1 1.522381 1_555
O134 P2 1.521866 1_555
O135 P3 1.537210 1_555
O136 P4 1.544847 1_555
O137 P5 1.529518 1_555
O138 P6 1.536109 1_555
O139 P7 1.535536 1_555
O140 P8 1.552829 1_455
O141 P9 1.552150 1_555
O142 P10 1.538897 1_555
O143 P11 1.538663 1_555
