# generated using pymatgen
data_LaTaP2SO12
_symmetry_space_group_name_H-M   'P 1'
_cell_length_a   9.28341733
_cell_length_b   9.25741248
_cell_length_c   22.75378136
_cell_angle_alpha   90.77362727
_cell_angle_beta   90.00000000
_cell_angle_gamma   120.09296730
_symmetry_Int_Tables_number   1
_chemical_formula_structural   LaTaP2SO12
_chemical_formula_sum   'La6 Ta6 P12 S6 O72'
_cell_volume   1691.69164427
_cell_formula_units_Z   6
loop_
 _symmetry_equiv_pos_site_id
 _symmetry_equiv_pos_as_xyz
  1  'x, y, z'
loop_
 _atom_site_type_symbol
 _atom_site_label
 _atom_site_symmetry_multiplicity
 _atom_site_fract_x
 _atom_site_fract_y
 _atom_site_fract_z
 _atom_site_occupancy
  La  La0  1  0.99804813  0.00281527  0.36918432  1
  La  La1  1  0.00476714  0.00281527  0.86918432  1
  La  La2  1  0.66471513  0.33614827  0.70251732  1
  La  La3  1  0.67143414  0.33614827  0.20251732  1
  La  La4  1  0.33138113  0.66948227  0.03585132  1
  La  La5  1  0.33810014  0.66948227  0.53585132  1
  Ta  Ta0  1  0.99060608  0.00682942  0.64346843  1
  Ta  Ta1  1  0.01622334  0.00682942  0.14346843  1
  Ta  Ta2  1  0.65727308  0.34016242  0.97680143  1
  Ta  Ta3  1  0.68289034  0.34016242  0.47680143  1
  Ta  Ta4  1  0.32393908  0.67349642  0.31013543  1
  Ta  Ta5  1  0.34955634  0.67349642  0.81013543  1
  P  P0  1  0.26260760  0.96807441  0.24935313  1
  P  P1  1  0.03935377  0.29756393  0.25031958  1
  P  P2  1  0.25821016  0.29756393  0.75031958  1
  P  P3  1  0.70546681  0.96807441  0.74935313  1
  P  P4  1  0.92927460  0.30140741  0.58268613  1
  P  P5  1  0.70602077  0.63089693  0.58365258  1
  P  P6  1  0.92487716  0.63089693  0.08365258  1
  P  P7  1  0.37213381  0.30140741  0.08268613  1
  P  P8  1  0.59594060  0.63474141  0.91602013  1
  P  P9  1  0.37268677  0.96423093  0.91698658  1
  P  P10  1  0.59154316  0.96423093  0.41698658  1
  P  P11  1  0.03879981  0.63474141  0.41602013  1
  S  S0  1  0.69339530  0.73824083  0.24953941  1
  S  S1  1  0.04484553  0.73824083  0.74953941  1
  S  S2  1  0.36006230  0.07157383  0.58287241  1
  S  S3  1  0.71151253  0.07157383  0.08287241  1
  S  S4  1  0.02672830  0.40490783  0.91620641  1
  S  S5  1  0.37817853  0.40490783  0.41620641  1
  O  O0  1  0.19138062  0.00158092  0.30326949  1
  O  O1  1  0.79365477  0.80124138  0.30273456  1
  O  O2  1  0.00316927  0.19356111  0.30406829  1
  O  O3  1  0.19039183  0.19356111  0.80406829  1
  O  O4  1  0.00758661  0.80124138  0.80273456  1
  O  O5  1  0.81020030  0.00158092  0.80326949  1
  O  O6  1  0.79768159  0.94033329  0.69460379  1
  O  O7  1  0.13650942  0.19907376  0.69600507  1
  O  O8  1  0.06739027  0.84616238  0.69809449  1
  O  O9  1  0.77877211  0.84616238  0.19809449  1
  O  O10  1  0.06256434  0.19907376  0.19600507  1
  O  O11  1  0.14265170  0.94033329  0.19460379  1
  O  O12  1  0.85804762  0.33491392  0.63660249  1
  O  O13  1  0.46032177  0.13457438  0.63606756  1
  O  O14  1  0.66983627  0.52689411  0.63740129  1
  O  O15  1  0.85705883  0.52689411  0.13740129  1
  O  O16  1  0.67425361  0.13457438  0.13606756  1
  O  O17  1  0.47686730  0.33491392  0.13660249  1
  O  O18  1  0.46434859  0.27366629  0.02793679  1
  O  O19  1  0.80317642  0.53240676  0.02933807  1
  O  O20  1  0.73405727  0.17949538  0.03142749  1
  O  O21  1  0.44543911  0.17949538  0.53142749  1
  O  O22  1  0.72923134  0.53240676  0.52933807  1
  O  O23  1  0.80931870  0.27366629  0.52793679  1
  O  O24  1  0.52471362  0.66824792  0.96993649  1
  O  O25  1  0.12698777  0.46790838  0.96940156  1
  O  O26  1  0.33650227  0.86022811  0.97073529  1
  O  O27  1  0.52372483  0.86022811  0.47073529  1
  O  O28  1  0.34091961  0.46790838  0.46940156  1
  O  O29  1  0.14353330  0.66824792  0.46993649  1
  O  O30  1  0.13101459  0.60700029  0.36127079  1
  O  O31  1  0.46984242  0.86574076  0.36267207  1
  O  O32  1  0.40072327  0.51282938  0.36476149  1
  O  O33  1  0.11210511  0.51282938  0.86476149  1
  O  O34  1  0.39589734  0.86574076  0.86267207  1
  O  O35  1  0.47598470  0.60700029  0.86127079  1
  O  O36  1  0.99050081  0.76264518  0.40208046  1
  O  O37  1  0.76709134  0.00894153  0.40238083  1
  O  O38  1  0.25018923  0.23125619  0.40546798  1
  O  O39  1  0.98106696  0.23125619  0.90546798  1
  O  O40  1  0.24185018  0.00894153  0.90238083  1
  O  O41  1  0.77214437  0.76264518  0.90208046  1
  O  O42  1  0.92831191  0.12847666  0.59186272  1
  O  O43  1  0.19677675  0.07044287  0.59270199  1
  O  O44  1  0.87543877  0.80276087  0.59486546  1
  O  O45  1  0.92732209  0.80276087  0.09486546  1
  O  O46  1  0.87366612  0.07044287  0.09270199  1
  O  O47  1  0.20016474  0.12847666  0.09186272  1
  O  O48  1  0.65716781  0.09597818  0.73541346  1
  O  O49  1  0.43375834  0.34227453  0.73571383  1
  O  O50  1  0.91685623  0.56458919  0.73880098  1
  O  O51  1  0.64773396  0.56458919  0.23880098  1
  O  O52  1  0.90851718  0.34227453  0.23571383  1
  O  O53  1  0.43881137  0.09597818  0.23541346  1
  O  O54  1  0.59497891  0.46180966  0.92519572  1
  O  O55  1  0.86344375  0.40377587  0.92603499  1
  O  O56  1  0.54210577  0.13609387  0.92819846  1
  O  O57  1  0.59398909  0.13609387  0.42819846  1
  O  O58  1  0.54033312  0.40377587  0.42603499  1
  O  O59  1  0.86683174  0.46180966  0.42519572  1
  O  O60  1  0.32383381  0.42931218  0.06874746  1
  O  O61  1  0.10042434  0.67560853  0.06904783  1
  O  O62  1  0.58352223  0.89792319  0.07213498  1
  O  O63  1  0.31439996  0.89792319  0.57213498  1
  O  O64  1  0.57518318  0.67560853  0.56904783  1
  O  O65  1  0.10547737  0.42931218  0.56874746  1
  O  O66  1  0.26164491  0.79514366  0.25852972  1
  O  O67  1  0.53010975  0.73710987  0.25936899  1
  O  O68  1  0.20877177  0.46942787  0.26153246  1
  O  O69  1  0.26065509  0.46942787  0.76153246  1
  O  O70  1  0.20699912  0.73710987  0.75936899  1
  O  O71  1  0.53349774  0.79514366  0.75852972  1
loop_
_geom_bond_atom_site_label_1
_geom_bond_atom_site_label_2
_geom_bond_distance
_geom_bond_site_symmetry_2
La0 O37 2.300342 1_555
La0 O2 2.302621 1_655
La0 O36 2.323188 1_545
La0 O0 2.343273 1_655
La0 O38 2.371016 1_655
La0 O1 2.396189 1_545
La1 O40 2.300342 1_555
La1 O3 2.302621 1_555
La1 O41 2.323188 1_445
La1 O5 2.343273 1_455
La1 O39 2.371016 1_455
La1 O4 2.396189 1_545
La2 O49 2.300342 1_555
La2 O14 2.302621 1_555
La2 O48 2.323188 1_555
La2 O12 2.343273 1_555
La2 O50 2.371016 1_555
La2 O13 2.396189 1_555
La3 O52 2.300342 1_555
La3 O15 2.302621 1_555
La3 O53 2.323188 1_555
La3 O17 2.343273 1_555
La3 O51 2.371016 1_555
La3 O16 2.396189 1_555
La4 O61 2.300342 1_555
La4 O26 2.302621 1_554
La4 O60 2.323188 1_555
La4 O24 2.343273 1_554
La4 O62 2.371016 1_555
La4 O25 2.396189 1_554
La5 O64 2.300342 1_555
La5 O27 2.302621 1_555
La5 O65 2.323188 1_555
La5 O29 2.343273 1_555
La5 O63 2.371016 1_555
La5 O28 2.396189 1_555
O0 P0 1.494618 1_545
O1 S0 1.451919 1_555
O2 P1 1.497659 1_555
O3 P2 1.497659 1_555
O4 S1 1.451919 1_555
O5 P3 1.494618 1_545
O6 P3 1.600792 1_555
O6 Ta0 1.963196 1_565
O7 P2 1.603645 1_555
O7 Ta0 1.989001 1_455
O8 S1 1.494682 1_555
O8 Ta0 2.319138 1_465
O9 S0 1.494682 1_555
O9 Ta1 2.319138 1_665
O10 P1 1.603645 1_555
O10 Ta1 1.989001 1_555
O11 P0 1.600792 1_555
O11 Ta1 1.963196 1_565
O12 P4 1.494618 1_555
O13 S2 1.451919 1_555
O14 P5 1.497659 1_555
O15 P6 1.497659 1_555
O16 S3 1.451919 1_555
O17 P7 1.494618 1_555
O18 P7 1.600792 1_555
O18 Ta2 1.963196 1_554
O19 P6 1.603645 1_555
O19 Ta2 1.989001 1_554
O20 S3 1.494682 1_555
O20 Ta2 2.319138 1_554
O21 S2 1.494682 1_555
O21 Ta3 2.319138 1_555
O22 P5 1.603645 1_555
O22 Ta3 1.989001 1_555
O23 P4 1.600792 1_555
O23 Ta3 1.963196 1_555
O24 P8 1.494618 1_555
O25 S4 1.451919 1_555
O26 P9 1.497659 1_555
O27 P10 1.497659 1_555
O28 S5 1.451919 1_555
O29 P11 1.494618 1_555
O30 P11 1.600792 1_555
O30 Ta4 1.963196 1_555
O31 P10 1.603645 1_555
O31 Ta4 1.989001 1_555
O32 S5 1.494682 1_555
O32 Ta4 2.319138 1_555
O33 S4 1.494682 1_555
O33 Ta5 2.319138 1_555
O34 P9 1.603645 1_555
O34 Ta5 1.989001 1_555
O35 P8 1.600792 1_555
O35 Ta5 1.963196 1_555
O36 P11 1.498727 1_655
O37 P10 1.504968 1_545
O38 S5 1.459345 1_555
O39 S4 1.459348 1_655
O40 P9 1.504959 1_545
O41 P8 1.498733 1_555
O42 P4 1.612827 1_555
O42 Ta0 1.915780 1_555
O43 S2 1.527114 1_555
O43 Ta0 2.057297 1_455
O44 P5 1.596794 1_555
O44 Ta0 1.962932 1_565
O45 P6 1.596798 1_555
O45 Ta1 1.962932 1_665
O46 S3 1.527105 1_555
O46 Ta1 2.057297 1_655
O47 P7 1.612831 1_555
O47 Ta1 1.915780 1_555
O48 P3 1.498727 1_545
O49 P2 1.504968 1_555
O50 S1 1.459345 1_655
O51 S0 1.459348 1_555
O52 P1 1.504959 1_655
O53 P0 1.498733 1_545
O54 P8 1.612837 1_555
O54 Ta2 1.915780 1_555
O55 S4 1.527097 1_655
O55 Ta2 2.057297 1_555
O56 P9 1.596790 1_545
O56 Ta2 1.962932 1_555
O57 P10 1.596781 1_545
O57 Ta3 1.962932 1_555
O58 S5 1.527115 1_555
O58 Ta3 2.057297 1_555
O59 P11 1.612828 1_655
O59 Ta3 1.915780 1_555
O60 P7 1.498737 1_555
O61 P6 1.504952 1_455
O62 S3 1.459338 1_565
O63 S2 1.459333 1_565
O64 P5 1.504969 1_555
O65 P4 1.498724 1_455
O66 P0 1.612827 1_555
O66 Ta4 1.915780 1_555
O67 S0 1.527114 1_555
O67 Ta4 2.057297 1_555
O68 P1 1.596794 1_555
O68 Ta4 1.962932 1_555
O69 P2 1.596798 1_555
O69 Ta5 1.962932 1_555
O70 S1 1.527105 1_555
O70 Ta5 2.057297 1_555
O71 P3 1.612831 1_555
O71 Ta5 1.915780 1_555
