# generated using pymatgen
data_Ba2Pr4Mg(CuO5)2
_symmetry_space_group_name_H-M   'P 1'
_cell_length_a   5.93148741
_cell_length_b   6.95195477
_cell_length_c   7.66161462
_cell_angle_alpha   81.59393578
_cell_angle_beta   90.00000000
_cell_angle_gamma   90.00000000
_symmetry_Int_Tables_number   1
_chemical_formula_structural   Ba2Pr4Mg(CuO5)2
_chemical_formula_sum   'Ba2 Pr4 Mg1 Cu2 O10'
_cell_volume   312.53591210
_cell_formula_units_Z   1
loop_
 _symmetry_equiv_pos_site_id
 _symmetry_equiv_pos_as_xyz
  1  'x, y, z'
loop_
 _atom_site_type_symbol
 _atom_site_label
 _atom_site_symmetry_multiplicity
 _atom_site_fract_x
 _atom_site_fract_y
 _atom_site_fract_z
 _atom_site_occupancy
  Ba  Ba0  1  -0.00000000  0.54713360  0.59405910  1
  Ba  Ba1  1  -0.00000000  0.98658041  0.00405294  1
  Pr  Pr0  1  0.50000000  0.85271575  0.33197942  1
  Pr  Pr1  1  0.50000000  0.64482301  0.83856433  1
  Pr  Pr2  1  0.50000000  0.41364884  0.27432193  1
  Pr  Pr3  1  0.50000000  0.13600619  0.66420697  1
  Mg  Mg0  1  0.50000000  0.19310569  0.02310088  1
  Cu  Cu0  1  -0.00000000  0.49621515  0.03725132  1
  Cu  Cu1  1  -0.00000000  0.02784622  0.44391506  1
  O  O0  1  0.25446923  0.64702639  0.14735922  1
  O  O1  1  0.26269946  0.35001197  0.86795926  1
  O  O2  1  0.27059058  0.12651510  0.25023432  1
  O  O3  1  0.25789435  0.87303956  0.60751384  1
  O  O4  1  0.74553077  0.64702639  0.14735922  1
  O  O5  1  0.74210565  0.87303956  0.60751384  1
  O  O6  1  0.72940942  0.12651510  0.25023432  1
  O  O7  1  0.73730054  0.35001197  0.86795926  1
  O  O8  1  0.50000000  0.95787802  0.93057027  1
  O  O9  1  0.50000000  0.50086108  0.53777049  1
loop_
_geom_bond_atom_site_label_1
_geom_bond_atom_site_label_2
_geom_bond_distance
_geom_bond_site_symmetry_2
Ba0 O3 2.748128 1_555
Ba0 O5 2.748128 1_455
Ba0 O7 2.805156 1_455
Ba0 O1 2.805156 1_555
Ba0 O9 3.020871 1_555
Ba0 O9 3.020871 1_455
Ba1 O6 2.759790 1_465
Ba1 O2 2.759790 1_565
Ba1 O4 2.880664 1_455
Ba1 O0 2.880664 1_555
Ba1 O1 3.021334 1_564
Ba1 O7 3.021334 1_464
Ba1 O8 3.030719 1_554
Ba1 O8 3.030719 1_454
Mg0 O8 1.875026 1_544
Mg0 O1 2.050563 1_554
Mg0 O7 2.050563 1_554
Mg0 O2 2.204248 1_555
Mg0 O6 2.204248 1_555
Cu0 O0 2.085115 1_555
Cu0 O4 2.085115 1_455
Cu0 O1 2.351347 1_554
Cu0 O7 2.351347 1_454
Cu1 O3 2.162149 1_545
Cu1 O5 2.162149 1_445
Cu1 O6 2.225070 1_455
Cu1 O2 2.225070 1_555
O0 Pr2 2.288682 1_555
O0 Pr0 2.599592 1_555
O0 Pr1 2.780135 1_554
O1 Pr1 2.469302 1_555
O1 Pr3 2.703811 1_555
O2 Pr0 2.349128 1_545
O2 Pr2 2.444986 1_555
O3 Pr3 2.413531 1_565
O3 Pr0 2.574079 1_555
O3 Pr1 2.625243 1_555
O4 Pr2 2.288682 1_555
O4 Pr0 2.599592 1_555
O4 Pr1 2.780135 1_554
O5 Pr3 2.413531 1_565
O5 Pr0 2.574079 1_555
O5 Pr1 2.625243 1_555
O6 Pr0 2.349128 1_545
O6 Pr2 2.444986 1_555
O7 Pr1 2.469302 1_555
O7 Pr3 2.703811 1_555
O8 Pr3 2.226961 1_565
O8 Pr1 2.383678 1_555
O9 Pr2 2.190776 1_555
O9 Pr3 2.579458 1_555
O9 Pr1 2.643295 1_555
O9 Pr0 2.709547 1_555
