# generated using pymatgen
data_Cr2(PO4)3
_symmetry_space_group_name_H-M   'P 1'
_cell_length_a   8.57279900
_cell_length_b   8.43345700
_cell_length_c   14.45091507
_cell_angle_alpha   55.18746590
_cell_angle_beta   90.00000000
_cell_angle_gamma   90.00000000
_symmetry_Int_Tables_number   1
_chemical_formula_structural   Cr2(PO4)3
_chemical_formula_sum   'Cr8 P12 O48'
_cell_volume   857.78738870
_cell_formula_units_Z   4
loop_
 _symmetry_equiv_pos_site_id
 _symmetry_equiv_pos_as_xyz
  1  'x, y, z'
loop_
 _atom_site_type_symbol
 _atom_site_label
 _atom_site_symmetry_multiplicity
 _atom_site_fract_x
 _atom_site_fract_y
 _atom_site_fract_z
 _atom_site_occupancy
  Cr  Cr0  1  0.46666300  0.86587600  0.38077100  1
  Cr  Cr1  1  0.53044900  0.37241500  0.88124200  1
  Cr  Cr2  1  0.53333700  0.13412400  0.61922900  1
  Cr  Cr3  1  0.46955100  0.62758500  0.11875800  1
  Cr  Cr4  1  0.96955100  0.37241500  0.38124200  1
  Cr  Cr5  1  0.03044900  0.62758500  0.61875800  1
  Cr  Cr6  1  0.96666300  0.13412400  0.11922900  1
  Cr  Cr7  1  0.03333700  0.86587600  0.88077100  1
  P  P0  1  0.61231400  0.96627100  0.14373600  1
  P  P1  1  0.11231400  0.03372900  0.35626400  1
  P  P2  1  0.24793600  0.45899900  0.00802200  1
  P  P3  1  0.74793600  0.54100100  0.49197800  1
  P  P4  1  0.61770000  0.24950000  0.35425600  1
  P  P5  1  0.25206400  0.45899900  0.50802200  1
  P  P6  1  0.88768600  0.96627100  0.64373600  1
  P  P7  1  0.38768600  0.03372900  0.85626400  1
  P  P8  1  0.38230000  0.75050000  0.64574400  1
  P  P9  1  0.11770000  0.75050000  0.14574400  1
  P  P10  1  0.75206400  0.54100100  0.99197800  1
  P  P11  1  0.88230000  0.24950000  0.85425600  1
  O  O0  1  0.57645900  0.09986500  0.32884400  1
  O  O1  1  0.12589100  0.47998700  0.42678100  1
  O  O2  1  0.18535700  0.47821200  0.60089700  1
  O  O3  1  0.49139300  0.90884600  0.23735700  1
  O  O4  1  0.33237800  0.26187500  0.56589800  1
  O  O5  1  0.99139300  0.09115400  0.26264300  1
  O  O6  1  0.70639900  0.29056300  0.83100200  1
  O  O7  1  0.51993300  0.43372200  0.27317700  1
  O  O8  1  0.92437400  0.17353900  0.97551200  1
  O  O9  1  0.07562600  0.82646100  0.02448800  1
  O  O10  1  0.57562600  0.17353900  0.47551200  1
  O  O11  1  0.72558300  0.98854100  0.67943100  1
  O  O12  1  0.62589100  0.52001300  0.07321900  1
  O  O13  1  0.37410900  0.47998700  0.92678100  1
  O  O14  1  0.00860700  0.90884600  0.73735700  1
  O  O15  1  0.42437400  0.82646100  0.52448800  1
  O  O16  1  0.88549700  0.80580200  0.62256400  1
  O  O17  1  0.66762200  0.73812500  0.43410200  1
  O  O18  1  0.79360100  0.29056300  0.33100200  1
  O  O19  1  0.83237800  0.73812500  0.93410200  1
  O  O20  1  0.31464300  0.47821200  0.10089700  1
  O  O21  1  0.27441700  0.01145900  0.32056900  1
  O  O22  1  0.01993300  0.56627800  0.22682300  1
  O  O23  1  0.50860700  0.09115400  0.76264300  1
  O  O24  1  0.16762200  0.26187500  0.06589800  1
  O  O25  1  0.62893300  0.37733100  0.56504500  1
  O  O26  1  0.87410900  0.52001300  0.57321900  1
  O  O27  1  0.81464300  0.52178800  0.39910300  1
  O  O28  1  0.93822900  0.16016200  0.53777300  1
  O  O29  1  0.48006700  0.56627800  0.72682300  1
  O  O30  1  0.56177100  0.16016200  0.03777300  1
  O  O31  1  0.92354100  0.09986500  0.82884400  1
  O  O32  1  0.43822900  0.83983800  0.96222700  1
  O  O33  1  0.07645900  0.90013500  0.17115600  1
  O  O34  1  0.87106700  0.37733100  0.06504500  1
  O  O35  1  0.12893300  0.62266900  0.93495500  1
  O  O36  1  0.11450300  0.19419800  0.37743600  1
  O  O37  1  0.29360100  0.70943700  0.16899800  1
  O  O38  1  0.22558300  0.01145900  0.82056900  1
  O  O39  1  0.20639900  0.70943700  0.66899800  1
  O  O40  1  0.68535700  0.52178800  0.89910300  1
  O  O41  1  0.98006700  0.43372200  0.77317700  1
  O  O42  1  0.42354100  0.90013500  0.67115600  1
  O  O43  1  0.61450300  0.80580200  0.12256400  1
  O  O44  1  0.38549700  0.19419800  0.87743600  1
  O  O45  1  0.06177100  0.83983800  0.46222700  1
  O  O46  1  0.77441700  0.98854100  0.17943100  1
  O  O47  1  0.37106700  0.62266900  0.43495500  1
loop_
_geom_bond_atom_site_label_1
_geom_bond_atom_site_label_2
_geom_bond_distance
_geom_bond_site_symmetry_2
Cr0 O3 1.901015 1_555
Cr0 O0 1.911121 1_565
Cr0 O47 1.912568 1_555
Cr0 O21 1.939300 1_565
Cr0 O15 1.940867 1_555
Cr0 O17 1.942841 1_555
Cr1 O29 1.916638 1_555
Cr1 O13 1.932376 1_555
Cr1 O30 1.941608 1_556
Cr1 O40 1.946371 1_555
Cr1 O6 1.962409 1_555
Cr1 O44 1.974979 1_555
Cr2 O23 1.901015 1_555
Cr2 O42 1.911121 1_545
Cr2 O25 1.912568 1_555
Cr2 O11 1.939300 1_545
Cr2 O10 1.940867 1_555
Cr2 O4 1.942841 1_555
Cr3 O7 1.916638 1_555
Cr3 O12 1.932376 1_555
Cr3 O32 1.941608 1_554
Cr3 O20 1.946371 1_555
Cr3 O37 1.962409 1_555
Cr3 O43 1.974979 1_555
Cr4 O22 1.916638 1_655
Cr4 O1 1.932376 1_655
Cr4 O28 1.941608 1_555
Cr4 O27 1.946371 1_555
Cr4 O18 1.962409 1_555
Cr4 O36 1.974979 1_655
Cr5 O41 1.916638 1_455
Cr5 O26 1.932376 1_455
Cr5 O45 1.941608 1_555
Cr5 O2 1.946371 1_555
Cr5 O39 1.962409 1_555
Cr5 O16 1.974979 1_455
Cr6 O5 1.901015 1_555
Cr6 O33 1.911121 1_645
Cr6 O34 1.912568 1_555
Cr6 O46 1.939300 1_545
Cr6 O8 1.940867 1_554
Cr6 O24 1.942841 1_655
Cr7 O14 1.901015 1_555
Cr7 O31 1.911121 1_465
Cr7 O35 1.912568 1_555
Cr7 O38 1.939300 1_565
Cr7 O9 1.940867 1_556
Cr7 O19 1.942841 1_455
O0 P4 1.543202 1_555
O1 P5 1.530469 1_555
O2 P5 1.550128 1_555
O3 P0 1.546417 1_555
O4 P5 1.532877 1_555
O5 P1 1.546417 1_655
O6 P11 1.540757 1_555
O7 P4 1.552612 1_555
O8 P11 1.526178 1_555
O9 P9 1.526178 1_555
O10 P4 1.526178 1_555
O11 P6 1.530740 1_555
O12 P10 1.530469 1_554
O13 P2 1.530469 1_556
O14 P6 1.546417 1_455
O15 P8 1.526178 1_555
O16 P6 1.548600 1_555
O17 P3 1.532877 1_555
O18 P4 1.540757 1_555
O19 P10 1.532877 1_555
O20 P2 1.550128 1_555
O21 P1 1.530740 1_555
O22 P9 1.552612 1_555
O23 P7 1.546417 1_555
O24 P2 1.532877 1_555
O25 P3 1.548170 1_555
O26 P3 1.530469 1_555
O27 P3 1.550128 1_555
O28 P6 1.532124 1_545
O29 P8 1.552612 1_555
O30 P0 1.532124 1_545
O31 P11 1.543202 1_555
O32 P7 1.532124 1_565
O33 P9 1.543202 1_555
O34 P10 1.548170 1_554
O35 P2 1.548170 1_556
O36 P1 1.548600 1_555
O37 P9 1.540757 1_555
O38 P7 1.530740 1_555
O39 P8 1.540757 1_555
O40 P10 1.550128 1_555
O41 P11 1.552612 1_555
O42 P8 1.543202 1_555
O43 P0 1.548600 1_555
O44 P7 1.548600 1_555
O45 P1 1.532124 1_565
O46 P0 1.530740 1_555
O47 P5 1.548170 1_555
