# generated using pymatgen
data_In2S3
_symmetry_space_group_name_H-M   'P 1'
_cell_length_a   7.03268077
_cell_length_b   7.03268115
_cell_length_c   7.03268033
_cell_angle_alpha   55.99817375
_cell_angle_beta   55.99816745
_cell_angle_gamma   55.99817573
_symmetry_Int_Tables_number   1
_chemical_formula_structural   In2S3
_chemical_formula_sum   'In4 S6'
_cell_volume   223.14809384
_cell_formula_units_Z   2
loop_
 _symmetry_equiv_pos_site_id
 _symmetry_equiv_pos_as_xyz
  1  'x, y, z'
loop_
 _atom_site_type_symbol
 _atom_site_label
 _atom_site_symmetry_multiplicity
 _atom_site_fract_x
 _atom_site_fract_y
 _atom_site_fract_z
 _atom_site_occupancy
  In  In0  1  0.85472191  0.85472191  0.85472191  1
  In  In1  1  0.64527809  0.64527809  0.64527809  1
  In  In2  1  0.14527809  0.14527809  0.14527809  1
  In  In3  1  0.35472191  0.35472191  0.35472191  1
  S  S0  1  0.04914373  0.75000000  0.45085627  1
  S  S1  1  0.75000000  0.45085627  0.04914373  1
  S  S2  1  0.45085627  0.04914373  0.75000000  1
  S  S3  1  0.95085627  0.25000000  0.54914373  1
  S  S4  1  0.54914373  0.95085627  0.25000000  1
  S  S5  1  0.25000000  0.54914373  0.95085627  1
loop_
_geom_bond_atom_site_label_1
_geom_bond_atom_site_label_2
_geom_bond_distance
_geom_bond_site_symmetry_2
In0 S4 2.568756 1_556
In0 S3 2.568756 1_565
In0 S5 2.568757 1_655
In0 S0 2.710867 1_655
In0 S2 2.710868 1_565
In0 S1 2.710868 1_556
In1 S5 2.568756 1_555
In1 S4 2.568756 1_555
In1 S3 2.568756 1_555
In1 S0 2.710868 1_655
In1 S1 2.710868 1_556
In1 S2 2.710868 1_565
In2 S2 2.568756 1_554
In2 S0 2.568756 1_545
In2 S1 2.568757 1_455
In2 S3 2.710867 1_455
In2 S4 2.710868 1_545
In2 S5 2.710868 1_554
In3 S1 2.568756 1_555
In3 S2 2.568756 1_555
In3 S0 2.568756 1_555
In3 S3 2.710868 1_455
In3 S5 2.710868 1_554
In3 S4 2.710868 1_545
