# generated using pymatgen
data_Ba2YbMg(CuO2)4
_symmetry_space_group_name_H-M   'P 1'
_cell_length_a   4.03418831
_cell_length_b   3.79545797
_cell_length_c   15.96519290
_cell_angle_alpha   96.30700045
_cell_angle_beta   90.00000000
_cell_angle_gamma   90.00000000
_symmetry_Int_Tables_number   1
_chemical_formula_structural   Ba2YbMg(CuO2)4
_chemical_formula_sum   'Ba2 Yb1 Mg1 Cu4 O8'
_cell_volume   242.97298379
_cell_formula_units_Z   1
loop_
 _symmetry_equiv_pos_site_id
 _symmetry_equiv_pos_as_xyz
  1  'x, y, z'
loop_
 _atom_site_type_symbol
 _atom_site_label
 _atom_site_symmetry_multiplicity
 _atom_site_fract_x
 _atom_site_fract_y
 _atom_site_fract_z
 _atom_site_occupancy
  Ba  Ba0  1  0.50000000  0.37240353  0.74400283  1
  Ba  Ba1  1  0.50000000  0.57569147  0.18088620  1
  Yb  Yb0  1  0.50000000  0.47917119  0.96484930  1
  Mg  Mg0  1  -0.00000000  0.69214090  0.35900335  1
  Cu  Cu0  1  0.00000000  0.93638635  0.87487321  1
  Cu  Cu1  1  0.00000000  0.02504921  0.06254510  1
  Cu  Cu2  1  -0.00000000  0.80596954  0.60625949  1
  Cu  Cu3  1  0.00000000  0.24538893  0.47623945  1
  O  O0  1  -0.00000000  0.30266153  0.59916900  1
  O  O1  1  -0.00000000  0.74664551  0.47965161  1
  O  O2  1  -0.00000000  0.44336763  0.89019638  1
  O  O3  1  -0.00000000  0.53444203  0.08270302  1
  O  O4  1  0.50000000  0.93823829  0.87817232  1
  O  O5  1  0.50000000  0.02882988  0.07042680  1
  O  O6  1  -0.00000000  0.86106978  0.72293860  1
  O  O7  1  -0.00000000  0.17325823  0.31826835  1
loop_
_geom_bond_atom_site_label_1
_geom_bond_atom_site_label_2
_geom_bond_distance
_geom_bond_site_symmetry_2
Ba0 O6 2.785455 1_555
Ba0 O6 2.785455 1_655
Ba0 O6 2.793718 1_545
Ba0 O6 2.793718 1_645
Ba0 O4 2.842412 1_545
Ba0 O4 2.861784 1_555
Ba0 O0 3.057939 1_655
Ba0 O0 3.057939 1_555
Ba0 O2 3.074197 1_555
Ba0 O2 3.074197 1_655
Ba1 O3 2.548796 1_555
Ba1 O3 2.548796 1_655
Ba1 O5 2.571734 1_555
Ba1 O5 2.595049 1_565
Mg0 O1 1.914521 1_555
Mg0 O7 2.004586 1_565
Mg0 O7 2.005011 1_555
Cu0 O2 1.912869 1_565
Cu0 O2 1.913618 1_555
Cu0 O4 2.017774 1_555
Cu0 O4 2.017774 1_455
Cu0 O6 2.411062 1_555
Cu1 O3 1.924207 1_545
Cu1 O3 1.924791 1_555
Cu1 O5 2.020968 1_555
Cu1 O5 2.020968 1_455
Cu2 O6 1.851535 1_555
Cu2 O0 1.900942 1_565
Cu2 O0 1.901181 1_555
Cu2 O1 2.009088 1_555
Cu3 O1 1.897287 1_555
Cu3 O1 1.899716 1_545
Cu3 O0 1.950716 1_555
Cu3 O7 2.506777 1_555
O2 Yb0 2.339242 1_455
O2 Yb0 2.339242 1_555
O3 Yb0 2.750675 1_454
O3 Yb0 2.750675 1_554
O4 Yb0 2.341057 1_555
O4 Yb0 2.346464 1_565
O5 Yb0 2.528966 1_554
O5 Yb0 2.533927 1_544
