# generated using pymatgen
data_Li3Cr2(PO4)3
_symmetry_space_group_name_H-M   'P 1'
_cell_length_a   8.49746725
_cell_length_b   8.49746725
_cell_length_c   6.34893837
_cell_angle_alpha   73.51538643
_cell_angle_beta   73.51538643
_cell_angle_gamma   92.06671546
_symmetry_Int_Tables_number   1
_chemical_formula_structural   Li3Cr2(PO4)3
_chemical_formula_sum   'Li6 Cr4 P6 O24'
_cell_volume   418.12284923
_cell_formula_units_Z   2
loop_
 _symmetry_equiv_pos_site_id
 _symmetry_equiv_pos_as_xyz
  1  'x, y, z'
loop_
 _atom_site_type_symbol
 _atom_site_label
 _atom_site_symmetry_multiplicity
 _atom_site_fract_x
 _atom_site_fract_y
 _atom_site_fract_z
 _atom_site_occupancy
  Li  Li0  1  0.27967500  0.72032500  0.75000000  1
  Li  Li1  1  0.50000000  0.50000000  0.00000000  1
  Li  Li2  1  0.72032500  0.27967500  0.25000000  1
  Li  Li3  1  0.02657300  0.97342700  0.25000000  1
  Li  Li4  1  0.50000000  0.50000000  0.50000000  1
  Li  Li5  1  0.97342700  0.02657300  0.75000000  1
  Cr  Cr0  1  0.05803400  0.38050900  0.36152000  1
  Cr  Cr1  1  0.38050900  0.05803400  0.86152000  1
  Cr  Cr2  1  0.61949100  0.94196600  0.13848000  1
  Cr  Cr3  1  0.94196600  0.61949100  0.63848000  1
  P  P0  1  0.86041400  0.65499100  0.13235100  1
  P  P1  1  0.71599200  0.28400800  0.75000000  1
  P  P2  1  0.28400800  0.71599200  0.25000000  1
  P  P3  1  0.13958600  0.34500900  0.86764900  1
  P  P4  1  0.65499100  0.86041400  0.63235100  1
  P  P5  1  0.34500900  0.13958600  0.36764900  1
  O  O0  1  0.74686300  0.16285700  0.96700900  1
  O  O1  1  0.40540700  0.05147900  0.17307600  1
  O  O2  1  0.15838800  0.16580200  0.39453200  1
  O  O3  1  0.00928000  0.34121200  0.09757000  1
  O  O4  1  0.99072000  0.65878800  0.90243000  1
  O  O5  1  0.84161200  0.83419800  0.60546800  1
  O  O6  1  0.59459300  0.94852100  0.82692400  1
  O  O7  1  0.65878800  0.99072000  0.40243000  1
  O  O8  1  0.83419800  0.84161200  0.10546800  1
  O  O9  1  0.94852100  0.59459300  0.32692400  1
  O  O10  1  0.53856300  0.70338100  0.69968800  1
  O  O11  1  0.16580200  0.15838800  0.89453200  1
  O  O12  1  0.70338100  0.53856300  0.19968800  1
  O  O13  1  0.83714300  0.25313700  0.53299100  1
  O  O14  1  0.73684400  0.46046100  0.77120800  1
  O  O15  1  0.46046100  0.73684400  0.27120800  1
  O  O16  1  0.53953900  0.26315600  0.72879200  1
  O  O17  1  0.25313700  0.83714300  0.03299100  1
  O  O18  1  0.16285700  0.74686300  0.46700900  1
  O  O19  1  0.29661900  0.46143700  0.80031200  1
  O  O20  1  0.26315600  0.53953900  0.22879200  1
  O  O21  1  0.46143700  0.29661900  0.30031200  1
  O  O22  1  0.05147900  0.40540700  0.67307600  1
  O  O23  1  0.34121200  0.00928000  0.59757000  1
loop_
_geom_bond_atom_site_label_1
_geom_bond_atom_site_label_2
_geom_bond_distance
_geom_bond_site_symmetry_2
Li0 O19 2.147659 1_555
Li0 O10 2.147659 1_555
Li0 O17 2.250044 1_556
Li0 O18 2.250044 1_555
Li0 O23 2.347461 1_565
Li0 O4 2.347461 1_455
Li1 O10 2.112825 1_554
Li1 O21 2.112825 1_555
Li1 O14 2.222609 1_554
Li1 O20 2.222609 1_555
Li1 O12 2.477872 1_555
Li1 O19 2.477872 1_554
Li2 O21 2.147659 1_555
Li2 O12 2.147659 1_555
Li2 O13 2.250044 1_555
Li2 O0 2.250044 1_554
Li2 O3 2.347461 1_655
Li2 O7 2.347461 1_545
Li3 O5 2.302359 1_455
Li3 O11 2.302359 1_564
Li3 O8 2.464027 1_455
Li3 O2 2.464027 1_565
Li3 O17 2.550849 1_555
Li3 O18 2.550849 1_555
Li4 O12 2.112825 1_555
Li4 O19 2.112825 1_555
Li4 O15 2.222609 1_555
Li4 O16 2.222609 1_555
Li4 O10 2.477872 1_555
Li4 O21 2.477872 1_555
Li5 O8 2.302359 1_546
Li5 O2 2.302359 1_655
Li5 O5 2.464027 1_545
Li5 O11 2.464027 1_655
Li5 O13 2.550849 1_555
Li5 O0 2.550849 1_555
Cr0 O3 1.947577 1_555
Cr0 O13 1.976084 1_455
Cr0 O20 1.981073 1_555
Cr0 O2 2.023964 1_555
Cr0 O22 2.033807 1_555
Cr0 O9 2.057900 1_455
Cr1 O23 1.947577 1_555
Cr1 O17 1.976084 1_546
Cr1 O16 1.981073 1_555
Cr1 O11 2.023964 1_555
Cr1 O1 2.033807 1_556
Cr1 O6 2.057900 1_545
Cr2 O7 1.947577 1_555
Cr2 O0 1.976084 1_564
Cr2 O15 1.981073 1_555
Cr2 O8 2.023964 1_555
Cr2 O6 2.033807 1_554
Cr2 O1 2.057900 1_565
Cr3 O4 1.947577 1_555
Cr3 O18 1.976084 1_655
Cr3 O14 1.981073 1_555
Cr3 O5 2.023964 1_555
Cr3 O9 2.033807 1_555
Cr3 O22 2.057900 1_655
O0 P1 1.564142 1_555
O1 P5 1.594606 1_555
O2 P5 1.577019 1_555
O3 P3 1.552857 1_554
O4 P0 1.552857 1_556
O5 P4 1.577019 1_555
O6 P4 1.594606 1_555
O7 P4 1.552857 1_555
O8 P0 1.577019 1_555
O9 P0 1.594606 1_555
O10 P4 1.511006 1_555
O11 P3 1.577019 1_555
O12 P0 1.511006 1_555
O13 P1 1.564142 1_555
O14 P1 1.551352 1_555
O15 P2 1.551352 1_555
O16 P1 1.551352 1_555
O17 P2 1.564142 1_555
O18 P2 1.564142 1_555
O19 P3 1.511006 1_555
O20 P2 1.551352 1_555
O21 P5 1.511006 1_555
O22 P3 1.594606 1_555
O23 P5 1.552857 1_555
