# generated using pymatgen
data_MgCr3(SO4)6
_symmetry_space_group_name_H-M   'P 1'
_cell_length_a   8.68953458
_cell_length_b   8.65988454
_cell_length_c   8.67274929
_cell_angle_alpha   58.35605101
_cell_angle_beta   58.38701353
_cell_angle_gamma   58.34573268
_symmetry_Int_Tables_number   1
_chemical_formula_structural   MgCr3(SO4)6
_chemical_formula_sum   'Mg1 Cr3 S6 O24'
_cell_volume   444.18199825
_cell_formula_units_Z   1
loop_
 _symmetry_equiv_pos_site_id
 _symmetry_equiv_pos_as_xyz
  1  'x, y, z'
loop_
 _atom_site_type_symbol
 _atom_site_label
 _atom_site_symmetry_multiplicity
 _atom_site_fract_x
 _atom_site_fract_y
 _atom_site_fract_z
 _atom_site_occupancy
  Mg  Mg0  1  0.49143100  0.51373300  0.49169000  1
  Cr  Cr0  1  0.35309700  0.35277400  0.35257500  1
  Cr  Cr1  1  0.64565200  0.64430300  0.64622400  1
  Cr  Cr2  1  0.85722900  0.85670400  0.85675200  1
  S  S0  1  0.04038600  0.74371800  0.47481200  1
  S  S1  1  0.47611400  0.04262000  0.74101800  1
  S  S2  1  0.74187100  0.47545500  0.04275500  1
  S  S3  1  0.25093900  0.52935100  0.95451800  1
  S  S4  1  0.53091400  0.95358300  0.25027500  1
  S  S5  1  0.95582300  0.25083900  0.53160700  1
  O  O0  1  0.10048700  0.31526600  0.50298500  1
  O  O1  1  0.31683500  0.50088000  0.09818000  1
  O  O2  1  0.01186300  0.93220000  0.33170300  1
  O  O3  1  0.50056900  0.09745000  0.31736600  1
  O  O4  1  0.03017800  0.72853900  0.66019200  1
  O  O5  1  0.24610900  0.60011200  0.41143800  1
  O  O6  1  0.41292700  0.24750700  0.59817200  1
  O  O7  1  0.33311400  0.01198100  0.92943100  1
  O  O8  1  0.59716600  0.41445500  0.24771400  1
  O  O9  1  0.06432300  0.69322100  0.97400200  1
  O  O10  1  0.24647000  0.35883400  0.96929200  1
  O  O11  1  0.36207100  0.96560400  0.24614600  1
  O  O12  1  0.66083500  0.02980600  0.72834400  1
  O  O13  1  0.72983500  0.66003500  0.03150100  1
  O  O14  1  0.92858900  0.33018300  0.01489500  1
  O  O15  1  0.39496300  0.60101100  0.74865800  1
  O  O16  1  0.69483700  0.97387800  0.06427200  1
  O  O17  1  0.60213600  0.74678000  0.39520200  1
  O  O18  1  0.75155500  0.39342700  0.60529200  1
  O  O19  1  0.96857300  0.24855800  0.36096000  1
  O  O20  1  0.51699400  0.90609500  0.65726200  1
  O  O21  1  0.97640300  0.06230300  0.69364600  1
  O  O22  1  0.65629200  0.51995600  0.90690000  1
  O  O23  1  0.90578000  0.65834400  0.51658600  1
loop_
_geom_bond_atom_site_label_1
_geom_bond_atom_site_label_2
_geom_bond_distance
_geom_bond_site_symmetry_2
Mg0 O5 2.218952 1_555
Mg0 O8 2.258789 1_555
Mg0 O17 2.262816 1_555
Mg0 O15 2.320479 1_555
Mg0 O6 2.321573 1_555
Mg0 O18 2.439527 1_555
Cr0 O0 1.981752 1_555
Cr0 O1 1.986835 1_555
Cr0 O3 1.987098 1_555
Cr0 O6 2.065020 1_555
Cr0 O8 2.065828 1_555
Cr0 O5 2.066999 1_555
Cr1 O22 1.959444 1_555
Cr1 O20 1.963166 1_555
Cr1 O23 1.966972 1_555
Cr1 O18 2.015248 1_555
Cr1 O17 2.038061 1_555
Cr1 O15 2.038128 1_555
Cr2 O13 1.983586 1_556
Cr2 O4 1.986262 1_655
Cr2 O12 1.988823 1_565
Cr2 O21 2.000062 1_565
Cr2 O9 2.002639 1_655
Cr2 O16 2.002731 1_556
O0 S5 1.488889 1_455
O1 S3 1.489452 1_554
O2 S0 1.427682 1_555
O3 S4 1.488384 1_545
O4 S0 1.500333 1_555
O5 S0 1.548582 1_555
O6 S1 1.539013 1_555
O7 S1 1.430752 1_555
O8 S2 1.545491 1_555
O9 S3 1.490308 1_555
O10 S3 1.433487 1_555
O11 S4 1.433723 1_555
O12 S1 1.497248 1_555
O13 S2 1.499005 1_555
O14 S2 1.427977 1_555
O15 S3 1.564953 1_555
O16 S4 1.489453 1_555
O17 S4 1.568570 1_555
O18 S5 1.556308 1_555
O19 S5 1.435089 1_555
O20 S1 1.497149 1_565
O21 S5 1.490671 1_555
O22 S2 1.493682 1_556
O23 S0 1.492753 1_655
