# generated using pymatgen
data_MgFe12(OF)12
_symmetry_space_group_name_H-M   'P 1'
_cell_length_a   9.65823349
_cell_length_b   14.62376254
_cell_length_c   3.08317607
_cell_angle_alpha   89.97354905
_cell_angle_beta   90.01103167
_cell_angle_gamma   89.45717848
_symmetry_Int_Tables_number   1
_chemical_formula_structural   MgFe12(OF)12
_chemical_formula_sum   'Mg1 Fe12 O12 F12'
_cell_volume   435.44730600
_cell_formula_units_Z   1
loop_
 _symmetry_equiv_pos_site_id
 _symmetry_equiv_pos_as_xyz
  1  'x, y, z'
loop_
 _atom_site_type_symbol
 _atom_site_label
 _atom_site_symmetry_multiplicity
 _atom_site_fract_x
 _atom_site_fract_y
 _atom_site_fract_z
 _atom_site_occupancy
  Mg  Mg0  1  0.24686900  0.32547400  0.98936200  1
  Fe  Fe0  1  0.00249600  0.99544200  0.99417700  1
  Fe  Fe1  1  0.97887900  0.32674400  0.00101300  1
  Fe  Fe2  1  0.00636200  0.67970100  0.99721800  1
  Fe  Fe3  1  0.22330800  0.14852700  0.49185300  1
  Fe  Fe4  1  0.24439300  0.50140800  0.49575000  1
  Fe  Fe5  1  0.25618300  0.85790400  0.49551800  1
  Fe  Fe6  1  0.52616300  0.34958200  0.99877800  1
  Fe  Fe7  1  0.51018200  0.99276000  0.99578200  1
  Fe  Fe8  1  0.52176800  0.67187400  0.99816800  1
  Fe  Fe9  1  0.74572300  0.13232900  0.49534900  1
  Fe  Fe10  1  0.73532800  0.50885400  0.50023000  1
  Fe  Fe11  1  0.72644400  0.83477800  0.49678900  1
  O  O0  1  0.13019400  0.27460500  0.49200400  1
  O  O1  1  0.09214700  0.92980900  0.49452400  1
  O  O2  1  0.14486900  0.09763900  0.99219800  1
  O  O3  1  0.15472300  0.44562500  0.99579300  1
  O  O4  1  0.35576500  0.90165000  0.99560600  1
  O  O5  1  0.39008800  0.38511200  0.49756300  1
  O  O6  1  0.60376900  0.93937900  0.49611300  1
  O  O7  1  0.59972000  0.60496900  0.49865500  1
  O  O8  1  0.63600800  0.10305700  0.99531000  1
  O  O9  1  0.65601000  0.44316000  0.00021900  1
  O  O10  1  0.64830600  0.77084700  0.99700900  1
  O  O11  1  0.89928600  0.05391500  0.49427800  1
  F  F0  1  0.11158700  0.60761400  0.49708200  1
  F  F1  1  0.16625100  0.76985100  0.99638300  1
  F  F2  1  0.36422300  0.21926700  0.99604500  1
  F  F3  1  0.35306200  0.56530800  0.99729100  1
  F  F4  1  0.39479000  0.06409500  0.49512500  1
  F  F5  1  0.40112700  0.72621400  0.49738500  1
  F  F6  1  0.60854500  0.27883300  0.49893900  1
  F  F7  1  0.84060400  0.22364100  0.00218100  1
  F  F8  1  0.84481400  0.88976600  0.99603600  1
  F  F9  1  0.85313600  0.56881200  0.99992000  1
  F  F10  1  0.89040600  0.40745200  0.50241000  1
  F  F11  1  0.89361400  0.73733100  0.49694600  1
loop_
_geom_bond_atom_site_label_1
_geom_bond_atom_site_label_2
_geom_bond_distance
_geom_bond_site_symmetry_2
Mg0 O3 1.962168 1_555
Mg0 O0 2.047180 1_555
Mg0 O0 2.059222 1_556
Mg0 O5 2.235082 1_555
Mg0 O5 2.269879 1_556
Fe0 O1 2.007555 1_555
Fe0 O1 2.008262 1_556
Fe0 O11 2.020501 1_465
Fe0 O11 2.021871 1_466
Fe0 O2 2.040426 1_565
Fe1 O0 2.232879 1_655
Fe1 O0 2.271768 1_654
Fe1 O3 2.441904 1_654
Fe3 O2 1.874095 1_554
Fe3 O2 1.875519 1_555
Fe3 O0 2.043701 1_555
Fe4 O3 1.950680 1_555
Fe4 O3 1.950802 1_554
Fe4 O5 2.197065 1_555
Fe5 O1 1.893182 1_555
Fe5 O4 1.929058 1_554
Fe5 O4 1.929668 1_555
Fe6 O9 1.864934 1_556
Fe6 O5 2.085842 1_556
Fe6 O5 2.090646 1_555
Fe7 O6 1.946283 1_555
Fe7 O6 1.947053 1_556
Fe7 O4 2.009260 1_555
Fe7 O8 2.028699 1_565
Fe8 O10 1.903150 1_555
Fe8 O7 1.970747 1_555
Fe8 O7 1.972163 1_556
Fe9 O11 1.866134 1_555
Fe9 O8 1.921157 1_555
Fe9 O8 1.921339 1_554
Fe10 O7 1.912104 1_555
Fe10 O9 1.974644 1_556
Fe10 O9 1.975159 1_555
Fe11 O6 1.925961 1_555
Fe11 O10 1.957613 1_554
Fe11 O10 1.958230 1_555
F0 Fe4 2.004929 1_555
F0 Fe2 2.120599 1_554
F0 Fe2 2.122200 1_555
F1 Fe2 2.039920 1_555
F1 Fe5 2.191645 1_556
F1 Fe5 2.194794 1_555
F2 Mg0 1.914148 1_555
F2 Fe3 2.298974 1_556
F2 Fe3 2.316530 1_555
F2 Fe6 2.476792 1_555
F3 Fe4 2.086747 1_556
F3 Fe4 2.094093 1_555
F3 Fe8 2.265319 1_555
F4 Fe3 2.056428 1_555
F4 Fe7 2.163487 1_544
F4 Fe7 2.165381 1_545
F5 Fe8 2.083855 1_554
F5 Fe8 2.086550 1_555
F5 Fe5 2.370102 1_555
F6 Fe6 2.015935 1_554
F6 Fe6 2.016141 1_555
F6 Fe9 2.508339 1_555
F7 Fe1 2.023617 1_555
F7 Fe9 2.226363 1_555
F7 Fe9 2.255946 1_554
F8 Fe11 2.083474 1_555
F8 Fe11 2.086683 1_556
F8 Fe0 2.179940 1_655
F9 Fe10 2.111030 1_555
F9 Fe10 2.112155 1_556
F9 Fe2 2.205731 1_655
F10 Fe10 2.097671 1_555
F10 Fe1 2.113079 1_556
F10 Fe1 2.120386 1_555
F11 Fe2 2.062626 1_654
F11 Fe2 2.062985 1_655
F11 Fe11 2.143356 1_555
