# generated using pymatgen
data_MgMn6(O2F)4
_symmetry_space_group_name_H-M   'P 1'
_cell_length_a   5.30642542
_cell_length_b   5.30643959
_cell_length_c   8.99770602
_cell_angle_alpha   91.69974133
_cell_angle_beta   88.30015593
_cell_angle_gamma   104.32988095
_symmetry_Int_Tables_number   1
_chemical_formula_structural   MgMn6(O2F)4
_chemical_formula_sum   'Mg1 Mn6 O8 F4'
_cell_volume   245.30341517
_cell_formula_units_Z   1
loop_
 _symmetry_equiv_pos_site_id
 _symmetry_equiv_pos_as_xyz
  1  'x, y, z'
loop_
 _atom_site_type_symbol
 _atom_site_label
 _atom_site_symmetry_multiplicity
 _atom_site_fract_x
 _atom_site_fract_y
 _atom_site_fract_z
 _atom_site_occupancy
  Mg  Mg0  1  0.69553104  0.30446589  0.01599859  1
  Mn  Mn0  1  0.02952507  0.97047380  0.00922348  1
  Mn  Mn1  1  0.99332052  0.00668120  0.33222023  1
  Mn  Mn2  1  0.98743080  0.01256991  0.64466306  1
  Mn  Mn3  1  0.44855164  0.55144778  0.82311868  1
  Mn  Mn4  1  0.39944567  0.60055325  0.17132922  1
  Mn  Mn5  1  0.58252033  0.41748059  0.51238352  1
  O  O0  1  0.16556807  0.83442625  0.16902265  1
  O  O1  1  0.13356272  0.86643589  0.49212681  1
  O  O2  1  0.32055516  0.29962687  0.99195422  1
  O  O3  1  0.30417277  0.30186084  0.66613628  1
  O  O4  1  0.70037268  0.67944313  0.99195465  1
  O  O5  1  0.69813766  0.69582746  0.66613597  1
  O  O6  1  0.86266280  0.13733571  0.15476995  1
  O  O7  1  0.82720465  0.17279930  0.49810891  1
  F  F0  1  0.18874528  0.81125508  0.84309034  1
  F  F1  1  0.33394331  0.30728447  0.33244273  1
  F  F2  1  0.69270184  0.66607617  0.33244958  1
  F  F3  1  0.84901299  0.15099242  0.84572612  1
loop_
_geom_bond_atom_site_label_1
_geom_bond_atom_site_label_2
_geom_bond_distance
_geom_bond_site_symmetry_2
Mg0 O6 1.911248 1_555
Mg0 O2 2.001652 1_554
Mg0 O4 2.001661 1_554
Mn0 O0 1.868369 1_555
Mn0 O6 1.879770 1_465
Mn0 O4 2.031367 1_454
Mn0 O2 2.031368 1_564
Mn1 O1 1.891815 1_645
Mn1 O6 1.969758 1_555
Mn1 O7 2.002616 1_555
Mn1 O0 2.020263 1_645
Mn2 O1 1.804910 1_645
Mn2 O7 1.917165 1_555
Mn2 O3 1.985782 1_655
Mn2 O5 1.985790 1_545
Mn3 O5 1.946043 1_555
Mn3 O3 1.946047 1_555
Mn3 O2 2.040747 1_555
Mn3 O4 2.040750 1_555
Mn4 O0 1.961191 1_555
Mn4 O4 2.210500 1_554
Mn4 O2 2.210506 1_554
Mn5 O5 1.988074 1_555
Mn5 O3 1.988075 1_555
Mn5 O7 2.050087 1_555
F0 Mn0 1.966126 1_556
F0 Mn3 2.178321 1_555
F0 Mn2 2.502236 1_465
F1 Mn1 2.093871 1_455
F1 Mn5 2.095687 1_555
F1 Mn4 2.116669 1_555
F2 Mn1 2.093853 1_565
F2 Mn5 2.095688 1_555
F2 Mn4 2.116659 1_555
F3 Mg0 1.963174 1_556
F3 Mn2 2.112178 1_555
F3 Mn0 2.149570 1_646
