# generated using pymatgen
data_Mg(Sb2O5)2
_symmetry_space_group_name_H-M   'P 1'
_cell_length_a   5.20261101
_cell_length_b   5.71921176
_cell_length_c   7.04991393
_cell_angle_alpha   101.09650510
_cell_angle_beta   109.30852621
_cell_angle_gamma   90.15852642
_symmetry_Int_Tables_number   1
_chemical_formula_structural   Mg(Sb2O5)2
_chemical_formula_sum   'Mg1 Sb4 O10'
_cell_volume   193.76866412
_cell_formula_units_Z   1
loop_
 _symmetry_equiv_pos_site_id
 _symmetry_equiv_pos_as_xyz
  1  'x, y, z'
loop_
 _atom_site_type_symbol
 _atom_site_label
 _atom_site_symmetry_multiplicity
 _atom_site_fract_x
 _atom_site_fract_y
 _atom_site_fract_z
 _atom_site_occupancy
  Mg  Mg0  1  0.70625500  0.85810200  0.93828300  1
  Sb  Sb0  1  0.61881700  0.23588600  0.70549100  1
  Sb  Sb1  1  0.91454500  0.29421800  0.28994900  1
  Sb  Sb2  1  0.35591800  0.76831100  0.26727600  1
  Sb  Sb3  1  0.09263200  0.71820500  0.69531400  1
  O  O0  1  0.62431300  0.22706800  0.99878800  1
  O  O1  1  0.36818200  0.73558700  0.96813200  1
  O  O2  1  0.16840100  0.44125100  0.18996900  1
  O  O3  1  0.92449300  0.01141400  0.78650000  1
  O  O4  1  0.83214500  0.62414500  0.40990300  1
  O  O5  1  0.38384200  0.90168900  0.62999800  1
  O  O6  1  0.23952500  0.38239800  0.59583100  1
  O  O7  1  0.65421700  0.17024400  0.42189100  1
  O  O8  1  0.00203300  0.95847200  0.21394800  1
  O  O9  1  0.82301300  0.55396200  0.79613300  1
loop_
_geom_bond_atom_site_label_1
_geom_bond_atom_site_label_2
_geom_bond_distance
_geom_bond_site_symmetry_2
Mg0 O1 1.980794 1_555
Mg0 O8 2.015526 1_656
Mg0 O9 2.033807 1_555
Mg0 O3 2.088564 1_565
Mg0 O0 2.143682 1_565
Mg0 O5 2.323651 1_555
O0 Sb0 2.068785 1_555
O0 Sb1 2.069916 1_556
O1 Sb3 1.966339 1_555
O1 Sb2 2.103294 1_556
O2 Sb1 1.945728 1_455
O2 Sb2 1.998381 1_555
O3 Sb3 1.988867 1_645
O3 Sb0 2.048488 1_555
O4 Sb3 1.987624 1_655
O4 Sb1 2.022227 1_555
O4 Sb2 2.551944 1_555
O5 Sb3 2.060869 1_555
O5 Sb0 2.143874 1_565
O5 Sb2 2.478895 1_555
O6 Sb0 2.107936 1_555
O6 Sb3 2.146751 1_555
O6 Sb1 2.220074 1_455
O7 Sb0 2.031564 1_555
O7 Sb1 2.069785 1_555
O7 Sb2 2.603443 1_545
O8 Sb1 1.987844 1_465
O8 Sb2 2.103478 1_555
O9 Sb0 1.984724 1_555
O9 Sb3 2.064997 1_655
