# generated using pymatgen
data_Na3YSiGe(PO6)2
_symmetry_space_group_name_H-M   'P 1'
_cell_length_a   15.79974358
_cell_length_b   9.14677329
_cell_length_c   9.57702642
_cell_angle_alpha   90.00000000
_cell_angle_beta   128.17302447
_cell_angle_gamma   90.00000000
_symmetry_Int_Tables_number   1
_chemical_formula_structural   Na3YSiGe(PO6)2
_chemical_formula_sum   'Na12 Y4 Si4 Ge4 P8 O48'
_cell_volume   1088.06021572
_cell_formula_units_Z   4
loop_
 _symmetry_equiv_pos_site_id
 _symmetry_equiv_pos_as_xyz
  1  'x, y, z'
loop_
 _atom_site_type_symbol
 _atom_site_label
 _atom_site_symmetry_multiplicity
 _atom_site_fract_x
 _atom_site_fract_y
 _atom_site_fract_z
 _atom_site_occupancy
  Na  Na0  1  0.23649375  0.72660737  0.99774566  1
  Na  Na1  1  0.73649375  0.77339263  0.49774566  1
  Na  Na2  1  0.73649375  0.22660737  0.99774566  1
  Na  Na3  1  0.23649375  0.27339263  0.49774566  1
  Na  Na4  1  0.48711017  0.10242344  0.71477658  1
  Na  Na5  1  0.48711017  0.89757656  0.21477658  1
  Na  Na6  1  0.98711017  0.60242344  0.71477658  1
  Na  Na7  1  0.98711017  0.39757656  0.21477658  1
  Na  Na8  1  0.19585394  0.91926808  0.32436223  1
  Na  Na9  1  0.19585394  0.08073192  0.82436223  1
  Na  Na10  1  0.69585394  0.41926808  0.32436223  1
  Na  Na11  1  0.69585394  0.58073192  0.82436223  1
  Y  Y0  1  0.11119400  0.74358985  0.56802687  1
  Y  Y1  1  0.11119400  0.25641015  0.06802687  1
  Y  Y2  1  0.61119400  0.24358985  0.56802687  1
  Y  Y3  1  0.61119400  0.75641015  0.06802687  1
  Si  Si0  1  0.65164236  0.87984397  0.74719844  1
  Si  Si1  1  0.65164236  0.12015603  0.24719844  1
  Si  Si2  1  0.15164236  0.37984397  0.74719844  1
  Si  Si3  1  0.15164236  0.62015603  0.24719844  1
  Ge  Ge0  1  0.90704018  0.78212870  0.91403687  1
  Ge  Ge1  1  0.90704018  0.21787130  0.41403687  1
  Ge  Ge2  1  0.40704018  0.28212870  0.91403687  1
  Ge  Ge3  1  0.40704018  0.71787130  0.41403687  1
  P  P0  1  0.99088322  0.96637442  0.73915745  1
  P  P1  1  0.99088322  0.03362558  0.23915745  1
  P  P2  1  0.49088322  0.46637442  0.73915745  1
  P  P3  1  0.49088322  0.53362558  0.23915745  1
  P  P4  1  0.35612337  0.93163314  0.77208570  1
  P  P5  1  0.35612337  0.06836686  0.27208570  1
  P  P6  1  0.85612337  0.43163314  0.77208570  1
  P  P7  1  0.85612337  0.56836686  0.27208570  1
  O  O0  1  0.15454980  0.55680095  0.75160127  1
  O  O1  1  0.86018859  0.60677301  0.77769993  1
  O  O2  1  0.86018859  0.39322699  0.27769993  1
  O  O3  1  0.15454980  0.44319905  0.25160127  1
  O  O4  1  0.65454980  0.05680095  0.75160127  1
  O  O5  1  0.36018859  0.10677301  0.77769993  1
  O  O6  1  0.36018859  0.89322699  0.27769993  1
  O  O7  1  0.65454980  0.94319905  0.25160127  1
  O  O8  1  0.42986162  0.56768491  0.57083548  1
  O  O9  1  0.55284692  0.55060523  0.91155051  1
  O  O10  1  0.55284692  0.44939477  0.41155051  1
  O  O11  1  0.42986162  0.43231509  0.07083548  1
  O  O12  1  0.92986162  0.06768491  0.57083548  1
  O  O13  1  0.05284692  0.05060523  0.91155051  1
  O  O14  1  0.05284692  0.94939477  0.41155051  1
  O  O15  1  0.92986162  0.93231509  0.07083548  1
  O  O16  1  0.25799537  0.88315449  0.76030720  1
  O  O17  1  0.75812796  0.81043402  0.77342369  1
  O  O18  1  0.75812796  0.18956598  0.27342369  1
  O  O19  1  0.25799537  0.11684551  0.26030720  1
  O  O20  1  0.75799537  0.38315449  0.76030720  1
  O  O21  1  0.25812796  0.31043402  0.77342369  1
  O  O22  1  0.25812796  0.68956598  0.27342369  1
  O  O23  1  0.75799537  0.61684551  0.26030720  1
  O  O24  1  0.35134025  0.89797144  0.61120799  1
  O  O25  1  0.64632279  0.81895698  0.89849869  1
  O  O26  1  0.64632279  0.18104302  0.39849869  1
  O  O27  1  0.35134025  0.10202856  0.11120799  1
  O  O28  1  0.85134025  0.39797144  0.61120799  1
  O  O29  1  0.14632279  0.31895698  0.89849869  1
  O  O30  1  0.14632279  0.68104302  0.39849869  1
  O  O31  1  0.85134025  0.60202856  0.11120799  1
  O  O32  1  0.45596513  0.87143789  0.94708075  1
  O  O33  1  0.54789155  0.79348023  0.55315160  1
  O  O34  1  0.54789155  0.20651977  0.05315160  1
  O  O35  1  0.45596513  0.12856211  0.44708075  1
  O  O36  1  0.95596513  0.37143789  0.94708075  1
  O  O37  1  0.04789155  0.29348023  0.55315160  1
  O  O38  1  0.04789155  0.70651977  0.05315160  1
  O  O39  1  0.95596513  0.62856211  0.44708075  1
  O  O40  1  0.06578882  0.86020996  0.73735200  1
  O  O41  1  0.90278021  0.87198143  0.72990108  1
  O  O42  1  0.90278021  0.12801857  0.22990108  1
  O  O43  1  0.06578882  0.13979004  0.23735200  1
  O  O44  1  0.56578882  0.36020996  0.73735200  1
  O  O45  1  0.40278021  0.37198143  0.72990108  1
  O  O46  1  0.40278021  0.62801857  0.22990108  1
  O  O47  1  0.56578882  0.63979004  0.23735200  1
loop_
_geom_bond_atom_site_label_1
_geom_bond_atom_site_label_2
_geom_bond_distance
_geom_bond_site_symmetry_2
Na0 O46 2.332106 1_556
Na0 O0 2.423444 1_555
Na0 O22 2.467115 1_556
Na0 O40 2.583185 1_555
Na0 O6 2.617964 1_556
Na0 O16 2.879496 1_555
Na1 O41 2.332106 1_555
Na1 O7 2.423444 1_555
Na1 O17 2.467115 1_555
Na1 O47 2.583185 1_555
Na1 O1 2.617964 1_555
Na1 O23 2.879496 1_555
Na2 O42 2.332106 1_556
Na2 O4 2.423444 1_555
Na2 O18 2.467115 1_556
Na2 O44 2.583185 1_555
Na2 O2 2.617964 1_556
Na2 O20 2.879496 1_555
Na3 O45 2.332106 1_555
Na3 O3 2.423444 1_555
Na3 O21 2.467115 1_555
Na3 O43 2.583185 1_555
Na3 O5 2.617964 1_555
Na3 O19 2.879496 1_555
Na4 O35 2.304913 1_555
Na4 O5 2.424832 1_555
Na4 O4 2.478700 1_555
Na4 O24 2.540193 1_545
Na4 O44 2.611436 1_555
Na4 O45 2.848494 1_555
Na4 O34 2.912682 1_556
Na5 O32 2.304913 1_554
Na5 O6 2.424832 1_555
Na5 O7 2.478700 1_555
Na5 O27 2.540193 1_565
Na5 O47 2.611436 1_555
Na5 O46 2.848494 1_555
Na5 O33 2.912682 1_555
Na6 O39 2.304913 1_555
Na6 O1 2.424832 1_555
Na6 O0 2.478700 1_655
Na6 O28 2.540193 1_555
Na6 O40 2.611436 1_655
Na6 O41 2.848494 1_555
Na6 O38 2.912682 1_656
Na7 O36 2.304913 1_554
Na7 O2 2.424832 1_555
Na7 O3 2.478700 1_655
Na7 O31 2.540193 1_555
Na7 O43 2.611436 1_655
Na7 O42 2.848494 1_555
Na7 O37 2.912682 1_655
Na8 O24 2.297353 1_555
Na8 O19 2.313168 1_565
Na8 O22 2.492734 1_555
Na8 O30 2.559561 1_555
Na8 O43 2.620926 1_565
Na8 O14 2.865390 1_555
Na8 O6 2.903827 1_555
Na8 O38 2.914238 1_555
Na9 O27 2.297353 1_556
Na9 O16 2.313168 1_545
Na9 O21 2.492734 1_555
Na9 O29 2.559561 1_555
Na9 O40 2.620926 1_545
Na9 O13 2.865390 1_555
Na9 O5 2.903827 1_555
Na9 O37 2.914238 1_555
Na10 O28 2.297353 1_555
Na10 O23 2.313168 1_555
Na10 O18 2.492734 1_555
Na10 O26 2.559561 1_555
Na10 O47 2.620926 1_555
Na10 O10 2.865390 1_555
Na10 O2 2.903827 1_555
Na10 O34 2.914238 1_555
Na11 O31 2.297353 1_556
Na11 O20 2.313168 1_555
Na11 O17 2.492734 1_555
Na11 O25 2.559561 1_555
Na11 O44 2.620926 1_555
Na11 O9 2.865390 1_555
Na11 O1 2.903827 1_555
Na11 O33 2.914238 1_555
Ge0 O17 1.870750 1_555
Ge0 O38 1.881730 1_656
Ge0 O15 1.898113 1_556
Ge0 O1 1.905446 1_555
Ge0 O41 1.908694 1_555
Ge1 O18 1.870750 1_555
Ge1 O37 1.881730 1_655
Ge1 O12 1.898113 1_555
Ge1 O2 1.905446 1_555
Ge1 O42 1.908694 1_555
Ge2 O21 1.870750 1_555
Ge2 O34 1.881730 1_556
Ge2 O11 1.898113 1_556
Ge2 O5 1.905446 1_555
Ge2 O45 1.908694 1_555
Ge3 O22 1.870750 1_555
Ge3 O33 1.881730 1_555
Ge3 O8 1.898113 1_555
Ge3 O6 1.905446 1_555
Ge3 O46 1.908694 1_555
O0 Si2 1.619047 1_555
O0 Y0 2.233953 1_555
O1 P6 1.602822 1_555
O2 P7 1.602822 1_555
O3 Si3 1.619047 1_555
O3 Y1 2.233953 1_555
O4 Si0 1.619047 1_545
O4 Y2 2.233953 1_555
O5 P4 1.602822 1_545
O6 P5 1.602822 1_565
O7 Si1 1.619047 1_565
O7 Y3 2.233953 1_555
O8 P2 1.570275 1_555
O9 P2 1.509947 1_555
O9 Y3 2.220714 1_556
O10 P3 1.509947 1_555
O10 Y2 2.220714 1_555
O11 P3 1.570275 1_555
O12 P0 1.570275 1_545
O13 P0 1.509947 1_445
O13 Y1 2.220714 1_556
O14 P1 1.509947 1_465
O14 Y0 2.220714 1_555
O15 P1 1.570275 1_565
O16 P4 1.548194 1_555
O16 Y0 2.262939 1_555
O17 Si0 1.665669 1_555
O18 Si1 1.665669 1_555
O19 P5 1.548194 1_555
O19 Y1 2.262939 1_555
O20 P6 1.548194 1_555
O20 Y2 2.262939 1_555
O21 Si2 1.665669 1_555
O22 Si3 1.665669 1_555
O23 P7 1.548194 1_555
O23 Y3 2.262939 1_555
O24 P4 1.526577 1_555
O25 Si0 1.602305 1_555
O25 Y3 2.094090 1_556
O26 Si1 1.602305 1_555
O26 Y2 2.094090 1_555
O27 P5 1.526577 1_555
O28 P6 1.526577 1_555
O29 Si2 1.602305 1_555
O29 Y1 2.094090 1_556
O30 Si3 1.602305 1_555
O30 Y0 2.094090 1_555
O31 P7 1.526577 1_555
O32 P4 1.527239 1_555
O32 Y3 2.225376 1_556
O33 Si0 1.731826 1_555
O34 Si1 1.731826 1_555
O35 P5 1.527239 1_555
O35 Y2 2.225376 1_555
O36 P6 1.527239 1_555
O36 Y1 2.225376 1_656
O37 Si2 1.731826 1_555
O38 Si3 1.731826 1_555
O39 P7 1.527239 1_555
O39 Y0 2.225376 1_655
O40 P0 1.539221 1_455
O40 Y0 2.391686 1_555
O41 P0 1.593251 1_555
O42 P1 1.593251 1_555
O43 P1 1.539221 1_455
O43 Y1 2.391686 1_555
O44 P2 1.539221 1_555
O44 Y2 2.391686 1_555
O45 P2 1.593251 1_555
O46 P3 1.593251 1_555
O47 P3 1.539221 1_555
O47 Y3 2.391686 1_555
