# generated using pymatgen
data_MgCo4(NiO4)2
_symmetry_space_group_name_H-M   'P 1'
_cell_length_a   6.68345241
_cell_length_b   5.79173333
_cell_length_c   6.68345111
_cell_angle_alpha   64.32352717
_cell_angle_beta   51.17026830
_cell_angle_gamma   64.32352573
_symmetry_Int_Tables_number   1
_chemical_formula_structural   MgCo4(NiO4)2
_chemical_formula_sum   'Mg1 Co4 Ni2 O8'
_cell_volume   176.75853237
_cell_formula_units_Z   1
loop_
 _symmetry_equiv_pos_site_id
 _symmetry_equiv_pos_as_xyz
  1  'x, y, z'
loop_
 _atom_site_type_symbol
 _atom_site_label
 _atom_site_symmetry_multiplicity
 _atom_site_fract_x
 _atom_site_fract_y
 _atom_site_fract_z
 _atom_site_occupancy
  Mg  Mg0  1  0.62661700  0.62338300  0.62661700  1
  Co  Co0  1  0.12771300  0.12228700  0.12771300  1
  Co  Co1  1  0.45516200  0.05545900  0.45516200  1
  Co  Co2  1  0.45516200  0.53421700  0.45516200  1
  Co  Co3  1  0.87376400  0.87623600  0.87376400  1
  Ni  Ni0  1  0.05859000  0.45304200  0.53532500  1
  Ni  Ni1  1  0.53532500  0.45304200  0.05859000  1
  O  O0  1  0.25816800  0.25750200  0.25816800  1
  O  O1  1  0.25055200  0.26092400  0.72760000  1
  O  O2  1  0.25816800  0.72616200  0.25816800  1
  O  O3  1  0.72760000  0.26092400  0.25055200  1
  O  O4  1  0.25068600  0.77019600  0.70892200  1
  O  O5  1  0.76928600  0.25130600  0.76928600  1
  O  O6  1  0.70892200  0.77019600  0.25068600  1
  O  O7  1  0.76928600  0.71012300  0.76928600  1
loop_
_geom_bond_atom_site_label_1
_geom_bond_atom_site_label_2
_geom_bond_distance
_geom_bond_site_symmetry_2
Mg0 O5 2.010262 1_555
Mg0 O7 2.010266 1_555
Mg0 O6 2.039400 1_555
Mg0 O4 2.039401 1_555
Co0 O0 2.066487 1_555
Co0 O2 2.066488 1_545
Co0 O1 2.104088 1_554
Co0 O3 2.104089 1_455
Co1 O1 1.986597 1_555
Co1 O3 1.986597 1_555
Co1 O6 2.023750 1_545
Co1 O4 2.023750 1_545
Co1 O0 2.083206 1_555
Co2 O3 1.986597 1_555
Co2 O1 1.986597 1_555
Co2 O4 2.023750 1_555
Co2 O6 2.023750 1_555
Co2 O2 2.083206 1_555
Co3 O7 1.917432 1_555
Co3 O5 1.917436 1_565
Co3 O6 1.924134 1_556
Co3 O4 1.924134 1_655
Ni0 O0 1.975721 1_555
Ni0 O2 1.975725 1_555
Ni0 O1 2.031447 1_555
Ni0 O5 2.032711 1_455
Ni0 O7 2.032718 1_455
Ni1 O0 1.975722 1_555
Ni1 O2 1.975725 1_555
Ni1 O3 2.031447 1_555
Ni1 O5 2.032710 1_554
Ni1 O7 2.032718 1_554
