# generated using pymatgen
data_Na8MgMo2(NO)4
_symmetry_space_group_name_H-M   'P 1'
_cell_length_a   5.67632150
_cell_length_b   6.09360155
_cell_length_c   9.68588154
_cell_angle_alpha   84.13580419
_cell_angle_beta   70.81143810
_cell_angle_gamma   72.35745581
_symmetry_Int_Tables_number   1
_chemical_formula_structural   Na8MgMo2(NO)4
_chemical_formula_sum   'Na8 Mg1 Mo2 N4 O4'
_cell_volume   301.53038892
_cell_formula_units_Z   1
loop_
 _symmetry_equiv_pos_site_id
 _symmetry_equiv_pos_as_xyz
  1  'x, y, z'
loop_
 _atom_site_type_symbol
 _atom_site_label
 _atom_site_symmetry_multiplicity
 _atom_site_fract_x
 _atom_site_fract_y
 _atom_site_fract_z
 _atom_site_occupancy
  Na  Na0  1  0.25776345  0.73226487  0.99602351  1
  Na  Na1  1  0.60713857  0.10781356  0.96143595  1
  Na  Na2  1  0.03252995  0.79015369  0.42477591  1
  Na  Na3  1  0.92849794  0.25738317  0.59925022  1
  Na  Na4  1  0.46348409  0.80543395  0.55737072  1
  Na  Na5  1  0.51462967  0.33271148  0.41401496  1
  Na  Na6  1  0.60726488  0.78154132  0.22389621  1
  Na  Na7  1  0.36077908  0.30452430  0.78435886  1
  Mg  Mg0  1  0.81173209  0.42393882  0.02960627  1
  Mo  Mo0  1  0.87363441  0.69731111  0.75676940  1
  Mo  Mo1  1  0.15409856  0.30536020  0.25352443  1
  N  N0  1  0.27225047  0.07037694  0.37185921  1
  N  N1  1  0.18669922  0.56661735  0.62196146  1
  N  N2  1  0.85527870  0.51812091  0.35538098  1
  N  N3  1  0.67680125  0.95454161  0.68657693  1
  O  O0  1  0.71919598  0.43043824  0.84203182  1
  O  O1  1  0.15059928  0.22234191  0.04862962  1
  O  O2  1  0.45260485  0.45162371  0.16434969  1
  O  O3  1  0.85626755  0.73708586  0.97246985  1
loop_
_geom_bond_atom_site_label_1
_geom_bond_atom_site_label_2
_geom_bond_distance
_geom_bond_site_symmetry_2
Na0 O3 2.355137 1_455
Na0 O2 2.504994 1_556
Na0 O0 2.745948 1_555
Na0 O1 2.924706 1_566
Na1 O3 2.286517 1_545
Na1 O0 2.327425 1_555
Na1 O1 2.345521 1_556
Na1 O2 2.759637 1_556
Na3 O0 2.442154 1_555
Na5 O2 2.558086 1_555
Na6 O3 2.375247 1_554
Na6 O2 2.604729 1_555
Na7 O1 2.513752 1_556
Na7 O0 2.611661 1_555
Mg0 O2 1.993736 1_555
Mg0 O3 1.999006 1_554
Mg0 O1 1.999346 1_655
Mg0 O0 2.044097 1_554
Mo0 N1 1.823855 1_655
Mo0 N3 1.840519 1_555
Mo0 O0 2.051561 1_555
Mo0 O3 2.094523 1_555
Mo1 N2 1.832925 1_455
Mo1 N0 1.844364 1_555
Mo1 O2 2.051218 1_555
Mo1 O1 2.105243 1_555
N0 Na6 2.337323 1_545
N0 Na2 2.408569 1_545
N0 Na3 2.509356 1_455
N0 Na5 2.539844 1_555
N0 Na4 2.576922 1_545
N1 Na4 2.351873 1_555
N1 Na7 2.356503 1_555
N1 Na5 2.463155 1_555
N1 Na2 2.472563 1_555
N1 Na3 2.778119 1_455
N2 Na6 2.360404 1_555
N2 Na5 2.410225 1_555
N2 Na2 2.427988 1_655
N2 Na4 2.705264 1_555
N2 Na3 2.784739 1_555
N3 Na7 2.374885 1_565
N3 Na4 2.398603 1_555
N3 Na3 2.578168 1_565
N3 Na2 2.727268 1_655
N3 Na1 2.776414 1_565
