# generated using pymatgen
data_LiNi2(PO4)3
_symmetry_space_group_name_H-M   'P 1'
_cell_length_a   9.88542100
_cell_length_b   9.89630983
_cell_length_c   9.93550714
_cell_angle_alpha   85.64980247
_cell_angle_beta   85.42599905
_cell_angle_gamma   86.31554098
_symmetry_Int_Tables_number   1
_chemical_formula_structural   LiNi2(PO4)3
_chemical_formula_sum   'Li4 Ni8 P12 O48'
_cell_volume   964.43735596
_cell_formula_units_Z   4
loop_
 _symmetry_equiv_pos_site_id
 _symmetry_equiv_pos_as_xyz
  1  'x, y, z'
loop_
 _atom_site_type_symbol
 _atom_site_label
 _atom_site_symmetry_multiplicity
 _atom_site_fract_x
 _atom_site_fract_y
 _atom_site_fract_z
 _atom_site_occupancy
  Li  Li0  1  0.99133700  0.23696100  0.51666000  1
  Li  Li1  1  0.03344900  0.39333500  0.24858100  1
  Li  Li2  1  0.63390000  0.80588000  0.74990300  1
  Li  Li3  1  0.48998500  0.74982700  0.03032600  1
  Ni  Ni0  1  0.03641800  0.72120000  0.74798200  1
  Ni  Ni1  1  0.52907300  0.00016700  0.46418600  1
  Ni  Ni2  1  0.97466700  0.78505100  0.24897400  1
  Ni  Ni3  1  0.75146400  0.99931100  0.24708600  1
  Ni  Ni4  1  0.47136900  0.49959200  0.52705000  1
  Ni  Ni5  1  0.74989700  0.21760200  0.02512600  1
  Ni  Ni6  1  0.25159200  0.49974500  0.74699500  1
  Ni  Ni7  1  0.25136100  0.27576200  0.96273900  1
  P  P0  1  0.45724900  0.06830400  0.15026400  1
  P  P1  1  0.17952800  0.59552300  0.04155000  1
  P  P2  1  0.31716200  0.20712300  0.64500500  1
  P  P3  1  0.65468300  0.70828800  0.31744000  1
  P  P4  1  0.04019500  0.10670400  0.17929000  1
  P  P5  1  0.68765800  0.29183300  0.34321800  1
  P  P6  1  0.15399600  0.57588100  0.45620800  1
  P  P7  1  0.95950500  0.40226100  0.81866000  1
  P  P8  1  0.54405100  0.42971300  0.84305500  1
  P  P9  1  0.84708500  0.92896100  0.54160000  1
  P  P10  1  0.35616500  0.79068300  0.68171600  1
  P  P11  1  0.82385100  0.89744400  0.95863700  1
  O  O0  1  0.12833300  0.58332100  0.61385700  1
  O  O1  1  0.82183900  0.33433800  0.39042600  1
  O  O2  1  0.33202900  0.36527700  0.62134700  1
  O  O3  1  0.62772600  0.86685300  0.32835000  1
  O  O4  1  0.11810500  0.37570600  0.82802600  1
  O  O5  1  0.18682700  0.16733600  0.58789200  1
  O  O6  1  0.80840500  0.66614000  0.30451500  1
  O  O7  1  0.91461400  0.80150300  0.60987600  1
  O  O8  1  0.18277400  0.44079100  0.08433400  1
  O  O9  1  0.41400100  0.05760100  0.30365900  1
  O  O10  1  0.56097900  0.35913300  0.41247900  1
  O  O11  1  0.44829000  0.14198000  0.58104100  1
  O  O12  1  0.67272100  0.13383600  0.37214400  1
  O  O13  1  0.09365900  0.70855100  0.39181900  1
  O  O14  1  0.80478200  0.05028100  0.91170600  1
  O  O15  1  0.88225400  0.12132100  0.16088900  1
  O  O16  1  0.83472300  0.87463900  0.11580700  1
  O  O17  1  0.69640200  0.83400100  0.91954300  1
  O  O18  1  0.09075200  0.45048400  0.41215600  1
  O  O19  1  0.38576000  0.41692300  0.87115700  1
  O  O20  1  0.58665200  0.44305400  0.68907700  1
  O  O21  1  0.10769100  0.15477200  0.04046900  1
  O  O22  1  0.90076600  0.06008600  0.58494400  1
  O  O23  1  0.58908100  0.64554600  0.44988300  1
  O  O24  1  0.30774100  0.55787600  0.41211700  1
  O  O25  1  0.89658100  0.33774100  0.95156300  1
  O  O26  1  0.17120500  0.62303000  0.88426100  1
  O  O27  1  0.91824200  0.55593500  0.80447800  1
  O  O28  1  0.30292100  0.16230200  0.79792900  1
  O  O29  1  0.39176500  0.19645500  0.08234300  1
  O  O30  1  0.58847500  0.56275300  0.89104700  1
  O  O31  1  0.91471400  0.34444700  0.69157100  1
  O  O32  1  0.05005800  0.66012600  0.11032000  1
  O  O33  1  0.59632500  0.66471700  0.19053600  1
  O  O34  1  0.40856600  0.85634800  0.54363500  1
  O  O35  1  0.20446000  0.83800600  0.70398500  1
  O  O36  1  0.69683500  0.33329200  0.18915000  1
  O  O37  1  0.30995600  0.65096800  0.08430500  1
  O  O38  1  0.69232300  0.93112600  0.58542900  1
  O  O39  1  0.06823000  0.19440700  0.29204300  1
  O  O40  1  0.43793200  0.82385600  0.79732700  1
  O  O41  1  0.95587900  0.83757900  0.89192600  1
  O  O42  1  0.37537600  0.63247000  0.66561400  1
  O  O43  1  0.61559500  0.08109500  0.12393900  1
  O  O44  1  0.08954500  0.95635600  0.20584900  1
  O  O45  1  0.60961300  0.30076900  0.90893900  1
  O  O46  1  0.87483400  0.92005500  0.38438700  1
  O  O47  1  0.41617900  0.93595000  0.09805700  1
loop_
_geom_bond_atom_site_label_1
_geom_bond_atom_site_label_2
_geom_bond_distance
_geom_bond_site_symmetry_2
Li0 O22 2.061605 1_555
Li0 O5 2.164075 1_655
Li0 O31 2.166151 1_555
Li0 O1 2.292045 1_555
Li0 O39 2.359327 1_655
Li0 O18 2.506061 1_655
Li1 O18 1.899860 1_555
Li1 O39 1.996997 1_555
Li1 O8 2.156666 1_555
Li1 O1 2.502962 1_455
Li2 O17 1.886616 1_555
Li2 O40 1.956871 1_555
Li2 O38 2.043144 1_555
Li3 O33 2.073137 1_555
Li3 O47 2.077232 1_555
Li3 O37 2.098552 1_555
Li3 O17 2.406301 1_554
Li3 O40 2.458619 1_554
Li3 O30 2.496482 1_554
Ni0 O7 1.984762 1_455
Ni0 O41 1.988998 1_455
Ni0 O35 2.083529 1_555
Ni0 O27 2.087204 1_455
Ni0 O0 2.094430 1_555
Ni0 O26 2.115265 1_555
Ni1 O11 1.977510 1_555
Ni1 O34 1.991336 1_545
Ni1 O9 2.056587 1_555
Ni1 O3 2.099504 1_545
Ni1 O12 2.110310 1_555
Ni1 O38 2.136758 1_545
Ni2 O32 1.989432 1_655
Ni2 O13 1.989936 1_655
Ni2 O6 2.096678 1_555
Ni2 O16 2.099223 1_555
Ni2 O44 2.099248 1_655
Ni2 O46 2.111993 1_555
Ni3 O15 1.931364 1_565
Ni3 O3 1.937636 1_555
Ni3 O16 1.960438 1_555
Ni3 O12 1.971198 1_565
Ni3 O43 1.981974 1_565
Ni3 O46 1.985834 1_555
Ni4 O10 1.983332 1_555
Ni4 O23 1.983404 1_555
Ni4 O20 2.068170 1_555
Ni4 O24 2.080347 1_555
Ni4 O2 2.093439 1_555
Ni4 O42 2.104974 1_555
Ni5 O45 1.974236 1_554
Ni5 O25 1.992753 1_554
Ni5 O36 2.076361 1_555
Ni5 O15 2.089388 1_555
Ni5 O43 2.091136 1_555
Ni5 O14 2.091940 1_554
Ni6 O42 1.940106 1_555
Ni6 O4 1.945529 1_555
Ni6 O0 1.969796 1_555
Ni6 O2 1.979717 1_555
Ni6 O19 1.980034 1_555
Ni6 O26 1.983679 1_555
Ni7 O29 1.983956 1_556
Ni7 O21 1.987587 1_556
Ni7 O28 2.067393 1_555
Ni7 O19 2.097027 1_555
Ni7 O4 2.101875 1_555
Ni7 O8 2.147757 1_556
O0 P6 1.573170 1_555
O1 P5 1.535329 1_555
O2 P2 1.579480 1_555
O3 P3 1.585128 1_555
O4 P7 1.581901 1_455
O5 P2 1.533868 1_555
O6 P3 1.547648 1_555
O7 P9 1.526771 1_555
O8 P1 1.556805 1_555
O9 P0 1.547306 1_555
O10 P5 1.519938 1_555
O11 P2 1.524180 1_555
O12 P5 1.582384 1_555
O13 P6 1.523690 1_555
O14 P11 1.552759 1_545
O15 P4 1.582573 1_655
O16 P11 1.571990 1_554
O17 P11 1.532675 1_555
O18 P6 1.532379 1_555
O19 P8 1.578894 1_555
O20 P8 1.552085 1_555
O21 P4 1.538931 1_555
O22 P9 1.536453 1_545
O23 P3 1.526221 1_555
O24 P6 1.550611 1_555
O25 P7 1.526553 1_555
O26 P1 1.573575 1_556
O27 P7 1.547908 1_555
O28 P2 1.548142 1_555
O29 P0 1.522220 1_555
O30 P8 1.535125 1_555
O31 P7 1.532686 1_555
O32 P1 1.528162 1_555
O33 P3 1.529362 1_555
O34 P10 1.538642 1_555
O35 P10 1.545903 1_555
O36 P5 1.551484 1_555
O37 P1 1.535431 1_555
O38 P9 1.556146 1_555
O39 P4 1.520866 1_555
O40 P10 1.523130 1_555
O41 P11 1.521823 1_555
O42 P10 1.583696 1_555
O43 P0 1.577908 1_555
O44 P4 1.545678 1_565
O45 P8 1.520375 1_555
O46 P9 1.572345 1_555
O47 P0 1.534440 1_565
