# generated using pymatgen
data_H4CSN2
_symmetry_space_group_name_H-M   'P 1'
_cell_length_a   5.74980100
_cell_length_b   7.92450400
_cell_length_c   8.66005300
_cell_angle_alpha   90.00000000
_cell_angle_beta   90.00000000
_cell_angle_gamma   90.00000000
_symmetry_Int_Tables_number   1
_chemical_formula_structural   H4CSN2
_chemical_formula_sum   'H16 C4 S4 N8'
_cell_volume   394.58943497
_cell_formula_units_Z   4
loop_
 _symmetry_equiv_pos_site_id
 _symmetry_equiv_pos_as_xyz
  1  'x, y, z'
loop_
 _atom_site_type_symbol
 _atom_site_label
 _atom_site_symmetry_multiplicity
 _atom_site_fract_x
 _atom_site_fract_y
 _atom_site_fract_z
 _atom_site_occupancy
  H  H0  1  0.80483100  0.09318700  0.48710700  1
  H  H1  1  0.30483100  0.40681300  0.51289300  1
  H  H2  1  0.69516900  0.59318700  0.01289300  1
  H  H3  1  0.19516900  0.90681300  0.98710700  1
  H  H4  1  0.19516900  0.90681300  0.51289300  1
  H  H5  1  0.69516900  0.59318700  0.48710700  1
  H  H6  1  0.30483100  0.40681300  0.98710700  1
  H  H7  1  0.80483100  0.09318700  0.01289300  1
  H  H8  1  0.59537200  0.20584100  0.37902300  1
  H  H9  1  0.59537200  0.20584100  0.12097700  1
  H  H10  1  0.90462800  0.70584100  0.12097700  1
  H  H11  1  0.40462800  0.79415900  0.87902300  1
  H  H12  1  0.40462800  0.79415900  0.62097700  1
  H  H13  1  0.90462800  0.70584100  0.37902300  1
  H  H14  1  0.09537200  0.29415900  0.87902300  1
  H  H15  1  0.09537200  0.29415900  0.62097700  1
  C  C0  1  0.66008900  0.58177000  0.25000000  1
  C  C1  1  0.83991100  0.08177000  0.25000000  1
  C  C2  1  0.33991100  0.41823000  0.75000000  1
  C  C3  1  0.16008900  0.91823000  0.75000000  1
  S  S0  1  0.90758600  0.03441300  0.75000000  1
  S  S1  1  0.40758600  0.46558700  0.25000000  1
  S  S2  1  0.59241400  0.53441300  0.75000000  1
  S  S3  1  0.09241400  0.96558700  0.25000000  1
  N  N0  1  0.73838000  0.12919000  0.38230800  1
  N  N1  1  0.76162000  0.62919000  0.38230800  1
  N  N2  1  0.23838000  0.37081000  0.88230800  1
  N  N3  1  0.73838000  0.12919000  0.11769200  1
  N  N4  1  0.26162000  0.87081000  0.61769200  1
  N  N5  1  0.26162000  0.87081000  0.88230800  1
  N  N6  1  0.76162000  0.62919000  0.11769200  1
  N  N7  1  0.23838000  0.37081000  0.61769200  1
loop_
_geom_bond_atom_site_label_1
_geom_bond_atom_site_label_2
_geom_bond_distance
_geom_bond_site_symmetry_2
H0 N0 1.025212 1_555
H1 N7 1.025212 1_555
H2 N6 1.025212 1_555
H3 N5 1.025212 1_555
H4 N4 1.025212 1_555
H5 N1 1.025212 1_555
H6 N2 1.025212 1_555
H7 N3 1.025212 1_555
H8 N0 1.022689 1_555
H9 N3 1.022689 1_555
H10 N6 1.022689 1_555
H11 N5 1.022689 1_555
H12 N4 1.022689 1_555
H13 N1 1.022689 1_555
H14 N2 1.022689 1_555
H15 N7 1.022689 1_555
C0 N1 1.339723 1_555
C0 N6 1.339723 1_555
C0 S1 1.719163 1_555
C1 N0 1.339723 1_555
C1 N3 1.339723 1_555
C1 S3 1.719163 1_645
C2 N2 1.339723 1_555
C2 N7 1.339723 1_555
C2 S2 1.719163 1_555
C3 N5 1.339723 1_555
C3 N4 1.339723 1_555
C3 S0 1.719163 1_465
