# generated using pymatgen
data_MgMn6O7F5
_symmetry_space_group_name_H-M   'P 1'
_cell_length_a   8.10236965
_cell_length_b   5.76111093
_cell_length_c   6.01803923
_cell_angle_alpha   67.65302479
_cell_angle_beta   64.44028595
_cell_angle_gamma   68.47651988
_symmetry_Int_Tables_number   1
_chemical_formula_structural   MgMn6O7F5
_chemical_formula_sum   'Mg1 Mn6 O7 F5'
_cell_volume   227.35876667
_cell_formula_units_Z   1
loop_
 _symmetry_equiv_pos_site_id
 _symmetry_equiv_pos_as_xyz
  1  'x, y, z'
loop_
 _atom_site_type_symbol
 _atom_site_label
 _atom_site_symmetry_multiplicity
 _atom_site_fract_x
 _atom_site_fract_y
 _atom_site_fract_z
 _atom_site_occupancy
  Mg  Mg0  1  0.82881500  0.67804200  0.18187100  1
  Mn  Mn0  1  0.85047400  0.69944200  0.69446600  1
  Mn  Mn1  1  0.65722600  0.29961700  0.34658500  1
  Mn  Mn2  1  0.31181100  0.65269500  0.67828600  1
  Mn  Mn3  1  0.16322700  0.29592700  0.33205300  1
  Mn  Mn4  1  0.48107600  0.98455300  0.00254500  1
  Mn  Mn5  1  0.02038300  0.07300300  0.96726700  1
  O  O0  1  0.66610900  0.02643400  0.65424100  1
  O  O1  1  0.32669300  0.34504700  0.97278800  1
  O  O2  1  0.93538600  0.28075600  0.21453900  1
  O  O3  1  0.02716100  0.79807900  0.82656900  1
  O  O4  1  0.31973100  0.94087200  0.36542400  1
  O  O5  1  0.66064500  0.63072600  0.04540700  1
  O  O6  1  0.00177600  0.34930600  0.67751900  1
  F  F0  1  0.30464900  0.88835900  0.89012800  1
  F  F1  1  0.62803600  0.58832500  0.52959700  1
  F  F2  1  0.70826900  0.05430300  0.12729900  1
  F  F3  1  0.37914000  0.39931100  0.45223900  1
  F  F4  1  0.99725200  0.74139200  0.30308700  1
loop_
_geom_bond_atom_site_label_1
_geom_bond_atom_site_label_2
_geom_bond_distance
_geom_bond_site_symmetry_2
Mg0 O5 2.003431 1_555
Mg0 O3 2.087770 1_654
Mg0 O2 2.092136 1_555
Mn0 O0 1.933716 1_565
Mn0 O6 1.953531 1_655
Mn0 O5 1.997696 1_556
Mn0 O3 2.219666 1_655
Mn1 O0 1.930330 1_555
Mn1 O2 2.015748 1_555
Mn1 O5 2.071473 1_555
Mn2 O4 1.975435 1_555
Mn2 O1 1.983921 1_555
Mn2 O3 2.047447 1_555
Mn3 O4 1.958704 1_545
Mn3 O1 1.961530 1_554
Mn3 O6 1.993076 1_555
Mn3 O2 2.282023 1_455
Mn4 O0 1.966893 1_564
Mn4 O4 1.975195 1_555
Mn4 O1 1.978455 1_564
Mn4 O5 2.021486 1_555
Mn5 O6 1.880742 1_555
Mn5 O2 1.996619 1_456
Mn5 O3 2.035795 1_545
F0 Mn5 2.075343 1_565
F0 Mn4 2.123465 1_556
F0 Mn2 2.160219 1_555
F1 Mg0 2.037061 1_555
F1 Mn1 2.216993 1_555
F1 Mn2 2.253826 1_555
F2 Mg0 1.985592 1_545
F2 Mn1 2.104367 1_555
F2 Mn5 2.313804 1_654
F2 Mn4 2.465446 1_545
F3 Mn1 1.975547 1_555
F3 Mn2 2.136467 1_555
F3 Mn3 2.474328 1_555
F4 Mg0 1.988681 1_555
F4 Mn0 2.093154 1_555
F4 Mn5 2.183845 1_664
F4 Mn3 2.398920 1_655
