# generated using pymatgen
data_Si12Ni31
_symmetry_space_group_name_H-M   'P 1'
_cell_length_a   6.59607157
_cell_length_b   6.59606997
_cell_length_c   12.15158387
_cell_angle_alpha   90.00000000
_cell_angle_beta   90.00000000
_cell_angle_gamma   119.99999291
_symmetry_Int_Tables_number   1
_chemical_formula_structural   Si12Ni31
_chemical_formula_sum   'Si12 Ni31'
_cell_volume   457.86154018
_cell_formula_units_Z   1
loop_
 _symmetry_equiv_pos_site_id
 _symmetry_equiv_pos_as_xyz
  1  'x, y, z'
loop_
 _atom_site_type_symbol
 _atom_site_label
 _atom_site_symmetry_multiplicity
 _atom_site_fract_x
 _atom_site_fract_y
 _atom_site_fract_z
 _atom_site_occupancy
  Si  Si0  1  0.64911263  0.64911263  0.50000000  1
  Si  Si1  1  0.00000000  0.35088737  0.50000000  1
  Si  Si2  1  0.35088737  -0.00000000  0.50000000  1
  Si  Si3  1  0.31809851  0.31809851  -0.00000000  1
  Si  Si4  1  -0.00000000  0.68190149  -0.00000000  1
  Si  Si5  1  0.68190149  0.00000000  -0.00000000  1
  Si  Si6  1  0.66666700  0.33333300  0.22657445  1
  Si  Si7  1  0.33333300  0.66666700  0.77342555  1
  Si  Si8  1  0.66666700  0.33333300  0.72464340  1
  Si  Si9  1  0.33333300  0.66666700  0.27535660  1
  Si  Si10  1  0.00000000  0.00000000  0.70683643  1
  Si  Si11  1  0.00000000  0.00000000  0.29316357  1
  Ni  Ni0  1  0.07818898  0.41154190  0.90459940  1
  Ni  Ni1  1  0.66536328  0.96344903  0.19766915  1
  Ni  Ni2  1  0.03655097  0.70191525  0.19766915  1
  Ni  Ni3  1  0.29808475  0.33463672  0.19766915  1
  Ni  Ni4  1  0.70191525  0.03655097  0.80233085  1
  Ni  Ni5  1  0.33463672  0.29808475  0.80233085  1
  Ni  Ni6  1  0.96344903  0.66536328  0.80233085  1
  Ni  Ni7  1  0.35775290  0.03318059  0.30514172  1
  Ni  Ni8  1  0.96681941  0.32457330  0.30514172  1
  Ni  Ni9  1  0.67542670  0.64224710  0.30514172  1
  Ni  Ni10  1  0.32457330  0.96681941  0.69485828  1
  Ni  Ni11  1  0.64224710  0.67542670  0.69485828  1
  Ni  Ni12  1  0.03318059  0.35775290  0.69485828  1
  Ni  Ni13  1  0.63310656  0.94070578  0.40355269  1
  Ni  Ni14  1  0.05929422  0.69240078  0.40355269  1
  Ni  Ni15  1  0.30759922  0.36689344  0.40355269  1
  Ni  Ni16  1  0.69240078  0.05929422  0.59644731  1
  Ni  Ni17  1  0.36689344  0.30759922  0.59644731  1
  Ni  Ni18  1  0.94070578  0.63310656  0.59644731  1
  Ni  Ni19  1  0.58845810  0.66664808  0.90459940  1
  Ni  Ni20  1  0.33335192  0.92181102  0.90459940  1
  Ni  Ni21  1  0.66664808  0.58845810  0.09540060  1
  Ni  Ni22  1  0.92181102  0.33335192  0.09540060  1
  Ni  Ni23  1  0.41154190  0.07818898  0.09540060  1
  Ni  Ni24  1  0.66666700  0.33333300  0.43331865  1
  Ni  Ni25  1  0.33333300  0.66666700  0.56668135  1
  Ni  Ni26  1  0.66666700  0.33333300  0.92741400  1
  Ni  Ni27  1  0.33333300  0.66666700  0.07258600  1
  Ni  Ni28  1  0.00000000  0.00000000  0.90273805  1
  Ni  Ni29  1  0.00000000  0.00000000  0.09726195  1
  Ni  Ni30  1  0.00000000  0.00000000  0.50000000  1
loop_
_geom_bond_atom_site_label_1
_geom_bond_atom_site_label_2
_geom_bond_distance
_geom_bond_site_symmetry_2
Ni0 Si3 2.281085 1_556
Ni0 Si7 2.317940 1_555
Ni0 Si4 2.389522 1_556
Ni0 Ni22 2.484668 1_456
Ni0 Ni6 2.487427 1_455
Ni0 Ni5 2.496330 1_555
Ni0 Ni28 2.497063 1_555
Ni0 Ni26 2.512132 1_455
Ni0 Ni12 2.569920 1_555
Ni0 Ni27 2.645567 1_556
Ni0 Ni4 2.771896 1_455
Ni0 Si5 2.906841 1_456
Ni0 Ni20 2.914843 1_555
Ni0 Ni19 2.914844 1_555
Ni1 Si9 2.287479 1_555
Ni1 Si11 2.396796 1_665
Ni1 Si5 2.411078 1_565
Ni1 Ni29 2.426261 1_665
Ni1 Si6 2.460690 1_565
Ni1 Ni23 2.487427 1_565
Ni1 Ni22 2.496322 1_565
Ni1 Ni13 2.508967 1_555
Ni1 Ni9 2.517805 1_555
Ni1 Ni8 2.568438 1_565
Ni1 Ni27 2.579079 1_555
Ni1 Ni7 2.639559 1_565
Ni1 Ni21 2.771901 1_555
Ni2 Si9 2.287479 1_555
Ni2 Si11 2.396790 1_565
Ni2 Si4 2.411078 1_555
Ni2 Ni29 2.426255 1_565
Ni2 Si6 2.460697 1_455
Ni2 Ni22 2.487438 1_455
Ni2 Ni21 2.496319 1_455
Ni2 Ni7 2.517805 1_565
Ni2 Ni9 2.568438 1_455
Ni2 Ni27 2.579079 1_555
Ni2 Ni8 2.639559 1_455
Ni2 Ni23 2.771895 1_565
Ni3 Si9 2.287479 1_555
Ni3 Si11 2.396794 1_555
Ni3 Si3 2.411079 1_555
Ni3 Si6 2.460704 1_555
Ni3 Ni8 2.517805 1_455
Ni3 Ni7 2.568437 1_555
Ni3 Ni9 2.639559 1_555
Ni4 Si8 2.287479 1_555
Ni4 Si10 2.396790 1_655
Ni4 Si5 2.411078 1_556
Ni4 Si7 2.460697 1_545
Ni5 Si8 2.287479 1_555
Ni5 Si10 2.396794 1_555
Ni5 Si3 2.411079 1_556
Ni5 Si7 2.460703 1_555
Ni6 Si8 2.287479 1_555
Ni6 Si10 2.396796 1_665
Ni6 Si4 2.411078 1_656
Ni6 Si7 2.460691 1_655
Ni7 Si6 2.224625 1_555
Ni7 Si11 2.262987 1_555
Ni7 Si9 2.368983 1_545
Ni7 Si2 2.376277 1_555
Ni8 Si6 2.224619 1_555
Ni8 Si11 2.262993 1_655
Ni8 Si9 2.368984 1_655
Ni8 Si1 2.376276 1_655
Ni9 Si6 2.224631 1_555
Ni9 Si11 2.262990 1_665
Ni9 Si9 2.368984 1_555
Ni9 Si0 2.376276 1_555
Ni10 Si7 2.224619 1_555
Ni10 Si10 2.262993 1_565
Ni10 Si8 2.368983 1_565
Ni10 Si2 2.376276 1_565
Ni10 Ni17 2.435806 1_565
Ni10 Ni16 2.491731 1_565
Ni10 Ni5 2.517805 1_565
Ni10 Ni25 2.542325 1_555
Ni10 Ni6 2.568438 1_455
Ni10 Ni20 2.569919 1_555
Ni10 Ni4 2.639560 1_565
Ni10 Ni18 2.667014 1_455
Ni11 Si7 2.224631 1_555
Ni11 Si10 2.262990 1_665
Ni11 Si8 2.368983 1_555
Ni11 Si0 2.376276 1_555
Ni11 Ni18 2.435800 1_555
Ni11 Ni17 2.491733 1_555
Ni11 Ni6 2.517805 1_555
Ni11 Ni25 2.542335 1_555
Ni11 Ni4 2.568437 1_565
Ni11 Ni19 2.569921 1_555
Ni11 Ni5 2.639559 1_555
Ni11 Ni16 2.667015 1_565
Ni12 Si7 2.224625 1_555
Ni12 Si10 2.262986 1_555
Ni12 Si8 2.368984 1_455
Ni12 Si1 2.376277 1_555
Ni12 Ni16 2.435804 1_455
Ni12 Ni18 2.491736 1_455
Ni12 Ni4 2.517805 1_455
Ni12 Ni25 2.542330 1_555
Ni12 Ni5 2.568438 1_555
Ni12 Ni6 2.639559 1_455
Ni12 Ni17 2.667010 1_555
Ni13 Si0 2.299372 1_555
Ni13 Si2 2.391633 1_565
Ni13 Ni9 2.435800 1_555
Ni13 Ni16 2.439901 1_565
Ni13 Si9 2.455542 1_555
Ni13 Ni7 2.491737 1_565
Ni13 Ni24 2.512685 1_565
Ni13 Ni30 2.537062 1_665
Ni13 Si11 2.619636 1_665
Ni13 Ni8 2.667013 1_565
Ni13 Ni25 2.744520 1_555
Ni13 Si1 2.828914 1_665
Ni14 Si2 2.299373 1_565
Ni14 Si1 2.391633 1_555
Ni14 Ni7 2.435804 1_565
Ni14 Ni18 2.439901 1_455
Ni14 Si9 2.455539 1_555
Ni14 Ni8 2.491731 1_455
Ni14 Ni2 2.508967 1_555
Ni14 Ni24 2.512688 1_455
Ni14 Ni30 2.537062 1_565
Ni14 Si11 2.619635 1_565
Ni14 Ni9 2.667016 1_455
Ni14 Ni25 2.744518 1_555
Ni14 Si0 2.828914 1_455
Ni15 Si1 2.299373 1_555
Ni15 Si0 2.391633 1_555
Ni15 Ni8 2.435806 1_455
Ni15 Ni17 2.439901 1_555
Ni15 Si9 2.455544 1_555
Ni15 Ni9 2.491733 1_555
Ni15 Ni3 2.508967 1_555
Ni15 Ni24 2.512692 1_555
Ni15 Ni30 2.537062 1_555
Ni15 Si11 2.619635 1_555
Ni15 Ni7 2.667010 1_555
Ni15 Ni25 2.744522 1_555
Ni15 Si2 2.828913 1_555
Ni16 Si1 2.299373 1_655
Ni16 Si2 2.391633 1_555
Ni16 Si8 2.455539 1_555
Ni16 Ni4 2.508967 1_555
Ni16 Ni25 2.512688 1_545
Ni16 Ni30 2.537062 1_655
Ni16 Si10 2.619635 1_655
Ni16 Ni24 2.744518 1_555
Ni16 Si0 2.828913 1_545
Ni17 Si2 2.299372 1_555
Ni17 Si0 2.391633 1_555
Ni17 Si8 2.455544 1_555
Ni17 Ni5 2.508967 1_555
Ni17 Ni25 2.512691 1_555
Ni17 Ni30 2.537062 1_555
Ni17 Si10 2.619636 1_555
Ni17 Ni24 2.744522 1_555
Ni17 Si1 2.828914 1_555
Ni18 Si0 2.299373 1_555
Ni18 Si1 2.391633 1_655
Ni18 Si8 2.455542 1_555
Ni18 Ni6 2.508967 1_555
Ni18 Ni25 2.512685 1_655
Ni18 Ni30 2.537062 1_665
Ni18 Si10 2.619635 1_665
Ni18 Ni24 2.744520 1_555
Ni18 Si2 2.828914 1_665
Ni19 Si5 2.281079 1_566
Ni19 Si7 2.317940 1_555
Ni19 Si3 2.389526 1_556
Ni19 Ni21 2.484672 1_556
Ni19 Ni5 2.487436 1_555
Ni19 Ni4 2.496319 1_565
Ni19 Ni28 2.497062 1_665
Ni19 Ni26 2.512144 1_555
Ni19 Ni27 2.645567 1_556
Ni19 Ni6 2.771901 1_555
Ni19 Si4 2.906844 1_656
Ni19 Ni20 2.914843 1_555
Ni20 Si4 2.281081 1_556
Ni20 Si7 2.317940 1_555
Ni20 Si5 2.389528 1_566
Ni20 Ni23 2.484668 1_566
Ni20 Ni4 2.487438 1_565
Ni20 Ni6 2.496322 1_455
Ni20 Ni28 2.497057 1_565
Ni20 Ni26 2.512136 1_565
Ni20 Ni27 2.645567 1_556
Ni20 Ni5 2.771889 1_565
Ni20 Si3 2.906837 1_566
Ni21 Si4 2.281079 1_655
Ni21 Si6 2.317940 1_555
Ni21 Si3 2.389526 1_555
Ni21 Ni3 2.487436 1_555
Ni21 Ni29 2.497061 1_665
Ni21 Ni27 2.512145 1_555
Ni21 Ni9 2.569921 1_555
Ni21 Ni26 2.645567 1_554
Ni21 Si5 2.906843 1_565
Ni21 Ni23 2.914843 1_555
Ni21 Ni22 2.914843 1_555
Ni22 Si5 2.281080 1_555
Ni22 Si6 2.317940 1_555
Ni22 Si4 2.389527 1_655
Ni22 Ni29 2.497057 1_655
Ni22 Ni27 2.512137 1_655
Ni22 Ni8 2.569919 1_555
Ni22 Ni26 2.645567 1_554
Ni22 Ni3 2.771890 1_655
Ni22 Si3 2.906838 1_655
Ni22 Ni23 2.914844 1_555
Ni23 Si3 2.281084 1_555
Ni23 Si6 2.317940 1_555
Ni23 Si5 2.389522 1_555
Ni23 Ni3 2.496330 1_555
Ni23 Ni29 2.497064 1_555
Ni23 Ni27 2.512131 1_545
Ni23 Ni7 2.569920 1_555
Ni23 Ni26 2.645567 1_554
Ni23 Si4 2.906841 1_545
Ni24 Si1 2.291203 1_655
Ni24 Si2 2.291206 1_555
Ni24 Si0 2.291209 1_555
Ni24 Si6 2.512269 1_555
Ni24 Ni8 2.542325 1_555
Ni24 Ni7 2.542330 1_555
Ni24 Ni9 2.542335 1_555
Ni25 Si2 2.291203 1_565
Ni25 Si1 2.291206 1_555
Ni25 Si0 2.291209 1_555
Ni25 Si7 2.512269 1_555
Ni26 Si5 2.417282 1_556
Ni26 Si4 2.417286 1_656
Ni26 Si3 2.417289 1_556
Ni26 Si8 2.463984 1_555
Ni26 Ni4 2.579079 1_555
Ni26 Ni6 2.579079 1_555
Ni26 Ni5 2.579079 1_555
Ni27 Si4 2.417283 1_555
Ni27 Si5 2.417286 1_565
Ni27 Si3 2.417288 1_555
Ni27 Si9 2.463984 1_555
Ni27 Ni3 2.579079 1_555
Ni28 Ni29 2.363773 1_556
Ni28 Si10 2.380515 1_555
Ni28 Si4 2.408174 1_546
Ni28 Si3 2.408174 1_556
Ni28 Si5 2.408174 1_456
Ni28 Ni4 2.426256 1_455
Ni28 Ni5 2.426259 1_555
Ni28 Ni6 2.426261 1_445
Ni29 Si11 2.380515 1_555
Ni29 Si4 2.408174 1_545
Ni29 Si3 2.408174 1_555
Ni29 Si5 2.408174 1_455
Ni29 Ni3 2.426259 1_555
Ni30 Si1 2.314478 1_555
Ni30 Si0 2.314478 1_445
Ni30 Si2 2.314478 1_555
Ni30 Si10 2.513390 1_555
Ni30 Si11 2.513390 1_555
