# generated using pymatgen
data_NaTi2Sn2P5SO24
_symmetry_space_group_name_H-M   'P 1'
_cell_length_a   8.66352423
_cell_length_b   8.67418160
_cell_length_c   22.57921338
_cell_angle_alpha   90.00765227
_cell_angle_beta   89.87098754
_cell_angle_gamma   120.02776931
_symmetry_Int_Tables_number   1
_chemical_formula_structural   NaTi2Sn2P5SO24
_chemical_formula_sum   'Na3 Ti6 Sn6 P15 S3 O72'
_cell_volume   1469.06010336
_cell_formula_units_Z   3
loop_
 _symmetry_equiv_pos_site_id
 _symmetry_equiv_pos_as_xyz
  1  'x, y, z'
loop_
 _atom_site_type_symbol
 _atom_site_label
 _atom_site_symmetry_multiplicity
 _atom_site_fract_x
 _atom_site_fract_y
 _atom_site_fract_z
 _atom_site_occupancy
  Na  Na0  1  0.66956185  0.33678857  0.83286736  1
  Na  Na1  1  0.66725780  0.33400252  0.33203135  1
  Na  Na2  1  0.33346638  0.66678536  0.16680411  1
  Ti  Ti0  1  0.98993410  0.99946455  0.85448968  1
  Ti  Ti1  1  0.00695867  0.99824278  0.64812083  1
  Ti  Ti2  1  0.66124372  0.32418258  0.68857085  1
  Ti  Ti3  1  0.65711205  0.32727104  0.47751931  1
  Ti  Ti4  1  0.33255126  0.67299649  0.51854433  1
  Ti  Ti5  1  0.32987101  0.65516769  0.80826614  1
  Sn  Sn0  1  0.00067809  0.00012369  0.35512144  1
  Sn  Sn1  1  0.99977319  0.00049248  0.14525153  1
  Sn  Sn2  1  0.66710024  0.33304742  0.18600857  1
  Sn  Sn3  1  0.67088913  0.33806386  0.98176186  1
  Sn  Sn4  1  0.33491864  0.66314820  0.01971726  1
  Sn  Sn5  1  0.33294051  0.66624553  0.31381312  1
  P  P0  1  0.29059572  -0.00006023  0.25005205  1
  P  P1  1  0.70976637  0.70924900  0.25020557  1
  P  P2  1  -0.00030489  0.29025019  0.25018852  1
  P  P3  1  0.28458952  0.28237561  0.75038557  1
  P  P4  1  0.99944123  0.71265148  0.75084776  1
  P  P5  1  0.71280953  0.99745165  0.74938878  1
  P  P6  1  0.37912769  0.04530417  0.58333633  1
  P  P7  1  0.96027987  0.62716120  0.08361018  1
  P  P8  1  0.66638072  0.04147457  0.08300008  1
  P  P9  1  0.37516407  0.33211372  0.08344014  1
  P  P10  1  0.62088897  0.66634801  0.91433824  1
  P  P11  1  0.04511473  0.37712507  0.91454417  1
  P  P12  1  0.62216844  0.95578538  0.41787206  1
  P  P13  1  0.33264637  0.37978152  0.41860393  1
  P  P14  1  0.04122949  0.66402504  0.41816114  1
  S  S0  1  0.95404030  0.33220030  0.58334817  1
  S  S1  1  0.66652051  0.62097981  0.58354866  1
  S  S2  1  0.33048460  0.95515315  0.91429526  1
  O  O0  1  0.21399985  0.03529685  0.30687782  1
  O  O1  1  0.82149295  0.78628184  0.30688297  1
  O  O2  1  0.96431559  0.17820310  0.30690289  1
  O  O3  1  0.20199521  0.16710063  0.80526138  1
  O  O4  1  0.96697781  0.80015443  0.80492257  1
  O  O5  1  0.83173682  0.03451029  0.80471308  1
  O  O6  1  0.80203364  0.97101116  0.69443575  1
  O  O7  1  0.16957611  0.19897400  0.69445785  1
  O  O8  1  0.02943865  0.83076004  0.69482856  1
  O  O9  1  0.78708631  0.82181450  0.19431612  1
  O  O10  1  0.03502814  0.21315483  0.19430898  1
  O  O11  1  0.17803788  0.96509987  0.19436263  1
  O  O12  1  0.87084388  0.36377533  0.63672721  1
  O  O13  1  0.50032659  0.13800310  0.63825867  1
  O  O14  1  0.63738149  0.50727000  0.63659046  1
  O  O15  1  0.88308870  0.50907195  0.13906360  1
  O  O16  1  0.62657075  0.11814987  0.13884475  1
  O  O17  1  0.49221783  0.37217607  0.13896154  1
  O  O18  1  0.45304059  0.29836102  0.02640568  1
  O  O19  1  0.84853755  0.55049257  0.02681993  1
  O  O20  1  0.69989569  0.15348889  0.02614038  1
  O  O21  1  0.47010268  0.16689947  0.52907785  1
  O  O22  1  0.69866176  0.53942573  0.53049500  1
  O  O23  1  0.84112195  0.30311722  0.53066115  1
  O  O24  1  0.55031594  0.70631926  0.97127133  1
  O  O25  1  0.15446842  0.45193602  0.97129610  1
  O  O26  1  0.29906321  0.85111453  0.96990781  1
  O  O27  1  0.52892001  0.83659584  0.47256765  1
  O  O28  1  0.30850371  0.47311016  0.47304648  1
  O  O29  1  0.16361275  0.69228512  0.47251915  1
  O  O30  1  0.11432049  0.62189754  0.36210280  1
  O  O31  1  0.50731679  0.88522089  0.36191522  1
  O  O32  1  0.37782029  0.49300184  0.36194980  1
  O  O33  1  0.13662830  0.49921664  0.86043495  1
  O  O34  1  0.36340253  0.87236595  0.86285670  1
  O  O35  1  0.50040141  0.63857133  0.86043812  1
  O  O36  1  0.02580009  0.83058667  0.41245403  1
  O  O37  1  0.80559034  0.97437123  0.41240693  1
  O  O38  1  0.16967584  0.19505364  0.41252901  1
  O  O39  1  0.02604433  0.19285051  0.90366912  1
  O  O40  1  0.17319986  0.97522983  0.90667396  1
  O  O41  1  0.80715905  0.83084684  0.90372332  1
  O  O42  1  0.97151650  0.17340808  0.59269212  1
  O  O43  1  0.19522007  0.02721746  0.59481227  1
  O  O44  1  0.82572135  0.79858388  0.59260348  1
  O  O45  1  0.97645884  0.80812607  0.09002736  1
  O  O46  1  0.83114736  0.02441090  0.08949098  1
  O  O47  1  0.19318408  0.16760206  0.08959843  1
  O  O48  1  0.69382513  0.16674629  0.74049683  1
  O  O49  1  0.47470222  0.30880218  0.74034812  1
  O  O50  1  0.83405861  0.52633550  0.73963418  1
  O  O51  1  0.69082336  0.52290713  0.24559956  1
  O  O52  1  0.83204954  0.30906801  0.24567261  1
  O  O53  1  0.47712566  0.16768952  0.24562943  1
  O  O54  1  0.63939955  0.49770062  0.91915630  1
  O  O55  1  0.85646820  0.35618129  0.91903564  1
  O  O56  1  0.49451637  0.13523548  0.91999871  1
  O  O57  1  0.64186936  0.14278734  0.42803298  1
  O  O58  1  0.50143211  0.36013516  0.42803185  1
  O  O59  1  0.85628801  0.49751607  0.42934895  1
  O  O60  1  0.35911619  0.50130771  0.07868700  1
  O  O61  1  0.14574065  0.64388225  0.07736651  1
  O  O62  1  0.49637997  0.85667473  0.07736440  1
  O  O63  1  0.36001360  0.86159155  0.57288384  1
  O  O64  1  0.50717617  0.63836010  0.57496057  1
  O  O65  1  0.13160508  0.49180578  0.57492817  1
  O  O66  1  0.30898489  0.83224139  0.25518545  1
  O  O67  1  0.52349446  0.69110590  0.25520866  1
  O  O68  1  0.16757664  0.47642077  0.25513207  1
  O  O69  1  0.30695749  0.46944647  0.75918560  1
  O  O70  1  0.16531095  0.69455925  0.76098431  1
  O  O71  1  0.52755290  0.83692504  0.76110296  1
loop_
_geom_bond_atom_site_label_1
_geom_bond_atom_site_label_2
_geom_bond_distance
_geom_bond_site_symmetry_2
Na0 O54 2.484859 1_555
Na0 O55 2.485400 1_555
Na0 O56 2.561408 1_555
Na0 O50 2.609242 1_555
Na0 O48 2.622444 1_555
Na0 O49 2.622672 1_555
Na1 O52 2.486684 1_555
Na1 O51 2.489880 1_555
Na1 O53 2.497171 1_555
Na1 O58 2.669389 1_555
Na1 O57 2.670544 1_555
Na1 O59 2.685642 1_555
Na2 O68 2.526363 1_555
Na2 O60 2.526807 1_555
Na2 O66 2.527667 1_555
Na2 O67 2.531082 1_555
Na2 O62 2.538649 1_555
Na2 O61 2.540462 1_555
O0 P0 1.542874 1_555
O0 Sn0 2.030246 1_555
O1 P1 1.542448 1_555
O1 Sn0 2.040101 1_665
O2 P2 1.542346 1_655
O2 Sn0 2.039532 1_655
O3 P3 1.525564 1_555
O3 Ti0 2.010657 1_445
O4 P4 1.535520 1_555
O4 Ti0 1.984294 1_555
O5 P5 1.549054 1_545
O5 Ti0 1.912593 1_545
O6 P5 1.537120 1_555
O6 Ti1 1.968079 1_655
O7 P3 1.547534 1_555
O7 Ti1 1.913696 1_545
O8 P4 1.565061 1_455
O8 Ti1 1.882877 1_555
O9 P1 1.528562 1_555
O9 Sn1 2.039048 1_565
O10 P2 1.528318 1_555
O10 Sn1 2.039642 1_455
O11 P0 1.527688 1_565
O11 Sn1 2.047290 1_465
O12 S0 1.496914 1_555
O12 Ti2 2.037648 1_555
O13 P6 1.564456 1_555
O13 Ti2 1.896171 1_555
O14 S1 1.490197 1_555
O14 Ti2 2.067028 1_555
O15 P7 1.541166 1_555
O15 Sn2 2.021966 1_555
O16 P8 1.542285 1_555
O16 Sn2 2.019443 1_555
O17 P9 1.540665 1_555
O17 Sn2 2.015238 1_555
O18 P9 1.546937 1_555
O18 Sn3 2.009416 1_554
O19 P7 1.544250 1_555
O19 Sn3 1.991816 1_554
O20 P8 1.546912 1_555
O20 Sn3 2.008676 1_554
O21 P6 1.548733 1_555
O21 Ti3 1.910905 1_555
O22 S1 1.486063 1_555
O22 Ti3 2.070096 1_555
O23 S0 1.481230 1_555
O23 Ti3 2.089980 1_555
O24 P10 1.534622 1_555
O24 Sn4 2.027471 1_556
O25 P11 1.533171 1_555
O25 Sn4 2.033837 1_556
O26 S2 1.489350 1_555
O26 Sn4 2.128073 1_556
O27 P12 1.551334 1_555
O27 Ti4 1.887309 1_555
O28 P13 1.542163 1_555
O28 Ti4 1.934931 1_555
O29 P14 1.560876 1_555
O29 Ti4 1.871382 1_555
O30 P14 1.537691 1_555
O30 Sn5 2.045909 1_555
O31 P12 1.535238 1_555
O31 Sn5 2.050526 1_555
O32 P13 1.538650 1_555
O32 Sn5 2.043986 1_555
O33 P11 1.548693 1_555
O33 Ti5 1.935250 1_555
O34 S2 1.466020 1_555
O34 Ti5 2.146268 1_555
O35 P10 1.543612 1_555
O35 Ti5 1.952397 1_555
O36 P14 1.521610 1_555
O36 Sn0 2.051323 1_565
O37 P12 1.519577 1_555
O37 Sn0 2.047415 1_665
O38 P13 1.521966 1_555
O38 Sn0 2.052581 1_555
O39 P11 1.542187 1_555
O39 Ti0 1.902805 1_445
O40 S2 1.468092 1_555
O40 Ti0 2.072667 1_455
O41 P10 1.546427 1_555
O41 Ti0 1.885994 1_555
O42 S0 1.474309 1_555
O42 Ti1 2.106757 1_645
O43 P6 1.542173 1_555
O43 Ti1 1.937301 1_545
O44 S1 1.480556 1_555
O44 Ti1 2.079141 1_655
O45 P7 1.511454 1_555
O45 Sn1 2.010761 1_565
O46 P8 1.514410 1_555
O46 Sn1 2.018443 1_555
O47 P9 1.512840 1_555
O47 Sn1 2.011966 1_455
O48 P5 1.570282 1_545
O48 Ti2 1.925351 1_555
O49 P3 1.561133 1_555
O49 Ti2 1.942193 1_555
O50 P4 1.553351 1_555
O50 Ti2 2.006341 1_555
O51 P1 1.544319 1_555
O51 Sn2 2.055908 1_555
O52 P2 1.544168 1_655
O52 Sn2 2.050981 1_555
O53 P0 1.544229 1_555
O53 Sn2 2.050912 1_555
O54 P10 1.553216 1_555
O54 Sn3 2.090558 1_555
O55 P11 1.554499 1_655
O55 Sn3 2.086258 1_555
O56 S2 1.501735 1_545
O56 Sn3 2.166415 1_555
O57 P12 1.560746 1_545
O57 Ti3 1.901423 1_555
O58 P13 1.569533 1_555
O58 Ti3 1.881646 1_555
O59 P14 1.548952 1_655
O59 Ti3 1.944978 1_555
O60 P9 1.545665 1_555
O60 Sn4 2.020856 1_555
O61 P7 1.545407 1_455
O61 Sn4 2.030951 1_555
O62 P8 1.546880 1_565
O62 Sn4 2.031350 1_555
O63 P6 1.535745 1_565
O63 Ti4 1.961995 1_555
O64 S1 1.474983 1_555
O64 Ti4 2.113144 1_555
O65 S0 1.478695 1_455
O65 Ti4 2.091369 1_555
O66 P0 1.544953 1_565
O66 Sn5 2.041938 1_555
O67 P1 1.544923 1_555
O67 Sn5 2.038819 1_555
O68 P2 1.544558 1_555
O68 Sn5 2.041138 1_555
O69 P3 1.547745 1_555
O69 Ti5 1.882343 1_555
O70 P4 1.539229 1_455
O70 Ti5 1.945129 1_555
O71 P5 1.531754 1_555
O71 Ti5 1.960258 1_555
