# generated using pymatgen
data_Na8Al2Zn2Si3(SO8)3
_symmetry_space_group_name_H-M   'P 1'
_cell_length_a   9.08106269
_cell_length_b   9.02133908
_cell_length_c   21.90009501
_cell_angle_alpha   93.29388603
_cell_angle_beta   88.79649140
_cell_angle_gamma   120.53160361
_symmetry_Int_Tables_number   1
_chemical_formula_structural   Na8Al2Zn2Si3(SO8)3
_chemical_formula_sum   'Na24 Al6 Zn6 Si9 S9 O72'
_cell_volume   1542.74848412
_cell_formula_units_Z   3
loop_
 _symmetry_equiv_pos_site_id
 _symmetry_equiv_pos_as_xyz
  1  'x, y, z'
loop_
 _atom_site_type_symbol
 _atom_site_label
 _atom_site_symmetry_multiplicity
 _atom_site_fract_x
 _atom_site_fract_y
 _atom_site_fract_z
 _atom_site_occupancy
  Na  Na0  1  0.64536980  0.02255520  0.26232312  1
  Na  Na1  1  0.35919328  0.34694656  0.25418931  1
  Na  Na2  1  0.99766350  0.63181439  0.24155181  1
  Na  Na3  1  0.63598298  0.63686310  0.73385966  1
  Na  Na4  1  0.98880196  0.34662844  0.73642780  1
  Na  Na5  1  0.37989588  0.02926764  0.74845771  1
  Na  Na6  1  0.31164395  0.35248832  0.59290014  1
  Na  Na7  1  0.02697140  0.68043007  0.58683205  1
  Na  Na8  1  0.66677501  0.96343024  0.57834899  1
  Na  Na9  1  0.28976619  0.95648373  0.08488922  1
  Na  Na10  1  0.66623326  0.69313360  0.07768769  1
  Na  Na11  1  0.03361005  0.34526766  0.09467649  1
  Na  Na12  1  0.98451568  0.68906942  0.91469405  1
  Na  Na13  1  0.68323276  0.01931716  0.90159832  1
  Na  Na14  1  0.32637789  0.28922528  0.90745001  1
  Na  Na15  1  0.95842503  0.28486892  0.41733294  1
  Na  Na16  1  0.33105442  0.02974739  0.40626504  1
  Na  Na17  1  0.69739118  0.67936066  0.43139012  1
  Na  Na18  1  0.98162746  0.99697135  0.49931772  1
  Na  Na19  1  0.01197856  0.99412452  0.99643484  1
  Na  Na20  1  0.64837159  0.32935262  0.82494705  1
  Na  Na21  1  0.66984605  0.31914837  0.33371171  1
  Na  Na22  1  0.31399783  0.66322570  0.16588625  1
  Na  Na23  1  0.34273535  0.65840474  0.66296597  1
  Al  Al0  1  0.97911808  0.02242885  0.64484462  1
  Al  Al1  1  0.01092975  0.98324134  0.15940235  1
  Al  Al2  1  0.66572167  0.33555426  0.98128099  1
  Al  Al3  1  0.67835973  0.31568078  0.49193360  1
  Al  Al4  1  0.32396777  0.68696375  0.30984748  1
  Al  Al5  1  0.35010256  0.69023623  0.80577517  1
  Zn  Zn0  1  0.00050482  0.01806680  0.34490811  1
  Zn  Zn1  1  0.01281773  0.02117130  0.83711919  1
  Zn  Zn2  1  0.67340202  0.33900375  0.68161409  1
  Zn  Zn3  1  0.67899663  0.32642488  0.18729784  1
  Zn  Zn4  1  0.30927067  0.68233976  0.01227545  1
  Zn  Zn5  1  0.35339346  0.66550420  0.52103711  1
  Si  Si0  1  0.29749593  0.99805940  0.25151657  1
  Si  Si1  1  0.01082109  0.29808472  0.25125290  1
  Si  Si2  1  0.29355021  0.30286664  0.75052066  1
  Si  Si3  1  0.70230888  0.99650050  0.75106510  1
  Si  Si4  1  0.96902882  0.33584517  0.58365216  1
  Si  Si5  1  0.68323362  0.62897677  0.58407968  1
  Si  Si6  1  0.95004538  0.62871503  0.08558196  1
  Si  Si7  1  0.33986793  0.97109006  0.91919011  1
  Si  Si8  1  0.62137598  0.96109971  0.41828884  1
  S  S0  1  0.70154368  0.71205291  0.24902591  1
  S  S1  1  0.01297420  0.70714526  0.75563328  1
  S  S2  1  0.36810910  0.04432382  0.58177716  1
  S  S3  1  0.66918678  0.03932458  0.07887501  1
  S  S4  1  0.37366098  0.32974705  0.08189939  1
  S  S5  1  0.61710330  0.65236668  0.92007844  1
  S  S6  1  0.02609927  0.36949922  0.92176620  1
  S  S7  1  0.33824514  0.37354253  0.41401436  1
  S  S8  1  0.03678185  0.65944617  0.41476408  1
  O  O0  1  0.20846789  0.02363043  0.31256347  1
  O  O1  1  0.80157025  0.78564626  0.30555139  1
  O  O2  1  0.96252132  0.18977223  0.31193674  1
  O  O3  1  0.23134807  0.19185031  0.81138072  1
  O  O4  1  0.99708620  0.79001937  0.81375117  1
  O  O5  1  0.80493475  0.00901356  0.81304172  1
  O  O6  1  0.79652848  0.96733863  0.69077374  1
  O  O7  1  0.15870599  0.19494445  0.69231767  1
  O  O8  1  0.03421924  0.80787456  0.70211188  1
  O  O9  1  0.79650552  0.81823713  0.19524555  1
  O  O10  1  0.03232387  0.18470445  0.19104476  1
  O  O11  1  0.17683764  0.96404906  0.19072068  1
  O  O12  1  0.88849171  0.37128796  0.64516603  1
  O  O13  1  0.46600773  0.11580783  0.63941412  1
  O  O14  1  0.64414427  0.51403865  0.64225725  1
  O  O15  1  0.86609450  0.51764900  0.14472073  1
  O  O16  1  0.63836578  0.10787119  0.13726183  1
  O  O17  1  0.46548385  0.34582633  0.13845128  1
  O  O18  1  0.46854575  0.31632846  0.02656676  1
  O  O19  1  0.82285333  0.53022929  0.02473768  1
  O  O20  1  0.67741094  0.14479070  0.02703077  1
  O  O21  1  0.46688309  0.15112785  0.52885761  1
  O  O22  1  0.70010500  0.51938425  0.52184098  1
  O  O23  1  0.84560526  0.29861046  0.52357051  1
  O  O24  1  0.52976051  0.66033376  0.97663821  1
  O  O25  1  0.12763448  0.44587147  0.97919358  1
  O  O26  1  0.30882038  0.87533139  0.98280363  1
  O  O27  1  0.54282750  0.85321577  0.47856056  1
  O  O28  1  0.32352912  0.45603105  0.47149929  1
  O  O29  1  0.13320760  0.67529778  0.46973768  1
  O  O30  1  0.12937785  0.64943079  0.35763030  1
  O  O31  1  0.49262188  0.86056761  0.35743726  1
  O  O32  1  0.34272806  0.46928158  0.35987581  1
  O  O33  1  0.11145920  0.47205833  0.86907721  1
  O  O34  1  0.36726267  0.85459657  0.86283851  1
  O  O35  1  0.51642506  0.63712186  0.86509422  1
  O  O36  1  0.01149137  0.80924304  0.41356247  1
  O  O37  1  0.81271866  0.98347321  0.41191305  1
  O  O38  1  0.18631632  0.19521400  0.41401018  1
  O  O39  1  0.99403819  0.19070495  0.91691771  1
  O  O40  1  0.17468733  0.99546205  0.91305881  1
  O  O41  1  0.79220731  0.80451768  0.92022353  1
  O  O42  1  0.97932836  0.15785242  0.58633112  1
  O  O43  1  0.20481083  0.04420040  0.58241755  1
  O  O44  1  0.86735615  0.81922671  0.59077616  1
  O  O45  1  0.96677650  0.82550672  0.09248900  1
  O  O46  1  0.83344556  0.03937552  0.07925547  1
  O  O47  1  0.20129806  0.16889051  0.07899995  1
  O  O48  1  0.67815015  0.16275020  0.74852658  1
  O  O49  1  0.48754105  0.33867220  0.74283413  1
  O  O50  1  0.86164652  0.53220822  0.75296470  1
  O  O51  1  0.66525111  0.53348258  0.24126517  1
  O  O52  1  0.85286251  0.33357178  0.24500235  1
  O  O53  1  0.48886104  0.16791647  0.24621435  1
  O  O54  1  0.63214806  0.49156126  0.91838310  1
  O  O55  1  0.85479252  0.36082463  0.92638227  1
  O  O56  1  0.52291689  0.16296580  0.92434320  1
  O  O57  1  0.63421420  0.15581437  0.42508524  1
  O  O58  1  0.49776573  0.36397195  0.41289194  1
  O  O59  1  0.86671982  0.49660998  0.41178405  1
  O  O60  1  0.35228150  0.48189722  0.07934364  1
  O  O61  1  0.14292411  0.65229562  0.08195329  1
  O  O62  1  0.52645386  0.85708968  0.07291034  1
  O  O63  1  0.33226447  0.86566089  0.57421611  1
  O  O64  1  0.52340653  0.66391698  0.58090046  1
  O  O65  1  0.16120651  0.50355586  0.57749890  1
  O  O66  1  0.31004559  0.82097569  0.25307028  1
  O  O67  1  0.53612149  0.71048705  0.24980858  1
  O  O68  1  0.19550827  0.48813707  0.25716530  1
  O  O69  1  0.29386929  0.48801882  0.76196097  1
  O  O70  1  0.17187797  0.69293295  0.75810390  1
  O  O71  1  0.51052331  0.81841794  0.75227902  1
loop_
_geom_bond_atom_site_label_1
_geom_bond_atom_site_label_2
_geom_bond_distance
_geom_bond_site_symmetry_2
Na0 O53 2.414949 1_555
Na0 O67 2.463758 1_545
Na0 O52 2.507483 1_555
Na0 O31 2.562699 1_545
Na0 O66 2.641583 1_545
Na0 O2 2.698119 1_555
Na0 O16 2.897766 1_555
Na1 O68 2.397115 1_555
Na1 O51 2.430284 1_555
Na1 O53 2.432449 1_555
Na1 O32 2.541072 1_555
Na1 O17 2.694539 1_555
Na1 O67 2.832397 1_555
Na1 O0 2.883381 1_555
Na1 O10 2.896751 1_555
Na2 O52 2.323446 1_555
Na2 O15 2.364410 1_555
Na2 O66 2.466791 1_655
Na2 O51 2.679307 1_555
Na2 O68 2.732704 1_655
Na2 O30 2.794015 1_655
Na2 O11 2.867459 1_655
Na3 O14 2.253762 1_555
Na3 O49 2.336140 1_555
Na3 O71 2.438045 1_555
Na3 O50 2.704276 1_555
Na3 O69 2.758592 1_555
Na3 O6 2.784511 1_555
Na4 O12 2.281952 1_555
Na4 O69 2.450969 1_655
Na4 O48 2.458598 1_555
Na4 O50 2.478771 1_555
Na4 O7 2.667749 1_655
Na4 O70 2.708333 1_655
Na5 O48 2.339240 1_555
Na5 O49 2.454376 1_555
Na5 O13 2.537592 1_555
Na5 O70 2.655696 1_545
Na5 O71 2.710598 1_545
Na5 O3 2.751332 1_555
Na5 O8 2.898971 1_545
Na5 O34 3.004801 1_545
Na6 O65 2.408571 1_555
Na6 O43 2.433800 1_555
Na6 O64 2.496934 1_555
Na6 O42 2.610790 1_455
Na6 O7 2.629129 1_555
Na6 O14 2.809719 1_555
Na6 O28 2.850213 1_555
Na7 O44 2.345764 1_455
Na7 O63 2.422538 1_555
Na7 O65 2.449922 1_555
Na7 O8 2.701209 1_555
Na7 O29 2.727033 1_555
Na7 O12 2.787453 1_455
Na7 O43 2.834099 1_565
Na7 O22 2.916436 1_455
Na8 O64 2.332186 1_555
Na8 O27 2.397487 1_555
Na8 O42 2.467893 1_565
Na8 O63 2.700734 1_555
Na8 O6 2.742501 1_555
Na8 O44 2.748334 1_555
Na8 O23 2.926679 1_565
Na8 O13 3.038886 1_565
Na9 O26 2.342769 1_554
Na9 O61 2.361824 1_555
Na9 O47 2.435308 1_565
Na9 O11 2.526112 1_555
Na9 O45 2.551021 1_455
Na9 O62 2.720312 1_555
Na9 O16 2.963430 1_565
Na10 O45 2.379324 1_555
Na10 O62 2.396013 1_555
Na10 O24 2.487604 1_554
Na10 O60 2.498915 1_555
Na10 O46 2.689684 1_565
Na10 O19 2.717704 1_555
Na10 O9 2.781896 1_555
Na11 O46 2.419814 1_455
Na11 O61 2.453229 1_555
Na11 O60 2.527680 1_555
Na11 O10 2.624014 1_555
Na11 O25 2.708272 1_554
Na11 O47 2.710280 1_555
Na11 O15 2.841007 1_455
Na12 O40 2.404703 1_655
Na12 O4 2.417550 1_555
Na12 O41 2.444132 1_555
Na12 O55 2.598493 1_555
Na12 O54 2.762841 1_555
Na12 O19 2.850849 1_556
Na12 O33 2.859986 1_655
Na12 O26 2.930901 1_655
Na13 O5 2.232702 1_555
Na13 O56 2.420572 1_555
Na13 O39 2.452678 1_555
Na13 O34 2.605196 1_545
Na13 O41 2.637582 1_545
Na13 O55 2.679569 1_555
Na13 O20 2.920168 1_556
Na14 O3 2.244228 1_555
Na14 O40 2.292826 1_545
Na14 O54 2.434621 1_555
Na14 O56 2.600265 1_555
Na14 O39 2.685291 1_455
Na14 O18 2.877352 1_556
Na14 O35 2.907412 1_555
Na15 O37 2.339220 1_545
Na15 O2 2.422058 1_555
Na15 O59 2.450367 1_555
Na15 O23 2.544388 1_555
Na15 O57 2.563496 1_555
Na15 O38 2.574847 1_655
Na16 O0 2.339622 1_555
Na16 O57 2.419717 1_555
Na16 O38 2.437128 1_555
Na16 O36 2.560444 1_545
Na16 O58 2.593309 1_555
Na16 O31 2.765368 1_545
Na16 O21 2.890944 1_555
Na17 O37 2.449894 1_555
Na17 O58 2.490701 1_555
Na17 O36 2.504275 1_655
Na17 O22 2.524686 1_555
Na17 O27 2.736196 1_555
Na17 O59 2.780928 1_555
Na17 O1 2.946481 1_555
Na18 O42 2.334417 1_565
Na18 O37 2.436886 1_555
Na18 O44 2.500194 1_555
Na18 O36 2.559007 1_655
Na18 O43 2.605705 1_665
Na18 O38 2.646578 1_665
Na19 O40 2.321315 1_555
Na19 O47 2.399994 1_566
Na19 O41 2.457223 1_455
Na19 O46 2.559061 1_466
Na19 O45 2.569934 1_456
Na19 O39 2.620020 1_465
Na20 O48 2.288654 1_555
Na20 O49 2.372012 1_555
Na20 O50 2.487425 1_555
Na20 O54 2.492493 1_555
Na20 O56 2.612132 1_555
Na20 O55 2.844458 1_555
Na21 O59 2.363999 1_555
Na21 O53 2.405831 1_555
Na21 O58 2.461711 1_555
Na21 O57 2.471325 1_555
Na21 O52 2.495409 1_555
Na21 O51 2.893928 1_555
Na22 O66 2.325702 1_555
Na22 O61 2.396962 1_555
Na22 O68 2.488868 1_555
Na22 O60 2.565693 1_555
Na22 O67 2.611577 1_555
Na22 O62 2.782612 1_555
Na23 O65 2.379439 1_555
Na23 O64 2.393306 1_555
Na23 O71 2.407738 1_555
Na23 O69 2.628564 1_555
Na23 O70 2.669484 1_555
Na23 O63 2.808671 1_555
Al0 O6 1.777126 1_545
Al0 O42 1.819920 1_555
Al0 O7 1.862576 1_655
Al0 O44 1.924407 1_545
Al1 O11 1.758521 1_555
Al1 O10 1.822994 1_565
Al1 O45 1.881067 1_455
Al1 O9 1.936146 1_455
Al1 O47 2.482604 1_565
Al2 O19 1.828935 1_556
Al2 O56 1.858530 1_555
Al2 O18 1.961998 1_556
Al2 O55 1.998129 1_555
Al2 O20 2.089254 1_556
Al2 O54 2.155810 1_555
Al3 O23 1.761962 1_555
Al3 O22 1.828514 1_555
Al3 O57 1.891699 1_555
Al3 O21 1.929203 1_555
Al3 O59 2.457121 1_555
Al4 O31 1.824032 1_555
Al4 O66 1.832578 1_555
Al4 O68 1.897902 1_555
Al4 O30 1.920262 1_555
Al4 O67 2.235141 1_555
Al4 O32 2.383459 1_555
Al5 O71 1.790086 1_555
Al5 O34 1.828947 1_555
Al5 O69 1.839121 1_555
Al5 O70 1.955475 1_555
Al5 O35 2.255610 1_555
Al5 O33 2.519109 1_555
O0 Si0 1.613342 1_545
O0 Zn0 1.980503 1_555
O1 S0 1.462315 1_555
O1 Zn0 2.100474 1_665
O2 Si1 1.613269 1_655
O2 Zn0 1.929164 1_655
O3 Si2 1.626516 1_555
O3 Zn1 1.890744 1_555
O4 S1 1.480640 1_655
O4 Zn1 2.051473 1_665
O5 Si3 1.628547 1_545
O5 Zn1 1.917982 1_655
O6 Si3 1.638912 1_555
O7 Si2 1.668458 1_555
O8 S1 1.473645 1_555
O9 S0 1.515305 1_555
O10 Si1 1.691176 1_555
O11 Si0 1.655354 1_555
O12 Si4 1.612040 1_555
O12 Zn2 1.979990 1_555
O13 S2 1.473301 1_555
O13 Zn2 2.112286 1_555
O14 Si5 1.607272 1_555
O14 Zn2 1.974633 1_555
O15 Si6 1.610613 1_555
O15 Zn3 1.967860 1_555
O16 S3 1.471632 1_555
O16 Zn3 2.062489 1_555
O17 S4 1.466305 1_555
O17 Zn3 2.321176 1_555
O18 S4 1.506916 1_555
O19 Si6 1.668827 1_555
O20 S3 1.499442 1_555
O21 S2 1.510836 1_555
O22 Si5 1.687920 1_555
O23 Si4 1.651973 1_555
O24 S5 1.474784 1_555
O24 Zn4 2.231162 1_556
O25 S6 1.486698 1_555
O25 Zn4 2.023332 1_556
O26 Si7 1.625098 1_555
O26 Zn4 1.893228 1_556
O27 Si8 1.612773 1_555
O27 Zn5 1.961196 1_555
O28 S7 1.463844 1_555
O28 Zn5 2.019320 1_555
O29 S8 1.460796 1_555
O29 Zn5 2.356549 1_555
O30 S8 1.516845 1_555
O31 Si8 1.677720 1_555
O32 S7 1.494420 1_555
O33 S6 1.464513 1_555
O34 Si7 1.671242 1_555
O35 S5 1.484675 1_555
O36 S8 1.483007 1_555
O36 Zn0 2.518393 1_565
O37 Si8 1.648085 1_555
O37 Zn0 2.136710 1_665
O38 S7 1.495482 1_555
O38 Zn0 2.186524 1_555
O39 S6 1.483972 1_655
O39 Zn1 2.316817 1_655
O40 Si7 1.631981 1_555
O40 Zn1 2.339616 1_565
O41 S5 1.481445 1_555
O42 Si4 1.659583 1_555
O43 S2 1.482129 1_555
O44 Si5 1.681835 1_555
O45 Si6 1.701114 1_555
O46 S3 1.491609 1_555
O47 S4 1.498538 1_555
O48 Si3 1.626348 1_545
O48 Zn2 2.239985 1_555
O49 Si2 1.628403 1_555
O49 Zn2 2.132263 1_555
O50 S1 1.473692 1_655
O50 Zn2 2.274599 1_555
O51 S0 1.471088 1_555
O51 Zn3 2.208765 1_555
O52 Si1 1.630548 1_655
O52 Zn3 2.016207 1_555
O53 Si0 1.639477 1_545
O53 Zn3 2.073816 1_555
O54 S5 1.522986 1_555
O55 S6 1.518879 1_655
O56 Si7 1.683489 1_545
O57 Si8 1.698221 1_545
O58 S7 1.493950 1_555
O59 S8 1.495137 1_655
O60 S4 1.484889 1_555
O61 Si6 1.654387 1_455
O61 Zn4 2.053927 1_555
O62 S3 1.489039 1_565
O62 Zn4 2.202003 1_555
O63 S2 1.473006 1_565
O63 Zn5 2.180509 1_555
O64 Si5 1.637790 1_555
O64 Zn5 2.052372 1_555
O65 Si4 1.638206 1_455
O65 Zn5 2.058076 1_555
O66 Si0 1.660615 1_555
O67 S0 1.494828 1_555
O68 Si1 1.682622 1_555
O69 Si2 1.673253 1_555
O70 S1 1.514502 1_555
O71 Si3 1.665849 1_555
