# generated using pymatgen
data_Ba6Fe8S15
_symmetry_space_group_name_H-M   'P 1'
_cell_length_a   9.54266120
_cell_length_b   9.54266120
_cell_length_c   9.54266120
_cell_angle_alpha   106.39805415
_cell_angle_beta   106.39805415
_cell_angle_gamma   115.80961928
_symmetry_Int_Tables_number   1
_chemical_formula_structural   Ba6Fe8S15
_chemical_formula_sum   'Ba6 Fe8 S15'
_cell_volume   662.73262722
_cell_formula_units_Z   1
loop_
 _symmetry_equiv_pos_site_id
 _symmetry_equiv_pos_as_xyz
  1  'x, y, z'
loop_
 _atom_site_type_symbol
 _atom_site_label
 _atom_site_symmetry_multiplicity
 _atom_site_fract_x
 _atom_site_fract_y
 _atom_site_fract_z
 _atom_site_occupancy
  Ba  Ba0  1  0.86756900  0.74889300  0.61646200  1
  Ba  Ba1  1  0.74889300  0.13243100  0.88132500  1
  Ba  Ba2  1  0.25110700  0.86756900  0.11867500  1
  Ba  Ba3  1  0.13243100  0.25110700  0.38353800  1
  Ba  Ba4  1  0.30275300  0.30275300  0.00000000  1
  Ba  Ba5  1  0.69724700  0.69724700  0.00000000  1
  Fe  Fe0  1  0.57490300  0.27988100  0.58812500  1
  Fe  Fe1  1  0.27988100  0.69175500  0.70497700  1
  Fe  Fe2  1  0.98677800  0.57490300  0.29502300  1
  Fe  Fe3  1  0.69175500  0.98677800  0.41187500  1
  Fe  Fe4  1  0.42509700  0.72011900  0.41187500  1
  Fe  Fe5  1  0.72011900  0.30824500  0.29502300  1
  Fe  Fe6  1  0.01322200  0.42509700  0.70497700  1
  Fe  Fe7  1  0.30824500  0.01322200  0.58812500  1
  S  S0  1  0.00000000  0.00000000  0.00000000  1
  S  S1  1  0.50000000  0.00000000  0.50000000  1
  S  S2  1  0.00000000  0.50000000  0.50000000  1
  S  S3  1  0.59746000  0.70519100  0.30265000  1
  S  S4  1  0.70519100  0.40254000  0.10773100  1
  S  S5  1  0.29480900  0.59746000  0.89226900  1
  S  S6  1  0.40254000  0.29480900  0.69735000  1
  S  S7  1  0.50616100  0.30768800  0.35473100  1
  S  S8  1  0.30768800  0.95295800  0.80152800  1
  S  S9  1  0.15143000  0.50616100  0.19847200  1
  S  S10  1  0.95295800  0.15143000  0.64526900  1
  S  S11  1  0.49383900  0.69231200  0.64526900  1
  S  S12  1  0.69231200  0.04704200  0.19847200  1
  S  S13  1  0.84857000  0.49383900  0.80152800  1
  S  S14  1  0.04704200  0.84857000  0.35473100  1
loop_
_geom_bond_atom_site_label_1
_geom_bond_atom_site_label_2
_geom_bond_distance
_geom_bond_site_symmetry_2
Ba0 S3 3.128272 1_555
Ba0 S2 3.223278 1_655
Ba0 S0 3.245646 1_666
Ba0 S8 3.361388 1_655
Ba0 S13 3.361397 1_555
Ba0 S10 3.470840 1_565
Ba0 S11 3.470842 1_555
Ba0 S14 3.523349 1_655
Ba0 S7 3.523355 1_555
Ba1 S4 3.128260 1_556
Ba1 S1 3.223286 1_555
Ba1 S0 3.245643 1_656
Ba1 S11 3.361390 1_545
Ba1 S10 3.361405 1_555
Ba1 S12 3.470828 1_556
Ba1 S9 3.470837 1_656
Ba1 S13 3.523355 1_555
Ba1 S8 3.523355 1_545
Ba2 S5 3.128260 1_554
Ba2 S1 3.223286 1_565
Ba2 S0 3.245643 1_565
Ba2 S7 3.361390 1_565
Ba2 S14 3.361405 1_555
Ba2 S8 3.470828 1_554
Ba2 S13 3.470837 1_454
Ba2 S9 3.523355 1_555
Ba2 S12 3.523355 1_565
Ba3 S6 3.128272 1_555
Ba3 S2 3.223278 1_555
Ba3 S0 3.245646 1_555
Ba3 S12 3.361388 1_455
Ba3 S9 3.361397 1_555
Ba3 S14 3.470840 1_545
Ba3 S7 3.470842 1_555
Ba3 S10 3.523349 1_455
Ba3 S11 3.523355 1_555
Ba4 S0 3.070084 1_555
Ba4 S6 3.278041 1_554
Ba4 S3 3.278047 1_555
Ba4 S4 3.278050 1_555
Ba4 S5 3.278050 1_554
Ba4 S8 3.368842 1_544
Ba4 S9 3.368847 1_555
Ba4 S10 3.368847 1_454
Ba4 S7 3.368852 1_555
Ba5 S0 3.070084 1_665
Ba5 S3 3.278041 1_555
Ba5 S6 3.278047 1_554
Ba5 S4 3.278050 1_555
Ba5 S5 3.278050 1_554
Ba5 S12 3.368842 1_565
Ba5 S14 3.368847 1_655
Ba5 S13 3.368847 1_554
Ba5 S11 3.368852 1_554
Fe0 S6 2.213641 1_555
Fe0 S1 2.254215 1_555
Fe0 S7 2.263071 1_555
Fe0 S13 2.267701 1_555
Fe1 S5 2.213637 1_555
Fe1 S2 2.254212 1_555
Fe1 S8 2.263090 1_555
Fe1 S11 2.267690 1_555
Fe2 S4 2.213637 1_555
Fe2 S2 2.254206 1_655
Fe2 S9 2.263081 1_655
Fe2 S14 2.267702 1_655
Fe3 S3 2.213637 1_555
Fe3 S1 2.254206 1_565
Fe3 S10 2.263081 1_565
Fe3 S12 2.267704 1_565
Fe4 S3 2.213641 1_555
Fe4 S1 2.254215 1_565
Fe4 S11 2.263071 1_555
Fe4 S9 2.267701 1_555
Fe5 S4 2.213637 1_555
Fe5 S2 2.254212 1_655
Fe5 S12 2.263090 1_555
Fe5 S7 2.267690 1_555
Fe6 S5 2.213637 1_555
Fe6 S2 2.254206 1_555
Fe6 S13 2.263081 1_455
Fe6 S10 2.267702 1_455
Fe7 S6 2.213637 1_555
Fe7 S1 2.254206 1_555
Fe7 S14 2.263081 1_545
Fe7 S8 2.267704 1_545
