# generated using pymatgen
data_Na4Mg2P2SO12
_symmetry_space_group_name_H-M   'P 1'
_cell_length_a   9.03554838
_cell_length_b   9.00061279
_cell_length_c   21.95029272
_cell_angle_alpha   89.95137775
_cell_angle_beta   90.00000000
_cell_angle_gamma   120.12848120
_symmetry_Int_Tables_number   1
_chemical_formula_structural   Na4Mg2P2SO12
_chemical_formula_sum   'Na24 Mg12 P12 S6 O72'
_cell_volume   1543.95134944
_cell_formula_units_Z   6
loop_
 _symmetry_equiv_pos_site_id
 _symmetry_equiv_pos_as_xyz
  1  'x, y, z'
loop_
 _atom_site_type_symbol
 _atom_site_label
 _atom_site_symmetry_multiplicity
 _atom_site_fract_x
 _atom_site_fract_y
 _atom_site_fract_z
 _atom_site_occupancy
  Na  Na0  1  0.63400482  0.00688949  0.25476695  1
  Na  Na1  1  0.35511611  0.35384009  0.24642889  1
  Na  Na2  1  0.00753054  0.63282708  0.24858007  1
  Na  Na3  1  0.62529655  0.63282708  0.74858007  1
  Na  Na4  1  0.99872398  0.35384009  0.74642889  1
  Na  Na5  1  0.37288468  0.00688949  0.75476695  1
  Na  Na6  1  0.30067182  0.34022249  0.58809995  1
  Na  Na7  1  0.02178311  0.68717309  0.57976189  1
  Na  Na8  1  0.67419754  0.96616008  0.58191307  1
  Na  Na9  1  0.29196355  0.96616008  0.08191307  1
  Na  Na10  1  0.66539098  0.68717309  0.07976189  1
  Na  Na11  1  0.03955168  0.34022249  0.08809995  1
  Na  Na12  1  0.96733782  0.67355649  0.92143395  1
  Na  Na13  1  0.68844911  0.02050709  0.91309589  1
  Na  Na14  1  0.34086354  0.29949408  0.91524707  1
  Na  Na15  1  0.95862955  0.29949408  0.41524707  1
  Na  Na16  1  0.33205698  0.02050709  0.41309589  1
  Na  Na17  1  0.70621768  0.67355649  0.42143395  1
  Na  Na18  1  0.98639857  0.99216505  0.49997856  1
  Na  Na19  1  0.00576649  0.99216505  0.99997856  1
  Na  Na20  1  0.65306557  0.32549805  0.83331156  1
  Na  Na21  1  0.67243349  0.32549805  0.33331156  1
  Na  Na22  1  0.31973157  0.65883205  0.16664556  1
  Na  Na23  1  0.33909949  0.65883205  0.66664556  1
  Mg  Mg0  1  0.00098480  0.00163313  0.34894212  1
  Mg  Mg1  1  0.00064832  0.00163313  0.84894212  1
  Mg  Mg2  1  0.99254239  0.00516311  0.65098187  1
  Mg  Mg3  1  0.01262072  0.00516311  0.15098187  1
  Mg  Mg4  1  0.66765180  0.33496613  0.68227512  1
  Mg  Mg5  1  0.66731532  0.33496613  0.18227512  1
  Mg  Mg6  1  0.65920939  0.33849611  0.98431487  1
  Mg  Mg7  1  0.67928772  0.33849611  0.48431487  1
  Mg  Mg8  1  0.33431780  0.66830013  0.01560912  1
  Mg  Mg9  1  0.33398132  0.66830013  0.51560912  1
  Mg  Mg10  1  0.32587539  0.67183011  0.31764887  1
  Mg  Mg11  1  0.34595372  0.67183011  0.81764887  1
  P  P0  1  0.29869498  0.00091882  0.25023092  1
  P  P1  1  0.99976522  0.29560390  0.25002296  1
  P  P2  1  0.29583868  0.29560390  0.75002296  1
  P  P3  1  0.70222384  0.00091882  0.75023092  1
  P  P4  1  0.96536198  0.33425182  0.58356392  1
  P  P5  1  0.66643222  0.62893690  0.58335596  1
  P  P6  1  0.96250568  0.62893690  0.08335596  1
  P  P7  1  0.36889084  0.33425182  0.08356392  1
  P  P8  1  0.63202798  0.66758582  0.91689792  1
  P  P9  1  0.33309822  0.96227090  0.91668996  1
  P  P10  1  0.62917168  0.96227090  0.41668996  1
  P  P11  1  0.03555684  0.66758582  0.41689792  1
  S  S0  1  0.70470003  0.70527296  0.24991428  1
  S  S1  1  0.00057293  0.70527296  0.74991428  1
  S  S2  1  0.37136703  0.03860596  0.58324728  1
  S  S3  1  0.66723993  0.03860596  0.08324728  1
  S  S4  1  0.03803303  0.37193996  0.91658128  1
  S  S5  1  0.33390593  0.37193996  0.41658128  1
  O  O0  1  0.21570118  0.02959583  0.30733353  1
  O  O1  1  0.81099934  0.78579766  0.30455389  1
  O  O2  1  0.97026623  0.18321412  0.30703801  1
  O  O3  1  0.21294789  0.18321412  0.80703801  1
  O  O4  1  0.97479832  0.78579766  0.80455389  1
  O  O5  1  0.81389465  0.02959583  0.80733353  1
  O  O6  1  0.78358940  0.96875039  0.69361371  1
  O  O7  1  0.18662345  0.21048196  0.69265340  1
  O  O8  1  0.02846931  0.81265005  0.69493820  1
  O  O9  1  0.78418074  0.81265005  0.19493820  1
  O  O10  1  0.02385851  0.21048196  0.19265340  1
  O  O11  1  0.18516099  0.96875039  0.19361371  1
  O  O12  1  0.88236818  0.36292883  0.64066653  1
  O  O13  1  0.47766634  0.11913066  0.63788689  1
  O  O14  1  0.63693323  0.51654712  0.64037101  1
  O  O15  1  0.87961489  0.51654712  0.14037101  1
  O  O16  1  0.64146532  0.11913066  0.13788689  1
  O  O17  1  0.48056165  0.36292883  0.14066653  1
  O  O18  1  0.45025640  0.30208339  0.02694671  1
  O  O19  1  0.85329045  0.54381496  0.02598640  1
  O  O20  1  0.69513631  0.14598305  0.02827120  1
  O  O21  1  0.45084774  0.14598305  0.52827120  1
  O  O22  1  0.69052551  0.54381496  0.52598640  1
  O  O23  1  0.85182799  0.30208339  0.52694671  1
  O  O24  1  0.54903418  0.69626283  0.97400053  1
  O  O25  1  0.14433234  0.45246466  0.97122089  1
  O  O26  1  0.30359923  0.84988112  0.97370501  1
  O  O27  1  0.54628089  0.84988112  0.47370501  1
  O  O28  1  0.30813132  0.45246466  0.47122089  1
  O  O29  1  0.14722765  0.69626283  0.47400053  1
  O  O30  1  0.11692240  0.63541739  0.36028071  1
  O  O31  1  0.51995645  0.87714896  0.35932040  1
  O  O32  1  0.36180231  0.47931705  0.36160520  1
  O  O33  1  0.11751374  0.47931705  0.86160520  1
  O  O34  1  0.35719151  0.87714896  0.85932040  1
  O  O35  1  0.51849399  0.63541739  0.86028071  1
  O  O36  1  0.01833572  0.83135295  0.41098073  1
  O  O37  1  0.81187816  0.98490153  0.41184085  1
  O  O38  1  0.17821374  0.19873673  0.41148451  1
  O  O39  1  0.02052299  0.19873673  0.91148451  1
  O  O40  1  0.17302338  0.98490153  0.91184085  1
  O  O41  1  0.81301723  0.83135295  0.91098073  1
  O  O42  1  0.98747336  0.17340038  0.58821818  1
  O  O43  1  0.19766484  0.01766950  0.58909116  1
  O  O44  1  0.83237230  0.80913528  0.58840722  1
  O  O45  1  0.97676298  0.80913528  0.08840722  1
  O  O46  1  0.82000465  0.01766950  0.08909116  1
  O  O47  1  0.18592702  0.17340038  0.08821818  1
  O  O48  1  0.68500272  0.16468595  0.74431373  1
  O  O49  1  0.47854516  0.31823453  0.74517385  1
  O  O50  1  0.84488074  0.53206973  0.74481751  1
  O  O51  1  0.68718999  0.53206973  0.24481751  1
  O  O52  1  0.83969038  0.31823453  0.24517385  1
  O  O53  1  0.47968423  0.16468595  0.24431373  1
  O  O54  1  0.65414036  0.50673338  0.92155118  1
  O  O55  1  0.86433184  0.35100250  0.92242416  1
  O  O56  1  0.49903930  0.14246828  0.92174022  1
  O  O57  1  0.64342998  0.14246828  0.42174022  1
  O  O58  1  0.48667165  0.35100250  0.42242416  1
  O  O59  1  0.85259402  0.50673338  0.42155118  1
  O  O60  1  0.35166872  0.49801995  0.07764773  1
  O  O61  1  0.14521116  0.65156853  0.07850785  1
  O  O62  1  0.51154674  0.86540373  0.07815151  1
  O  O63  1  0.35385599  0.86540373  0.57815151  1
  O  O64  1  0.50635638  0.65156853  0.57850785  1
  O  O65  1  0.14635023  0.49801995  0.57764773  1
  O  O66  1  0.32080636  0.84006738  0.25488518  1
  O  O67  1  0.53099784  0.68433650  0.25575816  1
  O  O68  1  0.16570530  0.47580228  0.25507422  1
  O  O69  1  0.31009598  0.47580228  0.75507422  1
  O  O70  1  0.15333765  0.68433650  0.75575816  1
  O  O71  1  0.51926002  0.84006738  0.75488518  1
loop_
_geom_bond_atom_site_label_1
_geom_bond_atom_site_label_2
_geom_bond_distance
_geom_bond_site_symmetry_2
Na0 O66 2.448945 1_545
Na0 O53 2.449812 1_555
Na0 O52 2.474253 1_555
Na0 O31 2.545564 1_545
Na0 O67 2.565637 1_545
Na0 O16 2.744890 1_555
Na0 O2 2.868607 1_555
Na0 O9 3.001287 1_545
Na1 O68 2.460969 1_555
Na1 O53 2.468061 1_555
Na1 O17 2.566607 1_555
Na1 O67 2.582923 1_555
Na1 O51 2.597189 1_555
Na1 O32 2.758086 1_555
Na1 O10 2.853489 1_555
Na1 O0 2.862504 1_555
Na2 O52 2.452058 1_455
Na2 O68 2.467347 1_555
Na2 O66 2.492164 1_555
Na2 O51 2.563616 1_455
Na2 O15 2.619687 1_455
Na2 O30 2.639337 1_555
Na2 O11 2.880210 1_555
Na2 O1 3.002642 1_455
Na3 O49 2.452059 1_555
Na3 O69 2.467355 1_555
Na3 O71 2.492171 1_555
Na3 O50 2.563625 1_555
Na3 O14 2.619689 1_555
Na3 O35 2.639340 1_555
Na3 O6 2.880210 1_555
Na3 O4 3.002641 1_555
Na4 O69 2.460961 1_655
Na4 O48 2.468054 1_555
Na4 O12 2.566603 1_555
Na4 O70 2.582923 1_655
Na4 O50 2.597181 1_555
Na4 O33 2.758084 1_655
Na4 O7 2.853489 1_655
Na4 O5 2.862504 1_555
Na5 O71 2.448937 1_545
Na5 O48 2.449820 1_555
Na5 O49 2.474251 1_555
Na5 O34 2.545562 1_545
Na5 O70 2.565639 1_545
Na5 O13 2.744891 1_555
Na5 O3 2.868607 1_555
Na5 O8 3.001287 1_545
Na6 O42 2.448945 1_455
Na6 O65 2.449826 1_555
Na6 O64 2.474256 1_555
Na6 O7 2.545564 1_555
Na6 O43 2.565637 1_555
Na6 O28 2.744874 1_555
Na6 O14 2.868607 1_555
Na6 O21 3.001287 1_555
Na7 O44 2.460969 1_455
Na7 O65 2.468045 1_555
Na7 O29 2.566581 1_555
Na7 O43 2.582923 1_565
Na7 O63 2.597181 1_555
Na7 O8 2.758086 1_555
Na7 O22 2.853489 1_455
Na7 O12 2.862504 1_455
Na8 O64 2.452050 1_555
Na8 O44 2.467347 1_555
Na8 O42 2.492164 1_565
Na8 O63 2.563626 1_555
Na8 O27 2.619667 1_555
Na8 O6 2.639337 1_555
Na8 O23 2.880210 1_565
Na8 O13 3.002642 1_565
Na9 O61 2.452050 1_555
Na9 O45 2.467355 1_455
Na9 O47 2.492171 1_565
Na9 O62 2.563609 1_555
Na9 O26 2.619663 1_554
Na9 O11 2.639340 1_555
Na9 O18 2.880210 1_565
Na9 O16 3.002641 1_565
Na10 O45 2.460961 1_555
Na10 O60 2.468060 1_555
Na10 O24 2.566589 1_554
Na10 O46 2.582923 1_565
Na10 O62 2.597196 1_555
Na10 O9 2.758084 1_555
Na10 O19 2.853489 1_555
Na10 O17 2.862504 1_555
Na11 O47 2.448937 1_555
Na11 O60 2.449810 1_555
Na11 O61 2.474259 1_555
Na11 O10 2.545562 1_555
Na11 O46 2.565639 1_455
Na11 O25 2.744871 1_554
Na11 O15 2.868607 1_455
Na11 O20 3.001287 1_455
Na12 O54 2.448938 1_555
Na12 O41 2.449812 1_555
Na12 O40 2.474253 1_655
Na12 O19 2.545545 1_556
Na12 O55 2.565647 1_555
Na12 O4 2.744890 1_555
Na12 O26 2.868607 1_655
Na12 O33 3.001287 1_655
Na13 O56 2.460952 1_555
Na13 O41 2.468061 1_545
Na13 O5 2.566607 1_555
Na13 O55 2.582914 1_555
Na13 O39 2.597189 1_655
Na13 O20 2.758061 1_556
Na13 O34 2.853489 1_545
Na13 O24 2.862504 1_545
Na14 O40 2.452058 1_545
Na14 O56 2.467361 1_555
Na14 O54 2.492168 1_555
Na14 O39 2.563616 1_555
Na14 O3 2.619687 1_555
Na14 O18 2.639321 1_556
Na14 O35 2.880210 1_555
Na14 O25 3.002642 1_555
Na15 O37 2.452059 1_545
Na15 O57 2.467346 1_555
Na15 O59 2.492155 1_555
Na15 O38 2.563625 1_655
Na15 O2 2.619689 1_555
Na15 O23 2.639315 1_555
Na15 O30 2.880210 1_655
Na15 O28 3.002641 1_655
Na16 O57 2.460969 1_555
Na16 O36 2.468054 1_545
Na16 O0 2.566603 1_555
Na16 O58 2.582913 1_555
Na16 O38 2.597181 1_555
Na16 O21 2.758064 1_555
Na16 O31 2.853489 1_545
Na16 O29 2.862504 1_545
Na17 O59 2.448953 1_555
Na17 O36 2.449820 1_655
Na17 O37 2.474251 1_555
Na17 O22 2.545548 1_555
Na17 O58 2.565644 1_555
Na17 O1 2.744891 1_555
Na17 O27 2.868607 1_555
Na17 O32 3.001287 1_555
Na18 O44 2.472112 1_555
Na18 O37 2.475972 1_555
Na18 O42 2.530215 1_565
Na18 O36 2.533502 1_655
Na18 O38 2.644403 1_665
Na18 O43 2.661504 1_665
Na19 O45 2.472111 1_456
Na19 O40 2.475972 1_555
Na19 O47 2.530215 1_566
Na19 O41 2.533502 1_455
Na19 O39 2.644403 1_565
Na19 O46 2.661504 1_466
Na20 O56 2.472112 1_555
Na20 O49 2.475972 1_555
Na20 O54 2.530215 1_555
Na20 O48 2.533502 1_555
Na20 O50 2.644403 1_555
Na20 O55 2.661504 1_555
Na21 O57 2.472111 1_555
Na21 O52 2.475972 1_555
Na21 O59 2.530215 1_555
Na21 O53 2.533502 1_555
Na21 O51 2.644403 1_555
Na21 O58 2.661504 1_555
Na22 O68 2.472112 1_555
Na22 O61 2.475972 1_555
Na22 O66 2.530215 1_555
Na22 O60 2.533502 1_555
Na22 O62 2.644403 1_555
Na22 O67 2.661504 1_555
Na23 O69 2.472111 1_555
Na23 O64 2.475972 1_555
Na23 O71 2.530215 1_555
Na23 O65 2.533502 1_555
Na23 O63 2.644403 1_555
Na23 O70 2.661504 1_555
Mg0 O2 2.011713 1_455
Mg0 O0 2.042264 1_555
Mg0 O1 2.079780 1_445
Mg0 O36 2.113195 1_545
Mg0 O37 2.142378 1_445
Mg0 O38 2.179099 1_555
Mg1 O3 2.011713 1_555
Mg1 O5 2.042264 1_455
Mg1 O4 2.079780 1_445
Mg1 O41 2.113195 1_445
Mg1 O40 2.142379 1_545
Mg1 O39 2.179099 1_555
Mg2 O6 1.981406 1_545
Mg2 O7 2.019053 1_655
Mg2 O42 2.063760 1_555
Mg2 O44 2.129510 1_545
Mg2 O8 2.144882 1_645
Mg2 O43 2.254688 1_655
Mg3 O11 1.981406 1_545
Mg3 O10 2.019053 1_555
Mg3 O47 2.063760 1_555
Mg3 O45 2.129510 1_445
Mg3 O9 2.144882 1_445
Mg3 O46 2.254688 1_455
Mg4 O14 2.011713 1_555
Mg4 O12 2.042264 1_555
Mg4 O13 2.079780 1_555
Mg4 O48 2.113195 1_555
Mg4 O49 2.142378 1_555
Mg4 O50 2.179099 1_555
Mg5 O15 2.011713 1_555
Mg5 O17 2.042264 1_555
Mg5 O16 2.079780 1_555
Mg5 O53 2.113195 1_555
Mg5 O52 2.142379 1_555
Mg5 O51 2.179099 1_555
Mg6 O18 1.981406 1_556
Mg6 O19 2.019053 1_556
Mg6 O54 2.063760 1_555
Mg6 O56 2.129510 1_555
Mg6 O20 2.144882 1_556
Mg6 O55 2.254688 1_555
Mg7 O23 1.981406 1_555
Mg7 O22 2.019053 1_555
Mg7 O59 2.063760 1_555
Mg7 O57 2.129510 1_555
Mg7 O21 2.144882 1_555
Mg7 O58 2.254688 1_555
Mg8 O26 2.011713 1_554
Mg8 O24 2.042264 1_554
Mg8 O25 2.079780 1_554
Mg8 O60 2.113195 1_555
Mg8 O61 2.142378 1_555
Mg8 O62 2.179099 1_555
Mg9 O27 2.011713 1_555
Mg9 O29 2.042264 1_555
Mg9 O28 2.079780 1_555
Mg9 O65 2.113195 1_555
Mg9 O64 2.142379 1_555
Mg9 O63 2.179099 1_555
Mg10 O30 1.981406 1_555
Mg10 O31 2.019053 1_555
Mg10 O66 2.063760 1_555
Mg10 O68 2.129510 1_555
Mg10 O32 2.144882 1_555
Mg10 O67 2.254688 1_555
Mg11 O35 1.981406 1_555
Mg11 O34 2.019053 1_555
Mg11 O71 2.063760 1_555
Mg11 O69 2.129510 1_555
Mg11 O33 2.144882 1_555
Mg11 O70 2.254688 1_555
O0 P0 1.547539 1_555
O1 S0 1.479495 1_555
O2 P1 1.545236 1_555
O3 P2 1.545236 1_555
O4 S1 1.479495 1_655
O5 P3 1.547539 1_555
O6 P3 1.543725 1_565
O7 P2 1.545714 1_555
O8 S1 1.485689 1_555
O9 S0 1.485689 1_555
O10 P1 1.545714 1_455
O11 P0 1.543725 1_565
O12 P4 1.547539 1_555
O13 S2 1.479495 1_555
O14 P5 1.545236 1_555
O15 P6 1.545236 1_555
O16 S3 1.479495 1_555
O17 P7 1.547539 1_555
O18 P7 1.543725 1_555
O19 P6 1.545714 1_555
O20 S3 1.485689 1_555
O21 S2 1.485689 1_555
O22 P5 1.545714 1_555
O23 P4 1.543725 1_555
O24 P8 1.547539 1_555
O25 S4 1.479495 1_555
O26 P9 1.545236 1_555
O27 P10 1.545236 1_555
O28 S5 1.479495 1_555
O29 P11 1.547539 1_555
O30 P11 1.543725 1_555
O31 P10 1.545714 1_555
O32 S5 1.485689 1_555
O33 S4 1.485689 1_555
O34 P9 1.545714 1_555
O35 P8 1.543725 1_555
O36 P11 1.563232 1_555
O37 P10 1.562220 1_555
O38 S5 1.490138 1_555
O39 S4 1.490141 1_555
O40 P9 1.562211 1_555
O41 P8 1.563237 1_555
O42 P4 1.560924 1_555
O43 S2 1.489406 1_555
O44 P5 1.565241 1_555
O45 P6 1.565245 1_555
O46 S3 1.489397 1_555
O47 P7 1.560929 1_555
O48 P3 1.563232 1_555
O49 P2 1.562220 1_555
O50 S1 1.490138 1_655
O51 S0 1.490141 1_555
O52 P1 1.562211 1_555
O53 P0 1.563237 1_555
O54 P8 1.560937 1_555
O55 S4 1.489392 1_655
O56 P9 1.565239 1_545
O57 P10 1.565231 1_545
O58 S5 1.489410 1_555
O59 P11 1.560926 1_655
O60 P7 1.563245 1_555
O61 P6 1.562206 1_455
O62 S3 1.490135 1_565
O63 S2 1.490127 1_565
O64 P5 1.562224 1_555
O65 P4 1.563234 1_455
O66 P0 1.560924 1_565
O67 S0 1.489406 1_555
O68 P1 1.565241 1_455
O69 P2 1.565245 1_555
O70 S1 1.489397 1_555
O71 P3 1.560929 1_565
