# generated using pymatgen
data_Na2SO3
_symmetry_space_group_name_H-M   'P 1'
_cell_length_a   5.52276407
_cell_length_b   5.52276407
_cell_length_c   6.19934800
_cell_angle_alpha   90.00000000
_cell_angle_beta   90.00000000
_cell_angle_gamma   120.00000080
_symmetry_Int_Tables_number   1
_chemical_formula_structural   Na2SO3
_chemical_formula_sum   'Na4 S2 O6'
_cell_volume   163.75313581
_cell_formula_units_Z   2
loop_
 _symmetry_equiv_pos_site_id
 _symmetry_equiv_pos_as_xyz
  1  'x, y, z'
loop_
 _atom_site_type_symbol
 _atom_site_label
 _atom_site_symmetry_multiplicity
 _atom_site_fract_x
 _atom_site_fract_y
 _atom_site_fract_z
 _atom_site_occupancy
  Na  Na0  1  0.33333300  0.66666700  0.66587600  1
  Na  Na1  1  0.00000000  0.00000000  0.50000000  1
  Na  Na2  1  0.66666700  0.33333300  0.33412400  1
  Na  Na3  1  0.00000000  0.00000000  0.00000000  1
  S  S0  1  0.33333300  0.66666700  0.16486100  1
  S  S1  1  0.66666700  0.33333300  0.83513900  1
  O  O0  1  0.73844100  0.12077200  0.73479200  1
  O  O1  1  0.38233100  0.26155900  0.73479200  1
  O  O2  1  0.87922800  0.61766900  0.73479200  1
  O  O3  1  0.26155900  0.87922800  0.26520800  1
  O  O4  1  0.12077200  0.38233100  0.26520800  1
  O  O5  1  0.61766900  0.73844100  0.26520800  1
loop_
_geom_bond_atom_site_label_1
_geom_bond_atom_site_label_2
_geom_bond_distance
_geom_bond_site_symmetry_2
Na0 O2 2.422135 1_455
Na0 O0 2.422138 1_565
Na0 O1 2.422141 1_555
Na0 O3 2.858359 1_555
Na0 O4 2.858361 1_555
Na0 O5 2.858362 1_555
Na0 S0 3.093382 1_556
Na1 O5 2.369322 1_445
Na1 O1 2.369322 1_555
Na1 O4 2.369322 1_555
Na1 O2 2.369322 1_445
Na1 O0 2.369322 1_455
Na1 O3 2.369322 1_545
Na2 O4 2.422135 1_655
Na2 O3 2.422138 1_545
Na2 O5 2.422141 1_555
Na2 O0 2.858359 1_555
Na2 O2 2.858361 1_555
Na2 O1 2.858362 1_555
Na2 S1 3.093382 1_554
Na3 O1 2.489610 1_554
Na3 O5 2.489610 1_445
Na3 O2 2.489610 1_444
Na3 O4 2.489610 1_555
Na3 O3 2.489610 1_545
Na3 O0 2.489610 1_454
O0 S1 1.545169 1_555
O1 S1 1.545174 1_555
O2 S1 1.545173 1_555
O3 S0 1.545169 1_555
O4 S0 1.545173 1_555
O5 S0 1.545174 1_555
