# generated using pymatgen
data_Li3V(PO4)2
_symmetry_space_group_name_H-M   'P 1'
_cell_length_a   17.95289300
_cell_length_b   4.92223000
_cell_length_c   7.89951279
_cell_angle_alpha   54.34013911
_cell_angle_beta   90.00000000
_cell_angle_gamma   90.00000000
_symmetry_Int_Tables_number   1
_chemical_formula_structural   Li3V(PO4)2
_chemical_formula_sum   'Li12 V4 P8 O32'
_cell_volume   567.17335084
_cell_formula_units_Z   4
loop_
 _symmetry_equiv_pos_site_id
 _symmetry_equiv_pos_as_xyz
  1  'x, y, z'
loop_
 _atom_site_type_symbol
 _atom_site_label
 _atom_site_symmetry_multiplicity
 _atom_site_fract_x
 _atom_site_fract_y
 _atom_site_fract_z
 _atom_site_occupancy
  Li  Li0  1  0.12033700  0.28424200  0.49754300  1
  Li  Li1  1  0.44771200  0.97489900  0.78765700  1
  Li  Li2  1  0.37966300  0.28424200  0.99754300  1
  Li  Li3  1  0.05228800  0.97489900  0.28765700  1
  Li  Li4  1  0.94771200  0.02510100  0.71234300  1
  Li  Li5  1  0.87966300  0.71575800  0.50245700  1
  Li  Li6  1  0.80174400  0.37958700  0.31069100  1
  Li  Li7  1  0.55228800  0.02510100  0.21234300  1
  Li  Li8  1  0.69825600  0.37958700  0.81069100  1
  Li  Li9  1  0.30174400  0.62041300  0.18930900  1
  Li  Li10  1  0.62033700  0.71575800  0.00245700  1
  Li  Li11  1  0.19825600  0.62041300  0.68930900  1
  V  V0  1  0.37286400  0.81422000  0.48477400  1
  V  V1  1  0.62713600  0.18578000  0.51522600  1
  V  V2  1  0.87286400  0.18578000  0.01522600  1
  V  V3  1  0.12713600  0.81422000  0.98477400  1
  P  P0  1  0.53558100  0.49338800  0.72969400  1
  P  P1  1  0.78528900  0.89058000  0.78656300  1
  P  P2  1  0.28528900  0.10942000  0.71343700  1
  P  P3  1  0.96441900  0.49338800  0.22969400  1
  P  P4  1  0.46441900  0.50661200  0.27030600  1
  P  P5  1  0.71471100  0.89058000  0.28656300  1
  P  P6  1  0.03558100  0.50661200  0.77030600  1
  P  P7  1  0.21471100  0.10942000  0.21343700  1
  O  O0  1  0.93483900  0.44488700  0.42502200  1
  O  O1  1  0.30950600  0.45515300  0.51219500  1
  O  O2  1  0.56628900  0.82578200  0.53221400  1
  O  O3  1  0.19855500  0.82703800  0.18366300  1
  O  O4  1  0.32739200  0.03535300  0.90315400  1
  O  O5  1  0.69855500  0.17296200  0.31633700  1
  O  O6  1  0.19049400  0.45515300  0.01219500  1
  O  O7  1  0.69049400  0.54484700  0.48780500  1
  O  O8  1  0.80073600  0.85658000  0.26579900  1
  O  O9  1  0.69926400  0.85658000  0.76579900  1
  O  O10  1  0.43371100  0.17421800  0.46778600  1
  O  O11  1  0.82739200  0.96464700  0.59684600  1
  O  O12  1  0.80950600  0.54484700  0.98780500  1
  O  O13  1  0.93971600  0.18893900  0.22615000  1
  O  O14  1  0.80144500  0.17296200  0.81633700  1
  O  O15  1  0.17260800  0.03535300  0.40315400  1
  O  O16  1  0.30144500  0.82703800  0.68366300  1
  O  O17  1  0.44818700  0.49188900  0.72634000  1
  O  O18  1  0.56028400  0.18893900  0.72615000  1
  O  O19  1  0.06628900  0.17421800  0.96778600  1
  O  O20  1  0.06516100  0.55511300  0.57497800  1
  O  O21  1  0.06028400  0.81106100  0.77385000  1
  O  O22  1  0.30073600  0.14342000  0.23420100  1
  O  O23  1  0.43483900  0.55511300  0.07497800  1
  O  O24  1  0.94818700  0.50811100  0.77366000  1
  O  O25  1  0.93371100  0.82578200  0.03221400  1
  O  O26  1  0.05181300  0.49188900  0.22634000  1
  O  O27  1  0.56516100  0.44488700  0.92502200  1
  O  O28  1  0.67260800  0.96464700  0.09684600  1
  O  O29  1  0.19926400  0.14342000  0.73420100  1
  O  O30  1  0.43971600  0.81106100  0.27385000  1
  O  O31  1  0.55181300  0.50811100  0.27366000  1
loop_
_geom_bond_atom_site_label_1
_geom_bond_atom_site_label_2
_geom_bond_distance
_geom_bond_site_symmetry_2
Li0 O15 2.000617 1_555
Li0 O20 2.020884 1_555
Li0 O29 2.114792 1_555
Li0 O26 2.143540 1_555
Li0 O21 2.328926 1_545
Li1 O23 2.001592 1_556
Li1 O10 2.126061 1_565
Li1 O18 2.198550 1_565
Li1 O17 2.296358 1_565
Li1 O4 2.429714 1_565
Li2 O4 2.000617 1_555
Li2 O23 2.020884 1_556
Li2 O22 2.114792 1_556
Li2 O17 2.143540 1_555
Li2 O30 2.328926 1_546
Li3 O20 2.001592 1_555
Li3 O19 2.126061 1_564
Li3 O13 2.198550 1_465
Li3 O26 2.296358 1_565
Li3 O15 2.429714 1_565
Li4 O0 2.001592 1_555
Li4 O25 2.126061 1_546
Li4 O21 2.198550 1_645
Li4 O24 2.296358 1_545
Li4 O11 2.429714 1_545
Li5 O11 2.000617 1_555
Li5 O0 2.020884 1_555
Li5 O8 2.114792 1_555
Li5 O24 2.143540 1_555
Li5 O13 2.328926 1_565
Li6 O11 2.027389 1_545
Li6 O5 2.101288 1_555
Li6 O8 2.160508 1_555
Li6 O12 2.183523 1_554
Li7 O27 2.001592 1_554
Li7 O2 2.126061 1_545
Li7 O30 2.198550 1_545
Li7 O31 2.296358 1_545
Li7 O28 2.429714 1_545
Li8 O28 2.027389 1_546
Li8 O14 2.101288 1_555
Li8 O9 2.160508 1_555
Li8 O7 2.183523 1_555
Li9 O4 2.027389 1_564
Li9 O3 2.101288 1_555
Li9 O22 2.160508 1_555
Li9 O1 2.183523 1_555
Li10 O28 2.000617 1_555
Li10 O27 2.020884 1_554
Li10 O9 2.114792 1_554
Li10 O31 2.143540 1_555
Li10 O18 2.328926 1_564
Li11 O15 2.027389 1_565
Li11 O16 2.101288 1_555
Li11 O29 2.160508 1_555
Li11 O6 2.183523 1_556
O0 P3 1.513390 1_555
O1 P2 1.567795 1_555
O1 V0 2.004520 1_555
O2 P0 1.561575 1_555
O2 V1 2.018416 1_565
O3 P7 1.566069 1_565
O3 V3 2.057176 1_554
O4 P2 1.520929 1_555
O5 P5 1.566069 1_545
O5 V1 2.057176 1_555
O6 P7 1.567795 1_555
O6 V3 2.004520 1_554
O7 P5 1.567795 1_555
O7 V1 2.004520 1_555
O8 P5 1.572286 1_555
O8 V2 2.116799 1_565
O9 P1 1.572286 1_555
O9 V1 2.116799 1_565
O10 P4 1.561575 1_555
O10 V0 2.018416 1_545
O11 P1 1.520929 1_555
O12 P1 1.567795 1_555
O12 V2 2.004520 1_556
O13 P3 1.578635 1_555
O13 V2 2.060852 1_555
O14 P1 1.566069 1_545
O14 V2 2.057176 1_556
O15 P7 1.520929 1_555
O16 P2 1.566069 1_565
O16 V0 2.057176 1_555
O17 P0 1.569289 1_555
O17 V0 2.111229 1_555
O18 P0 1.578635 1_555
O18 V1 2.060852 1_555
O19 P6 1.561575 1_555
O19 V3 2.018416 1_545
O20 P6 1.513390 1_555
O21 P6 1.578635 1_555
O21 V3 2.060852 1_555
O22 P7 1.572286 1_555
O22 V0 2.116799 1_545
O23 P4 1.513390 1_555
O24 P6 1.569289 1_655
O24 V2 2.111229 1_556
O25 P3 1.561575 1_555
O25 V2 2.018416 1_565
O26 P3 1.569289 1_455
O26 V3 2.111229 1_554
O27 P0 1.513390 1_555
O28 P5 1.520929 1_555
O29 P2 1.572286 1_555
O29 V3 2.116799 1_545
O30 P4 1.578635 1_555
O30 V0 2.060852 1_555
O31 P4 1.569289 1_555
O31 V1 2.111229 1_555
