# generated using pymatgen
data_Na7Mg3GeP5SO24
_symmetry_space_group_name_H-M   'P 1'
_cell_length_a   8.89564381
_cell_length_b   8.88480631
_cell_length_c   21.76624228
_cell_angle_alpha   89.84516324
_cell_angle_beta   90.29125986
_cell_angle_gamma   119.95005371
_symmetry_Int_Tables_number   1
_chemical_formula_structural   Na7Mg3GeP5SO24
_chemical_formula_sum   'Na21 Mg9 Ge3 P15 S3 O72'
_cell_volume   1490.56931908
_cell_formula_units_Z   3
loop_
 _symmetry_equiv_pos_site_id
 _symmetry_equiv_pos_as_xyz
  1  'x, y, z'
loop_
 _atom_site_type_symbol
 _atom_site_label
 _atom_site_symmetry_multiplicity
 _atom_site_fract_x
 _atom_site_fract_y
 _atom_site_fract_z
 _atom_site_occupancy
  Na  Na0  1  0.62640986  -0.00002584  0.25121080  1
  Na  Na1  1  0.36435110  0.35684383  0.25284721  1
  Na  Na2  1  0.00819944  0.64288771  0.25031591  1
  Na  Na3  1  0.64681492  0.63869184  0.74895230  1
  Na  Na4  1  0.99342141  0.35416919  0.74947053  1
  Na  Na5  1  0.29547482  0.33916481  0.58659674  1
  Na  Na6  1  0.03034904  0.69757219  0.58745779  1
  Na  Na7  1  0.67179140  0.96204544  0.58497168  1
  Na  Na8  1  0.29566419  0.96159338  0.08160179  1
  Na  Na9  1  0.66428012  0.70236778  0.07792674  1
  Na  Na10  1  0.03725585  0.33434043  0.07835642  1
  Na  Na11  1  0.97319377  0.67538039  0.91113026  1
  Na  Na12  1  0.32642106  0.29753071  0.91102150  1
  Na  Na13  1  0.32655626  0.02112886  0.41347375  1
  Na  Na14  1  0.69356681  0.67320066  0.41856429  1
  Na  Na15  1  0.99488604  0.01144455  0.49744306  1
  Na  Na16  1  0.98905481  0.00090414  0.99463118  1
  Na  Na17  1  0.65608741  0.31046925  0.82875582  1
  Na  Na18  1  0.66873873  0.32523426  0.33573924  1
  Na  Na19  1  0.33215560  0.67293425  0.16288402  1
  Na  Na20  1  0.33391695  0.67138442  0.66930048  1
  Mg  Mg0  1  0.00670075  0.00753790  0.35464360  1
  Mg  Mg1  1  0.99681940  0.00187642  0.84981336  1
  Mg  Mg2  1  0.99429562  0.99879704  0.65581041  1
  Mg  Mg3  1  0.00571586  0.99880230  0.14482131  1
  Mg  Mg4  1  0.66637815  0.33386693  0.68815445  1
  Mg  Mg5  1  0.66156775  0.32825108  0.18160169  1
  Mg  Mg6  1  0.33469037  0.66790081  0.01640396  1
  Mg  Mg7  1  0.33163720  0.66148042  0.51456610  1
  Mg  Mg8  1  0.33157298  0.67063854  0.32384503  1
  Ge  Ge0  1  0.66671296  0.32826018  0.98027059  1
  Ge  Ge1  1  0.68002737  0.34045324  0.48034360  1
  Ge  Ge2  1  0.33543671  0.67393691  0.81665462  1
  P  P0  1  0.29670546  0.99831966  0.24994958  1
  P  P1  1  0.29724177  0.30171782  0.75300052  1
  P  P2  1  0.00949783  0.70723318  0.75222577  1
  P  P3  1  0.69569405  0.99386635  0.75119268  1
  P  P4  1  0.95669289  0.33372037  0.58369936  1
  P  P5  1  0.66672299  0.62349337  0.58278367  1
  P  P6  1  0.95426708  0.62067230  0.08309578  1
  P  P7  1  0.66715169  0.04300397  0.08342629  1
  P  P8  1  0.37730111  0.33496960  0.08250256  1
  P  P9  1  0.62539660  0.66361950  0.91924355  1
  P  P10  1  0.03576919  0.37424043  0.91886542  1
  P  P11  1  0.34077454  0.96197914  0.91898217  1
  P  P12  1  0.63322380  0.97211482  0.41910275  1
  P  P13  1  0.33909295  0.36906362  0.41907651  1
  P  P14  1  0.03161159  0.66098878  0.41771531  1
  S  S0  1  0.70494570  0.70605464  0.24983077  1
  S  S1  1  0.00098235  0.29429292  0.24907660  1
  S  S2  1  0.37796160  0.04526120  0.58220089  1
  O  O0  1  0.20893773  0.02316591  0.30676029  1
  O  O1  1  0.80987204  0.79111245  0.30510918  1
  O  O2  1  0.97408351  0.18208924  0.30247448  1
  O  O3  1  0.21146129  0.19540311  0.81017372  1
  O  O4  1  0.98094853  0.79182842  0.80841488  1
  O  O5  1  0.81740834  0.02419046  0.80478975  1
  O  O6  1  0.76304386  0.95176525  0.69152426  1
  O  O7  1  0.18471030  0.22698831  0.69438695  1
  O  O8  1  0.03636520  0.81120420  0.69256615  1
  O  O9  1  0.78521303  0.81171338  0.19414829  1
  O  O10  1  0.02181379  0.21523967  0.19222759  1
  O  O11  1  0.18622583  0.97247197  0.19167315  1
  O  O12  1  0.87283455  0.35920839  0.64028752  1
  O  O13  1  0.48799609  0.12939367  0.63500542  1
  O  O14  1  0.63792215  0.50909612  0.63841496  1
  O  O15  1  0.87351203  0.51268904  0.14097975  1
  O  O16  1  0.63898998  0.12002868  0.14201349  1
  O  O17  1  0.48572413  0.36420688  0.14055721  1
  O  O18  1  0.46671033  0.30191604  0.02475004  1
  O  O19  1  0.83359892  0.53109851  0.02460430  1
  O  O20  1  0.70234589  0.16963556  0.02705450  1
  O  O21  1  0.45523875  0.15177564  0.52410519  1
  O  O22  1  0.69578587  0.53391266  0.52323050  1
  O  O23  1  0.83116971  0.29721061  0.52587765  1
  O  O24  1  0.54399756  0.68395533  0.97681431  1
  O  O25  1  0.14418288  0.45695353  0.97611907  1
  O  O26  1  0.31083406  0.85581686  0.97690624  1
  O  O27  1  0.54714380  0.85878412  0.47555991  1
  O  O28  1  0.31967563  0.45473239  0.47618234  1
  O  O29  1  0.14590753  0.69270878  0.47419860  1
  O  O30  1  0.10797192  0.63250086  0.35877136  1
  O  O31  1  0.51917431  0.89642453  0.36080337  1
  O  O32  1  0.37602217  0.48228292  0.36077226  1
  O  O33  1  0.12178392  0.49814116  0.86116589  1
  O  O34  1  0.37046125  0.87228340  0.86208082  1
  O  O35  1  0.50251620  0.62669748  0.86132705  1
  O  O36  1  0.00239902  0.81850570  0.41212099  1
  O  O37  1  0.81252834  0.99017151  0.41136017  1
  O  O38  1  0.18630742  0.18355742  0.41321906  1
  O  O39  1  0.01733845  0.19562770  0.91079541  1
  O  O40  1  0.18283081  0.98746355  0.91081478  1
  O  O41  1  0.80984360  0.81482717  0.91126048  1
  O  O42  1  0.97654007  0.17027399  0.58568365  1
  O  O43  1  0.20296206  0.02779188  0.58626667  1
  O  O44  1  0.83368971  0.80345864  0.58456296  1
  O  O45  1  0.96846421  0.80133750  0.08460056  1
  O  O46  1  0.83182832  0.02580029  0.08599714  1
  O  O47  1  0.19575194  0.17017903  0.08444451  1
  O  O48  1  0.67408834  0.15325561  0.74422885  1
  O  O49  1  0.48306240  0.33576922  0.74672913  1
  O  O50  1  0.84994946  0.52156972  0.74739829  1
  O  O51  1  0.69047014  0.53144482  0.24606933  1
  O  O52  1  0.84658415  0.31863611  0.24584750  1
  O  O53  1  0.48079065  0.16386577  0.24670233  1
  O  O54  1  0.63702296  0.48752820  0.92172520  1
  O  O55  1  0.85226081  0.36503194  0.92251102  1
  O  O56  1  0.50834287  0.15075479  0.92261382  1
  O  O57  1  0.64306872  0.15533151  0.42545540  1
  O  O58  1  0.51162996  0.35204119  0.42429064  1
  O  O59  1  0.84388155  0.49425108  0.42313906  1
  O  O60  1  0.35634388  0.49603171  0.07647656  1
  O  O61  1  0.13626824  0.64183341  0.07732896  1
  O  O62  1  0.50564539  0.86192538  0.07650997  1
  O  O63  1  0.35801870  0.86929607  0.57651566  1
  O  O64  1  0.50635812  0.64625293  0.57622163  1
  O  O65  1  0.13661734  0.49808553  0.57612755  1
  O  O66  1  0.31676788  0.83376013  0.25450062  1
  O  O67  1  0.52745030  0.68317158  0.25425613  1
  O  O68  1  0.16055844  0.46815220  0.25492972  1
  O  O69  1  0.31085023  0.49035926  0.75929360  1
  O  O70  1  0.17588875  0.68468481  0.75906679  1
  O  O71  1  0.51286985  0.82033745  0.76022099  1
loop_
_geom_bond_atom_site_label_1
_geom_bond_atom_site_label_2
_geom_bond_distance
_geom_bond_site_symmetry_2
Na0 O53 2.385232 1_555
Na0 O66 2.390172 1_545
Na0 O67 2.495503 1_545
Na0 O52 2.515817 1_555
Na0 O31 2.565463 1_545
Na0 O16 2.582509 1_555
Na0 O2 2.899377 1_555
Na0 O9 2.953716 1_545
Na1 O53 2.409662 1_555
Na1 O68 2.461256 1_555
Na1 O67 2.512376 1_555
Na1 O51 2.520685 1_555
Na1 O32 2.582132 1_555
Na1 O17 2.664438 1_555
Na1 O0 2.825392 1_555
Na1 O10 2.957850 1_555
Na2 O66 2.401901 1_555
Na2 O51 2.486165 1_455
Na2 O52 2.498111 1_455
Na2 O68 2.521106 1_555
Na2 O30 2.535409 1_555
Na2 O15 2.653169 1_455
Na2 O11 2.842901 1_555
Na2 O1 2.935835 1_455
Na3 O49 2.335236 1_555
Na3 O71 2.451474 1_555
Na3 O50 2.495529 1_555
Na3 O69 2.606121 1_555
Na3 O14 2.653846 1_555
Na3 O6 2.737058 1_555
Na3 O35 2.745139 1_555
Na3 O4 2.879846 1_555
Na4 O50 2.395298 1_555
Na4 O69 2.463124 1_655
Na4 O48 2.490700 1_555
Na4 O70 2.557783 1_655
Na4 O12 2.611880 1_555
Na4 O33 2.716791 1_655
Na4 O7 2.749164 1_655
Na4 O5 2.813077 1_555
Na5 O64 2.429975 1_555
Na5 O65 2.455580 1_555
Na5 O42 2.459698 1_455
Na5 O43 2.461209 1_555
Na5 O7 2.549335 1_555
Na5 O28 2.578322 1_555
Na6 O44 2.364607 1_455
Na6 O65 2.402823 1_555
Na6 O8 2.492696 1_555
Na6 O63 2.538777 1_555
Na6 O43 2.543258 1_565
Na6 O29 2.684515 1_555
Na6 O12 2.848701 1_455
Na6 O22 2.928117 1_455
Na7 O42 2.400844 1_565
Na7 O64 2.439564 1_555
Na7 O44 2.466966 1_555
Na7 O6 2.469806 1_555
Na7 O63 2.490532 1_555
Na7 O27 2.590729 1_555
Na7 O23 2.883496 1_565
Na7 O13 2.919602 1_565
Na8 O47 2.423654 1_565
Na8 O62 2.437171 1_555
Na8 O61 2.463394 1_555
Na8 O26 2.497165 1_554
Na8 O45 2.523266 1_455
Na8 O11 2.610758 1_555
Na8 O18 2.897295 1_565
Na8 O16 2.952057 1_565
Na9 O45 2.395243 1_555
Na9 O24 2.412168 1_554
Na9 O60 2.418829 1_555
Na9 O62 2.449251 1_555
Na9 O46 2.496718 1_565
Na9 O9 2.728115 1_555
Na9 O19 2.871774 1_555
Na9 O17 2.939921 1_555
Na10 O61 2.416068 1_555
Na10 O46 2.424994 1_455
Na10 O25 2.453031 1_554
Na10 O60 2.460037 1_555
Na10 O47 2.486600 1_555
Na10 O10 2.669452 1_555
Na10 O20 2.808219 1_455
Na10 O15 2.971046 1_455
Na11 O41 2.333284 1_555
Na11 O55 2.420538 1_555
Na11 O4 2.447749 1_555
Na11 O40 2.450125 1_655
Na11 O54 2.608252 1_555
Na11 O33 2.740788 1_655
Na11 O19 2.776756 1_556
Na11 O26 2.966795 1_655
Na12 O40 2.389020 1_545
Na12 O3 2.397691 1_555
Na12 O54 2.424158 1_555
Na12 O39 2.427701 1_555
Na12 O56 2.546467 1_555
Na12 O35 2.757315 1_555
Na12 O18 2.758135 1_556
Na13 O38 2.331707 1_555
Na13 O57 2.461572 1_555
Na13 O36 2.524468 1_545
Na13 O0 2.546409 1_555
Na13 O58 2.564514 1_555
Na13 O21 2.667716 1_555
Na13 O31 2.720352 1_545
Na13 O29 2.857024 1_545
Na14 O36 2.386498 1_655
Na14 O37 2.469644 1_555
Na14 O58 2.483140 1_555
Na14 O59 2.538959 1_555
Na14 O22 2.594371 1_555
Na14 O1 2.682549 1_555
Na14 O32 2.762255 1_555
Na14 O27 2.850674 1_555
Na15 O37 2.417198 1_545
Na15 O42 2.440242 1_555
Na15 O38 2.452624 1_655
Na15 O44 2.535693 1_545
Na15 O36 2.554382 1_645
Na15 O43 2.623310 1_655
Na16 O41 2.433703 1_545
Na16 O39 2.437071 1_655
Na16 O46 2.509893 1_556
Na16 O40 2.559809 1_645
Na16 O45 2.583213 1_546
Na16 O47 2.585065 1_656
Na17 O48 2.366841 1_555
Na17 O49 2.433643 1_555
Na17 O56 2.462522 1_555
Na17 O50 2.532035 1_555
Na17 O55 2.563051 1_555
Na17 O54 2.624029 1_555
Na18 O57 2.405966 1_555
Na18 O59 2.439393 1_555
Na18 O58 2.467224 1_555
Na18 O53 2.489045 1_555
Na18 O52 2.541519 1_555
Na18 O51 2.614270 1_555
Na19 O61 2.463668 1_555
Na19 O62 2.482093 1_555
Na19 O66 2.500123 1_555
Na19 O60 2.532140 1_555
Na19 O67 2.605743 1_555
Na19 O68 2.625399 1_555
Na20 O70 2.450062 1_555
Na20 O71 2.465882 1_555
Na20 O69 2.474559 1_555
Na20 O63 2.612552 1_555
Na20 O65 2.616568 1_555
Na20 O64 2.623654 1_555
Mg0 O0 2.027537 1_555
Mg0 O38 2.029580 1_555
Mg0 O2 2.053093 1_455
Mg0 O37 2.070236 1_445
Mg0 O36 2.076622 1_545
Mg0 O1 2.134474 1_445
Mg1 O5 1.961076 1_555
Mg1 O4 2.014807 1_545
Mg1 O3 2.019225 1_655
Mg1 O39 2.110613 1_655
Mg1 O41 2.137240 1_545
Mg1 O40 2.169261 1_645
Mg2 O6 2.041295 1_555
Mg2 O8 2.042214 1_655
Mg2 O7 2.061658 1_665
Mg2 O42 2.213879 1_565
Mg2 O44 2.230343 1_555
Mg2 O43 2.313488 1_665
Mg3 O11 2.007556 1_555
Mg3 O45 2.081709 1_455
Mg3 O47 2.084447 1_565
Mg3 O46 2.106732 1_465
Mg3 O10 2.125427 1_565
Mg3 O9 2.125918 1_455
Mg4 O14 2.010389 1_555
Mg4 O12 2.028418 1_555
Mg4 O48 2.041545 1_555
Mg4 O13 2.066639 1_555
Mg4 O49 2.081773 1_555
Mg4 O50 2.093255 1_555
Mg5 O17 1.957103 1_555
Mg5 O16 1.959912 1_555
Mg5 O15 1.986451 1_555
Mg5 O53 2.096167 1_555
Mg5 O52 2.188132 1_555
Mg5 O51 2.200211 1_555
Mg6 O26 1.978857 1_554
Mg6 O25 1.993965 1_554
Mg6 O24 1.995024 1_554
Mg6 O60 2.087809 1_555
Mg6 O62 2.090542 1_555
Mg6 O61 2.131128 1_555
Mg7 O28 1.973783 1_555
Mg7 O29 2.005085 1_555
Mg7 O27 2.030261 1_555
Mg7 O65 2.100254 1_555
Mg7 O64 2.103040 1_555
Mg7 O63 2.204555 1_555
Mg8 O30 1.997542 1_555
Mg8 O31 2.027011 1_555
Mg8 O32 2.062331 1_555
Mg8 O66 2.138401 1_555
Mg8 O68 2.249361 1_555
Mg8 O67 2.274866 1_555
Ge0 O20 1.886455 1_556
Ge0 O19 1.925196 1_556
Ge0 O18 1.938548 1_556
Ge0 O56 1.954784 1_555
Ge0 O55 1.972846 1_555
Ge0 O54 2.013962 1_555
Ge1 O23 1.854125 1_555
Ge1 O59 1.887499 1_555
Ge1 O22 1.900591 1_555
Ge1 O57 1.925457 1_555
Ge1 O58 1.969239 1_555
Ge1 O21 2.092781 1_555
Ge2 O34 1.907449 1_555
Ge2 O71 1.911326 1_555
Ge2 O70 1.926463 1_555
Ge2 O69 1.979656 1_555
Ge2 O35 1.984092 1_555
Ge2 O33 2.009207 1_555
O0 P0 1.539727 1_545
O1 S0 1.476214 1_555
O2 S1 1.469809 1_655
O3 P1 1.518805 1_555
O4 P2 1.524445 1_655
O5 P3 1.517710 1_545
O6 P3 1.555616 1_555
O7 P1 1.548718 1_555
O8 P2 1.540440 1_555
O9 S0 1.481015 1_555
O10 S1 1.481819 1_555
O11 P0 1.546332 1_555
O12 P4 1.518024 1_555
O13 S2 1.449316 1_555
O14 P5 1.517048 1_555
O15 P6 1.529186 1_555
O16 P7 1.528540 1_555
O17 P8 1.527648 1_555
O18 P8 1.595118 1_555
O19 P6 1.595331 1_555
O20 P7 1.585601 1_555
O21 S2 1.523147 1_555
O22 P5 1.610903 1_555
O23 P4 1.600711 1_555
O24 P9 1.506088 1_555
O25 P10 1.519283 1_555
O26 P11 1.515374 1_555
O27 P12 1.530800 1_555
O28 P13 1.514184 1_555
O29 P14 1.525689 1_555
O30 P14 1.534218 1_555
O31 P12 1.549865 1_555
O32 P13 1.548458 1_555
O33 P10 1.592435 1_555
O34 P11 1.567669 1_555
O35 P9 1.588029 1_555
O36 P14 1.550119 1_555
O37 P12 1.531450 1_555
O38 P13 1.530575 1_555
O39 P10 1.522345 1_555
O40 P11 1.540071 1_555
O41 P9 1.525733 1_555
O42 P4 1.548379 1_555
O43 S2 1.488425 1_555
O44 P5 1.546820 1_555
O45 P6 1.546427 1_555
O46 P7 1.547622 1_555
O47 P8 1.546947 1_555
O48 P3 1.528295 1_545
O49 P1 1.531432 1_555
O50 P2 1.551859 1_655
O51 S0 1.493706 1_555
O52 S1 1.494554 1_655
O53 P0 1.563852 1_545
O54 P9 1.619396 1_555
O55 P10 1.595534 1_655
O56 P11 1.595149 1_545
O57 P12 1.592299 1_545
O58 P13 1.619063 1_555
O59 P14 1.590045 1_655
O60 P8 1.537807 1_555
O61 P6 1.539586 1_455
O62 P7 1.538289 1_565
O63 S2 1.488267 1_565
O64 P5 1.543418 1_555
O65 P4 1.545667 1_455
O66 P0 1.561704 1_555
O67 S0 1.491496 1_555
O68 S1 1.492379 1_555
O69 P1 1.625121 1_555
O70 P2 1.595884 1_555
O71 P3 1.599565 1_555
