# generated using pymatgen
data_Ba2MgFeWO6
_symmetry_space_group_name_H-M   'P 1'
_cell_length_a   6.58173340
_cell_length_b   6.57598092
_cell_length_c   6.06558707
_cell_angle_alpha   90.27109828
_cell_angle_beta   117.56042530
_cell_angle_gamma   125.08722529
_symmetry_Int_Tables_number   1
_chemical_formula_structural   Ba2MgFeWO6
_chemical_formula_sum   'Ba2 Mg1 Fe1 W1 O6'
_cell_volume   176.68721968
_cell_formula_units_Z   1
loop_
 _symmetry_equiv_pos_site_id
 _symmetry_equiv_pos_as_xyz
  1  'x, y, z'
loop_
 _atom_site_type_symbol
 _atom_site_label
 _atom_site_symmetry_multiplicity
 _atom_site_fract_x
 _atom_site_fract_y
 _atom_site_fract_z
 _atom_site_occupancy
  Ba  Ba0  1  0.45293912  0.76883634  0.23111227  1
  Ba  Ba1  1  0.59642626  0.20618947  0.79282882  1
  Mg  Mg0  1  0.16874552  0.41129520  0.58846198  1
  Fe  Fe0  1  0.84315026  0.57871002  0.42073692  1
  W  W0  1  0.01901729  0.98751219  0.01222044  1
  O  O0  1  0.55983678  0.75223177  0.77923202  1
  O  O1  1  0.04179683  0.74644693  0.25486582  1
  O  O2  1  0.00650791  0.22337791  0.77482110  1
  O  O3  1  0.49010550  0.21500515  0.24894748  1
  O  O4  1  0.03028427  0.22196770  0.24793222  1
  O  O5  1  0.02383027  0.74953830  0.78425894  1
loop_
_geom_bond_atom_site_label_1
_geom_bond_atom_site_label_2
_geom_bond_distance
_geom_bond_site_symmetry_2
Ba0 O1 2.695919 1_555
Ba0 O3 2.797727 1_565
Ba0 O5 2.800015 1_554
Ba0 O2 3.058255 1_665
Ba0 O2 3.069812 1_554
Ba0 O4 3.073535 1_555
Ba0 O0 3.080185 1_555
Ba0 O0 3.144769 1_554
Ba0 O4 3.154357 1_665
Ba0 Fe0 3.233219 1_555
Ba1 O2 2.689194 1_655
Ba1 O0 2.851162 1_545
Ba1 O4 2.854364 1_656
Ba1 O5 3.043756 1_655
Ba1 O3 3.047686 1_555
Ba1 O1 3.051170 1_545
Ba1 O1 3.065913 1_656
Ba1 O3 3.159734 1_556
Ba1 O5 3.166990 1_545
Mg0 O2 1.886314 1_555
Mg0 O0 1.890993 1_555
Mg0 O4 1.891118 1_555
Fe0 O1 1.872997 1_655
Fe0 O3 1.884708 1_555
Fe0 O5 1.884769 1_655
O0 W0 2.043544 1_656
O1 W0 2.189234 1_555
O2 W0 2.131730 1_546
O3 W0 2.107284 1_545
O4 W0 2.043596 1_545
O5 W0 2.106873 1_556
