# generated using pymatgen
data_RbAl(SO4)2
_symmetry_space_group_name_H-M   'P 1'
_cell_length_a   4.98010132
_cell_length_b   4.98010132
_cell_length_c   7.91636221
_cell_angle_alpha   90.00000000
_cell_angle_beta   90.00000000
_cell_angle_gamma   119.99999767
_symmetry_Int_Tables_number   1
_chemical_formula_structural   RbAl(SO4)2
_chemical_formula_sum   'Rb1 Al1 S2 O8'
_cell_volume   170.03278050
_cell_formula_units_Z   1
loop_
 _symmetry_equiv_pos_site_id
 _symmetry_equiv_pos_as_xyz
  1  'x, y, z'
loop_
 _atom_site_type_symbol
 _atom_site_label
 _atom_site_symmetry_multiplicity
 _atom_site_fract_x
 _atom_site_fract_y
 _atom_site_fract_z
 _atom_site_occupancy
  Rb  Rb0  1  0.00000000  0.00000000  0.50000000  1
  Al  Al0  1  0.00000000  0.00000000  0.00000000  1
  S  S0  1  0.66666700  0.33333300  0.79569556  1
  S  S1  1  0.33333300  0.66666700  0.20430444  1
  O  O0  1  0.82683264  0.17285530  0.85842065  1
  O  O1  1  0.34602166  0.17316736  0.85842065  1
  O  O2  1  0.65397834  0.82714470  0.14157935  1
  O  O3  1  0.82714470  0.65397834  0.85842065  1
  O  O4  1  0.17285530  0.82683264  0.14157935  1
  O  O5  1  0.17316736  0.34602166  0.14157935  1
  O  O6  1  0.66666700  0.33333300  0.61363071  1
  O  O7  1  0.33333300  0.66666700  0.38636929  1
loop_
_geom_bond_atom_site_label_1
_geom_bond_atom_site_label_2
_geom_bond_distance
_geom_bond_site_symmetry_2
Al0 O2 1.866361 1_445
Al0 O3 1.866361 1_444
Al0 O5 1.866361 1_555
Al0 O1 1.866361 1_554
Al0 O0 1.866364 1_454
Al0 O4 1.866364 1_545
O0 S0 1.469347 1_555
O0 Rb0 3.205917 1_655
O1 S0 1.469356 1_555
O1 Rb0 3.205915 1_555
O2 S1 1.469356 1_555
O2 Rb0 3.205915 1_665
O3 S0 1.469356 1_555
O3 Rb0 3.205915 1_665
O4 S1 1.469347 1_555
O4 Rb0 3.205917 1_565
O5 S1 1.469356 1_555
O5 Rb0 3.205915 1_555
O6 S0 1.441291 1_555
O6 Rb0 3.012689 1_655
O6 Rb0 3.012693 1_665
O6 Rb0 3.012693 1_555
O7 S1 1.441291 1_555
O7 Rb0 3.012689 1_565
O7 Rb0 3.012693 1_665
O7 Rb0 3.012693 1_555
