# generated using pymatgen
data_MgV4FeNiO12
_symmetry_space_group_name_H-M   'P 1'
_cell_length_a   7.06059624
_cell_length_b   7.06180616
_cell_length_c   5.52792589
_cell_angle_alpha   71.20495909
_cell_angle_beta   108.79699959
_cell_angle_gamma   102.92135516
_symmetry_Int_Tables_number   1
_chemical_formula_structural   MgV4FeNiO12
_chemical_formula_sum   'Mg1 V4 Fe1 Ni1 O12'
_cell_volume   244.79505582
_cell_formula_units_Z   1
loop_
 _symmetry_equiv_pos_site_id
 _symmetry_equiv_pos_as_xyz
  1  'x, y, z'
loop_
 _atom_site_type_symbol
 _atom_site_label
 _atom_site_symmetry_multiplicity
 _atom_site_fract_x
 _atom_site_fract_y
 _atom_site_fract_z
 _atom_site_occupancy
  Mg  Mg0  1  0.72560134  0.72510317  0.74999541  1
  V  V0  1  0.19085415  0.62098933  0.75229368  1
  V  V1  1  0.38974294  0.83917623  0.21531984  1
  V  V2  1  0.62140528  0.19040105  0.74769361  1
  V  V3  1  0.83971616  0.38926926  0.28470649  1
  Fe  Fe0  1  0.09905670  0.09843751  0.74995377  1
  Ni  Ni0  1  0.92123398  0.92075928  0.24994880  1
  O  O0  1  0.02106952  0.79673587  0.65446494  1
  O  O1  1  0.04337345  0.40390308  0.67030790  1
  O  O2  1  0.18967087  0.97657391  0.15552748  1
  O  O3  1  0.39003597  0.69558426  0.59974756  1
  O  O4  1  0.40432097  0.04281387  0.82971678  1
  O  O5  1  0.29646541  0.59892354  0.08827205  1
  O  O6  1  0.69599551  0.38953990  0.90025703  1
  O  O7  1  0.65403039  0.86564210  0.34474672  1
  O  O8  1  0.59935282  0.29591243  0.41168469  1
  O  O9  1  0.79713954  0.02059596  0.84554583  1
  O  O10  1  0.86619415  0.65351931  0.15518333  1
  O  O11  1  0.97696687  0.18908293  0.34463308  1
loop_
_geom_bond_atom_site_label_1
_geom_bond_atom_site_label_2
_geom_bond_distance
_geom_bond_site_symmetry_2
Mg0 O10 2.078420 1_556
Mg0 O7 2.078682 1_555
Mg0 O0 2.225485 1_655
Mg0 O9 2.226072 1_565
Mg0 O3 2.229208 1_555
Mg0 O6 2.229590 1_555
Fe0 O11 2.061789 1_455
Fe0 O2 2.062772 1_546
Fe0 O4 2.156115 1_555
Fe0 O1 2.158106 1_555
Fe0 O0 2.265790 1_545
Fe0 O9 2.267223 1_455
Ni0 O7 2.040273 1_555
Ni0 O10 2.040786 1_555
Ni0 O2 2.047169 1_655
Ni0 O11 2.047469 1_565
Ni0 O9 2.064143 1_564
Ni0 O0 2.064607 1_655
O0 V0 1.756403 1_555
O1 V0 1.752001 1_555
O1 V3 2.173067 1_455
O2 V1 1.775287 1_555
O3 V0 1.764391 1_555
O3 V1 2.038089 1_555
O4 V2 1.752160 1_555
O4 V1 2.173070 1_546
O5 V0 1.732841 1_554
O5 V1 1.943064 1_555
O6 V2 1.764371 1_555
O6 V3 2.038315 1_556
O7 V1 1.760313 1_555
O8 V2 1.732973 1_555
O8 V3 1.943354 1_555
O9 V2 1.756417 1_555
O10 V3 1.760443 1_555
O11 V3 1.775208 1_555
