# generated using pymatgen
data_Eu3NbO7
_symmetry_space_group_name_H-M   'P 1'
_cell_length_a   6.53945562
_cell_length_b   6.53945562
_cell_length_c   7.68163101
_cell_angle_alpha   90.00000000
_cell_angle_beta   90.00000000
_cell_angle_gamma   110.53038236
_symmetry_Int_Tables_number   1
_chemical_formula_structural   Eu3NbO7
_chemical_formula_sum   'Eu6 Nb2 O14'
_cell_volume   307.63665993
_cell_formula_units_Z   2
loop_
 _symmetry_equiv_pos_site_id
 _symmetry_equiv_pos_as_xyz
  1  'x, y, z'
loop_
 _atom_site_type_symbol
 _atom_site_label
 _atom_site_symmetry_multiplicity
 _atom_site_fract_x
 _atom_site_fract_y
 _atom_site_fract_z
 _atom_site_occupancy
  Eu  Eu0  1  0.50119579  0.50119579  0.50000000  1
  Eu  Eu1  1  0.49880421  0.49880421  -0.00000000  1
  Eu  Eu2  1  0.46787059  0.00218133  0.25106931  1
  Eu  Eu3  1  0.53212941  0.99781867  0.75106931  1
  Eu  Eu4  1  0.00218133  0.46787059  0.74893069  1
  Eu  Eu5  1  0.99781867  0.53212941  0.24893069  1
  Nb  Nb0  1  -0.00031100  -0.00031100  0.50000000  1
  Nb  Nb1  1  0.00031100  0.00031100  -0.00000000  1
  O  O0  1  0.32029704  0.07308297  0.53153275  1
  O  O1  1  0.67970296  0.92691703  0.03153275  1
  O  O2  1  0.07308297  0.32029704  0.46846725  1
  O  O3  1  0.92691703  0.67970296  0.96846725  1
  O  O4  1  0.92384575  0.67701172  0.52902059  1
  O  O5  1  0.07615425  0.32298828  0.02902059  1
  O  O6  1  0.67701172  0.92384575  0.47097941  1
  O  O7  1  0.32298828  0.07615425  0.97097941  1
  O  O8  1  0.62809679  0.37190321  0.25000000  1
  O  O9  1  0.37190321  0.62809679  0.75000000  1
  O  O10  1  0.36398066  0.63601934  0.25000000  1
  O  O11  1  0.63601934  0.36398066  0.75000000  1
  O  O12  1  0.06123803  0.93876197  0.25000000  1
  O  O13  1  0.93876197  0.06123803  0.75000000  1
loop_
_geom_bond_atom_site_label_1
_geom_bond_atom_site_label_2
_geom_bond_distance
_geom_bond_site_symmetry_2
Eu0 O9 2.362977 1_555
Eu0 O8 2.362977 1_555
Eu0 O10 2.413585 1_555
Eu0 O11 2.413585 1_555
Eu0 O6 2.604195 1_555
Eu0 O4 2.604195 1_555
Eu0 O2 2.640647 1_555
Eu0 O0 2.640647 1_555
Eu1 O9 2.362977 1_554
Eu1 O8 2.362977 1_555
Eu1 O11 2.413585 1_554
Eu1 O10 2.413585 1_555
Eu1 O5 2.604195 1_555
Eu1 O7 2.604195 1_554
Eu1 O1 2.640647 1_555
Eu1 O3 2.640647 1_554
Eu2 O10 2.248159 1_545
Eu2 O8 2.273037 1_555
Eu2 O6 2.340510 1_545
Eu2 O1 2.341663 1_545
Eu2 O7 2.466232 1_554
Eu2 O0 2.470154 1_555
Eu2 O12 2.543549 1_545
Eu3 O11 2.248159 1_565
Eu3 O9 2.273037 1_555
Eu3 O7 2.340510 1_565
Eu3 O0 2.341663 1_565
Eu3 O6 2.466232 1_555
Eu3 O1 2.470154 1_556
Eu3 O13 2.543549 1_565
Eu4 O11 2.248159 1_455
Eu4 O9 2.273037 1_555
Eu4 O4 2.340510 1_455
Eu4 O3 2.341663 1_455
Eu4 O5 2.466232 1_556
Eu4 O2 2.470154 1_555
Eu4 O13 2.543549 1_455
Eu5 O10 2.248159 1_655
Eu5 O8 2.273037 1_555
Eu5 O5 2.340510 1_655
Eu5 O2 2.341663 1_655
Eu5 O4 2.466232 1_555
Eu5 O3 2.470154 1_554
Eu5 O12 2.543549 1_655
Nb0 O2 1.994733 1_555
Nb0 O0 1.994733 1_555
Nb0 O4 2.003566 1_445
Nb0 O6 2.003566 1_445
Nb0 O13 2.030074 1_455
Nb0 O12 2.030074 1_545
Nb1 O3 1.994733 1_444
Nb1 O1 1.994733 1_445
Nb1 O5 2.003566 1_555
Nb1 O7 2.003566 1_554
Nb1 O13 2.030074 1_454
Nb1 O12 2.030074 1_545
