# generated using pymatgen
data_MnCuAs
_symmetry_space_group_name_H-M   'P 1'
_cell_length_a   3.85800336
_cell_length_b   6.61945889
_cell_length_c   7.30493541
_cell_angle_alpha   90.00107892
_cell_angle_beta   90.00000000
_cell_angle_gamma   90.00000000
_symmetry_Int_Tables_number   1
_chemical_formula_structural   MnCuAs
_chemical_formula_sum   'Mn4 Cu4 As4'
_cell_volume   186.55267083
_cell_formula_units_Z   4
loop_
 _symmetry_equiv_pos_site_id
 _symmetry_equiv_pos_as_xyz
  1  'x, y, z'
loop_
 _atom_site_type_symbol
 _atom_site_label
 _atom_site_symmetry_multiplicity
 _atom_site_fract_x
 _atom_site_fract_y
 _atom_site_fract_z
 _atom_site_occupancy
  Mn  Mn0  1  0.75000000  0.95840040  0.81366420  1
  Mn  Mn1  1  0.25000000  0.04159960  0.18633580  1
  Mn  Mn2  1  0.75000000  0.45837973  0.68631064  1
  Mn  Mn3  1  0.25000000  0.54162027  0.31368936  1
  Cu  Cu0  1  0.75000000  0.88017184  0.43761118  1
  Cu  Cu1  1  0.25000000  0.11982816  0.56238882  1
  Cu  Cu2  1  0.75000000  0.38016227  0.06236709  1
  Cu  Cu3  1  0.25000000  0.61983773  0.93763291  1
  As  As0  1  0.75000000  0.25568879  0.37944218  1
  As  As1  1  0.25000000  0.74431121  0.62055782  1
  As  As2  1  0.75000000  0.75561626  0.12053285  1
  As  As3  1  0.25000000  0.24438374  0.87946715  1
loop_
_geom_bond_atom_site_label_1
_geom_bond_atom_site_label_2
_geom_bond_distance
_geom_bond_site_symmetry_2
Cu0 Cu1 2.658658 1_565
Cu0 Cu1 2.658658 1_665
Cu0 Mn0 2.795414 1_555
Cu0 Mn1 2.869180 1_565
Cu0 Mn1 2.869180 1_665
Cu0 Mn3 3.092352 1_655
Cu0 Mn3 3.092352 1_555
Cu0 Mn2 3.331092 1_555
Cu1 Mn1 2.795414 1_555
Cu1 Mn0 2.869180 1_445
Cu1 Mn0 2.869180 1_545
Cu1 Mn2 3.092352 1_455
Cu1 Mn2 3.092352 1_555
Cu1 Mn3 3.331092 1_555
Cu2 Cu3 2.658645 1_654
Cu2 Cu3 2.658645 1_554
Cu2 Mn2 2.795444 1_554
Cu2 Mn3 2.869448 1_655
Cu2 Mn3 2.869448 1_555
Cu2 Mn1 3.092530 1_655
Cu2 Mn1 3.092530 1_555
Cu2 Mn0 3.330881 1_544
Cu3 Mn3 2.795444 1_556
Cu3 Mn2 2.869448 1_455
Cu3 Mn2 2.869448 1_555
Cu3 Mn0 3.092530 1_555
Cu3 Mn0 3.092530 1_455
Cu3 Mn1 3.330881 1_566
As0 Cu2 2.458415 1_555
As0 Cu1 2.513141 1_555
As0 Cu1 2.513141 1_655
As0 Cu0 2.521784 1_545
As0 Mn2 2.612484 1_555
As0 Mn3 2.744840 1_555
As0 Mn3 2.744840 1_655
As0 Mn1 2.778340 1_655
As0 Mn1 2.778340 1_555
As1 Cu3 2.458415 1_555
As1 Cu0 2.513141 1_555
As1 Cu0 2.513141 1_455
As1 Cu1 2.521784 1_565
As1 Mn3 2.612484 1_555
As1 Mn2 2.744840 1_455
As1 Mn2 2.744840 1_555
As1 Mn0 2.778340 1_555
As1 Mn0 2.778340 1_455
As2 Cu0 2.458590 1_555
As2 Cu3 2.512747 1_654
As2 Cu3 2.512747 1_554
As2 Cu2 2.521354 1_555
As2 Mn0 2.612845 1_554
As2 Mn1 2.745128 1_565
As2 Mn1 2.745128 1_665
As2 Mn3 2.778239 1_655
As2 Mn3 2.778239 1_555
As3 Cu1 2.458590 1_555
As3 Cu2 2.512747 1_456
As3 Cu2 2.512747 1_556
As3 Cu3 2.521354 1_555
As3 Mn1 2.612845 1_556
As3 Mn0 2.745128 1_545
As3 Mn0 2.745128 1_445
As3 Mn2 2.778239 1_555
As3 Mn2 2.778239 1_455
