# generated using pymatgen
data_InP3
_symmetry_space_group_name_H-M   'P 1'
_cell_length_a   5.47879812
_cell_length_b   5.47879907
_cell_length_c   5.47879875
_cell_angle_alpha   86.10879043
_cell_angle_beta   86.10878847
_cell_angle_gamma   86.10879388
_symmetry_Int_Tables_number   1
_chemical_formula_structural   InP3
_chemical_formula_sum   'In2 P6'
_cell_volume   163.37011544
_cell_formula_units_Z   2
loop_
 _symmetry_equiv_pos_site_id
 _symmetry_equiv_pos_as_xyz
  1  'x, y, z'
loop_
 _atom_site_type_symbol
 _atom_site_label
 _atom_site_symmetry_multiplicity
 _atom_site_fract_x
 _atom_site_fract_y
 _atom_site_fract_z
 _atom_site_occupancy
  In  In0  1  0.27059977  0.27059977  0.27059977  1
  In  In1  1  0.72940023  0.72940023  0.72940023  1
  P  P0  1  0.79891024  0.24488149  0.79891024  1
  P  P1  1  0.79891024  0.79891024  0.24488149  1
  P  P2  1  0.24488149  0.79891024  0.79891024  1
  P  P3  1  0.75511851  0.20108976  0.20108976  1
  P  P4  1  0.20108976  0.75511851  0.20108976  1
  P  P5  1  0.20108976  0.20108976  0.75511851  1
loop_
_geom_bond_atom_site_label_1
_geom_bond_atom_site_label_2
_geom_bond_distance
_geom_bond_site_symmetry_2
In0 P3 2.661226 1_555
In0 P5 2.661227 1_555
In0 P4 2.661227 1_555
In0 P3 2.928807 1_455
In0 P5 2.928808 1_554
In0 P4 2.928808 1_545
In1 P2 2.661226 1_555
In1 P1 2.661227 1_555
In1 P0 2.661227 1_555
In1 P2 2.928807 1_655
In1 P1 2.928808 1_556
In1 P0 2.928808 1_565
P0 P5 2.198789 1_655
P0 P3 2.198789 1_556
P1 P4 2.198789 1_655
P1 P3 2.198789 1_565
P2 P4 2.198789 1_556
P2 P5 2.198789 1_565
