# generated using pymatgen
data_Sm2MgNb2O8
_symmetry_space_group_name_H-M   'P 1'
_cell_length_a   5.40603552
_cell_length_b   5.60057604
_cell_length_c   6.93142951
_cell_angle_alpha   113.54910855
_cell_angle_beta   112.66492939
_cell_angle_gamma   90.65582006
_symmetry_Int_Tables_number   1
_chemical_formula_structural   Sm2MgNb2O8
_chemical_formula_sum   'Sm2 Mg1 Nb2 O8'
_cell_volume   174.10078959
_cell_formula_units_Z   1
loop_
 _symmetry_equiv_pos_site_id
 _symmetry_equiv_pos_as_xyz
  1  'x, y, z'
loop_
 _atom_site_type_symbol
 _atom_site_label
 _atom_site_symmetry_multiplicity
 _atom_site_fract_x
 _atom_site_fract_y
 _atom_site_fract_z
 _atom_site_occupancy
  Sm  Sm0  1  0.36579500  0.61579500  0.73158900  1
  Sm  Sm1  1  0.60863600  0.35863600  0.21727200  1
  Mg  Mg0  1  0.66336200  0.91336200  0.32672300  1
  Nb  Nb0  1  0.89579100  0.14579100  0.79158400  1
  Nb  Nb1  1  0.14544700  0.89544700  0.29089300  1
  O  O0  1  0.97784500  0.82061900  0.56244600  1
  O  O1  1  0.58460100  0.24182700  0.56244600  1
  O  O2  1  0.99713600  0.21387600  0.40556900  1
  O  O3  1  0.40843300  0.69169300  0.40556900  1
  O  O4  1  0.22861900  0.39031300  0.91420600  1
  O  O5  1  0.68558700  0.02389300  0.91420600  1
  O  O6  1  0.77642600  0.63499100  0.08874900  1
  O  O7  1  0.31232100  0.95375700  0.08874900  1
loop_
_geom_bond_atom_site_label_1
_geom_bond_atom_site_label_2
_geom_bond_distance
_geom_bond_site_symmetry_2
Mg0 O6 2.066148 1_555
Mg0 O7 2.066153 1_555
Mg0 O1 2.094596 1_565
Mg0 O0 2.094596 1_555
Mg0 O2 2.196058 1_565
Mg0 O3 2.196066 1_555
Nb0 O5 1.915749 1_555
Nb0 O4 1.915764 1_655
Nb0 O0 2.070290 1_545
Nb0 O1 2.070290 1_555
Nb1 O2 1.961196 1_465
Nb1 O3 1.961197 1_555
Nb1 O7 2.053469 1_555
Nb1 O6 2.053485 1_455
Nb1 O1 2.544679 1_565
Nb1 O0 2.544684 1_455
O0 Sm0 2.514705 1_655
O0 Sm1 2.767218 1_555
O1 Sm0 2.514706 1_555
O1 Sm1 2.767218 1_555
O2 Sm1 2.354513 1_555
O2 Sm0 2.550928 1_655
O3 Sm1 2.354513 1_555
O3 Sm0 2.550922 1_555
O4 Sm1 2.375923 1_556
O4 Sm0 2.392950 1_555
O5 Sm1 2.375923 1_556
O5 Sm0 2.392944 1_545
O6 Sm1 2.388370 1_555
O6 Sm0 2.571902 1_554
O7 Sm1 2.388381 1_565
O7 Sm0 2.571906 1_554
