# generated using pymatgen
data_PrMnGe
_symmetry_space_group_name_H-M   'P 1'
_cell_length_a   4.28394300
_cell_length_b   4.28394300
_cell_length_c   7.16642900
_cell_angle_alpha   90.00000000
_cell_angle_beta   90.00000000
_cell_angle_gamma   90.00000000
_symmetry_Int_Tables_number   1
_chemical_formula_structural   PrMnGe
_chemical_formula_sum   'Pr2 Mn2 Ge2'
_cell_volume   131.51950630
_cell_formula_units_Z   2
loop_
 _symmetry_equiv_pos_site_id
 _symmetry_equiv_pos_as_xyz
  1  'x, y, z'
loop_
 _atom_site_type_symbol
 _atom_site_label
 _atom_site_symmetry_multiplicity
 _atom_site_fract_x
 _atom_site_fract_y
 _atom_site_fract_z
 _atom_site_occupancy
  Pr  Pr0  1  0.00000000  0.50000000  0.32939500  1
  Pr  Pr1  1  0.50000000  0.00000000  0.67060500  1
  Mn  Mn0  1  0.50000000  0.50000000  0.00000000  1
  Mn  Mn1  1  0.00000000  0.00000000  0.00000000  1
  Ge  Ge0  1  0.50000000  0.00000000  0.20764000  1
  Ge  Ge1  1  0.00000000  0.50000000  0.79236000  1
loop_
_geom_bond_atom_site_label_1
_geom_bond_atom_site_label_2
_geom_bond_distance
_geom_bond_site_symmetry_2
Mn0 Pr0 3.187539 1_655
Mn0 Pr1 3.187539 1_564
Mn0 Pr1 3.187539 1_554
Mn0 Pr0 3.187539 1_555
Mn1 Pr1 3.187539 1_454
Mn1 Pr0 3.187539 1_545
Mn1 Pr1 3.187539 1_554
Mn1 Pr0 3.187539 1_555
Ge0 Mn0 2.608121 1_555
Ge0 Mn1 2.608121 1_555
Ge0 Mn0 2.608121 1_545
Ge0 Mn1 2.608121 1_655
Ge0 Pr0 3.152368 1_645
Ge0 Pr0 3.152368 1_555
Ge0 Pr0 3.152368 1_655
Ge0 Pr0 3.152368 1_545
Ge0 Pr1 3.317806 1_555
Ge1 Mn0 2.608121 1_456
Ge1 Mn1 2.608121 1_556
Ge1 Mn1 2.608121 1_566
Ge1 Mn0 2.608121 1_556
Ge1 Pr1 3.152368 1_555
Ge1 Pr1 3.152368 1_455
Ge1 Pr1 3.152368 1_565
Ge1 Pr1 3.152368 1_465
Ge1 Pr0 3.317806 1_555
