# generated using pymatgen
data_MgCrS2
_symmetry_space_group_name_H-M   'P 1'
_cell_length_a   6.56313215
_cell_length_b   6.56313172
_cell_length_c   6.56313115
_cell_angle_alpha   31.82787197
_cell_angle_beta   31.82787034
_cell_angle_gamma   31.82787394
_symmetry_Int_Tables_number   1
_chemical_formula_structural   MgCrS2
_chemical_formula_sum   'Mg1 Cr1 S2'
_cell_volume   69.83929814
_cell_formula_units_Z   1
loop_
 _symmetry_equiv_pos_site_id
 _symmetry_equiv_pos_as_xyz
  1  'x, y, z'
loop_
 _atom_site_type_symbol
 _atom_site_label
 _atom_site_symmetry_multiplicity
 _atom_site_fract_x
 _atom_site_fract_y
 _atom_site_fract_z
 _atom_site_occupancy
  Mg  Mg0  1  0.83275600  0.83275600  0.83275600  1
  Cr  Cr0  1  0.00023497  0.00023497  0.00023497  1
  S  S0  1  0.58904390  0.58904389  0.58904389  1
  S  S1  1  0.41129813  0.41129813  0.41129813  1
loop_
_geom_bond_atom_site_label_1
_geom_bond_atom_site_label_2
_geom_bond_distance
_geom_bond_site_symmetry_2
Mg0 S1 2.650803 1_655
Mg0 S1 2.650804 1_565
Mg0 S1 2.650804 1_556
Mg0 S0 2.668249 1_556
Mg0 S0 2.668249 1_565
Mg0 S0 2.668249 1_655
Cr0 S1 2.534838 1_455
Cr0 S1 2.534839 1_545
Cr0 S1 2.534839 1_554
Cr0 S0 2.536207 1_544
Cr0 S0 2.536207 1_454
Cr0 S0 2.536207 1_445
