# generated using pymatgen
data_Ba2Mg(FeO2)4
_symmetry_space_group_name_H-M   'P 1'
_cell_length_a   5.51036700
_cell_length_b   5.51036828
_cell_length_c   10.46254700
_cell_angle_alpha   90.00000000
_cell_angle_beta   90.00000000
_cell_angle_gamma   119.99999830
_symmetry_Int_Tables_number   1
_chemical_formula_structural   Ba2Mg(FeO2)4
_chemical_formula_sum   'Ba2 Mg1 Fe4 O8'
_cell_volume   275.12446526
_cell_formula_units_Z   1
loop_
 _symmetry_equiv_pos_site_id
 _symmetry_equiv_pos_as_xyz
  1  'x, y, z'
loop_
 _atom_site_type_symbol
 _atom_site_label
 _atom_site_symmetry_multiplicity
 _atom_site_fract_x
 _atom_site_fract_y
 _atom_site_fract_z
 _atom_site_occupancy
  Ba  Ba0  1  0.00000000  0.00000000  0.68144500  1
  Ba  Ba1  1  0.00000000  0.00000000  0.31855500  1
  Mg  Mg0  1  0.00000000  0.00000000  0.00000000  1
  Fe  Fe0  1  0.33333300  0.66666700  0.44329100  1
  Fe  Fe1  1  0.66666700  0.33333300  0.92714200  1
  Fe  Fe2  1  0.66666700  0.33333300  0.55670900  1
  Fe  Fe3  1  0.33333300  0.66666700  0.07285800  1
  O  O0  1  0.67543900  0.00000000  0.50000000  1
  O  O1  1  0.65863300  0.65863300  0.00000000  1
  O  O2  1  0.00000000  0.34136700  0.00000000  1
  O  O3  1  0.00000000  0.67543900  0.50000000  1
  O  O4  1  0.32456100  0.32456100  0.50000000  1
  O  O5  1  0.34136700  0.00000000  0.00000000  1
  O  O6  1  0.33333300  0.66666700  0.25797100  1
  O  O7  1  0.66666700  0.33333300  0.74202900  1
loop_
_geom_bond_atom_site_label_1
_geom_bond_atom_site_label_2
_geom_bond_distance
_geom_bond_site_symmetry_2
Ba0 O0 2.608139 1_455
Ba0 O4 2.608139 1_555
Ba0 O3 2.608139 1_545
Ba1 O0 2.608139 1_455
Ba1 O4 2.608139 1_555
Ba1 O3 2.608139 1_545
Mg0 O5 1.881057 1_555
Mg0 O1 1.881058 1_445
Mg0 O2 1.881058 1_555
Fe0 O6 1.938919 1_555
Fe0 O3 1.953698 1_555
Fe0 O0 1.953701 1_565
Fe0 O4 1.953704 1_555
Fe1 O7 1.936753 1_555
Fe1 O2 1.968630 1_656
Fe1 O5 1.968632 1_556
Fe1 O1 1.968635 1_556
Fe2 O7 1.938919 1_555
Fe2 O0 1.953699 1_555
Fe2 O3 1.953701 1_655
Fe2 O4 1.953704 1_555
Fe3 O6 1.936753 1_555
Fe3 O5 1.968630 1_565
Fe3 O2 1.968632 1_555
Fe3 O1 1.968635 1_555
