# generated using pymatgen
data_Na4LaInSi(PO6)2
_symmetry_space_group_name_H-M   'P 1'
_cell_length_a   9.51053037
_cell_length_b   9.51499737
_cell_length_c   23.22603211
_cell_angle_alpha   90.06476978
_cell_angle_beta   89.85107050
_cell_angle_gamma   120.02336119
_symmetry_Int_Tables_number   1
_chemical_formula_structural   Na4LaInSi(PO6)2
_chemical_formula_sum   'Na24 La6 In6 Si6 P12 O72'
_cell_volume   1819.76498848
_cell_formula_units_Z   6
loop_
 _symmetry_equiv_pos_site_id
 _symmetry_equiv_pos_as_xyz
  1  'x, y, z'
loop_
 _atom_site_type_symbol
 _atom_site_label
 _atom_site_symmetry_multiplicity
 _atom_site_fract_x
 _atom_site_fract_y
 _atom_site_fract_z
 _atom_site_occupancy
  Na  Na0  1  0.63696784  -0.00056180  0.25602511  1
  Na  Na1  1  0.36004286  0.36734192  0.25119917  1
  Na  Na2  1  0.00789123  0.62697921  0.25335610  1
  Na  Na3  1  0.63826484  0.63563946  0.74169508  1
  Na  Na4  1  0.98691871  0.35756102  0.74673476  1
  Na  Na5  1  0.38347746  0.01333305  0.74361585  1
  Na  Na6  1  0.29905370  0.32579915  0.58310158  1
  Na  Na7  1  0.03870430  0.71221616  0.58286499  1
  Na  Na8  1  0.66694488  0.96876604  0.59125927  1
  Na  Na9  1  0.28967566  0.96884050  0.08428469  1
  Na  Na10  1  0.68307308  0.70467929  0.08471267  1
  Na  Na11  1  0.03038043  0.32961842  0.09258178  1
  Na  Na12  1  0.97356630  0.67619143  0.92254379  1
  Na  Na13  1  0.69427341  0.03540396  0.91067100  1
  Na  Na14  1  0.33310533  0.29562806  0.91688029  1
  Na  Na15  1  0.96469151  0.30170812  0.40909046  1
  Na  Na16  1  0.32703645  0.02971869  0.41976677  1
  Na  Na17  1  0.70388603  0.66649453  0.41464642  1
  Na  Na18  1  0.00720621  0.99408779  0.49958894  1
  Na  Na19  1  0.00662280  0.99397151  0.00257435  1
  Na  Na20  1  0.66066090  0.31848751  0.83228522  1
  Na  Na21  1  0.67784546  0.33583665  0.33923768  1
  Na  Na22  1  0.32009803  0.65973932  0.16931868  1
  Na  Na23  1  0.34049383  0.67985315  0.66577933  1
  La  La0  1  0.00038267  0.99895838  0.84118203  1
  La  La1  1  0.67176075  0.33448966  0.18551465  1
  La  La2  1  0.66967242  0.33541478  0.99093342  1
  La  La3  1  0.32964530  0.67103862  0.01437886  1
  La  La4  1  0.32916801  0.67085189  0.51312857  1
  La  La5  1  0.33736984  0.67557127  0.81541259  1
  In  In0  1  0.99957585  0.99758905  0.34893226  1
  In  In1  1  0.00239712  0.00057021  0.64845164  1
  In  In2  1  0.00057054  0.00119808  0.15636315  1
  In  In3  1  0.66549492  0.32800950  0.67876751  1
  In  In4  1  0.66446701  0.33189989  0.48422042  1
  In  In5  1  0.32465144  0.66123627  0.31948996  1
  Si  Si0  1  0.01000587  0.29860383  0.25382148  1
  Si  Si1  1  0.70057377  0.00826717  0.74430876  1
  Si  Si2  1  0.36665494  0.04172966  0.58382212  1
  Si  Si3  1  0.97915036  0.65602748  0.08719052  1
  Si  Si4  1  0.33438351  0.98445649  0.91636498  1
  Si  Si5  1  0.02158168  0.66557439  0.41551652  1
  P  P0  1  0.28998503  0.98894921  0.25334435  1
  P  P1  1  0.69668696  0.70994262  0.25354926  1
  P  P2  1  0.31013288  0.30425110  0.74376879  1
  P  P3  1  0.99056108  0.68868832  0.74315513  1
  P  P4  1  0.95719946  0.32531072  0.58339947  1
  P  P5  1  0.67430898  0.63014460  0.58422340  1
  P  P6  1  0.67759858  0.02186124  0.08643520  1
  P  P7  1  0.34699289  0.32413103  0.08678500  1
  P  P8  1  0.64425493  0.66494197  0.91637899  1
  P  P9  1  0.02210909  0.35487014  0.91559889  1
  P  P10  1  0.63782353  0.97165242  0.41364422  1
  P  P11  1  0.33556327  0.36095788  0.41451214  1
  O  O0  1  0.20757153  0.00990394  0.30745786  1
  O  O1  1  0.80426305  0.78803320  0.30707912  1
  O  O2  1  0.98464049  0.18702764  0.31068282  1
  O  O3  1  0.24096125  0.21078131  0.80091068  1
  O  O4  1  0.96889253  0.75831768  0.80058041  1
  O  O5  1  0.79450190  0.03086071  0.80570850  1
  O  O6  1  0.79828274  0.98214887  0.69023117  1
  O  O7  1  0.19838292  0.21082846  0.69224826  1
  O  O8  1  0.01888194  0.80545035  0.69219906  1
  O  O9  1  0.77715221  0.80954526  0.19796115  1
  O  O10  1  0.03276791  0.21606119  0.19445192  1
  O  O11  1  0.18964989  0.96697244  0.19792341  1
  O  O12  1  0.88166136  0.35399753  0.63820324  1
  O  O13  1  0.47537837  0.12279483  0.64151333  1
  O  O14  1  0.65421847  0.52846022  0.63898552  1
  O  O15  1  0.88736932  0.53584390  0.14185299  1
  O  O16  1  0.64778894  0.10494407  0.13864914  1
  O  O17  1  0.45547955  0.34477500  0.13926001  1
  O  O18  1  0.42552049  0.30438938  0.03088750  1
  O  O19  1  0.87480325  0.57886741  0.02746722  1
  O  O20  1  0.69652122  0.11965847  0.03072659  1
  O  O21  1  0.45119106  0.15200113  0.52528728  1
  O  O22  1  0.69518272  0.54892737  0.52920057  1
  O  O23  1  0.85427032  0.30593115  0.52886363  1
  O  O24  1  0.55947474  0.67642642  0.97173260  1
  O  O25  1  0.12080320  0.43786708  0.97062446  1
  O  O26  1  0.31575648  0.87935334  0.97478212  1
  O  O27  1  0.56660931  0.86991055  0.46887017  1
  O  O28  1  0.30656615  0.43407288  0.46959994  1
  O  O29  1  0.13254689  0.70625727  0.47350353  1
  O  O30  1  0.10888986  0.62855863  0.36018210  1
  O  O31  1  0.52499337  0.88400488  0.36099865  1
  O  O32  1  0.36467620  0.47453588  0.36177473  1
  O  O33  1  0.11075054  0.45490416  0.86132451  1
  O  O34  1  0.35208470  0.89354907  0.85876150  1
  O  O35  1  0.54158726  0.64944186  0.86243611  1
  O  O36  1  -0.00179968  0.82713142  0.40927689  1
  O  O37  1  0.81135302  0.99440290  0.40844656  1
  O  O38  1  0.18297754  0.18746478  0.40925115  1
  O  O39  1  0.00176415  0.18310315  0.91453391  1
  O  O40  1  0.17039863  0.00072438  0.91524353  1
  O  O41  1  0.81388899  0.82080541  0.91478541  1
  O  O42  1  0.96923463  0.16707733  0.58637274  1
  O  O43  1  0.18215797  0.02461722  0.58607835  1
  O  O44  1  0.83045840  0.80276772  0.58659368  1
  O  O45  1  0.99039443  0.83425790  0.09271555  1
  O  O46  1  0.83756059  0.01644279  0.09150647  1
  O  O47  1  0.17821958  0.16716285  0.09052645  1
  O  O48  1  0.68552428  0.17439494  0.74153689  1
  O  O49  1  0.48431133  0.32728895  0.73977941  1
  O  O50  1  0.83255426  0.52018461  0.73794851  1
  O  O51  1  0.66797537  0.53358172  0.25090466  1
  O  O52  1  0.84734942  0.32034924  0.25346339  1
  O  O53  1  0.46223229  0.14299747  0.25126373  1
  O  O54  1  0.66312406  0.51239659  0.91659331  1
  O  O55  1  0.85294738  0.34271027  0.91652903  1
  O  O56  1  0.49925334  0.16445695  0.91705042  1
  O  O57  1  0.64959498  0.14192883  0.41779064  1
  O  O58  1  0.49242873  0.34660183  0.41846030  1
  O  O59  1  0.83992987  0.49727226  0.42124665  1
  O  O60  1  0.32682281  0.47609034  0.08546921  1
  O  O61  1  0.16183446  0.67713021  0.08696066  1
  O  O62  1  0.53107427  0.84631203  0.08443718  1
  O  O63  1  0.34555360  0.85802450  0.58239706  1
  O  O64  1  0.52002585  0.64814300  0.58190947  1
  O  O65  1  0.13269858  0.47446611  0.58032072  1
  O  O66  1  0.30916684  0.83470217  0.25655717  1
  O  O67  1  0.52785478  0.70114525  0.25807445  1
  O  O68  1  0.17797327  0.48150536  0.25532407  1
  O  O69  1  0.32307588  0.47372787  0.74442505  1
  O  O70  1  0.14048341  0.66419104  0.74424949  1
  O  O71  1  0.51792667  0.84451612  0.74264778  1
loop_
_geom_bond_atom_site_label_1
_geom_bond_atom_site_label_2
_geom_bond_distance
_geom_bond_site_symmetry_2
Na0 O67 2.487465 1_545
Na0 O53 2.629195 1_555
Na0 O31 2.665885 1_545
Na0 O52 2.686363 1_555
Na0 O66 2.699262 1_545
Na0 O16 2.889943 1_555
Na1 O68 2.463472 1_555
Na1 O51 2.538312 1_555
Na1 O53 2.752690 1_555
Na1 O32 2.754586 1_555
Na1 O67 2.754641 1_555
Na1 O17 2.794805 1_555
Na2 O52 2.526996 1_455
Na2 O66 2.540764 1_555
Na2 O68 2.603019 1_555
Na2 O30 2.660229 1_555
Na2 O15 2.790775 1_455
Na2 O51 2.893056 1_455
Na3 O49 2.540682 1_555
Na3 O50 2.580508 1_555
Na3 O69 2.596345 1_555
Na3 O14 2.627028 1_555
Na3 O71 2.745234 1_555
Na3 O35 2.972127 1_555
Na4 O48 2.504098 1_555
Na4 O70 2.526755 1_655
Na4 O50 2.620458 1_555
Na4 O12 2.708584 1_555
Na4 O69 2.812228 1_655
Na4 O33 2.871830 1_655
Na5 O48 2.489358 1_555
Na5 O71 2.504171 1_545
Na5 O13 2.560519 1_555
Na5 O49 2.642889 1_555
Na5 O34 2.864029 1_545
Na5 O70 2.948621 1_545
Na6 O43 2.503014 1_555
Na6 O65 2.597812 1_555
Na6 O64 2.715524 1_555
Na6 O42 2.717397 1_455
Na6 O7 2.735942 1_555
Na6 O28 2.819128 1_555
Na7 O44 2.525650 1_455
Na7 O63 2.527773 1_555
Na7 O43 2.577673 1_565
Na7 O29 2.700010 1_555
Na7 O8 2.725957 1_555
Na7 O65 2.818373 1_555
Na8 O42 2.531560 1_565
Na8 O6 2.591463 1_555
Na8 O64 2.653457 1_555
Na8 O63 2.697262 1_555
Na8 O44 2.716897 1_555
Na8 O27 2.997604 1_555
Na9 O61 2.410210 1_555
Na9 O45 2.475872 1_455
Na9 O47 2.589557 1_565
Na9 O26 2.730957 1_554
Na9 O11 2.800308 1_555
Na10 O62 2.419806 1_555
Na10 O45 2.548239 1_555
Na10 O46 2.573313 1_565
Na10 O9 2.797787 1_555
Na10 O24 2.835144 1_554
Na10 O19 2.948564 1_555
Na10 O60 2.972502 1_555
Na11 O60 2.446285 1_555
Na11 O47 2.557927 1_555
Na11 O46 2.602843 1_455
Na11 O10 2.607056 1_555
Na11 O61 2.894271 1_555
Na11 O25 2.988562 1_554
Na12 O41 2.514980 1_555
Na12 O54 2.561653 1_555
Na12 O19 2.607936 1_556
Na12 O40 2.698755 1_665
Na12 O55 2.785880 1_555
Na12 O4 2.945736 1_555
Na13 O39 2.534471 1_655
Na13 O55 2.535783 1_555
Na13 O5 2.623471 1_555
Na13 O56 2.692052 1_555
Na13 O41 2.792524 1_545
Na13 O20 2.897674 1_556
Na14 O40 2.434042 1_555
Na14 O56 2.455252 1_555
Na14 O54 2.761707 1_555
Na14 O39 2.775609 1_555
Na14 O18 2.780159 1_556
Na14 O3 2.823848 1_555
Na15 O37 2.531721 1_545
Na15 O2 2.578762 1_555
Na15 O57 2.602107 1_555
Na15 O59 2.675204 1_555
Na15 O38 2.783847 1_655
Na15 O30 2.928301 1_655
Na15 O23 2.978249 1_555
Na16 O38 2.500013 1_555
Na16 O58 2.611536 1_555
Na16 O57 2.697145 1_555
Na16 O21 2.718145 1_555
Na16 O36 2.743344 1_545
Na16 O0 2.816131 1_555
Na16 O29 2.958268 1_545
Na17 O36 2.429800 1_655
Na17 O59 2.525169 1_555
Na17 O58 2.681594 1_555
Na17 O1 2.716592 1_555
Na17 O37 2.758469 1_555
Na17 O22 2.872308 1_555
Na18 O43 2.533885 1_565
Na18 O36 2.605394 1_555
Na18 O44 2.674232 1_455
Na18 O42 2.736071 1_465
Na18 O38 2.737682 1_565
Na18 O37 2.824324 1_455
Na19 O40 2.535379 1_564
Na19 O45 2.547015 1_455
Na19 O47 2.621140 1_565
Na19 O41 2.687324 1_454
Na19 O46 2.687599 1_465
Na19 O39 2.741168 1_564
Na20 O56 2.473836 1_555
Na20 O48 2.587175 1_555
Na20 O55 2.611840 1_555
Na20 O54 2.681022 1_555
Na20 O49 2.756061 1_555
Na20 O50 2.829791 1_555
Na21 O59 2.450082 1_555
Na21 O57 2.512773 1_555
Na21 O58 2.582493 1_555
Na21 O52 2.609542 1_555
Na21 O51 2.818627 1_555
Na21 O53 2.827502 1_555
Na22 O61 2.493359 1_555
Na22 O68 2.528450 1_555
Na22 O60 2.637002 1_555
Na22 O66 2.655607 1_555
Na22 O62 2.736234 1_555
Na22 O67 2.747581 1_555
Na23 O71 2.419381 1_555
Na23 O63 2.559732 1_555
Na23 O70 2.580930 1_555
Na23 O69 2.625269 1_555
Na23 O64 2.701460 1_555
Na23 O65 2.794844 1_555
La0 O5 2.282237 1_465
La0 O4 2.352029 1_455
La0 O3 2.355957 1_565
La0 O40 2.358160 1_565
La0 O41 2.433893 1_455
La0 O39 2.437825 1_565
La1 O15 2.228438 1_555
La1 O16 2.346237 1_555
La1 O52 2.352973 1_555
La1 O17 2.368108 1_555
La1 O51 2.440893 1_555
La1 O53 2.445381 1_555
La2 O19 2.318141 1_556
La2 O56 2.363782 1_555
La2 O18 2.375604 1_556
La2 O20 2.379914 1_556
La2 O55 2.427538 1_555
La2 O54 2.435773 1_555
La3 O26 2.249174 1_554
La3 O61 2.338957 1_555
La3 O25 2.344288 1_554
La3 O24 2.374483 1_554
La3 O62 2.431432 1_555
La3 O60 2.474802 1_555
La4 O29 2.257730 1_555
La4 O27 2.335746 1_555
La4 O63 2.345526 1_555
La4 O28 2.378122 1_555
La4 O65 2.432286 1_555
La4 O64 2.510351 1_555
La5 O34 2.245116 1_555
La5 O35 2.349832 1_555
La5 O71 2.370183 1_555
La5 O33 2.378114 1_555
La5 O70 2.462237 1_555
La5 O69 2.481551 1_555
In0 O2 2.078202 1_565
In0 O36 2.139846 1_655
In0 O0 2.147817 1_665
In0 O1 2.160950 1_555
In0 O37 2.246998 1_555
In0 O38 2.263325 1_665
In1 O6 2.095432 1_445
In1 O43 2.161080 1_555
In1 O7 2.187472 1_555
In1 O8 2.190936 1_545
In1 O42 2.279476 1_455
In1 O44 2.281812 1_445
In2 O10 2.104016 1_555
In2 O45 2.135277 1_445
In2 O11 2.206187 1_545
In2 O9 2.211237 1_445
In2 O46 2.220655 1_455
In2 O47 2.237988 1_555
In3 O13 2.074110 1_555
In3 O48 2.140793 1_555
In3 O12 2.158025 1_555
In3 O14 2.170755 1_555
In3 O50 2.203561 1_555
In3 O49 2.225506 1_555
In4 O21 2.115004 1_555
In4 O59 2.182846 1_555
In4 O22 2.198657 1_555
In4 O23 2.202575 1_555
In4 O58 2.296072 1_555
In4 O57 2.325264 1_555
In5 O30 2.133720 1_555
In5 O68 2.170105 1_555
In5 O32 2.224367 1_555
In5 O31 2.239671 1_555
In5 O66 2.265446 1_555
In5 O67 2.272943 1_555
O0 P0 1.544164 1_545
O1 P1 1.545441 1_555
O2 Si0 1.635440 1_655
O3 P2 1.548481 1_555
O4 P3 1.547103 1_555
O5 Si1 1.640624 1_555
O6 Si1 1.651416 1_565
O7 P2 1.552550 1_555
O8 P3 1.552224 1_455
O9 P1 1.556464 1_555
O10 Si0 1.652654 1_555
O11 P0 1.554768 1_555
O12 P4 1.549682 1_555
O13 Si2 1.632885 1_555
O14 P5 1.551414 1_555
O15 Si3 1.637108 1_555
O16 P6 1.548011 1_555
O17 P7 1.546528 1_555
O18 P7 1.553503 1_555
O19 Si3 1.650381 1_555
O20 P6 1.551249 1_555
O21 Si2 1.658007 1_555
O22 P5 1.555557 1_555
O23 P4 1.556264 1_555
O24 P8 1.548359 1_555
O25 P9 1.549261 1_555
O26 Si4 1.642233 1_555
O27 P10 1.543799 1_555
O28 P11 1.544418 1_555
O29 Si5 1.635505 1_555
O30 Si5 1.658719 1_555
O31 P10 1.565591 1_555
O32 P11 1.564190 1_555
O33 P9 1.549171 1_555
O34 Si4 1.645737 1_555
O35 P8 1.551353 1_555
O36 Si5 1.666200 1_555
O37 P10 1.557764 1_555
O38 P11 1.564968 1_555
O39 P9 1.546825 1_555
O40 Si4 1.642783 1_545
O41 P8 1.552117 1_555
O42 P4 1.567610 1_555
O43 Si2 1.679804 1_555
O44 P5 1.570206 1_555
O45 Si3 1.649834 1_555
O46 P6 1.552544 1_555
O47 P7 1.554095 1_555
O48 Si1 1.658295 1_555
O49 P2 1.560961 1_555
O50 P3 1.559772 1_555
O51 P1 1.560634 1_555
O52 Si0 1.660212 1_655
O53 P0 1.559255 1_545
O54 P8 1.549087 1_555
O55 P9 1.554252 1_655
O56 Si4 1.644653 1_545
O57 P10 1.570026 1_545
O58 P11 1.567618 1_555
O59 Si5 1.672588 1_655
O60 P7 1.551137 1_555
O61 Si3 1.646156 1_455
O62 P6 1.550799 1_565
O63 Si2 1.656980 1_565
O64 P5 1.561128 1_555
O65 P4 1.560219 1_455
O66 P0 1.568798 1_555
O67 P1 1.568730 1_555
O68 Si0 1.673285 1_555
O69 P2 1.554698 1_555
O70 P3 1.555888 1_455
O71 Si1 1.654792 1_565
