# generated using pymatgen
data_Na2ZnSnP2SO12
_symmetry_space_group_name_H-M   'P 1'
_cell_length_a   8.88283175
_cell_length_b   8.83733238
_cell_length_c   22.47017929
_cell_angle_alpha   89.88096613
_cell_angle_beta   90.00000000
_cell_angle_gamma   120.17045900
_symmetry_Int_Tables_number   1
_chemical_formula_structural   Na2ZnSnP2SO12
_chemical_formula_sum   'Na12 Zn6 Sn6 P12 S6 O72'
_cell_volume   1524.96545567
_cell_formula_units_Z   6
loop_
 _symmetry_equiv_pos_site_id
 _symmetry_equiv_pos_as_xyz
  1  'x, y, z'
loop_
 _atom_site_type_symbol
 _atom_site_label
 _atom_site_symmetry_multiplicity
 _atom_site_fract_x
 _atom_site_fract_y
 _atom_site_fract_z
 _atom_site_occupancy
  Na  Na0  1  0.99459627  0.63038049  0.24417140  1
  Na  Na1  1  0.63578423  0.63038049  0.74417140  1
  Na  Na2  1  0.66126327  0.96371349  0.57750440  1
  Na  Na3  1  0.30245123  0.96371349  0.07750440  1
  Na  Na4  1  0.32792927  0.29704749  0.91083840  1
  Na  Na5  1  0.96911723  0.29704749  0.41083840  1
  Na  Na6  1  0.99689489  0.97599268  0.49381256  1
  Na  Na7  1  0.97909780  0.97599268  0.99381256  1
  Na  Na8  1  0.66356189  0.30932568  0.82714556  1
  Na  Na9  1  0.64576480  0.30932568  0.32714556  1
  Na  Na10  1  0.33022789  0.64265968  0.16047956  1
  Na  Na11  1  0.31243080  0.64265968  0.66047956  1
  Zn  Zn0  1  0.00141435  0.99600770  0.35024788  1
  Zn  Zn1  1  0.99459335  0.99600770  0.85024788  1
  Zn  Zn2  1  0.66808135  0.32934070  0.68358088  1
  Zn  Zn3  1  0.66126035  0.32934070  0.18358088  1
  Zn  Zn4  1  0.33474735  0.66267470  0.01691488  1
  Zn  Zn5  1  0.32792635  0.66267470  0.51691488  1
  Sn  Sn0  1  0.00035580  0.00766017  0.65059677  1
  Sn  Sn1  1  0.00730437  0.00766017  0.15059677  1
  Sn  Sn2  1  0.66702280  0.34099317  0.98392977  1
  Sn  Sn3  1  0.67397137  0.34099317  0.48392977  1
  Sn  Sn4  1  0.33368880  0.67432717  0.31726377  1
  Sn  Sn5  1  0.34063737  0.67432717  0.81726377  1
  P  P0  1  0.29871295  0.00423145  0.25143089  1
  P  P1  1  0.00059245  0.29612386  0.25457418  1
  P  P2  1  0.29553141  0.29612386  0.75457418  1
  P  P3  1  0.70551850  0.00423145  0.75143089  1
  P  P4  1  0.96537995  0.33756445  0.58476389  1
  P  P5  1  0.66725945  0.62945686  0.58790718  1
  P  P6  1  0.96219841  0.62945686  0.08790718  1
  P  P7  1  0.37218550  0.33756445  0.08476389  1
  P  P8  1  0.63204595  0.67089845  0.91809789  1
  P  P9  1  0.33392545  0.96279086  0.92124118  1
  P  P10  1  0.62886441  0.96279086  0.42124118  1
  P  P11  1  0.03885150  0.67089845  0.41809789  1
  S  S0  1  0.70146721  0.70786647  0.25114113  1
  S  S1  1  0.00639926  0.70786647  0.75114113  1
  S  S2  1  0.36813421  0.04119947  0.58447413  1
  S  S3  1  0.67306626  0.04119947  0.08447413  1
  S  S4  1  0.03480021  0.37453347  0.91780813  1
  S  S5  1  0.33973226  0.37453347  0.41780813  1
  O  O0  1  0.20386274  0.01919014  0.30466997  1
  O  O1  1  0.80814594  0.79176596  0.30327110  1
  O  O2  1  0.98107677  0.19301693  0.31098795  1
  O  O3  1  0.21194016  0.19301693  0.81098795  1
  O  O4  1  0.98362002  0.79176596  0.80327110  1
  O  O5  1  0.81532740  0.01919014  0.80466997  1
  O  O6  1  0.77523307  0.95742178  0.69266328  1
  O  O7  1  0.18437484  0.21339551  0.69677872  1
  O  O8  1  0.03776054  0.81501739  0.69522759  1
  O  O9  1  0.77725685  0.81501739  0.19522759  1
  O  O10  1  0.02902066  0.21339551  0.19677872  1
  O  O11  1  0.18218870  0.95742178  0.19266328  1
  O  O12  1  0.87052974  0.35252314  0.63800297  1
  O  O13  1  0.47481294  0.12509896  0.63660410  1
  O  O14  1  0.64774377  0.52634993  0.64432095  1
  O  O15  1  0.87860716  0.52634993  0.14432095  1
  O  O16  1  0.65028702  0.12509896  0.13660410  1
  O  O17  1  0.48199440  0.35252314  0.13800297  1
  O  O18  1  0.44190007  0.29075478  0.02599628  1
  O  O19  1  0.85104184  0.54672851  0.03011172  1
  O  O20  1  0.70442754  0.14835039  0.02856059  1
  O  O21  1  0.44392385  0.14835039  0.52856059  1
  O  O22  1  0.69568766  0.54672851  0.53011172  1
  O  O23  1  0.84885570  0.29075478  0.52599628  1
  O  O24  1  0.53719574  0.68585714  0.97133697  1
  O  O25  1  0.14147894  0.45843296  0.96993810  1
  O  O26  1  0.31440977  0.85968393  0.97765495  1
  O  O27  1  0.54527316  0.85968393  0.47765495  1
  O  O28  1  0.31695302  0.45843296  0.46993810  1
  O  O29  1  0.14866040  0.68585714  0.47133697  1
  O  O30  1  0.10856607  0.62408878  0.35933028  1
  O  O31  1  0.51770784  0.88006251  0.36344572  1
  O  O32  1  0.37109354  0.48168439  0.36189459  1
  O  O33  1  0.11058985  0.48168439  0.86189459  1
  O  O34  1  0.36235366  0.88006251  0.86344572  1
  O  O35  1  0.51552170  0.62408878  0.85933028  1
  O  O36  1  0.01505683  0.82786057  0.41038849  1
  O  O37  1  0.81447017  0.99559919  0.41392034  1
  O  O38  1  0.18308802  0.20176136  0.41154783  1
  O  O39  1  0.01867334  0.20176136  0.91154783  1
  O  O40  1  0.18112902  0.99559919  0.91392034  1
  O  O41  1  0.81280373  0.82786057  0.91038849  1
  O  O42  1  0.97406230  0.16186595  0.58749073  1
  O  O43  1  0.19085129  0.02255696  0.58808613  1
  O  O44  1  0.84036723  0.81698545  0.58899306  1
  O  O45  1  0.97661822  0.81698545  0.08899306  1
  O  O46  1  0.83170567  0.02255696  0.08808613  1
  O  O47  1  0.18780364  0.16186595  0.08749073  1
  O  O48  1  0.68172383  0.16119357  0.74372149  1
  O  O49  1  0.48113717  0.32893219  0.74725334  1
  O  O50  1  0.84975502  0.53509436  0.74488083  1
  O  O51  1  0.68534034  0.53509436  0.24488083  1
  O  O52  1  0.84779602  0.32893219  0.24725334  1
  O  O53  1  0.47947073  0.16119357  0.24372149  1
  O  O54  1  0.64072930  0.49519895  0.92082373  1
  O  O55  1  0.85751829  0.35588996  0.92141913  1
  O  O56  1  0.50703423  0.15031845  0.92232606  1
  O  O57  1  0.64328522  0.15031845  0.42232606  1
  O  O58  1  0.49837267  0.35588996  0.42141913  1
  O  O59  1  0.85447064  0.49519895  0.42082373  1
  O  O60  1  0.34838983  0.49452757  0.07705549  1
  O  O61  1  0.14780317  0.66226619  0.08058734  1
  O  O62  1  0.51642102  0.86842836  0.07821483  1
  O  O63  1  0.35200634  0.86842836  0.57821483  1
  O  O64  1  0.51446202  0.66226619  0.58058734  1
  O  O65  1  0.14613673  0.49452757  0.57705549  1
  O  O66  1  0.30739530  0.82853295  0.25415773  1
  O  O67  1  0.52418429  0.68922396  0.25475313  1
  O  O68  1  0.17370023  0.48365245  0.25566006  1
  O  O69  1  0.30995122  0.48365245  0.75566006  1
  O  O70  1  0.16503867  0.68922396  0.75475313  1
  O  O71  1  0.52113664  0.82853295  0.75415773  1
loop_
_geom_bond_atom_site_label_1
_geom_bond_atom_site_label_2
_geom_bond_distance
_geom_bond_site_symmetry_2
Na0 O52 2.304256 1_555
Na0 O51 2.435267 1_555
Na0 O66 2.438873 1_655
Na0 O15 2.448923 1_555
Na0 O68 2.520188 1_655
Na0 O11 2.759466 1_655
Na0 O30 2.789240 1_655
Na1 O49 2.304256 1_555
Na1 O50 2.435275 1_555
Na1 O71 2.438880 1_555
Na1 O14 2.448925 1_555
Na1 O69 2.520196 1_555
Na1 O6 2.759466 1_555
Na1 O35 2.789243 1_555
Na2 O64 2.304249 1_555
Na2 O63 2.435278 1_555
Na2 O42 2.438873 1_565
Na2 O27 2.448903 1_555
Na2 O44 2.520188 1_555
Na2 O23 2.759466 1_565
Na2 O6 2.789240 1_555
Na3 O61 2.304249 1_555
Na3 O62 2.435261 1_555
Na3 O47 2.438880 1_565
Na3 O26 2.448899 1_554
Na3 O45 2.520196 1_455
Na3 O18 2.759466 1_565
Na3 O11 2.789243 1_555
Na4 O40 2.304256 1_545
Na4 O39 2.435267 1_555
Na4 O54 2.438877 1_555
Na4 O3 2.448923 1_555
Na4 O56 2.520201 1_555
Na4 O35 2.759466 1_555
Na4 O18 2.789224 1_556
Na5 O37 2.304256 1_545
Na5 O38 2.435275 1_655
Na5 O59 2.438863 1_555
Na5 O2 2.448925 1_555
Na5 O57 2.520185 1_555
Na5 O30 2.759466 1_655
Na5 O23 2.789218 1_555
Na6 O36 2.340124 1_655
Na6 O37 2.481837 1_555
Na6 O44 2.550610 1_555
Na6 O38 2.607875 1_665
Na6 O43 2.629836 1_665
Na6 O42 2.742164 1_565
Na7 O41 2.340124 1_555
Na7 O40 2.481837 1_655
Na7 O45 2.550610 1_556
Na7 O39 2.607875 1_665
Na7 O46 2.629836 1_566
Na7 O47 2.742164 1_666
Na8 O48 2.340124 1_555
Na8 O49 2.481837 1_555
Na8 O56 2.550610 1_555
Na8 O50 2.607875 1_555
Na8 O55 2.629836 1_555
Na8 O54 2.742164 1_555
Na9 O53 2.340124 1_555
Na9 O52 2.481837 1_555
Na9 O57 2.550610 1_555
Na9 O51 2.607875 1_555
Na9 O58 2.629836 1_555
Na9 O59 2.742164 1_555
Na10 O60 2.340124 1_555
Na10 O61 2.481837 1_555
Na10 O68 2.550610 1_555
Na10 O62 2.607875 1_555
Na10 O67 2.629836 1_555
Na10 O66 2.742164 1_555
Na11 O65 2.340124 1_555
Na11 O64 2.481837 1_555
Na11 O69 2.550610 1_555
Na11 O63 2.607875 1_555
Na11 O70 2.629836 1_555
Na11 O71 2.742164 1_555
O0 P0 1.507007 1_555
O0 Zn0 1.988363 1_545
O1 S0 1.455061 1_555
O1 Zn0 2.052479 1_655
O2 P1 1.517771 1_655
O2 Zn0 2.037608 1_645
O3 P2 1.517771 1_555
O3 Zn1 2.037608 1_445
O4 S1 1.455061 1_655
O4 Zn1 2.052479 1_555
O5 P3 1.507007 1_555
O5 Zn1 1.988363 1_545
O6 P3 1.599419 1_565
O6 Sn0 2.048259 1_665
O7 P2 1.573004 1_555
O7 Sn0 2.018675 1_555
O8 S1 1.510859 1_555
O8 Sn0 2.139143 1_565
O9 S0 1.510859 1_555
O9 Sn1 2.139143 1_665
O10 P1 1.573004 1_555
O10 Sn1 2.018675 1_555
O11 P0 1.599419 1_565
O11 Sn1 2.048259 1_565
O12 P4 1.507007 1_555
O12 Zn2 1.988363 1_555
O13 S2 1.455061 1_555
O13 Zn2 2.052479 1_555
O14 P5 1.517771 1_555
O14 Zn2 2.037608 1_555
O15 P6 1.517771 1_555
O15 Zn3 2.037608 1_555
O16 S3 1.455061 1_555
O16 Zn3 2.052479 1_555
O17 P7 1.507007 1_555
O17 Zn3 1.988363 1_555
O18 P7 1.599419 1_555
O18 Sn2 2.048259 1_554
O19 P6 1.573004 1_555
O19 Sn2 2.018675 1_554
O20 S3 1.510859 1_555
O20 Sn2 2.139143 1_554
O21 S2 1.510859 1_555
O21 Sn3 2.139143 1_555
O22 P5 1.573004 1_555
O22 Sn3 2.018675 1_555
O23 P4 1.599419 1_555
O23 Sn3 2.048259 1_555
O24 P8 1.507007 1_555
O24 Zn4 1.988363 1_556
O25 S4 1.455061 1_555
O25 Zn4 2.052479 1_556
O26 P9 1.517771 1_555
O26 Zn4 2.037608 1_556
O27 P10 1.517771 1_555
O27 Zn5 2.037608 1_555
O28 S5 1.455061 1_555
O28 Zn5 2.052479 1_555
O29 P11 1.507007 1_555
O29 Zn5 1.988363 1_555
O30 P11 1.599419 1_555
O30 Sn4 2.048259 1_555
O31 P10 1.573004 1_555
O31 Sn4 2.018675 1_555
O32 S5 1.510859 1_555
O32 Sn4 2.139143 1_555
O33 S4 1.510859 1_555
O33 Sn5 2.139143 1_555
O34 P9 1.573004 1_555
O34 Sn5 2.018675 1_555
O35 P8 1.599419 1_555
O35 Sn5 2.048259 1_555
O36 P11 1.514102 1_555
O36 Zn0 2.054668 1_555
O37 P10 1.532537 1_555
O37 Zn0 2.190555 1_655
O38 S5 1.467172 1_555
O38 Zn0 2.206530 1_545
O39 S4 1.467176 1_555
O39 Zn1 2.206530 1_445
O40 P9 1.532528 1_555
O40 Zn1 2.190555 1_455
O41 P8 1.514107 1_555
O41 Zn1 2.054668 1_555
O42 P4 1.593917 1_555
O42 Sn0 2.057746 1_655
O43 S2 1.500936 1_555
O43 Sn0 2.151501 1_555
O44 P5 1.596958 1_555
O44 Sn0 2.092335 1_665
O45 P6 1.596962 1_555
O45 Sn1 2.092335 1_665
O46 S3 1.500927 1_555
O46 Sn1 2.151501 1_655
O47 P7 1.593922 1_555
O47 Sn1 2.057746 1_555
O48 P3 1.514102 1_555
O48 Zn2 2.054668 1_555
O49 P2 1.532537 1_555
O49 Zn2 2.190555 1_555
O50 S1 1.467172 1_655
O50 Zn2 2.206530 1_555
O51 S0 1.467176 1_555
O51 Zn3 2.206530 1_555
O52 P1 1.532528 1_655
O52 Zn3 2.190555 1_555
O53 P0 1.514107 1_555
O53 Zn3 2.054668 1_555
O54 P8 1.593929 1_555
O54 Sn2 2.057746 1_555
O55 S4 1.500922 1_655
O55 Sn2 2.151501 1_555
O56 P9 1.596957 1_545
O56 Sn2 2.092335 1_555
O57 P10 1.596949 1_545
O57 Sn3 2.092335 1_555
O58 S5 1.500940 1_555
O58 Sn3 2.151501 1_555
O59 P11 1.593920 1_655
O59 Sn3 2.057746 1_555
O60 P7 1.514113 1_555
O60 Zn4 2.054668 1_555
O61 P6 1.532523 1_455
O61 Zn4 2.190555 1_555
O62 S3 1.467169 1_565
O62 Zn4 2.206530 1_555
O63 S2 1.467161 1_565
O63 Zn5 2.206530 1_555
O64 P5 1.532540 1_555
O64 Zn5 2.190555 1_555
O65 P4 1.514102 1_455
O65 Zn5 2.054668 1_555
O66 P0 1.593917 1_565
O66 Sn4 2.057746 1_555
O67 S0 1.500936 1_555
O67 Sn4 2.151501 1_555
O68 P1 1.596958 1_555
O68 Sn4 2.092335 1_555
O69 P2 1.596962 1_555
O69 Sn5 2.092335 1_555
O70 S1 1.500927 1_555
O70 Sn5 2.151501 1_555
O71 P3 1.593922 1_565
O71 Sn5 2.057746 1_555
