# generated using pymatgen
data_K2MnO4
_symmetry_space_group_name_H-M   'P 1'
_cell_length_a   5.85076698
_cell_length_b   7.61765282
_cell_length_c   11.68536686
_cell_angle_alpha   90.01002715
_cell_angle_beta   118.43595246
_cell_angle_gamma   89.99555936
_symmetry_Int_Tables_number   1
_chemical_formula_structural   K2MnO4
_chemical_formula_sum   'K8 Mn4 O16'
_cell_volume   457.97109267
_cell_formula_units_Z   4
loop_
 _symmetry_equiv_pos_site_id
 _symmetry_equiv_pos_as_xyz
  1  'x, y, z'
loop_
 _atom_site_type_symbol
 _atom_site_label
 _atom_site_symmetry_multiplicity
 _atom_site_fract_x
 _atom_site_fract_y
 _atom_site_fract_z
 _atom_site_occupancy
  K  K0  1  0.17595376  0.66260306  0.91532446  1
  K  K1  1  0.46164095  0.51172113  0.69741555  1
  K  K2  1  0.17630718  0.83747181  0.41539562  1
  K  K3  1  0.54156327  0.01148290  0.80333272  1
  K  K4  1  0.46160416  0.98821751  0.19742236  1
  K  K5  1  0.82507832  0.16272676  0.58481007  1
  K  K6  1  0.54147975  0.48853312  0.30331515  1
  K  K7  1  0.82485527  0.33730623  0.08478083  1
  Mn  Mn0  1  0.16820112  0.22929173  0.92090981  1
  Mn  Mn1  1  0.16819855  0.27072601  0.42087288  1
  Mn  Mn2  1  0.83268606  0.72882145  0.57945416  1
  Mn  Mn3  1  0.83256839  0.77114661  0.07948269  1
  O  O0  1  0.18036687  0.01453436  0.91768508  1
  O  O1  1  0.32883174  0.31692644  0.85177413  1
  O  O2  1  0.30076081  0.19664530  0.57157789  1
  O  O3  1  0.13758332  0.79180669  0.66006626  1
  O  O4  1  0.18047383  0.48549184  0.41777176  1
  O  O5  1  0.32876471  0.18307594  0.35168148  1
  O  O6  1  0.86237613  0.29223889  0.84246921  1
  O  O7  1  0.70395269  0.69761920  0.92856173  1
  O  O8  1  0.30071019  0.30332877  0.07162756  1
  O  O9  1  0.13744810  0.70812362  0.16020112  1
  O  O10  1  0.67331139  0.81720516  0.64915536  1
  O  O11  1  0.80811834  0.51446398  0.57738657  1
  O  O12  1  0.86235690  0.20781984  0.34243460  1
  O  O13  1  0.70384107  0.80244542  0.42858054  1
  O  O14  1  0.67289072  0.68271173  0.14898459  1
  O  O15  1  0.80807441  0.98551047  0.07752781  1
loop_
_geom_bond_atom_site_label_1
_geom_bond_atom_site_label_2
_geom_bond_distance
_geom_bond_site_symmetry_2
K0 O0 2.681027 1_565
K0 O7 2.850968 1_455
K0 O14 2.893361 1_556
K0 O1 2.986138 1_555
K0 O9 2.995431 1_556
K0 O7 3.030390 1_555
K0 O3 3.046209 1_555
K0 O8 3.176594 1_556
K0 O6 3.250079 1_455
K0 O10 3.316494 1_455
K1 O6 2.716842 1_555
K1 O1 2.719384 1_555
K1 O2 2.736763 1_555
K1 O3 2.747564 1_555
K1 O7 2.768206 1_555
K1 O10 2.816565 1_555
K1 O4 2.881770 1_555
K1 O11 2.963924 1_555
K2 O4 2.681399 1_555
K2 O13 2.853411 1_455
K2 O10 2.894212 1_555
K2 O5 2.985725 1_565
K2 O3 2.993970 1_555
K2 O13 3.027918 1_555
K2 O9 3.044415 1_555
K2 O2 3.174900 1_565
K2 O12 3.250935 1_465
K2 O14 3.320148 1_455
K3 O10 2.711399 1_545
K3 O3 2.724116 1_545
K3 O7 2.727140 1_545
K3 O6 2.736623 1_555
K3 O2 2.770535 1_555
K3 O1 2.820184 1_555
K3 O15 2.824668 1_546
K3 O0 2.990206 1_555
K4 O12 2.717219 1_565
K4 O5 2.718416 1_565
K4 O8 2.737143 1_565
K4 O9 2.748332 1_555
K4 O13 2.768169 1_555
K4 O14 2.816029 1_555
K4 O0 2.882833 1_564
K4 O15 2.962624 1_555
K5 O11 2.681131 1_555
K5 O2 2.871639 1_655
K5 O5 2.888572 1_555
K5 O12 2.962404 1_555
K5 O10 2.986380 1_545
K5 O2 3.008216 1_555
K5 O6 3.075613 1_555
K5 O13 3.183320 1_545
K5 O3 3.250975 1_645
K5 O1 3.322837 1_655
K6 O14 2.711644 1_555
K6 O9 2.723666 1_555
K6 O13 2.727287 1_555
K6 O12 2.736527 1_555
K6 O8 2.769741 1_555
K6 O5 2.820180 1_555
K6 O11 2.823334 1_555
K6 O4 2.990141 1_555
K7 O15 2.681510 1_545
K7 O8 2.872164 1_655
K7 O1 2.886952 1_554
K7 O6 2.962273 1_554
K7 O14 2.985079 1_555
K7 O8 3.007687 1_555
K7 O12 3.075347 1_555
K7 O7 3.184026 1_554
K7 O9 3.250502 1_655
K7 O5 3.323163 1_655
Mn0 O0 1.638696 1_555
Mn0 O1 1.644665 1_555
Mn0 O6 1.646148 1_455
Mn0 O8 1.649334 1_556
Mn1 O4 1.638756 1_555
Mn1 O5 1.644732 1_555
Mn1 O12 1.646124 1_455
Mn1 O2 1.649480 1_555
Mn2 O11 1.638391 1_555
Mn2 O3 1.642995 1_655
Mn2 O10 1.645957 1_555
Mn2 O13 1.650942 1_555
Mn3 O15 1.638427 1_555
Mn3 O9 1.643081 1_655
Mn3 O14 1.645935 1_555
Mn3 O7 1.651064 1_554
