# generated using pymatgen
data_Nb3InSe12
_symmetry_space_group_name_H-M   'P 1'
_cell_length_a   9.22478600
_cell_length_b   9.22478600
_cell_length_c   19.65151300
_cell_angle_alpha   90.00000000
_cell_angle_beta   90.00000000
_cell_angle_gamma   90.00000000
_symmetry_Int_Tables_number   1
_chemical_formula_structural   Nb3InSe12
_chemical_formula_sum   'Nb12 In4 Se48'
_cell_volume   1672.27844933
_cell_formula_units_Z   4
loop_
 _symmetry_equiv_pos_site_id
 _symmetry_equiv_pos_as_xyz
  1  'x, y, z'
loop_
 _atom_site_type_symbol
 _atom_site_label
 _atom_site_symmetry_multiplicity
 _atom_site_fract_x
 _atom_site_fract_y
 _atom_site_fract_z
 _atom_site_occupancy
  Nb  Nb0  1  0.50000000  0.00000000  0.75000000  1
  Nb  Nb1  1  0.00000000  0.50000000  0.75000000  1
  Nb  Nb2  1  0.50000000  0.00000000  0.25000000  1
  Nb  Nb3  1  0.00000000  0.50000000  0.25000000  1
  Nb  Nb4  1  0.00000000  0.50000000  0.59229200  1
  Nb  Nb5  1  0.50000000  0.00000000  0.59229200  1
  Nb  Nb6  1  0.50000000  0.00000000  0.90770800  1
  Nb  Nb7  1  0.00000000  0.50000000  0.90770800  1
  Nb  Nb8  1  0.00000000  0.50000000  0.40770800  1
  Nb  Nb9  1  0.50000000  0.00000000  0.40770800  1
  Nb  Nb10  1  0.50000000  0.00000000  0.09229200  1
  Nb  Nb11  1  0.00000000  0.50000000  0.09229200  1
  In  In0  1  0.50000000  0.50000000  0.66418600  1
  In  In1  1  0.00000000  0.00000000  0.83581400  1
  In  In2  1  0.50000000  0.50000000  0.33581400  1
  In  In3  1  0.00000000  0.00000000  0.16418600  1
  Se  Se0  1  0.93119500  0.27620000  0.67063000  1
  Se  Se1  1  0.06880500  0.72380000  0.67063000  1
  Se  Se2  1  0.77620000  0.43119500  0.82937000  1
  Se  Se3  1  0.27620000  0.06880500  0.67063000  1
  Se  Se4  1  0.72380000  0.93119500  0.67063000  1
  Se  Se5  1  0.56880500  0.77620000  0.82937000  1
  Se  Se6  1  0.43119500  0.22380000  0.82937000  1
  Se  Se7  1  0.22380000  0.56880500  0.82937000  1
  Se  Se8  1  0.06880500  0.72380000  0.32937000  1
  Se  Se9  1  0.93119500  0.27620000  0.32937000  1
  Se  Se10  1  0.22380000  0.56880500  0.17063000  1
  Se  Se11  1  0.72380000  0.93119500  0.32937000  1
  Se  Se12  1  0.27620000  0.06880500  0.32937000  1
  Se  Se13  1  0.43119500  0.22380000  0.17063000  1
  Se  Se14  1  0.56880500  0.77620000  0.17063000  1
  Se  Se15  1  0.19497500  0.61815400  0.50000000  1
  Se  Se16  1  0.77620000  0.43119500  0.17063000  1
  Se  Se17  1  0.70597400  0.11875100  0.16599800  1
  Se  Se18  1  0.29402600  0.88124900  0.16599800  1
  Se  Se19  1  0.61875100  0.20597400  0.33400200  1
  Se  Se20  1  0.38124900  0.79402600  0.33400200  1
  Se  Se21  1  0.88124900  0.70597400  0.16599800  1
  Se  Se22  1  0.79402600  0.61875100  0.33400200  1
  Se  Se23  1  0.20597400  0.38124900  0.33400200  1
  Se  Se24  1  0.88124900  0.70597400  0.83400200  1
  Se  Se25  1  0.29402600  0.88124900  0.83400200  1
  Se  Se26  1  0.70597400  0.11875100  0.83400200  1
  Se  Se27  1  0.38124900  0.79402600  0.66599800  1
  Se  Se28  1  0.61875100  0.20597400  0.66599800  1
  Se  Se29  1  0.11875100  0.29402600  0.83400200  1
  Se  Se30  1  0.20597400  0.38124900  0.66599800  1
  Se  Se31  1  0.79402600  0.61875100  0.66599800  1
  Se  Se32  1  0.21421200  0.45638900  0.00000000  1
  Se  Se33  1  0.54361100  0.21421200  0.00000000  1
  Se  Se34  1  0.45638900  0.78578800  0.00000000  1
  Se  Se35  1  0.71421200  0.04361100  0.50000000  1
  Se  Se36  1  0.28578800  0.95638900  0.50000000  1
  Se  Se37  1  0.78578800  0.54361100  0.00000000  1
  Se  Se38  1  0.95638900  0.71421200  0.50000000  1
  Se  Se39  1  0.04361100  0.28578800  0.50000000  1
  Se  Se40  1  0.88184600  0.30502500  0.00000000  1
  Se  Se41  1  0.69497500  0.88184600  0.00000000  1
  Se  Se42  1  0.30502500  0.11815400  0.00000000  1
  Se  Se43  1  0.38184600  0.19497500  0.50000000  1
  Se  Se44  1  0.61815400  0.80502500  0.50000000  1
  Se  Se45  1  0.11815400  0.69497500  0.00000000  1
  Se  Se46  1  0.80502500  0.38184600  0.50000000  1
  Se  Se47  1  0.11875100  0.29402600  0.16599800  1
loop_
_geom_bond_atom_site_label_1
_geom_bond_atom_site_label_2
_geom_bond_distance
_geom_bond_site_symmetry_2
Nb0 Se3 2.664177 1_555
Nb0 Se4 2.664177 1_545
Nb0 Se5 2.664177 1_545
Nb0 Se6 2.664177 1_555
Nb0 Se27 2.745050 1_545
Nb0 Se26 2.745050 1_555
Nb0 Se28 2.745050 1_555
Nb0 Se25 2.745050 1_545
Nb1 Se7 2.664177 1_555
Nb1 Se1 2.664177 1_555
Nb1 Se0 2.664177 1_455
Nb1 Se2 2.664177 1_455
Nb1 Se29 2.745050 1_555
Nb1 Se24 2.745050 1_455
Nb1 Se30 2.745050 1_555
Nb1 Se31 2.745050 1_455
Nb2 Se14 2.664177 1_545
Nb2 Se11 2.664177 1_545
Nb2 Se12 2.664177 1_555
Nb2 Se13 2.664177 1_555
Nb2 Se17 2.745050 1_555
Nb2 Se18 2.745050 1_545
Nb2 Se19 2.745050 1_555
Nb2 Se20 2.745050 1_545
Nb3 Se8 2.664177 1_555
Nb3 Se9 2.664177 1_455
Nb3 Se16 2.664177 1_455
Nb3 Se10 2.664177 1_555
Nb3 Se47 2.745050 1_555
Nb3 Se21 2.745050 1_455
Nb3 Se23 2.745050 1_555
Nb3 Se22 2.745050 1_455
Nb4 Se30 2.628351 1_555
Nb4 Se31 2.628351 1_455
Nb4 Se1 2.652355 1_555
Nb4 Se0 2.652355 1_455
Nb4 Se38 2.712210 1_455
Nb4 Se39 2.712210 1_555
Nb4 Se46 2.777117 1_455
Nb4 Se15 2.777117 1_555
Nb5 Se27 2.628351 1_545
Nb5 Se28 2.628351 1_555
Nb5 Se4 2.652355 1_545
Nb5 Se3 2.652355 1_555
Nb5 Se35 2.712210 1_555
Nb5 Se36 2.712210 1_545
Nb5 Se43 2.777117 1_555
Nb5 Se44 2.777117 1_545
Nb6 Se26 2.628351 1_555
Nb6 Se25 2.628351 1_545
Nb6 Se6 2.652355 1_555
Nb6 Se5 2.652355 1_545
Nb6 Se34 2.712210 1_546
Nb6 Se33 2.712210 1_556
Nb6 Se42 2.777117 1_556
Nb6 Se41 2.777117 1_546
Nb7 Se29 2.628351 1_555
Nb7 Se24 2.628351 1_455
Nb7 Se7 2.652355 1_555
Nb7 Se2 2.652355 1_455
Nb7 Se37 2.712210 1_456
Nb7 Se32 2.712210 1_556
Nb7 Se45 2.777117 1_556
Nb7 Se40 2.777117 1_456
Nb8 Se23 2.628351 1_555
Nb8 Se22 2.628351 1_455
Nb8 Se9 2.652355 1_455
Nb8 Se8 2.652355 1_555
Nb8 Se38 2.712210 1_455
Nb8 Se39 2.712210 1_555
Nb8 Se15 2.777117 1_555
Nb8 Se46 2.777117 1_455
Nb9 Se20 2.628351 1_545
Nb9 Se19 2.628351 1_555
Nb9 Se11 2.652355 1_545
Nb9 Se12 2.652355 1_555
Nb9 Se35 2.712210 1_555
Nb9 Se36 2.712210 1_545
Nb9 Se43 2.777117 1_555
Nb9 Se44 2.777117 1_545
Nb10 Se17 2.628351 1_555
Nb10 Se18 2.628351 1_545
Nb10 Se13 2.652355 1_555
Nb10 Se14 2.652355 1_545
Nb10 Se34 2.712210 1_545
Nb10 Se33 2.712210 1_555
Nb10 Se41 2.777117 1_545
Nb10 Se42 2.777117 1_555
Nb11 Se47 2.628351 1_555
Nb11 Se21 2.628351 1_455
Nb11 Se16 2.652355 1_455
Nb11 Se10 2.652355 1_555
Nb11 Se37 2.712210 1_455
Nb11 Se32 2.712210 1_555
Nb11 Se45 2.777117 1_555
Nb11 Se40 2.777117 1_455
In0 Se28 2.925406 1_555
In0 Se27 2.925406 1_555
In0 Se30 2.925406 1_555
In0 Se31 2.925406 1_555
In1 Se25 2.925406 1_545
In1 Se26 2.925406 1_455
In1 Se24 2.925406 1_445
In1 Se29 2.925406 1_555
In2 Se22 2.925406 1_555
In2 Se23 2.925406 1_555
In2 Se19 2.925406 1_555
In2 Se20 2.925406 1_555
In3 Se21 2.925406 1_445
In3 Se47 2.925406 1_555
In3 Se18 2.925406 1_545
In3 Se17 2.925406 1_455
Se15 Se38 2.372589 1_455
Se32 Se45 2.372589 1_555
Se33 Se42 2.372589 1_555
Se34 Se41 2.372589 1_555
Se35 Se44 2.372589 1_545
Se36 Se43 2.372589 1_565
Se37 Se40 2.372589 1_555
Se39 Se46 2.372589 1_455
