# generated using pymatgen
data_KMgCl3
_symmetry_space_group_name_H-M   'P 1'
_cell_length_a   6.95587220
_cell_length_b   6.99846994
_cell_length_c   9.91599163
_cell_angle_alpha   90.00000000
_cell_angle_beta   90.00000000
_cell_angle_gamma   90.00000000
_symmetry_Int_Tables_number   1
_chemical_formula_structural   KMgCl3
_chemical_formula_sum   'K4 Mg4 Cl12'
_cell_volume   482.71505868
_cell_formula_units_Z   4
loop_
 _symmetry_equiv_pos_site_id
 _symmetry_equiv_pos_as_xyz
  1  'x, y, z'
loop_
 _atom_site_type_symbol
 _atom_site_label
 _atom_site_symmetry_multiplicity
 _atom_site_fract_x
 _atom_site_fract_y
 _atom_site_fract_z
 _atom_site_occupancy
  K  K0  1  0.00681150  0.96625156  0.75000000  1
  K  K1  1  0.50681150  0.53374844  0.25000000  1
  K  K2  1  0.49318850  0.46625156  0.75000000  1
  K  K3  1  0.99318850  0.03374844  0.25000000  1
  Mg  Mg0  1  0.50000000  -0.00000000  0.50000000  1
  Mg  Mg1  1  0.00000000  0.50000000  0.50000000  1
  Mg  Mg2  1  0.00000000  0.50000000  -0.00000000  1
  Mg  Mg3  1  0.50000000  -0.00000000  -0.00000000  1
  Cl  Cl0  1  0.28738185  0.71307966  0.97396444  1
  Cl  Cl1  1  0.78738185  0.78692034  0.02603556  1
  Cl  Cl2  1  0.21261815  0.21307966  0.52603556  1
  Cl  Cl3  1  0.71261815  0.28692034  0.47396444  1
  Cl  Cl4  1  0.05139074  0.49371921  0.25000000  1
  Cl  Cl5  1  0.55139074  0.00628079  0.75000000  1
  Cl  Cl6  1  0.44860926  0.99371921  0.25000000  1
  Cl  Cl7  1  0.94860926  0.50628079  0.75000000  1
  Cl  Cl8  1  0.71261815  0.28692034  0.02603556  1
  Cl  Cl9  1  0.21261815  0.21307966  0.97396444  1
  Cl  Cl10  1  0.78738185  0.78692034  0.47396444  1
  Cl  Cl11  1  0.28738185  0.71307966  0.52603556  1
loop_
_geom_bond_atom_site_label_1
_geom_bond_atom_site_label_2
_geom_bond_distance
_geom_bond_site_symmetry_2
Cl0 Mg3 2.507191 1_566
Cl0 Mg2 2.507267 1_556
Cl0 K2 3.156808 1_555
Cl0 K1 3.375927 1_556
Cl0 K0 3.446767 1_555
Cl1 Mg2 2.507191 1_655
Cl1 Mg3 2.507267 1_565
Cl1 K3 3.156808 1_565
Cl1 K0 3.375927 1_654
Cl1 K1 3.446767 1_555
Cl2 Mg1 2.507191 1_555
Cl2 Mg0 2.507267 1_555
Cl2 K0 3.156808 1_545
Cl2 K3 3.375927 1_455
Cl2 K2 3.446767 1_555
Cl3 Mg0 2.507191 1_555
Cl3 Mg1 2.507267 1_655
Cl3 K1 3.156808 1_555
Cl3 K2 3.375927 1_555
Cl3 K3 3.446767 1_555
Cl4 Mg1 2.505024 1_555
Cl4 Mg2 2.505024 1_555
Cl4 K1 3.180211 1_555
Cl4 K3 3.244449 1_455
Cl5 Mg0 2.505024 1_555
Cl5 Mg3 2.505024 1_556
Cl5 K0 3.180211 1_645
Cl5 K2 3.244449 1_555
Cl6 Mg0 2.505024 1_565
Cl6 Mg3 2.505024 1_565
Cl6 K3 3.180211 1_465
Cl6 K1 3.244449 1_555
Cl7 Mg1 2.505024 1_655
Cl7 Mg2 2.505024 1_656
Cl7 K2 3.180211 1_555
Cl7 K0 3.244449 1_655
Cl8 Mg3 2.507191 1_555
Cl8 Mg2 2.507267 1_655
Cl8 K1 3.156808 1_555
Cl8 K2 3.375927 1_554
Cl8 K3 3.446767 1_555
Cl9 Mg2 2.507191 1_556
Cl9 Mg3 2.507267 1_556
Cl9 K0 3.156808 1_545
Cl9 K3 3.375927 1_456
Cl9 K2 3.446767 1_555
Cl10 Mg1 2.507191 1_655
Cl10 Mg0 2.507267 1_565
Cl10 K3 3.156808 1_565
Cl10 K0 3.375927 1_655
Cl10 K1 3.446767 1_555
Cl11 Mg0 2.507191 1_565
Cl11 Mg1 2.507267 1_555
Cl11 K2 3.156808 1_555
Cl11 K1 3.375927 1_555
Cl11 K0 3.446767 1_555
