# generated using pymatgen
data_Hg6Sb5Br7
_symmetry_space_group_name_H-M   'P 1'
_cell_length_a   13.17928007
_cell_length_b   13.17928007
_cell_length_c   13.17928007
_cell_angle_alpha   90.00000000
_cell_angle_beta   90.00000000
_cell_angle_gamma   90.00000000
_symmetry_Int_Tables_number   1
_chemical_formula_structural   Hg6Sb5Br7
_chemical_formula_sum   'Hg24 Sb20 Br28'
_cell_volume   2289.15427019
_cell_formula_units_Z   4
loop_
 _symmetry_equiv_pos_site_id
 _symmetry_equiv_pos_as_xyz
  1  'x, y, z'
loop_
 _atom_site_type_symbol
 _atom_site_label
 _atom_site_symmetry_multiplicity
 _atom_site_fract_x
 _atom_site_fract_y
 _atom_site_fract_z
 _atom_site_occupancy
  Hg  Hg0  1  0.68461590  0.30069157  0.05144091  1
  Hg  Hg1  1  0.18461590  0.19930843  0.94855909  1
  Hg  Hg2  1  0.31538410  0.80069157  0.44855909  1
  Hg  Hg3  1  0.19930843  0.94855909  0.18461590  1
  Hg  Hg4  1  0.44855909  0.31538410  0.80069157  1
  Hg  Hg5  1  0.94855909  0.18461590  0.19930843  1
  Hg  Hg6  1  0.30069157  0.05144091  0.68461590  1
  Hg  Hg7  1  0.05144091  0.68461590  0.30069157  1
  Hg  Hg8  1  0.80069157  0.44855909  0.31538410  1
  Hg  Hg9  1  0.69930843  0.55144091  0.81538410  1
  Hg  Hg10  1  0.55144091  0.81538410  0.69930843  1
  Hg  Hg11  1  0.81538410  0.69930843  0.55144091  1
  Hg  Hg12  1  0.31538410  0.69930843  0.94855909  1
  Hg  Hg13  1  0.81538410  0.80069157  0.05144091  1
  Hg  Hg14  1  0.68461590  0.19930843  0.55144091  1
  Hg  Hg15  1  0.80069157  0.05144091  0.81538410  1
  Hg  Hg16  1  0.55144091  0.68461590  0.19930843  1
  Hg  Hg17  1  0.05144091  0.81538410  0.80069157  1
  Hg  Hg18  1  0.69930843  0.94855909  0.31538410  1
  Hg  Hg19  1  0.94855909  0.31538410  0.69930843  1
  Hg  Hg20  1  0.19930843  0.55144091  0.68461590  1
  Hg  Hg21  1  0.30069157  0.44855909  0.18461590  1
  Hg  Hg22  1  0.44855909  0.18461590  0.30069157  1
  Hg  Hg23  1  0.18461590  0.30069157  0.44855909  1
  Sb  Sb0  1  0.26390825  0.23609175  0.76390825  1
  Sb  Sb1  1  0.23609175  0.76390825  0.26390825  1
  Sb  Sb2  1  0.76390825  0.26390825  0.23609175  1
  Sb  Sb3  1  0.73609175  0.73609175  0.73609175  1
  Sb  Sb4  1  0.73609175  0.76390825  0.23609175  1
  Sb  Sb5  1  0.76390825  0.23609175  0.73609175  1
  Sb  Sb6  1  0.23609175  0.73609175  0.76390825  1
  Sb  Sb7  1  0.26390825  0.26390825  0.26390825  1
  Sb  Sb8  1  0.13871154  0.36128846  0.63871154  1
  Sb  Sb9  1  0.36128846  0.63871154  0.13871154  1
  Sb  Sb10  1  0.63871154  0.13871154  0.36128846  1
  Sb  Sb11  1  0.86128846  0.86128846  0.86128846  1
  Sb  Sb12  1  0.86128846  0.63871154  0.36128846  1
  Sb  Sb13  1  0.63871154  0.36128846  0.86128846  1
  Sb  Sb14  1  0.36128846  0.86128846  0.63871154  1
  Sb  Sb15  1  0.13871154  0.13871154  0.13871154  1
  Sb  Sb16  1  0.50000000  0.50000000  0.50000000  1
  Sb  Sb17  1  -0.00000000  -0.00000000  0.50000000  1
  Sb  Sb18  1  -0.00000000  0.50000000  0.00000000  1
  Sb  Sb19  1  0.50000000  -0.00000000  0.00000000  1
  Br  Br0  1  -0.00000000  0.50000000  0.50000000  1
  Br  Br1  1  0.50000000  0.50000000  0.00000000  1
  Br  Br2  1  0.50000000  -0.00000000  0.50000000  1
  Br  Br3  1  -0.00000000  -0.00000000  0.00000000  1
  Br  Br4  1  0.94829598  0.20350691  0.45622903  1
  Br  Br5  1  0.44829598  0.29649309  0.54377097  1
  Br  Br6  1  0.05170402  0.70350691  0.04377097  1
  Br  Br7  1  0.29649309  0.54377097  0.44829598  1
  Br  Br8  1  0.04377097  0.05170402  0.70350691  1
  Br  Br9  1  0.54377097  0.44829598  0.29649309  1
  Br  Br10  1  0.20350691  0.45622903  0.94829598  1
  Br  Br11  1  0.45622903  0.94829598  0.20350691  1
  Br  Br12  1  0.70350691  0.04377097  0.05170402  1
  Br  Br13  1  0.79649309  0.95622903  0.55170402  1
  Br  Br14  1  0.95622903  0.55170402  0.79649309  1
  Br  Br15  1  0.55170402  0.79649309  0.95622903  1
  Br  Br16  1  0.05170402  0.79649309  0.54377097  1
  Br  Br17  1  0.55170402  0.70350691  0.45622903  1
  Br  Br18  1  0.94829598  0.29649309  0.95622903  1
  Br  Br19  1  0.70350691  0.45622903  0.55170402  1
  Br  Br20  1  0.95622903  0.94829598  0.29649309  1
  Br  Br21  1  0.45622903  0.55170402  0.70350691  1
  Br  Br22  1  0.79649309  0.54377097  0.05170402  1
  Br  Br23  1  0.54377097  0.05170402  0.79649309  1
  Br  Br24  1  0.29649309  0.95622903  0.94829598  1
  Br  Br25  1  0.20350691  0.04377097  0.44829598  1
  Br  Br26  1  0.04377097  0.44829598  0.20350691  1
  Br  Br27  1  0.44829598  0.20350691  0.04377097  1
loop_
_geom_bond_atom_site_label_1
_geom_bond_atom_site_label_2
_geom_bond_distance
_geom_bond_site_symmetry_2
Hg0 Sb2 2.692454 1_555
Hg0 Sb13 2.698927 1_554
Hg1 Sb0 2.692454 1_555
Hg1 Sb15 2.698927 1_556
Hg2 Sb1 2.692454 1_555
Hg2 Sb14 2.698927 1_555
Hg3 Sb1 2.692454 1_555
Hg3 Sb15 2.698927 1_565
Hg4 Sb0 2.692454 1_555
Hg4 Sb13 2.698927 1_555
Hg5 Sb2 2.692454 1_555
Hg5 Sb15 2.698927 1_655
Hg6 Sb0 2.692454 1_555
Hg6 Sb14 2.698927 1_545
Hg7 Sb1 2.692454 1_555
Hg7 Sb12 2.698927 1_455
Hg8 Sb2 2.692454 1_555
Hg8 Sb12 2.698927 1_555
Hg9 Sb3 2.692454 1_555
Hg9 Sb13 2.698927 1_555
Hg10 Sb3 2.692454 1_555
Hg10 Sb14 2.698927 1_555
Hg11 Sb3 2.692454 1_555
Hg11 Sb12 2.698927 1_555
Hg12 Sb6 2.692454 1_555
Hg12 Sb9 2.698927 1_556
Hg13 Sb4 2.692454 1_555
Hg13 Sb11 2.698927 1_554
Hg14 Sb5 2.692454 1_555
Hg14 Sb10 2.698927 1_555
Hg15 Sb5 2.692454 1_555
Hg15 Sb11 2.698927 1_545
Hg16 Sb4 2.692454 1_555
Hg16 Sb9 2.698927 1_555
Hg17 Sb6 2.692454 1_555
Hg17 Sb11 2.698927 1_455
Hg18 Sb4 2.692454 1_555
Hg18 Sb10 2.698927 1_565
Hg19 Sb5 2.692454 1_555
Hg19 Sb8 2.698927 1_655
Hg20 Sb6 2.692454 1_555
Hg20 Sb8 2.698927 1_555
Hg21 Sb7 2.692454 1_555
Hg21 Sb9 2.698927 1_555
Hg22 Sb7 2.692454 1_555
Hg22 Sb10 2.698927 1_555
Hg23 Sb7 2.692454 1_555
Hg23 Sb8 2.698927 1_555
Sb0 Sb8 2.857888 1_555
Sb1 Sb9 2.857888 1_555
Sb10 Sb2 2.857888 1_555
Sb11 Sb3 2.857888 1_555
Sb12 Sb4 2.857888 1_555
Sb13 Sb5 2.857888 1_555
Sb14 Sb6 2.857888 1_555
Sb15 Sb7 2.857888 1_555
Br0 Sb12 3.166394 1_455
Br0 Sb8 3.166394 1_555
Br1 Sb13 3.166394 1_554
Br1 Sb9 3.166394 1_555
Br2 Sb14 3.166394 1_545
Br2 Sb10 3.166394 1_555
Br3 Sb11 3.166394 1_444
Br3 Sb15 3.166394 1_555
Br4 Sb17 2.826772 1_655
Br5 Sb16 2.826772 1_555
Br6 Sb18 2.826772 1_555
Br7 Sb16 2.826772 1_555
Br8 Sb17 2.826772 1_555
Br9 Sb16 2.826772 1_555
Br10 Sb18 2.826772 1_556
Br11 Sb19 2.826772 1_565
Br12 Sb19 2.826772 1_555
Br13 Sb17 2.826772 1_665
Br14 Sb18 2.826772 1_656
Br15 Sb19 2.826772 1_566
Br16 Sb17 2.826772 1_565
Br17 Sb16 2.826772 1_555
Br18 Sb18 2.826772 1_656
Br19 Sb16 2.826772 1_555
Br20 Sb17 2.826772 1_665
Br21 Sb16 2.826772 1_555
Br22 Sb18 2.826772 1_655
Br23 Sb19 2.826772 1_556
Br24 Sb19 2.826772 1_566
Br25 Sb17 2.826772 1_555
Br26 Sb18 2.826772 1_555
Br27 Sb19 2.826772 1_555
