# generated using pymatgen
data_K2Sb4S7
_symmetry_space_group_name_H-M   'P 1'
_cell_length_a   6.62572808
_cell_length_b   6.62572808
_cell_length_c   17.81284681
_cell_angle_alpha   86.73137492
_cell_angle_beta   86.73137492
_cell_angle_gamma   75.15584749
_symmetry_Int_Tables_number   1
_chemical_formula_structural   K2Sb4S7
_chemical_formula_sum   'K4 Sb8 S14'
_cell_volume   753.93217818
_cell_formula_units_Z   2
loop_
 _symmetry_equiv_pos_site_id
 _symmetry_equiv_pos_as_xyz
  1  'x, y, z'
loop_
 _atom_site_type_symbol
 _atom_site_label
 _atom_site_symmetry_multiplicity
 _atom_site_fract_x
 _atom_site_fract_y
 _atom_site_fract_z
 _atom_site_occupancy
  K  K0  1  0.21452100  0.44879900  0.20461900  1
  K  K1  1  0.55120100  0.78547900  0.29538100  1
  K  K2  1  0.78547900  0.55120100  0.79538100  1
  K  K3  1  0.44879900  0.21452100  0.70461900  1
  Sb  Sb0  1  0.63678500  0.69387100  0.03331700  1
  Sb  Sb1  1  0.69387100  0.63678500  0.53331700  1
  Sb  Sb2  1  0.36321500  0.30612900  0.96668300  1
  Sb  Sb3  1  0.30612900  0.36321500  0.46668300  1
  Sb  Sb4  1  0.11890400  0.86056400  0.61892000  1
  Sb  Sb5  1  0.13943600  0.88109600  0.88108000  1
  Sb  Sb6  1  0.88109600  0.13943600  0.38108000  1
  Sb  Sb7  1  0.86056400  0.11890400  0.11892000  1
  S  S0  1  0.51233000  0.26466200  0.34386600  1
  S  S1  1  0.52374800  0.02520500  0.12737000  1
  S  S2  1  0.48767000  0.73533800  0.65613400  1
  S  S3  1  0.26466200  0.51233000  0.84386600  1
  S  S4  1  0.99821400  0.00178600  0.75000000  1
  S  S5  1  0.00178600  0.99821400  0.25000000  1
  S  S6  1  0.02520500  0.52374800  0.62737000  1
  S  S7  1  0.47625200  0.97479500  0.87263000  1
  S  S8  1  0.97479500  0.47625200  0.37263000  1
  S  S9  1  0.31884300  0.72935800  0.46099300  1
  S  S10  1  0.72935800  0.31884300  0.96099300  1
  S  S11  1  0.68115700  0.27064200  0.53900700  1
  S  S12  1  0.73533800  0.48767000  0.15613400  1
  S  S13  1  0.27064200  0.68115700  0.03900700  1
loop_
_geom_bond_atom_site_label_1
_geom_bond_atom_site_label_2
_geom_bond_distance
_geom_bond_site_symmetry_2
K0 S0 3.242510 1_555
K0 S12 3.280366 1_455
K0 S13 3.295664 1_555
K0 S8 3.299169 1_455
K0 S1 3.337796 1_555
K0 S12 3.579155 1_555
K0 S5 3.647485 1_545
K0 S5 3.669930 1_555
K1 S12 3.242510 1_555
K1 S0 3.280366 1_565
K1 S9 3.295664 1_555
K1 S1 3.299169 1_565
K1 S8 3.337796 1_555
K1 S0 3.579155 1_555
K1 S5 3.647485 1_655
K1 S5 3.669930 1_555
K2 S2 3.242510 1_555
K2 S3 3.280366 1_655
K2 S10 3.295664 1_555
K2 S6 3.299169 1_655
K2 S7 3.337796 1_555
K2 S3 3.579155 1_555
K2 S4 3.647485 1_565
K2 S4 3.669930 1_555
K3 S3 3.242510 1_555
K3 S2 3.280366 1_545
K3 S11 3.295664 1_555
K3 S7 3.299169 1_545
K3 S6 3.337796 1_555
K3 S2 3.579155 1_555
K3 S4 3.647485 1_455
K3 S4 3.669930 1_555
S0 Sb6 2.486164 1_555
S0 Sb3 2.538514 1_555
S1 Sb7 2.459526 1_555
S1 Sb0 2.760629 1_545
S2 Sb4 2.486164 1_555
S2 Sb1 2.538514 1_555
S3 Sb5 2.486164 1_555
S3 Sb2 2.538514 1_555
S4 Sb4 2.572862 1_645
S4 Sb5 2.572862 1_645
S5 Sb6 2.572862 1_465
S5 Sb7 2.572862 1_465
S6 Sb4 2.459526 1_555
S6 Sb1 2.760629 1_455
S7 Sb5 2.459526 1_555
S7 Sb2 2.760629 1_565
S8 Sb6 2.459526 1_555
S8 Sb3 2.760629 1_655
S9 Sb3 2.445070 1_555
S9 Sb1 2.775668 1_555
S9 Sb4 3.112589 1_555
S10 Sb2 2.445070 1_555
S10 Sb0 2.775668 1_556
S10 Sb7 3.112589 1_556
S11 Sb1 2.445070 1_555
S11 Sb3 2.775668 1_555
S11 Sb6 3.112589 1_555
S12 Sb7 2.486164 1_555
S12 Sb0 2.538514 1_555
S13 Sb0 2.445070 1_555
S13 Sb2 2.775668 1_554
S13 Sb5 3.112589 1_554
