# generated using pymatgen
data_KCeSe4
_symmetry_space_group_name_H-M   'P 1'
_cell_length_a   6.40439589
_cell_length_b   6.40439589
_cell_length_c   8.37883563
_cell_angle_alpha   90.00000000
_cell_angle_beta   90.00000000
_cell_angle_gamma   90.00000000
_symmetry_Int_Tables_number   1
_chemical_formula_structural   KCeSe4
_chemical_formula_sum   'K2 Ce2 Se8'
_cell_volume   343.66872455
_cell_formula_units_Z   2
loop_
 _symmetry_equiv_pos_site_id
 _symmetry_equiv_pos_as_xyz
  1  'x, y, z'
loop_
 _atom_site_type_symbol
 _atom_site_label
 _atom_site_symmetry_multiplicity
 _atom_site_fract_x
 _atom_site_fract_y
 _atom_site_fract_z
 _atom_site_occupancy
  K  K0  1  0.50000000  0.50000000  0.50000000  1
  K  K1  1  -0.00000000  -0.00000000  0.50000000  1
  Ce  Ce0  1  0.50000000  0.50000000  0.00000000  1
  Ce  Ce1  1  -0.00000000  -0.00000000  0.00000000  1
  Se  Se0  1  0.63270613  0.86729387  0.21406593  1
  Se  Se1  1  0.13270613  0.63270613  0.21406593  1
  Se  Se2  1  0.86729387  0.36729387  0.21406593  1
  Se  Se3  1  0.63270613  0.13270613  0.78593407  1
  Se  Se4  1  0.36729387  0.86729387  0.78593407  1
  Se  Se5  1  0.36729387  0.13270613  0.21406593  1
  Se  Se6  1  0.86729387  0.63270613  0.78593407  1
  Se  Se7  1  0.13270613  0.36729387  0.78593407  1
loop_
_geom_bond_atom_site_label_1
_geom_bond_atom_site_label_2
_geom_bond_distance
_geom_bond_site_symmetry_2
K0 Se0 3.463446 1_555
K0 Se1 3.463446 1_555
K0 Se5 3.463446 1_555
K0 Se2 3.463446 1_555
K0 Se6 3.463446 1_555
K0 Se3 3.463446 1_555
K0 Se7 3.463446 1_555
K0 Se4 3.463446 1_555
K1 Se5 3.463446 1_555
K1 Se2 3.463446 1_455
K1 Se1 3.463446 1_545
K1 Se0 3.463446 1_445
K1 Se6 3.463446 1_445
K1 Se4 3.463446 1_545
K1 Se7 3.463446 1_555
K1 Se3 3.463446 1_455
Ce0 Se4 3.077777 1_554
Ce0 Se3 3.077777 1_554
Ce0 Se7 3.077777 1_554
Ce0 Se6 3.077777 1_554
Ce0 Se0 3.077777 1_555
Ce0 Se2 3.077777 1_555
Ce0 Se1 3.077777 1_555
Ce0 Se5 3.077777 1_555
Ce1 Se3 3.077777 1_454
Ce1 Se6 3.077777 1_444
Ce1 Se7 3.077777 1_554
Ce1 Se4 3.077777 1_544
Ce1 Se0 3.077777 1_445
Ce1 Se5 3.077777 1_555
Ce1 Se2 3.077777 1_455
Ce1 Se1 3.077777 1_545
Se0 Se5 2.403888 1_565
Se1 Se2 2.403888 1_455
Se3 Se4 2.403888 1_545
Se6 Se7 2.403888 1_655
