# generated using pymatgen
data_MgMn2Cr2O8
_symmetry_space_group_name_H-M   'P 1'
_cell_length_a   5.26203867
_cell_length_b   5.26178483
_cell_length_c   6.46654300
_cell_angle_alpha   90.00000000
_cell_angle_beta   90.00000000
_cell_angle_gamma   113.43298651
_symmetry_Int_Tables_number   1
_chemical_formula_structural   MgMn2Cr2O8
_chemical_formula_sum   'Mg1 Mn2 Cr2 O8'
_cell_volume   164.27731179
_cell_formula_units_Z   1
loop_
 _symmetry_equiv_pos_site_id
 _symmetry_equiv_pos_as_xyz
  1  'x, y, z'
loop_
 _atom_site_type_symbol
 _atom_site_label
 _atom_site_symmetry_multiplicity
 _atom_site_fract_x
 _atom_site_fract_y
 _atom_site_fract_z
 _atom_site_occupancy
  Mg  Mg0  1  0.34047700  0.65950800  0.75000000  1
  Mn  Mn0  1  0.99959800  0.00040600  0.49467600  1
  Mn  Mn1  1  0.99959800  0.00040600  0.00532400  1
  Cr  Cr0  1  0.65563900  0.34435100  0.75000000  1
  Cr  Cr1  1  0.35866600  0.64127700  0.25000000  1
  O  O0  1  0.75877900  0.24121300  0.53546800  1
  O  O1  1  0.24182300  0.75818300  0.47442100  1
  O  O2  1  0.75877900  0.24121300  0.96453200  1
  O  O3  1  0.24182300  0.75818300  0.02557900  1
  O  O4  1  0.74930700  0.72214200  0.75000000  1
  O  O5  1  0.71746200  0.78732800  0.25000000  1
  O  O6  1  0.21270200  0.28261300  0.25000000  1
  O  O7  1  0.27784500  0.25067900  0.75000000  1
loop_
_geom_bond_atom_site_label_1
_geom_bond_atom_site_label_2
_geom_bond_distance
_geom_bond_site_symmetry_2
Mg0 O3 1.982199 1_556
Mg0 O1 1.982199 1_555
Mg0 O7 2.042614 1_555
Mg0 O4 2.042724 1_555
Mn0 O0 2.134924 1_555
Mn0 O1 2.135000 1_645
Mn0 O5 2.154207 1_545
Mn0 O6 2.154400 1_655
Mn0 O7 2.251753 1_655
Mn0 O4 2.251812 1_545
Mn1 O2 2.134924 1_554
Mn1 O3 2.135000 1_645
Mn1 O5 2.154207 1_545
Mn1 O6 2.154400 1_655
Mn1 O7 2.251753 1_654
Mn1 O4 2.251812 1_544
Cr0 O2 1.657670 1_555
Cr0 O0 1.657670 1_555
Cr0 O4 1.848034 1_555
Cr0 O7 1.848143 1_555
Cr1 O6 1.731656 1_555
Cr1 O5 1.732378 1_555
Cr1 O1 1.778561 1_555
Cr1 O3 1.778561 1_555
