# generated using pymatgen
data_LaSO
_symmetry_space_group_name_H-M   'P 1'
_cell_length_a   5.93867456
_cell_length_b   5.94314119
_cell_length_c   13.24005805
_cell_angle_alpha   90.00000000
_cell_angle_beta   90.00000000
_cell_angle_gamma   90.00000000
_symmetry_Int_Tables_number   1
_chemical_formula_structural   LaSO
_chemical_formula_sum   'La8 S8 O8'
_cell_volume   467.29965846
_cell_formula_units_Z   8
loop_
 _symmetry_equiv_pos_site_id
 _symmetry_equiv_pos_as_xyz
  1  'x, y, z'
loop_
 _atom_site_type_symbol
 _atom_site_label
 _atom_site_symmetry_multiplicity
 _atom_site_fract_x
 _atom_site_fract_y
 _atom_site_fract_z
 _atom_site_occupancy
  La  La0  1  0.49972045  0.24999224  0.08879499  1
  La  La1  1  0.50027955  0.75000776  0.58879499  1
  La  La2  1  0.00027955  0.24999224  0.91120501  1
  La  La3  1  0.00027955  0.24999224  0.58879499  1
  La  La4  1  0.49972045  0.24999224  0.41120501  1
  La  La5  1  0.50027955  0.75000776  0.91120501  1
  La  La6  1  0.99972045  0.75000776  0.41120501  1
  La  La7  1  0.99972045  0.75000776  0.08879499  1
  S  S0  1  0.87568805  0.62558888  0.75000000  1
  S  S1  1  0.12517542  0.87447820  0.75000000  1
  S  S2  1  0.62431195  0.62558888  0.25000000  1
  S  S3  1  0.37482458  0.87447820  0.25000000  1
  S  S4  1  0.62517542  0.12552180  0.75000000  1
  S  S5  1  0.87482458  0.12552180  0.25000000  1
  S  S6  1  0.12431195  0.37441112  0.25000000  1
  S  S7  1  0.37568805  0.37441112  0.75000000  1
  O  O0  1  0.25000000  0.00603378  -0.00000000  1
  O  O1  1  0.75000000  0.99396622  0.50000000  1
  O  O2  1  0.25000000  0.00603378  0.50000000  1
  O  O3  1  0.75000000  0.49387392  -0.00000000  1
  O  O4  1  0.25000000  0.50612608  0.50000000  1
  O  O5  1  0.75000000  0.49387392  0.50000000  1
  O  O6  1  0.75000000  0.99396622  -0.00000000  1
  O  O7  1  0.25000000  0.50612608  -0.00000000  1
loop_
_geom_bond_atom_site_label_1
_geom_bond_atom_site_label_2
_geom_bond_distance
_geom_bond_site_symmetry_2
La0 O0 2.384034 1_555
La0 O3 2.385824 1_555
La0 O7 2.428720 1_555
La0 O6 2.430348 1_545
La0 S5 3.172543 1_555
La0 S6 3.173741 1_555
La0 S2 3.175814 1_555
La0 S3 3.175891 1_545
La1 O1 2.384034 1_555
La1 O4 2.385824 1_555
La1 O5 2.428720 1_555
La1 O2 2.430348 1_565
La1 S1 3.172543 1_555
La1 S0 3.173741 1_555
La1 S7 3.175814 1_555
La1 S4 3.175891 1_565
La2 O0 2.384034 1_556
La2 O3 2.385824 1_456
La2 O7 2.428720 1_556
La2 O6 2.430348 1_446
La2 S4 3.172543 1_455
La2 S7 3.173741 1_555
La2 S0 3.175814 1_455
La2 S1 3.175891 1_545
La3 O2 2.384034 1_555
La3 O5 2.385824 1_455
La3 O4 2.428720 1_555
La3 O1 2.430348 1_445
La3 S4 3.172543 1_455
La3 S7 3.173741 1_555
La3 S0 3.175814 1_455
La3 S1 3.175891 1_545
La4 O2 2.384034 1_555
La4 O5 2.385824 1_555
La4 O4 2.428720 1_555
La4 O1 2.430348 1_545
La4 S5 3.172543 1_555
La4 S6 3.173741 1_555
La4 S2 3.175814 1_555
La4 S3 3.175891 1_545
La5 O6 2.384034 1_556
La5 O7 2.385824 1_556
La5 O3 2.428720 1_556
La5 O0 2.430348 1_566
La5 S1 3.172543 1_555
La5 S0 3.173741 1_555
La5 S7 3.175814 1_555
La5 S4 3.175891 1_565
La6 O1 2.384034 1_555
La6 O4 2.385824 1_655
La6 O5 2.428720 1_555
La6 O2 2.430348 1_665
La6 S3 3.172543 1_655
La6 S2 3.173741 1_555
La6 S6 3.175814 1_655
La6 S5 3.175891 1_565
La7 O6 2.384034 1_555
La7 O7 2.385824 1_655
La7 O3 2.428720 1_555
La7 O0 2.430348 1_665
La7 S3 3.172543 1_655
La7 S2 3.173741 1_555
La7 S6 3.175814 1_655
La7 S5 3.175891 1_565
S0 S1 2.093609 1_655
S2 S3 2.093609 1_555
S4 S7 2.093609 1_555
S5 S6 2.093609 1_655
