# generated using pymatgen
data_MgNb4(SnO6)2
_symmetry_space_group_name_H-M   'P 1'
_cell_length_a   5.12448074
_cell_length_b   5.75621359
_cell_length_c   9.53416804
_cell_angle_alpha   89.99977634
_cell_angle_beta   106.80150927
_cell_angle_gamma   91.73442960
_symmetry_Int_Tables_number   1
_chemical_formula_structural   MgNb4(SnO6)2
_chemical_formula_sum   'Mg1 Nb4 Sn2 O12'
_cell_volume   269.09514632
_cell_formula_units_Z   1
loop_
 _symmetry_equiv_pos_site_id
 _symmetry_equiv_pos_as_xyz
  1  'x, y, z'
loop_
 _atom_site_type_symbol
 _atom_site_label
 _atom_site_symmetry_multiplicity
 _atom_site_fract_x
 _atom_site_fract_y
 _atom_site_fract_z
 _atom_site_occupancy
  Mg  Mg0  1  0.14147479  0.77356092  0.78230741  1
  Nb  Nb0  1  0.39581339  0.16039188  0.36269057  1
  Nb  Nb1  1  0.10220372  0.32977334  0.65358298  1
  Nb  Nb2  1  0.57316167  0.86270580  0.61213059  1
  Nb  Nb3  1  0.89425590  0.64390457  0.33469540  1
  Sn  Sn0  1  0.81168672  0.21893860  0.96527147  1
  Sn  Sn1  1  0.30644820  0.78378652  0.09237034  1
  O  O0  1  0.72909452  0.18012152  0.55250697  1
  O  O1  1  0.14981719  0.34703980  0.43587748  1
  O  O2  1  0.23010361  0.83740708  0.43545060  1
  O  O3  1  0.84116695  0.66777925  0.56689277  1
  O  O4  1  0.59920161  0.41165277  0.29190571  1
  O  O5  1  0.30762228  0.05829905  0.70804210  1
  O  O6  1  0.99870789  0.60920070  0.16278914  1
  O  O7  1  0.83419180  0.92923484  0.82306903  1
  O  O8  1  0.03186966  0.41977423  0.83031907  1
  O  O9  1  0.15836421  0.09803244  0.14521132  1
  O  O10  1  0.62520718  0.89204607  0.28809604  1
  O  O11  1  0.38210872  0.58587461  0.69250502  1
loop_
_geom_bond_atom_site_label_1
_geom_bond_atom_site_label_2
_geom_bond_distance
_geom_bond_site_symmetry_2
Mg0 O7 1.967940 1_455
Mg0 O11 2.027772 1_555
Mg0 O5 2.043688 1_565
Mg0 O8 2.179820 1_555
Mg0 O3 2.252379 1_455
Nb0 O1 1.954693 1_555
Nb0 O4 1.987199 1_555
Nb0 O0 2.099133 1_555
Nb0 O9 2.103275 1_555
Nb0 O10 2.206097 1_545
Nb0 O2 2.214456 1_545
Nb1 O8 1.897378 1_555
Nb1 O5 1.898210 1_555
Nb1 O11 1.983077 1_555
Nb1 O0 2.039987 1_455
Nb1 O1 2.160789 1_555
Nb1 O3 2.403408 1_455
Nb2 O3 1.940856 1_555
Nb2 O2 2.054701 1_555
Nb2 O7 2.096267 1_555
Nb2 O11 2.103396 1_555
Nb2 O0 2.115237 1_565
Nb2 O5 2.183471 1_565
Nb3 O6 1.877851 1_555
Nb3 O4 1.939302 1_555
Nb3 O10 1.975748 1_555
Nb3 O2 2.013359 1_655
Nb3 O1 2.229543 1_655
Nb3 O3 2.311774 1_555
O6 Sn1 2.112771 1_655
O7 Sn0 2.175862 1_565
O8 Sn0 2.241735 1_455
O9 Sn1 2.098996 1_545
O9 Sn0 2.212811 1_454
O10 Sn1 2.171409 1_555
