# generated using pymatgen
data_MgMo2W(Se2S)2
_symmetry_space_group_name_H-M   'P 1'
_cell_length_a   6.53360200
_cell_length_b   6.53357665
_cell_length_c   60.66517800
_cell_angle_alpha   90.00021131
_cell_angle_beta   90.00000378
_cell_angle_gamma   120.00028691
_symmetry_Int_Tables_number   1
_chemical_formula_structural   MgMo2W(Se2S)2
_chemical_formula_sum   'Mg8 Mo16 W8 Se32 S16'
_cell_volume   2242.70689617
_cell_formula_units_Z   8
loop_
 _symmetry_equiv_pos_site_id
 _symmetry_equiv_pos_as_xyz
  1  'x, y, z'
loop_
 _atom_site_type_symbol
 _atom_site_label
 _atom_site_symmetry_multiplicity
 _atom_site_fract_x
 _atom_site_fract_y
 _atom_site_fract_z
 _atom_site_occupancy
  Mg  Mg0_0  1  0.17013050  0.33171800  0.42404900  1
  Mg  Mg0_1  1  0.17013050  0.33171800  0.92404900  1
  Mg  Mg0_2  1  0.17013050  0.83171800  0.42404900  1
  Mg  Mg0_3  1  0.17013050  0.83171800  0.92404900  1
  Mg  Mg0_4  1  0.67013050  0.33171800  0.42404900  1
  Mg  Mg0_5  1  0.67013050  0.33171800  0.92404900  1
  Mg  Mg0_6  1  0.67013050  0.83171800  0.42404900  1
  Mg  Mg0_7  1  0.67013050  0.83171800  0.92404900  1
  Mo  Mo0_0  1  0.16665700  0.33331200  0.05780950  1
  Mo  Mo0_1  1  0.16665700  0.33331200  0.55780950  1
  Mo  Mo0_2  1  0.16665700  0.83331200  0.05780950  1
  Mo  Mo0_3  1  0.16665700  0.83331200  0.55780950  1
  Mo  Mo0_4  1  0.66665700  0.33331200  0.05780950  1
  Mo  Mo0_5  1  0.66665700  0.33331200  0.55780950  1
  Mo  Mo0_6  1  0.66665700  0.83331200  0.05780950  1
  Mo  Mo0_7  1  0.66665700  0.83331200  0.55780950  1
  Mo  Mo1_0  1  0.16665600  0.33330850  0.28916800  1
  Mo  Mo1_1  1  0.16665600  0.33330850  0.78916800  1
  Mo  Mo1_2  1  0.16665600  0.83330850  0.28916800  1
  Mo  Mo1_3  1  0.16665600  0.83330850  0.78916800  1
  Mo  Mo1_4  1  0.66665600  0.33330850  0.28916800  1
  Mo  Mo1_5  1  0.66665600  0.33330850  0.78916800  1
  Mo  Mo1_6  1  0.66665600  0.83330850  0.28916800  1
  Mo  Mo1_7  1  0.66665600  0.83330850  0.78916800  1
  W  W0_0  1  0.33334450  0.16668650  0.17349250  1
  W  W0_1  1  0.33334450  0.16668650  0.67349250  1
  W  W0_2  1  0.33334450  0.66668650  0.17349250  1
  W  W0_3  1  0.33334450  0.66668650  0.67349250  1
  W  W0_4  1  0.83334450  0.16668650  0.17349250  1
  W  W0_5  1  0.83334450  0.16668650  0.67349250  1
  W  W0_6  1  0.83334450  0.66668650  0.17349250  1
  W  W0_7  1  0.83334450  0.66668650  0.67349250  1
  Se  Se0_0  1  0.33332400  0.16664650  0.02988850  1
  Se  Se0_1  1  0.33332400  0.16664650  0.52988850  1
  Se  Se0_2  1  0.33332400  0.66664650  0.02988850  1
  Se  Se0_3  1  0.33332400  0.66664650  0.52988850  1
  Se  Se0_4  1  0.83332400  0.16664650  0.02988850  1
  Se  Se0_5  1  0.83332400  0.16664650  0.52988850  1
  Se  Se0_6  1  0.83332400  0.66664650  0.02988850  1
  Se  Se0_7  1  0.83332400  0.66664650  0.52988850  1
  Se  Se1_0  1  0.33332400  0.16664600  0.26122650  1
  Se  Se1_1  1  0.33332400  0.16664600  0.76122650  1
  Se  Se1_2  1  0.33332400  0.66664600  0.26122650  1
  Se  Se1_3  1  0.33332400  0.66664600  0.76122650  1
  Se  Se1_4  1  0.83332400  0.16664600  0.26122650  1
  Se  Se1_5  1  0.83332400  0.16664600  0.76122650  1
  Se  Se1_6  1  0.83332400  0.66664600  0.26122650  1
  Se  Se1_7  1  0.83332400  0.66664600  0.76122650  1
  Se  Se2_0  1  0.33332450  0.16664750  0.08573600  1
  Se  Se2_1  1  0.33332450  0.16664750  0.58573600  1
  Se  Se2_2  1  0.33332450  0.66664750  0.08573600  1
  Se  Se2_3  1  0.33332450  0.66664750  0.58573600  1
  Se  Se2_4  1  0.83332450  0.16664750  0.08573600  1
  Se  Se2_5  1  0.83332450  0.16664750  0.58573600  1
  Se  Se2_6  1  0.83332450  0.66664750  0.08573600  1
  Se  Se2_7  1  0.83332450  0.66664750  0.58573600  1
  Se  Se3_0  1  0.33332450  0.16664700  0.31711250  1
  Se  Se3_1  1  0.33332450  0.16664700  0.81711250  1
  Se  Se3_2  1  0.33332450  0.66664700  0.31711250  1
  Se  Se3_3  1  0.33332450  0.66664700  0.81711250  1
  Se  Se3_4  1  0.83332450  0.16664700  0.31711250  1
  Se  Se3_5  1  0.83332450  0.16664700  0.81711250  1
  Se  Se3_6  1  0.83332450  0.66664700  0.31711250  1
  Se  Se3_7  1  0.83332450  0.66664700  0.81711250  1
  S  S0_0  1  0.16667700  0.33335150  0.19890050  1
  S  S0_1  1  0.16667700  0.33335150  0.69890050  1
  S  S0_2  1  0.16667700  0.83335150  0.19890050  1
  S  S0_3  1  0.16667700  0.83335150  0.69890050  1
  S  S0_4  1  0.66667700  0.33335150  0.19890050  1
  S  S0_5  1  0.66667700  0.33335150  0.69890050  1
  S  S0_6  1  0.66667700  0.83335150  0.19890050  1
  S  S0_7  1  0.66667700  0.83335150  0.69890050  1
  S  S1_0  1  0.16667650  0.33335000  0.14808850  1
  S  S1_1  1  0.16667650  0.33335000  0.64808850  1
  S  S1_2  1  0.16667650  0.83335000  0.14808850  1
  S  S1_3  1  0.16667650  0.83335000  0.64808850  1
  S  S1_4  1  0.66667650  0.33335000  0.14808850  1
  S  S1_5  1  0.66667650  0.33335000  0.64808850  1
  S  S1_6  1  0.66667650  0.83335000  0.14808850  1
  S  S1_7  1  0.66667650  0.83335000  0.64808850  1
loop_
_geom_bond_atom_site_label_1
_geom_bond_atom_site_label_2
_geom_bond_distance
_geom_bond_site_symmetry_2
Mg0_0 Mg0_6 3.266780 1_555
Mg0_0 Mg0_6 3.266780 1_445
Mg0_0 Mg0_2 3.266788 1_555
Mg0_0 Mg0_2 3.266788 1_545
Mg0_0 Mg0_4 3.266801 1_555
Mg0_0 Mg0_4 3.266801 1_455
Mg0_1 Mg0_7 3.266780 1_445
Mg0_1 Mg0_7 3.266780 1_555
Mg0_1 Mg0_3 3.266788 1_545
Mg0_1 Mg0_3 3.266788 1_555
Mg0_1 Mg0_5 3.266801 1_555
Mg0_1 Mg0_5 3.266801 1_455
Mg0_2 Mg0_4 3.266780 1_455
Mg0_2 Mg0_4 3.266780 1_565
Mg0_2 Mg0_6 3.266801 1_455
Mg0_2 Mg0_6 3.266801 1_555
Mg0_3 Mg0_5 3.266780 1_565
Mg0_3 Mg0_5 3.266780 1_455
Mg0_3 Mg0_7 3.266801 1_555
Mg0_3 Mg0_7 3.266801 1_455
Mg0_4 Mg0_6 3.266788 1_555
Mg0_4 Mg0_6 3.266788 1_545
Mg0_5 Mg0_7 3.266788 1_545
Mg0_5 Mg0_7 3.266788 1_555
Mo0_0 Se0_4 2.535026 1_455
Mo0_0 Se0_0 2.535027 1_555
Mo0_0 Se0_2 2.535035 1_555
Mo0_0 Se2_2 2.535251 1_555
Mo0_0 Se2_4 2.535252 1_455
Mo0_0 Se2_0 2.535253 1_555
Mo0_1 Se0_5 2.535026 1_455
Mo0_1 Se0_1 2.535027 1_555
Mo0_1 Se0_3 2.535035 1_555
Mo0_1 Se2_3 2.535251 1_555
Mo0_1 Se2_5 2.535252 1_455
Mo0_1 Se2_1 2.535253 1_555
Mo0_2 Se0_6 2.535026 1_455
Mo0_2 Se0_2 2.535027 1_555
Mo0_2 Se0_0 2.535035 1_565
Mo0_2 Se2_0 2.535251 1_565
Mo0_2 Se2_6 2.535252 1_455
Mo0_2 Se2_2 2.535253 1_555
Mo0_3 Se0_7 2.535026 1_455
Mo0_3 Se0_3 2.535027 1_555
Mo0_3 Se0_1 2.535035 1_565
Mo0_3 Se2_1 2.535251 1_565
Mo0_3 Se2_7 2.535252 1_455
Mo0_3 Se2_3 2.535253 1_555
Mo0_4 Se0_0 2.535026 1_555
Mo0_4 Se0_4 2.535027 1_555
Mo0_4 Se0_6 2.535035 1_555
Mo0_4 Se2_6 2.535251 1_555
Mo0_4 Se2_0 2.535252 1_555
Mo0_4 Se2_4 2.535253 1_555
Mo0_5 Se0_1 2.535026 1_555
Mo0_5 Se0_5 2.535027 1_555
Mo0_5 Se0_7 2.535035 1_555
Mo0_5 Se2_7 2.535251 1_555
Mo0_5 Se2_1 2.535252 1_555
Mo0_5 Se2_5 2.535253 1_555
Mo0_6 Se0_2 2.535026 1_555
Mo0_6 Se0_6 2.535027 1_555
Mo0_6 Se0_4 2.535035 1_565
Mo0_6 Se2_4 2.535251 1_565
Mo0_6 Se2_2 2.535252 1_555
Mo0_6 Se2_6 2.535253 1_555
Mo0_7 Se0_3 2.535026 1_555
Mo0_7 Se0_7 2.535027 1_555
Mo0_7 Se0_5 2.535035 1_565
Mo0_7 Se2_5 2.535251 1_565
Mo0_7 Se2_3 2.535252 1_555
Mo0_7 Se2_7 2.535253 1_555
Mo1_0 Se1_0 2.535850 1_555
Mo1_0 Se1_4 2.535853 1_455
Mo1_0 Se1_2 2.535879 1_555
Mo1_0 Se3_0 2.535975 1_555
Mo1_0 Se3_4 2.535978 1_455
Mo1_0 Se3_2 2.535994 1_555
Mo1_1 Se1_1 2.535850 1_555
Mo1_1 Se1_5 2.535853 1_455
Mo1_1 Se1_3 2.535879 1_555
Mo1_1 Se3_1 2.535975 1_555
Mo1_1 Se3_5 2.535978 1_455
Mo1_1 Se3_3 2.535994 1_555
Mo1_2 Se1_2 2.535850 1_555
Mo1_2 Se1_6 2.535853 1_455
Mo1_2 Se1_0 2.535879 1_565
Mo1_2 Se3_2 2.535975 1_555
Mo1_2 Se3_6 2.535978 1_455
Mo1_2 Se3_0 2.535994 1_565
Mo1_3 Se1_3 2.535850 1_555
Mo1_3 Se1_7 2.535853 1_455
Mo1_3 Se1_1 2.535879 1_565
Mo1_3 Se3_3 2.535975 1_555
Mo1_3 Se3_7 2.535978 1_455
Mo1_3 Se3_1 2.535994 1_565
Mo1_4 Se1_4 2.535850 1_555
Mo1_4 Se1_0 2.535853 1_555
Mo1_4 Se1_6 2.535879 1_555
Mo1_4 Se3_4 2.535975 1_555
Mo1_4 Se3_0 2.535978 1_555
Mo1_4 Se3_6 2.535994 1_555
Mo1_5 Se1_5 2.535850 1_555
Mo1_5 Se1_1 2.535853 1_555
Mo1_5 Se1_7 2.535879 1_555
Mo1_5 Se3_5 2.535975 1_555
Mo1_5 Se3_1 2.535978 1_555
Mo1_5 Se3_7 2.535994 1_555
Mo1_6 Se1_6 2.535850 1_555
Mo1_6 Se1_2 2.535853 1_555
Mo1_6 Se1_4 2.535879 1_565
Mo1_6 Se3_6 2.535975 1_555
Mo1_6 Se3_2 2.535978 1_555
Mo1_6 Se3_4 2.535994 1_565
Mo1_7 Se1_7 2.535850 1_555
Mo1_7 Se1_3 2.535853 1_555
Mo1_7 Se1_5 2.535879 1_565
Mo1_7 Se3_7 2.535975 1_555
Mo1_7 Se3_3 2.535978 1_555
Mo1_7 Se3_5 2.535994 1_565
S0_0 W0_4 2.435802 1_455
S0_0 W0_0 2.435806 1_555
S0_0 W0_2 2.435815 1_555
S0_1 W0_5 2.435802 1_455
S0_1 W0_1 2.435806 1_555
S0_1 W0_3 2.435815 1_555
S0_2 W0_6 2.435802 1_455
S0_2 W0_2 2.435806 1_555
S0_2 W0_0 2.435815 1_565
S0_3 W0_7 2.435802 1_455
S0_3 W0_3 2.435806 1_555
S0_3 W0_1 2.435815 1_565
S0_4 W0_0 2.435802 1_555
S0_4 W0_4 2.435806 1_555
S0_4 W0_6 2.435815 1_555
S0_5 W0_1 2.435802 1_555
S0_5 W0_5 2.435806 1_555
S0_5 W0_7 2.435815 1_555
S0_6 W0_2 2.435802 1_555
S0_6 W0_6 2.435806 1_555
S0_6 W0_4 2.435815 1_565
S0_7 W0_3 2.435802 1_555
S0_7 W0_7 2.435806 1_555
S0_7 W0_5 2.435815 1_565
S1_0 W0_4 2.435652 1_455
S1_0 W0_0 2.435653 1_555
S1_0 W0_2 2.435658 1_555
S1_1 W0_5 2.435652 1_455
S1_1 W0_1 2.435653 1_555
S1_1 W0_3 2.435658 1_555
S1_2 W0_6 2.435652 1_455
S1_2 W0_2 2.435653 1_555
S1_2 W0_0 2.435658 1_565
S1_3 W0_7 2.435652 1_455
S1_3 W0_3 2.435653 1_555
S1_3 W0_1 2.435658 1_565
S1_4 W0_0 2.435652 1_555
S1_4 W0_4 2.435653 1_555
S1_4 W0_6 2.435658 1_555
S1_5 W0_1 2.435652 1_555
S1_5 W0_5 2.435653 1_555
S1_5 W0_7 2.435658 1_555
S1_6 W0_2 2.435652 1_555
S1_6 W0_6 2.435653 1_555
S1_6 W0_4 2.435658 1_565
S1_7 W0_3 2.435652 1_555
S1_7 W0_7 2.435653 1_555
S1_7 W0_5 2.435658 1_565
