# generated using pymatgen
data_Ba3MgNb2O8
_symmetry_space_group_name_H-M   'P 1'
_cell_length_a   8.45919061
_cell_length_b   8.45919152
_cell_length_c   8.45919124
_cell_angle_alpha   41.87436876
_cell_angle_beta   41.87436135
_cell_angle_gamma   41.87436454
_symmetry_Int_Tables_number   1
_chemical_formula_structural   Ba3MgNb2O8
_chemical_formula_sum   'Ba3 Mg1 Nb2 O8'
_cell_volume   243.90551827
_cell_formula_units_Z   1
loop_
 _symmetry_equiv_pos_site_id
 _symmetry_equiv_pos_as_xyz
  1  'x, y, z'
loop_
 _atom_site_type_symbol
 _atom_site_label
 _atom_site_symmetry_multiplicity
 _atom_site_fract_x
 _atom_site_fract_y
 _atom_site_fract_z
 _atom_site_occupancy
  Ba  Ba0  1  0.00000000  0.00000000  0.00000000  1
  Ba  Ba1  1  0.80174100  0.80174100  0.80174100  1
  Ba  Ba2  1  0.19825900  0.19825900  0.19825900  1
  Mg  Mg0  1  0.50000000  0.50000000  0.50000000  1
  Nb  Nb0  1  0.38851200  0.38851200  0.38851200  1
  Nb  Nb1  1  0.61148800  0.61148800  0.61148800  1
  O  O0  1  0.28461300  0.28461300  0.74537800  1
  O  O1  1  0.74537800  0.28461300  0.28461300  1
  O  O2  1  0.28461300  0.74537800  0.28461300  1
  O  O3  1  0.71538700  0.71538700  0.25462200  1
  O  O4  1  0.25462200  0.71538700  0.71538700  1
  O  O5  1  0.71538700  0.25462200  0.71538700  1
  O  O6  1  0.30771000  0.30771000  0.30771000  1
  O  O7  1  0.69229000  0.69229000  0.69229000  1
loop_
_geom_bond_atom_site_label_1
_geom_bond_atom_site_label_2
_geom_bond_distance
_geom_bond_site_symmetry_2
Ba0 O0 3.069081 1_554
Ba0 O3 3.069081 1_445
Ba0 O5 3.069081 1_454
Ba0 O2 3.069081 1_545
Ba0 O4 3.069081 1_544
Ba0 O1 3.069081 1_455
Ba1 O7 2.530119 1_555
Ba1 O4 2.864148 1_655
Ba1 O3 2.864148 1_556
Ba1 O5 2.864148 1_565
Ba1 O2 3.105463 1_556
Ba1 O2 3.105463 1_655
Ba1 O0 3.105464 1_565
Ba1 O0 3.105464 1_655
Ba1 O1 3.105464 1_565
Ba1 O1 3.105464 1_556
Ba2 O6 2.530119 1_555
Ba2 O1 2.864148 1_455
Ba2 O0 2.864148 1_554
Ba2 O2 2.864148 1_545
Ba2 O5 3.105463 1_554
Ba2 O5 3.105463 1_455
Ba2 O3 3.105464 1_545
Ba2 O3 3.105464 1_455
Ba2 O4 3.105464 1_545
Ba2 O4 3.105464 1_554
Mg0 O4 2.151139 1_555
Mg0 O1 2.151139 1_555
Mg0 O0 2.151139 1_555
Mg0 O3 2.151139 1_555
Mg0 O5 2.151139 1_555
Mg0 O2 2.151139 1_555
Nb0 O6 1.867855 1_555
Nb0 O1 1.976353 1_555
Nb0 O0 1.976354 1_555
Nb0 O2 1.976354 1_555
Nb1 O7 1.867855 1_555
Nb1 O4 1.976353 1_555
Nb1 O3 1.976354 1_555
Nb1 O5 1.976354 1_555
