# generated using pymatgen
data_K3GeH3S3O2
_symmetry_space_group_name_H-M   'P 1'
_cell_length_a   6.80299100
_cell_length_b   7.54871718
_cell_length_c   10.15410541
_cell_angle_alpha   87.93254206
_cell_angle_beta   98.18621985
_cell_angle_gamma   110.37901294
_symmetry_Int_Tables_number   1
_chemical_formula_structural   K3GeH3S3O2
_chemical_formula_sum   'K6 Ge2 H6 S6 O4'
_cell_volume   483.78249086
_cell_formula_units_Z   2
loop_
 _symmetry_equiv_pos_site_id
 _symmetry_equiv_pos_as_xyz
  1  'x, y, z'
loop_
 _atom_site_type_symbol
 _atom_site_label
 _atom_site_symmetry_multiplicity
 _atom_site_fract_x
 _atom_site_fract_y
 _atom_site_fract_z
 _atom_site_occupancy
  K  K0  1  0.23564800  0.36001500  0.05249900  1
  K  K1  1  0.76435200  0.63998500  0.94750100  1
  K  K2  1  0.74896500  0.76172000  0.55767300  1
  K  K3  1  0.25103500  0.23828000  0.44232700  1
  K  K4  1  0.60559700  0.12242800  0.77394100  1
  K  K5  1  0.39440300  0.87757200  0.22605900  1
  Ge  Ge0  1  0.80530700  0.38461300  0.27612900  1
  Ge  Ge1  1  0.19469300  0.61538700  0.72387100  1
  H  H0  1  0.06446700  0.94048100  0.82788400  1
  H  H1  1  0.93553300  0.05951900  0.17211600  1
  H  H2  1  0.05959600  0.12905600  0.76371400  1
  H  H3  1  0.94040400  0.87094400  0.23628600  1
  H  H4  1  0.85995900  0.41625800  0.62325500  1
  H  H5  1  0.14004100  0.58374200  0.37674500  1
  S  S0  1  0.73540100  0.22226000  0.08808700  1
  S  S1  1  0.26459900  0.77774000  0.91191300  1
  S  S2  1  0.27028500  0.79809800  0.55010400  1
  S  S3  1  0.66021900  0.60617700  0.25628200  1
  S  S4  1  0.33978100  0.39382300  0.74371800  1
  S  S5  1  0.72971500  0.20190200  0.44989600  1
  O  O0  1  0.03795600  0.99622500  0.21038400  1
  O  O1  1  0.09822400  0.50412200  0.29407500  1
  O  O2  1  0.90177600  0.49587800  0.70592500  1
  O  O3  1  0.96204400  0.00377500  0.78961600  1
loop_
_geom_bond_atom_site_label_1
_geom_bond_atom_site_label_2
_geom_bond_distance
_geom_bond_site_symmetry_2
K0 O1 3.102975 1_555
K0 O0 3.105546 1_545
K0 S0 3.263734 1_455
K0 S4 3.293415 1_554
K0 S3 3.303730 1_555
K0 S1 3.367876 1_554
K1 O2 3.102975 1_555
K1 O3 3.105546 1_565
K1 S1 3.263734 1_655
K1 S3 3.293415 1_556
K1 S4 3.303730 1_555
K1 S0 3.367876 1_556
K2 O2 2.857140 1_555
K2 O3 2.912105 1_565
K2 S3 3.216876 1_555
K2 S2 3.351988 1_555
K2 S2 3.472326 1_655
K2 S5 3.500821 1_565
K3 O1 2.857140 1_555
K3 O0 2.912105 1_545
K3 S4 3.216876 1_555
K3 S5 3.351988 1_555
K3 S5 3.472326 1_455
K3 S2 3.500821 1_545
K4 O3 2.846085 1_555
K4 O2 2.963748 1_555
K4 S4 3.152487 1_555
K4 S0 3.229671 1_556
K4 S1 3.251630 1_545
K4 S2 3.376225 1_545
K5 O0 2.846085 1_555
K5 O1 2.963748 1_555
K5 S3 3.152487 1_555
K5 S1 3.229671 1_554
K5 S0 3.251630 1_565
K5 S5 3.376225 1_565
Ge0 O1 1.863971 1_655
Ge0 S5 2.206548 1_555
Ge0 S0 2.208683 1_555
Ge0 S3 2.209288 1_555
Ge1 O2 1.863971 1_455
Ge1 S2 2.206548 1_555
Ge1 S1 2.208683 1_555
Ge1 S4 2.209288 1_555
H0 O3 1.003065 1_465
H0 K1 2.840971 1_455
H1 O0 1.003065 1_645
H1 K0 2.840971 1_655
H2 O3 0.999311 1_455
H3 O0 0.999311 1_655
H4 O2 0.998068 1_555
H4 K4 2.844512 1_555
H4 K2 2.986156 1_555
H5 O1 0.998068 1_555
H5 K5 2.844512 1_555
H5 K3 2.986156 1_555
