# generated using pymatgen
data_MgTi5NbO12
_symmetry_space_group_name_H-M   'P 1'
_cell_length_a   7.40712902
_cell_length_b   5.79207233
_cell_length_c   5.62244823
_cell_angle_alpha   74.20542978
_cell_angle_beta   71.05348327
_cell_angle_gamma   68.76737502
_symmetry_Int_Tables_number   1
_chemical_formula_structural   MgTi5NbO12
_chemical_formula_sum   'Mg1 Ti5 Nb1 O12'
_cell_volume   209.36642437
_cell_formula_units_Z   1
loop_
 _symmetry_equiv_pos_site_id
 _symmetry_equiv_pos_as_xyz
  1  'x, y, z'
loop_
 _atom_site_type_symbol
 _atom_site_label
 _atom_site_symmetry_multiplicity
 _atom_site_fract_x
 _atom_site_fract_y
 _atom_site_fract_z
 _atom_site_occupancy
  Mg  Mg0  1  0.50600200  0.49419300  0.99454000  1
  Ti  Ti0  1  0.85957800  0.65748800  0.65398600  1
  Ti  Ti1  1  0.69197400  0.30758900  0.37828600  1
  Ti  Ti2  1  0.31546600  0.68112600  0.61629900  1
  Ti  Ti3  1  0.15024400  0.33392800  0.33483400  1
  Ti  Ti4  1  0.00425500  0.99604100  0.99553000  1
  Nb  Nb0  1  0.50327100  0.99438600  0.99772200  1
  O  O0  1  0.66850100  0.02092000  0.62671100  1
  O  O1  1  0.31919200  0.35385300  0.95152200  1
  O  O2  1  0.97573500  0.21129200  0.23786800  1
  O  O3  1  0.31206600  0.85648800  0.90589300  1
  O  O4  1  0.62371200  0.54241400  0.60343700  1
  O  O5  1  0.69716400  0.13349700  0.08559900  1
  O  O6  1  0.03116000  0.78270200  0.75364800  1
  O  O7  1  0.38659300  0.44827400  0.38645600  1
  O  O8  1  0.01352700  0.30019200  0.69823100  1
  O  O9  1  0.69045400  0.63852800  0.03704200  1
  O  O10  1  0.33858300  0.96996100  0.36673700  1
  O  O11  1  0.99585700  0.69379500  0.29232500  1
loop_
_geom_bond_atom_site_label_1
_geom_bond_atom_site_label_2
_geom_bond_distance
_geom_bond_site_symmetry_2
Mg0 O9 1.941837 1_556
Mg0 O1 1.942416 1_555
Mg0 O4 2.066555 1_555
Mg0 O7 2.072273 1_556
Mg0 O5 2.092261 1_556
Mg0 O3 2.104189 1_555
Nb0 O9 2.025009 1_556
Nb0 O10 2.033333 1_556
Nb0 O1 2.034923 1_565
Nb0 O0 2.043705 1_565
Nb0 O3 2.104528 1_555
Nb0 O5 2.114631 1_566
O0 Ti1 1.878031 1_555
O0 Ti0 2.065206 1_545
O1 Ti3 2.107583 1_556
O1 Ti2 2.279769 1_555
O2 Ti1 1.914473 1_555
O2 Ti3 1.950920 1_655
O2 Ti4 2.000645 1_644
O3 Ti4 2.060696 1_555
O3 Ti2 2.130391 1_555
O4 Ti1 1.931744 1_555
O4 Ti2 2.111763 1_555
O4 Ti0 2.201440 1_555
O5 Ti4 2.055275 1_644
O5 Ti1 2.135527 1_555
O6 Ti2 1.916027 1_555
O6 Ti0 1.951037 1_455
O6 Ti4 1.994136 1_555
O7 Ti2 1.938698 1_555
O7 Ti1 2.097756 1_555
O7 Ti3 2.205025 1_555
O8 Ti3 1.954654 1_555
O8 Ti0 1.959503 1_455
O8 Ti4 2.076609 1_545
O9 Ti0 2.106831 1_554
O9 Ti1 2.313400 1_555
O10 Ti2 1.889580 1_555
O10 Ti3 2.061314 1_565
O11 Ti0 1.945777 1_555
O11 Ti3 1.972129 1_655
O11 Ti4 2.067453 1_654
