# generated using pymatgen
data_Na3YTiSi(PO6)2
_symmetry_space_group_name_H-M   'P 1'
_cell_length_a   15.81885465
_cell_length_b   9.21665649
_cell_length_c   9.18576412
_cell_angle_alpha   90.00000000
_cell_angle_beta   125.84795429
_cell_angle_gamma   90.00000000
_symmetry_Int_Tables_number   1
_chemical_formula_structural   Na3YTiSi(PO6)2
_chemical_formula_sum   'Na12 Y4 Ti4 Si4 P8 O48'
_cell_volume   1085.56633752
_cell_formula_units_Z   4
loop_
 _symmetry_equiv_pos_site_id
 _symmetry_equiv_pos_as_xyz
  1  'x, y, z'
loop_
 _atom_site_type_symbol
 _atom_site_label
 _atom_site_symmetry_multiplicity
 _atom_site_fract_x
 _atom_site_fract_y
 _atom_site_fract_z
 _atom_site_occupancy
  Na  Na0  1  0.25662059  0.72753431  0.00926677  1
  Na  Na1  1  0.75662059  0.77246569  0.50926677  1
  Na  Na2  1  0.75662059  0.22753431  0.00926677  1
  Na  Na3  1  0.25662059  0.27246569  0.50926677  1
  Na  Na4  1  0.50384207  0.08979351  0.75060913  1
  Na  Na5  1  0.50384207  0.91020649  0.25060913  1
  Na  Na6  1  0.00384207  0.58979351  0.75060913  1
  Na  Na7  1  0.00384207  0.41020649  0.25060913  1
  Na  Na8  1  0.19049702  0.92804922  0.30454911  1
  Na  Na9  1  0.19049702  0.07195078  0.80454911  1
  Na  Na10  1  0.69049702  0.42804922  0.30454911  1
  Na  Na11  1  0.69049702  0.57195078  0.80454911  1
  Y  Y0  1  0.10577142  0.74549775  0.56647867  1
  Y  Y1  1  0.10577142  0.25450225  0.06647867  1
  Y  Y2  1  0.60577142  0.24549775  0.56647867  1
  Y  Y3  1  0.60577142  0.75450225  0.06647867  1
  Ti  Ti0  1  0.89919359  0.76281334  0.94128464  1
  Ti  Ti1  1  0.89919359  0.23718666  0.44128464  1
  Ti  Ti2  1  0.39919359  0.26281334  0.94128464  1
  Ti  Ti3  1  0.39919359  0.73718666  0.44128464  1
  Si  Si0  1  0.65074933  0.88424677  0.74481073  1
  Si  Si1  1  0.65074933  0.11575323  0.24481073  1
  Si  Si2  1  0.15074933  0.38424677  0.74481073  1
  Si  Si3  1  0.15074933  0.61575323  0.24481073  1
  P  P0  1  0.99096851  0.95804972  0.75182877  1
  P  P1  1  0.99096851  0.04195028  0.25182877  1
  P  P2  1  0.49096851  0.45804972  0.75182877  1
  P  P3  1  0.49096851  0.54195028  0.25182877  1
  P  P4  1  0.35348674  0.91537941  0.74996645  1
  P  P5  1  0.35348674  0.08462059  0.24996645  1
  P  P6  1  0.85348674  0.41537941  0.74996645  1
  P  P7  1  0.85348674  0.58462059  0.24996645  1
  O  O0  1  0.15656647  0.55991567  0.75212862  1
  O  O1  1  0.85253070  0.58618271  0.74464573  1
  O  O2  1  0.85253070  0.41381729  0.24464573  1
  O  O3  1  0.15656647  0.44008433  0.25212862  1
  O  O4  1  0.65656647  0.05991567  0.75212862  1
  O  O5  1  0.35253070  0.08618271  0.74464573  1
  O  O6  1  0.35253070  0.91381729  0.24464573  1
  O  O7  1  0.65656647  0.94008433  0.25212862  1
  O  O8  1  0.43071153  0.56745098  0.58607360  1
  O  O9  1  0.55786776  0.54178326  0.92544223  1
  O  O10  1  0.55786776  0.45821674  0.42544223  1
  O  O11  1  0.43071153  0.43254902  0.08607360  1
  O  O12  1  0.93071153  0.06745098  0.58607360  1
  O  O13  1  0.05786776  0.04178326  0.92544223  1
  O  O14  1  0.05786776  0.95821674  0.42544223  1
  O  O15  1  0.93071153  0.93254902  0.08607360  1
  O  O16  1  0.25832434  0.86706556  0.74604786  1
  O  O17  1  0.74924583  0.80204038  0.76106715  1
  O  O18  1  0.74924583  0.19795962  0.26106715  1
  O  O19  1  0.25832434  0.13293444  0.24604786  1
  O  O20  1  0.75832434  0.36706556  0.74604786  1
  O  O21  1  0.24924583  0.30204038  0.76106715  1
  O  O22  1  0.24924583  0.69795962  0.26106715  1
  O  O23  1  0.75832434  0.63293444  0.24604786  1
  O  O24  1  0.35282082  0.86434209  0.58449241  1
  O  O25  1  0.64988048  0.82926241  0.90845440  1
  O  O26  1  0.64988048  0.17073759  0.40845440  1
  O  O27  1  0.35282082  0.13565791  0.08449241  1
  O  O28  1  0.85282082  0.36434209  0.58449241  1
  O  O29  1  0.14988048  0.32926241  0.90845440  1
  O  O30  1  0.14988048  0.67073759  0.40845440  1
  O  O31  1  0.85282082  0.63565791  0.08449241  1
  O  O32  1  0.45175814  0.86277632  0.92563217  1
  O  O33  1  0.53618964  0.81662231  0.56032181  1
  O  O34  1  0.53618964  0.18337769  0.06032181  1
  O  O35  1  0.45175814  0.13722368  0.42563217  1
  O  O36  1  0.95175814  0.36277632  0.92563217  1
  O  O37  1  0.03618964  0.31662231  0.56032181  1
  O  O38  1  0.03618964  0.68337769  0.06032181  1
  O  O39  1  0.95175814  0.63722368  0.42563217  1
  O  O40  1  0.06302776  0.85912484  0.73445804  1
  O  O41  1  0.90994725  0.86193156  0.75244171  1
  O  O42  1  0.90994725  0.13806844  0.25244171  1
  O  O43  1  0.06302776  0.14087516  0.23445804  1
  O  O44  1  0.56302776  0.35912484  0.73445804  1
  O  O45  1  0.40994725  0.36193156  0.75244171  1
  O  O46  1  0.40994725  0.63806844  0.25244171  1
  O  O47  1  0.56302776  0.64087516  0.23445804  1
loop_
_geom_bond_atom_site_label_1
_geom_bond_atom_site_label_2
_geom_bond_distance
_geom_bond_site_symmetry_2
Na0 O46 2.281797 1_555
Na0 O22 2.398714 1_555
Na0 O6 2.466223 1_555
Na0 O0 2.468214 1_554
Na0 O16 2.752627 1_554
Na0 O40 2.857796 1_554
Na1 O41 2.281797 1_555
Na1 O17 2.398714 1_555
Na1 O1 2.466223 1_555
Na1 O7 2.468214 1_555
Na1 O23 2.752627 1_555
Na1 O47 2.857796 1_555
Na2 O42 2.281797 1_555
Na2 O18 2.398714 1_555
Na2 O2 2.466223 1_555
Na2 O4 2.468214 1_554
Na2 O20 2.752627 1_554
Na2 O44 2.857796 1_554
Na3 O45 2.281797 1_555
Na3 O21 2.398714 1_555
Na3 O5 2.466223 1_555
Na3 O3 2.468214 1_555
Na3 O19 2.752627 1_555
Na3 O43 2.857796 1_555
Na4 O5 2.362144 1_555
Na4 O4 2.423473 1_555
Na4 O35 2.626855 1_555
Na4 O44 2.687611 1_555
Na4 O34 2.719271 1_556
Na4 O24 2.843171 1_545
Na5 O6 2.362144 1_555
Na5 O7 2.423473 1_555
Na5 O32 2.626855 1_554
Na5 O47 2.687611 1_555
Na5 O33 2.719271 1_555
Na5 O27 2.843171 1_565
Na6 O1 2.362144 1_455
Na6 O0 2.423473 1_555
Na6 O39 2.626855 1_455
Na6 O40 2.687611 1_555
Na6 O38 2.719271 1_556
Na6 O28 2.843171 1_455
Na7 O2 2.362144 1_455
Na7 O3 2.423473 1_555
Na7 O36 2.626855 1_454
Na7 O43 2.687611 1_555
Na7 O37 2.719271 1_555
Na7 O31 2.843171 1_455
Na8 O19 2.383532 1_565
Na8 O24 2.411821 1_555
Na8 O22 2.440319 1_555
Na8 O43 2.609122 1_565
Na8 O30 2.768813 1_555
Na8 O14 2.905375 1_555
Na8 O6 2.922653 1_555
Na8 O13 3.011656 1_564
Na9 O16 2.383532 1_545
Na9 O27 2.411821 1_556
Na9 O21 2.440319 1_555
Na9 O40 2.609122 1_545
Na9 O29 2.768813 1_555
Na9 O13 2.905375 1_555
Na9 O5 2.922653 1_555
Na9 O14 3.011656 1_545
Na10 O23 2.383532 1_555
Na10 O28 2.411821 1_555
Na10 O18 2.440319 1_555
Na10 O47 2.609122 1_555
Na10 O26 2.768813 1_555
Na10 O10 2.905375 1_555
Na10 O2 2.922653 1_555
Na10 O9 3.011656 1_554
Na11 O20 2.383532 1_555
Na11 O31 2.411821 1_556
Na11 O17 2.440319 1_555
Na11 O44 2.609122 1_555
Na11 O25 2.768813 1_555
Na11 O9 2.905375 1_555
Na11 O1 2.922653 1_555
Na11 O10 3.011656 1_555
O0 Si2 1.620852 1_555
O0 Y0 2.207823 1_555
O1 P6 1.574792 1_555
O1 Ti0 2.212701 1_555
O2 P7 1.574792 1_555
O2 Ti1 2.212701 1_555
O3 Si3 1.620852 1_555
O3 Y1 2.207823 1_555
O4 Si0 1.620852 1_545
O4 Y2 2.207823 1_555
O5 P4 1.574792 1_545
O5 Ti2 2.212701 1_555
O6 P5 1.574792 1_565
O6 Ti3 2.212701 1_555
O7 Si1 1.620852 1_565
O7 Y3 2.207823 1_555
O8 P2 1.594884 1_555
O8 Ti3 1.920450 1_555
O9 P2 1.510651 1_555
O9 Y3 2.224082 1_556
O10 P3 1.510651 1_555
O10 Y2 2.224082 1_555
O11 P3 1.594884 1_555
O11 Ti2 1.920450 1_554
O12 P0 1.594884 1_545
O12 Ti1 1.920450 1_555
O13 P0 1.510651 1_445
O13 Y1 2.224082 1_556
O14 P1 1.510651 1_465
O14 Y0 2.224082 1_555
O15 P1 1.594884 1_565
O15 Ti0 1.920450 1_554
O16 P4 1.549911 1_555
O16 Y0 2.266601 1_555
O17 Si0 1.658772 1_555
O17 Ti0 1.974422 1_555
O18 Si1 1.658772 1_555
O18 Ti1 1.974422 1_555
O19 P5 1.549911 1_555
O19 Y1 2.266601 1_555
O20 P6 1.549911 1_555
O20 Y2 2.266601 1_555
O21 Si2 1.658772 1_555
O21 Ti2 1.974422 1_555
O22 Si3 1.658772 1_555
O22 Ti3 1.974422 1_555
O23 P7 1.549911 1_555
O23 Y3 2.266601 1_555
O24 P4 1.585258 1_555
O24 Ti3 2.184561 1_555
O25 Si0 1.593986 1_555
O25 Y3 2.062769 1_556
O26 Si1 1.593986 1_555
O26 Y2 2.062769 1_555
O27 P5 1.585258 1_555
O27 Ti2 2.184561 1_554
O28 P6 1.585258 1_555
O28 Ti1 2.184561 1_555
O29 Si2 1.593986 1_555
O29 Y1 2.062769 1_556
O30 Si3 1.593986 1_555
O30 Y0 2.062769 1_555
O31 P7 1.585258 1_555
O31 Ti0 2.184561 1_554
O32 P4 1.522289 1_555
O32 Y3 2.216626 1_556
O33 Si0 1.716793 1_555
O33 Ti3 1.911170 1_555
O34 Si1 1.716793 1_555
O34 Ti2 1.911170 1_554
O35 P5 1.522289 1_555
O35 Y2 2.216626 1_555
O36 P6 1.522289 1_555
O36 Y1 2.216626 1_656
O37 Si2 1.716793 1_555
O37 Ti1 1.911170 1_455
O38 Si3 1.716793 1_555
O38 Ti0 1.911170 1_454
O39 P7 1.522289 1_555
O39 Y0 2.216626 1_655
O40 P0 1.539207 1_455
O40 Y0 2.270873 1_555
O41 P0 1.560751 1_555
O41 Ti0 2.053822 1_555
O42 P1 1.560751 1_555
O42 Ti1 2.053822 1_555
O43 P1 1.539207 1_455
O43 Y1 2.270873 1_555
O44 P2 1.539207 1_555
O44 Y2 2.270873 1_555
O45 P2 1.560751 1_555
O45 Ti2 2.053822 1_555
O46 P3 1.560751 1_555
O46 Ti3 2.053822 1_555
O47 P3 1.539207 1_555
O47 Y3 2.270873 1_555
