# generated using pymatgen
data_Ce2Pd2Pb
_symmetry_space_group_name_H-M   'P 1'
_cell_length_a   7.97303055
_cell_length_b   7.97303055
_cell_length_c   3.82443220
_cell_angle_alpha   90.00000000
_cell_angle_beta   90.00000000
_cell_angle_gamma   89.99079031
_symmetry_Int_Tables_number   1
_chemical_formula_structural   Ce2Pd2Pb
_chemical_formula_sum   'Ce4 Pd4 Pb2'
_cell_volume   243.11615378
_cell_formula_units_Z   2
loop_
 _symmetry_equiv_pos_site_id
 _symmetry_equiv_pos_as_xyz
  1  'x, y, z'
loop_
 _atom_site_type_symbol
 _atom_site_label
 _atom_site_symmetry_multiplicity
 _atom_site_fract_x
 _atom_site_fract_y
 _atom_site_fract_z
 _atom_site_occupancy
  Ce  Ce0  1  0.67860798  0.17860798  0.50000000  1
  Ce  Ce1  1  0.17853528  0.32146472  0.50000000  1
  Ce  Ce2  1  0.82146472  0.67853528  0.50000000  1
  Ce  Ce3  1  0.32139202  0.82139202  0.50000000  1
  Pd  Pd0  1  0.37666171  0.12333829  0.00000000  1
  Pd  Pd1  1  0.12340888  0.62340888  -0.00000000  1
  Pd  Pd2  1  0.62333829  0.87666171  0.00000000  1
  Pd  Pd3  1  0.87659112  0.37659112  -0.00000000  1
  Pb  Pb0  1  -0.00000000  0.00000000  0.00000000  1
  Pb  Pb1  1  0.50000000  0.50000000  0.00000000  1
loop_
_geom_bond_atom_site_label_1
_geom_bond_atom_site_label_2
_geom_bond_distance
_geom_bond_site_symmetry_2
Ce0 Pd3 2.939534 1_555
Ce0 Pd3 2.939534 1_556
Ce0 Pd2 3.105930 1_546
Ce0 Pd2 3.105930 1_545
Ce0 Pd0 3.105930 1_555
Ce0 Pd0 3.105930 1_556
Ce0 Pb0 3.499936 1_656
Ce0 Pb1 3.499936 1_556
Ce0 Pb1 3.499936 1_555
Ce0 Pb0 3.499936 1_655
Ce1 Pd0 2.940488 1_555
Ce1 Pd0 2.940488 1_556
Ce1 Pd3 3.105646 1_456
Ce1 Pd3 3.105646 1_455
Ce1 Pd1 3.105646 1_556
Ce1 Pd1 3.105646 1_555
Ce1 Pb0 3.500460 1_556
Ce1 Pb0 3.500460 1_555
Ce1 Pb1 3.500460 1_556
Ce1 Pb1 3.500460 1_555
Ce2 Pd2 2.940488 1_555
Ce2 Pd2 2.940488 1_556
Ce2 Pd1 3.105646 1_655
Ce2 Pd1 3.105646 1_656
Ce2 Pd3 3.105646 1_555
Ce2 Pd3 3.105646 1_556
Ce2 Pb1 3.500460 1_555
Ce2 Pb0 3.500460 1_665
Ce2 Pb0 3.500460 1_666
Ce2 Pb1 3.500460 1_556
Ce3 Pd1 2.939534 1_555
Ce3 Pd1 2.939534 1_556
Ce3 Pd0 3.105930 1_566
Ce3 Pd0 3.105930 1_565
Ce3 Pd2 3.105930 1_555
Ce3 Pd2 3.105930 1_556
Ce3 Pb0 3.499936 1_565
Ce3 Pb1 3.499936 1_556
Ce3 Pb0 3.499936 1_566
Ce3 Pb1 3.499936 1_555
Pd0 Pd2 2.781195 1_545
Pd1 Pd3 2.783234 1_455
Pb0 Pd1 3.159531 1_545
Pb0 Pd3 3.159531 1_455
Pb0 Pd0 3.160191 1_555
Pb0 Pd2 3.160191 1_445
Pb1 Pd3 3.159531 1_555
Pb1 Pd1 3.159531 1_555
Pb1 Pd0 3.160191 1_555
Pb1 Pd2 3.160191 1_555
