# generated using pymatgen
data_GaH36C12S6(IO2)3
_symmetry_space_group_name_H-M   'P 1'
_cell_length_a   10.31288899
_cell_length_b   10.31288899
_cell_length_c   10.31288953
_cell_angle_alpha   65.03761222
_cell_angle_beta   65.03761222
_cell_angle_gamma   65.03761506
_symmetry_Int_Tables_number   1
_chemical_formula_structural   GaH36C12S6(IO2)3
_chemical_formula_sum   'Ga1 H36 C12 S6 I3 O6'
_cell_volume   860.86961256
_cell_formula_units_Z   1
loop_
 _symmetry_equiv_pos_site_id
 _symmetry_equiv_pos_as_xyz
  1  'x, y, z'
loop_
 _atom_site_type_symbol
 _atom_site_label
 _atom_site_symmetry_multiplicity
 _atom_site_fract_x
 _atom_site_fract_y
 _atom_site_fract_z
 _atom_site_occupancy
  Ga  Ga0  1  0.00000000  0.00000000  0.00000000  1
  H  H0  1  0.77346100  0.44447700  0.24332100  1
  H  H1  1  0.44447700  0.24332100  0.77346100  1
  H  H2  1  0.24332100  0.77346100  0.44447700  1
  H  H3  1  0.22653900  0.55552300  0.75667900  1
  H  H4  1  0.55552300  0.75667900  0.22653900  1
  H  H5  1  0.75667900  0.22653900  0.55552300  1
  H  H6  1  0.96843000  0.34973300  0.16885700  1
  H  H7  1  0.34973300  0.16885700  0.96843000  1
  H  H8  1  0.16885700  0.96843000  0.34973300  1
  H  H9  1  0.03157000  0.65026700  0.83114300  1
  H  H10  1  0.65026700  0.83114300  0.03157000  1
  H  H11  1  0.83114300  0.03157000  0.65026700  1
  H  H12  1  0.85840200  0.48733600  0.04175000  1
  H  H13  1  0.48733600  0.04175000  0.85840200  1
  H  H14  1  0.04175000  0.85840200  0.48733600  1
  H  H15  1  0.70726200  0.89881100  0.41435400  1
  H  H16  1  0.14159800  0.51266400  0.95825000  1
  H  H17  1  0.95825000  0.14159800  0.51266400  1
  H  H18  1  0.58564600  0.29273800  0.10118900  1
  H  H19  1  0.29273800  0.10118900  0.58564600  1
  H  H20  1  0.10118900  0.58564600  0.29273800  1
  H  H21  1  0.41435400  0.70726200  0.89881100  1
  H  H22  1  0.99825400  0.34376900  0.54467500  1
  H  H23  1  0.54467500  0.99825400  0.34376900  1
  H  H24  1  0.34376900  0.54467500  0.99825400  1
  H  H25  1  0.00174600  0.65623100  0.45532500  1
  H  H26  1  0.45532500  0.00174600  0.65623100  1
  H  H27  1  0.65623100  0.45532500  0.00174600  1
  H  H28  1  0.79963700  0.44357800  0.58535800  1
  H  H29  1  0.58535800  0.79963700  0.44357800  1
  H  H30  1  0.44357800  0.58535800  0.79963700  1
  H  H31  1  0.20036300  0.55642200  0.41464200  1
  H  H32  1  0.41464200  0.20036300  0.55642200  1
  H  H33  1  0.55642200  0.41464200  0.20036300  1
  H  H34  1  0.89881100  0.41435400  0.70726200  1
  H  H35  1  0.51266400  0.95825000  0.14159800  1
  C  C0  1  0.63267100  0.36663800  0.10778300  1
  C  C1  1  0.36663800  0.10778300  0.63267100  1
  C  C2  1  0.10778300  0.63267100  0.36663800  1
  C  C3  1  0.36732900  0.63336200  0.89221700  1
  C  C4  1  0.84981100  0.14238400  0.59980000  1
  C  C5  1  0.59980000  0.84981100  0.14238400  1
  C  C6  1  0.14238400  0.59980000  0.84981100  1
  C  C7  1  0.15018900  0.85761600  0.40020000  1
  C  C8  1  0.89221700  0.36732900  0.63336200  1
  C  C9  1  0.85761600  0.40020000  0.15018900  1
  C  C10  1  0.63336200  0.89221700  0.36732900  1
  C  C11  1  0.40020000  0.15018900  0.85761600  1
  S  S0  1  0.80347000  0.25472400  0.15483900  1
  S  S1  1  0.25472400  0.15483900  0.80347000  1
  S  S2  1  0.15483900  0.80347000  0.25472400  1
  S  S3  1  0.19653000  0.74527600  0.84516100  1
  S  S4  1  0.74527600  0.84516100  0.19653000  1
  S  S5  1  0.84516100  0.19653000  0.74527600  1
  I  I0  1  0.50000000  0.50000000  0.50000000  1
  I  I1  1  0.75164800  0.75164800  0.75164800  1
  I  I2  1  0.24835300  0.24835300  0.24835300  1
  O  O0  1  0.91616600  0.21087500  0.01043800  1
  O  O1  1  0.21087500  0.01043800  0.91616600  1
  O  O2  1  0.98956200  0.08383400  0.78912500  1
  O  O3  1  0.08383400  0.78912500  0.98956200  1
  O  O4  1  0.78912500  0.98956200  0.08383400  1
  O  O5  1  0.01043800  0.91616600  0.21087500  1
loop_
_geom_bond_atom_site_label_1
_geom_bond_atom_site_label_2
_geom_bond_distance
_geom_bond_site_symmetry_2
Ga0 O1 2.005138 1_554
Ga0 O4 2.005138 1_445
Ga0 O0 2.005138 1_455
Ga0 O3 2.005138 1_544
Ga0 O5 2.005138 1_545
Ga0 O2 2.005138 1_454
C0 H18 1.097354 1_555
C0 H27 1.100235 1_555
C0 H33 1.100768 1_555
C0 S0 1.789704 1_555
C1 H19 1.097354 1_555
C1 H26 1.100235 1_555
C1 H32 1.100768 1_555
C1 S1 1.789704 1_555
C2 H20 1.097354 1_555
C2 H25 1.100235 1_555
C2 H31 1.100768 1_555
C2 S2 1.789704 1_555
C3 H21 1.097354 1_555
C3 H24 1.100235 1_555
C3 H30 1.100768 1_555
C3 S3 1.789704 1_555
C4 H17 1.099319 1_555
C4 H11 1.101392 1_555
C4 H5 1.102869 1_555
C4 S5 1.785700 1_555
C5 H35 1.099319 1_555
C5 H10 1.101392 1_555
C5 H4 1.102869 1_555
C5 S4 1.785700 1_555
C6 H16 1.099319 1_555
C6 H9 1.101392 1_555
C6 H3 1.102869 1_555
C6 S3 1.785700 1_555
C7 H14 1.099319 1_555
C7 H8 1.101392 1_555
C7 H2 1.102869 1_555
C7 S2 1.785700 1_555
C8 H34 1.097354 1_555
C8 H22 1.100235 1_555
C8 H28 1.100768 1_555
C8 S5 1.789704 1_555
C9 H12 1.099319 1_555
C9 H6 1.101392 1_555
C9 H0 1.102869 1_555
C9 S0 1.785700 1_555
C10 H15 1.097354 1_555
C10 H23 1.100235 1_555
C10 H29 1.100768 1_555
C10 S4 1.789704 1_555
C11 H13 1.099319 1_555
C11 H7 1.101392 1_555
C11 H1 1.102869 1_555
C11 S1 1.785700 1_555
O0 S0 1.561055 1_555
O1 S1 1.561055 1_555
O2 S5 1.561055 1_555
O3 S3 1.561055 1_555
O4 S4 1.561055 1_555
O5 S2 1.561055 1_555
