# generated using pymatgen
data_Li2Mn(PO3)4
_symmetry_space_group_name_H-M   'P 1'
_cell_length_a   9.43311200
_cell_length_b   9.43311200
_cell_length_c   4.67594000
_cell_angle_alpha   90.00000000
_cell_angle_beta   90.00000000
_cell_angle_gamma   90.00000000
_symmetry_Int_Tables_number   1
_chemical_formula_structural   Li2Mn(PO3)4
_chemical_formula_sum   'Li4 Mn2 P8 O24'
_cell_volume   416.08198396
_cell_formula_units_Z   2
loop_
 _symmetry_equiv_pos_site_id
 _symmetry_equiv_pos_as_xyz
  1  'x, y, z'
loop_
 _atom_site_type_symbol
 _atom_site_label
 _atom_site_symmetry_multiplicity
 _atom_site_fract_x
 _atom_site_fract_y
 _atom_site_fract_z
 _atom_site_occupancy
  Li  Li0  1  0.25000000  0.25000000  0.50000000  1
  Li  Li1  1  0.75000000  0.25000000  0.50000000  1
  Li  Li2  1  0.25000000  0.75000000  0.50000000  1
  Li  Li3  1  0.75000000  0.75000000  0.50000000  1
  Mn  Mn0  1  0.50000000  0.50000000  0.50000000  1
  Mn  Mn1  1  0.00000000  0.00000000  0.50000000  1
  P  P0  1  0.50000000  0.22153700  0.00000000  1
  P  P1  1  0.27846300  0.00000000  0.00000000  1
  P  P2  1  0.00000000  0.27846300  0.00000000  1
  P  P3  1  0.77846300  0.50000000  0.00000000  1
  P  P4  1  0.22153700  0.50000000  0.00000000  1
  P  P5  1  0.72153700  0.00000000  0.00000000  1
  P  P6  1  0.50000000  0.77846300  0.00000000  1
  P  P7  1  0.00000000  0.72153700  0.00000000  1
  O  O0  1  0.29755100  0.57121900  0.75745400  1
  O  O1  1  0.92878100  0.20244900  0.75745400  1
  O  O2  1  0.42878100  0.29755100  0.75745400  1
  O  O3  1  0.57121900  0.29755100  0.24254600  1
  O  O4  1  0.88669900  0.38669900  0.14889800  1
  O  O5  1  0.11330100  0.38669900  0.85110200  1
  O  O6  1  0.29755100  0.42878100  0.24254600  1
  O  O7  1  0.70244900  0.42878100  0.75745400  1
  O  O8  1  0.70244900  0.57121900  0.24254600  1
  O  O9  1  0.07121900  0.20244900  0.24254600  1
  O  O10  1  0.11330100  0.61330100  0.14889800  1
  O  O11  1  0.88669900  0.61330100  0.85110200  1
  O  O12  1  0.57121900  0.70244900  0.75745400  1
  O  O13  1  0.42878100  0.70244900  0.24254600  1
  O  O14  1  0.07121900  0.79755100  0.75745400  1
  O  O15  1  0.61330100  0.11330100  0.85110200  1
  O  O16  1  0.61330100  0.88669900  0.14889800  1
  O  O17  1  0.38669900  0.88669900  0.85110200  1
  O  O18  1  0.20244900  0.92878100  0.24254600  1
  O  O19  1  0.79755100  0.92878100  0.75745400  1
  O  O20  1  0.20244900  0.07121900  0.75745400  1
  O  O21  1  0.79755100  0.07121900  0.24254600  1
  O  O22  1  0.38669900  0.11330100  0.14889800  1
  O  O23  1  0.92878100  0.79755100  0.24254600  1
loop_
_geom_bond_atom_site_label_1
_geom_bond_atom_site_label_2
_geom_bond_distance
_geom_bond_site_symmetry_2
Li0 O20 2.120043 1_555
Li0 O9 2.120043 1_555
Li0 O2 2.120043 1_555
Li0 O6 2.120043 1_555
Li0 O5 2.453750 1_555
Li0 O22 2.453750 1_555
Li1 O3 2.120043 1_555
Li1 O1 2.120043 1_555
Li1 O7 2.120043 1_555
Li1 O21 2.120043 1_555
Li1 O4 2.453750 1_555
Li1 O15 2.453750 1_555
Li2 O0 2.120043 1_555
Li2 O18 2.120043 1_555
Li2 O14 2.120043 1_555
Li2 O13 2.120043 1_555
Li2 O17 2.453750 1_555
Li2 O10 2.453750 1_555
Li3 O19 2.120043 1_555
Li3 O23 2.120043 1_555
Li3 O8 2.120043 1_555
Li3 O12 2.120043 1_555
Li3 O16 2.453750 1_555
Li3 O11 2.453750 1_555
Mn0 O6 2.355337 1_555
Mn0 O7 2.355337 1_555
Mn0 O8 2.355337 1_555
Mn0 O12 2.355337 1_555
Mn0 O2 2.355337 1_555
Mn0 O0 2.355337 1_555
Mn0 O13 2.355337 1_555
Mn0 O3 2.355337 1_555
Mn1 O1 2.355337 1_455
Mn1 O21 2.355337 1_455
Mn1 O20 2.355337 1_555
Mn1 O23 2.355337 1_445
Mn1 O9 2.355337 1_555
Mn1 O14 2.355337 1_545
Mn1 O18 2.355337 1_545
Mn1 O19 2.355337 1_445
O0 P4 1.500583 1_556
O1 P2 1.500583 1_656
O2 P0 1.500583 1_556
O3 P0 1.500583 1_555
O4 P2 1.633856 1_655
O4 P3 1.633856 1_555
O5 P4 1.633856 1_556
O5 P2 1.633856 1_556
O6 P4 1.500583 1_555
O7 P3 1.500583 1_556
O8 P3 1.500583 1_555
O9 P2 1.500583 1_555
O10 P4 1.633856 1_555
O10 P7 1.633856 1_555
O11 P3 1.633856 1_556
O11 P7 1.633856 1_656
O12 P6 1.500583 1_556
O13 P6 1.500583 1_555
O14 P7 1.500583 1_556
O15 P5 1.633856 1_556
O15 P0 1.633856 1_556
O16 P6 1.633856 1_555
O16 P5 1.633856 1_565
O17 P1 1.633856 1_566
O17 P6 1.633856 1_556
O18 P1 1.500583 1_565
O19 P5 1.500583 1_566
O20 P1 1.500583 1_556
O21 P5 1.500583 1_555
O22 P0 1.633856 1_555
O22 P1 1.633856 1_555
O23 P7 1.500583 1_655
