# generated using pymatgen
data_Na2Zn2SiGe2S5O24
_symmetry_space_group_name_H-M   'P 1'
_cell_length_a   8.59000352
_cell_length_b   8.59166982
_cell_length_c   22.31069804
_cell_angle_alpha   89.55234863
_cell_angle_beta   89.61517992
_cell_angle_gamma   119.96297909
_symmetry_Int_Tables_number   1
_chemical_formula_structural   Na2Zn2SiGe2S5O24
_chemical_formula_sum   'Na6 Zn6 Si3 Ge6 S15 O72'
_cell_volume   1426.36515921
_cell_formula_units_Z   3
loop_
 _symmetry_equiv_pos_site_id
 _symmetry_equiv_pos_as_xyz
  1  'x, y, z'
loop_
 _atom_site_type_symbol
 _atom_site_label
 _atom_site_symmetry_multiplicity
 _atom_site_fract_x
 _atom_site_fract_y
 _atom_site_fract_z
 _atom_site_occupancy
  Na  Na0  1  0.00108191  0.00082567  0.49801938  1
  Na  Na1  1  0.99826767  0.99344592  0.99814914  1
  Na  Na2  1  0.66774008  0.32036146  0.82581163  1
  Na  Na3  1  0.65551130  0.32516774  0.33599516  1
  Na  Na4  1  0.32105601  0.66854502  0.16512160  1
  Na  Na5  1  0.33906194  0.67106183  0.66447090  1
  Zn  Zn0  1  0.01600269  0.00502397  0.34937649  1
  Zn  Zn1  1  0.99314281  0.00076749  0.84826477  1
  Zn  Zn2  1  0.66632545  0.32276392  0.68400779  1
  Zn  Zn3  1  0.66469936  0.33238773  0.48519045  1
  Zn  Zn4  1  0.31802585  0.66626944  0.02242189  1
  Zn  Zn5  1  0.33579326  0.66907546  0.51991657  1
  Si  Si0  1  0.30011143  0.00248116  0.25080459  1
  Si  Si1  1  0.70979849  0.00387422  0.75265700  1
  Si  Si2  1  0.94958662  0.61962965  0.08542370  1
  Ge  Ge0  1  0.98538400  0.99408553  0.64998556  1
  Ge  Ge1  1  0.00854555  0.97834257  0.14971780  1
  Ge  Ge2  1  0.66968036  0.32832763  0.18609397  1
  Ge  Ge3  1  0.67687582  0.34868887  0.98131215  1
  Ge  Ge4  1  0.33360446  0.68194422  0.31817363  1
  Ge  Ge5  1  0.34086172  0.67283287  0.81028814  1
  S  S0  1  0.70511931  0.70520262  0.25007759  1
  S  S1  1  0.00103340  0.28902216  0.24843280  1
  S  S2  1  0.28925755  0.29331492  0.75113697  1
  S  S3  1  0.00282342  0.71029212  0.75165345  1
  S  S4  1  0.96416963  0.32933836  0.58454895  1
  S  S5  1  0.36138410  0.03683148  0.58582713  1
  S  S6  1  0.67287911  0.63108398  0.58547985  1
  S  S7  1  0.67540459  0.04980912  0.08418804  1
  S  S8  1  0.37791579  0.32830293  0.08432071  1
  S  S9  1  0.61868756  0.66027109  0.91916372  1
  S  S10  1  0.04232625  0.37812718  0.91755622  1
  S  S11  1  0.33861095  0.96473901  0.91781746  1
  S  S12  1  0.62760496  0.95946813  0.41605413  1
  S  S13  1  0.33334958  0.38302976  0.41521396  1
  S  S14  1  0.03935217  0.66354442  0.41727431  1
  O  O0  1  0.22920166  0.05075175  0.30872768  1
  O  O1  1  0.81236352  0.78246617  0.30290379  1
  O  O2  1  0.96194375  0.18067595  0.30260993  1
  O  O3  1  0.21788702  0.18765034  0.80607888  1
  O  O4  1  0.98366700  0.78955192  0.80653088  1
  O  O5  1  0.81731113  0.03167416  0.81272917  1
  O  O6  1  0.79483251  0.95545566  0.69207852  1
  O  O7  1  0.17518652  0.21283840  0.69644006  1
  O  O8  1  0.04754027  0.82939554  0.69617523  1
  O  O9  1  0.78330987  0.82370123  0.19398829  1
  O  O10  1  0.03012681  0.20594538  0.19286818  1
  O  O11  1  0.17232405  0.95659012  0.19059086  1
  O  O12  1  0.88345118  0.35472695  0.63827136  1
  O  O13  1  0.46846272  0.11736615  0.63860773  1
  O  O14  1  0.64938462  0.52443586  0.63936012  1
  O  O15  1  0.85024463  0.49302470  0.14400428  1
  O  O16  1  0.63609182  0.12665608  0.13837193  1
  O  O17  1  0.48615713  0.35006003  0.13842306  1
  O  O18  1  0.45217990  0.28678011  0.02865610  1
  O  O19  1  0.82515239  0.53709910  0.02457739  1
  O  O20  1  0.70560883  0.16299654  0.02821768  1
  O  O21  1  0.43423698  0.14402271  0.52987041  1
  O  O22  1  0.70264516  0.55659429  0.52986839  1
  O  O23  1  0.85672966  0.29624610  0.52977737  1
  O  O24  1  0.53271858  0.68050989  0.97272831  1
  O  O25  1  0.14552196  0.46189988  0.97096155  1
  O  O26  1  0.31298774  0.85908411  0.97218579  1
  O  O27  1  0.54333800  0.84991513  0.46939085  1
  O  O28  1  0.31350339  0.46822742  0.46848093  1
  O  O29  1  0.14985865  0.68818584  0.46928463  1
  O  O30  1  0.12326810  0.63415206  0.35925339  1
  O  O31  1  0.51284058  0.87720670  0.35899737  1
  O  O32  1  0.36393448  0.49936423  0.35670063  1
  O  O33  1  0.12135777  0.49205973  0.86104147  1
  O  O34  1  0.37256814  0.88441293  0.86244066  1
  O  O35  1  0.50940999  0.62916296  0.86311029  1
  O  O36  1  0.02042328  0.82355926  0.41051211  1
  O  O37  1  0.80384404  0.97380175  0.40714967  1
  O  O38  1  0.16858909  0.20772394  0.41018011  1
  O  O39  1  0.02053063  0.19918273  0.91307457  1
  O  O40  1  0.18290156  0.98971449  0.91042590  1
  O  O41  1  0.80234555  0.81049934  0.91383973  1
  O  O42  1  0.98194838  0.15961394  0.59034013  1
  O  O43  1  0.17551269  0.02250602  0.59306346  1
  O  O44  1  0.84694151  0.81573777  0.58954217  1
  O  O45  1  0.95804486  0.81825947  0.09090537  1
  O  O46  1  0.84663719  0.04700107  0.09125915  1
  O  O47  1  0.19229089  0.16597628  0.09035426  1
  O  O48  1  0.67604972  0.16881999  0.74411513  1
  O  O49  1  0.47233723  0.33049873  0.74200720  1
  O  O50  1  0.84479222  0.53555354  0.74327255  1
  O  O51  1  0.68775633  0.52458661  0.24140018  1
  O  O52  1  0.83965910  0.31364952  0.24121568  1
  O  O53  1  0.50245706  0.17967857  0.23737568  1
  O  O54  1  0.62647013  0.48321674  0.92196799  1
  O  O55  1  0.85487564  0.36250863  0.92126057  1
  O  O56  1  0.51100419  0.14893635  0.92268330  1
  O  O57  1  0.63998440  0.13691479  0.41889236  1
  O  O58  1  0.49669255  0.36701025  0.41652776  1
  O  O59  1  0.86196598  0.49808641  0.41981490  1
  O  O60  1  0.36725472  0.49122959  0.07810975  1
  O  O61  1  0.14545522  0.64238685  0.08288829  1
  O  O62  1  0.52115211  0.86971238  0.07858007  1
  O  O63  1  0.33410725  0.85369013  0.57979077  1
  O  O64  1  0.51881179  0.66176872  0.58055761  1
  O  O65  1  0.14760051  0.48495685  0.57857800  1
  O  O66  1  0.31980386  0.81851702  0.25818398  1
  O  O67  1  0.52059405  0.68108472  0.25471574  1
  O  O68  1  0.16488746  0.47022639  0.25310714  1
  O  O69  1  0.29161553  0.47319634  0.75663733  1
  O  O70  1  0.16963164  0.68876788  0.75611602  1
  O  O71  1  0.50660994  0.81226115  0.75730464  1
loop_
_geom_bond_atom_site_label_1
_geom_bond_atom_site_label_2
_geom_bond_distance
_geom_bond_site_symmetry_2
Na0 O44 2.502238 1_445
Na0 O42 2.528651 1_455
Na0 O38 2.534499 1_555
Na0 O36 2.540413 1_545
Na0 O43 2.558587 1_555
Na0 O37 2.587517 1_445
Na1 O45 2.467741 1_556
Na1 O41 2.507495 1_555
Na1 O40 2.521313 1_655
Na1 O39 2.523645 1_665
Na1 O46 2.607846 1_566
Na1 O47 2.613980 1_666
Na2 O48 2.269517 1_555
Na2 O50 2.494579 1_555
Na2 O49 2.550791 1_555
Na2 O56 2.565824 1_555
Na2 O55 2.593581 1_555
Na2 O54 2.686629 1_555
Na3 O58 2.384483 1_555
Na3 O57 2.406010 1_555
Na3 O59 2.511107 1_555
Na3 O53 2.563682 1_555
Na3 O51 2.632108 1_555
Na3 O52 2.664245 1_555
Na4 O61 2.323116 1_555
Na4 O66 2.454931 1_555
Na4 O68 2.487055 1_555
Na4 O62 2.570106 1_555
Na4 O67 2.609612 1_555
Na4 O60 2.624258 1_555
Na5 O64 2.445837 1_555
Na5 O63 2.460619 1_555
Na5 O71 2.483583 1_555
Na5 O65 2.529287 1_555
Na5 O70 2.551089 1_555
Na5 O69 2.554699 1_555
Ge0 O6 1.761583 1_555
Ge0 O42 1.951192 1_565
Ge0 O44 1.953042 1_555
Ge0 O43 1.977058 1_665
Ge0 O8 2.021982 1_655
Ge0 O7 2.063262 1_665
Ge1 O11 1.767188 1_555
Ge1 O45 1.800405 1_455
Ge1 O9 1.967301 1_455
Ge1 O47 2.059408 1_565
Ge1 O10 2.110646 1_565
Ge1 O46 2.194356 1_465
Ge2 O15 1.748489 1_555
Ge2 O53 1.768081 1_555
Ge2 O16 1.937183 1_555
Ge2 O52 1.966187 1_555
Ge2 O17 1.991164 1_555
Ge2 O51 2.040459 1_555
Ge3 O19 1.776478 1_556
Ge3 O54 1.939091 1_555
Ge3 O55 1.983858 1_555
Ge3 O18 2.015544 1_556
Ge3 O20 2.017946 1_556
Ge3 O56 2.074623 1_555
Ge4 O66 1.816253 1_555
Ge4 O31 1.864714 1_555
Ge4 O30 1.871874 1_555
Ge4 O32 1.912490 1_555
Ge4 O67 2.136818 1_555
Ge4 O68 2.225488 1_555
Ge5 O71 1.763836 1_555
Ge5 O70 1.966060 1_555
Ge5 O69 1.966671 1_555
Ge5 O35 2.045598 1_555
Ge5 O33 2.065991 1_555
Ge5 O34 2.067680 1_555
O0 Si0 1.569459 1_555
O0 Zn0 1.893198 1_555
O1 S0 1.447189 1_555
O1 Zn0 2.122614 1_665
O2 S1 1.450879 1_655
O2 Zn0 2.064882 1_655
O3 S2 1.455734 1_555
O3 Zn1 2.011625 1_455
O4 S3 1.453306 1_655
O4 Zn1 2.011613 1_565
O5 Si1 1.583518 1_555
O5 Zn1 1.842224 1_555
O6 Si1 1.682952 1_565
O7 S2 1.509937 1_555
O8 S3 1.519185 1_555
O9 S0 1.529505 1_555
O10 S1 1.515449 1_555
O11 Si0 1.661599 1_565
O12 S4 1.452222 1_555
O12 Zn2 2.013388 1_555
O13 S5 1.450185 1_555
O13 Zn2 2.020891 1_555
O14 S6 1.456085 1_555
O14 Zn2 2.059737 1_555
O15 Si2 1.629477 1_555
O16 S7 1.497015 1_555
O17 S8 1.483727 1_555
O18 S8 1.516637 1_555
O19 Si2 1.663022 1_555
O20 S7 1.515586 1_555
O21 S5 1.481290 1_555
O21 Zn3 2.068803 1_555
O22 S6 1.478506 1_555
O22 Zn3 2.053703 1_555
O23 S4 1.477950 1_555
O23 Zn3 2.082262 1_555
O24 S9 1.457194 1_555
O24 Zn4 2.095311 1_556
O25 S10 1.453895 1_555
O25 Zn4 2.013063 1_556
O26 S11 1.457206 1_555
O26 Zn4 2.011379 1_556
O27 S12 1.454758 1_555
O27 Zn5 2.010454 1_555
O28 S13 1.453528 1_555
O28 Zn5 2.008778 1_555
O29 S14 1.452683 1_555
O29 Zn5 2.034035 1_555
O30 S14 1.559961 1_555
O31 S12 1.557814 1_555
O32 S13 1.576389 1_555
O33 S10 1.521288 1_555
O34 S11 1.515712 1_555
O35 S9 1.512265 1_555
O36 S14 1.469571 1_555
O36 Zn0 2.078275 1_565
O37 S12 1.468285 1_555
O37 Zn0 2.128238 1_665
O38 S13 1.469594 1_555
O38 Zn0 2.090908 1_555
O39 S10 1.457353 1_555
O39 Zn1 2.166719 1_455
O40 S11 1.466753 1_555
O40 Zn1 2.184563 1_465
O41 S9 1.459469 1_555
O41 Zn1 2.180160 1_565
O42 S4 1.544727 1_555
O43 S5 1.546090 1_555
O44 S6 1.547700 1_555
O45 Si2 1.676937 1_555
O46 S7 1.492477 1_555
O47 S8 1.509485 1_555
O48 Si1 1.592358 1_555
O48 Zn2 1.907582 1_555
O49 S2 1.452453 1_555
O49 Zn2 2.130403 1_555
O50 S3 1.450418 1_655
O50 Zn2 2.169401 1_555
O51 S0 1.497225 1_555
O52 S1 1.512517 1_655
O53 Si0 1.664734 1_555
O54 S9 1.556458 1_555
O55 S10 1.549127 1_655
O56 S11 1.540502 1_545
O57 S12 1.476235 1_545
O57 Zn3 2.177241 1_555
O58 S13 1.477135 1_555
O58 Zn3 2.229215 1_555
O59 S14 1.476401 1_655
O59 Zn3 2.133130 1_555
O60 S8 1.453359 1_555
O60 Zn4 2.144118 1_555
O61 Si2 1.594435 1_455
O61 Zn4 1.929889 1_555
O62 S7 1.457011 1_565
O62 Zn4 2.164878 1_555
O63 S5 1.477963 1_565
O63 Zn5 2.087182 1_555
O64 S6 1.477520 1_555
O64 Zn5 2.105188 1_555
O65 S4 1.475861 1_455
O65 Zn5 2.052665 1_555
O66 Si0 1.678470 1_565
O67 S0 1.495153 1_555
O68 S1 1.493791 1_555
O69 S2 1.541334 1_555
O70 S3 1.537394 1_555
O71 Si1 1.700614 1_565
