# generated using pymatgen
data_Na4Zr2Al2Si3(SO8)3
_symmetry_space_group_name_H-M   'P 1'
_cell_length_a   8.91973347
_cell_length_b   8.92198358
_cell_length_c   22.66341998
_cell_angle_alpha   90.12975430
_cell_angle_beta   88.62502292
_cell_angle_gamma   119.96308206
_symmetry_Int_Tables_number   1
_chemical_formula_structural   Na4Zr2Al2Si3(SO8)3
_chemical_formula_sum   'Na12 Zr6 Al6 Si9 S9 O72'
_cell_volume   1561.99054313
_cell_formula_units_Z   3
loop_
 _symmetry_equiv_pos_site_id
 _symmetry_equiv_pos_as_xyz
  1  'x, y, z'
loop_
 _atom_site_type_symbol
 _atom_site_label
 _atom_site_symmetry_multiplicity
 _atom_site_fract_x
 _atom_site_fract_y
 _atom_site_fract_z
 _atom_site_occupancy
  Na  Na0  1  0.00231149  0.64562776  0.25302678  1
  Na  Na1  1  0.99940681  0.35894920  0.74146919  1
  Na  Na2  1  0.66630298  0.97404498  0.58751797  1
  Na  Na3  1  0.67046978  0.69809308  0.08228416  1
  Na  Na4  1  0.33599818  0.30459869  0.90513605  1
  Na  Na5  1  0.32649055  0.02769885  0.42126395  1
  Na  Na6  1  0.00951660  0.00277255  0.50047554  1
  Na  Na7  1  0.98987265  0.98345579  0.99412064  1
  Na  Na8  1  0.65732268  0.33005311  0.82140862  1
  Na  Na9  1  0.66624607  0.34413089  0.33176506  1
  Na  Na10  1  0.33600951  0.67667889  0.16736937  1
  Na  Na11  1  0.33464974  0.66666580  0.65993750  1
  Zr  Zr0  1  0.01174599  0.01439591  0.64556753  1
  Zr  Zr1  1  0.00309606  0.98758886  0.14929805  1
  Zr  Zr2  1  0.67744586  0.34936351  0.97990605  1
  Zr  Zr3  1  0.67658666  0.33957389  0.48376268  1
  Zr  Zr4  1  0.33767510  0.67206522  0.31318419  1
  Zr  Zr5  1  0.35220723  0.66950045  0.80942237  1
  Al  Al0  1  0.00265933  0.96535728  0.34837189  1
  Al  Al1  1  0.97705024  0.98887037  0.84228418  1
  Al  Al2  1  0.64491002  0.29190404  0.68534926  1
  Al  Al3  1  0.67856114  0.34705672  0.19281644  1
  Al  Al4  1  0.33155614  0.67585076  0.01654204  1
  Al  Al5  1  0.28624665  0.66754846  0.52479332  1
  Si  Si0  1  0.30810883  0.01877098  0.25144157  1
  Si  Si1  1  0.70858735  0.70187679  0.25063013  1
  Si  Si2  1  0.29732978  0.27722040  0.75418099  1
  Si  Si3  1  0.71485313  0.01073212  0.74887172  1
  Si  Si4  1  0.95914181  0.34429194  0.58816717  1
  Si  Si5  1  0.37631073  0.03461666  0.58116317  1
  Si  Si6  1  0.97134642  0.61759295  0.08603768  1
  Si  Si7  1  0.63372677  0.68793458  0.91979117  1
  Si  Si8  1  0.03769308  0.67102920  0.41630290  1
  S  S0  1  0.99329821  0.28333563  0.25135261  1
  S  S1  1  0.99318850  0.70890202  0.75314104  1
  S  S2  1  0.65866467  0.61996888  0.58608568  1
  S  S3  1  0.66017739  0.04168366  0.08459743  1
  S  S4  1  0.37663965  0.34013519  0.08412677  1
  S  S5  1  0.05001252  0.37667916  0.91905590  1
  S  S6  1  0.32698780  0.95196838  0.92007234  1
  S  S7  1  0.63591057  0.95584661  0.41714637  1
  S  S8  1  0.32418115  0.37387801  0.41879371  1
  O  O0  1  0.20992242  0.03933438  0.31033202  1
  O  O1  1  0.84046686  0.80398847  0.30383002  1
  O  O2  1  0.97234734  0.17799072  0.30375404  1
  O  O3  1  0.19727879  0.16084879  0.81482099  1
  O  O4  1  0.97503472  0.79795306  0.80633114  1
  O  O5  1  0.83662755  0.03796590  0.80513258  1
  O  O6  1  0.78759251  0.96549404  0.68912360  1
  O  O7  1  0.16885445  0.19794517  0.69817146  1
  O  O8  1  0.02800730  0.81308767  0.69906871  1
  O  O9  1  0.78425632  0.81607300  0.18836829  1
  O  O10  1  0.02137877  0.20932620  0.19608478  1
  O  O11  1  0.17493645  0.97223508  0.19529935  1
  O  O12  1  0.86080549  0.36502138  0.64661311  1
  O  O13  1  0.50279018  0.12901060  0.63612236  1
  O  O14  1  0.63700812  0.51279671  0.63770151  1
  O  O15  1  0.86568521  0.49703822  0.14361652  1
  O  O16  1  0.63943120  0.12606060  0.13707781  1
  O  O17  1  0.48760886  0.36212949  0.13423680  1
  O  O18  1  0.45043602  0.30763775  0.02806608  1
  O  O19  1  0.83980186  0.53131410  0.02925345  1
  O  O20  1  0.68014958  0.14260577  0.02958680  1
  O  O21  1  0.45159052  0.14667976  0.51908646  1
  O  O22  1  0.68966969  0.54498829  0.53041475  1
  O  O23  1  0.83812633  0.30693449  0.52969497  1
  O  O24  1  0.52961467  0.69964093  0.97971923  1
  O  O25  1  0.15935820  0.47066253  0.96984526  1
  O  O26  1  0.30856535  0.84455659  0.97291088  1
  O  O27  1  0.55515267  0.85273085  0.47117165  1
  O  O28  1  0.31179701  0.46504800  0.47115259  1
  O  O29  1  0.16959754  0.70454857  0.47024845  1
  O  O30  1  0.12319838  0.64233485  0.35532177  1
  O  O31  1  0.52101194  0.87140044  0.36515393  1
  O  O32  1  0.35407847  0.47906528  0.36376387  1
  O  O33  1  0.11780753  0.47862446  0.86368051  1
  O  O34  1  0.35271078  0.87534133  0.86579711  1
  O  O35  1  0.50022244  0.63530056  0.86492688  1
  O  O36  1  0.02936753  0.85148345  0.41000322  1
  O  O37  1  0.81032962  0.98089519  0.40620883  1
  O  O38  1  0.16674095  0.20061562  0.41335636  1
  O  O39  1  0.03981643  0.20664295  0.91586283  1
  O  O40  1  0.17579985  0.97549985  0.91782409  1
  O  O41  1  0.82725052  0.85251613  0.90637506  1
  O  O42  1  0.97000460  0.16404878  0.58819869  1
  O  O43  1  0.17967219  0.00023798  0.58706792  1
  O  O44  1  0.81664463  0.79665065  0.58832072  1
  O  O45  1  0.97957548  0.80935642  0.08700227  1
  O  O46  1  0.81895249  0.02270994  0.08606739  1
  O  O47  1  0.19875612  0.18922834  0.08899258  1
  O  O48  1  0.70320720  0.18685039  0.74385119  1
  O  O49  1  0.49037240  0.30912303  0.74076999  1
  O  O50  1  0.83927127  0.53721222  0.74981437  1
  O  O51  1  0.70609295  0.51833891  0.24279899  1
  O  O52  1  0.83840756  0.30535761  0.24562398  1
  O  O53  1  0.49759601  0.18303052  0.23672076  1
  O  O54  1  0.64047985  0.50190284  0.92487387  1
  O  O55  1  0.86946897  0.34707903  0.92560263  1
  O  O56  1  0.48572264  0.12982563  0.92492057  1
  O  O57  1  0.64227680  0.12831098  0.41943314  1
  O  O58  1  0.47850021  0.34690798  0.42019290  1
  O  O59  1  0.84375316  0.50165966  0.41970170  1
  O  O60  1  0.36774662  0.50195854  0.07727779  1
  O  O61  1  0.16239798  0.64086206  0.07153521  1
  O  O62  1  0.50602906  0.86232677  0.07952293  1
  O  O63  1  0.37370892  0.84953318  0.57327478  1
  O  O64  1  0.50738084  0.64291509  0.57813650  1
  O  O65  1  0.15196575  0.50928583  0.57742855  1
  O  O66  1  0.31321633  0.83519641  0.25534831  1
  O  O67  1  0.51367562  0.67201287  0.25511471  1
  O  O68  1  0.14836036  0.46290530  0.25444291  1
  O  O69  1  0.30023322  0.46679924  0.75937268  1
  O  O70  1  0.14731206  0.68374403  0.76018636  1
  O  O71  1  0.51649645  0.84495432  0.75526434  1
loop_
_geom_bond_atom_site_label_1
_geom_bond_atom_site_label_2
_geom_bond_distance
_geom_bond_site_symmetry_2
Na0 O51 2.314204 1_455
Na0 O66 2.423922 1_555
Na0 O68 2.545472 1_555
Na0 O30 2.586549 1_555
Na0 O52 2.637830 1_455
Na0 O1 2.712230 1_455
Na0 O15 2.812022 1_455
Na0 O11 2.830651 1_555
Na1 O48 2.298297 1_555
Na1 O69 2.400415 1_655
Na1 O12 2.519484 1_555
Na1 O70 2.553487 1_655
Na1 O50 2.619248 1_555
Na1 O7 2.720647 1_655
Na1 O5 2.855876 1_555
Na1 O33 2.987877 1_655
Na2 O63 2.300527 1_555
Na2 O42 2.372154 1_565
Na2 O44 2.534750 1_555
Na2 O64 2.571211 1_555
Na2 O6 2.584886 1_555
Na2 O13 2.680006 1_565
Na2 O27 2.854440 1_555
Na2 O23 2.874324 1_565
Na3 O60 2.379106 1_555
Na3 O45 2.424547 1_555
Na3 O46 2.514429 1_565
Na3 O62 2.540484 1_555
Na3 O9 2.637597 1_555
Na3 O24 2.671986 1_554
Na3 O17 2.841074 1_555
Na3 O19 2.844230 1_555
Na4 O39 2.337986 1_555
Na4 O3 2.426929 1_555
Na4 O54 2.440116 1_555
Na4 O56 2.555026 1_555
Na4 O40 2.557152 1_545
Na4 O35 2.704189 1_555
Na5 O36 2.330100 1_545
Na5 O58 2.468098 1_555
Na5 O57 2.492067 1_555
Na5 O21 2.492374 1_555
Na5 O38 2.579148 1_555
Na5 O29 2.722690 1_545
Na5 O0 2.765322 1_555
Na6 O36 2.503253 1_545
Na6 O43 2.516507 1_555
Na6 O38 2.528049 1_555
Na6 O42 2.570447 1_455
Na6 O44 2.645217 1_445
Na6 O37 2.755511 1_445
Na7 O40 2.392642 1_655
Na7 O41 2.420470 1_555
Na7 O39 2.530065 1_665
Na7 O45 2.591394 1_556
Na7 O46 2.677099 1_566
Na7 O47 2.867505 1_666
Na8 O48 2.316702 1_555
Na8 O49 2.333166 1_555
Na8 O50 2.360865 1_555
Na8 O54 2.840553 1_555
Na8 O56 2.855329 1_555
Na8 O55 3.017565 1_555
Na9 O51 2.456720 1_555
Na9 O59 2.523884 1_555
Na9 O52 2.583183 1_555
Na9 O58 2.588731 1_555
Na9 O53 2.636366 1_555
Na9 O57 2.699398 1_555
Na10 O66 2.504435 1_555
Na10 O62 2.523485 1_555
Na10 O67 2.585575 1_555
Na10 O61 2.623247 1_555
Na10 O68 2.646364 1_555
Na10 O60 2.660391 1_555
Na11 O65 2.443843 1_555
Na11 O64 2.458227 1_555
Na11 O63 2.460645 1_555
Na11 O71 2.721042 1_555
Na11 O69 2.791183 1_555
Na11 O70 2.836888 1_555
Al0 O1 1.779828 1_455
Al0 O0 1.817670 1_565
Al0 O36 1.817723 1_555
Al0 O37 2.192995 1_455
Al0 O2 2.286661 1_465
Al0 O38 2.395338 1_565
Al1 O5 1.752130 1_565
Al1 O4 1.878702 1_555
Al1 O3 1.880272 1_665
Al1 O41 1.914763 1_555
Al1 O39 2.410977 1_665
Al1 O40 2.538852 1_655
Al2 O13 1.784399 1_555
Al2 O48 1.852659 1_555
Al2 O12 1.889790 1_555
Al2 O49 1.904952 1_555
Al2 O14 2.281922 1_555
Al2 O50 2.499434 1_555
Al3 O53 1.818561 1_555
Al3 O51 1.819191 1_555
Al3 O15 1.872500 1_555
Al3 O52 2.053625 1_555
Al3 O16 2.219847 1_555
Al3 O17 2.240493 1_555
Al4 O61 1.835330 1_555
Al4 O24 1.848774 1_554
Al4 O26 1.900063 1_554
Al4 O25 2.022651 1_554
Al4 O62 2.176430 1_555
Al4 O60 2.221983 1_555
Al5 O65 1.760993 1_555
Al5 O29 1.768153 1_555
Al5 O63 1.794423 1_555
Al5 O28 2.276413 1_555
Al5 O27 2.422900 1_555
Al5 O64 2.439075 1_555
O0 Si0 1.638685 1_555
O1 Si1 1.630963 1_555
O2 S0 1.465486 1_555
O3 Si2 1.668895 1_555
O4 S1 1.491787 1_555
O5 Si3 1.632814 1_555
O6 Si3 1.623078 1_565
O6 Zr0 2.048954 1_665
O7 Si2 1.637348 1_555
O7 Zr0 1.961104 1_555
O8 S1 1.469963 1_455
O8 Zr0 2.235091 1_565
O9 Si1 1.660912 1_555
O9 Zr1 1.968626 1_655
O10 S0 1.487968 1_455
O10 Zr1 2.177449 1_545
O11 Si0 1.667285 1_565
O11 Zr1 1.934457 1_555
O12 Si4 1.631953 1_555
O13 Si5 1.626984 1_555
O14 S2 1.459364 1_555
O15 Si6 1.637909 1_555
O16 S3 1.462921 1_555
O17 S4 1.472038 1_555
O18 S4 1.510108 1_555
O18 Zr2 2.138409 1_554
O19 Si6 1.670701 1_555
O19 Zr2 1.924708 1_554
O20 S3 1.493664 1_555
O20 Zr2 2.174015 1_554
O21 Si5 1.649315 1_555
O21 Zr3 2.027192 1_555
O22 S2 1.510006 1_555
O22 Zr3 2.067319 1_555
O23 Si4 1.655182 1_555
O23 Zr3 1.933158 1_555
O24 Si7 1.659414 1_555
O25 S5 1.487251 1_555
O26 S6 1.489247 1_555
O27 S7 1.471474 1_555
O28 S8 1.470045 1_555
O29 Si8 1.638399 1_555
O30 Si8 1.643203 1_555
O30 Zr4 2.012161 1_555
O31 S7 1.512974 1_555
O31 Zr4 2.098161 1_555
O32 S8 1.498875 1_555
O32 Zr4 2.137561 1_555
O33 S5 1.478961 1_555
O33 Zr5 2.261226 1_555
O34 S6 1.473916 1_555
O34 Zr5 2.233063 1_555
O35 Si7 1.641489 1_555
O35 Zr5 1.975447 1_555
O36 Si8 1.654995 1_555
O37 S7 1.471821 1_555
O38 S8 1.488605 1_555
O39 S5 1.475460 1_555
O40 S6 1.466777 1_555
O41 Si7 1.635017 1_555
O42 Si4 1.658647 1_555
O42 Zr0 2.034576 1_655
O43 Si5 1.624781 1_555
O43 Zr0 2.027366 1_555
O44 S2 1.502454 1_555
O44 Zr0 2.281622 1_665
O45 Si6 1.675573 1_555
O45 Zr1 2.058347 1_655
O46 S3 1.509054 1_555
O46 Zr1 2.340659 1_645
O47 S4 1.483522 1_555
O47 Zr1 2.216017 1_545
O48 Si3 1.630098 1_555
O49 Si2 1.619880 1_555
O50 S1 1.463133 1_555
O51 Si1 1.635834 1_555
O52 S0 1.498034 1_555
O53 Si0 1.617615 1_555
O54 Si7 1.694935 1_555
O54 Zr2 1.998032 1_555
O55 S5 1.499680 1_655
O55 Zr2 2.093395 1_555
O56 S6 1.515668 1_545
O56 Zr2 2.249289 1_555
O57 S7 1.511980 1_545
O57 Zr3 2.281396 1_555
O58 S8 1.512149 1_555
O58 Zr3 2.332351 1_555
O59 Si8 1.632455 1_655
O59 Zr3 2.043081 1_555
O60 S4 1.493622 1_555
O61 Si6 1.635610 1_455
O62 S3 1.507786 1_565
O63 Si5 1.649216 1_565
O64 S2 1.477520 1_555
O65 Si4 1.623854 1_455
O66 Si0 1.663685 1_565
O66 Zr4 2.055133 1_555
O67 Si1 1.622604 1_555
O67 Zr4 2.024374 1_555
O68 S0 1.508440 1_455
O68 Zr4 2.248367 1_555
O69 Si2 1.682529 1_555
O69 Zr5 1.987632 1_555
O70 S1 1.511527 1_455
O70 Zr5 2.220800 1_555
O71 Si3 1.647333 1_565
O71 Zr5 1.932724 1_555
