# generated using pymatgen
data_Na2MgV2Cd2O8
_symmetry_space_group_name_H-M   'P 1'
_cell_length_a   6.08278357
_cell_length_b   6.08278353
_cell_length_c   6.88059739
_cell_angle_alpha   90.00000000
_cell_angle_beta   90.00000000
_cell_angle_gamma   119.84978012
_symmetry_Int_Tables_number   1
_chemical_formula_structural   Na2MgV2Cd2O8
_chemical_formula_sum   'Na2 Mg1 V2 Cd2 O8'
_cell_volume   220.80907236
_cell_formula_units_Z   1
loop_
 _symmetry_equiv_pos_site_id
 _symmetry_equiv_pos_as_xyz
  1  'x, y, z'
loop_
 _atom_site_type_symbol
 _atom_site_label
 _atom_site_symmetry_multiplicity
 _atom_site_fract_x
 _atom_site_fract_y
 _atom_site_fract_z
 _atom_site_occupancy
  Na  Na0  1  0.55698516  0.44301484  0.96803706  1
  Na  Na1  1  0.55698516  0.44301484  0.53196294  1
  Mg  Mg0  1  0.36337605  0.63662395  0.25000000  1
  V  V0  1  0.88335980  0.11664020  0.75000000  1
  V  V1  1  0.09410358  0.90589642  0.25000000  1
  Cd  Cd0  1  0.19422428  0.80577572  0.75000000  1
  Cd  Cd1  1  0.82276641  0.17723359  0.25000000  1
  O  O0  1  0.72940653  0.75777318  0.25000000  1
  O  O1  1  0.24222682  0.27059347  0.25000000  1
  O  O2  1  0.22601572  0.77398428  0.44761231  1
  O  O3  1  0.22601572  0.77398428  0.05238769  1
  O  O4  1  0.77642795  0.22357205  0.55223866  1
  O  O5  1  0.77642795  0.22357205  0.94776134  1
  O  O6  1  0.21030669  0.24196081  0.75000000  1
  O  O7  1  0.75803919  0.78969331  0.75000000  1
loop_
_geom_bond_atom_site_label_1
_geom_bond_atom_site_label_2
_geom_bond_distance
_geom_bond_site_symmetry_2
Na0 O5 2.314438 1_555
Na0 O7 2.371919 1_555
Na0 O6 2.371919 1_555
Na0 O0 2.555518 1_556
Na0 O1 2.555518 1_556
Na1 O4 2.314438 1_555
Na1 O7 2.371919 1_555
Na1 O6 2.371919 1_555
Na1 O0 2.555518 1_555
Na1 O1 2.555518 1_555
Mg0 O1 1.966468 1_555
Mg0 O0 1.966468 1_555
Mg0 O3 1.984927 1_555
Mg0 O2 1.984927 1_555
Cd0 O3 2.107356 1_556
Cd0 O2 2.107356 1_555
Cd0 O6 2.605911 1_565
Cd0 O7 2.605911 1_455
Cd1 O5 2.136036 1_554
Cd1 O4 2.136036 1_555
Cd1 O0 2.321682 1_545
Cd1 O1 2.321682 1_655
O0 V1 1.934763 1_655
O1 V1 1.934763 1_545
O2 V1 1.943537 1_555
O3 V1 1.943537 1_555
O4 V0 1.766028 1_555
O5 V0 1.766028 1_555
O6 V0 1.739852 1_455
O7 V0 1.739852 1_565
