# generated using pymatgen
data_In(FeO2)2
_symmetry_space_group_name_H-M   'P 1'
_cell_length_a   8.91142962
_cell_length_b   8.91142962
_cell_length_c   8.91142950
_cell_angle_alpha   22.01095321
_cell_angle_beta   22.01095321
_cell_angle_gamma   22.01095226
_symmetry_Int_Tables_number   1
_chemical_formula_structural   In(FeO2)2
_chemical_formula_sum   'In1 Fe2 O4'
_cell_volume   87.14468104
_cell_formula_units_Z   1
loop_
 _symmetry_equiv_pos_site_id
 _symmetry_equiv_pos_as_xyz
  1  'x, y, z'
loop_
 _atom_site_type_symbol
 _atom_site_label
 _atom_site_symmetry_multiplicity
 _atom_site_fract_x
 _atom_site_fract_y
 _atom_site_fract_z
 _atom_site_occupancy
  In  In0  1  0.00000000  0.00000000  0.00000000  1
  Fe  Fe0  1  0.78506900  0.78506900  0.78506900  1
  Fe  Fe1  1  0.21493100  0.21493100  0.21493100  1
  O  O0  1  0.70783300  0.70783300  0.70783300  1
  O  O1  1  0.29216700  0.29216700  0.29216700  1
  O  O2  1  0.87059500  0.87059500  0.87059500  1
  O  O3  1  0.12940500  0.12940500  0.12940500  1
loop_
_geom_bond_atom_site_label_1
_geom_bond_atom_site_label_2
_geom_bond_distance
_geom_bond_site_symmetry_2
In0 O0 2.238574 1_445
In0 O1 2.238574 1_554
In0 O0 2.238574 1_454
In0 O0 2.238574 1_544
In0 O1 2.238574 1_455
In0 O1 2.238574 1_545
Fe0 O3 1.985238 1_566
Fe0 O3 1.985238 1_656
Fe0 O3 1.985238 1_665
Fe0 O0 2.014057 1_555
Fe0 O2 2.230233 1_555
Fe1 O2 1.985238 1_544
Fe1 O2 1.985238 1_454
Fe1 O2 1.985238 1_445
Fe1 O1 2.014057 1_555
Fe1 O3 2.230233 1_555
