# generated using pymatgen
data_V3P4O15
_symmetry_space_group_name_H-M   'P 1'
_cell_length_a   5.33217500
_cell_length_b   12.40073100
_cell_length_c   17.77819700
_cell_angle_alpha   90.00000000
_cell_angle_beta   90.00000000
_cell_angle_gamma   90.00000000
_symmetry_Int_Tables_number   1
_chemical_formula_structural   V3P4O15
_chemical_formula_sum   'V12 P16 O60'
_cell_volume   1175.54537031
_cell_formula_units_Z   4
loop_
 _symmetry_equiv_pos_site_id
 _symmetry_equiv_pos_as_xyz
  1  'x, y, z'
loop_
 _atom_site_type_symbol
 _atom_site_label
 _atom_site_symmetry_multiplicity
 _atom_site_fract_x
 _atom_site_fract_y
 _atom_site_fract_z
 _atom_site_occupancy
  V  V0  1  0.25457500  0.47972400  0.37553700  1
  V  V1  1  0.75457500  0.52027600  0.12446300  1
  V  V2  1  0.74542500  0.97972400  0.62446300  1
  V  V3  1  0.24542500  0.02027600  0.87553700  1
  V  V4  1  0.74542500  0.52027600  0.62446300  1
  V  V5  1  0.24542500  0.47972400  0.87553700  1
  V  V6  1  0.25457500  0.02027600  0.37553700  1
  V  V7  1  0.75457500  0.97972400  0.12446300  1
  V  V8  1  0.98794700  0.75000000  0.67161900  1
  V  V9  1  0.48794700  0.25000000  0.82838100  1
  V  V10  1  0.01205300  0.25000000  0.32838100  1
  V  V11  1  0.51205300  0.75000000  0.17161900  1
  P  P0  1  0.26042000  0.37364800  0.19468600  1
  P  P1  1  0.76042000  0.62635200  0.30531400  1
  P  P2  1  0.73958000  0.87364800  0.80531400  1
  P  P3  1  0.23958000  0.12635200  0.69468600  1
  P  P4  1  0.73958000  0.62635200  0.80531400  1
  P  P5  1  0.23958000  0.37364800  0.69468600  1
  P  P6  1  0.26042000  0.12635200  0.19468600  1
  P  P7  1  0.76042000  0.87364800  0.30531400  1
  P  P8  1  0.73853400  0.36759100  0.46353400  1
  P  P9  1  0.23853400  0.63240900  0.03646600  1
  P  P10  1  0.26146600  0.86759100  0.53646600  1
  P  P11  1  0.76146600  0.13240900  0.96353400  1
  P  P12  1  0.26146600  0.63240900  0.53646600  1
  P  P13  1  0.76146600  0.36759100  0.96353400  1
  P  P14  1  0.73853400  0.13240900  0.46353400  1
  P  P15  1  0.23853400  0.86759100  0.03646600  1
  O  O0  1  0.73083300  0.75000000  0.83337000  1
  O  O1  1  0.23083300  0.25000000  0.66663000  1
  O  O2  1  0.26916700  0.25000000  0.16663000  1
  O  O3  1  0.76916700  0.75000000  0.33337000  1
  O  O4  1  0.23899500  0.75000000  0.72146000  1
  O  O5  1  0.73899500  0.25000000  0.77854000  1
  O  O6  1  0.76100500  0.25000000  0.27854000  1
  O  O7  1  0.26100500  0.75000000  0.22146000  1
  O  O8  1  0.24669500  0.75000000  0.99808500  1
  O  O9  1  0.74669500  0.25000000  0.50191500  1
  O  O10  1  0.75330500  0.25000000  0.00191500  1
  O  O11  1  0.25330500  0.75000000  0.49808500  1
  O  O12  1  0.72031900  0.44703400  0.02549000  1
  O  O13  1  0.22031900  0.55296600  0.47451000  1
  O  O14  1  0.27968100  0.94703400  0.97451000  1
  O  O15  1  0.77968100  0.05296600  0.52549000  1
  O  O16  1  0.27968100  0.55296600  0.97451000  1
  O  O17  1  0.77968100  0.44703400  0.52549000  1
  O  O18  1  0.72031900  0.05296600  0.02549000  1
  O  O19  1  0.22031900  0.94703400  0.47451000  1
  O  O20  1  0.50660600  0.42610200  0.17474100  1
  O  O21  1  0.49406000  0.37476800  0.42000800  1
  O  O22  1  0.00660600  0.57389800  0.32525900  1
  O  O23  1  0.99339400  0.07389800  0.67474100  1
  O  O24  1  0.49339400  0.57389800  0.82525900  1
  O  O25  1  0.99339400  0.42610200  0.67474100  1
  O  O26  1  0.50660600  0.07389800  0.17474100  1
  O  O27  1  0.00660600  0.92610200  0.32525900  1
  O  O28  1  0.53533500  0.92483600  0.34173400  1
  O  O29  1  0.03533500  0.07516400  0.15826600  1
  O  O30  1  0.46466500  0.42483600  0.65826600  1
  O  O31  1  0.96466500  0.57516400  0.84173400  1
  O  O32  1  0.46466500  0.07516400  0.65826600  1
  O  O33  1  0.96466500  0.92483600  0.84173400  1
  O  O34  1  0.53533500  0.57516400  0.34173400  1
  O  O35  1  0.03533500  0.42483600  0.15826600  1
  O  O36  1  0.46675900  0.86738600  0.09299400  1
  O  O37  1  0.96675900  0.13261400  0.40700600  1
  O  O38  1  0.53324100  0.36738600  0.90700600  1
  O  O39  1  0.03324100  0.63261400  0.59299400  1
  O  O40  1  0.53324100  0.13261400  0.90700600  1
  O  O41  1  0.03324100  0.86738600  0.59299400  1
  O  O42  1  0.46675900  0.63261400  0.09299400  1
  O  O43  1  0.96675900  0.36738600  0.40700600  1
  O  O44  1  0.73082100  0.86675500  0.21730200  1
  O  O45  1  0.23082100  0.13324500  0.28269800  1
  O  O46  1  0.26917900  0.36675500  0.78269800  1
  O  O47  1  0.76917900  0.63324500  0.71730200  1
  O  O48  1  0.26917900  0.13324500  0.78269800  1
  O  O49  1  0.76917900  0.86675500  0.71730200  1
  O  O50  1  0.73082100  0.63324500  0.21730200  1
  O  O51  1  0.23082100  0.36675500  0.28269800  1
  O  O52  1  0.99406000  0.87476800  0.07999200  1
  O  O53  1  0.49406000  0.12523200  0.42000800  1
  O  O54  1  0.00594000  0.37476800  0.92000800  1
  O  O55  1  0.50594000  0.62523200  0.57999200  1
  O  O56  1  0.00594000  0.12523200  0.92000800  1
  O  O57  1  0.50594000  0.87476800  0.57999200  1
  O  O58  1  0.99406000  0.62523200  0.07999200  1
  O  O59  1  0.49339400  0.92610200  0.82525900  1
loop_
_geom_bond_atom_site_label_1
_geom_bond_atom_site_label_2
_geom_bond_distance
_geom_bond_site_symmetry_2
O0 P2 1.613087 1_555
O0 P4 1.613087 1_555
O1 P5 1.613087 1_555
O1 P3 1.613087 1_555
O2 P0 1.613087 1_555
O2 P6 1.613087 1_555
O3 P1 1.613087 1_555
O3 P7 1.613087 1_555
O4 V8 1.605328 1_455
O5 V9 1.605328 1_555
O6 V10 1.605328 1_655
O7 V11 1.605328 1_555
O8 P9 1.610552 1_556
O8 P15 1.610552 1_556
O9 P8 1.610552 1_555
O9 P14 1.610552 1_555
O10 P11 1.610552 1_554
O10 P13 1.610552 1_554
O11 P12 1.610552 1_555
O11 P10 1.610552 1_555
O12 P13 1.493950 1_554
O12 V1 1.988554 1_555
O13 P12 1.493950 1_555
O13 V0 1.988554 1_555
O14 P15 1.493950 1_556
O14 V3 1.988554 1_565
O15 P14 1.493950 1_555
O15 V2 1.988554 1_545
O16 P9 1.493950 1_556
O16 V5 1.988554 1_555
O17 P8 1.493950 1_555
O17 V4 1.988554 1_555
O18 P11 1.493950 1_554
O18 V7 1.988554 1_545
O19 P10 1.493950 1_555
O19 V6 1.988554 1_565
O20 P0 1.507328 1_555
O20 V1 1.977635 1_555
O21 P8 1.518560 1_555
O21 V0 1.987391 1_555
O22 P1 1.507328 1_455
O22 V0 1.977635 1_555
O23 P3 1.507328 1_655
O23 V2 1.977635 1_545
O24 P4 1.507328 1_555
O24 V5 1.977635 1_555
O25 P5 1.507328 1_655
O25 V4 1.977635 1_555
O26 P6 1.507328 1_555
O26 V7 1.977635 1_545
O27 P7 1.507328 1_455
O27 V6 1.977635 1_565
O28 P7 1.504203 1_555
O28 V6 2.000769 1_565
O29 P6 1.504203 1_555
O29 V7 2.000769 1_445
O30 P5 1.504203 1_555
O30 V4 2.000769 1_555
O31 P4 1.504203 1_555
O31 V5 2.000769 1_655
O32 P3 1.504203 1_555
O32 V2 2.000769 1_545
O33 P2 1.504203 1_555
O33 V3 2.000769 1_665
O34 P1 1.504203 1_555
O34 V0 2.000769 1_555
O35 P0 1.504203 1_555
O35 V1 2.000769 1_455
O36 P15 1.578257 1_555
O36 V11 2.032532 1_555
O36 V7 2.146837 1_555
O37 P14 1.578257 1_555
O37 V10 2.032532 1_655
O37 V6 2.146837 1_655
O38 P13 1.578257 1_555
O38 V9 2.032532 1_555
O38 V5 2.146837 1_555
O39 P12 1.578257 1_555
O39 V8 2.032532 1_455
O39 V4 2.146837 1_455
O40 P11 1.578257 1_555
O40 V9 2.032532 1_555
O40 V3 2.146837 1_555
O41 P10 1.578257 1_555
O41 V8 2.032532 1_455
O41 V2 2.146837 1_455
O42 P9 1.578257 1_555
O42 V11 2.032532 1_555
O42 V1 2.146837 1_555
O43 P8 1.578257 1_555
O43 V10 2.032532 1_655
O43 V0 2.146837 1_655
O44 P7 1.574956 1_555
O44 V11 2.028944 1_555
O44 V7 2.168581 1_555
O45 P6 1.574956 1_555
O45 V10 2.028944 1_555
O45 V6 2.168581 1_555
O46 P5 1.574956 1_555
O46 V9 2.028944 1_555
O46 V5 2.168581 1_555
O47 P4 1.574956 1_555
O47 V8 2.028944 1_555
O47 V4 2.168581 1_555
O48 P3 1.574956 1_555
O48 V9 2.028944 1_555
O48 V3 2.168581 1_555
O49 P2 1.574956 1_555
O49 V8 2.028944 1_555
O49 V2 2.168581 1_555
O50 P1 1.574956 1_555
O50 V11 2.028944 1_555
O50 V1 2.168581 1_555
O51 P0 1.574956 1_555
O51 V10 2.028944 1_555
O51 V0 2.168581 1_555
O52 P15 1.518560 1_655
O52 V7 1.987391 1_555
O53 P14 1.518560 1_555
O53 V6 1.987391 1_555
O54 P13 1.518560 1_455
O54 V5 1.987391 1_555
O55 P12 1.518560 1_555
O55 V4 1.987391 1_555
O56 P11 1.518560 1_455
O56 V3 1.987391 1_555
O57 P10 1.518560 1_555
O57 V2 1.987391 1_555
O58 P9 1.518560 1_655
O58 V1 1.987391 1_555
O59 P2 1.507328 1_555
O59 V3 1.977635 1_565
