# generated using pymatgen
data_MgZr3P2(SO6)4
_symmetry_space_group_name_H-M   'P 1'
_cell_length_a   8.92131995
_cell_length_b   8.93634502
_cell_length_c   22.99976367
_cell_angle_alpha   90.01031195
_cell_angle_beta   89.97176102
_cell_angle_gamma   120.01094895
_symmetry_Int_Tables_number   1
_chemical_formula_structural   MgZr3P2(SO6)4
_chemical_formula_sum   'Mg3 Zr9 P6 S12 O72'
_cell_volume   1587.79733487
_cell_formula_units_Z   3
loop_
 _symmetry_equiv_pos_site_id
 _symmetry_equiv_pos_as_xyz
  1  'x, y, z'
loop_
 _atom_site_type_symbol
 _atom_site_label
 _atom_site_symmetry_multiplicity
 _atom_site_fract_x
 _atom_site_fract_y
 _atom_site_fract_z
 _atom_site_occupancy
  Mg  Mg0  1  0.99273482  0.99982780  0.35377584  1
  Mg  Mg1  1  0.67506137  0.33607104  0.68750892  1
  Mg  Mg2  1  0.66128088  0.33551252  0.18758185  1
  Zr  Zr0  1  0.00084417  0.00022191  0.85907519  1
  Zr  Zr1  1  0.99890543  0.00543354  0.64344319  1
  Zr  Zr2  1  0.00602029  0.00671692  0.14441859  1
  Zr  Zr3  1  0.65804870  0.33118864  0.97675170  1
  Zr  Zr4  1  0.67350420  0.32567546  0.47584515  1
  Zr  Zr5  1  0.33307706  0.66064800  0.02253422  1
  Zr  Zr6  1  0.33552592  0.66628943  0.52105789  1
  Zr  Zr7  1  0.34101303  0.67480628  0.30843737  1
  Zr  Zr8  1  0.33175851  0.66637436  0.81360135  1
  P  P0  1  0.95301380  0.33726234  0.58551325  1
  P  P1  1  0.38434260  0.33494879  0.08600678  1
  P  P2  1  0.61997561  0.66609226  0.91674472  1
  P  P3  1  0.04334644  0.37951586  0.91710911  1
  P  P4  1  0.33405542  0.95251355  0.91736954  1
  P  P5  1  0.62769598  0.95159372  0.41549255  1
  S  S0  1  0.29103493  0.00767900  0.25139928  1
  S  S1  1  0.71748016  0.70843429  0.25067582  1
  S  S2  1  0.99329179  0.28674728  0.25123387  1
  S  S3  1  0.29552697  0.28973145  0.74933574  1
  S  S4  1  0.99513626  0.70691171  0.74924490  1
  S  S5  1  0.71006250  0.00463751  0.74967684  1
  S  S6  1  0.38129080  0.04708792  0.58495586  1
  S  S7  1  0.66611036  0.61759338  0.58476336  1
  S  S8  1  0.95235160  0.61902065  0.08526856  1
  S  S9  1  0.66589349  0.04714637  0.08523833  1
  S  S10  1  0.32934604  0.37275634  0.41565828  1
  S  S11  1  0.04604084  0.67339125  0.41546959  1
  O  O0  1  0.20682907  0.02724204  0.30265457  1
  O  O1  1  0.82010726  0.79157331  0.30224399  1
  O  O2  1  0.97216923  0.18087768  0.30202231  1
  O  O3  1  0.20889743  0.18062164  0.80098768  1
  O  O4  1  0.97302643  0.79311568  0.80126760  1
  O  O5  1  0.81988612  0.02790326  0.80116068  1
  O  O6  1  0.79408741  0.97278589  0.69776064  1
  O  O7  1  0.17914819  0.20527853  0.69751974  1
  O  O8  1  0.02665255  0.82154741  0.69752406  1
  O  O9  1  0.79261475  0.82138295  0.19810970  1
  O  O10  1  0.02877539  0.20774027  0.19825410  1
  O  O11  1  0.17794654  0.97104776  0.19843834  1
  O  O12  1  0.87009544  0.36351725  0.63811675  1
  O  O13  1  0.48588380  0.12482010  0.63614395  1
  O  O14  1  0.63682213  0.51287815  0.63613865  1
  O  O15  1  0.87553644  0.51309888  0.13624516  1
  O  O16  1  0.64002341  0.12578718  0.13633338  1
  O  O17  1  0.49356970  0.36248196  0.13855278  1
  O  O18  1  0.46253182  0.30386017  0.02985134  1
  O  O19  1  0.84787552  0.54292417  0.03166646  1
  O  O20  1  0.69728991  0.15275656  0.03169263  1
  O  O21  1  0.45640484  0.15373173  0.53159488  1
  O  O22  1  0.69431487  0.54165015  0.53131067  1
  O  O23  1  0.84064032  0.30475546  0.52969970  1
  O  O24  1  0.53834046  0.69808973  0.97040007  1
  O  O25  1  0.15919773  0.46251295  0.97033025  1
  O  O26  1  0.30324043  0.84000914  0.97086659  1
  O  O27  1  0.53237525  0.84044502  0.47007184  1
  O  O28  1  0.30499307  0.45824181  0.46862421  1
  O  O29  1  0.15231059  0.69362977  0.46857483  1
  O  O30  1  0.12460420  0.63599704  0.36461138  1
  O  O31  1  0.50319237  0.86522610  0.36316143  1
  O  O32  1  0.36164845  0.48777062  0.36485597  1
  O  O33  1  0.12928103  0.49184748  0.86237719  1
  O  O34  1  0.36212815  0.86949515  0.86219560  1
  O  O35  1  0.50733971  0.63728401  0.86212088  1
  O  O36  1  0.02681741  0.82291654  0.40740677  1
  O  O37  1  0.80463034  0.97576576  0.40659758  1
  O  O38  1  0.17975980  0.20344207  0.40753221  1
  O  O39  1  0.02551507  0.20104166  0.90617865  1
  O  O40  1  0.17587916  0.97489364  0.90638800  1
  O  O41  1  0.79969594  0.82536232  0.90634766  1
  O  O42  1  0.97602055  0.17559726  0.59347565  1
  O  O43  1  0.20407679  0.02378348  0.59245955  1
  O  O44  1  0.82023195  0.79434174  0.59255694  1
  O  O45  1  0.97362007  0.79513943  0.09287644  1
  O  O46  1  0.81993173  0.02360923  0.09267822  1
  O  O47  1  0.19853774  0.17431062  0.09362193  1
  O  O48  1  0.69060942  0.15399726  0.74042552  1
  O  O49  1  0.46403310  0.30798498  0.73939903  1
  O  O50  1  0.84416668  0.53795696  0.74081250  1
  O  O51  1  0.69181167  0.53700140  0.24097575  1
  O  O52  1  0.84613110  0.30962634  0.23976453  1
  O  O53  1  0.46311311  0.15210942  0.24094432  1
  O  O54  1  0.64320379  0.50922160  0.92538073  1
  O  O55  1  0.86472346  0.35803135  0.92683960  1
  O  O56  1  0.49298690  0.13232547  0.92507310  1
  O  O57  1  0.63698816  0.12922690  0.42608571  1
  O  O58  1  0.48798375  0.36122621  0.42660601  1
  O  O59  1  0.87256495  0.51578949  0.42544282  1
  O  O60  1  0.35603553  0.48971625  0.07401534  1
  O  O61  1  0.12838110  0.64398538  0.07540422  1
  O  O62  1  0.51380720  0.87268251  0.07538964  1
  O  O63  1  0.35737686  0.87185539  0.57477530  1
  O  O64  1  0.51431963  0.64247465  0.57503870  1
  O  O65  1  0.13541028  0.49121760  0.57197085  1
  O  O66  1  0.30461663  0.84525542  0.25853308  1
  O  O67  1  0.53940971  0.69148356  0.25876964  1
  O  O68  1  0.15413942  0.46178847  0.25961514  1
  O  O69  1  0.30737309  0.46016722  0.75722086  1
  O  O70  1  0.15319139  0.69305277  0.75741241  1
  O  O71  1  0.53935656  0.84586305  0.75731796  1
loop_
_geom_bond_atom_site_label_1
_geom_bond_atom_site_label_2
_geom_bond_distance
_geom_bond_site_symmetry_2
Mg0 O37 1.993856 1_555
Mg0 O2 2.089510 1_565
Mg0 O1 2.091396 1_555
Mg0 O38 2.141880 1_665
Mg0 O36 2.143660 1_655
Mg0 O0 2.149511 1_665
Mg1 O12 1.987307 1_555
Mg1 O50 2.076587 1_555
Mg1 O48 2.091533 1_555
Mg1 O14 2.132843 1_555
Mg1 O49 2.134697 1_555
Mg1 O13 2.149859 1_555
Mg2 O17 1.982625 1_555
Mg2 O51 2.081657 1_555
Mg2 O53 2.101932 1_555
Mg2 O15 2.128441 1_555
Mg2 O16 2.140497 1_555
Mg2 O52 2.144105 1_555
O0 S0 1.454319 1_555
O1 S1 1.455088 1_555
O2 S2 1.454971 1_555
O3 S3 1.484927 1_555
O3 Zr0 2.198642 1_555
O4 S4 1.488427 1_555
O4 Zr0 2.189671 1_665
O5 S5 1.484114 1_555
O5 Zr0 2.200779 1_655
O6 S5 1.510348 1_565
O6 Zr1 2.109331 1_565
O7 S3 1.511585 1_555
O7 Zr1 2.109616 1_455
O8 S4 1.501849 1_455
O8 Zr1 2.171801 1_465
O9 S1 1.500879 1_555
O9 Zr2 2.176426 1_665
O10 S2 1.518676 1_455
O10 Zr2 2.106207 1_555
O11 S0 1.509791 1_565
O11 Zr2 2.118707 1_565
O12 P0 1.496222 1_555
O13 S6 1.446265 1_555
O14 S7 1.447643 1_555
O15 S8 1.446013 1_555
O16 S9 1.445634 1_555
O17 P1 1.493951 1_555
O18 P1 1.557155 1_555
O18 Zr3 2.040962 1_554
O19 S8 1.489247 1_555
O19 Zr3 2.199826 1_554
O20 S9 1.490465 1_555
O20 Zr3 2.195770 1_554
O21 S6 1.491406 1_555
O21 Zr4 2.185774 1_555
O22 S7 1.485101 1_555
O22 Zr4 2.242267 1_555
O23 P0 1.564330 1_555
O23 Zr4 2.018226 1_555
O24 P2 1.530484 1_555
O24 Zr5 2.070788 1_556
O25 P3 1.533224 1_555
O25 Zr5 2.058284 1_556
O26 P4 1.524442 1_555
O26 Zr5 2.116570 1_556
O27 P5 1.562048 1_555
O27 Zr6 2.036158 1_555
O28 S10 1.510046 1_555
O28 Zr6 2.116136 1_555
O29 S11 1.500972 1_555
O29 Zr6 2.142423 1_555
O30 S11 1.484762 1_555
O30 Zr7 2.201100 1_555
O31 P5 1.556120 1_555
O31 Zr7 2.027649 1_555
O32 S10 1.486102 1_555
O32 Zr7 2.195482 1_555
O33 P3 1.552329 1_555
O33 Zr8 2.033311 1_555
O34 P4 1.551983 1_555
O34 Zr8 2.031002 1_555
O35 P2 1.548144 1_555
O35 Zr8 2.043459 1_555
O36 S11 1.441739 1_555
O37 P5 1.496247 1_555
O38 S10 1.444112 1_555
O39 P3 1.542184 1_555
O39 Zr0 2.011745 1_555
O40 P4 1.542010 1_555
O40 Zr0 2.007265 1_565
O41 P2 1.539680 1_555
O41 Zr0 2.009421 1_665
O42 P0 1.568300 1_555
O42 Zr1 1.996550 1_555
O43 S6 1.497681 1_555
O43 Zr1 2.109496 1_455
O44 S7 1.498373 1_555
O44 Zr1 2.112397 1_565
O45 S8 1.498284 1_555
O45 Zr2 2.125217 1_665
O46 S9 1.500468 1_555
O46 Zr2 2.108968 1_655
O47 P1 1.567984 1_555
O47 Zr2 1.995833 1_555
O48 S5 1.445252 1_555
O49 S3 1.446761 1_555
O50 S4 1.448165 1_555
O51 S1 1.448509 1_555
O52 S2 1.450476 1_555
O53 S0 1.448479 1_555
O54 P2 1.529155 1_555
O54 Zr3 2.038700 1_555
O55 P3 1.523145 1_655
O55 Zr3 2.081007 1_555
O56 P4 1.531285 1_545
O56 Zr3 2.030399 1_555
O57 P5 1.566617 1_545
O57 Zr4 1.981250 1_555
O58 S10 1.491042 1_555
O58 Zr4 2.156556 1_555
O59 S11 1.500238 1_655
O59 Zr4 2.089148 1_555
O60 P1 1.549928 1_555
O60 Zr5 2.022638 1_555
O61 S8 1.488842 1_455
O61 Zr5 2.135777 1_555
O62 S9 1.485616 1_565
O62 Zr5 2.147747 1_555
O63 S6 1.489372 1_565
O63 Zr6 2.140147 1_555
O64 S7 1.494913 1_555
O64 Zr6 2.114855 1_555
O65 P0 1.548503 1_455
O65 Zr6 2.052007 1_555
O66 S0 1.524602 1_565
O66 Zr7 2.058813 1_555
O67 S1 1.529811 1_555
O67 Zr7 2.047956 1_555
O68 S2 1.515887 1_455
O68 Zr7 2.119066 1_555
O69 S3 1.484154 1_555
O69 Zr8 2.173232 1_555
O70 S4 1.487904 1_455
O70 Zr8 2.155654 1_555
O71 S5 1.483794 1_565
O71 Zr8 2.169175 1_555
