# generated using pymatgen
data_K2Sb4O11
_symmetry_space_group_name_H-M   'P 1'
_cell_length_a   10.45297363
_cell_length_b   10.45297363
_cell_length_c   7.18537708
_cell_angle_alpha   85.63936790
_cell_angle_beta   85.63936790
_cell_angle_gamma   42.46477409
_symmetry_Int_Tables_number   1
_chemical_formula_structural   K2Sb4O11
_chemical_formula_sum   'K4 Sb8 O22'
_cell_volume   528.28874975
_cell_formula_units_Z   2
loop_
 _symmetry_equiv_pos_site_id
 _symmetry_equiv_pos_as_xyz
  1  'x, y, z'
loop_
 _atom_site_type_symbol
 _atom_site_label
 _atom_site_symmetry_multiplicity
 _atom_site_fract_x
 _atom_site_fract_y
 _atom_site_fract_z
 _atom_site_occupancy
  K  K0  1  0.75888107  0.75888107  0.00364774  1
  K  K1  1  0.24111893  0.24111893  0.99635226  1
  K  K2  1  0.98775372  0.98775372  0.26186199  1
  K  K3  1  0.01224628  0.01224628  0.73813801  1
  Sb  Sb0  1  0.42799773  0.42799773  0.09658552  1
  Sb  Sb1  1  0.57200227  0.57200227  0.90341448  1
  Sb  Sb2  1  0.42450899  0.42450899  0.61580497  1
  Sb  Sb3  1  0.57549101  0.57549101  0.38419503  1
  Sb  Sb4  1  0.58295215  0.06782373  0.43451449  1
  Sb  Sb5  1  0.93217627  0.41704785  0.56548551  1
  Sb  Sb6  1  0.41704785  0.93217627  0.56548551  1
  Sb  Sb7  1  0.06782373  0.58295215  0.43451449  1
  O  O0  1  0.17329705  0.56716503  0.18744490  1
  O  O1  1  0.43283497  0.82670295  0.81255510  1
  O  O2  1  0.82670295  0.43283497  0.81255510  1
  O  O3  1  0.56716503  0.17329705  0.18744490  1
  O  O4  1  0.02371189  0.44706322  0.33211632  1
  O  O5  1  0.55293678  0.97628811  0.66788368  1
  O  O6  1  0.97628811  0.55293678  0.66788368  1
  O  O7  1  0.44706322  0.02371189  0.33211632  1
  O  O8  1  0.84323319  0.33170355  0.43247411  1
  O  O9  1  0.66829645  0.15676681  0.56752589  1
  O  O10  1  0.15676681  0.66829645  0.56752589  1
  O  O11  1  0.33170355  0.84323319  0.43247411  1
  O  O12  1  0.67184617  0.32815383  -0.00000000  1
  O  O13  1  0.32815383  0.67184617  -0.00000000  1
  O  O14  1  0.83863519  0.83863519  0.35328160  1
  O  O15  1  0.16136481  0.16136481  0.64671840  1
  O  O16  1  0.61843705  0.61843705  0.13471922  1
  O  O17  1  0.38156295  0.38156295  0.86528078  1
  O  O18  1  0.66681607  0.66681607  0.49259708  1
  O  O19  1  0.33318393  0.33318393  0.50740292  1
  O  O20  1  0.47616479  0.47616479  0.34451639  1
  O  O21  1  0.52383521  0.52383521  0.65548361  1
loop_
_geom_bond_atom_site_label_1
_geom_bond_atom_site_label_2
_geom_bond_distance
_geom_bond_site_symmetry_2
K0 O16 2.820746 1_555
K0 O6 2.890936 1_554
K0 O5 2.890936 1_554
K0 O14 3.060030 1_555
K0 O7 3.220084 1_565
K0 O4 3.220084 1_655
K1 O17 2.820746 1_555
K1 O7 2.890936 1_556
K1 O4 2.890936 1_556
K1 O15 3.060030 1_555
K1 O6 3.220084 1_455
K1 O5 3.220084 1_545
K2 O14 2.926439 1_555
K2 O11 3.014383 1_655
K2 O8 3.014383 1_565
K2 O12 3.113957 1_565
K2 O13 3.113957 1_655
K2 O9 3.141105 1_565
K2 O10 3.141105 1_655
K2 O3 3.315934 1_565
K2 O0 3.315934 1_655
K3 O15 2.926439 1_555
K3 O10 3.014383 1_545
K3 O9 3.014383 1_455
K3 O13 3.113957 1_546
K3 O12 3.113957 1_456
K3 O11 3.141105 1_545
K3 O8 3.141105 1_455
K3 O1 3.315934 1_545
K3 O2 3.315934 1_455
O0 Sb0 1.948492 1_555
O0 Sb7 1.967966 1_555
O1 Sb1 1.948492 1_555
O1 Sb6 1.967966 1_555
O2 Sb1 1.948492 1_555
O2 Sb5 1.967966 1_555
O3 Sb0 1.948492 1_555
O3 Sb4 1.967966 1_555
O4 Sb5 1.986122 1_455
O4 Sb7 1.987077 1_555
O5 Sb4 1.986122 1_565
O5 Sb6 1.987077 1_555
O6 Sb7 1.986122 1_655
O6 Sb5 1.987077 1_555
O7 Sb6 1.986122 1_545
O7 Sb4 1.987077 1_555
O8 Sb3 1.984382 1_555
O8 Sb5 2.015472 1_555
O9 Sb2 1.984382 1_555
O9 Sb4 2.015472 1_555
O10 Sb2 1.984382 1_555
O10 Sb7 2.015472 1_555
O11 Sb3 1.984382 1_555
O11 Sb6 2.015472 1_555
O12 Sb0 1.996056 1_555
O12 Sb1 1.996056 1_554
O13 Sb0 1.996056 1_555
O13 Sb1 1.996056 1_554
O14 Sb4 1.936969 1_565
O14 Sb7 1.936969 1_655
O15 Sb5 1.936969 1_455
O15 Sb6 1.936969 1_545
O16 Sb3 1.915454 1_555
O16 Sb1 1.956123 1_554
O17 Sb2 1.915454 1_555
O17 Sb0 1.956123 1_556
O18 Sb3 1.999987 1_555
O18 Sb6 2.028065 1_555
O18 Sb5 2.028065 1_555
O19 Sb2 1.999987 1_555
O19 Sb4 2.028065 1_555
O19 Sb7 2.028065 1_555
O20 Sb3 1.979313 1_555
O20 Sb0 2.080257 1_555
O20 Sb2 2.119659 1_555
O21 Sb2 1.979313 1_555
O21 Sb1 2.080257 1_555
O21 Sb3 2.119659 1_555
