# generated using pymatgen
data_Ga2SiGe2S5O24
_symmetry_space_group_name_H-M   'P 1'
_cell_length_a   8.41240756
_cell_length_b   8.44685997
_cell_length_c   21.84834047
_cell_angle_alpha   89.62751566
_cell_angle_beta   89.65628204
_cell_angle_gamma   120.07025698
_symmetry_Int_Tables_number   1
_chemical_formula_structural   Ga2SiGe2S5O24
_chemical_formula_sum   'Ga6 Si3 Ge6 S15 O72'
_cell_volume   1343.45389656
_cell_formula_units_Z   3
loop_
 _symmetry_equiv_pos_site_id
 _symmetry_equiv_pos_as_xyz
  1  'x, y, z'
loop_
 _atom_site_type_symbol
 _atom_site_label
 _atom_site_symmetry_multiplicity
 _atom_site_fract_x
 _atom_site_fract_y
 _atom_site_fract_z
 _atom_site_occupancy
  Ga  Ga0  1  0.99074929  0.00006301  0.35746026  1
  Ga  Ga1  1  0.00207520  0.00097118  0.85464363  1
  Ga  Ga2  1  0.67805953  0.33768662  0.68511636  1
  Ga  Ga3  1  0.65844948  0.33541201  0.18461493  1
  Ga  Ga4  1  0.65670651  0.32996009  0.98174150  1
  Ga  Ga5  1  0.33133135  0.66560088  0.81195094  1
  Si  Si0  1  0.96241516  0.33813925  0.58401805  1
  Si  Si1  1  0.37651333  0.33381895  0.08342012  1
  Si  Si2  1  0.61806389  0.95293910  0.41757669  1
  Ge  Ge0  1  0.99781662  0.00541472  0.64367598  1
  Ge  Ge1  1  0.00649730  0.00613234  0.14509934  1
  Ge  Ge2  1  0.67521719  0.31673033  0.47832594  1
  Ge  Ge3  1  0.33439175  0.66065890  0.02215647  1
  Ge  Ge4  1  0.33715483  0.66527545  0.52157881  1
  Ge  Ge5  1  0.33965718  0.67582931  0.31493536  1
  S  S0  1  0.28652149  0.99628804  0.25175431  1
  S  S1  1  0.71217228  0.71098232  0.25004994  1
  S  S2  1  0.00146377  0.29574587  0.25066020  1
  S  S3  1  0.29257938  0.28989723  0.74974611  1
  S  S4  1  0.99860148  0.71295093  0.74985045  1
  S  S5  1  0.70981802  0.99958709  0.75081146  1
  S  S6  1  0.37541250  0.04267422  0.58444308  1
  S  S7  1  0.66745929  0.62111308  0.58323480  1
  S  S8  1  0.95945415  0.62675823  0.08318482  1
  S  S9  1  0.66661898  0.04016337  0.08339797  1
  S  S10  1  0.62372507  0.66750637  0.91564588  1
  S  S11  1  0.04059459  0.37653256  0.91679619  1
  S  S12  1  0.33466890  0.95365612  0.91669278  1
  S  S13  1  0.33744455  0.37785505  0.41708964  1
  S  S14  1  0.04412149  0.66664091  0.41656594  1
  O  O0  1  0.20439216  0.02971245  0.30573121  1
  O  O1  1  0.82639052  0.79278953  0.30345373  1
  O  O2  1  0.96680236  0.18068407  0.30488287  1
  O  O3  1  0.21284082  0.17453720  0.80553845  1
  O  O4  1  0.96614882  0.79444216  0.80503364  1
  O  O5  1  0.82617669  0.03514455  0.80525984  1
  O  O6  1  0.78973003  0.95880484  0.69519621  1
  O  O7  1  0.17298287  0.20886083  0.69491814  1
  O  O8  1  0.03834913  0.83296979  0.69340123  1
  O  O9  1  0.79068099  0.83060961  0.19301530  1
  O  O10  1  0.04115184  0.21759454  0.19478234  1
  O  O11  1  0.16989692  0.95802063  0.19563933  1
  O  O12  1  0.88078838  0.37961760  0.64390436  1
  O  O13  1  0.48573512  0.12021726  0.63940335  1
  O  O14  1  0.62594521  0.50796132  0.63905744  1
  O  O15  1  0.88864978  0.51071042  0.13870950  1
  O  O16  1  0.63144347  0.11577484  0.13909205  1
  O  O17  1  0.49868367  0.37768390  0.14396479  1
  O  O18  1  0.45451920  0.28895412  0.02263478  1
  O  O19  1  0.84972290  0.55088241  0.02774546  1
  O  O20  1  0.71242530  0.15600394  0.02798579  1
  O  O21  1  0.44816632  0.16251848  0.52855751  1
  O  O22  1  0.70240263  0.54372190  0.52727803  1
  O  O23  1  0.83254737  0.29466776  0.52386956  1
  O  O24  1  0.54387386  0.70808511  0.97118333  1
  O  O25  1  0.15983879  0.45758892  0.97163868  1
  O  O26  1  0.29513877  0.83394065  0.97314235  1
  O  O27  1  0.52400796  0.82198016  0.47762180  1
  O  O28  1  0.29312219  0.45349175  0.47151851  1
  O  O29  1  0.15828973  0.69945030  0.47120381  1
  O  O30  1  0.11634200  0.61839438  0.36021293  1
  O  O31  1  0.48898582  0.86836850  0.35644795  1
  O  O32  1  0.37426919  0.49407388  0.35986676  1
  O  O33  1  0.11982394  0.49182886  0.86115281  1
  O  O34  1  0.36717184  0.87222298  0.86164273  1
  O  O35  1  0.50726460  0.63154216  0.86132165  1
  O  O36  1  0.03495405  0.83182067  0.40772356  1
  O  O37  1  0.81394367  0.97105906  0.40995126  1
  O  O38  1  0.17854978  0.19760297  0.40849128  1
  O  O39  1  0.02566568  0.19619953  0.90969839  1
  O  O40  1  0.16869878  0.96968514  0.91069153  1
  O  O41  1  0.80489731  0.83459871  0.90913785  1
  O  O42  1  0.98117663  0.15579797  0.59267189  1
  O  O43  1  0.18852599  0.01937024  0.59179698  1
  O  O44  1  0.83608339  0.80371155  0.59099457  1
  O  O45  1  0.97139277  0.80660278  0.09232562  1
  O  O46  1  0.82724867  0.01374873  0.09211828  1
  O  O47  1  0.17265421  0.15304844  0.09339357  1
  O  O48  1  0.68869196  0.16018961  0.74360881  1
  O  O49  1  0.47334584  0.30677154  0.74095277  1
  O  O50  1  0.83226177  0.53453694  0.74423441  1
  O  O51  1  0.69772374  0.53165670  0.24327626  1
  O  O52  1  0.83821716  0.31383811  0.24078203  1
  O  O53  1  0.47143101  0.15568416  0.24413737  1
  O  O54  1  0.64520260  0.50663593  0.92291865  1
  O  O55  1  0.85937275  0.35977805  0.92597333  1
  O  O56  1  0.50167341  0.13230985  0.92260323  1
  O  O57  1  0.62704420  0.14949147  0.42348551  1
  O  O58  1  0.50787192  0.37086996  0.42596309  1
  O  O59  1  0.85702754  0.50489563  0.42361685  1
  O  O60  1  0.35176883  0.51255047  0.07336838  1
  O  O61  1  0.14701259  0.65345826  0.07451539  1
  O  O62  1  0.49776390  0.86023715  0.07453962  1
  O  O63  1  0.35843780  0.86213523  0.57626030  1
  O  O64  1  0.50438247  0.64273186  0.57690982  1
  O  O65  1  0.16269330  0.51674060  0.57101631  1
  O  O66  1  0.29710484  0.82398630  0.25637441  1
  O  O67  1  0.52513523  0.69121078  0.25557686  1
  O  O68  1  0.17089884  0.48041671  0.25831850  1
  O  O69  1  0.30716409  0.47036147  0.75694232  1
  O  O70  1  0.16483513  0.69714492  0.75596313  1
  O  O71  1  0.52869249  0.83228710  0.75742170  1
loop_
_geom_bond_atom_site_label_1
_geom_bond_atom_site_label_2
_geom_bond_distance
_geom_bond_site_symmetry_2
Ga0 O37 1.788358 1_545
Ga0 O36 1.969275 1_645
Ga0 O38 1.981623 1_655
Ga0 O2 1.993954 1_555
Ga0 O1 1.997470 1_545
Ga0 O0 2.022635 1_655
Ga1 O41 1.939701 1_445
Ga1 O3 1.948311 1_555
Ga1 O4 1.951841 1_445
Ga1 O5 1.969826 1_455
Ga1 O39 1.976452 1_555
Ga1 O40 1.980340 1_545
Ga2 O12 1.793549 1_555
Ga2 O14 1.972790 1_555
Ga2 O48 1.999979 1_555
Ga2 O50 2.000588 1_555
Ga2 O49 2.010513 1_555
Ga2 O13 2.013555 1_555
Ga3 O17 1.792702 1_555
Ga3 O51 1.995863 1_555
Ga3 O53 2.006841 1_555
Ga3 O15 2.008100 1_555
Ga3 O16 2.021657 1_555
Ga3 O52 2.030183 1_555
Ga4 O18 1.788458 1_556
Ga4 O55 1.998880 1_555
Ga4 O54 2.002366 1_555
Ga4 O56 2.005979 1_555
Ga4 O20 2.018962 1_556
Ga4 O19 2.033856 1_556
Ga5 O71 1.941690 1_555
Ga5 O33 1.953270 1_555
Ga5 O34 1.953699 1_555
Ga5 O35 1.969407 1_555
Ga5 O69 1.974387 1_555
Ga5 O70 1.979746 1_555
Ge0 O42 1.742589 1_555
Ge0 O43 1.912965 1_655
Ge0 O6 1.940691 1_545
Ge0 O44 1.949365 1_545
Ge0 O7 1.971071 1_655
Ge0 O8 1.974814 1_645
Ge1 O47 1.730473 1_555
Ge1 O46 1.932627 1_455
Ge1 O45 1.946228 1_445
Ge1 O11 1.961150 1_545
Ge1 O9 1.962102 1_445
Ge1 O10 1.990210 1_555
Ge2 O23 1.742741 1_555
Ge2 O57 1.746296 1_555
Ge2 O59 1.952302 1_555
Ge2 O21 2.003110 1_555
Ge2 O58 2.038989 1_555
Ge2 O22 2.112497 1_555
Ge3 O60 1.733626 1_555
Ge3 O61 1.917933 1_555
Ge3 O62 1.939790 1_555
Ge3 O24 1.941514 1_554
Ge3 O25 1.958739 1_554
Ge3 O26 1.966320 1_554
Ge4 O65 1.735762 1_555
Ge4 O27 1.739410 1_555
Ge4 O64 1.939740 1_555
Ge4 O28 1.974817 1_555
Ge4 O63 1.988585 1_555
Ge4 O29 2.002442 1_555
Ge5 O31 1.741026 1_555
Ge5 O66 1.940341 1_555
Ge5 O30 1.949691 1_555
Ge5 O32 1.958904 1_555
Ge5 O67 1.975792 1_555
Ge5 O68 1.992346 1_555
O0 S0 1.462140 1_545
O1 S1 1.456256 1_555
O2 S2 1.459444 1_655
O3 S3 1.484952 1_555
O4 S4 1.482272 1_555
O5 S5 1.479029 1_545
O6 S5 1.508235 1_555
O7 S3 1.500240 1_555
O8 S4 1.516488 1_455
O9 S1 1.521518 1_555
O10 S2 1.504709 1_555
O11 S0 1.507294 1_555
O12 Si0 1.594525 1_555
O13 S6 1.465151 1_555
O14 S7 1.472485 1_555
O15 S8 1.475832 1_555
O16 S9 1.473537 1_555
O17 Si1 1.607614 1_555
O18 Si1 1.607258 1_555
O19 S8 1.469918 1_555
O20 S9 1.474037 1_555
O21 S6 1.498096 1_555
O22 S7 1.485618 1_555
O23 Si0 1.636109 1_555
O24 S10 1.505799 1_555
O25 S11 1.499195 1_555
O26 S12 1.515298 1_555
O27 Si2 1.631662 1_555
O28 S13 1.484802 1_555
O29 S14 1.474986 1_555
O30 S14 1.515510 1_555
O31 Si2 1.650934 1_555
O32 S13 1.515708 1_555
O33 S11 1.481574 1_555
O34 S12 1.479800 1_555
O35 S10 1.476898 1_555
O36 S14 1.447238 1_555
O37 Si2 1.584337 1_555
O38 S13 1.451704 1_555
O39 S11 1.473669 1_555
O40 S12 1.475238 1_555
O41 S10 1.474536 1_555
O42 Si0 1.634958 1_555
O43 S6 1.490871 1_555
O44 S7 1.494539 1_555
O45 S8 1.486269 1_555
O46 S9 1.488866 1_555
O47 Si1 1.639232 1_555
O48 S5 1.461452 1_545
O49 S3 1.465819 1_555
O50 S4 1.461325 1_555
O51 S1 1.466198 1_555
O52 S2 1.472862 1_655
O53 S0 1.468105 1_545
O54 S10 1.465585 1_555
O55 S11 1.471095 1_655
O56 S12 1.465548 1_545
O57 Si2 1.629729 1_545
O58 S13 1.478016 1_555
O59 S14 1.485593 1_655
O60 Si1 1.637677 1_555
O61 S8 1.488458 1_455
O62 S9 1.486177 1_565
O63 S6 1.470906 1_565
O64 S7 1.479008 1_555
O65 Si0 1.623818 1_455
O66 S0 1.504786 1_555
O67 S1 1.500762 1_555
O68 S2 1.506993 1_555
O69 S3 1.476265 1_555
O70 S4 1.476606 1_455
O71 S5 1.475278 1_555
