# generated using pymatgen
data_Bi2Pt
_symmetry_space_group_name_H-M   'P 1'
_cell_length_a   6.76990205
_cell_length_b   6.76990205
_cell_length_c   6.76990205
_cell_angle_alpha   90.00000000
_cell_angle_beta   90.00000000
_cell_angle_gamma   90.00000000
_symmetry_Int_Tables_number   1
_chemical_formula_structural   Bi2Pt
_chemical_formula_sum   'Bi8 Pt4'
_cell_volume   310.27526520
_cell_formula_units_Z   4
loop_
 _symmetry_equiv_pos_site_id
 _symmetry_equiv_pos_as_xyz
  1  'x, y, z'
loop_
 _atom_site_type_symbol
 _atom_site_label
 _atom_site_symmetry_multiplicity
 _atom_site_fract_x
 _atom_site_fract_y
 _atom_site_fract_z
 _atom_site_occupancy
  Bi  Bi0  1  0.37078459  0.37078459  0.37078459  1
  Bi  Bi1  1  0.12921541  0.62921541  0.87078459  1
  Bi  Bi2  1  0.87078459  0.12921541  0.62921541  1
  Bi  Bi3  1  0.62921541  0.87078459  0.12921541  1
  Bi  Bi4  1  0.62921541  0.62921541  0.62921541  1
  Bi  Bi5  1  0.87078459  0.37078459  0.12921541  1
  Bi  Bi6  1  0.12921541  0.87078459  0.37078459  1
  Bi  Bi7  1  0.37078459  0.12921541  0.87078459  1
  Pt  Pt0  1  -0.00000000  0.00000000  0.00000000  1
  Pt  Pt1  1  0.50000000  0.00000000  0.50000000  1
  Pt  Pt2  1  0.50000000  0.50000000  0.00000000  1
  Pt  Pt3  1  -0.00000000  0.50000000  0.50000000  1
loop_
_geom_bond_atom_site_label_1
_geom_bond_atom_site_label_2
_geom_bond_distance
_geom_bond_site_symmetry_2
Bi0 Pt1 2.798472 1_555
Bi0 Pt2 2.798472 1_555
Bi0 Pt3 2.798472 1_555
Bi0 Bi4 3.030312 1_555
Bi1 Pt3 2.798472 1_555
Bi1 Pt0 2.798472 1_566
Bi1 Pt2 2.798472 1_556
Bi1 Bi5 3.030312 1_456
Bi2 Pt0 2.798472 1_656
Bi2 Pt1 2.798472 1_555
Bi2 Pt3 2.798472 1_655
Bi2 Bi6 3.030312 1_645
Bi3 Pt2 2.798472 1_555
Bi3 Pt0 2.798472 1_665
Bi3 Pt1 2.798472 1_565
Bi3 Bi7 3.030312 1_564
Bi4 Pt1 2.798472 1_565
Bi4 Pt2 2.798472 1_556
Bi4 Pt3 2.798472 1_655
Bi5 Pt3 2.798472 1_655
Bi5 Pt2 2.798472 1_555
Bi5 Pt0 2.798472 1_655
Bi6 Pt1 2.798472 1_565
Bi6 Pt3 2.798472 1_555
Bi6 Pt0 2.798472 1_565
Bi7 Pt2 2.798472 1_556
Bi7 Pt1 2.798472 1_555
Bi7 Pt0 2.798472 1_556
