# generated using pymatgen
data_LiNi2(PO4)3
_symmetry_space_group_name_H-M   'P 1'
_cell_length_a   8.73292120
_cell_length_b   8.73292120
_cell_length_c   6.50523708
_cell_angle_alpha   73.76219726
_cell_angle_beta   73.76219726
_cell_angle_gamma   92.01830947
_symmetry_Int_Tables_number   1
_chemical_formula_structural   LiNi2(PO4)3
_chemical_formula_sum   'Li2 Ni4 P6 O24'
_cell_volume   453.84942859
_cell_formula_units_Z   2
loop_
 _symmetry_equiv_pos_site_id
 _symmetry_equiv_pos_as_xyz
  1  'x, y, z'
loop_
 _atom_site_type_symbol
 _atom_site_label
 _atom_site_symmetry_multiplicity
 _atom_site_fract_x
 _atom_site_fract_y
 _atom_site_fract_z
 _atom_site_occupancy
  Li  Li0  1  0.50000000  0.50000000  0.00000000  1
  Li  Li1  1  0.50000000  0.50000000  0.50000000  1
  Ni  Ni0  1  0.61982100  0.94122000  0.63521500  1
  Ni  Ni1  1  0.05878000  0.38017900  0.86478500  1
  Ni  Ni2  1  0.38017900  0.05878000  0.36478500  1
  Ni  Ni3  1  0.94122000  0.61982100  0.13521500  1
  P  P0  1  0.71124900  0.28875100  0.25000000  1
  P  P1  1  0.28875100  0.71124900  0.75000000  1
  P  P2  1  0.34959700  0.14279700  0.85324200  1
  P  P3  1  0.14279700  0.34959700  0.35324200  1
  P  P4  1  0.65040300  0.85720300  0.14675800  1
  P  P5  1  0.85720300  0.65040300  0.64675800  1
  O  O0  1  0.36039300  0.02750300  0.07726000  1
  O  O1  1  0.26781300  0.54224300  0.72118200  1
  O  O2  1  0.18093400  0.17556300  0.38467500  1
  O  O3  1  0.73218700  0.45775700  0.27881800  1
  O  O4  1  0.68932400  0.55218500  0.71603400  1
  O  O5  1  0.44781500  0.31067600  0.78396600  1
  O  O6  1  0.16398700  0.74130700  0.95292300  1
  O  O7  1  0.45775700  0.73218700  0.77881800  1
  O  O8  1  0.58819500  0.93814400  0.33152800  1
  O  O9  1  0.74130700  0.16398700  0.45292300  1
  O  O10  1  0.55218500  0.68932400  0.21603400  1
  O  O11  1  0.31067600  0.44781500  0.28396600  1
  O  O12  1  0.83601300  0.25869300  0.04707700  1
  O  O13  1  0.97249700  0.63960700  0.42274000  1
  O  O14  1  0.54224300  0.26781300  0.22118200  1
  O  O15  1  0.63960700  0.97249700  0.92274000  1
  O  O16  1  0.82443700  0.81906600  0.11532500  1
  O  O17  1  0.06185600  0.41180500  0.16847200  1
  O  O18  1  0.02750300  0.36039300  0.57726000  1
  O  O19  1  0.25869300  0.83601300  0.54707700  1
  O  O20  1  0.17556300  0.18093400  0.88467500  1
  O  O21  1  0.93814400  0.58819500  0.83152800  1
  O  O22  1  0.41180500  0.06185600  0.66847200  1
  O  O23  1  0.81906600  0.82443700  0.61532500  1
loop_
_geom_bond_atom_site_label_1
_geom_bond_atom_site_label_2
_geom_bond_distance
_geom_bond_site_symmetry_2
Li0 O11 2.030203 1_555
Li0 O4 2.030203 1_554
Li0 O7 2.244044 1_554
Li0 O14 2.244044 1_555
Li0 O5 2.553589 1_554
Li0 O10 2.553589 1_555
Li1 O10 2.030203 1_555
Li1 O5 2.030203 1_555
Li1 O3 2.244044 1_555
Li1 O1 2.244044 1_555
Li1 O11 2.553589 1_555
Li1 O4 2.553589 1_555
Ni0 O15 2.016447 1_555
Ni0 O23 2.038946 1_555
Ni0 O9 2.043839 1_565
Ni0 O8 2.077045 1_555
Ni0 O7 2.081585 1_555
Ni0 O22 2.121118 1_565
Ni1 O18 2.016447 1_555
Ni1 O20 2.038946 1_555
Ni1 O12 2.043839 1_456
Ni1 O17 2.077045 1_556
Ni1 O1 2.081585 1_555
Ni1 O21 2.121118 1_455
Ni2 O0 2.016447 1_555
Ni2 O2 2.038946 1_555
Ni2 O19 2.043839 1_545
Ni2 O22 2.077045 1_555
Ni2 O14 2.081585 1_555
Ni2 O8 2.121118 1_545
Ni3 O13 2.016447 1_555
Ni3 O16 2.038946 1_555
Ni3 O6 2.043839 1_654
Ni3 O21 2.077045 1_554
Ni3 O3 2.081585 1_555
Ni3 O17 2.121118 1_655
O0 P2 1.552188 1_554
O1 P1 1.549776 1_555
O2 P3 1.537056 1_555
O3 P0 1.549776 1_555
O4 P5 1.553681 1_555
O5 P2 1.553681 1_555
O6 P1 1.551828 1_555
O7 P1 1.549776 1_555
O8 P4 1.541597 1_555
O9 P0 1.551828 1_555
O10 P4 1.553681 1_555
O11 P3 1.553681 1_555
O12 P0 1.551828 1_555
O13 P5 1.552188 1_555
O14 P0 1.549776 1_555
O15 P4 1.552188 1_556
O16 P4 1.537056 1_555
O17 P3 1.541597 1_555
O18 P3 1.552188 1_555
O19 P1 1.551828 1_555
O20 P2 1.537056 1_555
O21 P5 1.541597 1_555
O22 P2 1.541597 1_555
O23 P5 1.537056 1_555
