# generated using pymatgen
data_CaPPt
_symmetry_space_group_name_H-M   'P 1'
_cell_length_a   4.36969545
_cell_length_b   6.53143321
_cell_length_c   8.32204141
_cell_angle_alpha   90.00000000
_cell_angle_beta   90.00000000
_cell_angle_gamma   90.00000000
_symmetry_Int_Tables_number   1
_chemical_formula_structural   CaPPt
_chemical_formula_sum   'Ca4 P4 Pt4'
_cell_volume   237.51417412
_cell_formula_units_Z   4
loop_
 _symmetry_equiv_pos_site_id
 _symmetry_equiv_pos_as_xyz
  1  'x, y, z'
loop_
 _atom_site_type_symbol
 _atom_site_label
 _atom_site_symmetry_multiplicity
 _atom_site_fract_x
 _atom_site_fract_y
 _atom_site_fract_z
 _atom_site_occupancy
  Ca  Ca0  1  -0.00000000  0.86618347  0.12741771  1
  Ca  Ca1  1  0.00000000  0.92936558  0.58792351  1
  Ca  Ca2  1  0.00000000  0.42936558  0.41207649  1
  Ca  Ca3  1  0.00000000  0.36618347  0.87258229  1
  P  P0  1  0.50000000  0.17038297  0.07155571  1
  P  P1  1  0.50000000  0.74707701  0.38396717  1
  P  P2  1  0.50000000  0.67038297  0.92844429  1
  P  P3  1  0.50000000  0.24707701  0.61603283  1
  Pt  Pt0  1  0.50000000  0.11548603  0.34219299  1
  Pt  Pt1  1  0.50000000  0.49730494  0.16803486  1
  Pt  Pt2  1  0.50000000  0.99730494  0.83196514  1
  Pt  Pt3  1  0.50000000  0.61548603  0.65780701  1
loop_
_geom_bond_atom_site_label_1
_geom_bond_atom_site_label_2
_geom_bond_distance
_geom_bond_site_symmetry_2
Ca0 P0 2.989529 1_565
Ca0 P0 2.989529 1_465
Ca0 P2 3.025050 1_454
Ca0 P2 3.025050 1_554
Ca0 P1 3.152306 1_555
Ca0 P1 3.152306 1_455
Ca0 Pt0 3.258775 1_465
Ca0 Pt0 3.258775 1_565
Ca0 Pt1 3.269949 1_555
Ca0 Pt1 3.269949 1_455
Ca0 Pt2 3.398903 1_554
Ca0 Pt2 3.398903 1_454
Ca1 P1 3.011983 1_555
Ca1 P1 3.011983 1_455
Ca1 Pt2 3.015812 1_555
Ca1 Pt2 3.015812 1_455
Ca1 P3 3.022312 1_565
Ca1 P3 3.022312 1_465
Ca1 Pt3 3.051988 1_555
Ca1 Pt3 3.051988 1_455
Ca1 Pt0 3.230057 1_465
Ca1 Pt0 3.230057 1_565
Ca2 P3 3.011983 1_455
Ca2 P3 3.011983 1_555
Ca2 Pt1 3.015812 1_455
Ca2 Pt1 3.015812 1_555
Ca2 P1 3.022312 1_455
Ca2 P1 3.022312 1_555
Ca2 Pt0 3.051988 1_555
Ca2 Pt0 3.051988 1_455
Ca2 Pt3 3.230057 1_455
Ca2 Pt3 3.230057 1_555
Ca3 P2 2.989529 1_555
Ca3 P2 2.989529 1_455
Ca3 P0 3.025050 1_556
Ca3 P0 3.025050 1_456
Ca3 P3 3.152306 1_455
Ca3 P3 3.152306 1_555
Ca3 Pt3 3.258775 1_555
Ca3 Pt3 3.258775 1_455
Ca3 Pt2 3.269949 1_545
Ca3 Pt2 3.269949 1_445
Ca3 Pt1 3.398903 1_456
Ca3 Pt1 3.398903 1_556
P0 Pt0 2.280617 1_555
P0 Pt1 2.281234 1_555
P0 Pt2 2.292047 1_544
P1 Pt1 2.427049 1_555
P1 Pt0 2.431223 1_565
P1 Pt3 2.435594 1_555
P2 Pt3 2.280617 1_555
P2 Pt2 2.281234 1_555
P2 Pt1 2.292047 1_556
P3 Pt2 2.427049 1_545
P3 Pt3 2.431223 1_555
P3 Pt0 2.435594 1_555
Pt0 Pt1 2.884403 1_555
Pt2 Pt3 2.884403 1_555
