# generated using pymatgen
data_Ba2MgCoWO6
_symmetry_space_group_name_H-M   'P 1'
_cell_length_a   6.47723090
_cell_length_b   6.50925325
_cell_length_c   6.50015455
_cell_angle_alpha   55.25428362
_cell_angle_beta   54.36797722
_cell_angle_gamma   54.33358276
_symmetry_Int_Tables_number   1
_chemical_formula_structural   Ba2MgCoWO6
_chemical_formula_sum   'Ba2 Mg1 Co1 W1 O6'
_cell_volume   169.60789139
_cell_formula_units_Z   1
loop_
 _symmetry_equiv_pos_site_id
 _symmetry_equiv_pos_as_xyz
  1  'x, y, z'
loop_
 _atom_site_type_symbol
 _atom_site_label
 _atom_site_symmetry_multiplicity
 _atom_site_fract_x
 _atom_site_fract_y
 _atom_site_fract_z
 _atom_site_occupancy
  Ba  Ba0  1  0.75975533  0.73427235  0.73376535  1
  Ba  Ba1  1  0.26441044  0.29581643  0.29388926  1
  Mg  Mg0  1  0.10418835  0.06467402  0.06381546  1
  Co  Co0  1  0.88023050  0.94851039  0.94814581  1
  W  W0  1  0.51404793  0.51190611  0.51187458  1
  O  O0  1  0.20191038  0.73018717  0.73140587  1
  O  O1  1  0.32715613  0.24192642  0.71025602  1
  O  O2  1  0.70619942  0.32216763  0.77735459  1
  O  O3  1  0.32728887  0.71104075  0.24120153  1
  O  O4  1  0.70686328  0.77597224  0.32203560  1
  O  O5  1  0.83294936  0.28852649  0.28865193  1
loop_
_geom_bond_atom_site_label_1
_geom_bond_atom_site_label_2
_geom_bond_distance
_geom_bond_site_symmetry_2
Ba0 O4 2.735962 1_555
Ba0 O2 2.738730 1_555
Ba0 O3 2.812302 1_556
Ba0 O1 2.814259 1_565
Ba0 O0 2.839643 1_655
Ba0 Co0 3.040825 1_555
Ba0 O1 3.157531 1_655
Ba0 O3 3.158702 1_655
Ba0 O5 3.179617 1_565
Ba0 O5 3.179941 1_556
Ba1 O1 2.765191 1_555
Ba1 O3 2.766644 1_555
Ba1 O5 2.842701 1_455
Ba1 O2 2.865734 1_554
Ba1 O4 2.879833 1_545
Ba1 O4 3.092499 1_455
Ba1 O2 3.103293 1_455
Ba1 O0 3.183142 1_554
Ba1 O0 3.204514 1_545
Mg0 O1 1.937019 1_554
Mg0 O3 1.937373 1_545
Mg0 O5 1.948369 1_455
Co0 O2 1.897878 1_565
Co0 O4 1.899591 1_556
Co0 O0 1.937717 1_655
O0 W0 1.934532 1_555
O1 W0 2.072546 1_555
O2 W0 2.081559 1_555
O3 W0 2.071428 1_555
O4 W0 2.080138 1_555
O5 W0 1.973976 1_555
