# generated using pymatgen
data_K3NaMg(RuO4)2
_symmetry_space_group_name_H-M   'P 1'
_cell_length_a   6.83851554
_cell_length_b   6.83851486
_cell_length_c   7.52044755
_cell_angle_alpha   86.02643269
_cell_angle_beta   93.97356740
_cell_angle_gamma   126.93934660
_symmetry_Int_Tables_number   1
_chemical_formula_structural   K3NaMg(RuO4)2
_chemical_formula_sum   'K3 Na1 Mg1 Ru2 O8'
_cell_volume   280.25633978
_cell_formula_units_Z   1
loop_
 _symmetry_equiv_pos_site_id
 _symmetry_equiv_pos_as_xyz
  1  'x, y, z'
loop_
 _atom_site_type_symbol
 _atom_site_label
 _atom_site_symmetry_multiplicity
 _atom_site_fract_x
 _atom_site_fract_y
 _atom_site_fract_z
 _atom_site_occupancy
  K  K0  1  0.74023860  0.25976140  0.33989800  1
  K  K1  1  0.00000000  0.00000000  -0.00000000  1
  K  K2  1  0.25976140  0.74023860  0.66010200  1
  Na  Na0  1  0.00000000  0.00000000  0.50000000  1
  Mg  Mg0  1  0.50000000  0.50000000  0.50000000  1
  Ru  Ru0  1  0.67786798  0.32213202  0.79104496  1
  Ru  Ru1  1  0.32213202  0.67786798  0.20895504  1
  O  O0  1  0.19535836  0.38529489  0.35744915  1
  O  O1  1  0.61470511  0.80464164  0.35744915  1
  O  O2  1  0.18287527  0.81712473  0.27061029  1
  O  O3  1  0.80464164  0.61470511  0.64255085  1
  O  O4  1  0.81712473  0.18287527  0.72938971  1
  O  O5  1  0.38529489  0.19535836  0.64255085  1
  O  O6  1  0.64800573  0.35199427  0.01572717  1
  O  O7  1  0.35199427  0.64800573  0.98427283  1
loop_
_geom_bond_atom_site_label_1
_geom_bond_atom_site_label_2
_geom_bond_distance
_geom_bond_site_symmetry_2
K0 O6 2.605955 1_555
K0 O1 2.681129 1_545
K0 O0 2.681130 1_655
K0 O4 3.006363 1_555
K0 O2 3.168277 1_655
K0 O2 3.168277 1_545
K1 O2 2.905857 1_545
K1 O4 2.905857 1_454
K2 O7 2.605955 1_555
K2 O5 2.681129 1_565
K2 O3 2.681130 1_455
K2 O2 3.006363 1_555
K2 O4 3.168277 1_455
K2 O4 3.168277 1_565
Na0 O0 2.335083 1_555
Na0 O3 2.335083 1_445
Na0 O1 2.335083 1_445
Na0 O5 2.335083 1_555
Na0 O4 2.929474 1_455
Na0 O2 2.929474 1_545
Mg0 O5 1.986847 1_555
Mg0 O1 1.986847 1_555
Mg0 O0 1.986847 1_555
Mg0 O3 1.986847 1_555
O0 Ru1 1.934285 1_555
O1 Ru1 1.934285 1_555
O2 Ru1 1.800335 1_555
O3 Ru0 1.934285 1_555
O4 Ru0 1.800335 1_555
O5 Ru0 1.934285 1_555
O6 Ru0 1.756217 1_554
O7 Ru1 1.756217 1_556
