# generated using pymatgen
data_Na10Zr4Sc4Si7S5O48
_symmetry_space_group_name_H-M   'P 1'
_cell_length_a   18.25863391
_cell_length_b   9.12715381
_cell_length_c   23.06579575
_cell_angle_alpha   89.98849588
_cell_angle_beta   89.82806071
_cell_angle_gamma   119.95007272
_symmetry_Int_Tables_number   1
_chemical_formula_structural   Na10Zr4Sc4Si7S5O48
_chemical_formula_sum   'Na30 Zr12 Sc12 Si21 S15 O144'
_cell_volume   3330.56725236
_cell_formula_units_Z   3
loop_
 _symmetry_equiv_pos_site_id
 _symmetry_equiv_pos_as_xyz
  1  'x, y, z'
loop_
 _atom_site_type_symbol
 _atom_site_label
 _atom_site_symmetry_multiplicity
 _atom_site_fract_x
 _atom_site_fract_y
 _atom_site_fract_z
 _atom_site_occupancy
  Na  Na0  1  0.18420682  0.37144254  0.24397830  1
  Na  Na1  1  0.68417585  0.37178552  0.24416479  1
  Na  Na2  1  0.99318505  0.62566514  0.25313778  1
  Na  Na3  1  0.49349089  0.62558548  0.25310747  1
  Na  Na4  1  0.49373018  0.35927248  0.75618237  1
  Na  Na5  1  0.18391073  0.99617415  0.74681729  1
  Na  Na6  1  0.68601680  0.99901534  0.74588131  1
  Na  Na7  1  0.65771356  0.33993901  0.58016104  1
  Na  Na8  1  0.01846692  0.70604609  0.58040963  1
  Na  Na9  1  0.82649247  0.95812821  0.58929195  1
  Na  Na10  1  0.49069907  0.67215433  0.91272957  1
  Na  Na11  1  0.99217152  0.67306946  0.91261914  1
  Na  Na12  1  0.85177218  0.03751397  0.90970747  1
  Na  Na13  1  0.15891532  0.29166490  0.92119356  1
  Na  Na14  1  0.49127488  0.31234570  0.41230857  1
  Na  Na15  1  0.98939956  0.30916804  0.41221954  1
  Na  Na16  1  0.35257210  0.66647536  0.40954870  1
  Na  Na17  1  0.85254019  0.66670364  0.41245009  1
  Na  Na18  1  0.01643715  0.00511708  0.49728763  1
  Na  Na19  1  0.51317282  0.99493134  0.49565921  1
  Na  Na20  1  0.01093854  0.01654605  0.99909032  1
  Na  Na21  1  0.51254883  0.03015498  0.99483913  1
  Na  Na22  1  0.33968873  0.32862132  0.83182050  1
  Na  Na23  1  0.84176908  0.33674152  0.82656844  1
  Na  Na24  1  0.33619429  0.33466589  0.32889129  1
  Na  Na25  1  0.83542767  0.33370107  0.33036846  1
  Na  Na26  1  0.17382617  0.66021151  0.16096343  1
  Na  Na27  1  0.67360906  0.66039117  0.16104474  1
  Na  Na28  1  0.17378317  0.67907723  0.66729867  1
  Na  Na29  1  0.67325579  0.68446236  0.66479885  1
  Zr  Zr0  1  0.99843653  0.98716762  0.64944051  1
  Zr  Zr1  1  0.49609131  0.97955495  0.64939271  1
  Zr  Zr2  1  0.99917489  0.01375616  0.14668474  1
  Zr  Zr3  1  0.49891144  0.01265692  0.14674452  1
  Zr  Zr4  1  0.32913470  0.31697079  0.98027533  1
  Zr  Zr5  1  0.82401839  0.32162780  0.98092890  1
  Zr  Zr6  1  0.32554625  0.32900822  0.48073315  1
  Zr  Zr7  1  0.82704062  0.34039940  0.48136990  1
  Zr  Zr8  1  0.16498089  0.65264015  0.31396932  1
  Zr  Zr9  1  0.66444133  0.65301715  0.31439284  1
  Zr  Zr10  1  0.16244511  0.67527098  0.81390440  1
  Zr  Zr11  1  0.66575005  0.67823530  0.81470778  1
  Sc  Sc0  1  0.00061668  0.99792669  0.35132750  1
  Sc  Sc1  1  0.50127511  0.99894086  0.35084538  1
  Sc  Sc2  1  0.99746780  0.99752119  0.84906925  1
  Sc  Sc3  1  0.49721450  0.00411056  0.85327378  1
  Sc  Sc4  1  0.33209541  0.32341808  0.68691716  1
  Sc  Sc5  1  0.83452286  0.33506523  0.68648831  1
  Sc  Sc6  1  0.33322085  0.34321990  0.18432571  1
  Sc  Sc7  1  0.83306370  0.34305093  0.18458278  1
  Sc  Sc8  1  0.16035452  0.65152307  0.01798710  1
  Sc  Sc9  1  0.65783484  0.64767552  0.01805491  1
  Sc  Sc10  1  0.16258822  0.66974465  0.51666461  1
  Sc  Sc11  1  0.66036679  0.66768100  0.51886009  1
  Si  Si0  1  0.35434903  0.71041885  0.25064543  1
  Si  Si1  1  0.85436871  0.71075509  0.25058008  1
  Si  Si2  1  0.99511145  0.28889206  0.25273865  1
  Si  Si3  1  0.49516770  0.28909745  0.25265663  1
  Si  Si4  1  0.99558219  0.69780895  0.75232573  1
  Si  Si5  1  0.49582190  0.70019654  0.75385081  1
  Si  Si6  1  0.35367528  0.99733336  0.75027189  1
  Si  Si7  1  0.85294562  0.00256271  0.75095279  1
  Si  Si8  1  0.18636583  0.03434368  0.58647075  1
  Si  Si9  1  0.68523625  0.03772554  0.58610260  1
  Si  Si10  1  0.83112113  0.62667350  0.58452515  1
  Si  Si11  1  0.18654351  0.33824514  0.08443503  1
  Si  Si12  1  0.68511608  0.33830787  0.08655587  1
  Si  Si13  1  0.01950161  0.37026784  0.91760913  1
  Si  Si14  1  0.51974847  0.36836277  0.91630429  1
  Si  Si15  1  0.16469981  0.95721039  0.91829097  1
  Si  Si16  1  0.66324751  0.95631323  0.91944615  1
  Si  Si17  1  0.16350928  0.36981180  0.41878760  1
  Si  Si18  1  0.66321981  0.36718364  0.41924719  1
  Si  Si19  1  0.01949818  0.67000123  0.41750116  1
  Si  Si20  1  0.51979226  0.67115810  0.41712007  1
  S  S0  1  0.14605097  0.00071705  0.24936988  1
  S  S1  1  0.64617624  0.00073353  0.24927584  1
  S  S2  1  0.14684008  0.29444055  0.75025144  1
  S  S3  1  0.64513808  0.29004917  0.74953834  1
  S  S4  1  0.47911382  0.33171100  0.58368643  1
  S  S5  1  0.98026100  0.33401255  0.58260842  1
  S  S6  1  0.33164750  0.62342876  0.58340520  1
  S  S7  1  0.48019096  0.62806852  0.08368052  1
  S  S8  1  0.98038753  0.62796977  0.08334147  1
  S  S9  1  0.33120272  0.03830115  0.08463571  1
  S  S10  1  0.83141478  0.03958898  0.08349619  1
  S  S11  1  0.31211861  0.66802740  0.91787126  1
  S  S12  1  0.81181688  0.66604392  0.91792064  1
  S  S13  1  0.31212808  0.95828099  0.41718725  1
  S  S14  1  0.81231994  0.95874604  0.41745305  1
  O  O0  1  0.10760001  0.03030803  0.30146632  1
  O  O1  1  0.60772324  0.03044996  0.30137378  1
  O  O2  1  0.41161374  0.78903412  0.30891955  1
  O  O3  1  0.91226646  0.78980446  0.30863013  1
  O  O4  1  0.48686032  0.18310394  0.31115842  1
  O  O5  1  0.98726542  0.18313590  0.31114490  1
  O  O6  1  0.10857343  0.19016680  0.80312474  1
  O  O7  1  0.60456465  0.18260739  0.80024080  1
  O  O8  1  0.48702920  0.79079850  0.81108270  1
  O  O9  1  0.98940142  0.79378639  0.81001725  1
  O  O10  1  0.41747346  0.04006935  0.80407440  1
  O  O11  1  0.90828647  0.02366149  0.80903272  1
  O  O12  1  0.40165746  0.97973155  0.69183314  1
  O  O13  1  0.90025556  0.98399387  0.69200085  1
  O  O14  1  0.09348433  0.21284727  0.69860063  1
  O  O15  1  0.59275391  0.21456821  0.69571999  1
  O  O16  1  0.01637364  0.82416958  0.69455414  1
  O  O17  1  0.51719278  0.82799675  0.69659998  1
  O  O18  1  0.40477863  0.82674126  0.19444046  1
  O  O19  1  0.90505643  0.82769652  0.19426769  1
  O  O20  1  0.01810597  0.20410748  0.19709378  1
  O  O21  1  0.51774068  0.20336499  0.19720099  1
  O  O22  1  0.09208693  0.97049767  0.19765522  1
  O  O23  1  0.59207773  0.97035943  0.19766912  1
  O  O24  1  0.43825059  0.35303837  0.63568033  1
  O  O25  1  0.93916051  0.36007170  0.63316641  1
  O  O26  1  0.24186162  0.12862550  0.64354994  1
  O  O27  1  0.74258171  0.12266397  0.64344134  1
  O  O28  1  0.32322693  0.52076639  0.63417176  1
  O  O29  1  0.81776281  0.49994659  0.63711425  1
  O  O30  1  0.43919478  0.52372972  0.13645174  1
  O  O31  1  0.93923942  0.52420087  0.13605046  1
  O  O32  1  0.32327208  0.12476134  0.13615208  1
  O  O33  1  0.82409633  0.12789112  0.13467299  1
  O  O34  1  0.24117164  0.35086220  0.14265099  1
  O  O35  1  0.74009142  0.35159627  0.14456230  1
  O  O36  1  0.23464203  0.31440285  0.02650680  1
  O  O37  1  0.73533173  0.31362085  0.03025047  1
  O  O38  1  0.42846812  0.54462853  0.03131884  1
  O  O39  1  0.92893013  0.54514318  0.03077082  1
  O  O40  1  0.34558972  0.14517930  0.03153799  1
  O  O41  1  0.84563419  0.14415278  0.02961452  1
  O  O42  1  0.23625064  0.15572339  0.52941981  1
  O  O43  1  0.73410274  0.16388684  0.52965056  1
  O  O44  1  0.34520799  0.54696889  0.52914708  1
  O  O45  1  0.85186218  0.54866179  0.52491164  1
  O  O46  1  0.42864061  0.31185660  0.53057177  1
  O  O47  1  0.92883131  0.30619438  0.52889378  1
  O  O48  1  0.27193530  0.68974288  0.96971015  1
  O  O49  1  0.77228548  0.69143507  0.96915931  1
  O  O50  1  0.08242883  0.45698250  0.97229887  1
  O  O51  1  0.57863061  0.46362853  0.97181020  1
  O  O52  1  0.15139178  0.83357857  0.97220687  1
  O  O53  1  0.65472516  0.83556751  0.97306681  1
  O  O54  1  0.27200412  0.85402873  0.46893114  1
  O  O55  1  0.77362056  0.85633396  0.47008126  1
  O  O56  1  0.15416251  0.47285666  0.47255893  1
  O  O57  1  0.65218086  0.45959341  0.47600834  1
  O  O58  1  0.07513742  0.69218005  0.47549067  1
  O  O59  1  0.57919345  0.69344511  0.47183061  1
  O  O60  1  0.06644603  0.64414250  0.35974273  1
  O  O61  1  0.56241045  0.63994803  0.35779706  1
  O  O62  1  0.26045841  0.88387883  0.36471311  1
  O  O63  1  0.75973903  0.88006773  0.36551281  1
  O  O64  1  0.18461127  0.49005364  0.35945209  1
  O  O65  1  0.68226789  0.49090240  0.36107767  1
  O  O66  1  0.06579752  0.49377575  0.86116351  1
  O  O67  1  0.56291180  0.48776603  0.85735547  1
  O  O68  1  0.18109028  0.87848689  0.85807963  1
  O  O69  1  0.68523732  0.87968686  0.85966500  1
  O  O70  1  0.25880802  0.63543344  0.86542711  1
  O  O71  1  0.76084838  0.63725716  0.86488864  1
  O  O72  1  0.00126525  0.82680451  0.41254583  1
  O  O73  1  0.50005301  0.82621213  0.41231613  1
  O  O74  1  0.39684581  0.97432094  0.41183673  1
  O  O75  1  0.89702500  0.97307856  0.41149551  1
  O  O76  1  0.07843359  0.18800410  0.41208616  1
  O  O77  1  0.57768200  0.18580746  0.41153306  1
  O  O78  1  0.00617082  0.17967917  0.91156359  1
  O  O79  1  0.50633422  0.18038026  0.91127234  1
  O  O80  1  0.08128332  0.98015910  0.91204150  1
  O  O81  1  0.57853531  0.96827228  0.91193274  1
  O  O82  1  0.39776088  0.81381895  0.91186694  1
  O  O83  1  0.89746853  0.81934227  0.91214507  1
  O  O84  1  0.48981031  0.18017910  0.58809126  1
  O  O85  1  0.98801531  0.18006898  0.58860658  1
  O  O86  1  0.09172015  0.01763624  0.58827813  1
  O  O87  1  0.59378328  0.03692738  0.58863241  1
  O  O88  1  0.41008218  0.79478601  0.58676225  1
  O  O89  1  0.91677441  0.81762521  0.58851215  1
  O  O90  1  0.48749587  0.79695125  0.08912235  1
  O  O91  1  0.98773782  0.79731848  0.08853115  1
  O  O92  1  0.40938729  0.02366804  0.08826547  1
  O  O93  1  0.91006574  0.02510578  0.08741226  1
  O  O94  1  0.09276421  0.16124156  0.08830210  1
  O  O95  1  0.59218362  0.16133340  0.08923523  1
  O  O96  1  0.34094474  0.16485068  0.74410799  1
  O  O97  1  0.83462556  0.16003089  0.74608314  1
  O  O98  1  0.23072571  0.30641938  0.74367094  1
  O  O99  1  0.72905786  0.30557759  0.74358267  1
  O  O100  1  0.41694273  0.51073974  0.74269712  1
  O  O101  1  0.91368078  0.51422018  0.74436740  1
  O  O102  1  0.34100386  0.51693612  0.24463932  1
  O  O103  1  0.84150620  0.51769276  0.24453496  1
  O  O104  1  0.41627940  0.32160851  0.24315062  1
  O  O105  1  0.91639641  0.32157160  0.24305991  1
  O  O106  1  0.23071419  0.15242186  0.24283856  1
  O  O107  1  0.73082156  0.15228613  0.24280140  1
  O  O108  1  0.32120936  0.51177107  0.92359604  1
  O  O109  1  0.82630606  0.51830112  0.92385533  1
  O  O110  1  0.42918905  0.37241761  0.92411028  1
  O  O111  1  0.92722319  0.36224599  0.92514879  1
  O  O112  1  0.24796727  0.15255045  0.92199797  1
  O  O113  1  0.75260284  0.14295676  0.92371438  1
  O  O114  1  0.32588126  0.13407110  0.42339520  1
  O  O115  1  0.82624273  0.13361531  0.42280924  1
  O  O116  1  0.25246555  0.36162460  0.42319590  1
  O  O117  1  0.75209406  0.35931198  0.42055850  1
  O  O118  1  0.42679564  0.49020702  0.42418806  1
  O  O119  1  0.92807214  0.48719595  0.42141867  1
  O  O120  1  0.17820482  0.50735605  0.07940509  1
  O  O121  1  0.67785520  0.50763050  0.08022218  1
  O  O122  1  0.06517116  0.64590235  0.07916339  1
  O  O123  1  0.56502754  0.64633410  0.07970370  1
  O  O124  1  0.25648625  0.87131026  0.07822520  1
  O  O125  1  0.75710497  0.87189007  0.07798521  1
  O  O126  1  0.17185529  0.84212869  0.57997930  1
  O  O127  1  0.67911505  0.85468305  0.57786218  1
  O  O128  1  0.25693175  0.64351320  0.57708139  1
  O  O129  1  0.74792237  0.64713499  0.57756351  1
  O  O130  1  0.06487464  0.48758319  0.57730766  1
  O  O131  1  0.56512765  0.48233202  0.57958376  1
  O  O132  1  0.15306260  0.84602050  0.25604256  1
  O  O133  1  0.65316515  0.84613851  0.25601895  1
  O  O134  1  0.25896740  0.68833257  0.25471690  1
  O  O135  1  0.75887895  0.68801809  0.25501257  1
  O  O136  1  0.08285609  0.48190394  0.25551227  1
  O  O137  1  0.58302007  0.48170239  0.25542987  1
  O  O138  1  0.15755740  0.46504942  0.75587705  1
  O  O139  1  0.65215716  0.45919526  0.75511093  1
  O  O140  1  0.08574965  0.69264007  0.75416052  1
  O  O141  1  0.58360501  0.68377703  0.75488519  1
  O  O142  1  0.25919022  0.82926564  0.75435877  1
  O  O143  1  0.75862001  0.82675783  0.75440970  1
loop_
_geom_bond_atom_site_label_1
_geom_bond_atom_site_label_2
_geom_bond_distance
_geom_bond_site_symmetry_2
Na0 O102 2.482761 1_555
Na0 O134 2.519976 1_555
Na0 O136 2.524227 1_555
Na0 O106 2.532338 1_555
Na0 O34 2.600045 1_555
Na0 O20 2.845213 1_555
Na0 O64 2.873941 1_555
Na1 O103 2.491179 1_555
Na1 O135 2.514998 1_555
Na1 O137 2.516470 1_555
Na1 O107 2.538415 1_555
Na1 O35 2.555056 1_555
Na1 O21 2.850847 1_555
Na1 O65 2.914408 1_555
Na1 O1 3.006775 1_555
Na2 O105 2.416592 1_555
Na2 O103 2.441035 1_555
Na2 O136 2.559477 1_655
Na2 O132 2.590357 1_655
Na2 O60 2.767440 1_655
Na2 O31 2.868419 1_555
Na2 O3 2.874911 1_555
Na3 O104 2.415474 1_555
Na3 O102 2.453541 1_555
Na3 O137 2.558055 1_555
Na3 O133 2.588007 1_555
Na3 O61 2.699141 1_555
Na3 O30 2.860773 1_555
Na3 O2 2.886831 1_555
Na4 O100 2.431345 1_555
Na4 O96 2.463877 1_555
Na4 O139 2.562277 1_555
Na4 O141 2.571525 1_555
Na4 O67 2.637513 1_555
Na4 O10 2.754275 1_555
Na4 O24 2.951993 1_555
Na5 O140 2.440541 1_555
Na5 O96 2.487251 1_565
Na5 O142 2.516414 1_555
Na5 O98 2.517330 1_565
Na5 O26 2.638407 1_565
Na5 O68 2.772272 1_555
Na5 O16 2.916005 1_555
Na5 O6 3.022596 1_565
Na6 O97 2.353879 1_565
Na6 O99 2.500709 1_565
Na6 O143 2.519994 1_555
Na6 O141 2.538410 1_555
Na6 O27 2.596900 1_565
Na6 O69 2.838594 1_555
Na6 O17 2.906518 1_555
Na6 O7 3.011602 1_565
Na7 O87 2.413394 1_555
Na7 O129 2.442558 1_555
Na7 O131 2.596317 1_555
Na7 O57 2.661731 1_555
Na7 O84 2.662917 1_555
Na7 O43 2.848423 1_555
Na7 O29 2.856708 1_555
Na7 O15 2.906109 1_555
Na8 O126 2.431669 1_555
Na8 O86 2.472537 1_565
Na8 O130 2.526978 1_555
Na8 O89 2.530952 1_455
Na8 O58 2.656899 1_555
Na8 O16 2.852599 1_555
Na8 O45 2.935426 1_455
Na8 O25 2.995211 1_455
Na9 O127 2.381068 1_555
Na9 O129 2.474862 1_555
Na9 O89 2.544155 1_555
Na9 O85 2.614566 1_565
Na9 O13 2.680298 1_555
Na9 O27 2.906743 1_565
Na9 O55 2.911586 1_555
Na10 O81 2.355609 1_555
Na10 O110 2.396795 1_555
Na10 O82 2.596686 1_555
Na10 O8 2.597401 1_555
Na10 O108 2.693413 1_555
Na10 O67 2.899738 1_555
Na10 O53 2.948994 1_555
Na10 O38 2.964379 1_556
Na11 O80 2.439226 1_655
Na11 O111 2.485249 1_555
Na11 O9 2.621566 1_555
Na11 O109 2.637775 1_555
Na11 O83 2.660370 1_555
Na11 O66 2.842802 1_655
Na11 O52 2.873856 1_655
Na11 O39 2.959278 1_556
Na12 O78 2.445644 1_655
Na12 O113 2.458818 1_555
Na12 O83 2.514695 1_545
Na12 O11 2.566924 1_555
Na12 O111 2.595323 1_555
Na12 O69 2.881223 1_545
Na12 O41 2.952526 1_556
Na13 O78 2.455522 1_555
Na13 O80 2.472929 1_545
Na13 O112 2.513538 1_555
Na13 O108 2.622377 1_555
Na13 O36 2.754881 1_556
Na13 O50 2.776946 1_555
Na13 O6 2.878460 1_555
Na14 O77 2.375385 1_555
Na14 O118 2.450102 1_555
Na14 O4 2.597820 1_555
Na14 O114 2.630859 1_555
Na14 O74 2.679570 1_545
Na14 O61 2.884337 1_555
Na14 O57 2.946292 1_555
Na14 O46 2.953834 1_555
Na15 O76 2.379225 1_655
Na15 O119 2.398870 1_555
Na15 O5 2.591695 1_555
Na15 O115 2.594415 1_555
Na15 O75 2.662517 1_545
Na15 O47 2.901439 1_555
Na15 O60 2.912966 1_655
Na15 O56 2.959308 1_655
Na16 O73 2.337069 1_555
Na16 O116 2.469813 1_555
Na16 O74 2.506667 1_555
Na16 O2 2.565299 1_555
Na16 O118 2.592012 1_555
Na16 O64 2.902456 1_555
Na16 O44 2.944146 1_555
Na17 O72 2.355264 1_655
Na17 O117 2.475884 1_555
Na17 O75 2.492328 1_555
Na17 O119 2.624265 1_555
Na17 O3 2.635525 1_555
Na17 O45 2.806278 1_555
Na17 O65 2.947226 1_555
Na18 O76 2.455308 1_555
Na18 O72 2.469903 1_545
Na18 O86 2.483525 1_555
Na18 O89 2.744731 1_445
Na18 O85 2.842182 1_455
Na18 O75 2.853884 1_445
Na19 O73 2.399979 1_555
Na19 O77 2.474622 1_565
Na19 O87 2.523504 1_565
Na19 O88 2.799504 1_555
Na19 O74 2.812588 1_555
Na19 O84 2.881380 1_565
Na20 O80 2.490411 1_545
Na20 O94 2.501993 1_556
Na20 O78 2.535674 1_555
Na20 O91 2.754264 1_446
Na20 O93 2.769440 1_456
Na20 O83 2.803014 1_445
Na21 O79 2.400804 1_555
Na21 O81 2.468519 1_545
Na21 O95 2.563240 1_556
Na21 O82 2.801363 1_545
Na21 O92 2.838920 1_556
Na21 O90 2.913605 1_546
Na22 O96 2.522532 1_555
Na22 O100 2.572676 1_555
Na22 O110 2.594368 1_555
Na22 O112 2.646537 1_555
Na22 O98 2.784815 1_555
Na22 O108 2.819518 1_555
Na23 O101 2.408953 1_555
Na23 O97 2.420204 1_555
Na23 O111 2.705146 1_555
Na23 O99 2.723851 1_555
Na23 O113 2.810897 1_555
Na23 O109 2.885506 1_555
Na24 O104 2.494055 1_555
Na24 O102 2.530549 1_555
Na24 O106 2.690964 1_555
Na24 O118 2.694764 1_555
Na24 O116 2.735888 1_555
Na24 O114 2.791194 1_555
Na25 O105 2.529636 1_555
Na25 O103 2.561906 1_555
Na25 O119 2.625065 1_555
Na25 O117 2.652128 1_555
Na25 O107 2.708505 1_555
Na25 O115 2.756816 1_555
Na26 O120 2.367120 1_555
Na26 O124 2.590352 1_555
Na26 O134 2.604024 1_555
Na26 O122 2.697534 1_555
Na26 O136 2.727872 1_555
Na26 O132 2.909963 1_555
Na27 O121 2.352337 1_555
Na27 O125 2.600670 1_555
Na27 O135 2.610335 1_555
Na27 O123 2.689892 1_555
Na27 O137 2.723745 1_555
Na27 O133 2.905334 1_555
Na28 O142 2.495766 1_555
Na28 O126 2.514767 1_555
Na28 O140 2.606258 1_555
Na28 O128 2.685867 1_555
Na28 O138 2.737715 1_555
Na28 O130 2.805983 1_555
Na29 O127 2.505553 1_555
Na29 O143 2.527361 1_555
Na29 O129 2.543820 1_555
Na29 O141 2.639425 1_555
Na29 O131 2.748213 1_555
Na29 O139 2.813846 1_555
O0 S0 1.481277 1_555
O0 Sc0 2.153053 1_545
O1 S1 1.481807 1_555
O1 Sc1 2.142624 1_545
O2 Si0 1.635393 1_555
O2 Sc1 2.040663 1_555
O3 Si1 1.636535 1_555
O3 Sc0 2.032525 1_655
O4 Si3 1.622187 1_555
O4 Sc1 2.043326 1_545
O5 Si2 1.620924 1_555
O5 Sc0 2.046514 1_645
O6 S2 1.487195 1_555
O6 Sc2 2.180560 1_445
O7 S3 1.465311 1_555
O7 Sc3 2.188319 1_555
O8 Si5 1.607478 1_555
O8 Sc3 2.100598 1_565
O9 Si4 1.627622 1_555
O9 Sc2 2.004717 1_555
O10 Si6 1.613793 1_545
O10 Sc3 2.000565 1_555
O11 Si7 1.633008 1_555
O11 Sc2 1.989480 1_545
O12 Si6 1.656445 1_555
O12 Zr1 1.980888 1_555
O13 Si7 1.662259 1_565
O13 Zr0 2.028724 1_555
O14 S2 1.485241 1_555
O14 Zr0 2.232446 1_445
O15 S3 1.509952 1_555
O15 Zr1 2.256111 1_545
O16 Si4 1.676040 1_455
O16 Zr0 1.972630 1_455
O17 Si5 1.672874 1_555
O17 Zr1 1.944650 1_555
O18 Si0 1.634589 1_555
O18 Zr3 2.029678 1_565
O19 Si1 1.639747 1_555
O19 Zr2 2.028705 1_565
O20 Si2 1.656511 1_455
O20 Zr2 1.973182 1_455
O21 Si3 1.654567 1_555
O21 Zr3 1.976900 1_555
O22 S0 1.485129 1_565
O22 Zr2 2.257567 1_465
O23 S1 1.484330 1_565
O23 Zr3 2.256103 1_565
O24 S4 1.473968 1_555
O24 Sc4 2.165526 1_555
O25 S5 1.467221 1_555
O25 Sc5 2.182963 1_555
O26 Si8 1.624326 1_555
O26 Sc4 1.990426 1_555
O27 Si9 1.626260 1_555
O27 Sc5 2.079305 1_555
O28 S6 1.458575 1_555
O28 Sc4 2.245512 1_555
O29 Si10 1.607703 1_555
O29 Sc5 2.028935 1_555
O30 S7 1.493691 1_555
O30 Sc6 2.116865 1_555
O31 S8 1.491024 1_555
O31 Sc7 2.128581 1_555
O32 S9 1.472793 1_555
O32 Sc6 2.209930 1_555
O33 S10 1.472344 1_555
O33 Sc7 2.211239 1_555
O34 Si11 1.644583 1_555
O34 Sc6 1.969858 1_555
O35 Si12 1.642860 1_555
O35 Sc7 1.970138 1_555
O36 Si11 1.669681 1_555
O36 Zr4 2.015674 1_554
O37 Si12 1.666543 1_555
O37 Zr5 1.947419 1_554
O38 S7 1.489844 1_555
O38 Zr4 2.289992 1_554
O39 S8 1.490839 1_555
O39 Zr5 2.294574 1_554
O40 S9 1.504098 1_555
O40 Zr4 2.102061 1_554
O41 S10 1.507654 1_555
O41 Zr5 2.163562 1_554
O42 Si8 1.665318 1_555
O42 Zr6 1.958151 1_555
O43 Si9 1.668559 1_555
O43 Zr7 1.993351 1_555
O44 S6 1.511820 1_555
O44 Zr6 2.150272 1_555
O45 Si10 1.675595 1_555
O45 Zr7 1.992634 1_555
O46 S4 1.491039 1_555
O46 Zr6 2.279571 1_555
O47 S5 1.500117 1_555
O47 Zr7 2.311873 1_555
O48 S11 1.465376 1_555
O48 Sc8 2.188361 1_556
O49 S12 1.460648 1_555
O49 Sc9 2.225014 1_556
O50 Si13 1.624478 1_555
O50 Sc8 1.942922 1_556
O51 Si14 1.620599 1_555
O51 Sc9 1.906654 1_556
O52 Si15 1.613309 1_555
O52 Sc8 2.043220 1_556
O53 Si16 1.611059 1_555
O53 Sc9 2.029243 1_556
O54 S13 1.471341 1_555
O54 Sc10 2.159475 1_555
O55 S14 1.476990 1_555
O55 Sc11 2.221896 1_555
O56 Si17 1.615992 1_555
O56 Sc10 2.003390 1_555
O57 Si18 1.623185 1_555
O57 Sc11 2.079575 1_555
O58 Si19 1.632500 1_555
O58 Sc10 1.956765 1_555
O59 Si20 1.611902 1_555
O59 Sc11 1.945825 1_555
O60 Si19 1.661523 1_555
O60 Zr8 2.051042 1_555
O61 Si20 1.665560 1_555
O61 Zr9 2.062516 1_555
O62 S13 1.477717 1_555
O62 Zr8 2.280991 1_555
O63 S14 1.480392 1_555
O63 Zr9 2.263927 1_555
O64 Si17 1.673329 1_555
O64 Zr8 1.990954 1_555
O65 Si18 1.673541 1_555
O65 Zr9 1.984235 1_555
O66 Si13 1.649772 1_555
O66 Zr10 2.028618 1_555
O67 Si14 1.671218 1_555
O67 Zr11 2.060210 1_555
O68 Si15 1.657490 1_555
O68 Zr10 1.991660 1_555
O69 Si16 1.682007 1_555
O69 Zr11 1.983029 1_555
O70 S11 1.489072 1_555
O70 Zr10 2.300297 1_555
O71 S12 1.481275 1_555
O71 Zr11 2.270441 1_555
O72 Si19 1.627275 1_555
O72 Sc0 2.109765 1_555
O73 Si20 1.629243 1_555
O73 Sc1 2.111887 1_555
O74 S13 1.483941 1_555
O74 Sc1 2.284999 1_555
O75 S14 1.491532 1_555
O75 Sc0 2.260718 1_655
O76 Si17 1.618087 1_555
O76 Sc0 2.131729 1_545
O77 Si18 1.622222 1_555
O77 Sc1 2.109866 1_545
O78 Si13 1.637741 1_555
O78 Sc2 2.146124 1_445
O79 Si14 1.611799 1_555
O79 Sc3 2.034814 1_555
O80 Si15 1.644457 1_555
O80 Sc2 2.175378 1_455
O81 Si16 1.613844 1_555
O81 Sc3 2.153863 1_565
O82 S11 1.468343 1_555
O82 Sc3 2.230641 1_565
O83 S12 1.494992 1_555
O83 Sc2 2.261296 1_555
O84 S4 1.493679 1_555
O84 Zr1 2.361164 1_545
O85 S5 1.487304 1_555
O85 Zr0 2.332402 1_545
O86 Si8 1.657639 1_555
O86 Zr0 2.116850 1_445
O87 Si9 1.667027 1_555
O87 Zr1 2.114734 1_545
O88 S6 1.505760 1_555
O88 Zr1 2.183424 1_555
O89 Si10 1.664684 1_555
O89 Zr0 2.074234 1_555
O90 S7 1.484727 1_555
O90 Zr3 2.297612 1_565
O91 S8 1.488115 1_555
O91 Zr2 2.310008 1_565
O92 S9 1.501271 1_555
O92 Zr3 2.163013 1_555
O93 S10 1.509377 1_555
O93 Zr2 2.169936 1_555
O94 Si11 1.669364 1_555
O94 Zr2 2.057716 1_455
O95 Si12 1.659748 1_555
O95 Zr3 2.044390 1_555
O96 Si6 1.663406 1_545
O96 Sc4 2.023576 1_555
O97 Si7 1.634119 1_555
O97 Sc5 2.108050 1_555
O98 S2 1.487379 1_555
O98 Sc4 2.205020 1_555
O99 S3 1.472640 1_555
O99 Sc5 2.232040 1_555
O100 Si5 1.626744 1_555
O100 Sc4 2.084863 1_555
O101 Si4 1.605461 1_555
O101 Sc5 2.048832 1_555
O102 Si0 1.663666 1_555
O102 Sc6 2.060727 1_555
O103 Si1 1.663344 1_555
O103 Sc7 2.057578 1_555
O104 Si3 1.624652 1_555
O104 Sc6 2.119137 1_555
O105 Si2 1.623074 1_555
O105 Sc7 2.117284 1_555
O106 S0 1.480150 1_555
O106 Sc6 2.255360 1_555
O107 S1 1.479258 1_555
O107 Sc7 2.249077 1_555
O108 S11 1.521639 1_555
O108 Zr4 2.269007 1_555
O109 S12 1.504476 1_555
O109 Zr5 2.209276 1_555
O110 Si14 1.681410 1_555
O110 Zr4 2.081878 1_555
O111 Si13 1.658155 1_655
O111 Zr5 2.152072 1_555
O112 Si15 1.670870 1_545
O112 Zr4 2.011819 1_555
O113 Si16 1.673146 1_545
O113 Zr5 1.997308 1_555
O114 S13 1.501958 1_545
O114 Zr6 2.219584 1_555
O115 S14 1.490783 1_545
O115 Zr7 2.315278 1_555
O116 Si17 1.666190 1_555
O116 Zr6 2.009360 1_555
O117 Si18 1.660123 1_555
O117 Zr7 2.029069 1_555
O118 Si20 1.683908 1_555
O118 Zr6 2.133613 1_555
O119 Si19 1.672317 1_655
O119 Zr7 2.150896 1_555
O120 Si11 1.629024 1_555
O120 Sc8 2.067557 1_555
O121 Si12 1.622308 1_555
O121 Sc9 2.071853 1_555
O122 S8 1.476005 1_455
O122 Sc8 2.215935 1_555
O123 S7 1.475433 1_555
O123 Sc9 2.204186 1_555
O124 S9 1.459850 1_565
O124 Sc8 2.352779 1_555
O125 S10 1.458544 1_565
O125 Sc9 2.386755 1_555
O126 Si8 1.645200 1_565
O126 Sc10 2.091293 1_555
O127 Si9 1.628966 1_565
O127 Sc11 2.074322 1_555
O128 S6 1.472014 1_555
O128 Sc10 2.322218 1_555
O129 Si10 1.628814 1_555
O129 Sc11 2.176347 1_555
O130 S5 1.484254 1_455
O130 Sc10 2.219508 1_555
O131 S4 1.486141 1_555
O131 Sc11 2.212390 1_555
O132 S0 1.488008 1_565
O132 Zr8 2.309148 1_555
O133 S1 1.487026 1_565
O133 Zr9 2.307659 1_555
O134 Si0 1.652539 1_555
O134 Zr8 2.084810 1_555
O135 Si1 1.652574 1_555
O135 Zr9 2.094483 1_555
O136 Si2 1.690208 1_455
O136 Zr8 2.043219 1_555
O137 Si3 1.688942 1_555
O137 Zr9 2.048569 1_555
O138 S2 1.475093 1_555
O138 Zr10 2.304709 1_555
O139 S3 1.489616 1_555
O139 Zr11 2.335771 1_555
O140 Si4 1.671049 1_455
O140 Zr10 2.029354 1_555
O141 Si5 1.682873 1_555
O141 Zr11 2.060163 1_555
O142 Si6 1.641577 1_555
O142 Zr10 2.118456 1_555
O143 Si7 1.669439 1_565
O143 Zr11 2.082607 1_555
