# generated using pymatgen
data_Na8MgTi3Si5SO24
_symmetry_space_group_name_H-M   'P 1'
_cell_length_a   9.02311962
_cell_length_b   9.02401015
_cell_length_c   22.07832966
_cell_angle_alpha   90.65586341
_cell_angle_beta   90.04578079
_cell_angle_gamma   120.03715490
_symmetry_Int_Tables_number   1
_chemical_formula_structural   Na8MgTi3Si5SO24
_chemical_formula_sum   'Na24 Mg3 Ti9 Si15 S3 O72'
_cell_volume   1556.14337592
_cell_formula_units_Z   3
loop_
 _symmetry_equiv_pos_site_id
 _symmetry_equiv_pos_as_xyz
  1  'x, y, z'
loop_
 _atom_site_type_symbol
 _atom_site_label
 _atom_site_symmetry_multiplicity
 _atom_site_fract_x
 _atom_site_fract_y
 _atom_site_fract_z
 _atom_site_occupancy
  Na  Na0  1  0.64383322  0.01399310  0.24771292  1
  Na  Na1  1  0.36332708  0.36429032  0.24436755  1
  Na  Na2  1  0.99321240  0.62023680  0.24472910  1
  Na  Na3  1  0.63053549  0.62199413  0.74834813  1
  Na  Na4  1  0.99349664  0.36821798  0.75196450  1
  Na  Na5  1  0.37885067  0.00763739  0.74857595  1
  Na  Na6  1  0.30966835  0.33443539  0.58708512  1
  Na  Na7  1  0.03279653  0.70530005  0.58304741  1
  Na  Na8  1  0.66255657  0.96630586  0.58851474  1
  Na  Na9  1  0.30636541  0.96656267  0.08109756  1
  Na  Na10  1  0.66250235  0.69360395  0.08078950  1
  Na  Na11  1  0.03191832  0.34492925  0.08168629  1
  Na  Na12  1  0.96432930  0.66711637  0.91583586  1
  Na  Na13  1  0.70207387  0.03538231  0.91569553  1
  Na  Na14  1  0.33349488  0.29771435  0.91590853  1
  Na  Na15  1  0.96241193  0.28868046  0.41356752  1
  Na  Na16  1  0.32491423  0.03122533  0.41786036  1
  Na  Na17  1  0.71023420  0.67560060  0.41794427  1
  Na  Na18  1  0.00040706  0.99622317  0.49746951  1
  Na  Na19  1  0.99991375  0.99825022  0.99508390  1
  Na  Na20  1  0.66615143  0.33279570  0.82977808  1
  Na  Na21  1  0.67697779  0.33138659  0.33398988  1
  Na  Na22  1  0.32968166  0.66294893  0.16108483  1
  Na  Na23  1  0.33998366  0.67147430  0.67041086  1
  Mg  Mg0  1  0.99696267  0.00492500  0.35568551  1
  Mg  Mg1  1  0.65509081  0.32959927  0.68863161  1
  Mg  Mg2  1  0.67556005  0.33397816  0.17883874  1
  Ti  Ti0  1  0.99967133  0.00104525  0.85144114  1
  Ti  Ti1  1  0.00097493  0.98908939  0.65241052  1
  Ti  Ti2  1  0.00598595  0.02061241  0.13887765  1
  Ti  Ti3  1  0.66794351  0.33496228  0.98105013  1
  Ti  Ti4  1  0.65207236  0.33682056  0.47913844  1
  Ti  Ti5  1  0.33314174  0.66745159  0.01677093  1
  Ti  Ti6  1  0.34641986  0.68022558  0.51649796  1
  Ti  Ti7  1  0.32132572  0.65230238  0.32063856  1
  Ti  Ti8  1  0.33477996  0.66645846  0.81429544  1
  Si  Si0  1  0.99787031  0.29443629  0.25247587  1
  Si  Si1  1  0.28788989  0.29039075  0.75099177  1
  Si  Si2  1  0.00186928  0.70615268  0.75197876  1
  Si  Si3  1  0.70947048  0.99908782  0.75037034  1
  Si  Si4  1  0.37355874  0.04060769  0.58420271  1
  Si  Si5  1  0.66555278  0.62747335  0.58487383  1
  Si  Si6  1  0.96147213  0.62795113  0.08526562  1
  Si  Si7  1  0.66029412  0.04041097  0.08419653  1
  Si  Si8  1  0.38241860  0.34007290  0.08520394  1
  Si  Si9  1  0.62396796  0.66603434  0.91665236  1
  Si  Si10  1  0.04248580  0.37668600  0.91603331  1
  Si  Si11  1  0.33372642  0.95751524  0.91679574  1
  Si  Si12  1  0.62439438  0.95986657  0.41487321  1
  Si  Si13  1  0.33146544  0.37533049  0.41869260  1
  Si  Si14  1  0.03824479  0.66334879  0.41881371  1
  S  S0  1  0.29100992  0.99913695  0.25031321  1
  S  S1  1  0.70820975  0.70934461  0.25007773  1
  S  S2  1  0.95700057  0.33433213  0.58280627  1
  O  O0  1  0.20795603  0.01943540  0.30540257  1
  O  O1  1  0.81508121  0.78890674  0.30526674  1
  O  O2  1  0.97076344  0.17583982  0.30962494  1
  O  O3  1  0.19005568  0.16596348  0.80918504  1
  O  O4  1  0.97160482  0.80428892  0.80963546  1
  O  O5  1  0.83309718  0.02535770  0.80950651  1
  O  O6  1  0.80321384  0.96492302  0.69042406  1
  O  O7  1  0.16183512  0.19675368  0.69041044  1
  O  O8  1  0.03639510  0.83325656  0.69179925  1
  O  O9  1  0.79044121  0.81489730  0.19597656  1
  O  O10  1  0.03100066  0.19721807  0.19175417  1
  O  O11  1  0.18286379  0.97102639  0.19547241  1
  O  O12  1  0.88151669  0.36283046  0.63714042  1
  O  O13  1  0.49743824  0.11529836  0.64166960  1
  O  O14  1  0.62724968  0.50742812  0.64193880  1
  O  O15  1  0.88903306  0.51556941  0.14485770  1
  O  O16  1  0.62111925  0.11017294  0.14534583  1
  O  O17  1  0.48906512  0.37159173  0.14651186  1
  O  O18  1  0.46723929  0.29789989  0.02578657  1
  O  O19  1  0.83246462  0.53749674  0.02583282  1
  O  O20  1  0.70476508  0.16816219  0.02567843  1
  O  O21  1  0.47054964  0.16727758  0.52402988  1
  O  O22  1  0.69796294  0.53291643  0.52378416  1
  O  O23  1  0.84979829  0.30735161  0.52747372  1
  O  O24  1  0.53201632  0.69791551  0.97572852  1
  O  O25  1  0.16641691  0.46734569  0.97556128  1
  O  O26  1  0.30158794  0.83409285  0.97549872  1
  O  O27  1  0.52871222  0.83630779  0.47374098  1
  O  O28  1  0.30317088  0.47218726  0.47621138  1
  O  O29  1  0.16548722  0.69374361  0.47594954  1
  O  O30  1  0.13226868  0.62857594  0.35856557  1
  O  O31  1  0.49416973  0.86417956  0.35604184  1
  O  O32  1  0.36998513  0.50179368  0.35879937  1
  O  O33  1  0.13336368  0.50182637  0.85776271  1
  O  O34  1  0.36821677  0.86554997  0.85797246  1
  O  O35  1  0.49797063  0.63149332  0.85774082  1
  O  O36  1  0.02267847  0.83146367  0.41027701  1
  O  O37  1  0.80724517  0.97054021  0.41358712  1
  O  O38  1  0.16982336  0.18675000  0.41327254  1
  O  O39  1  0.02458580  0.18692832  0.91216000  1
  O  O40  1  0.16274525  0.97599151  0.91243200  1
  O  O41  1  0.81294946  0.83772250  0.91253404  1
  O  O42  1  0.97485630  0.17828819  0.58574932  1
  O  O43  1  0.18333387  0.02624692  0.58605437  1
  O  O44  1  0.83834510  0.82091664  0.58605437  1
  O  O45  1  0.97968431  0.82082914  0.09284744  1
  O  O46  1  0.83663054  0.02080825  0.09021123  1
  O  O47  1  0.18714920  0.16123438  0.08884275  1
  O  O48  1  0.69727715  0.17002374  0.74681991  1
  O  O49  1  0.47288706  0.30639038  0.74917350  1
  O  O50  1  0.83468741  0.52125712  0.74532255  1
  O  O51  1  0.68311047  0.53425356  0.24608498  1
  O  O52  1  0.83211137  0.32005137  0.24758616  1
  O  O53  1  0.46213880  0.15446654  0.24695659  1
  O  O54  1  0.63974312  0.49293793  0.92284834  1
  O  O55  1  0.85306900  0.35938842  0.92276505  1
  O  O56  1  0.50694196  0.14671658  0.92327156  1
  O  O57  1  0.63830899  0.14712896  0.42280265  1
  O  O58  1  0.51055066  0.36666039  0.42123788  1
  O  O59  1  0.85324609  0.48609566  0.42298961  1
  O  O60  1  0.34999479  0.50144896  0.07673002  1
  O  O61  1  0.15338147  0.65310104  0.07563103  1
  O  O62  1  0.49821894  0.84591550  0.07562048  1
  O  O63  1  0.34501024  0.84450252  0.57468805  1
  O  O64  1  0.49352305  0.64740710  0.57509175  1
  O  O65  1  0.13227221  0.48864480  0.57744735  1
  O  O66  1  0.30953885  0.84230608  0.25344745  1
  O  O67  1  0.53561405  0.69732203  0.25427218  1
  O  O68  1  0.18114010  0.48836044  0.25459133  1
  O  O69  1  0.29860437  0.47753087  0.75498729  1
  O  O70  1  0.17943486  0.69905825  0.75506372  1
  O  O71  1  0.52282498  0.82248373  0.75502516  1
loop_
_geom_bond_atom_site_label_1
_geom_bond_atom_site_label_2
_geom_bond_distance
_geom_bond_site_symmetry_2
Na0 O52 2.411836 1_555
Na0 O16 2.474991 1_555
Na0 O67 2.521259 1_545
Na0 O53 2.525068 1_555
Na0 O66 2.615622 1_545
Na0 O31 2.761004 1_545
Na0 O2 2.887602 1_555
Na0 O9 2.935547 1_545
Na1 O68 2.417491 1_555
Na1 O17 2.427262 1_555
Na1 O53 2.464921 1_555
Na1 O51 2.499517 1_555
Na1 O67 2.608346 1_555
Na1 O32 2.789202 1_555
Na1 O10 2.835927 1_555
Na2 O52 2.348822 1_555
Na2 O15 2.387027 1_555
Na2 O51 2.501876 1_555
Na2 O68 2.522814 1_655
Na2 O66 2.542384 1_655
Na2 O30 2.791570 1_655
Na3 O50 2.428860 1_555
Na3 O71 2.448269 1_555
Na3 O49 2.465845 1_555
Na3 O14 2.550041 1_555
Na3 O69 2.605289 1_555
Na3 O35 2.715488 1_555
Na4 O48 2.358978 1_555
Na4 O69 2.415805 1_655
Na4 O50 2.442861 1_555
Na4 O70 2.591014 1_655
Na4 O33 2.628704 1_655
Na4 O12 2.719200 1_555
Na5 O49 2.386914 1_555
Na5 O70 2.450654 1_545
Na5 O48 2.488080 1_555
Na5 O13 2.583741 1_555
Na5 O71 2.584135 1_545
Na5 O34 2.726716 1_545
Na6 O43 2.420567 1_555
Na6 O64 2.475061 1_555
Na6 O65 2.603868 1_555
Na6 O42 2.617316 1_455
Na6 O7 2.633946 1_555
Na6 O14 2.754624 1_555
Na6 O28 2.771879 1_555
Na6 O21 2.909998 1_555
Na7 O44 2.450029 1_455
Na7 O63 2.451871 1_555
Na7 O43 2.508906 1_565
Na7 O65 2.528799 1_555
Na7 O8 2.645429 1_555
Na7 O29 2.675687 1_555
Na7 O22 2.915778 1_455
Na7 O12 2.950307 1_455
Na8 O42 2.492009 1_565
Na8 O64 2.506226 1_555
Na8 O44 2.514371 1_555
Na8 O63 2.519734 1_555
Na8 O6 2.585599 1_555
Na8 O13 2.716028 1_565
Na8 O27 2.786509 1_555
Na9 O61 2.450373 1_555
Na9 O62 2.465937 1_555
Na9 O47 2.481468 1_565
Na9 O45 2.571731 1_455
Na9 O26 2.598258 1_554
Na9 O11 2.768973 1_555
Na9 O16 2.832725 1_565
Na9 O18 2.877452 1_565
Na10 O60 2.463139 1_555
Na10 O62 2.478420 1_555
Na10 O45 2.506424 1_555
Na10 O46 2.563450 1_565
Na10 O24 2.609930 1_554
Na10 O9 2.768548 1_555
Na10 O19 2.816958 1_555
Na10 O17 2.923364 1_555
Na11 O61 2.431083 1_555
Na11 O60 2.487937 1_555
Na11 O46 2.559048 1_455
Na11 O25 2.627688 1_554
Na11 O47 2.657963 1_555
Na11 O10 2.783059 1_555
Na11 O15 2.814224 1_455
Na11 O20 2.832398 1_455
Na12 O55 2.441654 1_555
Na12 O40 2.447277 1_655
Na12 O41 2.519710 1_555
Na12 O54 2.543609 1_555
Na12 O4 2.649464 1_555
Na12 O19 2.712577 1_556
Na12 O33 2.903774 1_655
Na12 O26 2.936638 1_655
Na13 O56 2.430015 1_555
Na13 O41 2.443569 1_545
Na13 O39 2.522585 1_655
Na13 O55 2.535863 1_555
Na13 O5 2.647467 1_555
Na13 O20 2.690130 1_556
Na13 O34 2.893941 1_545
Na13 O24 2.966937 1_545
Na14 O54 2.425390 1_555
Na14 O39 2.446123 1_555
Na14 O40 2.514970 1_545
Na14 O56 2.544019 1_555
Na14 O3 2.651638 1_555
Na14 O18 2.708258 1_556
Na14 O35 2.922425 1_555
Na14 O25 2.935619 1_555
Na15 O59 2.436347 1_555
Na15 O38 2.464118 1_655
Na15 O37 2.485623 1_545
Na15 O2 2.516472 1_555
Na15 O57 2.548065 1_555
Na15 O23 2.747944 1_555
Na15 O30 2.934876 1_655
Na15 O28 2.992054 1_655
Na16 O36 2.405311 1_545
Na16 O38 2.430538 1_555
Na16 O57 2.477544 1_555
Na16 O58 2.625357 1_555
Na16 O21 2.653816 1_555
Na16 O0 2.677142 1_555
Na16 O29 2.948795 1_545
Na16 O31 2.954401 1_545
Na17 O37 2.352209 1_555
Na17 O36 2.447741 1_655
Na17 O58 2.449495 1_555
Na17 O59 2.610620 1_555
Na17 O22 2.656536 1_555
Na17 O1 2.687539 1_555
Na17 O27 2.940021 1_555
Na17 O32 2.952415 1_555
Na18 O37 2.470213 1_455
Na18 O43 2.481527 1_565
Na18 O36 2.488176 1_555
Na18 O38 2.488971 1_565
Na18 O44 2.495119 1_455
Na18 O42 2.618768 1_465
Na19 O41 2.398805 1_555
Na19 O40 2.412536 1_655
Na19 O39 2.448056 1_665
Na19 O47 2.596072 1_666
Na19 O46 2.630322 1_566
Na19 O45 2.653824 1_556
Na20 O49 2.415398 1_555
Na20 O48 2.437892 1_555
Na20 O50 2.483895 1_555
Na20 O54 2.577801 1_555
Na20 O55 2.587457 1_555
Na20 O56 2.610236 1_555
Na21 O52 2.398363 1_555
Na21 O59 2.459484 1_555
Na21 O57 2.495249 1_555
Na21 O58 2.556584 1_555
Na21 O53 2.612384 1_555
Na21 O51 2.664808 1_555
Na22 O60 2.414944 1_555
Na22 O61 2.438824 1_555
Na22 O62 2.482213 1_555
Na22 O68 2.550586 1_555
Na22 O66 2.651520 1_555
Na22 O67 2.680334 1_555
Na23 O71 2.398926 1_555
Na23 O70 2.451196 1_555
Na23 O69 2.472043 1_555
Na23 O64 2.586657 1_555
Na23 O63 2.628938 1_555
Na23 O65 2.695928 1_555
Mg0 O2 1.967078 1_555
Mg0 O38 2.031871 1_655
Mg0 O37 2.035126 1_545
Mg0 O36 2.088814 1_645
Mg0 O1 2.115914 1_545
Mg0 O0 2.152038 1_655
Mg1 O13 2.009004 1_555
Mg1 O14 2.035205 1_555
Mg1 O49 2.049056 1_555
Mg1 O50 2.079728 1_555
Mg1 O48 2.111709 1_555
Mg1 O12 2.225896 1_555
Mg2 O15 1.956746 1_555
Mg2 O16 1.959339 1_555
Mg2 O17 2.007923 1_555
Mg2 O52 2.119823 1_555
Mg2 O51 2.300078 1_555
Mg2 O53 2.351963 1_555
O0 S0 1.486029 1_545
O1 S1 1.488303 1_555
O2 Si0 1.602050 1_555
O3 Si1 1.653268 1_555
O3 Ti0 1.873808 1_455
O4 Si2 1.641986 1_655
O4 Ti0 1.892228 1_565
O5 Si3 1.652588 1_545
O5 Ti0 1.870012 1_555
O6 Si3 1.678015 1_555
O6 Ti1 1.884969 1_655
O7 Si1 1.675176 1_555
O7 Ti1 1.887162 1_545
O8 Si2 1.689912 1_555
O8 Ti1 1.820277 1_555
O9 S1 1.484749 1_555
O9 Ti2 2.293675 1_665
O10 Si0 1.700760 1_455
O10 Ti2 1.884290 1_555
O11 S0 1.491929 1_555
O11 Ti2 2.243494 1_565
O12 S2 1.462426 1_555
O13 Si4 1.592928 1_555
O14 Si5 1.592932 1_555
O15 Si6 1.598454 1_555
O16 Si7 1.596259 1_555
O17 Si8 1.598173 1_555
O18 Si8 1.653262 1_555
O18 Ti3 1.941937 1_554
O19 Si6 1.662801 1_555
O19 Ti3 1.939526 1_554
O20 Si7 1.652592 1_555
O20 Ti3 1.970019 1_554
O21 Si4 1.694875 1_555
O21 Ti4 1.880000 1_555
O22 Si5 1.690224 1_555
O22 Ti4 1.870911 1_555
O23 S2 1.497632 1_555
O23 Ti4 2.207037 1_555
O24 Si9 1.644526 1_555
O24 Ti5 1.905579 1_556
O25 Si10 1.644465 1_555
O25 Ti5 1.895344 1_556
O26 Si11 1.647620 1_555
O26 Ti5 1.905859 1_556
O27 Si12 1.658033 1_555
O27 Ti6 1.814957 1_555
O28 Si13 1.624905 1_555
O28 Ti6 1.922398 1_555
O29 Si14 1.630708 1_555
O29 Ti6 1.918642 1_555
O30 Si14 1.687118 1_555
O30 Ti7 1.815984 1_555
O31 Si12 1.664201 1_555
O31 Ti7 1.917694 1_555
O32 Si13 1.676285 1_555
O32 Ti7 1.835733 1_555
O33 Si10 1.646415 1_555
O33 Ti8 1.939965 1_555
O34 Si11 1.645231 1_555
O34 Ti8 1.914663 1_555
O35 Si9 1.647726 1_555
O35 Ti8 1.912498 1_555
O36 Si14 1.605173 1_555
O37 Si12 1.604134 1_555
O38 Si13 1.596179 1_555
O39 Si10 1.638710 1_555
O39 Ti0 2.057158 1_455
O40 Si11 1.635515 1_555
O40 Ti0 2.089582 1_465
O41 Si9 1.635534 1_555
O41 Ti0 2.096028 1_565
O42 S2 1.497414 1_555
O42 Ti1 2.365675 1_645
O43 Si4 1.655934 1_555
O43 Ti1 2.104517 1_545
O44 Si5 1.659206 1_555
O44 Ti1 2.078211 1_655
O45 Si6 1.670755 1_555
O45 Ti2 1.966905 1_665
O46 Si7 1.691897 1_555
O46 Ti2 1.868088 1_655
O47 Si8 1.694662 1_555
O47 Ti2 1.860388 1_555
O48 Si3 1.603215 1_545
O49 Si1 1.602442 1_555
O50 Si2 1.598542 1_655
O51 S1 1.481242 1_555
O52 Si0 1.627427 1_555
O53 S0 1.479962 1_545
O54 Si9 1.645097 1_555
O54 Ti3 2.037841 1_555
O55 Si10 1.643604 1_655
O55 Ti3 2.033746 1_555
O56 Si11 1.643428 1_545
O56 Ti3 2.024913 1_555
O57 Si12 1.637931 1_545
O57 Ti4 2.056900 1_555
O58 Si13 1.657396 1_555
O58 Ti4 1.920115 1_555
O59 Si14 1.638302 1_655
O59 Ti4 2.059184 1_555
O60 Si8 1.635226 1_555
O60 Ti5 2.071889 1_555
O61 Si6 1.644239 1_455
O61 Ti5 2.033069 1_555
O62 Si7 1.636257 1_565
O62 Ti5 2.011944 1_555
O63 Si4 1.666493 1_565
O63 Ti6 1.955413 1_555
O64 Si5 1.663837 1_555
O64 Ti6 1.980559 1_555
O65 S2 1.501191 1_455
O65 Ti6 2.290510 1_555
O66 S0 1.508230 1_555
O66 Ti7 2.322146 1_555
O67 S1 1.508974 1_555
O67 Ti7 2.298346 1_555
O68 Si0 1.702963 1_455
O68 Ti7 1.997320 1_555
O69 Si1 1.643821 1_555
O69 Ti8 2.029496 1_555
O70 Si2 1.636576 1_555
O70 Ti8 2.044546 1_555
O71 Si3 1.644295 1_555
O71 Ti8 2.056168 1_555
