# generated using pymatgen
data_Cs2GaSb2
_symmetry_space_group_name_H-M   'P 1'
_cell_length_a   8.43287258
_cell_length_b   11.30095092
_cell_length_c   18.27400576
_cell_angle_alpha   90.00000000
_cell_angle_beta   90.00000000
_cell_angle_gamma   90.00000000
_symmetry_Int_Tables_number   1
_chemical_formula_structural   Cs2GaSb2
_chemical_formula_sum   'Cs16 Ga8 Sb16'
_cell_volume   1741.50323075
_cell_formula_units_Z   8
loop_
 _symmetry_equiv_pos_site_id
 _symmetry_equiv_pos_as_xyz
  1  'x, y, z'
loop_
 _atom_site_type_symbol
 _atom_site_label
 _atom_site_symmetry_multiplicity
 _atom_site_fract_x
 _atom_site_fract_y
 _atom_site_fract_z
 _atom_site_occupancy
  Cs  Cs0  1  0.86985339  0.44661965  0.36398037  1
  Cs  Cs1  1  0.36985339  0.55338035  0.13601963  1
  Cs  Cs2  1  0.13014661  0.94661965  0.63601963  1
  Cs  Cs3  1  0.63014661  0.05338035  0.86398037  1
  Cs  Cs4  1  0.13014661  0.55338035  0.63601963  1
  Cs  Cs5  1  0.63014661  0.44661965  0.86398037  1
  Cs  Cs6  1  0.86985339  0.05338035  0.36398037  1
  Cs  Cs7  1  0.36985339  0.94661965  0.13601963  1
  Cs  Cs8  1  0.37720947  0.46614362  0.37089598  1
  Cs  Cs9  1  0.87720947  0.53385638  0.12910402  1
  Cs  Cs10  1  0.62279053  0.96614362  0.62910402  1
  Cs  Cs11  1  0.12279053  0.03385638  0.87089598  1
  Cs  Cs12  1  0.62279053  0.53385638  0.62910402  1
  Cs  Cs13  1  0.12279053  0.46614362  0.87089598  1
  Cs  Cs14  1  0.37720947  0.03385638  0.37089598  1
  Cs  Cs15  1  0.87720947  0.96614362  0.12910402  1
  Ga  Ga0  1  0.10842624  0.75000000  0.42110560  1
  Ga  Ga1  1  0.60842624  0.25000000  0.07889440  1
  Ga  Ga2  1  0.39157376  0.75000000  0.92110560  1
  Ga  Ga3  1  0.85962180  0.75000000  0.92066461  1
  Ga  Ga4  1  0.35962180  0.25000000  0.57933539  1
  Ga  Ga5  1  0.14037820  0.25000000  0.07933539  1
  Ga  Ga6  1  0.64037820  0.75000000  0.42066461  1
  Ga  Ga7  1  0.89157376  0.25000000  0.57889440  1
  Sb  Sb0  1  0.70140828  0.75000000  0.28184382  1
  Sb  Sb1  1  0.37355739  0.25000000  0.98896089  1
  Sb  Sb2  1  0.12644261  0.25000000  0.48896089  1
  Sb  Sb3  1  0.87355739  0.75000000  0.51103911  1
  Sb  Sb4  1  0.45402181  0.75000000  0.78210259  1
  Sb  Sb5  1  0.95402181  0.25000000  0.71789741  1
  Sb  Sb6  1  0.54597819  0.25000000  0.21789741  1
  Sb  Sb7  1  0.04597819  0.75000000  0.28210259  1
  Sb  Sb8  1  0.20140828  0.25000000  0.21815618  1
  Sb  Sb9  1  0.29859172  0.25000000  0.71815618  1
  Sb  Sb10  1  0.79859172  0.75000000  0.78184382  1
  Sb  Sb11  1  0.37491386  0.75000000  0.49399326  1
  Sb  Sb12  1  0.12508614  0.75000000  0.99399326  1
  Sb  Sb13  1  0.62508614  0.25000000  0.50600674  1
  Sb  Sb14  1  0.62644261  0.75000000  0.01103911  1
  Sb  Sb15  1  0.87491386  0.25000000  0.00600674  1
loop_
_geom_bond_atom_site_label_1
_geom_bond_atom_site_label_2
_geom_bond_distance
_geom_bond_site_symmetry_2
Cs0 Sb2 3.851671 1_655
Cs0 Sb13 3.991711 1_555
Cs0 Sb0 4.003144 1_555
Cs0 Sb7 4.024819 1_655
Cs0 Ga6 4.070903 1_555
Cs0 Ga0 4.109966 1_655
Cs0 Cs8 4.162177 1_555
Cs0 Cs8 4.286018 1_655
Cs0 Sb3 4.356301 1_555
Cs0 Cs9 4.404334 1_555
Cs0 Sb6 4.418486 1_555
Cs0 Cs6 4.443978 1_555
Cs0 Sb8 4.455979 1_655
Cs1 Sb14 3.851671 1_555
Cs1 Sb12 3.991711 1_554
Cs1 Sb8 4.003144 1_555
Cs1 Sb6 4.024819 1_555
Cs1 Ga5 4.070903 1_555
Cs1 Ga1 4.109966 1_555
Cs1 Cs9 4.162177 1_455
Cs1 Cs9 4.286018 1_555
Cs1 Sb1 4.356301 1_554
Cs1 Cs8 4.404334 1_555
Cs1 Sb7 4.418486 1_555
Cs1 Cs7 4.443978 1_555
Cs1 Sb0 4.455979 1_555
Cs2 Sb3 3.851671 1_455
Cs2 Sb11 3.991711 1_555
Cs2 Sb9 4.003144 1_565
Cs2 Sb5 4.024819 1_465
Cs2 Ga4 4.070903 1_565
Cs2 Ga7 4.109966 1_465
Cs2 Sb2 4.356301 1_565
Cs2 Sb4 4.418486 1_555
Cs2 Cs4 4.443978 1_555
Cs2 Sb10 4.455979 1_455
Cs3 Sb1 3.851671 1_555
Cs3 Sb15 3.991711 1_556
Cs3 Sb10 4.003144 1_545
Cs3 Sb4 4.024819 1_545
Cs3 Ga3 4.070903 1_545
Cs3 Ga2 4.109966 1_545
Cs3 Sb14 4.356301 1_546
Cs3 Sb5 4.418486 1_555
Cs3 Cs5 4.443978 1_555
Cs3 Sb9 4.455979 1_555
Cs4 Sb3 3.851671 1_455
Cs4 Sb11 3.991711 1_555
Cs4 Sb9 4.003144 1_555
Cs4 Sb5 4.024819 1_455
Cs4 Ga4 4.070903 1_555
Cs4 Ga7 4.109966 1_455
Cs4 Sb2 4.356301 1_555
Cs4 Sb4 4.418486 1_555
Cs4 Sb10 4.455979 1_455
Cs5 Sb1 3.851671 1_555
Cs5 Sb15 3.991711 1_556
Cs5 Sb10 4.003144 1_555
Cs5 Sb4 4.024819 1_555
Cs5 Ga3 4.070903 1_555
Cs5 Ga2 4.109966 1_555
Cs5 Sb14 4.356301 1_556
Cs5 Sb5 4.418486 1_555
Cs5 Sb9 4.455979 1_555
Cs6 Sb2 3.851671 1_655
Cs6 Sb13 3.991711 1_555
Cs6 Sb0 4.003144 1_545
Cs6 Sb7 4.024819 1_645
Cs6 Ga6 4.070903 1_545
Cs6 Ga0 4.109966 1_645
Cs6 Sb3 4.356301 1_545
Cs6 Sb6 4.418486 1_555
Cs6 Sb8 4.455979 1_655
Cs7 Sb14 3.851671 1_555
Cs7 Sb12 3.991711 1_554
Cs7 Sb8 4.003144 1_565
Cs7 Sb6 4.024819 1_565
Cs7 Ga5 4.070903 1_565
Cs7 Ga1 4.109966 1_565
Cs7 Sb1 4.356301 1_564
Cs7 Sb7 4.418486 1_555
Cs7 Sb0 4.455979 1_555
Cs8 Sb2 3.884999 1_555
Cs8 Sb11 3.918012 1_555
Cs8 Sb6 3.976051 1_555
Cs8 Sb8 3.994357 1_555
Cs8 Ga6 4.005318 1_555
Cs8 Ga0 4.033570 1_555
Cs8 Sb13 4.053625 1_555
Cs9 Sb14 3.884999 1_555
Cs9 Sb15 3.918012 1_555
Cs9 Sb7 3.976051 1_655
Cs9 Sb0 3.994357 1_555
Cs9 Ga5 4.005318 1_655
Cs9 Ga1 4.033570 1_555
Cs9 Sb12 4.053625 1_654
Cs10 Sb3 3.884999 1_555
Cs10 Sb13 3.918012 1_565
Cs10 Sb4 3.976051 1_555
Cs10 Sb10 3.994357 1_555
Cs10 Ga4 4.005318 1_565
Cs10 Ga7 4.033570 1_565
Cs10 Sb11 4.053625 1_555
Cs10 Cs2 4.162177 1_555
Cs10 Cs2 4.286018 1_655
Cs10 Cs3 4.404334 1_565
Cs11 Sb1 3.884999 1_555
Cs11 Sb12 3.918012 1_545
Cs11 Sb5 3.976051 1_455
Cs11 Sb9 3.994357 1_555
Cs11 Ga3 4.005318 1_445
Cs11 Ga2 4.033570 1_545
Cs11 Sb15 4.053625 1_456
Cs11 Cs3 4.162177 1_455
Cs11 Cs3 4.286018 1_555
Cs11 Cs2 4.404334 1_545
Cs12 Sb3 3.884999 1_555
Cs12 Sb13 3.918012 1_555
Cs12 Sb4 3.976051 1_555
Cs12 Sb10 3.994357 1_555
Cs12 Ga4 4.005318 1_555
Cs12 Ga7 4.033570 1_555
Cs12 Sb11 4.053625 1_555
Cs12 Cs4 4.162177 1_555
Cs12 Cs4 4.286018 1_655
Cs12 Cs5 4.404334 1_555
Cs13 Sb1 3.884999 1_555
Cs13 Sb12 3.918012 1_555
Cs13 Sb5 3.976051 1_455
Cs13 Sb9 3.994357 1_555
Cs13 Ga3 4.005318 1_455
Cs13 Ga2 4.033570 1_555
Cs13 Sb15 4.053625 1_456
Cs13 Cs5 4.162177 1_455
Cs13 Cs5 4.286018 1_555
Cs13 Cs4 4.404334 1_555
Cs14 Sb2 3.884999 1_555
Cs14 Sb11 3.918012 1_545
Cs14 Sb6 3.976051 1_555
Cs14 Sb8 3.994357 1_555
Cs14 Ga6 4.005318 1_545
Cs14 Ga0 4.033570 1_545
Cs14 Sb13 4.053625 1_555
Cs14 Cs6 4.162177 1_555
Cs14 Cs6 4.286018 1_455
Cs14 Cs7 4.404334 1_545
Cs15 Sb14 3.884999 1_555
Cs15 Sb15 3.918012 1_565
Cs15 Sb7 3.976051 1_655
Cs15 Sb0 3.994357 1_555
Cs15 Ga5 4.005318 1_665
Cs15 Ga1 4.033570 1_565
Cs15 Sb12 4.053625 1_654
Cs15 Cs7 4.162177 1_655
Cs15 Cs7 4.286018 1_555
Cs15 Cs6 4.404334 1_565
Ga0 Sb3 2.573668 1_455
Ga0 Sb7 2.594156 1_555
Ga0 Sb11 2.612326 1_555
Ga1 Sb1 2.573668 1_554
Ga1 Sb6 2.594156 1_555
Ga1 Sb15 2.612326 1_555
Ga2 Sb14 2.573668 1_556
Ga2 Sb4 2.594156 1_555
Ga2 Sb12 2.612326 1_555
Ga3 Sb14 2.567894 1_556
Ga3 Sb10 2.588492 1_555
Ga3 Sb12 2.609037 1_655
Ga4 Sb2 2.567894 1_555
Ga4 Sb9 2.588492 1_555
Ga4 Sb13 2.609037 1_555
Ga5 Sb1 2.567894 1_554
Ga5 Sb8 2.588492 1_555
Ga5 Sb15 2.609037 1_455
Ga6 Sb3 2.567894 1_555
Ga6 Sb0 2.588492 1_555
Ga6 Sb11 2.609037 1_555
Ga7 Sb2 2.573668 1_655
Ga7 Sb5 2.594156 1_555
Ga7 Sb13 2.612326 1_555
