# generated using pymatgen
data_LiAuI4
_symmetry_space_group_name_H-M   'P 1'
_cell_length_a   4.39605371
_cell_length_b   7.18515821
_cell_length_c   13.34591259
_cell_angle_alpha   92.70050941
_cell_angle_beta   90.00000000
_cell_angle_gamma   90.00000000
_symmetry_Int_Tables_number   1
_chemical_formula_structural   LiAuI4
_chemical_formula_sum   'Li2 Au2 I8'
_cell_volume   421.08040318
_cell_formula_units_Z   2
loop_
 _symmetry_equiv_pos_site_id
 _symmetry_equiv_pos_as_xyz
  1  'x, y, z'
loop_
 _atom_site_type_symbol
 _atom_site_label
 _atom_site_symmetry_multiplicity
 _atom_site_fract_x
 _atom_site_fract_y
 _atom_site_fract_z
 _atom_site_occupancy
  Li  Li0  1  0.00000000  -0.00000000  0.50000000  1
  Li  Li1  1  0.50000000  0.50000000  -0.00000000  1
  Au  Au0  1  0.50000000  0.50000000  0.50000000  1
  Au  Au1  1  0.00000000  -0.00000000  -0.00000000  1
  I  I0  1  0.99815293  0.31365062  0.11399323  1
  I  I1  1  0.49815293  0.18634938  0.38600677  1
  I  I2  1  0.00184707  0.68634938  0.88600677  1
  I  I3  1  0.50184707  0.81365062  0.61399323  1
  I  I4  1  0.33227497  0.83343174  0.13728144  1
  I  I5  1  0.83227497  0.66656826  0.36271856  1
  I  I6  1  0.66772503  0.16656826  0.86271856  1
  I  I7  1  0.16772503  0.33343074  0.63728144  1
loop_
_geom_bond_atom_site_label_1
_geom_bond_atom_site_label_2
_geom_bond_distance
_geom_bond_site_symmetry_2
Au0 I3 2.659008 1_555
Au0 I1 2.659008 1_555
Au0 I5 2.670094 1_555
Au0 I7 2.670097 1_555
Au1 I2 2.659008 1_544
Au1 I0 2.659008 1_455
Au1 I6 2.670094 1_454
Au1 I4 2.670094 1_545
I0 Li1 3.015778 1_555
I0 Li1 3.027591 1_655
I1 Li0 3.015778 1_555
I1 Li0 3.027591 1_655
I2 Li1 3.015778 1_556
I2 Li1 3.027591 1_456
I3 Li0 3.015778 1_665
I3 Li0 3.027591 1_565
I4 Li1 3.037509 1_555
I5 Li0 3.037509 1_665
I6 Li1 3.037509 1_556
I7 Li0 3.037504 1_555
