# generated using pymatgen
data_VP2O7
_symmetry_space_group_name_H-M   'P 1'
_cell_length_a   4.54576737
_cell_length_b   7.92309665
_cell_length_c   6.56726531
_cell_angle_alpha   90.00003063
_cell_angle_beta   78.59134022
_cell_angle_gamma   90.00000451
_symmetry_Int_Tables_number   1
_chemical_formula_structural   VP2O7
_chemical_formula_sum   'V2 P4 O14'
_cell_volume   231.85673383
_cell_formula_units_Z   2
loop_
 _symmetry_equiv_pos_site_id
 _symmetry_equiv_pos_as_xyz
  1  'x, y, z'
loop_
 _atom_site_type_symbol
 _atom_site_label
 _atom_site_symmetry_multiplicity
 _atom_site_fract_x
 _atom_site_fract_y
 _atom_site_fract_z
 _atom_site_occupancy
  V  V0  1  0.00000100  0.61622900  0.49999800  1
  V  V1  1  0.00000000  0.11618000  0.00000000  1
  P  P0  1  0.41547500  0.46268100  0.79627100  1
  P  P1  1  0.41550000  0.96264100  0.29627800  1
  P  P2  1  0.58452600  0.46268100  0.20372800  1
  P  P3  1  0.58450000  0.96264100  0.70372300  1
  O  O0  1  0.50000000  0.54820100  0.00000000  1
  O  O1  1  0.49999900  0.04812200  0.50000000  1
  O  O2  1  0.70812000  0.44373000  0.63728900  1
  O  O3  1  0.70805700  0.94360500  0.13725800  1
  O  O4  1  0.29188100  0.44373000  0.36271100  1
  O  O5  1  0.29194200  0.94360500  0.86274200  1
  O  O6  1  0.80448700  0.59144900  0.27083900  1
  O  O7  1  0.80431100  0.09148200  0.77066800  1
  O  O8  1  0.19551300  0.59144800  0.72916200  1
  O  O9  1  0.19568800  0.09148200  0.22933200  1
  O  O10  1  0.73387200  0.29351200  0.14337400  1
  O  O11  1  0.73387500  0.79342100  0.64331000  1
  O  O12  1  0.26612800  0.29351200  0.85662700  1
  O  O13  1  0.26612500  0.79342200  0.35668900  1
loop_
_geom_bond_atom_site_label_1
_geom_bond_atom_site_label_2
_geom_bond_distance
_geom_bond_site_symmetry_2
O0 P2 1.612515 1_555
O0 P0 1.612519 1_554
O1 P1 1.612301 1_545
O1 P3 1.612311 1_545
O2 P0 1.527368 1_555
O2 V0 1.992000 1_655
O3 P1 1.527268 1_555
O3 V1 1.992506 1_665
O4 P2 1.527371 1_555
O4 V0 1.991988 1_555
O5 P3 1.527268 1_555
O5 V1 1.992503 1_566
O6 P2 1.552180 1_555
O6 V0 1.903275 1_655
O7 P3 1.551635 1_545
O7 V1 1.904708 1_656
O8 P0 1.552173 1_555
O8 V0 1.903300 1_555
O9 P1 1.551641 1_545
O9 V1 1.904705 1_555
O10 P2 1.519230 1_555
O10 V1 1.968126 1_655
O11 P3 1.519706 1_555
O11 V0 1.967184 1_655
O12 P0 1.519234 1_555
O12 V1 1.968124 1_556
O13 P1 1.519697 1_555
O13 V0 1.967178 1_555
