# generated using pymatgen
data_MgFe6(OF)6
_symmetry_space_group_name_H-M   'P 1'
_cell_length_a   5.04303881
_cell_length_b   7.97926780
_cell_length_c   5.94381822
_cell_angle_alpha   100.71094518
_cell_angle_beta   94.21980274
_cell_angle_gamma   88.09821159
_symmetry_Int_Tables_number   1
_chemical_formula_structural   MgFe6(OF)6
_chemical_formula_sum   'Mg1 Fe6 O6 F6'
_cell_volume   234.32713115
_cell_formula_units_Z   1
loop_
 _symmetry_equiv_pos_site_id
 _symmetry_equiv_pos_as_xyz
  1  'x, y, z'
loop_
 _atom_site_type_symbol
 _atom_site_label
 _atom_site_symmetry_multiplicity
 _atom_site_fract_x
 _atom_site_fract_y
 _atom_site_fract_z
 _atom_site_occupancy
  Mg  Mg0  1  0.50936409  0.69000768  0.68220617  1
  Fe  Fe0  1  0.55259795  0.66987026  0.15956817  1
  Fe  Fe1  1  0.36258375  0.01273866  0.52325160  1
  Fe  Fe2  1  0.57468107  0.33678617  0.78677141  1
  Fe  Fe3  1  0.00047627  0.66227306  0.67145016  1
  Fe  Fe4  1  0.96840296  0.33566414  0.32247602  1
  Fe  Fe5  1  0.03059676  0.96127693  0.02144935  1
  O  O0  1  0.76066351  0.45542008  0.58869878  1
  O  O1  1  0.78450790  0.77794320  0.94039507  1
  O  O2  1  0.72150441  0.42639981  0.09499599  1
  O  O3  1  0.27025910  0.24476343  0.55754118  1
  O  O4  1  0.29000457  0.87921022  0.22958332  1
  O  O5  1  0.22777276  0.87902700  0.73098105  1
  F  F0  1  0.81202977  0.10406017  0.27306741  1
  F  F1  1  0.68878480  0.09825927  0.74913922  1
  F  F2  1  0.70995888  0.79273931  0.47685717  1
  F  F3  1  0.31532186  0.55017667  0.85894722  1
  F  F4  1  0.16885968  0.20370829  0.05948755  1
  F  F5  1  0.22384988  0.55300965  0.39217817  1
loop_
_geom_bond_atom_site_label_1
_geom_bond_atom_site_label_2
_geom_bond_distance
_geom_bond_site_symmetry_2
Mg0 O1 2.030697 1_555
Mg0 O5 2.032569 1_555
Mg0 O0 2.231202 1_555
Fe0 O2 2.075606 1_555
Fe0 O4 2.095934 1_555
Fe0 O1 2.125386 1_554
Fe1 O3 1.871483 1_555
Fe1 O4 1.885882 1_545
Fe1 O5 1.945859 1_545
Fe2 O2 1.940220 1_556
Fe2 O0 1.948717 1_555
Fe2 O3 2.036556 1_555
Fe3 O0 2.042544 1_455
Fe3 O1 2.057803 1_455
Fe3 O5 2.067570 1_555
Fe4 O2 1.989714 1_555
Fe4 O0 2.032252 1_555
Fe4 O3 2.187677 1_655
Fe5 O4 1.917481 1_555
Fe5 O1 1.919062 1_454
Fe5 O5 2.046561 1_554
F0 Fe4 1.996060 1_555
F0 Fe5 2.067748 1_645
F1 Fe2 1.947202 1_555
F1 Fe1 2.093658 1_555
F2 Mg0 1.947743 1_555
F2 Fe0 2.071648 1_555
F2 Fe3 2.159851 1_655
F2 Fe1 2.431776 1_565
F3 Mg0 1.991357 1_555
F3 Fe2 2.111214 1_555
F3 Fe3 2.139842 1_555
F3 Fe0 2.159543 1_556
F4 Fe4 2.030798 1_455
F4 Fe5 2.045251 1_545
F5 Fe3 2.111051 1_555
F5 Fe4 2.154413 1_455
F5 Mg0 2.297525 1_555
F5 Fe0 2.539447 1_555
