# generated using pymatgen
data_TbInCo2
_symmetry_space_group_name_H-M   'P 1'
_cell_length_a   4.02689000
_cell_length_b   5.04366700
_cell_length_c   7.16322100
_cell_angle_alpha   90.00000000
_cell_angle_beta   90.00000000
_cell_angle_gamma   90.00000000
_symmetry_Int_Tables_number   1
_chemical_formula_structural   TbInCo2
_chemical_formula_sum   'Tb2 In2 Co4'
_cell_volume   145.48711164
_cell_formula_units_Z   2
loop_
 _symmetry_equiv_pos_site_id
 _symmetry_equiv_pos_as_xyz
  1  'x, y, z'
loop_
 _atom_site_type_symbol
 _atom_site_label
 _atom_site_symmetry_multiplicity
 _atom_site_fract_x
 _atom_site_fract_y
 _atom_site_fract_z
 _atom_site_occupancy
  Tb  Tb0  1  0.50000000  0.75000000  0.27881600  1
  Tb  Tb1  1  0.50000000  0.25000000  0.72118400  1
  In  In0  1  0.00000000  0.75000000  0.65143500  1
  In  In1  1  0.00000000  0.25000000  0.34856500  1
  Co  Co0  1  0.50000000  0.25000000  0.08930400  1
  Co  Co1  1  0.50000000  0.75000000  0.91069600  1
  Co  Co2  1  0.00000000  0.50000000  0.00000000  1
  Co  Co3  1  0.00000000  0.00000000  0.00000000  1
loop_
_geom_bond_atom_site_label_1
_geom_bond_atom_site_label_2
_geom_bond_distance
_geom_bond_site_symmetry_2
In0 Tb1 3.265461 1_555
In0 Tb1 3.265461 1_455
In0 Tb1 3.265461 1_565
In0 Tb1 3.265461 1_465
In0 In1 3.326632 1_555
In0 In1 3.326632 1_565
In0 Tb0 3.343402 1_555
In0 Tb0 3.343402 1_455
In1 Tb0 3.265461 1_555
In1 Tb0 3.265461 1_455
In1 Tb0 3.265461 1_545
In1 Tb0 3.265461 1_445
In1 Tb1 3.343402 1_455
In1 Tb1 3.343402 1_555
Co0 Co2 2.460304 1_655
Co0 Co2 2.460304 1_555
Co0 Co3 2.460304 1_555
Co0 Co3 2.460304 1_655
Co0 Tb1 2.636925 1_554
Co0 In1 2.739150 1_555
Co0 In1 2.739150 1_655
Co0 Tb0 2.864000 1_555
Co0 Tb0 2.864000 1_545
Co1 Co2 2.460304 1_556
Co1 Co2 2.460304 1_656
Co1 Co3 2.460304 1_566
Co1 Co3 2.460304 1_666
Co1 Tb0 2.636925 1_556
Co1 In0 2.739150 1_655
Co1 In0 2.739150 1_555
Co1 Tb1 2.864000 1_565
Co1 Tb1 2.864000 1_555
Co2 Co3 2.521834 1_565
Co2 Co3 2.521834 1_555
Co2 In1 2.797170 1_555
Co2 In0 2.797170 1_554
Co2 Tb0 3.103669 1_555
Co2 Tb0 3.103669 1_455
Co2 Tb1 3.103669 1_454
Co2 Tb1 3.103669 1_554
Co3 In1 2.797170 1_555
Co3 In0 2.797170 1_544
Co3 Tb0 3.103669 1_545
Co3 Tb0 3.103669 1_445
Co3 Tb1 3.103669 1_454
Co3 Tb1 3.103669 1_554
