# generated using pymatgen
data_KSbClF3
_symmetry_space_group_name_H-M   'P 1'
_cell_length_a   8.03267900
_cell_length_b   8.25863700
_cell_length_c   15.09932600
_cell_angle_alpha   90.00000000
_cell_angle_beta   90.00000000
_cell_angle_gamma   90.00000000
_symmetry_Int_Tables_number   1
_chemical_formula_structural   KSbClF3
_chemical_formula_sum   'K8 Sb8 Cl8 F24'
_cell_volume   1001.67388551
_cell_formula_units_Z   8
loop_
 _symmetry_equiv_pos_site_id
 _symmetry_equiv_pos_as_xyz
  1  'x, y, z'
loop_
 _atom_site_type_symbol
 _atom_site_label
 _atom_site_symmetry_multiplicity
 _atom_site_fract_x
 _atom_site_fract_y
 _atom_site_fract_z
 _atom_site_occupancy
  K  K0  1  0.68158700  0.19569100  0.05742900  1
  K  K1  1  0.18158700  0.30430900  0.94257100  1
  K  K2  1  0.31841300  0.69569100  0.44257100  1
  K  K3  1  0.81841300  0.80430900  0.55742900  1
  K  K4  1  0.18158700  0.19569100  0.44257100  1
  K  K5  1  0.81841300  0.69569100  0.05742900  1
  K  K6  1  0.68158700  0.30430900  0.55742900  1
  K  K7  1  0.31841300  0.80430900  0.94257100  1
  Sb  Sb0  1  0.62999700  0.00473000  0.32453500  1
  Sb  Sb1  1  0.12999700  0.49527000  0.67546500  1
  Sb  Sb2  1  0.37000300  0.50473000  0.17546500  1
  Sb  Sb3  1  0.87000300  0.99527000  0.82453500  1
  Sb  Sb4  1  0.37000300  0.99527000  0.67546500  1
  Sb  Sb5  1  0.87000300  0.50473000  0.32453500  1
  Sb  Sb6  1  0.62999700  0.49527000  0.82453500  1
  Sb  Sb7  1  0.12999700  0.00473000  0.17546500  1
  Cl  Cl0  1  0.01839400  0.37697900  0.15059200  1
  Cl  Cl1  1  0.01839400  0.12302100  0.65059200  1
  Cl  Cl2  1  0.48160600  0.87697900  0.15059200  1
  Cl  Cl3  1  0.98160600  0.62302100  0.84940800  1
  Cl  Cl4  1  0.48160600  0.62302100  0.65059200  1
  Cl  Cl5  1  0.98160600  0.87697900  0.34940800  1
  Cl  Cl6  1  0.51839400  0.12302100  0.84940800  1
  Cl  Cl7  1  0.51839400  0.37697900  0.34940800  1
  F  F0  1  0.89257000  0.27110900  0.35421400  1
  F  F1  1  0.39257000  0.22889100  0.64578600  1
  F  F2  1  0.10743000  0.77110900  0.14578600  1
  F  F3  1  0.60743000  0.72889100  0.85421400  1
  F  F4  1  0.10743000  0.72889100  0.64578600  1
  F  F5  1  0.60743000  0.77110900  0.35421400  1
  F  F6  1  0.89257000  0.22889100  0.85421400  1
  F  F7  1  0.39257000  0.27110900  0.14578600  1
  F  F8  1  0.61476800  0.50497900  0.15103500  1
  F  F9  1  0.11476800  0.99502100  0.84896500  1
  F  F10  1  0.38523200  0.00497900  0.34896500  1
  F  F11  1  0.88523200  0.49502100  0.65103500  1
  F  F12  1  0.38523200  0.49502100  0.84896500  1
  F  F13  1  0.88523200  0.00497900  0.15103500  1
  F  F14  1  0.61476800  0.99502100  0.65103500  1
  F  F15  1  0.16438300  0.03868100  0.04611500  1
  F  F16  1  0.66438300  0.03868100  0.45388500  1
  F  F17  1  0.16438300  0.46131900  0.54611500  1
  F  F18  1  0.33561700  0.53868100  0.04611500  1
  F  F19  1  0.83561700  0.96131900  0.95388500  1
  F  F20  1  0.33561700  0.96131900  0.54611500  1
  F  F21  1  0.83561700  0.53868100  0.45388500  1
  F  F22  1  0.66438300  0.46131900  0.95388500  1
  F  F23  1  0.11476800  0.50497900  0.34896500  1
loop_
_geom_bond_atom_site_label_1
_geom_bond_atom_site_label_2
_geom_bond_distance
_geom_bond_site_symmetry_2
Cl0 Sb2 3.038289 1_555
Cl0 Sb5 3.071161 1_455
Cl0 K5 3.389301 1_455
Cl0 K0 3.397045 1_455
Cl0 K1 3.456056 1_554
Cl1 Sb4 3.038289 1_545
Cl1 Sb3 3.071161 1_445
Cl1 K3 3.389301 1_445
Cl1 K6 3.397045 1_455
Cl1 K4 3.456056 1_555
Cl2 Sb7 3.038289 1_565
Cl2 Sb0 3.071161 1_565
Cl2 K0 3.389301 1_565
Cl2 K5 3.397045 1_555
Cl2 K7 3.456056 1_554
Cl3 Sb6 3.038289 1_555
Cl3 Sb1 3.071161 1_655
Cl3 K1 3.389301 1_655
Cl3 K7 3.397045 1_655
Cl3 K5 3.456056 1_556
Cl4 Sb1 3.038289 1_555
Cl4 Sb6 3.071161 1_555
Cl4 K6 3.389301 1_555
Cl4 K3 3.397045 1_555
Cl4 K2 3.456056 1_555
Cl5 Sb0 3.038289 1_565
Cl5 Sb7 3.071161 1_665
Cl5 K4 3.389301 1_665
Cl5 K2 3.397045 1_655
Cl5 K3 3.456056 1_555
Cl6 Sb3 3.038289 1_545
Cl6 Sb4 3.071161 1_545
Cl6 K7 3.389301 1_545
Cl6 K1 3.397045 1_555
Cl6 K0 3.456056 1_556
Cl7 Sb5 3.038289 1_555
Cl7 Sb2 3.071161 1_555
Cl7 K2 3.389301 1_555
Cl7 K4 3.397045 1_555
Cl7 K6 3.456056 1_555
F0 Sb5 1.989028 1_555
F0 K4 2.749106 1_655
F1 Sb4 1.989028 1_545
F1 K6 2.749106 1_555
F2 Sb7 1.989028 1_565
F2 K5 2.749106 1_455
F3 Sb6 1.989028 1_555
F3 K7 2.749106 1_555
F4 Sb1 1.989028 1_555
F4 K3 2.749106 1_455
F5 Sb0 1.989028 1_565
F5 K2 2.749106 1_555
F6 Sb3 1.989028 1_545
F6 K1 2.749106 1_655
F7 Sb2 1.989028 1_555
F7 K0 2.749106 1_555
F8 Sb2 2.000424 1_555
F8 K5 2.674742 1_555
F8 K0 2.968195 1_555
F9 Sb3 2.000424 1_455
F9 K7 2.674742 1_555
F9 K1 2.968195 1_565
F10 Sb0 2.000424 1_555
F10 K4 2.674742 1_555
F10 K2 2.968195 1_545
F11 Sb1 2.000424 1_655
F11 K6 2.674742 1_555
F11 K3 2.968195 1_555
F12 Sb6 2.000424 1_555
F12 K1 2.674742 1_555
F12 K7 2.968195 1_555
F13 Sb7 2.000424 1_655
F13 K0 2.674742 1_555
F13 K5 2.968195 1_545
F14 Sb4 2.000424 1_555
F14 K3 2.674742 1_555
F14 K6 2.968195 1_565
F15 Sb7 1.992361 1_555
F15 K1 2.697385 1_554
F15 K7 2.778799 1_544
F16 Sb0 1.992361 1_555
F16 K6 2.697385 1_555
F16 K3 2.778799 1_545
F17 Sb1 1.992361 1_555
F17 K4 2.697385 1_555
F17 K2 2.778799 1_555
F18 Sb2 1.992361 1_555
F18 K7 2.697385 1_554
F18 K1 2.778799 1_554
F19 Sb3 1.992361 1_555
F19 K5 2.697385 1_556
F19 K0 2.778799 1_566
F20 Sb4 1.992361 1_555
F20 K2 2.697385 1_555
F20 K4 2.778799 1_565
F21 Sb5 1.992361 1_555
F21 K3 2.697385 1_555
F21 K6 2.778799 1_555
F22 Sb6 1.992361 1_555
F22 K0 2.697385 1_556
F22 K5 2.778799 1_556
F23 Sb5 2.000424 1_455
F23 K2 2.674742 1_555
F23 K4 2.968195 1_555
