# generated using pymatgen
data_NaInTe2
_symmetry_space_group_name_H-M   'P 1'
_cell_length_a   6.94293169
_cell_length_b   6.94293260
_cell_length_c   6.94293302
_cell_angle_alpha   105.85873085
_cell_angle_beta   105.85872663
_cell_angle_gamma   116.96635265
_symmetry_Int_Tables_number   1
_chemical_formula_structural   NaInTe2
_chemical_formula_sum   'Na2 In2 Te4'
_cell_volume   254.28877529
_cell_formula_units_Z   2
loop_
 _symmetry_equiv_pos_site_id
 _symmetry_equiv_pos_as_xyz
  1  'x, y, z'
loop_
 _atom_site_type_symbol
 _atom_site_label
 _atom_site_symmetry_multiplicity
 _atom_site_fract_x
 _atom_site_fract_y
 _atom_site_fract_z
 _atom_site_occupancy
  Na  Na0  1  0.25000000  0.25000000  -0.00000000  1
  Na  Na1  1  0.75000000  0.75000000  -0.00000000  1
  In  In0  1  0.75000000  0.25000000  0.50000000  1
  In  In1  1  0.25000000  0.75000000  0.50000000  1
  Te  Te0  1  0.68321097  0.18321097  0.86642195  1
  Te  Te1  1  0.18321097  0.31678903  0.50000000  1
  Te  Te2  1  0.81678903  0.68321097  0.50000000  1
  Te  Te3  1  0.31678903  0.81678903  0.13357805  1
loop_
_geom_bond_atom_site_label_1
_geom_bond_atom_site_label_2
_geom_bond_distance
_geom_bond_site_symmetry_2
Na0 Te0 3.560358 1_554
Na0 Te0 3.560358 1_454
Na0 Te3 3.560358 1_545
Na0 Te3 3.560358 1_555
Na0 Te2 3.560359 1_555
Na0 Te1 3.560359 1_555
Na0 Te2 3.560359 1_444
Na0 Te1 3.560359 1_554
Na1 Te3 3.560358 1_555
Na1 Te3 3.560358 1_655
Na1 Te0 3.560358 1_564
Na1 Te0 3.560358 1_554
Na1 Te1 3.560359 1_554
Na1 Te2 3.560359 1_554
Na1 Te1 3.560359 1_665
Na1 Te2 3.560359 1_555
In0 Te1 2.827841 1_655
In0 Te2 2.827841 1_555
In0 Te3 2.827841 1_545
In0 Te0 2.827842 1_555
In1 Te2 2.827841 1_455
In1 Te1 2.827841 1_555
In1 Te0 2.827841 1_565
In1 Te3 2.827842 1_555
