# generated using pymatgen
data_HoClO
_symmetry_space_group_name_H-M   'P 1'
_cell_length_a   3.85102199
_cell_length_b   3.85102199
_cell_length_c   6.69220481
_cell_angle_alpha   90.00000000
_cell_angle_beta   90.00000000
_cell_angle_gamma   90.00000000
_symmetry_Int_Tables_number   1
_chemical_formula_structural   HoClO
_chemical_formula_sum   'Ho2 Cl2 O2'
_cell_volume   99.24787591
_cell_formula_units_Z   2
loop_
 _symmetry_equiv_pos_site_id
 _symmetry_equiv_pos_as_xyz
  1  'x, y, z'
loop_
 _atom_site_type_symbol
 _atom_site_label
 _atom_site_symmetry_multiplicity
 _atom_site_fract_x
 _atom_site_fract_y
 _atom_site_fract_z
 _atom_site_occupancy
  Ho  Ho0  1  0.75000000  0.75000000  0.83399265  1
  Ho  Ho1  1  0.25000000  0.25000000  0.16600735  1
  Cl  Cl0  1  0.25000000  0.25000000  0.63054881  1
  Cl  Cl1  1  0.75000000  0.75000000  0.36945119  1
  O  O0  1  0.75000000  0.25000000  0.00000000  1
  O  O1  1  0.25000000  0.75000000  0.00000000  1
loop_
_geom_bond_atom_site_label_1
_geom_bond_atom_site_label_2
_geom_bond_distance
_geom_bond_site_symmetry_2
Ho0 O1 2.223019 1_656
Ho0 O0 2.223019 1_556
Ho0 O1 2.223019 1_556
Ho0 O0 2.223019 1_566
Ho1 O1 2.223019 1_545
Ho1 O0 2.223019 1_455
Ho1 O0 2.223019 1_555
Ho1 O1 2.223019 1_555
Cl0 Ho0 3.044476 1_455
Cl0 Ho0 3.044476 1_445
Cl0 Ho0 3.044476 1_545
Cl0 Ho0 3.044476 1_555
Cl0 Ho1 3.108807 1_555
Cl1 Ho1 3.044476 1_655
Cl1 Ho1 3.044476 1_565
Cl1 Ho1 3.044476 1_665
Cl1 Ho1 3.044476 1_555
Cl1 Ho0 3.108807 1_555
