# generated using pymatgen
data_Na6Ca5NbP3(SO6)6
_symmetry_space_group_name_H-M   'P 1'
_cell_length_a   9.24804112
_cell_length_b   9.28191715
_cell_length_c   23.59335319
_cell_angle_alpha   89.83528488
_cell_angle_beta   90.00000000
_cell_angle_gamma   119.87934281
_symmetry_Int_Tables_number   1
_chemical_formula_structural   Na6Ca5NbP3(SO6)6
_chemical_formula_sum   'Na12 Ca10 Nb2 P6 S12 O72'
_cell_volume   1756.03066339
_cell_formula_units_Z   2
loop_
 _symmetry_equiv_pos_site_id
 _symmetry_equiv_pos_as_xyz
  1  'x, y, z'
loop_
 _atom_site_type_symbol
 _atom_site_label
 _atom_site_symmetry_multiplicity
 _atom_site_fract_x
 _atom_site_fract_y
 _atom_site_fract_z
 _atom_site_occupancy
  Na  Na0  1  0.30540357  0.33537861  0.58048853  1
  Na  Na1  1  0.66850044  0.97092103  0.59287268  1
  Na  Na2  1  0.30242159  0.97092103  0.09287268  1
  Na  Na3  1  0.02997604  0.33537861  0.08048853  1
  Na  Na4  1  0.96375112  0.66723754  0.90622413  1
  Na  Na5  1  0.70348543  0.66723754  0.40622413  1
  Na  Na6  1  0.02837016  0.01339255  0.49380965  1
  Na  Na7  1  0.98502239  0.01339255  0.99380965  1
  Na  Na8  1  0.67820941  0.31913547  0.82600774  1
  Na  Na9  1  0.64092707  0.31913547  0.32600774  1
  Na  Na10  1  0.35772930  0.67721199  0.16928199  1
  Na  Na11  1  0.31948169  0.67721199  0.66928199  1
  Ca  Ca0  1  0.01386920  0.01095666  0.34699509  1
  Ca  Ca1  1  0.99708746  0.01095666  0.84699509  1
  Ca  Ca2  1  0.98931726  0.98182078  0.66165367  1
  Ca  Ca3  1  0.99250352  0.98182078  0.16165367  1
  Ca  Ca4  1  0.67671287  0.33861488  0.68818068  1
  Ca  Ca5  1  0.66190301  0.33861488  0.18818068  1
  Ca  Ca6  1  0.66524372  0.33012702  0.97711096  1
  Ca  Ca7  1  0.66488430  0.33012702  0.47711096  1
  Ca  Ca8  1  0.34294371  0.66360699  0.01497841  1
  Ca  Ca9  1  0.32066228  0.66360699  0.51497841  1
  Nb  Nb0  1  0.33365607  0.66259547  0.31459283  1
  Nb  Nb1  1  0.32893840  0.66259547  0.81459283  1
  P  P0  1  0.30832577  0.99122147  0.25021191  1
  P  P1  1  0.69326460  0.69419034  0.25813308  1
  P  P2  1  0.00092574  0.69419034  0.75813308  1
  P  P3  1  0.68289571  0.99122147  0.75021191  1
  P  P4  1  0.04235605  0.37590764  0.91779864  1
  P  P5  1  0.33355059  0.37590764  0.41779864  1
  S  S0  1  0.00940924  0.31450239  0.25075376  1
  S  S1  1  0.30509315  0.31450239  0.75075376  1
  S  S2  1  0.96588086  0.32654765  0.58369739  1
  S  S3  1  0.36968927  0.04001877  0.58379924  1
  S  S4  1  0.66697275  0.63576492  0.58084687  1
  S  S5  1  0.96879317  0.63576492  0.08084687  1
  S  S6  1  0.67033049  0.04001877  0.08379924  1
  S  S7  1  0.36066779  0.32654765  0.08369739  1
  S  S8  1  0.62993917  0.66637048  0.91333764  1
  S  S9  1  0.33249133  0.95478790  0.91483441  1
  S  S10  1  0.62229557  0.95478790  0.41483441  1
  S  S11  1  0.03643031  0.66637048  0.41333764  1
  O  O0  1  0.20967105  0.01227814  0.29717662  1
  O  O1  1  0.78842148  0.77689885  0.31204329  1
  O  O2  1  0.98953365  0.20833919  0.29898205  1
  O  O3  1  0.21880555  0.20833919  0.79898205  1
  O  O4  1  0.98847738  0.77689885  0.81204329  1
  O  O5  1  0.80260709  0.01227814  0.79717662  1
  O  O6  1  0.73363394  0.95197796  0.69217488  1
  O  O7  1  0.21034280  0.25199701  0.69695586  1
  O  O8  1  0.04332709  0.80054080  0.70457460  1
  O  O9  1  0.75721371  0.80054080  0.20457460  1
  O  O10  1  0.04165421  0.25199701  0.19695586  1
  O  O11  1  0.21834403  0.95197796  0.19217488  1
  O  O12  1  0.88306547  0.33922371  0.63466941  1
  O  O13  1  0.47176512  0.12387499  0.63378114  1
  O  O14  1  0.65103198  0.53063067  0.62973138  1
  O  O15  1  0.87959969  0.53063067  0.12973138  1
  O  O16  1  0.65211086  0.12387499  0.13378114  1
  O  O17  1  0.45615925  0.33922371  0.13466941  1
  O  O18  1  0.44467843  0.31411332  0.03206013  1
  O  O19  1  0.87953384  0.56008517  0.02716972  1
  O  O20  1  0.68680213  0.13695629  0.03145482  1
  O  O21  1  0.45015516  0.13695629  0.53145482  1
  O  O22  1  0.68055232  0.56008517  0.52716972  1
  O  O23  1  0.86943589  0.31411332  0.53206013  1
  O  O24  1  0.55430473  0.67991201  0.96617788  1
  O  O25  1  0.12539524  0.45225490  0.97458642  1
  O  O26  1  0.32205027  0.86852357  0.96883449  1
  O  O27  1  0.54647230  0.86852357  0.46883449  1
  O  O28  1  0.32685866  0.45225490  0.47458642  1
  O  O29  1  0.12560628  0.67991201  0.46617788  1
  O  O30  1  0.13688353  0.66322094  0.36365384  1
  O  O31  1  0.51014009  0.85260010  0.36627353  1
  O  O32  1  0.33109078  0.49738538  0.36795934  1
  O  O33  1  0.16629360  0.49738538  0.86795934  1
  O  O34  1  0.34245901  0.85260010  0.86627353  1
  O  O35  1  0.52633641  0.66322094  0.86365384  1
  O  O36  1  0.00896056  0.81078530  0.41014887  1
  O  O37  1  0.78543909  0.96231335  0.40945795  1
  O  O38  1  0.18317782  0.20239404  0.41214085  1
  O  O39  1  0.01921622  0.20239404  0.91214085  1
  O  O40  1  0.17687425  0.96231335  0.90945795  1
  O  O41  1  0.80182474  0.81078530  0.91014887  1
  O  O42  1  0.98210083  0.17207530  0.58641553  1
  O  O43  1  0.20159297  0.02646967  0.58775074  1
  O  O44  1  0.81323977  0.80803801  0.58544448  1
  O  O45  1  0.99479824  0.80803801  0.08544448  1
  O  O46  1  0.82487670  0.02646967  0.08775074  1
  O  O47  1  0.18997447  0.17207530  0.08641553  1
  O  O48  1  0.64515806  0.13362309  0.74828900  1
  O  O49  1  0.47578375  0.34511905  0.74645314  1
  O  O50  1  0.85686263  0.51696597  0.75219919  1
  O  O51  1  0.66010433  0.51696597  0.25219919  1
  O  O52  1  0.86933630  0.34511905  0.24645314  1
  O  O53  1  0.48846603  0.13362309  0.24828900  1
  O  O54  1  0.64099826  0.51204685  0.91178073  1
  O  O55  1  0.87962858  0.38383327  0.91021575  1
  O  O56  1  0.48200594  0.12046311  0.91215237  1
  O  O57  1  0.63845817  0.12046311  0.41215237  1
  O  O58  1  0.50420569  0.38383327  0.41021575  1
  O  O59  1  0.87104959  0.51204685  0.41178073  1
  O  O60  1  0.33306510  0.47301282  0.08168601  1
  O  O61  1  0.14058247  0.65211558  0.08009103  1
  O  O62  1  0.51613200  0.87190609  0.08063293  1
  O  O63  1  0.35577309  0.87190609  0.58063293  1
  O  O64  1  0.51153211  0.65211558  0.58009103  1
  O  O65  1  0.13994671  0.47301282  0.58168601  1
  O  O66  1  0.32009395  0.82535607  0.26616157  1
  O  O67  1  0.50705825  0.67437126  0.26791529  1
  O  O68  1  0.16738814  0.48602064  0.26052889  1
  O  O69  1  0.31863150  0.48602064  0.76052889  1
  O  O70  1  0.16731201  0.67437126  0.76791529  1
  O  O71  1  0.50526112  0.82535607  0.76616157  1
loop_
_geom_bond_atom_site_label_1
_geom_bond_atom_site_label_2
_geom_bond_distance
_geom_bond_site_symmetry_2
Na0 O65 2.433526 1_555
Na0 O43 2.535110 1_555
Na0 O64 2.587109 1_555
Na0 O42 2.596153 1_455
Na0 O28 2.688702 1_555
Na0 O7 2.869219 1_555
Na1 O6 2.446621 1_555
Na1 O44 2.475084 1_555
Na1 O42 2.554124 1_565
Na1 O63 2.577907 1_555
Na1 O64 2.584540 1_555
Na2 O11 2.446624 1_555
Na2 O45 2.475092 1_455
Na2 O47 2.554131 1_565
Na2 O62 2.577890 1_555
Na2 O61 2.584540 1_555
Na3 O60 2.433510 1_555
Na3 O46 2.535111 1_455
Na3 O61 2.587113 1_555
Na3 O47 2.596145 1_555
Na3 O25 2.688700 1_554
Na3 O10 2.869217 1_555
Na4 O55 2.343798 1_555
Na4 O4 2.404351 1_555
Na4 O40 2.452473 1_655
Na4 O41 2.452564 1_555
Na4 O54 2.591603 1_555
Na4 O19 2.991689 1_556
Na5 O58 2.343794 1_555
Na5 O1 2.404352 1_555
Na5 O37 2.452471 1_555
Na5 O36 2.452572 1_655
Na5 O59 2.591619 1_555
Na5 O22 2.991691 1_555
Na6 O38 2.513584 1_555
Na6 O36 2.673923 1_545
Na6 O43 2.702077 1_555
Na6 O42 2.787945 1_455
Na6 O37 2.859540 1_445
Na6 O44 2.909202 1_445
Na7 O39 2.513584 1_655
Na7 O41 2.673923 1_545
Na7 O46 2.702077 1_556
Na7 O47 2.787945 1_656
Na7 O40 2.859540 1_645
Na7 O45 2.909202 1_546
Na8 O48 2.431957 1_555
Na8 O50 2.468368 1_555
Na8 O55 2.582616 1_555
Na8 O56 2.732836 1_555
Na8 O49 2.744617 1_555
Na8 O54 2.838073 1_555
Na9 O53 2.431957 1_555
Na9 O51 2.468368 1_555
Na9 O58 2.582616 1_555
Na9 O57 2.732836 1_555
Na9 O52 2.744617 1_555
Na9 O59 2.838073 1_555
Na10 O62 2.669613 1_555
Na10 O67 2.712772 1_555
Na10 O60 2.739958 1_555
Na10 O66 2.780529 1_555
Na10 O68 2.783543 1_555
Na10 O61 2.837592 1_555
Na11 O63 2.669613 1_555
Na11 O70 2.712772 1_555
Na11 O65 2.739958 1_555
Na11 O71 2.780529 1_555
Na11 O69 2.783543 1_555
Na11 O64 2.837592 1_555
Ca0 O0 2.153695 1_555
Ca0 O2 2.255946 1_455
Ca0 O38 2.283650 1_555
Ca0 O1 2.289995 1_445
Ca0 O36 2.360996 1_545
Ca0 O37 2.425758 1_445
Ca1 O5 2.153695 1_555
Ca1 O3 2.255946 1_655
Ca1 O39 2.283650 1_655
Ca1 O4 2.289995 1_545
Ca1 O41 2.360996 1_545
Ca1 O40 2.425757 1_645
Ca2 O8 2.221206 1_655
Ca2 O6 2.352174 1_555
Ca2 O44 2.426115 1_555
Ca2 O7 2.462810 1_665
Ca2 O43 2.500218 1_665
Ca2 O42 2.524560 1_565
Ca3 O9 2.221206 1_555
Ca3 O11 2.352174 1_655
Ca3 O45 2.426115 1_555
Ca3 O10 2.462810 1_665
Ca3 O46 2.500218 1_565
Ca3 O47 2.524560 1_665
Ca4 O50 2.250314 1_555
Ca4 O48 2.268903 1_555
Ca4 O12 2.285827 1_555
Ca4 O49 2.336450 1_555
Ca4 O13 2.337348 1_555
Ca4 O14 2.354188 1_555
Ca5 O51 2.250314 1_555
Ca5 O53 2.268903 1_555
Ca5 O17 2.285827 1_555
Ca5 O52 2.336450 1_555
Ca5 O16 2.337348 1_555
Ca5 O15 2.354188 1_555
Ca6 O20 2.289421 1_556
Ca6 O18 2.358053 1_556
Ca6 O54 2.374781 1_555
Ca6 O19 2.382880 1_556
Ca6 O55 2.383501 1_555
Ca6 O56 2.395638 1_555
Ca7 O21 2.289421 1_555
Ca7 O23 2.358053 1_555
Ca7 O59 2.374781 1_555
Ca7 O22 2.382880 1_555
Ca7 O58 2.383501 1_555
Ca7 O57 2.395638 1_555
Ca8 O24 2.207615 1_554
Ca8 O25 2.209681 1_554
Ca8 O26 2.279150 1_554
Ca8 O60 2.331946 1_555
Ca8 O62 2.373748 1_555
Ca8 O61 2.381983 1_555
Ca9 O29 2.207615 1_555
Ca9 O28 2.209681 1_555
Ca9 O27 2.279150 1_555
Ca9 O65 2.331946 1_555
Ca9 O63 2.373748 1_555
Ca9 O64 2.381983 1_555
Nb0 O67 1.902909 1_555
Nb0 O66 1.944881 1_555
Nb0 O32 1.972322 1_555
Nb0 O68 2.044174 1_555
Nb0 O31 2.098890 1_555
Nb0 O30 2.159158 1_555
Nb1 O70 1.902909 1_555
Nb1 O71 1.944881 1_555
Nb1 O33 1.972322 1_555
Nb1 O69 2.044174 1_555
Nb1 O34 2.098890 1_555
Nb1 O35 2.159158 1_555
O0 P0 1.509074 1_545
O1 P1 1.521205 1_555
O2 S0 1.453487 1_655
O3 S1 1.453487 1_555
O4 P2 1.521205 1_655
O5 P3 1.509074 1_545
O6 P3 1.549507 1_555
O7 S1 1.487678 1_555
O8 P2 1.527123 1_555
O9 P1 1.527123 1_555
O10 S0 1.487678 1_555
O11 P0 1.549507 1_555
O12 S2 1.461938 1_555
O13 S3 1.469956 1_555
O14 S4 1.467794 1_555
O15 S5 1.467794 1_555
O16 S6 1.469956 1_555
O17 S7 1.461938 1_555
O18 S7 1.480318 1_555
O19 S5 1.485278 1_555
O20 S6 1.488291 1_555
O21 S3 1.488291 1_555
O22 S4 1.485278 1_555
O23 S2 1.480318 1_555
O24 S8 1.465524 1_555
O25 P4 1.533059 1_555
O26 S9 1.480111 1_555
O27 S10 1.480111 1_555
O28 P5 1.533059 1_555
O29 S11 1.465524 1_555
O30 S11 1.505063 1_555
O31 S10 1.521240 1_555
O32 P5 1.634777 1_555
O33 P4 1.634777 1_555
O34 S9 1.521240 1_555
O35 S8 1.505063 1_555
O36 S11 1.485160 1_555
O37 S10 1.480630 1_555
O38 P5 1.521604 1_555
O39 P4 1.521608 1_555
O40 S9 1.480621 1_555
O41 S8 1.485166 1_555
O42 S2 1.515307 1_555
O43 S3 1.498770 1_555
O44 S4 1.498104 1_555
O45 S5 1.498107 1_555
O46 S6 1.498761 1_555
O47 S7 1.515312 1_555
O48 P3 1.526491 1_545
O49 S1 1.461425 1_555
O50 P2 1.522598 1_655
O51 P1 1.522601 1_555
O52 S0 1.461416 1_655
O53 P0 1.526497 1_545
O54 S8 1.486574 1_555
O55 P4 1.553191 1_655
O56 S9 1.470228 1_545
O57 S10 1.470220 1_545
O58 P5 1.553210 1_555
O59 S11 1.486564 1_655
O60 S7 1.503660 1_555
O61 S5 1.518920 1_455
O62 S6 1.502539 1_565
O63 S3 1.502531 1_565
O64 S4 1.518938 1_555
O65 S2 1.503648 1_455
O66 P0 1.639290 1_555
O67 P1 1.654288 1_555
O68 S0 1.551415 1_555
O69 S1 1.551419 1_555
O70 P2 1.654279 1_555
O71 P3 1.639295 1_555
