# generated using pymatgen
data_MgSc2Mn4O10
_symmetry_space_group_name_H-M   'P 1'
_cell_length_a   5.46537450
_cell_length_b   5.46537652
_cell_length_c   10.13355093
_cell_angle_alpha   87.73758029
_cell_angle_beta   87.73756087
_cell_angle_gamma   43.12197680
_symmetry_Int_Tables_number   1
_chemical_formula_structural   MgSc2Mn4O10
_chemical_formula_sum   'Mg1 Sc2 Mn4 O10'
_cell_volume   206.72013074
_cell_formula_units_Z   1
loop_
 _symmetry_equiv_pos_site_id
 _symmetry_equiv_pos_as_xyz
  1  'x, y, z'
loop_
 _atom_site_type_symbol
 _atom_site_label
 _atom_site_symmetry_multiplicity
 _atom_site_fract_x
 _atom_site_fract_y
 _atom_site_fract_z
 _atom_site_occupancy
  Mg  Mg0  1  0.50000200  0.50000300  0.49999700  1
  Sc  Sc0  1  0.19214900  0.19214600  0.24071400  1
  Sc  Sc1  1  0.80785300  0.80785200  0.75928700  1
  Mn  Mn0  1  0.15500400  0.15500500  0.58346400  1
  Mn  Mn1  1  0.13897100  0.13896900  0.94750100  1
  Mn  Mn2  1  0.86102900  0.86102900  0.05249900  1
  Mn  Mn3  1  0.84499500  0.84499500  0.41653700  1
  O  O0  1  0.04073900  0.04073900  0.11523500  1
  O  O1  1  0.06165700  0.06167200  0.39574000  1
  O  O2  1  0.32880000  0.32880000  0.41816300  1
  O  O3  1  0.30585400  0.30585400  0.05058600  1
  O  O4  1  0.76423600  0.76423500  0.23547400  1
  O  O5  1  0.93833800  0.93832900  0.60425800  1
  O  O6  1  0.67120000  0.67120200  0.58183500  1
  O  O7  1  0.23576500  0.23576400  0.76452700  1
  O  O8  1  0.95925800  0.95926100  0.88476800  1
  O  O9  1  0.69414800  0.69414800  0.94941700  1
loop_
_geom_bond_atom_site_label_1
_geom_bond_atom_site_label_2
_geom_bond_distance
_geom_bond_site_symmetry_2
Mg0 O6 1.959394 1_555
Mg0 O2 1.959412 1_555
Mg0 O1 2.342385 1_655
Mg0 O5 2.342427 1_455
Mg0 O1 2.342434 1_565
Mg0 O5 2.342463 1_545
Mn0 O6 2.015224 1_545
Mn0 O6 2.015229 1_455
Mn0 O7 2.041678 1_555
Mn0 O1 2.161575 1_555
Mn0 O5 2.203789 1_445
Mn0 O2 2.382479 1_555
Mn1 O0 1.934486 1_556
Mn1 O8 1.959680 1_445
Mn1 O3 2.029747 1_556
Mn1 O7 2.061878 1_555
Mn1 O9 2.085645 1_545
Mn1 O9 2.085654 1_455
Mn2 O8 1.934458 1_554
Mn2 O0 1.959687 1_665
Mn2 O9 2.029704 1_554
Mn2 O4 2.061883 1_555
Mn2 O3 2.085640 1_565
Mn2 O3 2.085641 1_655
Mn3 O2 2.015225 1_565
Mn3 O2 2.015225 1_655
Mn3 O4 2.041676 1_555
Mn3 O5 2.161540 1_555
Mn3 O1 2.203775 1_665
Mn3 O6 2.382447 1_555
O0 Sc0 2.037677 1_555
O1 Sc0 2.012601 1_555
O2 Sc0 2.318493 1_555
O3 Sc0 2.204352 1_555
O4 Sc0 2.137881 1_565
O4 Sc0 2.137890 1_655
O5 Sc1 2.012611 1_555
O6 Sc1 2.318511 1_555
O7 Sc1 2.137885 1_545
O7 Sc1 2.137886 1_455
O8 Sc1 2.037679 1_555
O9 Sc1 2.204359 1_555
