# generated using pymatgen
data_Na2MgMn4O8
_symmetry_space_group_name_H-M   'P 1'
_cell_length_a   3.22847362
_cell_length_b   5.68926772
_cell_length_c   10.33615800
_cell_angle_alpha   89.55074798
_cell_angle_beta   90.35011879
_cell_angle_gamma   68.74899930
_symmetry_Int_Tables_number   1
_chemical_formula_structural   Na2MgMn4O8
_chemical_formula_sum   'Na2 Mg1 Mn4 O8'
_cell_volume   176.92776534
_cell_formula_units_Z   1
loop_
 _symmetry_equiv_pos_site_id
 _symmetry_equiv_pos_as_xyz
  1  'x, y, z'
loop_
 _atom_site_type_symbol
 _atom_site_label
 _atom_site_symmetry_multiplicity
 _atom_site_fract_x
 _atom_site_fract_y
 _atom_site_fract_z
 _atom_site_occupancy
  Na  Na0  1  0.19312700  0.35286200  0.21180300  1
  Na  Na1  1  0.90789400  0.69948500  0.76360900  1
  Mg  Mg0  1  0.88241400  0.86781100  0.25777700  1
  Mn  Mn0  1  0.64122800  0.22329800  0.91574500  1
  Mn  Mn1  1  0.45528300  0.75469800  0.48345700  1
  Mn  Mn2  1  0.59406100  0.21148400  0.58667100  1
  Mn  Mn3  1  0.44196000  0.77877500  0.03689000  1
  O  O0  1  0.19603500  0.97272800  0.62265100  1
  O  O1  1  0.25290000  0.98379900  0.88513300  1
  O  O2  1  0.64399700  0.02606500  0.41775200  1
  O  O3  1  0.70924300  0.04077000  0.09167000  1
  O  O4  1  0.50649500  0.66854700  0.23304800  1
  O  O5  1  0.58126100  0.37324700  0.74759200  1
  O  O6  1  0.13781400  0.52570900  0.50653600  1
  O  O7  1  0.16938100  0.53322200  0.98961700  1
loop_
_geom_bond_atom_site_label_1
_geom_bond_atom_site_label_2
_geom_bond_distance
_geom_bond_site_symmetry_2
Na0 O4 2.305209 1_455
Na0 O3 2.320802 1_555
Na0 O4 2.370250 1_555
Na0 O7 2.497359 1_554
Na0 O2 2.836417 1_555
Na1 O5 2.298398 1_655
Na1 O5 2.450692 1_555
Na1 O1 2.500127 1_555
Na1 O7 2.535145 1_655
Na1 O0 2.536555 1_655
Na1 O1 2.599165 1_655
Na1 O0 2.674857 1_555
Na1 O6 2.849944 1_655
Mg0 O2 1.916710 1_565
Mg0 O4 1.940389 1_655
Mg0 O3 1.947201 1_565
Mg0 O4 1.954890 1_555
Mn0 O5 1.907619 1_555
Mn0 O1 1.979966 1_645
Mn0 O7 2.025047 1_555
Mn0 O3 2.057509 1_556
Mn0 O1 2.183748 1_545
Mn1 O0 1.897166 1_555
Mn1 O6 1.941831 1_555
Mn1 O2 1.971412 1_565
Mn1 O6 2.125416 1_655
Mn1 O4 2.633073 1_555
Mn2 O5 1.900669 1_555
Mn2 O0 1.957040 1_645
Mn2 O2 2.023923 1_555
Mn2 O6 2.025990 1_555
Mn2 O0 2.213125 1_545
Mn3 O1 1.907115 1_554
Mn3 O7 1.965065 1_554
Mn3 O3 2.055883 1_565
Mn3 O4 2.104211 1_555
Mn3 O7 2.313458 1_654
Mn3 O3 2.368924 1_465
