# generated using pymatgen
data_Ta3Al(PO4)6
_symmetry_space_group_name_H-M   'P 1'
_cell_length_a   8.66415865
_cell_length_b   8.66415838
_cell_length_c   22.37107107
_cell_angle_alpha   90.00000000
_cell_angle_beta   90.00000000
_cell_angle_gamma   120.00000101
_symmetry_Int_Tables_number   1
_chemical_formula_structural   Ta3Al(PO4)6
_chemical_formula_sum   'Ta9 Al3 P18 O72'
_cell_volume   1454.35417922
_cell_formula_units_Z   3
loop_
 _symmetry_equiv_pos_site_id
 _symmetry_equiv_pos_as_xyz
  1  'x, y, z'
loop_
 _atom_site_type_symbol
 _atom_site_label
 _atom_site_symmetry_multiplicity
 _atom_site_fract_x
 _atom_site_fract_y
 _atom_site_fract_z
 _atom_site_occupancy
  Ta  Ta0  1  -0.00000000  0.00000000  0.85422495  1
  Ta  Ta1  1  -0.00000000  0.00000000  0.64018360  1
  Ta  Ta2  1  -0.00000000  0.00000000  0.14740516  1
  Ta  Ta3  1  0.66666700  0.33333300  0.97846729  1
  Ta  Ta4  1  0.66666700  0.33333300  0.47345017  1
  Ta  Ta5  1  0.33333300  0.66666700  0.02787391  1
  Ta  Ta6  1  0.33333300  0.66666700  0.52158266  1
  Ta  Ta7  1  0.33333300  0.66666700  0.30662502  1
  Ta  Ta8  1  0.33333300  0.66666700  0.80626381  1
  Al  Al0  1  -0.00000000  0.00000000  0.35346963  1
  Al  Al1  1  0.66666700  0.33333300  0.68800456  1
  Al  Al2  1  0.66666700  0.33333300  0.19347993  1
  P  P0  1  0.29200205  0.01329847  0.25248063  1
  P  P1  1  0.72129642  0.70799795  0.25248063  1
  P  P2  1  0.98670153  0.27870358  0.25248063  1
  P  P3  1  0.29625582  0.28369975  0.74757507  1
  P  P4  1  0.98744393  0.70374417  0.74757507  1
  P  P5  1  0.71630025  0.01255607  0.74757507  1
  P  P6  1  0.94563841  0.33767889  0.58558218  1
  P  P7  1  0.39204148  0.05436159  0.58558218  1
  P  P8  1  0.66232111  0.60795852  0.58558218  1
  P  P9  1  0.94397346  0.61352504  0.08736010  1
  P  P10  1  0.66955259  0.05602654  0.08736010  1
  P  P11  1  0.38647496  0.33044741  0.08736010  1
  P  P12  1  0.61678292  0.66682031  0.91661892  1
  P  P13  1  0.05003639  0.38321708  0.91661892  1
  P  P14  1  0.33317969  0.94996361  0.91661892  1
  P  P15  1  0.62904327  0.95007060  0.41424413  1
  P  P16  1  0.32102633  0.37095673  0.41424413  1
  P  P17  1  0.04992940  0.67897367  0.41424413  1
  O  O0  1  0.19870240  0.03507889  0.30605544  1
  O  O1  1  0.83637648  0.80129760  0.30605544  1
  O  O2  1  0.96492111  0.16362352  0.30605544  1
  O  O3  1  0.20164423  0.16867303  0.80453487  1
  O  O4  1  0.96702880  0.79835577  0.80453487  1
  O  O5  1  0.83132697  0.03297120  0.80453487  1
  O  O6  1  0.80111514  0.96923769  0.69452196  1
  O  O7  1  0.16812254  0.19888486  0.69452196  1
  O  O8  1  0.03076231  0.83187746  0.69452196  1
  O  O9  1  0.80153998  0.83101312  0.19503714  1
  O  O10  1  0.02947314  0.19846002  0.19503714  1
  O  O11  1  0.16898688  0.97052686  0.19503714  1
  O  O12  1  0.86291274  0.36552851  0.64063644  1
  O  O13  1  0.50261677  0.13708726  0.64063644  1
  O  O14  1  0.63447149  0.49738323  0.64063644  1
  O  O15  1  0.86090076  0.49529876  0.14009802  1
  O  O16  1  0.63439900  0.13909924  0.14009802  1
  O  O17  1  0.50470124  0.36560100  0.14009802  1
  O  O18  1  0.46902341  0.30436676  0.02822912  1
  O  O19  1  0.83534434  0.53097659  0.02822912  1
  O  O20  1  0.69563324  0.16465566  0.02822912  1
  O  O21  1  0.46913265  0.16683459  0.52853689  1
  O  O22  1  0.69770294  0.53086735  0.52853689  1
  O  O23  1  0.83316541  0.30229706  0.52853689  1
  O  O24  1  0.53220535  0.69782382  0.97217853  1
  O  O25  1  0.16561747  0.46779465  0.97217853  1
  O  O26  1  0.30217618  0.83438253  0.97217853  1
  O  O27  1  0.53470685  0.83505303  0.47135134  1
  O  O28  1  0.30034518  0.46529315  0.47135134  1
  O  O29  1  0.16494697  0.69965482  0.47135134  1
  O  O30  1  0.13478435  0.63570932  0.36106085  1
  O  O31  1  0.50092398  0.86521565  0.36106085  1
  O  O32  1  0.36429068  0.49907602  0.36106085  1
  O  O33  1  0.13516096  0.49887528  0.86096639  1
  O  O34  1  0.36371332  0.86483904  0.86096639  1
  O  O35  1  0.50112472  0.63628668  0.86096639  1
  O  O36  1  0.02725194  0.83748799  0.40512652  1
  O  O37  1  0.81023605  0.97274806  0.40512652  1
  O  O38  1  0.16251201  0.18976395  0.40512652  1
  O  O39  1  0.02813627  0.19696403  0.90663444  1
  O  O40  1  0.16882776  0.97186373  0.90663444  1
  O  O41  1  0.80303597  0.83117224  0.90663444  1
  O  O42  1  0.97055567  0.17142477  0.59385162  1
  O  O43  1  0.20086910  0.02944433  0.59385162  1
  O  O44  1  0.82857523  0.79913090  0.59385162  1
  O  O45  1  0.97173382  0.80232747  0.09226138  1
  O  O46  1  0.83059366  0.02826618  0.09226138  1
  O  O47  1  0.19767253  0.16940634  0.09226138  1
  O  O48  1  0.69368984  0.17086806  0.73903441  1
  O  O49  1  0.47717922  0.30631016  0.73903441  1
  O  O50  1  0.82913194  0.52282078  0.73903441  1
  O  O51  1  0.69564379  0.52635919  0.23886326  1
  O  O52  1  0.83071640  0.30435621  0.23886326  1
  O  O53  1  0.47364081  0.16928360  0.23886326  1
  O  O54  1  0.63916281  0.50307182  0.92569041  1
  O  O55  1  0.86391002  0.36083719  0.92569041  1
  O  O56  1  0.49692818  0.13608998  0.92569041  1
  O  O57  1  0.64103618  0.13410121  0.42667855  1
  O  O58  1  0.49306603  0.35896382  0.42667855  1
  O  O59  1  0.86589879  0.50693397  0.42667855  1
  O  O60  1  0.36370103  0.49652180  0.07398244  1
  O  O61  1  0.13281977  0.63629897  0.07398244  1
  O  O62  1  0.50347820  0.86718023  0.07398244  1
  O  O63  1  0.36280530  0.86489649  0.57425598  1
  O  O64  1  0.50209019  0.63719470  0.57425598  1
  O  O65  1  0.13510351  0.49790981  0.57425598  1
  O  O66  1  0.30678351  0.84010707  0.25988794  1
  O  O67  1  0.53332256  0.69321649  0.25988794  1
  O  O68  1  0.15989293  0.46667744  0.25988794  1
  O  O69  1  0.30776073  0.46770728  0.75965480  1
  O  O70  1  0.15994554  0.69223927  0.75965480  1
  O  O71  1  0.53229272  0.84005446  0.75965480  1
loop_
_geom_bond_atom_site_label_1
_geom_bond_atom_site_label_2
_geom_bond_distance
_geom_bond_site_symmetry_2
Al0 O1 1.912616 1_445
Al0 O0 1.912616 1_555
Al0 O2 1.912616 1_455
Al0 O38 1.925153 1_555
Al0 O36 1.925153 1_545
Al0 O37 1.925153 1_445
Al1 O13 1.901963 1_555
Al1 O14 1.901963 1_555
Al1 O12 1.901963 1_555
Al1 O50 1.915468 1_555
Al1 O48 1.915468 1_555
Al1 O49 1.915468 1_555
Al2 O51 1.863033 1_555
Al2 O53 1.863033 1_555
Al2 O52 1.863033 1_555
Al2 O16 1.966182 1_555
Al2 O15 1.966182 1_555
Al2 O17 1.966182 1_555
O0 P0 1.509328 1_555
O1 P1 1.509328 1_555
O2 P2 1.509328 1_555
O3 P3 1.572245 1_555
O3 Ta0 1.967359 1_555
O4 P4 1.572245 1_555
O4 Ta0 1.967359 1_665
O5 P5 1.572245 1_555
O5 Ta0 1.967359 1_655
O6 P5 1.537951 1_565
O6 Ta1 2.014641 1_665
O7 P3 1.537951 1_555
O7 Ta1 2.014641 1_555
O8 P4 1.537951 1_455
O8 Ta1 2.014641 1_565
O9 P1 1.590518 1_555
O9 Ta2 1.928269 1_665
O10 P2 1.590518 1_455
O10 Ta2 1.928269 1_555
O11 P0 1.590518 1_565
O11 Ta2 1.928269 1_565
O12 P6 1.503926 1_555
O13 P7 1.503926 1_555
O14 P8 1.503926 1_555
O15 P9 1.490628 1_555
O16 P10 1.490628 1_555
O17 P11 1.490628 1_555
O18 P11 1.572917 1_555
O18 Ta3 1.950605 1_554
O19 P9 1.572917 1_555
O19 Ta3 1.950605 1_554
O20 P10 1.572917 1_555
O20 Ta3 1.950605 1_554
O21 P7 1.540603 1_555
O21 Ta4 2.014920 1_555
O22 P8 1.540603 1_555
O22 Ta4 2.014920 1_555
O23 P6 1.540603 1_555
O23 Ta4 2.014920 1_555
O24 P12 1.533250 1_555
O24 Ta5 2.032020 1_556
O25 P13 1.533250 1_555
O25 Ta5 2.032020 1_556
O26 P14 1.533250 1_555
O26 Ta5 2.032020 1_556
O27 P15 1.574405 1_555
O27 Ta6 1.972280 1_555
O28 P16 1.574405 1_555
O28 Ta6 1.972280 1_555
O29 P17 1.574405 1_555
O29 Ta6 1.972280 1_555
O30 P17 1.540182 1_555
O30 Ta7 2.013163 1_555
O31 P15 1.540182 1_555
O31 Ta7 2.013162 1_555
O32 P16 1.540182 1_555
O32 Ta7 2.013163 1_555
O33 P13 1.535935 1_555
O33 Ta8 2.015684 1_555
O34 P14 1.535935 1_555
O34 Ta8 2.015684 1_555
O35 P12 1.535935 1_555
O35 Ta8 2.015684 1_555
O36 P17 1.495414 1_555
O37 P15 1.495423 1_555
O38 P16 1.495419 1_555
O39 P13 1.543959 1_555
O39 Ta0 1.982500 1_555
O40 P14 1.543950 1_555
O40 Ta0 1.982500 1_565
O41 P12 1.543955 1_555
O41 Ta0 1.982500 1_665
O42 P6 1.570576 1_555
O42 Ta1 1.929839 1_655
O43 P7 1.570584 1_555
O43 Ta1 1.929839 1_555
O44 P8 1.570581 1_555
O44 Ta1 1.929839 1_665
O45 P9 1.533726 1_555
O45 Ta2 2.023758 1_665
O46 P10 1.533717 1_555
O46 Ta2 2.023758 1_655
O47 P11 1.533722 1_555
O47 Ta2 2.023758 1_555
O48 P5 1.491638 1_555
O49 P3 1.491646 1_555
O50 P4 1.491643 1_555
O51 P1 1.506354 1_555
O52 P2 1.506346 1_555
O53 P0 1.506351 1_555
O54 P12 1.538412 1_555
O54 Ta3 1.990987 1_555
O55 P13 1.538395 1_655
O55 Ta3 1.990987 1_555
O56 P14 1.538402 1_545
O56 Ta3 1.990987 1_555
O57 P15 1.569979 1_545
O57 Ta4 1.934031 1_555
O58 P16 1.569996 1_555
O58 Ta4 1.934031 1_555
O59 P17 1.569986 1_655
O59 Ta4 1.934031 1_555
O60 P11 1.575701 1_555
O60 Ta5 1.922043 1_555
O61 P9 1.575684 1_455
O61 Ta5 1.922043 1_555
O62 P10 1.575691 1_565
O62 Ta5 1.922043 1_555
O63 P7 1.551532 1_565
O63 Ta6 1.991217 1_555
O64 P8 1.551549 1_555
O64 Ta6 1.991217 1_555
O65 P6 1.551539 1_455
O65 Ta6 1.991217 1_555
O66 P0 1.577247 1_565
O66 Ta7 1.936470 1_555
O67 P1 1.577256 1_555
O67 Ta7 1.936470 1_555
O68 P2 1.577252 1_455
O68 Ta7 1.936470 1_555
O69 P3 1.570269 1_555
O69 Ta8 1.930263 1_555
O70 P4 1.570260 1_455
O70 Ta8 1.930264 1_555
O71 P5 1.570265 1_565
O71 Ta8 1.930263 1_555
