# generated using pymatgen
data_MgV2(CoO4)2
_symmetry_space_group_name_H-M   'P 1'
_cell_length_a   5.85411996
_cell_length_b   5.85411996
_cell_length_c   6.02823788
_cell_angle_alpha   59.02800296
_cell_angle_beta   89.90745265
_cell_angle_gamma   117.93122722
_symmetry_Int_Tables_number   1
_chemical_formula_structural   MgV2(CoO4)2
_chemical_formula_sum   'Mg1 V2 Co2 O8'
_cell_volume   148.25432516
_cell_formula_units_Z   1
loop_
 _symmetry_equiv_pos_site_id
 _symmetry_equiv_pos_as_xyz
  1  'x, y, z'
loop_
 _atom_site_type_symbol
 _atom_site_label
 _atom_site_symmetry_multiplicity
 _atom_site_fract_x
 _atom_site_fract_y
 _atom_site_fract_z
 _atom_site_occupancy
  Mg  Mg0  1  0.00000000  0.50000000  0.00000000  1
  V  V0  1  0.37668800  0.24540600  0.87790500  1
  V  V1  1  0.62331200  0.75459400  0.12209500  1
  Co  Co0  1  0.50000000  0.00000000  0.50000000  1
  Co  Co1  1  0.00000000  0.50000000  0.50000000  1
  O  O0  1  0.73636200  0.99434100  0.23586900  1
  O  O1  1  0.75388800  0.49478300  0.25132800  1
  O  O2  1  0.26196200  0.00382900  0.23420800  1
  O  O3  1  0.26979100  0.52777000  0.23586900  1
  O  O4  1  0.73020900  0.47223000  0.76413100  1
  O  O5  1  0.73803800  0.99617100  0.76579200  1
  O  O6  1  0.24611200  0.50521700  0.74867200  1
  O  O7  1  0.26363800  0.00565900  0.76413100  1
loop_
_geom_bond_atom_site_label_1
_geom_bond_atom_site_label_2
_geom_bond_distance
_geom_bond_site_symmetry_2
Mg0 O6 2.067915 1_554
Mg0 O1 2.067915 1_455
Mg0 O0 2.132424 1_445
Mg0 O7 2.132424 1_564
Mg0 O4 2.132429 1_454
Mg0 O3 2.132429 1_555
Co0 O6 2.082491 1_545
Co0 O1 2.082491 1_555
Co0 O2 2.123462 1_555
Co0 O5 2.123462 1_545
Co0 O0 2.130976 1_545
Co0 O7 2.130976 1_555
Co1 O1 2.082495 1_455
Co1 O6 2.082495 1_555
Co1 O5 2.123458 1_445
Co1 O2 2.123458 1_565
Co1 O3 2.130976 1_555
Co1 O4 2.130976 1_455
O0 V1 1.732129 1_555
O1 V1 1.837424 1_555
O2 V0 1.744597 1_554
O3 V1 1.732129 1_555
O4 V0 1.732129 1_555
O5 V1 1.744597 1_556
O6 V0 1.837424 1_555
O7 V0 1.732129 1_555
