# generated using pymatgen
data_Rb2TiCl6
_symmetry_space_group_name_H-M   'P 1'
_cell_length_a   7.06603068
_cell_length_b   7.06603074
_cell_length_c   7.06603113
_cell_angle_alpha   59.99999821
_cell_angle_beta   59.99999796
_cell_angle_gamma   60.00000438
_symmetry_Int_Tables_number   1
_chemical_formula_structural   Rb2TiCl6
_chemical_formula_sum   'Rb2 Ti1 Cl6'
_cell_volume   249.46613104
_cell_formula_units_Z   1
loop_
 _symmetry_equiv_pos_site_id
 _symmetry_equiv_pos_as_xyz
  1  'x, y, z'
loop_
 _atom_site_type_symbol
 _atom_site_label
 _atom_site_symmetry_multiplicity
 _atom_site_fract_x
 _atom_site_fract_y
 _atom_site_fract_z
 _atom_site_occupancy
  Rb  Rb0  1  0.75000000  0.75000000  0.75000000  1
  Rb  Rb1  1  0.25000000  0.25000000  0.25000000  1
  Ti  Ti0  1  -0.00000000  0.00000000  -0.00000000  1
  Cl  Cl0  1  0.23530081  0.76469919  0.76469919  1
  Cl  Cl1  1  0.23530081  0.76469919  0.23530081  1
  Cl  Cl2  1  0.76469919  0.23530081  0.76469919  1
  Cl  Cl3  1  0.76469919  0.23530081  0.23530081  1
  Cl  Cl4  1  0.76469919  0.76469919  0.23530081  1
  Cl  Cl5  1  0.23530081  0.23530081  0.76469919  1
loop_
_geom_bond_atom_site_label_1
_geom_bond_atom_site_label_2
_geom_bond_distance
_geom_bond_site_symmetry_2
Cl0 Ti0 2.351332 1_566
Cl0 Rb0 3.536067 1_555
Cl0 Rb0 3.536067 1_455
Cl0 Rb1 3.536068 1_565
Cl0 Rb1 3.536068 1_556
Cl1 Ti0 2.351332 1_565
Cl1 Rb0 3.536067 1_554
Cl1 Rb0 3.536067 1_455
Cl1 Rb1 3.536068 1_565
Cl1 Rb1 3.536068 1_555
Cl2 Ti0 2.351332 1_656
Cl2 Rb1 3.536067 1_556
Cl2 Rb1 3.536067 1_655
Cl2 Rb0 3.536068 1_545
Cl2 Rb0 3.536068 1_555
Cl3 Ti0 2.351332 1_655
Cl3 Rb1 3.536067 1_555
Cl3 Rb1 3.536067 1_655
Cl3 Rb0 3.536068 1_545
Cl3 Rb0 3.536068 1_554
Cl4 Ti0 2.351332 1_665
Cl4 Rb0 3.536068 1_554
Cl4 Rb0 3.536068 1_555
Cl4 Rb1 3.536068 1_565
Cl4 Rb1 3.536068 1_655
Cl5 Ti0 2.351332 1_556
Cl5 Rb1 3.536068 1_556
Cl5 Rb1 3.536068 1_555
Cl5 Rb0 3.536068 1_545
Cl5 Rb0 3.536068 1_455
