# generated using pymatgen
data_MgNbV3O8
_symmetry_space_group_name_H-M   'P 1'
_cell_length_a   6.63521777
_cell_length_b   6.64503455
_cell_length_c   6.77439141
_cell_angle_alpha   74.03028439
_cell_angle_beta   105.98576763
_cell_angle_gamma   144.93532761
_symmetry_Int_Tables_number   1
_chemical_formula_structural   MgNbV3O8
_chemical_formula_sum   'Mg1 Nb1 V3 O8'
_cell_volume   164.29303008
_cell_formula_units_Z   1
loop_
 _symmetry_equiv_pos_site_id
 _symmetry_equiv_pos_as_xyz
  1  'x, y, z'
loop_
 _atom_site_type_symbol
 _atom_site_label
 _atom_site_symmetry_multiplicity
 _atom_site_fract_x
 _atom_site_fract_y
 _atom_site_fract_z
 _atom_site_occupancy
  Mg  Mg0  1  0.88033600  0.12431500  0.98362200  1
  Nb  Nb0  1  0.70401900  0.29488000  0.28606600  1
  V  V0  1  0.41123400  0.59234600  0.32696400  1
  V  V1  1  0.60854400  0.38825800  0.69285000  1
  V  V2  1  0.30006200  0.70199000  0.69082000  1
  O  O0  1  0.14515800  0.85289800  0.69842500  1
  O  O1  1  0.24429000  0.75615100  0.35195200  1
  O  O2  1  0.38251100  0.62197900  0.99427300  1
  O  O3  1  0.44857300  0.55212000  0.62233300  1
  O  O4  1  0.57404900  0.42469300  0.36896100  1
  O  O5  1  0.64684400  0.34999400  0.01106800  1
  O  O6  1  0.77951100  0.22199900  0.68404400  1
  O  O7  1  0.87487000  0.12837700  0.27862200  1
loop_
_geom_bond_atom_site_label_1
_geom_bond_atom_site_label_2
_geom_bond_distance
_geom_bond_site_symmetry_2
Mg0 O2 2.001132 1_655
Mg0 O2 2.001890 1_545
Mg0 O7 2.016689 1_556
Mg0 O6 2.055671 1_555
Nb0 O5 1.792025 1_555
Nb0 O4 1.885261 1_555
Nb0 O1 2.077051 1_545
Nb0 O1 2.080706 1_655
Nb0 O7 2.151110 1_555
Nb0 O6 2.586309 1_555
O0 V2 1.951793 1_555
O0 V1 2.048171 1_565
O0 V1 2.050795 1_455
O1 V0 2.149174 1_555
O1 V2 2.198148 1_555
O2 V2 2.015738 1_555
O2 V0 2.176066 1_556
O3 V0 1.917723 1_555
O3 V1 1.966468 1_555
O3 V2 2.071382 1_555
O4 V0 2.028706 1_555
O4 V1 2.108813 1_555
O5 V1 2.068535 1_554
O6 V2 2.015126 1_545
O6 V2 2.015987 1_655
O6 V1 2.153180 1_555
O7 V0 2.056733 1_655
O7 V0 2.057587 1_545
