# generated using pymatgen
data_Na4LaMg(PO4)3
_symmetry_space_group_name_H-M   'P 1'
_cell_length_a   9.50740734
_cell_length_b   9.50740698
_cell_length_c   22.35239272
_cell_angle_alpha   90.00000000
_cell_angle_beta   90.00000000
_cell_angle_gamma   120.00000124
_symmetry_Int_Tables_number   1
_chemical_formula_structural   Na4LaMg(PO4)3
_chemical_formula_sum   'Na24 La6 Mg6 P18 O72'
_cell_volume   1749.76140151
_cell_formula_units_Z   6
loop_
 _symmetry_equiv_pos_site_id
 _symmetry_equiv_pos_as_xyz
  1  'x, y, z'
loop_
 _atom_site_type_symbol
 _atom_site_label
 _atom_site_symmetry_multiplicity
 _atom_site_fract_x
 _atom_site_fract_y
 _atom_site_fract_z
 _atom_site_occupancy
  Na  Na0  1  0.63811401  0.01566036  0.24771823  1
  Na  Na1  1  0.37754635  0.36188599  0.24771823  1
  Na  Na2  1  0.98433964  0.62245365  0.24771823  1
  Na  Na3  1  0.63811401  0.62245365  0.74771823  1
  Na  Na4  1  0.98433964  0.36188599  0.74771823  1
  Na  Na5  1  0.37754635  0.01566036  0.74771823  1
  Na  Na6  1  0.30478101  0.34899336  0.58105123  1
  Na  Na7  1  0.04421335  0.69521899  0.58105123  1
  Na  Na8  1  0.65100664  0.95578665  0.58105123  1
  Na  Na9  1  0.30478101  0.95578665  0.08105123  1
  Na  Na10  1  0.65100664  0.69521899  0.08105123  1
  Na  Na11  1  0.04421335  0.34899336  0.08105123  1
  Na  Na12  1  0.97144701  0.68232736  0.91438523  1
  Na  Na13  1  0.71087935  0.02855299  0.91438523  1
  Na  Na14  1  0.31767264  0.28912065  0.91438523  1
  Na  Na15  1  0.97144701  0.28912065  0.41438523  1
  Na  Na16  1  0.31767264  0.02855299  0.41438523  1
  Na  Na17  1  0.71087935  0.68232736  0.41438523  1
  Na  Na18  1  -0.00000000  0.00000000  0.49219317  1
  Na  Na19  1  -0.00000000  0.00000000  0.99219317  1
  Na  Na20  1  0.66666700  0.33333300  0.82552617  1
  Na  Na21  1  0.66666700  0.33333300  0.32552617  1
  Na  Na22  1  0.33333300  0.66666700  0.15886017  1
  Na  Na23  1  0.33333300  0.66666700  0.65886017  1
  La  La0  1  -0.00000000  0.00000000  0.65684346  1
  La  La1  1  -0.00000000  0.00000000  0.15684346  1
  La  La2  1  0.66666700  0.33333300  0.99017646  1
  La  La3  1  0.66666700  0.33333300  0.49017646  1
  La  La4  1  0.33333300  0.66666700  0.32351046  1
  La  La5  1  0.33333300  0.66666700  0.82351046  1
  Mg  Mg0  1  -0.00000000  0.00000000  0.34813475  1
  Mg  Mg1  1  -0.00000000  0.00000000  0.84813475  1
  Mg  Mg2  1  0.66666700  0.33333300  0.68146775  1
  Mg  Mg3  1  0.66666700  0.33333300  0.18146775  1
  Mg  Mg4  1  0.33333300  0.66666700  0.01480175  1
  Mg  Mg5  1  0.33333300  0.66666700  0.51480175  1
  P  P0  1  0.31656904  0.01521741  0.25167732  1
  P  P1  1  0.69864836  0.68343096  0.25167732  1
  P  P2  1  0.98478259  0.30135164  0.25167732  1
  P  P3  1  0.31656904  0.30135164  0.75167732  1
  P  P4  1  0.98478259  0.68343096  0.75167732  1
  P  P5  1  0.69864836  0.01521741  0.75167732  1
  P  P6  1  0.98323604  0.34855041  0.58501032  1
  P  P7  1  0.36531536  0.01676396  0.58501032  1
  P  P8  1  0.65144959  0.63468464  0.58501032  1
  P  P9  1  0.98323604  0.63468464  0.08501032  1
  P  P10  1  0.65144959  0.01676396  0.08501032  1
  P  P11  1  0.36531536  0.34855041  0.08501032  1
  P  P12  1  0.64990204  0.68188441  0.91834432  1
  P  P13  1  0.03198136  0.35009796  0.91834432  1
  P  P14  1  0.31811559  0.96801864  0.91834432  1
  P  P15  1  0.64990204  0.96801864  0.41834432  1
  P  P16  1  0.31811559  0.35009796  0.41834432  1
  P  P17  1  0.03198136  0.68188441  0.41834432  1
  O  O0  1  0.21394709  0.02250821  0.30465525  1
  O  O1  1  0.80856112  0.78605291  0.30465525  1
  O  O2  1  0.97749179  0.19143888  0.30465525  1
  O  O3  1  0.21394709  0.19143888  0.80465525  1
  O  O4  1  0.97749179  0.78605291  0.80465525  1
  O  O5  1  0.80856111  0.02250821  0.80465525  1
  O  O6  1  0.76723998  0.99059375  0.69215236  1
  O  O7  1  0.22335378  0.23276002  0.69215236  1
  O  O8  1  0.00940625  0.77664622  0.69215236  1
  O  O9  1  0.76723998  0.77664622  0.19215236  1
  O  O10  1  0.00940625  0.23276002  0.19215236  1
  O  O11  1  0.22335378  0.99059375  0.19215236  1
  O  O12  1  0.88061409  0.35584121  0.63798825  1
  O  O13  1  0.47522812  0.11938591  0.63798825  1
  O  O14  1  0.64415879  0.52477188  0.63798825  1
  O  O15  1  0.88061409  0.52477188  0.13798825  1
  O  O16  1  0.64415879  0.11938591  0.13798825  1
  O  O17  1  0.47522811  0.35584121  0.13798825  1
  O  O18  1  0.43390698  0.32392675  0.02548536  1
  O  O19  1  0.89002078  0.56609302  0.02548536  1
  O  O20  1  0.67607325  0.10997922  0.02548536  1
  O  O21  1  0.43390698  0.10997922  0.52548536  1
  O  O22  1  0.67607325  0.56609302  0.52548536  1
  O  O23  1  0.89002078  0.32392675  0.52548536  1
  O  O24  1  0.54728009  0.68917521  0.97132225  1
  O  O25  1  0.14189412  0.45271991  0.97132225  1
  O  O26  1  0.31082479  0.85810588  0.97132225  1
  O  O27  1  0.54728009  0.85810588  0.47132225  1
  O  O28  1  0.31082479  0.45271991  0.47132225  1
  O  O29  1  0.14189411  0.68917521  0.47132225  1
  O  O30  1  0.10057298  0.65726075  0.35881936  1
  O  O31  1  0.55668678  0.89942702  0.35881936  1
  O  O32  1  0.34273925  0.44331322  0.35881936  1
  O  O33  1  0.10057298  0.44331322  0.85881936  1
  O  O34  1  0.34273925  0.89942702  0.85881936  1
  O  O35  1  0.55668678  0.65726075  0.85881936  1
  O  O36  1  0.02535056  0.84176465  0.41597107  1
  O  O37  1  0.81641409  0.97464944  0.41597107  1
  O  O38  1  0.15823535  0.18358591  0.41597107  1
  O  O39  1  0.02535056  0.18358591  0.91597107  1
  O  O40  1  0.15823535  0.97464944  0.91597107  1
  O  O41  1  0.81641409  0.84176465  0.91597107  1
  O  O42  1  0.01346201  0.20147535  0.58876864  1
  O  O43  1  0.18801334  0.98653799  0.58876864  1
  O  O44  1  0.79852465  0.81198666  0.58876864  1
  O  O45  1  0.01346201  0.81198666  0.08876864  1
  O  O46  1  0.79852465  0.98653799  0.08876864  1
  O  O47  1  0.18801334  0.20147535  0.08876864  1
  O  O48  1  0.69201756  0.17509765  0.74930407  1
  O  O49  1  0.48308109  0.30798244  0.74930407  1
  O  O50  1  0.82490235  0.51691891  0.74930407  1
  O  O51  1  0.69201756  0.51691891  0.24930407  1
  O  O52  1  0.82490235  0.30798244  0.24930407  1
  O  O53  1  0.48308109  0.17509765  0.24930407  1
  O  O54  1  0.68012901  0.53480835  0.92210164  1
  O  O55  1  0.85468034  0.31987099  0.92210164  1
  O  O56  1  0.46519165  0.14531966  0.92210164  1
  O  O57  1  0.68012901  0.14531966  0.42210164  1
  O  O58  1  0.46519165  0.31987099  0.42210164  1
  O  O59  1  0.85468034  0.53480835  0.42210164  1
  O  O60  1  0.35868356  0.50843165  0.08263807  1
  O  O61  1  0.14974709  0.64131644  0.08263807  1
  O  O62  1  0.49156835  0.85025291  0.08263807  1
  O  O63  1  0.35868356  0.85025291  0.58263807  1
  O  O64  1  0.49156835  0.64131644  0.58263807  1
  O  O65  1  0.14974709  0.50843165  0.58263807  1
  O  O66  1  0.34679501  0.86814235  0.25543564  1
  O  O67  1  0.52134634  0.65320499  0.25543564  1
  O  O68  1  0.13185765  0.47865366  0.25543564  1
  O  O69  1  0.34679501  0.47865366  0.75543564  1
  O  O70  1  0.13185765  0.65320499  0.75543564  1
  O  O71  1  0.52134634  0.86814235  0.75543564  1
loop_
_geom_bond_atom_site_label_1
_geom_bond_atom_site_label_2
_geom_bond_distance
_geom_bond_site_symmetry_2
Na0 O66 2.404880 1_545
Na0 O52 2.437934 1_555
Na0 O53 2.589567 1_555
Na0 O16 2.633442 1_555
Na0 O31 2.670612 1_545
Na1 O67 2.404880 1_555
Na1 O53 2.437941 1_555
Na1 O51 2.589575 1_555
Na1 O17 2.633445 1_555
Na1 O32 2.670615 1_555
Na2 O68 2.404872 1_655
Na2 O51 2.437933 1_555
Na2 O52 2.589575 1_555
Na2 O15 2.633443 1_555
Na2 O30 2.670612 1_655
Na3 O69 2.404880 1_555
Na3 O50 2.437941 1_555
Na3 O49 2.589575 1_555
Na3 O14 2.633445 1_555
Na3 O35 2.670615 1_555
Na4 O70 2.404880 1_655
Na4 O48 2.437934 1_555
Na4 O50 2.589567 1_555
Na4 O12 2.633442 1_555
Na4 O33 2.670612 1_655
Na5 O71 2.404872 1_545
Na5 O49 2.437932 1_555
Na5 O48 2.589575 1_555
Na5 O13 2.633443 1_555
Na5 O34 2.670612 1_545
Na6 O42 2.404880 1_555
Na6 O64 2.437940 1_555
Na6 O65 2.589584 1_555
Na6 O28 2.633426 1_555
Na6 O7 2.670612 1_555
Na7 O43 2.404880 1_555
Na7 O65 2.437925 1_555
Na7 O63 2.589567 1_555
Na7 O29 2.633419 1_555
Na7 O8 2.670615 1_555
Na8 O44 2.404872 1_555
Na8 O63 2.437943 1_555
Na8 O64 2.589567 1_555
Na8 O27 2.633423 1_555
Na8 O6 2.670612 1_555
Na9 O45 2.404880 1_555
Na9 O62 2.437926 1_555
Na9 O61 2.589567 1_555
Na9 O26 2.633419 1_554
Na9 O11 2.670615 1_555
Na10 O46 2.404880 1_555
Na10 O60 2.437940 1_555
Na10 O62 2.589584 1_555
Na10 O24 2.633426 1_554
Na10 O9 2.670612 1_555
Na11 O47 2.404872 1_555
Na11 O61 2.437943 1_555
Na11 O60 2.589567 1_555
Na11 O25 2.633423 1_554
Na11 O10 2.670612 1_555
Na12 O54 2.404871 1_555
Na12 O40 2.437934 1_655
Na12 O41 2.589567 1_555
Na12 O4 2.633442 1_555
Na12 O19 2.670593 1_556
Na13 O55 2.404870 1_555
Na13 O41 2.437941 1_545
Na13 O39 2.589575 1_655
Na13 O5 2.633445 1_555
Na13 O20 2.670588 1_556
Na14 O56 2.404887 1_555
Na14 O39 2.437933 1_555
Na14 O40 2.589575 1_545
Na14 O3 2.633443 1_555
Na14 O18 2.670595 1_556
Na15 O57 2.404871 1_555
Na15 O38 2.437941 1_655
Na15 O37 2.589575 1_545
Na15 O2 2.633445 1_555
Na15 O23 2.670588 1_555
Na16 O58 2.404871 1_555
Na16 O36 2.437934 1_545
Na16 O38 2.589567 1_555
Na16 O0 2.633442 1_555
Na16 O21 2.670593 1_555
Na17 O59 2.404887 1_555
Na17 O37 2.437932 1_555
Na17 O36 2.589575 1_655
Na17 O1 2.633443 1_555
Na17 O22 2.670595 1_555
Na18 O38 2.363615 1_555
Na18 O36 2.363615 1_545
Na18 O37 2.363615 1_445
Na18 O42 2.846110 1_555
Na18 O44 2.846110 1_445
Na18 O43 2.846110 1_545
Na19 O39 2.363615 1_555
Na19 O41 2.363615 1_445
Na19 O40 2.363615 1_545
Na19 O47 2.846110 1_556
Na19 O45 2.846110 1_546
Na19 O46 2.846110 1_446
Na20 O50 2.363615 1_555
Na20 O48 2.363615 1_555
Na20 O49 2.363615 1_555
Na20 O54 2.846110 1_555
Na20 O56 2.846110 1_555
Na20 O55 2.846110 1_555
Na21 O51 2.363615 1_555
Na21 O53 2.363615 1_555
Na21 O52 2.363615 1_555
Na21 O59 2.846110 1_555
Na21 O57 2.846110 1_555
Na21 O58 2.846110 1_555
Na22 O62 2.363615 1_555
Na22 O60 2.363615 1_555
Na22 O61 2.363615 1_555
Na22 O66 2.846110 1_555
Na22 O68 2.846110 1_555
Na22 O67 2.846110 1_555
Na23 O63 2.363615 1_555
Na23 O65 2.363615 1_555
Na23 O64 2.363615 1_555
Na23 O71 2.846110 1_555
Na23 O69 2.846110 1_555
Na23 O70 2.846110 1_555
La0 O7 2.308704 1_555
La0 O6 2.308704 1_445
La0 O8 2.308704 1_545
La0 O42 2.399117 1_555
La0 O44 2.399117 1_445
La0 O43 2.399117 1_545
La1 O10 2.308704 1_555
La1 O9 2.308704 1_445
La1 O11 2.308704 1_545
La1 O47 2.399117 1_555
La1 O45 2.399117 1_545
La1 O46 2.399117 1_445
La2 O19 2.308704 1_556
La2 O18 2.308704 1_556
La2 O20 2.308704 1_556
La2 O54 2.399117 1_555
La2 O56 2.399117 1_555
La2 O55 2.399117 1_555
La3 O22 2.308704 1_555
La3 O21 2.308704 1_555
La3 O23 2.308704 1_555
La3 O59 2.399117 1_555
La3 O57 2.399117 1_555
La3 O58 2.399117 1_555
La4 O31 2.308704 1_555
La4 O30 2.308704 1_555
La4 O32 2.308704 1_555
La4 O66 2.399117 1_555
La4 O68 2.399117 1_555
La4 O67 2.399117 1_555
La5 O34 2.308704 1_555
La5 O33 2.308704 1_555
La5 O35 2.308704 1_555
La5 O71 2.399117 1_555
La5 O69 2.399117 1_555
La5 O70 2.399117 1_555
Mg0 O1 2.166226 1_445
Mg0 O2 2.166226 1_455
Mg0 O0 2.166226 1_555
Mg0 O38 2.232286 1_555
Mg0 O36 2.232286 1_545
Mg0 O37 2.232286 1_445
Mg1 O4 2.166226 1_445
Mg1 O3 2.166226 1_555
Mg1 O5 2.166226 1_455
Mg1 O39 2.232286 1_555
Mg1 O41 2.232286 1_445
Mg1 O40 2.232286 1_545
Mg2 O13 2.166226 1_555
Mg2 O14 2.166226 1_555
Mg2 O12 2.166226 1_555
Mg2 O50 2.232286 1_555
Mg2 O48 2.232286 1_555
Mg2 O49 2.232286 1_555
Mg3 O16 2.166226 1_555
Mg3 O15 2.166226 1_555
Mg3 O17 2.166226 1_555
Mg3 O51 2.232286 1_555
Mg3 O53 2.232286 1_555
Mg3 O52 2.232286 1_555
Mg4 O25 2.166226 1_554
Mg4 O26 2.166226 1_554
Mg4 O24 2.166226 1_554
Mg4 O62 2.232286 1_555
Mg4 O60 2.232286 1_555
Mg4 O61 2.232286 1_555
Mg5 O28 2.166226 1_555
Mg5 O27 2.166226 1_555
Mg5 O29 2.166226 1_555
Mg5 O63 2.232286 1_555
Mg5 O65 2.232286 1_555
Mg5 O64 2.232286 1_555
O0 P0 1.557772 1_555
O1 P1 1.557772 1_555
O2 P2 1.557772 1_555
O3 P3 1.557772 1_555
O4 P4 1.557772 1_555
O5 P5 1.557772 1_555
O6 P5 1.550175 1_565
O7 P3 1.550175 1_555
O8 P4 1.550175 1_455
O9 P1 1.550175 1_555
O10 P2 1.550175 1_455
O11 P0 1.550175 1_565
O12 P6 1.557772 1_555
O13 P7 1.557772 1_555
O14 P8 1.557772 1_555
O15 P9 1.557772 1_555
O16 P10 1.557772 1_555
O17 P11 1.557772 1_555
O18 P11 1.550175 1_555
O19 P9 1.550175 1_555
O20 P10 1.550175 1_555
O21 P7 1.550175 1_555
O22 P8 1.550175 1_555
O23 P6 1.550175 1_555
O24 P12 1.557772 1_555
O25 P13 1.557772 1_555
O26 P14 1.557772 1_555
O27 P15 1.557772 1_555
O28 P16 1.557772 1_555
O29 P17 1.557772 1_555
O30 P17 1.550175 1_555
O31 P15 1.550175 1_555
O32 P16 1.550175 1_555
O33 P13 1.550175 1_555
O34 P14 1.550175 1_555
O35 P12 1.550175 1_555
O36 P17 1.553434 1_555
O37 P15 1.553443 1_555
O38 P16 1.553439 1_555
O39 P13 1.553443 1_555
O40 P14 1.553434 1_555
O41 P12 1.553439 1_555
O42 P6 1.564199 1_455
O43 P7 1.564209 1_565
O44 P8 1.564205 1_555
O45 P9 1.564209 1_455
O46 P10 1.564199 1_565
O47 P11 1.564205 1_555
O48 P5 1.553434 1_555
O49 P3 1.553443 1_555
O50 P4 1.553439 1_555
O51 P1 1.553443 1_555
O52 P2 1.553434 1_555
O53 P0 1.553439 1_555
O54 P12 1.564214 1_555
O55 P13 1.564195 1_655
O56 P14 1.564202 1_545
O57 P15 1.564195 1_545
O58 P16 1.564214 1_555
O59 P17 1.564202 1_655
O60 P11 1.553447 1_555
O61 P9 1.553429 1_455
O62 P10 1.553437 1_565
O63 P7 1.553429 1_565
O64 P8 1.553447 1_555
O65 P6 1.553437 1_455
O66 P0 1.564199 1_565
O67 P1 1.564209 1_555
O68 P2 1.564205 1_455
O69 P3 1.564209 1_555
O70 P4 1.564199 1_455
O71 P5 1.564205 1_565
