# generated using pymatgen
data_Nd(NiSn)2
_symmetry_space_group_name_H-M   'P 1'
_cell_length_a   4.39814135
_cell_length_b   4.39814135
_cell_length_c   10.20173633
_cell_angle_alpha   90.00000000
_cell_angle_beta   90.00000000
_cell_angle_gamma   90.00000000
_symmetry_Int_Tables_number   1
_chemical_formula_structural   Nd(NiSn)2
_chemical_formula_sum   'Nd2 Ni4 Sn4'
_cell_volume   197.33878977
_cell_formula_units_Z   2
loop_
 _symmetry_equiv_pos_site_id
 _symmetry_equiv_pos_as_xyz
  1  'x, y, z'
loop_
 _atom_site_type_symbol
 _atom_site_label
 _atom_site_symmetry_multiplicity
 _atom_site_fract_x
 _atom_site_fract_y
 _atom_site_fract_z
 _atom_site_occupancy
  Nd  Nd0  1  0.75000000  0.75000000  0.76004214  1
  Nd  Nd1  1  0.25000000  0.25000000  0.23995786  1
  Ni  Ni0  1  0.75000000  0.75000000  0.37139317  1
  Ni  Ni1  1  0.25000000  0.25000000  0.62860683  1
  Ni  Ni2  1  0.75000000  0.25000000  -0.00000000  1
  Ni  Ni3  1  0.25000000  0.75000000  -0.00000000  1
  Sn  Sn0  1  0.25000000  0.25000000  0.87436058  1
  Sn  Sn1  1  0.75000000  0.75000000  0.12563942  1
  Sn  Sn2  1  0.75000000  0.25000000  0.50000000  1
  Sn  Sn3  1  0.25000000  0.75000000  0.50000000  1
loop_
_geom_bond_atom_site_label_1
_geom_bond_atom_site_label_2
_geom_bond_distance
_geom_bond_site_symmetry_2
Nd0 Ni2 3.290676 1_556
Nd0 Ni3 3.290676 1_656
Nd0 Ni2 3.290676 1_566
Nd0 Ni3 3.290676 1_556
Nd0 Sn0 3.321439 1_565
Nd0 Sn0 3.321439 1_555
Nd0 Sn0 3.321439 1_665
Nd0 Sn0 3.321439 1_655
Nd0 Ni1 3.386702 1_655
Nd0 Ni1 3.386702 1_665
Nd0 Ni1 3.386702 1_565
Nd0 Ni1 3.386702 1_555
Nd0 Sn3 3.445822 1_655
Nd0 Sn3 3.445822 1_555
Nd0 Sn2 3.445822 1_555
Nd0 Sn2 3.445822 1_565
Nd1 Ni2 3.290676 1_555
Nd1 Ni3 3.290676 1_555
Nd1 Ni3 3.290676 1_545
Nd1 Ni2 3.290676 1_455
Nd1 Sn1 3.321439 1_455
Nd1 Sn1 3.321439 1_445
Nd1 Sn1 3.321439 1_545
Nd1 Sn1 3.321439 1_555
Nd1 Ni0 3.386702 1_455
Nd1 Ni0 3.386702 1_555
Nd1 Ni0 3.386702 1_445
Nd1 Ni0 3.386702 1_545
Nd1 Sn3 3.445822 1_555
Nd1 Sn2 3.445822 1_455
Nd1 Sn2 3.445822 1_555
Nd1 Sn3 3.445822 1_545
Ni0 Sn1 2.507115 1_555
Ni0 Sn3 2.560721 1_555
Ni0 Sn2 2.560721 1_555
Ni0 Sn2 2.560721 1_565
Ni0 Sn3 2.560721 1_655
Ni1 Sn0 2.507115 1_555
Ni1 Sn3 2.560721 1_555
Ni1 Sn2 2.560721 1_455
Ni1 Sn2 2.560721 1_555
Ni1 Sn3 2.560721 1_545
Ni2 Sn0 2.545343 1_554
Ni2 Sn0 2.545343 1_654
Ni2 Sn1 2.545343 1_555
Ni2 Sn1 2.545343 1_545
Ni3 Sn0 2.545343 1_564
Ni3 Sn0 2.545343 1_554
Ni3 Sn1 2.545343 1_555
Ni3 Sn1 2.545343 1_455
