# generated using pymatgen
data_Na42Ta16Zn8Si33(SO48)3
_symmetry_space_group_name_H-M   'P 1'
_cell_length_a   18.28557398
_cell_length_b   9.16158729
_cell_length_c   22.28758337
_cell_angle_alpha   89.95113993
_cell_angle_beta   89.98514515
_cell_angle_gamma   120.15528052
_symmetry_Int_Tables_number   1
_chemical_formula_structural   Na42Ta16Zn8Si33(SO48)3
_chemical_formula_sum   'Na42 Ta16 Zn8 Si33 S3 O144'
_cell_volume   3228.42695562
_cell_formula_units_Z   1
loop_
 _symmetry_equiv_pos_site_id
 _symmetry_equiv_pos_as_xyz
  1  'x, y, z'
loop_
 _atom_site_type_symbol
 _atom_site_label
 _atom_site_symmetry_multiplicity
 _atom_site_fract_x
 _atom_site_fract_y
 _atom_site_fract_z
 _atom_site_occupancy
  Na  Na0  1  0.31301484  0.97643863  0.25543689  1
  Na  Na1  1  0.81494143  0.97843300  0.25617852  1
  Na  Na2  1  0.17844205  0.38813291  0.25422592  1
  Na  Na3  1  0.67945661  0.38937809  0.25438830  1
  Na  Na4  1  0.00841490  0.63703690  0.26183704  1
  Na  Na5  1  0.50769903  0.63478362  0.26055806  1
  Na  Na6  1  0.31509040  0.65323369  0.75681551  1
  Na  Na7  1  0.80726876  0.64047997  0.75534746  1
  Na  Na8  1  0.00688430  0.38461586  0.75870937  1
  Na  Na9  1  0.51456748  0.38156346  0.75843309  1
  Na  Na10  1  0.17897990  0.96976680  0.75475422  1
  Na  Na11  1  0.67891173  0.97304470  0.75523699  1
  Na  Na12  1  0.14036932  0.31549329  0.58528828  1
  Na  Na13  1  0.63917575  0.31070475  0.59339656  1
  Na  Na14  1  0.01668931  0.71913403  0.59096838  1
  Na  Na15  1  0.51934108  0.72814323  0.59211664  1
  Na  Na16  1  0.34483045  0.96122596  0.59161102  1
  Na  Na17  1  0.84383748  0.96701295  0.59209986  1
  Na  Na18  1  0.34180204  0.72315452  0.09145576  1
  Na  Na19  1  0.84226000  0.72370784  0.09194316  1
  Na  Na20  1  0.01831435  0.31460698  0.09135194  1
  Na  Na21  1  0.51713974  0.31234118  0.09060493  1
  Na  Na22  1  0.48690250  0.66208979  0.91318276  1
  Na  Na23  1  0.99075827  0.65887314  0.91340977  1
  Na  Na24  1  0.34443409  0.02474606  0.91488070  1
  Na  Na25  1  0.84138346  0.02458613  0.91296153  1
  Na  Na26  1  0.66624499  0.30948324  0.91254572  1
  Na  Na27  1  0.48950609  0.32025598  0.41363032  1
  Na  Na28  1  0.34020965  0.65828400  0.41291021  1
  Na  Na29  1  0.84359039  0.65742912  0.41393813  1
  Na  Na30  1  0.00452518  0.00738189  0.50651134  1
  Na  Na31  1  0.50612588  0.99994926  0.50948242  1
  Na  Na32  1  0.01257091  0.00960460  0.01162337  1
  Na  Na33  1  0.50541729  0.99802051  0.01068624  1
  Na  Na34  1  0.32997492  0.33307917  0.83683129  1
  Na  Na35  1  0.83215935  0.33212004  0.83235494  1
  Na  Na36  1  0.32709051  0.32358370  0.33494745  1
  Na  Na37  1  0.83655626  0.32548332  0.33787138  1
  Na  Na38  1  0.16620708  0.66364493  0.17382156  1
  Na  Na39  1  0.66711083  0.66353787  0.17410803  1
  Na  Na40  1  0.16749832  0.68077044  0.67446567  1
  Na  Na41  1  0.66642846  0.66531355  0.67917510  1
  Ta  Ta0  1  0.99379914  0.99959755  0.35731071  1
  Ta  Ta1  1  0.49461152  0.99719528  0.35618463  1
  Ta  Ta2  1  0.99588677  0.99347023  0.85604057  1
  Ta  Ta3  1  0.49797339  0.99837852  0.85188685  1
  Ta  Ta4  1  0.33828933  0.33459223  0.68595099  1
  Ta  Ta5  1  0.83287822  0.33352180  0.68895675  1
  Ta  Ta6  1  0.33678588  0.33855632  0.18578112  1
  Ta  Ta7  1  0.83776009  0.34026026  0.18607109  1
  Ta  Ta8  1  0.33068882  0.33540347  0.98051437  1
  Ta  Ta9  1  0.83349677  0.33397033  0.98096970  1
  Ta  Ta10  1  0.33101541  0.33038349  0.47891020  1
  Ta  Ta11  1  0.83540493  0.32935091  0.47850911  1
  Ta  Ta12  1  0.16660890  0.66761841  0.02024198  1
  Ta  Ta13  1  0.66622569  0.66786988  0.02164199  1
  Ta  Ta14  1  0.16460633  0.66467201  0.51841264  1
  Ta  Ta15  1  0.66642322  0.66670661  0.51922981  1
  Zn  Zn0  1  0.99349824  0.98146201  0.64543610  1
  Zn  Zn1  1  0.49968245  0.99913228  0.65168465  1
  Zn  Zn2  1  0.99712300  0.00386421  0.14501803  1
  Zn  Zn3  1  0.49675934  0.00332119  0.14419260  1
  Zn  Zn4  1  0.16495455  0.65315071  0.32298067  1
  Zn  Zn5  1  0.66739357  0.65544214  0.32246959  1
  Zn  Zn6  1  0.16782863  0.67970878  0.82350514  1
  Zn  Zn7  1  0.66639599  0.66726716  0.81782438  1
  Si  Si0  1  0.35291752  0.70628982  0.24601975  1
  Si  Si1  1  0.85365270  0.70776359  0.24656086  1
  Si  Si2  1  0.00020859  0.29242728  0.24631349  1
  Si  Si3  1  0.50004248  0.29322458  0.24642092  1
  Si  Si4  1  0.64570970  0.29094375  0.74625840  1
  Si  Si5  1  0.00157759  0.70924648  0.74628762  1
  Si  Si6  1  0.49831865  0.70565127  0.74640390  1
  Si  Si7  1  0.35171860  0.99848546  0.74610910  1
  Si  Si8  1  0.85507003  0.00225869  0.74601729  1
  Si  Si9  1  0.48161820  0.33771595  0.58047719  1
  Si  Si10  1  0.98061706  0.33863323  0.58470507  1
  Si  Si11  1  0.18855552  0.03911337  0.58412321  1
  Si  Si12  1  0.69055096  0.04141991  0.58278673  1
  Si  Si13  1  0.33030917  0.62116083  0.58270525  1
  Si  Si14  1  0.83046250  0.61884334  0.58128561  1
  Si  Si15  1  0.48199244  0.62839324  0.08203165  1
  Si  Si16  1  0.98326491  0.63000939  0.08227934  1
  Si  Si17  1  0.32878795  0.03980716  0.08246428  1
  Si  Si18  1  0.82873209  0.03840104  0.08363436  1
  Si  Si19  1  0.18710829  0.33441943  0.08450688  1
  Si  Si20  1  0.68724050  0.33300851  0.08339780  1
  Si  Si21  1  0.31050261  0.66292297  0.91278091  1
  Si  Si22  1  0.81076153  0.66277782  0.91528193  1
  Si  Si23  1  0.02219901  0.37339223  0.91505040  1
  Si  Si24  1  0.51987640  0.37379544  0.91551018  1
  Si  Si25  1  0.16731783  0.96367319  0.91487063  1
  Si  Si26  1  0.66658706  0.95906341  0.91434634  1
  Si  Si27  1  0.30861471  0.95846267  0.41280731  1
  Si  Si28  1  0.80858208  0.95827119  0.41244144  1
  Si  Si29  1  0.16478312  0.36931776  0.41466273  1
  Si  Si30  1  0.66726158  0.36912712  0.41518190  1
  Si  Si31  1  0.02123399  0.66924363  0.41316065  1
  Si  Si32  1  0.52144760  0.67032883  0.41451031  1
  S  S0  1  0.14484588  0.00724959  0.24839857  1
  S  S1  1  0.64433508  0.00680805  0.24853240  1
  S  S2  1  0.14584674  0.28500423  0.74805025  1
  O  O0  1  0.10342066  0.02826721  0.30385126  1
  O  O1  1  0.60160742  0.02724925  0.30406233  1
  O  O2  1  0.41575874  0.80439237  0.30689932  1
  O  O3  1  0.91582350  0.80266292  0.30704968  1
  O  O4  1  0.48787677  0.16672756  0.30652877  1
  O  O5  1  0.98748872  0.16061558  0.30409282  1
  O  O6  1  0.10110845  0.17594500  0.80194282  1
  O  O7  1  0.59591767  0.16553929  0.80642879  1
  O  O8  1  0.48384347  0.80344672  0.80604415  1
  O  O9  1  0.99039037  0.81255568  0.80617619  1
  O  O10  1  0.41490502  0.02777441  0.80607900  1
  O  O11  1  0.91718941  0.02589787  0.80668638  1
  O  O12  1  0.39345799  0.97657247  0.68629182  1
  O  O13  1  0.89812646  0.98057508  0.68687271  1
  O  O14  1  0.10024713  0.21029948  0.69269222  1
  O  O15  1  0.59098254  0.21127821  0.68687366  1
  O  O16  1  0.02071797  0.82355060  0.68732185  1
  O  O17  1  0.51065263  0.81130912  0.68654830  1
  O  O18  1  0.39798595  0.81446510  0.18736456  1
  O  O19  1  0.89753123  0.81457567  0.18721011  1
  O  O20  1  0.01613860  0.21553042  0.18663578  1
  O  O21  1  0.51643635  0.21328034  0.18776687  1
  O  O22  1  0.09649268  0.98850677  0.19475661  1
  O  O23  1  0.59602097  0.98822684  0.19509373  1
  O  O24  1  0.43239927  0.36360782  0.64095970  1
  O  O25  1  0.93415440  0.36849168  0.64419954  1
  O  O26  1  0.24919807  0.13437224  0.64421582  1
  O  O27  1  0.75106242  0.13436713  0.64308862  1
  O  O28  1  0.31647735  0.49558004  0.64192520  1
  O  O29  1  0.81740109  0.49847738  0.64137991  1
  O  O30  1  0.43237311  0.49983199  0.14165115  1
  O  O31  1  0.93270604  0.50091350  0.14162501  1
  O  O32  1  0.31904248  0.13745105  0.14283428  1
  O  O33  1  0.81938028  0.13723508  0.14329942  1
  O  O34  1  0.24938551  0.36225660  0.14395281  1
  O  O35  1  0.75010031  0.35974678  0.14217689  1
  O  O36  1  0.24294001  0.32758399  0.02773498  1
  O  O37  1  0.74129894  0.32788300  0.02466789  1
  O  O38  1  0.42304868  0.52254044  0.02424433  1
  O  O39  1  0.92322475  0.52047231  0.02471625  1
  O  O40  1  0.33688954  0.16096489  0.02562371  1
  O  O41  1  0.83470366  0.15697402  0.02580757  1
  O  O42  1  0.24376532  0.16229692  0.52811787  1
  O  O43  1  0.74477890  0.16543638  0.52742363  1
  O  O44  1  0.33730915  0.51619833  0.52518735  1
  O  O45  1  0.83978901  0.51852415  0.52404271  1
  O  O46  1  0.42238509  0.32739809  0.52384050  1
  O  O47  1  0.91968930  0.32029749  0.52795497  1
  O  O48  1  0.26295913  0.69507101  0.97116646  1
  O  O49  1  0.76619444  0.69796402  0.97385359  1
  O  O50  1  0.08147275  0.46977526  0.97431824  1
  O  O51  1  0.58407630  0.46836026  0.97386935  1
  O  O52  1  0.15009983  0.82679803  0.97011408  1
  O  O53  1  0.65227775  0.82793310  0.97127647  1
  O  O54  1  0.26331071  0.83254506  0.47174163  1
  O  O55  1  0.76208506  0.82945263  0.47082385  1
  O  O56  1  0.15336347  0.46963332  0.47373477  1
  O  O57  1  0.64966332  0.46752047  0.47235739  1
  O  O58  1  0.08242902  0.69068166  0.47258357  1
  O  O59  1  0.58141750  0.69124736  0.47379023  1
  O  O60  1  0.05875359  0.63997793  0.35305334  1
  O  O61  1  0.55576157  0.62272358  0.35606052  1
  O  O62  1  0.25930781  0.88386900  0.35180664  1
  O  O63  1  0.75873534  0.88394875  0.35143734  1
  O  O64  1  0.19347216  0.48574999  0.35585048  1
  O  O65  1  0.69041597  0.48077544  0.35537230  1
  O  O66  1  0.05552956  0.48967567  0.85623468  1
  O  O67  1  0.55421346  0.48940729  0.85685363  1
  O  O68  1  0.19206216  0.90419263  0.85440937  1
  O  O69  1  0.69254775  0.89586913  0.85551292  1
  O  O70  1  0.25915011  0.63304420  0.85192211  1
  O  O71  1  0.75446203  0.61785515  0.85632698  1
  O  O72  1  0.00905228  0.83775660  0.41052665  1
  O  O73  1  0.50923782  0.83726038  0.40980053  1
  O  O74  1  0.40499064  0.97240244  0.41029429  1
  O  O75  1  0.90313979  0.96730944  0.41043068  1
  O  O76  1  0.07996806  0.18227367  0.40888084  1
  O  O77  1  0.57827169  0.18481068  0.40960758  1
  O  O78  1  0.00993693  0.18207958  0.90911231  1
  O  O79  1  0.51231345  0.18537891  0.91061271  1
  O  O80  1  0.07924743  0.97251709  0.90949537  1
  O  O81  1  0.57939547  0.97151721  0.91049697  1
  O  O82  1  0.40578634  0.83959046  0.91021203  1
  O  O83  1  0.90613348  0.83799834  0.90998839  1
  O  O84  1  0.49001124  0.17342460  0.57999035  1
  O  O85  1  0.99352867  0.17822883  0.58576482  1
  O  O86  1  0.09788308  0.02517699  0.58375342  1
  O  O87  1  0.59865479  0.02077912  0.58272020  1
  O  O88  1  0.41296608  0.80395579  0.58177008  1
  O  O89  1  0.91270622  0.80439399  0.58074680  1
  O  O90  1  0.48658612  0.80515815  0.08457070  1
  O  O91  1  0.98670296  0.80573956  0.08377596  1
  O  O92  1  0.41200379  0.02333520  0.08090890  1
  O  O93  1  0.91243770  0.02443387  0.08065206  1
  O  O94  1  0.09463529  0.17656988  0.08500685  1
  O  O95  1  0.59424200  0.17552440  0.08295590  1
  O  O96  1  0.34685387  0.17903471  0.74577758  1
  O  O97  1  0.85342203  0.18458627  0.74677708  1
  O  O98  1  0.23156241  0.29361299  0.74852327  1
  O  O99  1  0.73861937  0.29383386  0.74599422  1
  O  O100  1  0.40553177  0.51734167  0.74578016  1
  O  O101  1  0.90874777  0.52680294  0.74583267  1
  O  O102  1  0.34792639  0.51550351  0.24631490  1
  O  O103  1  0.84734406  0.51511682  0.24546560  1
  O  O104  1  0.40680999  0.29274336  0.24628856  1
  O  O105  1  0.90694561  0.29286449  0.24598888  1
  O  O106  1  0.23143297  0.17094405  0.24738804  1
  O  O107  1  0.73047193  0.17013419  0.24804948  1
  O  O108  1  0.33232732  0.50955117  0.92308775  1
  O  O109  1  0.83117077  0.50739751  0.92436392  1
  O  O110  1  0.42280284  0.33972185  0.92568037  1
  O  O111  1  0.92375291  0.33995612  0.92492297  1
  O  O112  1  0.24873377  0.15260542  0.92684453  1
  O  O113  1  0.74661462  0.15475138  0.92520832  1
  O  O114  1  0.33204725  0.15544117  0.42327806  1
  O  O115  1  0.82758114  0.15029960  0.42408161  1
  O  O116  1  0.24783530  0.34497903  0.42663373  1
  O  O117  1  0.74926163  0.34637990  0.42695229  1
  O  O118  1  0.42360484  0.50719210  0.42449828  1
  O  O119  1  0.92393836  0.50835428  0.42408636  1
  O  O120  1  0.18654981  0.51535200  0.07763987  1
  O  O121  1  0.68663819  0.51439853  0.07789576  1
  O  O122  1  0.07200051  0.62617907  0.07831056  1
  O  O123  1  0.57119741  0.62445309  0.07796865  1
  O  O124  1  0.24353769  0.85145009  0.07682814  1
  O  O125  1  0.74329925  0.85022502  0.07861058  1
  O  O126  1  0.18490098  0.85574116  0.57761372  1
  O  O127  1  0.68702800  0.85700717  0.57639980  1
  O  O128  1  0.24193431  0.62918712  0.57818097  1
  O  O129  1  0.74227889  0.62806202  0.57652678  1
  O  O130  1  0.07286542  0.51706401  0.57856198  1
  O  O131  1  0.57272850  0.51626260  0.57843692  1
  O  O132  1  0.16001115  0.86540201  0.25362261  1
  O  O133  1  0.65808530  0.86380261  0.25490513  1
  O  O134  1  0.25911673  0.68118980  0.25131325  1
  O  O135  1  0.75941870  0.68169353  0.25142771  1
  O  O136  1  0.07760121  0.48418003  0.25360132  1
  O  O137  1  0.57738023  0.48532823  0.25322061  1
  O  O138  1  0.15866035  0.45473606  0.75451005  1
  O  O139  1  0.66165081  0.47912593  0.75408993  1
  O  O140  1  0.07873714  0.67219352  0.75375351  1
  O  O141  1  0.57653231  0.67387420  0.75377925  1
  O  O142  1  0.25812238  0.83603222  0.75257664  1
  O  O143  1  0.76092010  0.84312686  0.75239531  1
loop_
_geom_bond_atom_site_label_1
_geom_bond_atom_site_label_2
_geom_bond_distance
_geom_bond_site_symmetry_2
Na0 O62 2.335802 1_555
Na0 O134 2.370358 1_555
Na0 O132 2.450436 1_555
Na0 O104 2.527070 1_565
Na0 O106 2.846643 1_565
Na1 O63 2.327018 1_555
Na1 O135 2.379135 1_555
Na1 O133 2.510797 1_555
Na1 O105 2.511948 1_565
Na1 O107 2.868469 1_565
Na2 O134 2.325789 1_555
Na2 O64 2.400470 1_555
Na2 O136 2.409304 1_555
Na2 O106 2.618959 1_555
Na2 O102 2.713542 1_555
Na2 O34 2.843897 1_555
Na3 O135 2.319451 1_555
Na3 O65 2.375240 1_555
Na3 O137 2.430184 1_555
Na3 O107 2.609149 1_555
Na3 O103 2.690211 1_555
Na3 O35 2.889420 1_555
Na4 O60 2.226475 1_555
Na4 O136 2.318546 1_555
Na4 O132 2.503432 1_555
Na4 O103 2.598350 1_455
Na4 O105 2.762997 1_455
Na4 O3 2.960965 1_455
Na4 O31 2.987163 1_455
Na5 O137 2.297427 1_555
Na5 O61 2.326652 1_555
Na5 O133 2.486503 1_555
Na5 O102 2.573674 1_555
Na5 O104 2.741907 1_555
Na5 O30 2.957298 1_555
Na5 O2 2.989001 1_555
Na6 O70 2.319863 1_555
Na6 O142 2.377239 1_555
Na6 O138 2.503151 1_555
Na6 O100 2.532655 1_555
Na6 O98 2.857867 1_555
Na7 O139 2.306843 1_555
Na7 O143 2.397939 1_555
Na7 O71 2.416090 1_555
Na7 O101 2.552381 1_555
Na7 O99 2.775081 1_555
Na7 O29 2.902812 1_555
Na8 O140 2.280682 1_555
Na8 O66 2.363599 1_555
Na8 O97 2.477528 1_455
Na8 O138 2.516409 1_555
Na8 O101 2.710654 1_455
Na8 O25 2.847623 1_455
Na9 O141 2.327508 1_555
Na9 O67 2.366077 1_555
Na9 O139 2.371964 1_555
Na9 O96 2.685449 1_555
Na9 O100 2.844918 1_555
Na10 O142 2.319330 1_555
Na10 O68 2.343862 1_555
Na10 O140 2.402555 1_555
Na10 O98 2.622911 1_565
Na10 O96 2.687906 1_565
Na10 O26 2.835303 1_565
Na10 O16 2.922122 1_555
Na11 O143 2.337252 1_555
Na11 O69 2.394081 1_555
Na11 O141 2.421385 1_555
Na11 O99 2.578157 1_565
Na11 O97 2.785661 1_565
Na11 O27 2.864525 1_565
Na12 O85 2.323497 1_455
Na12 O86 2.367105 1_555
Na12 O128 2.523950 1_555
Na12 O14 2.545975 1_555
Na12 O130 2.691879 1_555
Na12 O56 2.808691 1_555
Na13 O15 2.266301 1_555
Na13 O84 2.380165 1_555
Na13 O87 2.384273 1_555
Na13 O129 2.576783 1_555
Na13 O131 2.726185 1_555
Na14 O16 2.337741 1_555
Na14 O89 2.401962 1_455
Na14 O86 2.430725 1_565
Na14 O130 2.543654 1_555
Na14 O126 2.692038 1_555
Na14 O58 2.964633 1_555
Na14 O25 3.021027 1_455
Na15 O17 2.271459 1_555
Na15 O87 2.329682 1_565
Na15 O88 2.382526 1_555
Na15 O131 2.592069 1_555
Na15 O127 2.698177 1_555
Na15 O59 2.956866 1_555
Na16 O12 2.266993 1_555
Na16 O88 2.341018 1_555
Na16 O84 2.389065 1_565
Na16 O126 2.597106 1_555
Na16 O128 2.671123 1_555
Na17 O13 2.310876 1_555
Na17 O89 2.398952 1_555
Na17 O85 2.436078 1_565
Na17 O127 2.541187 1_555
Na17 O129 2.724068 1_555
Na18 O18 2.337782 1_555
Na18 O90 2.366070 1_555
Na18 O92 2.391277 1_565
Na18 O120 2.519909 1_555
Na18 O124 2.614941 1_555
Na19 O19 2.319822 1_555
Na19 O91 2.362038 1_555
Na19 O93 2.397361 1_565
Na19 O121 2.528231 1_555
Na19 O125 2.610225 1_555
Na19 O49 2.930984 1_554
Na20 O20 2.301252 1_555
Na20 O94 2.310911 1_555
Na20 O93 2.388043 1_455
Na20 O122 2.525750 1_555
Na20 O120 2.693260 1_555
Na20 O50 2.915657 1_554
Na21 O95 2.315956 1_555
Na21 O21 2.344811 1_555
Na21 O92 2.374927 1_555
Na21 O123 2.528149 1_555
Na21 O121 2.710620 1_555
Na21 O51 2.923122 1_554
Na22 O108 2.453857 1_555
Na22 O81 2.466378 1_555
Na22 O110 2.587372 1_555
Na22 O82 2.696693 1_555
Na22 O8 2.729422 1_555
Na22 O67 2.748245 1_555
Na22 O38 2.760118 1_556
Na22 O53 2.918675 1_555
Na23 O80 2.492155 1_655
Na23 O109 2.536029 1_555
Na23 O111 2.550642 1_555
Na23 O66 2.697512 1_655
Na23 O83 2.764885 1_555
Na23 O9 2.774566 1_555
Na23 O39 2.776100 1_556
Na23 O52 2.820476 1_655
Na24 O82 2.461524 1_545
Na24 O110 2.507061 1_555
Na24 O112 2.562286 1_555
Na24 O79 2.656894 1_555
Na24 O10 2.739321 1_555
Na24 O68 2.777056 1_545
Na24 O40 2.801164 1_556
Na24 O48 2.896110 1_545
Na25 O111 2.513357 1_555
Na25 O83 2.522305 1_545
Na25 O113 2.564387 1_555
Na25 O78 2.668385 1_655
Na25 O69 2.686408 1_545
Na25 O11 2.741063 1_555
Na25 O41 2.822312 1_556
Na25 O49 2.923198 1_545
Na26 O79 2.449920 1_555
Na26 O113 2.518243 1_555
Na26 O109 2.638049 1_555
Na26 O81 2.677914 1_545
Na26 O7 2.699917 1_555
Na26 O71 2.750985 1_555
Na26 O37 2.815428 1_556
Na26 O51 2.905818 1_555
Na27 O77 2.491205 1_555
Na27 O114 2.499474 1_555
Na27 O118 2.553024 1_555
Na27 O61 2.722713 1_555
Na27 O74 2.757245 1_545
Na27 O46 2.761079 1_555
Na27 O4 2.764219 1_555
Na27 O57 2.853992 1_555
Na28 O74 2.502636 1_555
Na28 O116 2.512529 1_555
Na28 O118 2.535469 1_555
Na28 O64 2.656942 1_555
Na28 O73 2.674753 1_555
Na28 O2 2.723555 1_555
Na28 O44 2.807893 1_555
Na28 O54 2.916059 1_555
Na29 O119 2.467931 1_555
Na29 O75 2.478993 1_555
Na29 O117 2.498003 1_555
Na29 O72 2.620485 1_655
Na29 O3 2.723518 1_555
Na29 O45 2.748085 1_555
Na29 O65 2.760298 1_555
Na29 O55 2.945289 1_555
Na30 O86 2.372101 1_555
Na30 O89 2.423045 1_445
Na30 O85 2.435400 1_455
Na30 O76 2.641379 1_555
Na30 O72 2.670800 1_545
Na30 O75 2.734393 1_445
Na31 O87 2.289332 1_565
Na31 O84 2.357270 1_565
Na31 O88 2.375347 1_555
Na31 O73 2.692842 1_555
Na31 O77 2.703877 1_565
Na31 O74 2.811558 1_555
Na32 O94 2.228457 1_555
Na32 O91 2.324874 1_445
Na32 O93 2.446782 1_455
Na32 O80 2.683106 1_544
Na32 O78 2.790968 1_554
Na32 O83 2.885302 1_444
Na33 O95 2.286737 1_565
Na33 O90 2.309914 1_555
Na33 O92 2.412099 1_565
Na33 O81 2.684099 1_554
Na33 O79 2.777194 1_564
Na33 O82 2.791289 1_554
Na34 O108 2.499411 1_555
Na34 O112 2.547635 1_555
Na34 O100 2.554634 1_555
Na34 O98 2.567505 1_555
Na34 O96 2.578279 1_555
Na34 O110 2.589284 1_555
Na35 O97 2.479513 1_555
Na35 O99 2.480615 1_555
Na35 O101 2.518791 1_555
Na35 O113 2.609394 1_555
Na35 O109 2.611311 1_555
Na35 O111 2.635895 1_555
Na36 O106 2.524346 1_555
Na36 O114 2.528258 1_555
Na36 O102 2.541576 1_555
Na36 O104 2.553934 1_555
Na36 O116 2.568849 1_555
Na36 O118 2.636788 1_555
Na37 O115 2.454511 1_555
Na37 O105 2.515099 1_555
Na37 O119 2.523843 1_555
Na37 O117 2.613895 1_555
Na37 O103 2.635942 1_555
Na37 O107 2.651273 1_555
Na38 O134 2.371210 1_555
Na38 O136 2.409804 1_555
Na38 O132 2.609348 1_555
Na38 O122 2.650610 1_555
Na38 O120 2.663028 1_555
Na38 O124 2.679697 1_555
Na39 O135 2.359292 1_555
Na39 O137 2.401860 1_555
Na39 O133 2.635527 1_555
Na39 O125 2.644728 1_555
Na39 O121 2.662213 1_555
Na39 O123 2.677251 1_555
Na40 O142 2.331873 1_555
Na40 O140 2.373472 1_555
Na40 O126 2.609920 1_555
Na40 O138 2.674776 1_555
Na40 O130 2.685597 1_555
Na40 O128 2.706941 1_555
Na41 O143 2.341022 1_555
Na41 O139 2.355938 1_555
Na41 O141 2.366706 1_555
Na41 O131 2.738222 1_555
Na41 O129 2.783768 1_555
Na41 O127 2.793056 1_555
O0 S0 1.511551 1_555
O0 Ta0 2.230665 1_445
O1 S1 1.524507 1_555
O1 Ta1 2.170295 1_545
O2 Si0 1.713049 1_555
O2 Ta1 1.962390 1_555
O3 Si1 1.695747 1_555
O3 Ta0 1.990671 1_555
O4 Si3 1.710390 1_555
O4 Ta1 1.960016 1_545
O5 Si2 1.698745 1_655
O5 Ta0 1.940208 1_545
O6 S2 1.512119 1_555
O6 Ta2 2.171216 1_445
O7 Si4 1.700927 1_555
O7 Ta3 1.954522 1_545
O8 Si6 1.696994 1_555
O8 Ta3 1.959520 1_555
O9 Si5 1.707576 1_655
O9 Ta2 1.956588 1_555
O10 Si7 1.698039 1_545
O10 Ta3 1.957909 1_545
O11 Si8 1.708696 1_555
O11 Ta2 1.949055 1_545
O12 Si7 1.598146 1_555
O12 Zn1 2.001517 1_555
O13 Si8 1.598122 1_565
O13 Zn0 1.969558 1_555
O14 S2 1.454148 1_555
O14 Zn0 2.282134 1_445
O15 Si4 1.598256 1_555
O15 Zn1 1.980675 1_545
O16 Si5 1.604821 1_555
O16 Zn0 1.983331 1_455
O17 Si6 1.595567 1_555
O17 Zn1 1.987364 1_555
O18 Si0 1.595931 1_555
O18 Zn3 2.009525 1_565
O19 Si1 1.599851 1_555
O19 Zn2 2.007849 1_565
O20 Si2 1.599322 1_555
O20 Zn2 2.016817 1_455
O21 Si3 1.599135 1_555
O21 Zn3 2.020078 1_555
O22 S0 1.445315 1_565
O22 Zn2 2.192697 1_465
O23 S1 1.441452 1_565
O23 Zn3 2.203074 1_565
O24 Si9 1.702292 1_555
O24 Ta4 1.891179 1_555
O25 Si10 1.669856 1_555
O25 Ta5 1.982328 1_555
O26 Si11 1.677951 1_555
O26 Ta4 1.971121 1_555
O27 Si12 1.676846 1_555
O27 Ta5 1.968204 1_555
O28 Si13 1.683627 1_555
O28 Ta4 1.971289 1_555
O29 Si14 1.673221 1_555
O29 Ta5 1.978763 1_555
O30 Si15 1.702695 1_555
O30 Ta6 1.899345 1_555
O31 Si16 1.703272 1_555
O31 Ta7 1.895018 1_555
O32 Si17 1.674659 1_555
O32 Ta6 1.954136 1_555
O33 Si18 1.665825 1_555
O33 Ta7 1.963808 1_555
O34 Si19 1.681308 1_555
O34 Ta6 1.954339 1_555
O35 Si20 1.678048 1_555
O35 Ta7 1.961192 1_555
O36 Si19 1.646479 1_555
O36 Ta8 1.889655 1_554
O37 Si20 1.654911 1_555
O37 Ta9 1.923139 1_554
O38 Si15 1.647318 1_555
O38 Ta8 1.958618 1_554
O39 Si16 1.659622 1_555
O39 Ta9 1.936287 1_554
O40 Si17 1.640493 1_555
O40 Ta8 1.938310 1_554
O41 Si18 1.652703 1_555
O41 Ta9 1.913589 1_554
O42 Si11 1.644127 1_555
O42 Ta10 1.909819 1_555
O43 Si12 1.631491 1_555
O43 Ta11 1.919852 1_555
O44 Si13 1.646251 1_555
O44 Ta10 1.944554 1_555
O45 Si14 1.631209 1_555
O45 Ta11 1.975727 1_555
O46 Si9 1.635085 1_555
O46 Ta10 1.960014 1_555
O47 Si10 1.637765 1_555
O47 Ta11 1.930224 1_555
O48 Si21 1.671275 1_555
O48 Ta12 1.979128 1_556
O49 Si22 1.654165 1_555
O49 Ta13 2.010993 1_556
O50 Si23 1.655451 1_555
O50 Ta12 1.981293 1_556
O51 Si24 1.673731 1_555
O51 Ta13 1.994157 1_556
O52 Si25 1.669757 1_555
O52 Ta12 1.976305 1_556
O53 Si26 1.674242 1_555
O53 Ta13 1.961796 1_556
O54 Si27 1.667054 1_555
O54 Ta14 1.977964 1_555
O55 Si28 1.672579 1_555
O55 Ta15 1.955190 1_555
O56 Si29 1.678199 1_555
O56 Ta14 1.964881 1_555
O57 Si30 1.683205 1_555
O57 Ta15 1.989201 1_555
O58 Si31 1.680812 1_555
O58 Ta14 1.928262 1_555
O59 Si32 1.665788 1_555
O59 Ta15 1.960567 1_555
O60 Si31 1.588137 1_555
O60 Zn4 1.999669 1_555
O61 Si32 1.598886 1_555
O61 Zn5 2.049670 1_555
O62 Si27 1.584770 1_555
O62 Zn4 2.048483 1_555
O63 Si28 1.587989 1_555
O63 Zn5 2.019663 1_555
O64 Si29 1.601954 1_555
O64 Zn4 1.990599 1_555
O65 Si30 1.601477 1_555
O65 Zn5 1.987631 1_555
O66 Si23 1.603005 1_555
O66 Zn6 2.045752 1_555
O67 Si24 1.598195 1_555
O67 Zn7 2.063537 1_555
O68 Si25 1.601933 1_555
O68 Zn6 1.996862 1_555
O69 Si26 1.599070 1_555
O69 Zn7 2.077877 1_555
O70 Si21 1.593589 1_555
O70 Zn6 2.022299 1_555
O71 Si22 1.591111 1_555
O71 Zn7 2.065664 1_555
O72 Si31 1.667897 1_555
O72 Ta0 2.023768 1_455
O73 Si32 1.656077 1_555
O73 Ta1 2.009319 1_555
O74 Si27 1.702624 1_555
O74 Ta1 1.953474 1_555
O75 Si28 1.689544 1_555
O75 Ta0 1.934690 1_555
O76 Si29 1.639738 1_555
O76 Ta0 1.989853 1_445
O77 Si30 1.659691 1_555
O77 Ta1 2.018664 1_545
O78 Si23 1.656930 1_555
O78 Ta2 2.002146 1_445
O79 Si24 1.664715 1_555
O79 Ta3 2.066313 1_545
O80 Si25 1.656967 1_555
O80 Ta2 2.018477 1_455
O81 Si26 1.656847 1_555
O81 Ta3 2.086185 1_555
O82 Si21 1.680832 1_555
O82 Ta3 2.044394 1_555
O83 Si22 1.679019 1_555
O83 Ta2 1.953317 1_555
O84 Si9 1.587866 1_555
O84 Zn1 2.326755 1_545
O85 Si10 1.601384 1_555
O85 Zn0 2.239046 1_545
O86 Si11 1.597701 1_555
O86 Zn0 2.218852 1_445
O87 Si12 1.593790 1_555
O87 Zn1 2.305331 1_545
O88 Si13 1.595719 1_555
O88 Zn1 2.301555 1_555
O89 Si14 1.607185 1_555
O89 Zn0 2.118986 1_555
O90 Si15 1.579987 1_555
O90 Zn3 2.182045 1_565
O91 Si16 1.579704 1_555
O91 Zn2 2.202491 1_565
O92 Si17 1.603147 1_555
O92 Zn3 2.170496 1_555
O93 Si18 1.600088 1_555
O93 Zn2 2.187527 1_555
O94 Si19 1.579196 1_555
O94 Zn2 2.152310 1_455
O95 Si20 1.583849 1_555
O95 Zn3 2.167669 1_555
O96 Si7 1.700554 1_545
O96 Ta4 2.013609 1_555
O97 Si8 1.685849 1_555
O97 Ta5 2.043491 1_555
O98 S2 1.529301 1_555
O98 Ta4 2.270681 1_555
O99 Si4 1.685770 1_555
O99 Ta5 2.021727 1_555
O100 Si6 1.707172 1_555
O100 Ta4 2.007357 1_555
O101 Si5 1.680697 1_655
O101 Ta5 2.050301 1_555
O102 Si0 1.703894 1_555
O102 Ta6 2.040052 1_555
O103 Si1 1.710109 1_555
O103 Ta7 2.017677 1_555
O104 Si3 1.702602 1_555
O104 Ta6 2.043078 1_555
O105 Si2 1.707400 1_655
O105 Ta7 2.030804 1_555
O106 S0 1.539724 1_555
O106 Ta6 2.231023 1_555
O107 S1 1.533633 1_555
O107 Ta7 2.260315 1_555
O108 Si21 1.658102 1_555
O108 Ta8 2.032987 1_555
O109 Si22 1.655288 1_555
O109 Ta9 2.045108 1_555
O110 Si24 1.656072 1_555
O110 Ta8 2.064969 1_555
O111 Si23 1.681793 1_655
O111 Ta9 2.048177 1_555
O112 Si25 1.641847 1_545
O112 Ta8 1.991017 1_555
O113 Si26 1.667118 1_545
O113 Ta9 2.036698 1_555
O114 Si27 1.648836 1_545
O114 Ta10 2.034770 1_555
O115 Si28 1.633967 1_545
O115 Ta11 1.987605 1_555
O116 Si29 1.663596 1_555
O116 Ta10 1.973271 1_555
O117 Si30 1.635408 1_555
O117 Ta11 2.018277 1_555
O118 Si32 1.672414 1_555
O118 Ta10 2.049690 1_555
O119 Si31 1.661822 1_655
O119 Ta11 2.027247 1_555
O120 Si19 1.669682 1_555
O120 Ta12 2.055174 1_555
O121 Si20 1.671780 1_555
O121 Ta13 2.052485 1_555
O122 Si16 1.642852 1_455
O122 Ta12 2.037164 1_555
O123 Si15 1.652055 1_555
O123 Ta13 2.014255 1_555
O124 Si17 1.649692 1_565
O124 Ta12 2.007514 1_555
O125 Si18 1.649152 1_565
O125 Ta13 2.007096 1_555
O126 Si11 1.653928 1_565
O126 Ta14 2.072302 1_555
O127 Si12 1.664312 1_565
O127 Ta15 2.036959 1_555
O128 Si13 1.657239 1_555
O128 Ta14 2.083649 1_555
O129 Si14 1.659939 1_555
O129 Ta15 2.042936 1_555
O130 Si10 1.662972 1_455
O130 Ta14 2.038774 1_555
O131 Si9 1.647797 1_555
O131 Ta15 2.049279 1_555
O132 S0 1.463251 1_565
O132 Zn4 2.520039 1_555
O133 S1 1.459644 1_565
O133 Zn5 2.502431 1_555
O134 Si0 1.616259 1_555
O134 Zn4 2.266155 1_555
O135 Si1 1.619980 1_555
O135 Zn5 2.233338 1_555
O136 Si2 1.618061 1_555
O136 Zn4 2.204523 1_555
O137 Si3 1.618746 1_555
O137 Zn5 2.224482 1_555
O138 S2 1.458779 1_555
O138 Zn6 2.509835 1_555
O139 Si4 1.607299 1_555
O139 Zn7 2.202348 1_555
O140 Si5 1.617036 1_555
O140 Zn6 2.228058 1_555
O141 Si6 1.604854 1_555
O141 Zn7 2.200523 1_555
O142 Si7 1.614107 1_555
O142 Zn6 2.212519 1_555
O143 Si8 1.608535 1_565
O143 Zn7 2.215096 1_555
