# generated using pymatgen
data_MgV2(OF3)2
_symmetry_space_group_name_H-M   'P 1'
_cell_length_a   4.80269876
_cell_length_b   7.43798596
_cell_length_c   4.66564736
_cell_angle_alpha   70.84110393
_cell_angle_beta   90.01327979
_cell_angle_gamma   71.00152018
_symmetry_Int_Tables_number   1
_chemical_formula_structural   MgV2(OF3)2
_chemical_formula_sum   'Mg1 V2 O2 F6'
_cell_volume   147.78720187
_cell_formula_units_Z   1
loop_
 _symmetry_equiv_pos_site_id
 _symmetry_equiv_pos_as_xyz
  1  'x, y, z'
loop_
 _atom_site_type_symbol
 _atom_site_label
 _atom_site_symmetry_multiplicity
 _atom_site_fract_x
 _atom_site_fract_y
 _atom_site_fract_z
 _atom_site_occupancy
  Mg  Mg0  1  0.29065500  0.99895700  0.75022900  1
  V  V0  1  0.03236800  0.39142300  0.03085900  1
  V  V1  1  0.42375500  0.60709600  0.46774500  1
  O  O0  1  0.16987600  0.58999100  0.71694700  1
  O  O1  1  0.76143900  0.40831500  0.78145400  1
  F  F0  1  0.34829100  0.17594600  0.94611200  1
  F  F1  1  0.34775800  0.40553700  0.31114900  1
  F  F2  1  0.18408000  0.82236000  0.09957200  1
  F  F3  1  0.52376700  0.82180400  0.55305100  1
  F  F4  1  0.75294100  0.59348900  0.18642100  1
  F  F5  1  0.00874100  0.17714200  0.39927600  1
loop_
_geom_bond_atom_site_label_1
_geom_bond_atom_site_label_2
_geom_bond_distance
_geom_bond_site_symmetry_2
O0 V1 1.690946 1_555
O0 V0 1.994554 1_556
O1 V0 1.691101 1_656
O1 V1 1.993939 1_555
F0 Mg0 1.916178 1_545
F0 V0 1.964720 1_556
F1 V1 1.997426 1_555
F1 V0 2.051415 1_555
F2 Mg0 1.917503 1_554
F2 V1 1.957846 1_555
F3 Mg0 1.916153 1_555
F3 V1 1.963688 1_555
F4 V0 1.997470 1_655
F4 V1 2.053420 1_555
F5 Mg0 1.917565 1_545
F5 V0 1.956369 1_555
