# generated using pymatgen
data_Na2Eu2MgTi3O10
_symmetry_space_group_name_H-M   'P 1'
_cell_length_a   3.89889204
_cell_length_b   3.89889116
_cell_length_c   16.08908518
_cell_angle_alpha   96.95937689
_cell_angle_beta   96.95937237
_cell_angle_gamma   90.00000050
_symmetry_Int_Tables_number   1
_chemical_formula_structural   Na2Eu2MgTi3O10
_chemical_formula_sum   'Na2 Eu2 Mg1 Ti3 O10'
_cell_volume   240.95851412
_cell_formula_units_Z   1
loop_
 _symmetry_equiv_pos_site_id
 _symmetry_equiv_pos_as_xyz
  1  'x, y, z'
loop_
 _atom_site_type_symbol
 _atom_site_label
 _atom_site_symmetry_multiplicity
 _atom_site_fract_x
 _atom_site_fract_y
 _atom_site_fract_z
 _atom_site_occupancy
  Na  Na0  1  0.28548100  0.28548100  0.57096100  1
  Na  Na1  1  0.71451900  0.71451900  0.42903900  1
  Eu  Eu0  1  0.40372500  0.40372500  0.80745000  1
  Eu  Eu1  1  0.59627600  0.59627600  0.19255000  1
  Mg  Mg0  1  0.50000000  0.50000000  0.00000000  1
  Ti  Ti0  1  0.15750000  0.15750000  0.31500100  1
  Ti  Ti1  1  0.84250000  0.84250000  0.68499900  1
  Ti  Ti2  1  0.00000000  0.00000000  0.00000000  1
  O  O0  1  0.85649800  0.35649800  0.71299800  1
  O  O1  1  0.35649800  0.85649800  0.71299800  1
  O  O2  1  0.14350200  0.64350200  0.28700200  1
  O  O3  1  0.64350200  0.14350200  0.28700200  1
  O  O4  1  0.78743100  0.78743100  0.57486200  1
  O  O5  1  0.21256900  0.21256900  0.42513800  1
  O  O6  1  0.93700800  0.93700800  0.87401700  1
  O  O7  1  0.50000000  0.00000000  0.00000000  1
  O  O8  1  0.00000000  0.50000000  0.00000000  1
  O  O9  1  0.06299200  0.06299200  0.12598300  1
loop_
_geom_bond_atom_site_label_1
_geom_bond_atom_site_label_2
_geom_bond_distance
_geom_bond_site_symmetry_2
Na0 O5 2.311458 1_555
Na0 O4 2.757623 1_555
Na0 O4 2.757626 1_455
Na0 O4 2.757626 1_545
Na0 O4 2.757629 1_445
Na1 O4 2.311458 1_555
Na1 O5 2.757623 1_555
Na1 O5 2.757626 1_655
Na1 O5 2.757626 1_565
Na1 O5 2.757629 1_665
Eu0 O1 2.458015 1_555
Eu0 O0 2.458016 1_555
Eu0 O1 2.458022 1_545
Eu0 O0 2.458022 1_455
Eu0 O6 2.951954 1_555
Eu0 O6 2.951956 1_455
Eu0 O6 2.951956 1_545
Eu0 O6 2.951958 1_445
Eu1 O3 2.458019 1_555
Eu1 O2 2.458019 1_555
Eu1 O3 2.458019 1_565
Eu1 O2 2.458019 1_655
Eu1 O9 2.951953 1_665
Eu1 O9 2.951956 1_655
Eu1 O9 2.951956 1_565
Eu1 O9 2.951959 1_555
Mg0 O7 1.949446 1_555
Mg0 O7 1.949446 1_565
Mg0 O8 1.949446 1_555
Mg0 O8 1.949446 1_655
O0 Ti1 1.999322 1_545
O0 Ti1 1.999333 1_555
O1 Ti1 1.999322 1_455
O1 Ti1 1.999333 1_555
O2 Ti0 1.999322 1_565
O2 Ti0 1.999333 1_555
O3 Ti0 1.999322 1_655
O3 Ti0 1.999333 1_555
O4 Ti1 1.745795 1_555
O5 Ti0 1.745795 1_555
O6 Ti2 1.996972 1_666
O7 Ti2 1.949446 1_555
O7 Ti2 1.949446 1_655
O8 Ti2 1.949446 1_555
O8 Ti2 1.949446 1_565
O9 Ti2 1.996972 1_555
