# generated using pymatgen
data_Na2Mg(CuO2)2
_symmetry_space_group_name_H-M   'P 1'
_cell_length_a   2.88935841
_cell_length_b   5.43493280
_cell_length_c   8.40993482
_cell_angle_alpha   84.04173544
_cell_angle_beta   90.03653564
_cell_angle_gamma   105.43451279
_symmetry_Int_Tables_number   1
_chemical_formula_structural   Na2Mg(CuO2)2
_chemical_formula_sum   'Na2 Mg1 Cu2 O4'
_cell_volume   126.56436234
_cell_formula_units_Z   1
loop_
 _symmetry_equiv_pos_site_id
 _symmetry_equiv_pos_as_xyz
  1  'x, y, z'
loop_
 _atom_site_type_symbol
 _atom_site_label
 _atom_site_symmetry_multiplicity
 _atom_site_fract_x
 _atom_site_fract_y
 _atom_site_fract_z
 _atom_site_occupancy
  Na  Na0  1  0.61316597  0.22907345  0.37114343  1
  Na  Na1  1  0.39778537  0.79845768  0.82968603  1
  Mg  Mg0  1  0.87014485  0.74282345  0.16055583  1
  Cu  Cu0  1  0.13572547  0.27428021  0.02460048  1
  Cu  Cu1  1  0.86983790  0.73671003  0.47307932  1
  O  O0  1  0.50535479  0.01349826  0.08468744  1
  O  O1  1  0.75966625  0.52200532  0.98050436  1
  O  O2  1  0.29273085  0.58670617  0.33001160  1
  O  O3  1  0.45142156  0.89852844  0.56935550  1
loop_
_geom_bond_atom_site_label_1
_geom_bond_atom_site_label_2
_geom_bond_distance
_geom_bond_site_symmetry_2
Na0 O3 2.270882 1_545
Na0 O2 2.360666 1_555
Na0 O2 2.362813 1_655
Na0 O0 2.768426 1_555
Na1 O3 2.195789 1_555
Na1 O1 2.323454 1_555
Na1 O1 2.323471 1_455
Na1 O0 2.527401 1_566
Mg0 O1 2.001956 1_554
Mg0 O0 2.075872 1_665
Mg0 O0 2.076480 1_565
Mg0 O2 2.129039 1_555
Mg0 O2 2.130705 1_655
Cu0 O1 1.950737 1_454
Cu0 O1 1.950778 1_554
Cu0 O0 2.014942 1_455
Cu0 O0 2.015221 1_555
Cu1 O3 1.898852 1_555
Cu1 O3 1.900598 1_655
Cu1 O2 2.083526 1_655
Cu1 O2 2.090520 1_555
