# generated using pymatgen
data_MgV6O5F19
_symmetry_space_group_name_H-M   'P 1'
_cell_length_a   5.49603819
_cell_length_b   5.41278814
_cell_length_c   15.52511608
_cell_angle_alpha   88.95933397
_cell_angle_beta   100.28044565
_cell_angle_gamma   91.64498018
_symmetry_Int_Tables_number   1
_chemical_formula_structural   MgV6O5F19
_chemical_formula_sum   'Mg1 V6 O5 F19'
_cell_volume   454.21315732
_cell_formula_units_Z   1
loop_
 _symmetry_equiv_pos_site_id
 _symmetry_equiv_pos_as_xyz
  1  'x, y, z'
loop_
 _atom_site_type_symbol
 _atom_site_label
 _atom_site_symmetry_multiplicity
 _atom_site_fract_x
 _atom_site_fract_y
 _atom_site_fract_z
 _atom_site_occupancy
  Mg  Mg0  1  0.33011600  0.25536300  0.18200700  1
  V  V0  1  0.04720700  0.94308500  0.98699400  1
  V  V1  1  0.14045700  0.47679100  0.34901200  1
  V  V2  1  0.26383000  0.03875700  0.66582300  1
  V  V3  1  0.53331400  0.46498900  0.98215400  1
  V  V4  1  0.67779100  0.99458400  0.34947200  1
  V  V5  1  0.77060000  0.48889900  0.66564500  1
  O  O0  1  0.02262600  0.21814800  0.64803800  1
  O  O1  1  0.52408600  0.30163400  0.64653300  1
  O  O2  1  0.73691800  0.25567800  0.97908600  1
  O  O3  1  0.27115900  0.73814500  0.00432100  1
  O  O4  1  0.88461400  0.28137600  0.33581200  1
  F  F0  1  0.24891300  0.24768900  0.96320000  1
  F  F1  1  0.12910100  0.74105100  0.69023100  1
  F  F2  1  0.08466700  0.06951100  0.10820800  1
  F  F3  1  0.25397500  0.48559500  0.46386700  1
  F  F4  1  0.39583400  0.08394100  0.77699000  1
  F  F5  1  0.14536600  0.51619600  0.22343600  1
  F  F6  1  0.29324800  0.94892700  0.55872500  1
  F  F7  1  0.47238200  0.57103600  0.87315100  1
  F  F8  1  0.37171300  0.20670000  0.32732600  1
  F  F9  1  0.46558900  0.70697200  0.34781400  1
  F  F10  1  0.63451700  0.77493000  0.68607600  1
  F  F11  1  0.52642400  0.41625600  0.10633400  1
  F  F12  1  0.69826400  0.03881600  0.46131100  1
  F  F13  1  0.89468900  0.42877400  0.77667800  1
  F  F14  1  0.58589400  0.00150100  0.22597100  1
  F  F15  1  0.81383200  0.57418100  0.55810500  1
  F  F16  1  0.90538300  0.93601300  0.87332200  1
  F  F17  1  0.76650800  0.72891700  0.01716300  1
  F  F18  1  0.95621900  0.79054200  0.35023500  1
loop_
_geom_bond_atom_site_label_1
_geom_bond_atom_site_label_2
_geom_bond_distance
_geom_bond_site_symmetry_2
O0 V2 1.646207 1_555
O0 V5 2.099364 1_455
O1 V5 1.655200 1_555
O1 V2 2.044718 1_555
O2 V3 1.622290 1_555
O2 V0 2.422721 1_645
O3 V0 1.663508 1_554
O3 V3 2.167538 1_554
O4 V1 1.719774 1_655
O4 V4 1.928634 1_545
F0 V3 1.912092 1_555
F0 V0 2.025568 1_545
F1 V2 1.816050 1_565
F1 V5 2.342393 1_455
F2 Mg0 1.885943 1_555
F2 V0 1.988084 1_544
F3 V1 1.781963 1_555
F4 V2 1.767215 1_555
F5 Mg0 1.945865 1_555
F5 V1 1.962251 1_555
F6 V2 1.776794 1_565
F7 V3 1.754688 1_555
F8 V1 2.035522 1_555
F8 V4 2.038723 1_545
F8 Mg0 2.238164 1_555
F9 V4 1.915965 1_555
F9 V1 2.151513 1_555
F10 V5 1.796104 1_555
F10 V2 2.492162 1_565
F11 Mg0 1.914168 1_555
F11 V3 1.948040 1_554
F12 V4 1.740283 1_545
F13 V5 1.765012 1_555
F14 V4 1.893573 1_545
F14 Mg0 2.016075 1_555
F15 V5 1.778852 1_555
F16 V0 1.798111 1_655
F17 V3 1.911368 1_554
F17 V0 2.019595 1_654
F18 V4 1.910935 1_555
F18 V1 2.004134 1_655
