# generated using pymatgen
data_MgCo6(O5F)2
_symmetry_space_group_name_H-M   'P 1'
_cell_length_a   4.89290694
_cell_length_b   13.72919495
_cell_length_c   2.91044871
_cell_angle_alpha   89.99146098
_cell_angle_beta   90.00056594
_cell_angle_gamma   99.73960159
_symmetry_Int_Tables_number   1
_chemical_formula_structural   MgCo6(O5F)2
_chemical_formula_sum   'Mg1 Co6 O10 F2'
_cell_volume   192.69340062
_cell_formula_units_Z   1
loop_
 _symmetry_equiv_pos_site_id
 _symmetry_equiv_pos_as_xyz
  1  'x, y, z'
loop_
 _atom_site_type_symbol
 _atom_site_label
 _atom_site_symmetry_multiplicity
 _atom_site_fract_x
 _atom_site_fract_y
 _atom_site_fract_z
 _atom_site_occupancy
  Mg  Mg0  1  0.87922809  0.82224481  0.99118303  1
  Co  Co0  1  0.95245812  0.01788538  0.99159086  1
  Co  Co1  1  0.02369027  0.34380884  0.99108952  1
  Co  Co2  1  0.16505522  0.62158648  0.99073421  1
  Co  Co3  1  0.51633148  0.16351912  0.49148597  1
  Co  Co4  1  0.59322886  0.48964649  0.49099802  1
  Co  Co5  1  0.39515753  0.85367133  0.49131123  1
  O  O0  1  0.06897054  0.93259311  0.49155111  1
  O  O1  1  0.34307323  0.57750378  0.49085945  1
  O  O2  1  0.22199836  0.76863364  0.99143042  1
  O  O3  1  0.31106759  0.10015281  0.99166845  1
  O  O4  1  0.38875423  0.42442817  0.99122413  1
  O  O5  1  0.78981929  0.55918930  0.99076652  1
  O  O6  1  0.68923965  0.23600958  0.99124818  1
  O  O7  1  0.60290469  0.91770973  0.99129667  1
  O  O8  1  0.81549876  0.07975642  0.49152856  1
  O  O9  1  0.85919478  0.40446369  0.49105539  1
  F  F0  1  0.17599947  0.26539526  0.49111448  1
  F  F1  1  0.69444285  0.75050606  0.49119679  1
loop_
_geom_bond_atom_site_label_1
_geom_bond_atom_site_label_2
_geom_bond_distance
_geom_bond_site_symmetry_2
Mg0 O2 1.942221 1_655
Mg0 O7 2.036012 1_555
Mg0 O0 2.189787 1_655
Mg0 O0 2.191498 1_656
Co0 O8 1.865678 1_556
Co0 O8 1.865753 1_555
Co0 O3 1.919358 1_655
Co0 O7 2.005219 1_545
Co0 O0 2.009703 1_646
Co0 O0 2.010131 1_645
Co1 O9 1.919795 1_455
Co1 O9 1.919845 1_456
Co1 O4 1.935657 1_555
Co1 O6 2.012182 1_455
Co1 F0 2.025634 1_556
Co1 F0 2.025771 1_555
Co2 O1 1.849390 1_555
Co2 O1 1.849808 1_556
Co2 O5 1.890131 1_455
Co2 O2 1.990737 1_555
Co3 O6 1.880808 1_555
Co3 O6 1.881663 1_554
Co3 O3 1.893778 1_554
Co3 O3 1.894410 1_555
Co3 O8 2.008666 1_555
Co3 F0 2.348885 1_555
Co4 O1 1.858121 1_555
Co4 O9 1.891068 1_555
Co4 O4 1.901503 1_554
Co4 O4 1.902321 1_555
Co4 O5 1.908456 1_555
Co4 O5 1.909281 1_554
Co5 O7 1.902974 1_554
Co5 O7 1.903094 1_555
Co5 O2 1.965544 1_554
Co5 O2 1.965813 1_555
Co5 O0 2.075179 1_555
Co5 F1 2.202787 1_555
F1 Mg0 1.898321 1_554
F1 Mg0 1.898471 1_555
