# generated using pymatgen
data_LaCO
_symmetry_space_group_name_H-M   'P 1'
_cell_length_a   4.07349982
_cell_length_b   4.07349982
_cell_length_c   7.36727298
_cell_angle_alpha   85.39026449
_cell_angle_beta   85.39026449
_cell_angle_gamma   58.98987454
_symmetry_Int_Tables_number   1
_chemical_formula_structural   LaCO
_chemical_formula_sum   'La2 C2 O2'
_cell_volume   104.32835399
_cell_formula_units_Z   2
loop_
 _symmetry_equiv_pos_site_id
 _symmetry_equiv_pos_as_xyz
  1  'x, y, z'
loop_
 _atom_site_type_symbol
 _atom_site_label
 _atom_site_symmetry_multiplicity
 _atom_site_fract_x
 _atom_site_fract_y
 _atom_site_fract_z
 _atom_site_occupancy
  La  La0  1  0.68356700  0.68356700  0.29245500  1
  La  La1  1  0.31643300  0.31643300  0.70754500  1
  C  C0  1  0.96075200  0.96075200  0.92668300  1
  C  C1  1  0.03924800  0.03924800  0.07331700  1
  O  O0  1  0.34735200  0.34735200  0.37930200  1
  O  O1  1  0.65264800  0.65264800  0.62069800  1
loop_
_geom_bond_atom_site_label_1
_geom_bond_atom_site_label_2
_geom_bond_distance
_geom_bond_site_symmetry_2
La0 O1 2.407928 1_555
La0 O0 2.410775 1_555
La0 O0 2.432660 1_655
La0 O0 2.432660 1_565
La1 O0 2.407928 1_555
La1 O1 2.410775 1_555
La1 O1 2.432660 1_455
La1 O1 2.432660 1_545
C0 C1 1.260123 1_666
C0 La1 2.825103 1_565
C0 La1 2.825103 1_655
C0 La1 2.866339 1_665
C1 La0 2.825103 1_545
C1 La0 2.825103 1_455
C1 La0 2.866339 1_445
