# generated using pymatgen
data_Na10Mg3Sn5(PO4)12
_symmetry_space_group_name_H-M   'P 1'
_cell_length_a   17.78112019
_cell_length_b   8.89972919
_cell_length_c   22.30206828
_cell_angle_alpha   89.99190357
_cell_angle_beta   89.95963010
_cell_angle_gamma   120.03658939
_symmetry_Int_Tables_number   1
_chemical_formula_structural   Na10Mg3Sn5(PO4)12
_chemical_formula_sum   'Na30 Mg9 Sn15 P36 O144'
_cell_volume   3055.28171747
_cell_formula_units_Z   3
loop_
 _symmetry_equiv_pos_site_id
 _symmetry_equiv_pos_as_xyz
  1  'x, y, z'
loop_
 _atom_site_type_symbol
 _atom_site_label
 _atom_site_symmetry_multiplicity
 _atom_site_fract_x
 _atom_site_fract_y
 _atom_site_fract_z
 _atom_site_occupancy
  Na  Na0  1  0.32139447  0.00968038  0.24931588  1
  Na  Na1  1  0.68475383  0.35740793  0.24912834  1
  Na  Na2  1  0.31839248  0.62621293  0.74980092  1
  Na  Na3  1  0.81834359  0.62591203  0.74956228  1
  Na  Na4  1  0.15400497  0.34590161  0.57827485  1
  Na  Na5  1  0.65418903  0.34613080  0.57769685  1
  Na  Na6  1  0.01803344  0.69209806  0.57872380  1
  Na  Na7  1  0.51868332  0.69256774  0.57899388  1
  Na  Na8  1  0.32700669  0.96214334  0.57856790  1
  Na  Na9  1  0.82747372  0.96433529  0.57847889  1
  Na  Na10  1  0.15401810  0.96246004  0.07834422  1
  Na  Na11  1  0.65436767  0.96398318  0.07965924  1
  Na  Na12  1  0.32733219  0.69096332  0.07967297  1
  Na  Na13  1  0.82728502  0.69169511  0.07850560  1
  Na  Na14  1  0.01780905  0.34528104  0.07888679  1
  Na  Na15  1  0.51819316  0.34463163  0.07984708  1
  Na  Na16  1  0.66153819  0.02863447  0.40982575  1
  Na  Na17  1  0.35193489  0.67575661  0.40914723  1
  Na  Na18  1  0.00024163  0.99833220  0.49348204  1
  Na  Na19  1  0.49922322  0.01758761  0.48846264  1
  Na  Na20  1  0.00009376  0.00018354  0.99480813  1
  Na  Na21  1  0.50009245  0.99959253  0.99537908  1
  Na  Na22  1  0.33390223  0.31747299  0.83063532  1
  Na  Na23  1  0.83391350  0.31762663  0.83059706  1
  Na  Na24  1  0.33507603  0.33817987  0.32510631  1
  Na  Na25  1  0.84645893  0.34360845  0.32569993  1
  Na  Na26  1  0.16111460  0.65103006  0.16658187  1
  Na  Na27  1  0.66519056  0.68050135  0.16633591  1
  Na  Na28  1  0.16016290  0.66789984  0.66732756  1
  Na  Na29  1  0.66047890  0.66772117  0.66741717  1
  Mg  Mg0  1  0.49917976  0.00561785  0.35084199  1
  Mg  Mg1  1  0.33365934  0.32715365  0.68790745  1
  Mg  Mg2  1  0.83372138  0.32716733  0.68774846  1
  Mg  Mg3  1  0.33391440  0.34174033  0.18677784  1
  Mg  Mg4  1  0.83577903  0.33009586  0.18712922  1
  Mg  Mg5  1  0.16665153  0.66697904  0.01475347  1
  Mg  Mg6  1  0.66650460  0.66651915  0.01474332  1
  Mg  Mg7  1  0.16439775  0.66493591  0.51505593  1
  Mg  Mg8  1  0.66805441  0.66567853  0.51521106  1
  Sn  Sn0  1  0.00038983  0.99918168  0.35178190  1
  Sn  Sn1  1  0.00152523  0.00298775  0.85385890  1
  Sn  Sn2  1  0.50151651  0.00310447  0.85383355  1
  Sn  Sn3  1  0.00158149  0.00372859  0.65271563  1
  Sn  Sn4  1  0.50177989  0.00272504  0.65189847  1
  Sn  Sn5  1  0.99976000  0.99955363  0.15241726  1
  Sn  Sn6  1  0.50031862  0.99771080  0.15323116  1
  Sn  Sn7  1  0.33319384  0.33422402  0.98056031  1
  Sn  Sn8  1  0.83347712  0.33436966  0.98062657  1
  Sn  Sn9  1  0.33252290  0.32510241  0.48139363  1
  Sn  Sn10  1  0.83603128  0.33970586  0.48100795  1
  Sn  Sn11  1  0.16379235  0.66146502  0.31675495  1
  Sn  Sn12  1  0.66528435  0.66717584  0.31760999  1
  Sn  Sn13  1  0.16443172  0.66736381  0.81899534  1
  Sn  Sn14  1  0.66441488  0.66720789  0.81905969  1
  P  P0  1  0.14862567  0.99836570  0.25044247  1
  P  P1  1  0.64888051  0.99709997  0.25245465  1
  P  P2  1  0.35038385  0.70273988  0.25397038  1
  P  P3  1  0.85047060  0.70226087  0.25079826  1
  P  P4  1  0.00052221  0.29650088  0.25087289  1
  P  P5  1  0.50114499  0.29800997  0.25057429  1
  P  P6  1  0.14878444  0.30003662  0.75078006  1
  P  P7  1  0.64868958  0.29966273  0.75069901  1
  P  P8  1  0.00158041  0.70499357  0.75000548  1
  P  P9  1  0.50157114  0.70509848  0.74992582  1
  P  P10  1  0.35115522  0.99771116  0.75139186  1
  P  P11  1  0.85092908  0.99763914  0.75157361  1
  P  P12  1  0.47941408  0.33180497  0.58578278  1
  P  P13  1  0.97909856  0.33232118  0.58527556  1
  P  P14  1  0.18617314  0.04133033  0.58558681  1
  P  P15  1  0.68678624  0.04220283  0.58398483  1
  P  P16  1  0.33438944  0.62812751  0.58551696  1
  P  P17  1  0.83479675  0.62981730  0.58743942  1
  P  P18  1  0.47906763  0.62623765  0.08472172  1
  P  P19  1  0.97876906  0.62631945  0.08527711  1
  P  P20  1  0.33423442  0.04062602  0.08664330  1
  P  P21  1  0.83417708  0.04187245  0.08465186  1
  P  P22  1  0.18632522  0.33081579  0.08468557  1
  P  P23  1  0.68626471  0.33118769  0.08672122  1
  P  P24  1  0.31508795  0.66519061  0.91751752  1
  P  P25  1  0.81505353  0.66503744  0.91756512  1
  P  P26  1  0.01733647  0.37015949  0.91915511  1
  P  P27  1  0.51743973  0.37015984  0.91925372  1
  P  P28  1  0.16767226  0.96511485  0.91906828  1
  P  P29  1  0.66762678  0.96520787  0.91908099  1
  P  P30  1  0.31342076  0.96239379  0.41790781  1
  P  P31  1  0.81546553  0.96437088  0.41981064  1
  P  P32  1  0.16650290  0.36947909  0.42003743  1
  P  P33  1  0.66758651  0.37037382  0.41857831  1
  P  P34  1  0.01802364  0.66711768  0.41870602  1
  P  P35  1  0.51767422  0.66383574  0.42000713  1
  O  O0  1  0.10241796  0.02186525  0.30464812  1
  O  O1  1  0.60190049  0.01591718  0.30640310  1
  O  O2  1  0.40299468  0.79499620  0.30868518  1
  O  O3  1  0.90870252  0.79589122  0.30488478  1
  O  O4  1  0.48937650  0.17723467  0.30140270  1
  O  O5  1  0.99005279  0.18084828  0.30531300  1
  O  O6  1  0.10118666  0.18141466  0.80374320  1
  O  O7  1  0.60112794  0.18146549  0.80378620  1
  O  O8  1  0.48665430  0.80099695  0.80203572  1
  O  O9  1  0.98669562  0.80093873  0.80215105  1
  O  O10  1  0.41000894  0.01939111  0.80471654  1
  O  O11  1  0.91000529  0.01984865  0.80478651  1
  O  O12  1  0.38853357  0.95658106  0.69231514  1
  O  O13  1  0.88824946  0.95680248  0.69252115  1
  O  O14  1  0.09518467  0.22676657  0.69086898  1
  O  O15  1  0.59500185  0.22610768  0.69082451  1
  O  O16  1  0.01819203  0.81293808  0.69005420  1
  O  O17  1  0.51833816  0.81278042  0.68978772  1
  O  O18  1  0.38863029  0.81918840  0.19446025  1
  O  O19  1  0.88871247  0.81097577  0.19161610  1
  O  O20  1  0.01610741  0.22040608  0.19116738  1
  O  O21  1  0.52153562  0.22731989  0.18994009  1
  O  O22  1  0.09430382  0.96747274  0.19148050  1
  O  O23  1  0.59470855  0.96541426  0.19201083  1
  O  O24  1  0.43616357  0.36187851  0.63890713  1
  O  O25  1  0.93604983  0.36220554  0.63862779  1
  O  O26  1  0.24426693  0.12866744  0.63876457  1
  O  O27  1  0.74584011  0.13413149  0.63623635  1
  O  O28  1  0.32215026  0.51789351  0.64059076  1
  O  O29  1  0.82167520  0.52182956  0.64326779  1
  O  O30  1  0.43596030  0.51027504  0.13785818  1
  O  O31  1  0.93545953  0.51121586  0.13847326  1
  O  O32  1  0.32089429  0.12120705  0.14266534  1
  O  O33  1  0.81913688  0.12698124  0.13791988  1
  O  O34  1  0.24376288  0.35893750  0.13799091  1
  O  O35  1  0.73983820  0.35784636  0.14263469  1
  O  O36  1  0.22279455  0.28677197  0.02710253  1
  O  O37  1  0.72607835  0.28917000  0.03070866  1
  O  O38  1  0.42033044  0.55512662  0.02716510  1
  O  O39  1  0.92016340  0.55498717  0.02761763  1
  O  O40  1  0.35507032  0.16230586  0.03068496  1
  O  O41  1  0.85637175  0.15910677  0.02708488  1
  O  O42  1  0.22182006  0.15801950  0.52786330  1
  O  O43  1  0.72237935  0.15283100  0.52456542  1
  O  O44  1  0.35267003  0.54896397  0.52778991  1
  O  O45  1  0.85582965  0.55076152  0.53123277  1
  O  O46  1  0.42071831  0.28456586  0.52810002  1
  O  O47  1  0.92045638  0.28683614  0.52770642  1
  O  O48  1  0.27189407  0.68402642  0.97308919  1
  O  O49  1  0.77186586  0.68380479  0.97312421  1
  O  O50  1  0.06757740  0.45117779  0.97595781  1
  O  O51  1  0.56768589  0.45118286  0.97602984  1
  O  O52  1  0.15774366  0.86459253  0.97591177  1
  O  O53  1  0.65773422  0.86462667  0.97586427  1
  O  O54  1  0.26921332  0.85382244  0.47370511  1
  O  O55  1  0.77660501  0.86535380  0.47760057  1
  O  O56  1  0.15547125  0.44771283  0.47751904  1
  O  O57  1  0.66067574  0.45731614  0.47535656  1
  O  O58  1  0.06649309  0.68708427  0.47678321  1
  O  O59  1  0.57050608  0.68574563  0.47648677  1
  O  O60  1  0.06141640  0.64231335  0.36262894  1
  O  O61  1  0.55936997  0.63259294  0.36367709  1
  O  O62  1  0.25875143  0.87774230  0.35983644  1
  O  O63  1  0.75544592  0.87864491  0.36475970  1
  O  O64  1  0.18346294  0.48812495  0.36466508  1
  O  O65  1  0.68074035  0.47934052  0.36032072  1
  O  O66  1  0.05998059  0.47935990  0.86178413  1
  O  O67  1  0.55972515  0.47964489  0.86186845  1
  O  O68  1  0.18003144  0.88044814  0.86174960  1
  O  O69  1  0.68013516  0.88074431  0.86170263  1
  O  O70  1  0.26291701  0.64382397  0.85840909  1
  O  O71  1  0.76284855  0.64328935  0.85846550  1
  O  O72  1  0.00891147  0.83221811  0.41191886  1
  O  O73  1  0.50752987  0.82529414  0.41296773  1
  O  O74  1  0.40262462  0.97718863  0.41178870  1
  O  O75  1  0.90705537  0.98567438  0.41163767  1
  O  O76  1  0.08607546  0.18603418  0.41195074  1
  O  O77  1  0.58928394  0.18690631  0.41240643  1
  O  O78  1  0.00869165  0.18673615  0.91293093  1
  O  O79  1  0.50861168  0.18665989  0.91303259  1
  O  O80  1  0.08446053  0.98216114  0.91261468  1
  O  O81  1  0.58434866  0.98211737  0.91257697  1
  O  O82  1  0.40721053  0.83110482  0.91229453  1
  O  O83  1  0.90726548  0.83068887  0.91230612  1
  O  O84  1  0.48816194  0.16348624  0.59039068  1
  O  O85  1  0.98795207  0.16398197  0.59005539  1
  O  O86  1  0.09317231  0.02422615  0.58971898  1
  O  O87  1  0.59422209  0.02719623  0.58830660  1
  O  O88  1  0.41924072  0.81418660  0.58846856  1
  O  O89  1  0.91899541  0.81603373  0.58988684  1
  O  O90  1  0.48757194  0.81227878  0.08991873  1
  O  O91  1  0.98805468  0.81329744  0.08970966  1
  O  O92  1  0.41866965  0.02269086  0.08984863  1
  O  O93  1  0.91874476  0.02428507  0.08920880  1
  O  O94  1  0.09293881  0.16206791  0.08894671  1
  O  O95  1  0.59313646  0.16147338  0.08937576  1
  O  O96  1  0.34046857  0.15447460  0.74621197  1
  O  O97  1  0.84017514  0.15433117  0.74600493  1
  O  O98  1  0.23969690  0.32540413  0.74655444  1
  O  O99  1  0.73956925  0.32466353  0.74672816  1
  O  O100  1  0.41951148  0.52872381  0.74556936  1
  O  O101  1  0.91965643  0.52837640  0.74576039  1
  O  O102  1  0.33832693  0.52270140  0.24654272  1
  O  O103  1  0.83801463  0.52107712  0.24660507  1
  O  O104  1  0.42090215  0.31628302  0.24367046  1
  O  O105  1  0.92118163  0.31565923  0.24726185  1
  O  O106  1  0.23998367  0.15397460  0.24644854  1
  O  O107  1  0.73721792  0.16171577  0.24610118  1
  O  O108  1  0.32471414  0.50057054  0.91895817  1
  O  O109  1  0.82458714  0.50032867  0.91918615  1
  O  O110  1  0.42494545  0.34844783  0.92027840  1
  O  O111  1  0.92504297  0.34924162  0.91992465  1
  O  O112  1  0.24968672  0.14922493  0.92003623  1
  O  O113  1  0.74925878  0.14988441  0.92018992  1
  O  O114  1  0.32183321  0.14617936  0.41970696  1
  O  O115  1  0.82164704  0.14644308  0.42122320  1
  O  O116  1  0.25213137  0.35957212  0.42170418  1
  O  O117  1  0.75108057  0.34934474  0.41957502  1
  O  O118  1  0.42341378  0.50196047  0.42220720  1
  O  O119  1  0.92565150  0.50183140  0.41935403  1
  O  O120  1  0.17310683  0.48798124  0.07672910  1
  O  O121  1  0.67357894  0.48828121  0.07727569  1
  O  O122  1  0.07074111  0.65333903  0.07709738  1
  O  O123  1  0.57111931  0.65451004  0.07651673  1
  O  O124  1  0.25583820  0.85753145  0.07746554  1
  O  O125  1  0.75603157  0.85746921  0.07662347  1
  O  O126  1  0.17265500  0.85784846  0.57771157  1
  O  O127  1  0.67279288  0.85793355  0.57747173  1
  O  O128  1  0.25567247  0.65420606  0.57784919  1
  O  O129  1  0.75581195  0.65422583  0.57878287  1
  O  O130  1  0.07088490  0.48888579  0.57714679  1
  O  O131  1  0.57130906  0.48790334  0.57754595  1
  O  O132  1  0.15665695  0.83183924  0.25501269  1
  O  O133  1  0.65817761  0.83189287  0.25573582  1
  O  O134  1  0.25935864  0.69529186  0.25527697  1
  O  O135  1  0.75876443  0.68458995  0.25605817  1
  O  O136  1  0.08532896  0.47586750  0.25585473  1
  O  O137  1  0.58673204  0.47834719  0.25544423  1
  O  O138  1  0.15754330  0.48325481  0.75617083  1
  O  O139  1  0.65758102  0.48309955  0.75623712  1
  O  O140  1  0.08458704  0.69218610  0.75639416  1
  O  O141  1  0.58449006  0.69205439  0.75637149  1
  O  O142  1  0.26196558  0.82480972  0.75663360  1
  O  O143  1  0.76182293  0.82473717  0.75675926  1
loop_
_geom_bond_atom_site_label_1
_geom_bond_atom_site_label_2
_geom_bond_distance
_geom_bond_site_symmetry_2
Na0 O106 2.368499 1_555
Na0 O104 2.399670 1_555
Na0 O134 2.443973 1_545
Na0 O132 2.541579 1_545
Na0 O32 2.578923 1_555
Na0 O62 2.716771 1_545
Na0 O18 2.797801 1_545
Na0 O4 2.835682 1_555
Na1 O107 2.352538 1_555
Na1 O103 2.361611 1_555
Na1 O137 2.468581 1_555
Na1 O135 2.529568 1_555
Na1 O35 2.567687 1_555
Na1 O65 2.722173 1_555
Na1 O21 2.854419 1_555
Na1 O1 2.924466 1_555
Na2 O98 2.319526 1_555
Na2 O100 2.357123 1_555
Na2 O142 2.434949 1_555
Na2 O138 2.485047 1_555
Na2 O28 2.632663 1_555
Na2 O70 2.648790 1_555
Na2 O8 2.841557 1_555
Na2 O12 2.858233 1_555
Na3 O99 2.322623 1_555
Na3 O101 2.360339 1_555
Na3 O143 2.438656 1_555
Na3 O139 2.484144 1_555
Na3 O29 2.556676 1_555
Na3 O71 2.654437 1_555
Na3 O9 2.846102 1_555
Na3 O13 2.857913 1_555
Na4 O130 2.384785 1_555
Na4 O128 2.414741 1_555
Na4 O56 2.417988 1_555
Na4 O86 2.516001 1_555
Na4 O85 2.573191 1_455
Na4 O14 2.721945 1_555
Na4 O42 2.744279 1_555
Na4 O28 2.939111 1_555
Na5 O131 2.371764 1_555
Na5 O129 2.413305 1_555
Na5 O57 2.467090 1_555
Na5 O87 2.493828 1_555
Na5 O84 2.575313 1_555
Na5 O15 2.735707 1_555
Na5 O43 2.814333 1_555
Na5 O29 2.966057 1_555
Na6 O126 2.382266 1_555
Na6 O130 2.420044 1_555
Na6 O58 2.439049 1_555
Na6 O89 2.514699 1_455
Na6 O86 2.574751 1_565
Na6 O16 2.705383 1_555
Na6 O45 2.719413 1_455
Na6 O25 2.870756 1_455
Na7 O127 2.374565 1_555
Na7 O131 2.429125 1_555
Na7 O59 2.476331 1_555
Na7 O88 2.501646 1_555
Na7 O87 2.590827 1_565
Na7 O17 2.693964 1_555
Na7 O44 2.807048 1_555
Na7 O24 2.876266 1_555
Na8 O128 2.374832 1_555
Na8 O126 2.417484 1_555
Na8 O84 2.520403 1_565
Na8 O54 2.543021 1_555
Na8 O88 2.575789 1_555
Na8 O46 2.736242 1_565
Na8 O12 2.773583 1_555
Na8 O26 2.888548 1_565
Na9 O129 2.391665 1_555
Na9 O127 2.419636 1_555
Na9 O55 2.421046 1_555
Na9 O85 2.508294 1_565
Na9 O89 2.570162 1_555
Na9 O47 2.738505 1_565
Na9 O13 2.778029 1_555
Na9 O27 2.871158 1_565
Na10 O122 2.384073 1_555
Na10 O124 2.417182 1_555
Na10 O52 2.457614 1_554
Na10 O94 2.514449 1_565
Na10 O91 2.571389 1_455
Na10 O22 2.745808 1_555
Na10 O36 2.756024 1_565
Na10 O32 2.944169 1_565
Na11 O123 2.387586 1_555
Na11 O125 2.426169 1_555
Na11 O53 2.489446 1_554
Na11 O95 2.497409 1_565
Na11 O90 2.580999 1_555
Na11 O23 2.722803 1_555
Na11 O37 2.737916 1_565
Na11 O33 2.850856 1_565
Na12 O124 2.388029 1_555
Na12 O120 2.414289 1_555
Na12 O90 2.501484 1_555
Na12 O48 2.562860 1_554
Na12 O92 2.570172 1_565
Na12 O38 2.750667 1_555
Na12 O18 2.793455 1_555
Na12 O34 2.869102 1_555
Na13 O125 2.378012 1_555
Na13 O121 2.407196 1_555
Na13 O91 2.511882 1_555
Na13 O49 2.536446 1_554
Na13 O93 2.577756 1_565
Na13 O39 2.739515 1_555
Na13 O19 2.743591 1_555
Na13 O35 2.943081 1_555
Na14 O120 2.393607 1_555
Na14 O122 2.412601 1_555
Na14 O50 2.470299 1_554
Na14 O93 2.505693 1_455
Na14 O94 2.583522 1_555
Na14 O20 2.733483 1_555
Na14 O41 2.750228 1_455
Na14 O31 2.872893 1_455
Na15 O121 2.394807 1_555
Na15 O123 2.428667 1_555
Na15 O51 2.489087 1_554
Na15 O92 2.512763 1_555
Na15 O95 2.579320 1_555
Na15 O21 2.680236 1_555
Na15 O40 2.746149 1_555
Na15 O30 2.853217 1_555
Na16 O77 2.334442 1_555
Na16 O73 2.411932 1_545
Na16 O117 2.485990 1_555
Na16 O115 2.506335 1_555
Na16 O1 2.518095 1_555
Na16 O43 2.783491 1_555
Na16 O63 2.794571 1_545
Na17 O74 2.364749 1_555
Na17 O73 2.397308 1_555
Na17 O2 2.449949 1_555
Na17 O118 2.461919 1_555
Na17 O116 2.479093 1_555
Na17 O64 2.782658 1_555
Na17 O44 2.879005 1_555
Na18 O72 2.397233 1_555
Na18 O76 2.422612 1_565
Na18 O75 2.430507 1_455
Na18 O89 2.643873 1_455
Na18 O86 2.648400 1_565
Na18 O85 2.680050 1_465
Na19 O77 2.300423 1_555
Na19 O74 2.321563 1_545
Na19 O73 2.457418 1_545
Na19 O84 2.673577 1_555
Na19 O87 2.771231 1_555
Na19 O88 2.773260 1_545
Na20 O78 2.420516 1_555
Na20 O80 2.423514 1_545
Na20 O83 2.428545 1_445
Na20 O94 2.614115 1_556
Na20 O93 2.622434 1_456
Na20 O91 2.633188 1_446
Na21 O81 2.430697 1_555
Na21 O79 2.431802 1_565
Na21 O82 2.436270 1_555
Na21 O95 2.612828 1_566
Na21 O92 2.621261 1_566
Na21 O90 2.626951 1_556
Na22 O96 2.415162 1_555
Na22 O112 2.491993 1_555
Na22 O110 2.500306 1_555
Na22 O98 2.539667 1_555
Na22 O100 2.565323 1_555
Na22 O108 2.613242 1_555
Na23 O97 2.417867 1_555
Na23 O111 2.494377 1_555
Na23 O113 2.496428 1_555
Na23 O99 2.535001 1_555
Na23 O101 2.560145 1_555
Na23 O109 2.616339 1_555
Na24 O102 2.382039 1_555
Na24 O106 2.419471 1_555
Na24 O104 2.441182 1_555
Na24 O118 2.644822 1_555
Na24 O114 2.649900 1_555
Na24 O116 2.670077 1_555
Na25 O105 2.283649 1_555
Na25 O103 2.421929 1_555
Na25 O119 2.519567 1_555
Na25 O107 2.530360 1_555
Na25 O115 2.652311 1_555
Na25 O117 2.709926 1_555
Na26 O136 2.470293 1_555
Na26 O134 2.536889 1_555
Na26 O120 2.544945 1_555
Na26 O122 2.569635 1_555
Na26 O132 2.571683 1_555
Na26 O124 2.657041 1_555
Na27 O133 2.444328 1_555
Na27 O123 2.545886 1_555
Na27 O125 2.557426 1_555
Na27 O137 2.571931 1_555
Na27 O135 2.591869 1_555
Na27 O121 2.673920 1_555
Na28 O140 2.466856 1_555
Na28 O126 2.554231 1_555
Na28 O138 2.559452 1_555
Na28 O130 2.564517 1_555
Na28 O142 2.582431 1_555
Na28 O128 2.661519 1_555
Na29 O141 2.469321 1_555
Na29 O139 2.557419 1_555
Na29 O131 2.560754 1_555
Na29 O127 2.562208 1_555
Na29 O143 2.579731 1_555
Na29 O129 2.644712 1_555
Mg0 O4 1.960921 1_555
Mg0 O2 2.028793 1_545
Mg0 O1 2.038756 1_555
Mg0 O74 2.102592 1_545
Mg0 O77 2.114499 1_555
Mg0 O73 2.180695 1_545
Mg1 O26 2.010028 1_555
Mg1 O24 2.011208 1_555
Mg1 O96 2.062315 1_555
Mg1 O28 2.093954 1_555
Mg1 O100 2.112848 1_555
Mg1 O98 2.115012 1_555
Mg2 O27 2.007136 1_555
Mg2 O25 2.009244 1_555
Mg2 O97 2.059998 1_555
Mg2 O29 2.098242 1_555
Mg2 O101 2.116492 1_555
Mg2 O99 2.119657 1_555
Mg3 O30 2.001144 1_555
Mg3 O34 2.006213 1_555
Mg3 O102 2.061724 1_555
Mg3 O104 2.099322 1_555
Mg3 O32 2.102279 1_555
Mg3 O106 2.134275 1_555
Mg4 O33 2.006283 1_555
Mg4 O31 2.013435 1_555
Mg4 O105 2.078259 1_555
Mg4 O35 2.092847 1_555
Mg4 O107 2.100898 1_555
Mg4 O103 2.140794 1_555
Mg5 O48 2.025238 1_554
Mg5 O52 2.036458 1_554
Mg5 O50 2.038656 1_554
Mg5 O120 2.154998 1_555
Mg5 O122 2.155383 1_555
Mg5 O124 2.158333 1_555
Mg6 O49 2.025827 1_554
Mg6 O51 2.033984 1_554
Mg6 O53 2.039534 1_554
Mg6 O123 2.145044 1_555
Mg6 O125 2.149917 1_555
Mg6 O121 2.162490 1_555
Mg7 O54 2.002633 1_555
Mg7 O58 2.035576 1_555
Mg7 O56 2.038832 1_555
Mg7 O130 2.127259 1_555
Mg7 O126 2.161110 1_555
Mg7 O128 2.182346 1_555
Mg8 O57 2.000749 1_555
Mg8 O59 2.024473 1_555
Mg8 O55 2.037278 1_555
Mg8 O129 2.148891 1_555
Mg8 O131 2.160184 1_555
Mg8 O127 2.172382 1_555
O0 P0 1.533277 1_545
O0 Sn0 2.016822 1_545
O1 P1 1.520578 1_545
O2 P2 1.507061 1_555
O3 P3 1.536157 1_555
O3 Sn0 2.018712 1_655
O4 P5 1.502757 1_555
O5 P4 1.541324 1_655
O5 Sn0 2.004768 1_645
O6 P6 1.526359 1_555
O6 Sn1 2.022552 1_555
O7 P7 1.526807 1_555
O7 Sn2 2.021078 1_555
O8 P9 1.541378 1_555
O8 Sn2 2.040785 1_565
O9 P8 1.541988 1_655
O9 Sn1 2.039405 1_665
O10 P10 1.531782 1_545
O10 Sn2 2.026569 1_555
O11 P11 1.531292 1_545
O11 Sn1 2.028641 1_655
O12 P10 1.598146 1_555
O12 Sn4 2.050702 1_565
O13 P11 1.596014 1_555
O13 Sn3 2.044081 1_665
O14 P6 1.580725 1_555
O14 Sn3 2.032086 1_555
O15 P7 1.580939 1_555
O15 Sn4 2.038894 1_555
O16 P8 1.585189 1_555
O16 Sn3 2.041036 1_565
O17 P9 1.587189 1_555
O17 Sn4 2.038768 1_565
O18 P2 1.609582 1_555
O18 Sn6 2.037642 1_555
O19 P3 1.574907 1_555
O19 Sn5 2.039456 1_555
O20 P4 1.579901 1_555
O20 Sn5 2.030644 1_445
O21 P5 1.607415 1_555
O21 Sn6 2.053639 1_545
O22 P0 1.572816 1_555
O22 Sn5 2.036926 1_455
O23 P1 1.598287 1_555
O23 Sn6 2.032835 1_555
O24 P12 1.507195 1_555
O25 P13 1.508327 1_555
O26 P14 1.508615 1_555
O27 P15 1.507272 1_555
O28 P16 1.517890 1_555
O29 P17 1.517595 1_555
O30 P18 1.504464 1_555
O31 P19 1.502846 1_555
O32 P20 1.517142 1_555
O33 P21 1.503047 1_555
O34 P22 1.504958 1_555
O35 P23 1.514663 1_555
O36 P22 1.573789 1_555
O36 Sn7 2.067923 1_554
O37 P23 1.570159 1_555
O37 Sn8 2.069789 1_554
O38 P18 1.574625 1_555
O38 Sn7 2.073498 1_554
O39 P19 1.575558 1_555
O39 Sn8 2.074209 1_554
O40 P20 1.569955 1_555
O40 Sn7 2.082763 1_554
O41 P21 1.574590 1_555
O41 Sn8 2.075580 1_554
O42 P14 1.573855 1_555
O42 Sn9 2.055800 1_555
O43 P15 1.581341 1_555
O43 Sn10 2.103722 1_555
O44 P16 1.577478 1_555
O44 Sn9 2.110661 1_555
O45 P17 1.571374 1_555
O45 Sn10 2.060563 1_555
O46 P12 1.575986 1_555
O46 Sn9 2.059867 1_555
O47 P13 1.574495 1_555
O47 Sn10 2.066099 1_555
O48 P24 1.510500 1_555
O49 P25 1.509985 1_555
O50 P26 1.509897 1_555
O51 P27 1.509440 1_555
O52 P28 1.509933 1_555
O53 P29 1.509202 1_555
O54 P30 1.529041 1_555
O55 P31 1.517877 1_555
O56 P32 1.517661 1_555
O57 P33 1.520690 1_555
O58 P34 1.516680 1_555
O59 P35 1.524957 1_555
O60 P34 1.541874 1_555
O60 Sn11 2.018954 1_555
O61 P35 1.552538 1_555
O61 Sn12 2.028276 1_555
O62 P30 1.568034 1_555
O62 Sn11 2.056262 1_555
O63 P31 1.554151 1_555
O63 Sn12 2.049459 1_555
O64 P32 1.552819 1_555
O64 Sn11 2.045510 1_555
O65 P33 1.566971 1_555
O65 Sn12 2.058453 1_555
O66 P26 1.554704 1_555
O66 Sn13 2.011388 1_555
O67 P27 1.554840 1_555
O67 Sn14 2.012310 1_555
O68 P28 1.554297 1_555
O68 Sn13 2.014126 1_555
O69 P29 1.555406 1_555
O69 Sn14 2.015751 1_555
O70 P24 1.568332 1_555
O70 Sn13 2.062174 1_555
O71 P25 1.567898 1_555
O71 Sn14 2.063049 1_555
O72 P34 1.564115 1_555
O72 Sn0 2.062725 1_555
O73 P35 1.543186 1_555
O74 P30 1.530499 1_555
O75 P31 1.553020 1_555
O75 Sn0 2.085134 1_655
O76 P32 1.551188 1_555
O76 Sn0 2.086726 1_545
O77 P33 1.532313 1_555
O78 P26 1.567347 1_555
O78 Sn1 2.053857 1_555
O79 P27 1.566641 1_555
O79 Sn2 2.054788 1_555
O80 P28 1.567784 1_555
O80 Sn1 2.049980 1_565
O81 P29 1.568368 1_555
O81 Sn2 2.049044 1_565
O82 P24 1.566960 1_555
O82 Sn2 2.069209 1_565
O83 P25 1.566954 1_555
O83 Sn1 2.069546 1_665
O84 P12 1.584922 1_555
O84 Sn4 2.081841 1_555
O85 P13 1.586430 1_555
O85 Sn3 2.095619 1_655
O86 P14 1.585570 1_555
O86 Sn3 2.087764 1_555
O87 P15 1.586130 1_555
O87 Sn4 2.097354 1_555
O88 P16 1.587983 1_555
O88 Sn4 2.123407 1_565
O89 P17 1.583415 1_555
O89 Sn3 2.111402 1_665
O90 P18 1.589694 1_555
O90 Sn6 2.096482 1_555
O91 P19 1.590950 1_555
O91 Sn5 2.098228 1_555
O92 P20 1.588932 1_555
O92 Sn6 2.116897 1_545
O93 P21 1.591164 1_555
O93 Sn5 2.104993 1_545
O94 P22 1.589017 1_555
O94 Sn5 2.106609 1_445
O95 P23 1.588357 1_555
O95 Sn6 2.112848 1_545
O96 P10 1.503758 1_545
O97 P11 1.504526 1_545
O98 P6 1.519022 1_555
O99 P7 1.519364 1_555
O100 P9 1.519778 1_555
O101 P8 1.519748 1_655
O102 P2 1.515580 1_555
O103 P3 1.516724 1_555
O104 P5 1.522671 1_555
O105 P4 1.505582 1_655
O106 P0 1.520612 1_545
O107 P1 1.526277 1_545
O108 P24 1.558144 1_555
O108 Sn7 2.079686 1_555
O109 P25 1.558062 1_555
O109 Sn8 2.077867 1_555
O110 P27 1.557092 1_555
O110 Sn7 2.067654 1_555
O111 P26 1.556346 1_655
O111 Sn8 2.069346 1_555
O112 P28 1.555584 1_545
O112 Sn7 2.072094 1_555
O113 P29 1.555822 1_545
O113 Sn8 2.072925 1_555
O114 P30 1.566653 1_545
O114 Sn9 2.040197 1_555
O115 P31 1.568587 1_545
O115 Sn10 2.088599 1_555
O116 P32 1.569027 1_555
O116 Sn9 2.085928 1_555
O117 P33 1.586762 1_555
O117 Sn10 2.073343 1_555
O118 P35 1.571503 1_555
O118 Sn9 2.069180 1_555
O119 P34 1.563008 1_655
O119 Sn10 2.050964 1_555
O120 P22 1.540221 1_555
O121 P23 1.538053 1_555
O122 P19 1.539937 1_455
O123 P18 1.537244 1_555
O124 P20 1.538446 1_565
O125 P21 1.540673 1_565
O126 P14 1.536982 1_565
O127 P15 1.537548 1_565
O128 P16 1.538747 1_555
O129 P17 1.537108 1_555
O130 P13 1.536529 1_455
O131 P12 1.536440 1_555
O132 P0 1.561756 1_555
O132 Sn11 2.098461 1_555
O133 P1 1.561338 1_555
O133 Sn12 2.062583 1_555
O134 P2 1.586636 1_555
O134 Sn11 2.083870 1_555
O135 P3 1.562201 1_555
O135 Sn12 2.100022 1_555
O136 P4 1.557226 1_555
O136 Sn11 2.053242 1_555
O137 P5 1.568042 1_555
O137 Sn12 2.085848 1_555
O138 P6 1.563135 1_555
O138 Sn13 2.112547 1_555
O139 P7 1.564329 1_555
O139 Sn14 2.112834 1_555
O140 P8 1.542866 1_555
O140 Sn13 2.080940 1_555
O141 P9 1.542600 1_555
O141 Sn14 2.083388 1_555
O142 P10 1.566272 1_555
O142 Sn13 2.113925 1_555
O143 P11 1.565410 1_555
O143 Sn14 2.112123 1_555
