# generated using pymatgen
data_ReH3O5
_symmetry_space_group_name_H-M   'P 1'
_cell_length_a   5.44725468
_cell_length_b   5.67006343
_cell_length_c   7.85705542
_cell_angle_alpha   110.17166795
_cell_angle_beta   114.11823535
_cell_angle_gamma   86.12058395
_symmetry_Int_Tables_number   1
_chemical_formula_structural   ReH3O5
_chemical_formula_sum   'Re2 H6 O10'
_cell_volume   207.14393835
_cell_formula_units_Z   2
loop_
 _symmetry_equiv_pos_site_id
 _symmetry_equiv_pos_as_xyz
  1  'x, y, z'
loop_
 _atom_site_type_symbol
 _atom_site_label
 _atom_site_symmetry_multiplicity
 _atom_site_fract_x
 _atom_site_fract_y
 _atom_site_fract_z
 _atom_site_occupancy
  Re  Re0  1  0.87667287  0.61006232  0.72690566  1
  Re  Re1  1  0.15192086  0.40966869  0.25000695  1
  H  H0  1  0.30680965  0.98443195  0.81874462  1
  H  H1  1  0.25862856  0.20327800  0.71951778  1
  H  H2  1  0.56309268  0.18781010  0.89398700  1
  H  H3  1  0.80219194  0.83575858  0.33136697  1
  H  H4  1  0.54689202  0.02142766  0.31746555  1
  H  H5  1  0.49477036  0.72450797  0.17809954  1
  O  O0  1  0.39823959  0.09222118  0.77700103  1
  O  O1  1  0.62710133  0.87878602  0.24262282  1
  O  O2  1  0.99681952  0.32240168  0.62775602  1
  O  O3  1  0.65034490  0.69790561  0.53313504  1
  O  O4  1  0.29271379  0.48733693  0.10963643  1
  O  O5  1  0.84776217  0.23302400  0.08748683  1
  O  O6  1  0.07730186  0.67951599  0.40574702  1
  O  O7  1  0.35868922  0.22385461  0.37999885  1
  O  O8  1  0.71024712  0.57747542  0.86451295  1
  O  O9  1  0.14496754  0.84568627  0.87778893  1
loop_
_geom_bond_atom_site_label_1
_geom_bond_atom_site_label_2
_geom_bond_distance
_geom_bond_site_symmetry_2
H0 O0 1.020822 1_565
H0 O9 1.513640 1_555
H1 O0 1.014644 1_555
H1 O2 1.541139 1_455
H2 O0 0.996364 1_555
H2 O5 1.624816 1_556
H3 O1 0.998856 1_555
H3 O6 1.683398 1_655
H4 O1 1.012413 1_545
H4 O7 1.572672 1_555
H5 O1 1.011267 1_555
H5 O4 1.589574 1_555
O2 Re0 1.758254 1_555
O3 Re0 1.729703 1_555
O4 Re1 1.752270 1_555
O5 Re1 1.729827 1_655
O6 Re1 1.742039 1_555
O7 Re1 1.750205 1_555
O8 Re0 1.728132 1_555
O9 Re0 1.755608 1_455
