# generated using pymatgen
data_MgMn3CuO8
_symmetry_space_group_name_H-M   'P 1'
_cell_length_a   10.36503607
_cell_length_b   10.57974494
_cell_length_c   14.80083418
_cell_angle_alpha   19.25003378
_cell_angle_beta   18.94309303
_cell_angle_gamma   33.08117765
_symmetry_Int_Tables_number   1
_chemical_formula_structural   MgMn3CuO8
_chemical_formula_sum   'Mg1 Mn3 Cu1 O8'
_cell_volume   148.96042463
_cell_formula_units_Z   1
loop_
 _symmetry_equiv_pos_site_id
 _symmetry_equiv_pos_as_xyz
  1  'x, y, z'
loop_
 _atom_site_type_symbol
 _atom_site_label
 _atom_site_symmetry_multiplicity
 _atom_site_fract_x
 _atom_site_fract_y
 _atom_site_fract_z
 _atom_site_occupancy
  Mg  Mg0  1  0.00001600  0.50000000  0.49998800  1
  Mn  Mn0  1  0.99999500  0.50002100  0.99999700  1
  Mn  Mn1  1  0.49989200  0.99981500  0.00023700  1
  Mn  Mn2  1  0.50014600  0.49993200  0.99998600  1
  Cu  Cu0  1  0.00000900  0.00007800  0.99994100  1
  O  O0  1  0.99884100  0.94086700  0.29784900  1
  O  O1  1  0.99846500  0.48729800  0.27527000  1
  O  O2  1  0.49457400  0.02937900  0.25027800  1
  O  O3  1  0.00113500  0.05924500  0.70206000  1
  O  O4  1  0.50448300  0.53426700  0.24007000  1
  O  O5  1  0.00153500  0.51276800  0.72464300  1
  O  O6  1  0.50546100  0.97064500  0.74968400  1
  O  O7  1  0.49544800  0.46568200  0.75999900  1
loop_
_geom_bond_atom_site_label_1
_geom_bond_atom_site_label_2
_geom_bond_distance
_geom_bond_site_symmetry_2
Mg0 O3 2.081115 1_555
Mg0 O0 2.081192 1_455
Mg0 O4 2.182424 1_555
Mg0 O7 2.182699 1_455
Mg0 O6 2.194162 1_554
Mg0 O2 2.194169 1_456
Mn0 O7 1.981074 1_655
Mn0 O4 1.981280 1_556
Mn0 O6 1.984711 1_546
Mn0 O2 1.984837 1_665
Mn0 O3 2.281752 1_665
Mn0 O0 2.281885 1_546
Mn1 O5 1.926240 1_555
Mn1 O1 1.928127 1_564
Mn1 O3 1.930132 1_664
Mn1 O0 1.931124 1_455
Mn1 O7 1.943303 1_564
Mn1 O4 1.943327 1_555
Mn2 O5 1.925671 1_655
Mn2 O1 1.927686 1_456
Mn2 O3 1.931559 1_556
Mn2 O0 1.932256 1_555
Mn2 O2 1.940430 1_556
Mn2 O6 1.940689 1_555
Cu0 O2 1.999489 1_456
Cu0 O6 1.999780 1_545
Cu0 O4 2.007723 1_555
Cu0 O7 2.008114 1_446
Cu0 O5 2.077175 1_555
Cu0 O1 2.077733 1_446
