# generated using pymatgen
data_Ti2In2SiS5O24
_symmetry_space_group_name_H-M   'P 1'
_cell_length_a   8.76742281
_cell_length_b   8.79374420
_cell_length_c   22.75877682
_cell_angle_alpha   90.01422197
_cell_angle_beta   89.98021515
_cell_angle_gamma   120.00906773
_symmetry_Int_Tables_number   1
_chemical_formula_structural   Ti2In2SiS5O24
_chemical_formula_sum   'Ti6 In6 Si3 S15 O72'
_cell_volume   1519.44719151
_cell_formula_units_Z   3
loop_
 _symmetry_equiv_pos_site_id
 _symmetry_equiv_pos_as_xyz
  1  'x, y, z'
loop_
 _atom_site_type_symbol
 _atom_site_label
 _atom_site_symmetry_multiplicity
 _atom_site_fract_x
 _atom_site_fract_y
 _atom_site_fract_z
 _atom_site_occupancy
  Ti  Ti0  1  0.99818738  0.00697070  0.64135704  1
  Ti  Ti1  1  0.00756215  0.00885406  0.14453385  1
  Ti  Ti2  1  0.67883594  0.32152141  0.47686668  1
  Ti  Ti3  1  0.33412994  0.65974719  0.02241267  1
  Ti  Ti4  1  0.33943730  0.66811274  0.52214740  1
  Ti  Ti5  1  0.34502799  0.67823871  0.31425895  1
  In  In0  1  0.99668530  0.00163557  0.35735362  1
  In  In1  1  0.00200839  0.00020079  0.85553021  1
  In  In2  1  0.67385902  0.33652777  0.68426994  1
  In  In3  1  0.66258601  0.33589219  0.18476256  1
  In  In4  1  0.65895897  0.33025892  0.98222175  1
  In  In5  1  0.33125083  0.66628527  0.81014780  1
  Si  Si0  1  0.96181672  0.33867155  0.58252463  1
  Si  Si1  1  0.37477858  0.33424360  0.08341731  1
  Si  Si2  1  0.61804896  0.95232872  0.41868508  1
  S  S0  1  0.28547069  0.99374122  0.25084275  1
  S  S1  1  0.70883683  0.71173875  0.25056618  1
  S  S2  1  0.00349099  0.29293310  0.24929141  1
  S  S3  1  0.28761261  0.28631537  0.74803592  1
  S  S4  1  -0.00117691  0.71406859  0.74869983  1
  S  S5  1  0.71342325  -0.00037092  0.74876787  1
  S  S6  1  0.37332838  0.04113051  0.58204013  1
  S  S7  1  0.66787545  0.62546265  0.58225158  1
  S  S8  1  0.96657458  0.63332578  0.08350283  1
  S  S9  1  0.66747402  0.03430553  0.08344116  1
  S  S10  1  0.62069593  0.66737854  0.91732505  1
  S  S11  1  0.04437249  0.37957434  0.91804254  1
  S  S12  1  0.33469907  0.95329389  0.91734370  1
  S  S13  1  0.34196216  0.38856822  0.41758597  1
  S  S14  1  0.04919318  0.66174389  0.41743456  1
  O  O0  1  0.21076856  0.02724681  0.30371903  1
  O  O1  1  0.81587562  0.78882110  0.30334950  1
  O  O2  1  0.96897670  0.18414026  0.30185905  1
  O  O3  1  0.21417238  0.18430906  0.80250033  1
  O  O4  1  0.97425854  0.78991335  0.80357837  1
  O  O5  1  0.81773816  0.02909921  0.80294251  1
  O  O6  1  0.80533651  0.97764341  0.69670091  1
  O  O7  1  0.17328296  0.19477785  0.69602060  1
  O  O8  1  0.02140844  0.82623819  0.69691110  1
  O  O9  1  0.78896179  0.82282542  0.19808419  1
  O  O10  1  0.02818206  0.20251391  0.19673038  1
  O  O11  1  0.17200908  0.96741482  0.19829305  1
  O  O12  1  0.88851870  0.37779981  0.64062148  1
  O  O13  1  0.47927866  0.10942623  0.63573849  1
  O  O14  1  0.62515579  0.51932036  0.63598893  1
  O  O15  1  0.89783060  0.51945128  0.13541428  1
  O  O16  1  0.62904126  0.10682654  0.13570097  1
  O  O17  1  0.49197307  0.38213476  0.14118939  1
  O  O18  1  0.44169056  0.28250727  0.02569508  1
  O  O19  1  0.85504440  0.56063668  0.03118521  1
  O  O20  1  0.71279516  0.14764338  0.03148328  1
  O  O21  1  0.45530063  0.15888196  0.53094973  1
  O  O22  1  0.69924929  0.54357997  0.53114340  1
  O  O23  1  0.82735604  0.30003611  0.52569410  1
  O  O24  1  0.52856836  0.68859051  0.96946464  1
  O  O25  1  0.15858335  0.47134667  0.97001013  1
  O  O26  1  0.31247624  0.84156837  0.96923518  1
  O  O27  1  0.51070848  0.82695690  0.47339011  1
  O  O28  1  0.30907154  0.46898041  0.46968000  1
  O  O29  1  0.15745771  0.68612009  0.46958766  1
  O  O30  1  0.12714017  0.62928160  0.36348433  1
  O  O31  1  0.48943529  0.85484781  0.35951607  1
  O  O32  1  0.36387001  0.49738459  0.36353941  1
  O  O33  1  0.11828219  0.48226632  0.86388588  1
  O  O34  1  0.35870086  0.87621682  0.86284595  1
  O  O35  1  0.51555417  0.63770400  0.86349754  1
  O  O36  1  0.03384972  0.81875020  0.41030040  1
  O  O37  1  0.80730136  0.97586371  0.41204431  1
  O  O38  1  0.18730642  0.21331896  0.41023793  1
  O  O39  1  0.03203120  0.20635530  0.91391452  1
  O  O40  1  0.17427431  0.96819127  0.91358636  1
  O  O41  1  0.79261358  0.83078343  0.91376474  1
  O  O42  1  0.97884117  0.15992011  0.59592155  1
  O  O43  1  0.19589284  0.02152214  0.59214940  1
  O  O44  1  0.82631690  0.80234762  0.59298552  1
  O  O45  1  0.98410427  0.80773544  0.09598364  1
  O  O46  1  0.82049876  0.00892006  0.09583022  1
  O  O47  1  0.17470635  0.16399189  0.09957353  1
  O  O48  1  0.68924582  0.15161667  0.74249158  1
  O  O49  1  0.46302012  0.30636663  0.74039688  1
  O  O50  1  0.84123439  0.53975316  0.74389561  1
  O  O51  1  0.68698946  0.53626291  0.24418644  1
  O  O52  1  0.84849642  0.31322768  0.23958765  1
  O  O53  1  0.46380992  0.14243240  0.24289301  1
  O  O54  1  0.64486306  0.51527463  0.92390717  1
  O  O55  1  0.86932552  0.35991042  0.92634289  1
  O  O56  1  0.49290766  0.12716703  0.92243012  1
  O  O57  1  0.62609052  0.14258787  0.42842763  1
  O  O58  1  0.50162178  0.37683247  0.42627213  1
  O  O59  1  0.86978709  0.50518511  0.42551153  1
  O  O60  1  0.34290601  0.50181478  0.06772053  1
  O  O61  1  0.14481653  0.65932175  0.07131858  1
  O  O62  1  0.51128030  0.85930958  0.07145887  1
  O  O63  1  0.34843165  0.86377827  0.57121498  1
  O  O64  1  0.51475199  0.65169832  0.57166285  1
  O  O65  1  0.15414150  0.49911477  0.56498098  1
  O  O66  1  0.29396660  0.82847315  0.25869437  1
  O  O67  1  0.52931811  0.69348005  0.25976508  1
  O  O68  1  0.16342359  0.46631712  0.25721758  1
  O  O69  1  0.30000398  0.45956845  0.75252393  1
  O  O70  1  0.15945082  0.69948770  0.75283544  1
  O  O71  1  0.54132075  0.83616847  0.75268083  1
loop_
_geom_bond_atom_site_label_1
_geom_bond_atom_site_label_2
_geom_bond_distance
_geom_bond_site_symmetry_2
In0 O37 1.994966 1_545
In0 O1 2.135082 1_545
In0 O38 2.143653 1_655
In0 O2 2.149667 1_555
In0 O0 2.153930 1_655
In0 O36 2.161033 1_645
In1 O4 2.103770 1_445
In1 O5 2.125847 1_455
In1 O3 2.127179 1_555
In1 O40 2.129069 1_545
In1 O41 2.147071 1_445
In1 O39 2.154786 1_555
In2 O12 1.994031 1_555
In2 O50 2.136727 1_555
In2 O49 2.151087 1_555
In2 O48 2.153753 1_555
In2 O14 2.159011 1_555
In2 O13 2.170464 1_555
In3 O17 1.998991 1_555
In3 O52 2.140056 1_555
In3 O51 2.145087 1_555
In3 O53 2.171530 1_555
In3 O15 2.188597 1_555
In3 O16 2.190288 1_555
In4 O18 1.995650 1_556
In4 O56 2.135460 1_555
In4 O55 2.145811 1_555
In4 O54 2.150820 1_555
In4 O19 2.194977 1_556
In4 O20 2.194996 1_556
In5 O34 2.111650 1_555
In5 O70 2.120571 1_555
In5 O35 2.134515 1_555
In5 O33 2.139587 1_555
In5 O71 2.140454 1_555
In5 O69 2.144838 1_555
O0 S0 1.468415 1_545
O1 S1 1.465376 1_555
O2 S2 1.465909 1_655
O3 S3 1.475792 1_555
O4 S4 1.481291 1_655
O5 S5 1.478955 1_555
O6 S5 1.498669 1_565
O6 Ti0 2.018499 1_565
O7 S3 1.499121 1_555
O7 Ti0 2.023906 1_455
O8 S4 1.485406 1_555
O8 Ti0 2.119142 1_465
O9 S1 1.479185 1_555
O9 Ti1 2.167465 1_665
O10 S2 1.510483 1_555
O10 Ti1 2.008790 1_555
O11 S0 1.497938 1_555
O11 Ti1 2.058014 1_565
O12 Si0 1.581135 1_555
O13 S6 1.469525 1_555
O14 S7 1.468937 1_555
O15 S8 1.469087 1_555
O16 S9 1.465992 1_555
O17 Si1 1.590496 1_555
O18 Si1 1.594696 1_555
O19 S8 1.468908 1_555
O20 S9 1.467534 1_555
O21 S6 1.482010 1_555
O21 Ti2 2.144045 1_555
O22 S7 1.464433 1_555
O22 Ti2 2.240634 1_555
O23 Si0 1.666806 1_555
O23 Ti2 1.792578 1_555
O24 S10 1.498413 1_555
O24 Ti3 1.997185 1_556
O25 S11 1.498267 1_555
O25 Ti3 1.996409 1_556
O26 S12 1.485567 1_555
O26 Ti3 2.088528 1_556
O27 Si2 1.616558 1_555
O27 Ti4 1.827253 1_555
O28 S13 1.480585 1_555
O28 Ti4 2.023860 1_555
O29 S14 1.467272 1_555
O29 Ti4 2.062931 1_555
O30 S14 1.500166 1_555
O30 Ti5 2.065394 1_555
O31 Si2 1.689172 1_555
O31 Ti5 1.763266 1_555
O32 S13 1.510666 1_555
O32 Ti5 2.019487 1_555
O33 S11 1.472826 1_555
O34 S12 1.477874 1_555
O35 S10 1.476008 1_555
O36 S14 1.461720 1_555
O37 Si2 1.573262 1_555
O38 S13 1.466742 1_555
O39 S11 1.475086 1_555
O40 S12 1.478901 1_555
O41 S10 1.475384 1_555
O42 Si0 1.679598 1_555
O42 Ti0 1.770895 1_555
O43 S6 1.494717 1_555
O43 Ti0 2.012956 1_455
O44 S7 1.499187 1_555
O44 Ti0 2.002094 1_565
O45 S8 1.490173 1_555
O45 Ti1 2.006600 1_665
O46 S9 1.493045 1_555
O46 Ti1 1.980062 1_655
O47 Si1 1.681225 1_555
O47 Ti1 1.748017 1_555
O48 S5 1.461226 1_555
O49 S3 1.467977 1_555
O50 S4 1.467029 1_655
O51 S1 1.463951 1_555
O52 S2 1.473109 1_655
O53 S0 1.463592 1_545
O54 S10 1.462879 1_555
O55 S11 1.468089 1_655
O56 S12 1.467591 1_545
O57 Si2 1.653844 1_545
O57 Ti2 1.782330 1_555
O58 S13 1.467611 1_555
O58 Ti2 2.175755 1_555
O59 S14 1.495702 1_655
O59 Ti2 2.017990 1_555
O60 Si1 1.670138 1_555
O60 Ti3 1.762289 1_555
O61 S8 1.487833 1_455
O61 Ti3 1.996569 1_555
O62 S9 1.486575 1_565
O62 Ti3 2.002943 1_555
O63 S6 1.483236 1_565
O63 Ti4 2.019218 1_555
O64 S7 1.491196 1_555
O64 Ti4 1.968887 1_555
O65 Si0 1.616605 1_455
O65 Ti4 1.839226 1_555
O66 S0 1.502683 1_555
O66 Ti5 2.034150 1_555
O67 S1 1.514540 1_555
O67 Ti5 1.987165 1_555
O68 S2 1.478148 1_555
O68 Ti5 2.173837 1_555
O69 S3 1.475733 1_555
O70 S4 1.479629 1_555
O71 S5 1.476938 1_565
