# generated using pymatgen
data_Na5La2Zr2SiP5O24
_symmetry_space_group_name_H-M   'P 1'
_cell_length_a   9.35856513
_cell_length_b   9.37542128
_cell_length_c   23.57240720
_cell_angle_alpha   89.85614362
_cell_angle_beta   90.01514284
_cell_angle_gamma   120.50138474
_symmetry_Int_Tables_number   1
_chemical_formula_structural   Na5La2Zr2SiP5O24
_chemical_formula_sum   'Na15 La6 Zr6 Si3 P15 O72'
_cell_volume   1782.03624106
_cell_formula_units_Z   3
loop_
 _symmetry_equiv_pos_site_id
 _symmetry_equiv_pos_as_xyz
  1  'x, y, z'
loop_
 _atom_site_type_symbol
 _atom_site_label
 _atom_site_symmetry_multiplicity
 _atom_site_fract_x
 _atom_site_fract_y
 _atom_site_fract_z
 _atom_site_occupancy
  Na  Na0  1  0.00232834  0.64368151  0.25004291  1
  Na  Na1  1  0.63261406  0.64098090  0.74901472  1
  Na  Na2  1  0.37036109  0.99685883  0.75144458  1
  Na  Na3  1  0.66608299  0.97240295  0.58734077  1
  Na  Na4  1  0.30043777  0.97169587  0.08295122  1
  Na  Na5  1  0.67956675  0.69560060  0.08120566  1
  Na  Na6  1  0.02526512  0.33354100  0.08434393  1
  Na  Na7  1  0.96224416  0.30085908  0.42047535  1
  Na  Na8  1  0.34160733  0.03700023  0.42298609  1
  Na  Na9  1  0.00828527  0.98816633  0.50196644  1
  Na  Na10  1  0.00174870  0.98954434  0.99154793  1
  Na  Na11  1  0.68228764  0.33197252  0.83679258  1
  Na  Na12  1  0.65016102  0.33198055  0.33142512  1
  Na  Na13  1  0.34262586  0.66660047  0.16986591  1
  Na  Na14  1  0.31651824  0.65222315  0.66476005  1
  La  La0  1  0.99088553  0.99437632  0.34880602  1
  La  La1  1  0.00126812  0.00452019  0.15630154  1
  La  La2  1  0.66860276  0.33942602  0.97820736  1
  La  La3  1  0.66207990  0.34599905  0.49382241  1
  La  La4  1  0.34927506  0.66728213  0.31696459  1
  La  La5  1  0.32455442  0.65970809  0.81313770  1
  Zr  Zr0  1  0.99369618  0.00306101  0.85202392  1
  Zr  Zr1  1  0.00593419  0.00449110  0.64859725  1
  Zr  Zr2  1  0.66983183  0.32596058  0.68280661  1
  Zr  Zr3  1  0.66749848  0.32981313  0.18044717  1
  Zr  Zr4  1  0.32865457  0.66706346  0.01189175  1
  Zr  Zr5  1  0.33290901  0.66520717  0.52231647  1
  Si  Si0  1  0.71779139  0.01227264  0.74696431  1
  Si  Si1  1  0.36059090  0.02448640  0.58354805  1
  Si  Si2  1  0.97422908  0.63287911  0.08400161  1
  P  P0  1  0.31885773  0.00821040  0.24872129  1
  P  P1  1  0.69029011  0.67331092  0.24264597  1
  P  P2  1  0.98682755  0.31314900  0.24792624  1
  P  P3  1  0.29638594  0.28025126  0.74822644  1
  P  P4  1  0.98591103  0.71247859  0.74861270  1
  P  P5  1  0.96966884  0.33272042  0.58420017  1
  P  P6  1  0.66496078  0.64166313  0.58923558  1
  P  P7  1  0.65482508  0.02837826  0.08223457  1
  P  P8  1  0.37476968  0.34663740  0.08295312  1
  P  P9  1  0.63814942  0.68394460  0.91441451  1
  P  P10  1  0.04171804  0.35566617  0.91729990  1
  P  P11  1  0.31466067  0.95657409  0.91371962  1
  P  P12  1  0.63285642  0.96730461  0.42436010  1
  P  P13  1  0.32677948  0.36523424  0.42167010  1
  P  P14  1  0.04605544  0.66866371  0.41863088  1
  O  O0  1  0.23302064  0.02548669  0.30270115  1
  O  O1  1  0.80531516  0.76714789  0.29387575  1
  O  O2  1  0.97531574  0.21208759  0.30172314  1
  O  O3  1  0.20872232  0.17618644  0.80202614  1
  O  O4  1  0.96830097  0.79842163  0.80237419  1
  O  O5  1  0.83054366  0.02554130  0.80323792  1
  O  O6  1  0.81160582  0.99595655  0.69203442  1
  O  O7  1  0.18945339  0.18936480  0.69656573  1
  O  O8  1  0.00131389  0.82033061  0.69711113  1
  O  O9  1  0.76879250  0.76718345  0.18726808  1
  O  O10  1  0.00528070  0.23382856  0.19363241  1
  O  O11  1  0.21328320  0.98714472  0.19555428  1
  O  O12  1  0.86775923  0.35648780  0.63224133  1
  O  O13  1  0.49912138  0.13613785  0.63453175  1
  O  O14  1  0.64510072  0.52524429  0.63962557  1
  O  O15  1  0.87946601  0.51079022  0.14029823  1
  O  O16  1  0.63211371  0.12037873  0.13397569  1
  O  O17  1  0.48859361  0.36323010  0.13449752  1
  O  O18  1  0.43985278  0.30288351  0.03079164  1
  O  O19  1  0.84721414  0.55087705  0.03233576  1
  O  O20  1  0.68909485  0.13553931  0.02987585  1
  O  O21  1  0.42590257  0.11917767  0.52352362  1
  O  O22  1  0.70223380  0.58277210  0.53416815  1
  O  O23  1  0.87233055  0.29393922  0.52835614  1
  O  O24  1  0.53792654  0.69173235  0.96747762  1
  O  O25  1  0.14851138  0.45422880  0.97120168  1
  O  O26  1  0.30631651  0.84314650  0.96637742  1
  O  O27  1  0.53252945  0.85844823  0.47660530  1
  O  O28  1  0.32964775  0.47480045  0.47223335  1
  O  O29  1  0.16166143  0.67243853  0.46820206  1
  O  O30  1  0.11877982  0.65966978  0.36115436  1
  O  O31  1  0.53770927  0.88652263  0.36973891  1
  O  O32  1  0.33419373  0.45070431  0.36561493  1
  O  O33  1  0.12453682  0.45646539  0.86442831  1
  O  O34  1  0.33147734  0.87987602  0.85873636  1
  O  O35  1  0.54542573  0.67064504  0.85944327  1
  O  O36  1  0.04302745  0.83248042  0.42207692  1
  O  O37  1  0.80795195  0.98820928  0.42386382  1
  O  O38  1  0.15959833  0.19620060  0.42411202  1
  O  O39  1  0.03766226  0.18768117  0.91459744  1
  O  O40  1  0.15171881  0.96165602  0.91325823  1
  O  O41  1  0.81066962  0.84722560  0.91350099  1
  O  O42  1  0.98644266  0.18020880  0.59653780  1
  O  O43  1  0.17778915  0.99733893  0.59613428  1
  O  O44  1  0.80982572  0.82204633  0.59747768  1
  O  O45  1  0.01608180  0.82407693  0.08952525  1
  O  O46  1  0.80045523  0.99775584  0.09044957  1
  O  O47  1  0.19288099  0.20739011  0.09130631  1
  O  O48  1  0.69380374  0.17640091  0.74150831  1
  O  O49  1  0.46828032  0.28946694  0.74217218  1
  O  O50  1  0.82481050  0.53999508  0.74246741  1
  O  O51  1  0.68540273  0.50505764  0.24119559  1
  O  O52  1  0.82469278  0.32144470  0.24413696  1
  O  O53  1  0.49137274  0.16524346  0.24190337  1
  O  O54  1  0.66192906  0.53474724  0.91787158  1
  O  O55  1  0.86667571  0.32790628  0.92056048  1
  O  O56  1  0.46595170  0.12964248  0.91945939  1
  O  O57  1  0.65034036  0.14068064  0.42661671  1
  O  O58  1  0.47208474  0.33198940  0.42275561  1
  O  O59  1  0.87544326  0.51004107  0.42407619  1
  O  O60  1  0.37755148  0.51466091  0.07655405  1
  O  O61  1  0.15224134  0.63491952  0.07438543  1
  O  O62  1  0.49018721  0.85698307  0.07648652  1
  O  O63  1  0.35905085  0.84633612  0.58045298  1
  O  O64  1  0.50542811  0.65466742  0.58312749  1
  O  O65  1  0.14310246  0.49060972  0.57994637  1
  O  O66  1  0.32979466  0.84981000  0.25087843  1
  O  O67  1  0.51645519  0.64762067  0.24694805  1
  O  O68  1  0.13260987  0.49371587  0.24994040  1
  O  O69  1  0.33027658  0.45867596  0.74863375  1
  O  O70  1  0.14413637  0.70149955  0.74923789  1
  O  O71  1  0.53120919  0.84772366  0.74812019  1
loop_
_geom_bond_atom_site_label_1
_geom_bond_atom_site_label_2
_geom_bond_distance
_geom_bond_site_symmetry_2
Na0 O68 2.281134 1_555
Na0 O51 2.572467 1_455
Na0 O52 2.610328 1_455
Na0 O66 2.667413 1_555
Na0 O30 2.811553 1_555
Na0 O1 2.824977 1_455
Na0 O15 2.850798 1_455
Na1 O50 2.425917 1_555
Na1 O69 2.453173 1_555
Na1 O71 2.554430 1_555
Na1 O35 2.784638 1_555
Na1 O14 2.825417 1_555
Na1 O49 2.847752 1_555
Na1 O4 2.988340 1_555
Na2 O49 2.420436 1_565
Na2 O70 2.490466 1_555
Na2 O71 2.522743 1_555
Na2 O48 2.622388 1_565
Na2 O34 2.704293 1_555
Na3 O44 2.403534 1_555
Na3 O63 2.496572 1_555
Na3 O64 2.568883 1_555
Na3 O42 2.627498 1_565
Na3 O6 2.773014 1_555
Na3 O27 2.859027 1_555
Na3 O13 2.912002 1_565
Na3 O23 2.969861 1_565
Na4 O45 2.298189 1_555
Na4 O62 2.504585 1_555
Na4 O61 2.737039 1_555
Na4 O11 2.802622 1_555
Na4 O47 2.862707 1_565
Na4 O16 2.939188 1_565
Na4 O18 2.953717 1_565
Na4 O26 3.015071 1_554
Na5 O60 2.451942 1_555
Na5 O46 2.470217 1_555
Na5 O9 2.614737 1_555
Na5 O45 2.749095 1_655
Na5 O19 2.792750 1_555
Na5 O62 2.857257 1_555
Na5 O17 2.968259 1_555
Na5 O24 2.982470 1_554
Na6 O47 2.401791 1_555
Na6 O61 2.457508 1_555
Na6 O10 2.712261 1_555
Na6 O46 2.762647 1_445
Na6 O60 2.846477 1_555
Na6 O25 2.895752 1_554
Na6 O15 2.945626 1_455
Na6 O20 3.012248 1_455
Na7 O59 2.476156 1_555
Na7 O38 2.494097 1_655
Na7 O57 2.519107 1_555
Na7 O37 2.527014 1_545
Na7 O23 2.669092 1_555
Na7 O2 2.942586 1_555
Na8 O58 2.389910 1_555
Na8 O36 2.458935 1_545
Na8 O21 2.494716 1_555
Na8 O57 2.539594 1_555
Na8 O38 2.776845 1_555
Na8 O0 2.995418 1_555
Na9 O36 2.505690 1_555
Na9 O38 2.521329 1_565
Na9 O37 2.627444 1_455
Na9 O43 2.704024 1_555
Na9 O44 2.827075 1_455
Na9 O42 2.940609 1_465
Na10 O40 2.412526 1_555
Na10 O41 2.439526 1_455
Na10 O39 2.490699 1_565
Na10 O45 2.819887 1_556
Na11 O55 2.634932 1_555
Na11 O48 2.712933 1_555
Na11 O56 2.753095 1_555
Na11 O54 2.772975 1_555
Na11 O50 2.804581 1_555
Na11 O49 2.887342 1_555
Na12 O51 2.589484 1_555
Na12 O53 2.600362 1_555
Na12 O52 2.660434 1_555
Na12 O58 2.722917 1_555
Na12 O57 2.869602 1_555
Na12 O59 2.905998 1_555
Na13 O67 2.504060 1_555
Na13 O68 2.608781 1_555
Na13 O66 2.614875 1_555
Na13 O62 2.723578 1_555
Na13 O60 2.731841 1_555
Na13 O61 2.791499 1_555
Na14 O65 2.538507 1_555
Na14 O63 2.582013 1_555
Na14 O64 2.605643 1_555
Na14 O69 2.727136 1_555
Na14 O71 2.745048 1_555
Na14 O70 2.746696 1_555
La0 O1 2.342663 1_555
La0 O2 2.389497 1_565
La0 O0 2.393724 1_665
La0 O37 2.442391 1_555
La0 O38 2.491403 1_665
La0 O36 2.502666 1_655
La1 O11 2.268468 1_545
La1 O9 2.301274 1_445
La1 O10 2.307642 1_555
La1 O45 2.368641 1_545
La1 O47 2.388533 1_555
La1 O46 2.413180 1_445
La2 O19 2.236044 1_556
La2 O54 2.341593 1_555
La2 O18 2.343392 1_556
La2 O55 2.345129 1_555
La2 O20 2.352535 1_556
La2 O56 2.368268 1_555
La3 O21 2.262684 1_555
La3 O22 2.266505 1_555
La3 O23 2.396783 1_555
La3 O58 2.397422 1_555
La3 O59 2.434564 1_555
La3 O57 2.455141 1_555
La4 O32 2.270577 1_555
La4 O31 2.283527 1_555
La4 O67 2.345531 1_555
La4 O30 2.363850 1_555
La4 O66 2.385714 1_555
La4 O68 2.432564 1_555
La5 O33 2.228330 1_555
La5 O35 2.293212 1_555
La5 O34 2.301234 1_555
La5 O71 2.392449 1_555
La5 O70 2.437314 1_555
La5 O69 2.446230 1_555
O0 P0 1.557014 1_555
O1 P1 1.560250 1_555
O2 P2 1.551742 1_555
O3 P3 1.554049 1_555
O3 Zr0 2.179231 1_455
O4 P4 1.556423 1_555
O4 Zr0 2.157648 1_565
O5 Si0 1.659932 1_555
O5 Zr0 2.005692 1_555
O6 Si0 1.615160 1_565
O6 Zr1 2.053071 1_665
O7 P3 1.532792 1_555
O7 Zr1 2.054133 1_555
O8 P4 1.537212 1_455
O8 Zr1 2.050629 1_565
O9 P1 1.535166 1_555
O10 P2 1.534960 1_455
O11 P0 1.545446 1_565
O12 P5 1.568200 1_555
O12 Zr2 2.096430 1_555
O13 Si1 1.687823 1_555
O13 Zr2 2.034089 1_555
O14 P6 1.557061 1_555
O14 Zr2 2.238246 1_555
O15 Si2 1.679366 1_555
O15 Zr3 2.070247 1_555
O16 P7 1.571068 1_555
O16 Zr3 2.125014 1_555
O17 P8 1.570748 1_555
O17 Zr3 2.145794 1_555
O18 P8 1.519099 1_555
O19 Si2 1.601102 1_555
O20 P7 1.517378 1_555
O21 Si1 1.614636 1_555
O22 P6 1.520150 1_555
O23 P5 1.536367 1_555
O24 P9 1.587522 1_555
O24 Zr4 2.127279 1_556
O25 P10 1.592135 1_555
O25 Zr4 2.082723 1_556
O26 P11 1.608373 1_555
O26 Zr4 2.064319 1_556
O27 P12 1.568891 1_555
O27 Zr5 2.118705 1_555
O28 P13 1.566742 1_555
O28 Zr5 2.129951 1_555
O29 P14 1.580464 1_555
O29 Zr5 2.075808 1_555
O30 P14 1.537948 1_555
O31 P12 1.531008 1_555
O32 P13 1.526825 1_555
O33 P10 1.515970 1_555
O34 P11 1.530147 1_555
O35 P9 1.529067 1_555
O36 P14 1.552755 1_555
O37 P12 1.548446 1_555
O38 P13 1.563747 1_555
O39 P10 1.557474 1_555
O39 Zr0 2.151854 1_455
O40 P11 1.549663 1_555
O40 Zr0 2.236083 1_465
O41 P9 1.562544 1_555
O41 Zr0 2.149158 1_565
O42 P5 1.542551 1_555
O42 Zr1 2.132607 1_655
O43 Si1 1.624006 1_565
O43 Zr1 2.057059 1_565
O44 P6 1.552379 1_555
O44 Zr1 2.137431 1_665
O45 Si2 1.634643 1_455
O46 P7 1.540835 1_565
O47 P8 1.543921 1_555
O48 Si0 1.668654 1_555
O48 Zr2 2.059274 1_555
O49 P3 1.573107 1_555
O49 Zr2 2.230941 1_555
O50 P4 1.560520 1_555
O50 Zr2 2.273056 1_555
O51 P1 1.555192 1_555
O51 Zr3 2.123749 1_555
O52 P2 1.560790 1_555
O52 Zr3 2.130658 1_555
O53 P0 1.544673 1_555
O53 Zr3 2.145809 1_555
O54 P9 1.525841 1_555
O55 P10 1.524578 1_655
O56 P11 1.524690 1_545
O57 P12 1.549906 1_545
O58 P13 1.541812 1_555
O59 P14 1.538259 1_655
O60 P8 1.569124 1_555
O60 Zr4 2.286204 1_555
O61 Si2 1.671804 1_455
O61 Zr4 2.116750 1_555
O62 P7 1.569126 1_565
O62 Zr4 2.248152 1_555
O63 Si1 1.664748 1_565
O63 Zr5 2.100338 1_555
O64 P6 1.564996 1_555
O64 Zr5 2.198023 1_555
O65 P5 1.547931 1_455
O65 Zr5 2.172264 1_555
O66 P0 1.540265 1_565
O67 P1 1.522211 1_555
O68 P2 1.544442 1_455
O69 P3 1.536381 1_555
O70 P4 1.535635 1_455
O71 Si0 1.641650 1_565
