# generated using pymatgen
data_MgTi2V2O8
_symmetry_space_group_name_H-M   'P 1'
_cell_length_a   6.18113764
_cell_length_b   5.79391004
_cell_length_c   5.79364511
_cell_angle_alpha   60.95547270
_cell_angle_beta   93.97732782
_cell_angle_gamma   65.59917253
_symmetry_Int_Tables_number   1
_chemical_formula_structural   MgTi2V2O8
_chemical_formula_sum   'Mg1 Ti2 V2 O8'
_cell_volume   155.40805621
_cell_formula_units_Z   1
loop_
 _symmetry_equiv_pos_site_id
 _symmetry_equiv_pos_as_xyz
  1  'x, y, z'
loop_
 _atom_site_type_symbol
 _atom_site_label
 _atom_site_symmetry_multiplicity
 _atom_site_fract_x
 _atom_site_fract_y
 _atom_site_fract_z
 _atom_site_occupancy
  Mg  Mg0  1  0.75769154  0.50359035  0.26081392  1
  Ti  Ti0  1  0.82088590  0.75649504  0.57744195  1
  Ti  Ti1  1  0.40075275  0.51158464  0.91231062  1
  V  V0  1  0.28534431  0.22845256  0.51385748  1
  V  V1  1  0.06955433  0.00476830  0.07435784  1
  O  O0  1  0.44321667  0.31437865  0.75747304  1
  O  O1  1  0.04567002  0.75058539  0.79640006  1
  O  O2  1  0.94573049  0.32785592  0.68433631  1
  O  O3  1  0.57615959  0.73025289  0.76325255  1
  O  O4  1  0.94577542  0.73858263  0.27360045  1
  O  O5  1  0.57599684  0.18701432  0.30639183  1
  O  O6  1  0.05641281  0.19401188  0.25061841  1
  O  O7  1  0.38633432  0.75242742  0.13866954  1
loop_
_geom_bond_atom_site_label_1
_geom_bond_atom_site_label_2
_geom_bond_distance
_geom_bond_site_symmetry_2
Mg0 O7 1.974331 1_555
Mg0 O6 2.002915 1_655
Mg0 O4 2.145838 1_555
Mg0 O2 2.146899 1_555
Mg0 O3 2.439576 1_554
Mg0 O5 2.442999 1_555
O0 Ti1 1.720254 1_555
O0 V0 2.021095 1_555
O1 Ti0 1.793023 1_455
O1 Ti1 1.888694 1_555
O2 V1 1.914446 1_656
O2 Ti0 2.000906 1_555
O2 V0 2.356888 1_655
O3 Ti0 1.930606 1_555
O3 Ti1 1.931042 1_555
O3 V0 2.225735 1_565
O4 V1 1.914486 1_665
O4 Ti0 2.001308 1_555
O4 V0 2.356511 1_655
O5 Ti0 1.930407 1_545
O5 Ti1 1.930673 1_554
O5 V0 2.225631 1_555
O6 V1 1.810186 1_555
O6 V0 2.144201 1_555
O7 V1 1.764915 1_565
O7 Ti1 2.316332 1_554
