# generated using pymatgen
data_Na5HfNb3(SiO4)6
_symmetry_space_group_name_H-M   'P 1'
_cell_length_a   9.07855426
_cell_length_b   9.06558620
_cell_length_c   22.81328229
_cell_angle_alpha   90.21933195
_cell_angle_beta   89.79978630
_cell_angle_gamma   120.19783470
_symmetry_Int_Tables_number   1
_chemical_formula_structural   Na5HfNb3(SiO4)6
_chemical_formula_sum   'Na15 Hf3 Nb9 Si18 O72'
_cell_volume   1622.77334374
_cell_formula_units_Z   3
loop_
 _symmetry_equiv_pos_site_id
 _symmetry_equiv_pos_as_xyz
  1  'x, y, z'
loop_
 _atom_site_type_symbol
 _atom_site_label
 _atom_site_symmetry_multiplicity
 _atom_site_fract_x
 _atom_site_fract_y
 _atom_site_fract_z
 _atom_site_occupancy
  Na  Na0  1  0.36620290  0.36309916  0.24869853  1
  Na  Na1  1  0.99499265  0.63226572  0.24860808  1
  Na  Na2  1  0.63528162  0.63110597  0.74920077  1
  Na  Na3  1  0.99860535  0.36725972  0.74951012  1
  Na  Na4  1  0.03203038  0.69760999  0.58408025  1
  Na  Na5  1  0.30305556  0.96908484  0.08394421  1
  Na  Na6  1  0.69988506  0.03382183  0.91773742  1
  Na  Na7  1  0.96827167  0.29784481  0.41542084  1
  Na  Na8  1  0.33156046  0.03375794  0.41580354  1
  Na  Na9  1  0.99326563  0.99876569  0.49972080  1
  Na  Na10  1  0.00015499  0.99999982  0.00102025  1
  Na  Na11  1  0.65985545  0.33227058  0.83405328  1
  Na  Na12  1  0.66691132  0.33300063  0.33085166  1
  Na  Na13  1  0.33981840  0.66753648  0.16494381  1
  Na  Na14  1  0.33999561  0.67350980  0.66569814  1
  Hf  Hf0  1  0.99542043  0.99514090  0.35304340  1
  Hf  Hf1  1  0.66100093  0.32693798  0.68621377  1
  Hf  Hf2  1  0.66639856  0.32838862  0.18491407  1
  Nb  Nb0  1  0.00530114  0.00013958  0.85509964  1
  Nb  Nb1  1  0.00022900  0.00418385  0.64516803  1
  Nb  Nb2  1  0.99381715  0.99965553  0.14524586  1
  Nb  Nb3  1  0.66784511  0.33892392  0.98011008  1
  Nb  Nb4  1  0.66673060  0.33734823  0.48077326  1
  Nb  Nb5  1  0.33226568  0.66138400  0.02079490  1
  Nb  Nb6  1  0.33803793  0.66667909  0.52106141  1
  Nb  Nb7  1  0.33701131  0.67037024  0.31236918  1
  Nb  Nb8  1  0.33337166  0.67065113  0.81409919  1
  Si  Si0  1  0.29108419  0.00110412  0.25008266  1
  Si  Si1  1  0.70832760  0.70950497  0.24976542  1
  Si  Si2  1  0.99604470  0.28835995  0.25116550  1
  Si  Si3  1  0.29083392  0.28832898  0.75053639  1
  Si  Si4  1  0.00383320  0.71411973  0.74942790  1
  Si  Si5  1  0.71108308  0.00004389  0.75111696  1
  Si  Si6  1  0.95584097  0.33101877  0.58345384  1
  Si  Si7  1  0.37585279  0.04278215  0.58293297  1
  Si  Si8  1  0.66401112  0.62402102  0.58508464  1
  Si  Si9  1  0.95771237  0.62402131  0.08420248  1
  Si  Si10  1  0.66854963  0.04315632  0.08167171  1
  Si  Si11  1  0.37707285  0.33571360  0.08432838  1
  Si  Si12  1  0.62102994  0.66310369  0.91632448  1
  Si  Si13  1  0.04336323  0.37785077  0.91650957  1
  Si  Si14  1  0.33149537  0.95642909  0.91850480  1
  Si  Si15  1  0.62502599  0.95608789  0.41743986  1
  Si  Si16  1  0.33730607  0.37986208  0.41648224  1
  Si  Si17  1  0.04350177  0.66654578  0.41741691  1
  O  O0  1  0.20666708  0.03237071  0.30865728  1
  O  O1  1  0.83114609  0.79518701  0.30585006  1
  O  O2  1  0.97304172  0.17868413  0.30991826  1
  O  O3  1  0.19053151  0.16631908  0.80700291  1
  O  O4  1  0.97090241  0.80880532  0.80564690  1
  O  O5  1  0.83153264  0.02875756  0.80867572  1
  O  O6  1  0.80470331  0.96524134  0.69437015  1
  O  O7  1  0.16197386  0.19564587  0.69414144  1
  O  O8  1  0.03051493  0.83141185  0.69104397  1
  O  O9  1  0.80461481  0.83474669  0.19262902  1
  O  O10  1  0.03457457  0.19566362  0.19461310  1
  O  O11  1  0.16612987  0.96430955  0.19228400  1
  O  O12  1  0.87712754  0.37212715  0.64115285  1
  O  O13  1  0.49456367  0.12796216  0.63926410  1
  O  O14  1  0.63592715  0.51149206  0.64308692  1
  O  O15  1  0.87784232  0.51240869  0.14250942  1
  O  O16  1  0.62615247  0.12447332  0.13773812  1
  O  O17  1  0.48827500  0.36560618  0.14271949  1
  O  O18  1  0.47193363  0.30093891  0.02758058  1
  O  O19  1  0.83304301  0.52669731  0.02703940  1
  O  O20  1  0.69502049  0.16147304  0.02316418  1
  O  O21  1  0.46719919  0.16194052  0.52424753  1
  O  O22  1  0.69804904  0.52871732  0.52807920  1
  O  O23  1  0.83652817  0.30534851  0.52500694  1
  O  O24  1  0.52862539  0.70027374  0.97156706  1
  O  O25  1  0.16748856  0.47330392  0.97226208  1
  O  O26  1  0.30467301  0.83809694  0.97546081  1
  O  O27  1  0.52412243  0.83343687  0.47349696  1
  O  O28  1  0.30413149  0.47492717  0.47219454  1
  O  O29  1  0.16469118  0.69454353  0.47453746  1
  O  O30  1  0.13293465  0.63171674  0.35930798  1
  O  O31  1  0.49540304  0.86248350  0.36099256  1
  O  O32  1  0.36353219  0.49840864  0.35819040  1
  O  O33  1  0.13559198  0.49606989  0.85794596  1
  O  O34  1  0.36404220  0.86095912  0.86128452  1
  O  O35  1  0.50340888  0.63852123  0.85761205  1
  O  O36  1  0.03453759  0.83965804  0.41258056  1
  O  O37  1  0.81476436  0.98562638  0.41329196  1
  O  O38  1  0.16759591  0.19207759  0.41262428  1
  O  O39  1  0.01727564  0.18553127  0.90965204  1
  O  O40  1  0.16302337  0.97469569  0.90918095  1
  O  O41  1  0.80601936  0.83944160  0.90896569  1
  O  O42  1  0.97561635  0.16186196  0.58994476  1
  O  O43  1  0.18280375  0.01637813  0.58939297  1
  O  O44  1  0.84155481  0.80971027  0.58916636  1
  O  O45  1  0.98502705  0.81812581  0.08891267  1
  O  O46  1  0.83819017  0.02410950  0.08942768  1
  O  O47  1  0.19062760  0.15839227  0.08944585  1
  O  O48  1  0.70221758  0.17307566  0.74530489  1
  O  O49  1  0.48130601  0.31870441  0.74633920  1
  O  O50  1  0.83405794  0.52575261  0.74547935  1
  O  O51  1  0.68604967  0.52105397  0.24369360  1
  O  O52  1  0.83865696  0.32276574  0.24482699  1
  O  O53  1  0.47551052  0.17217774  0.24458149  1
  O  O54  1  0.64081975  0.49506440  0.92365057  1
  O  O55  1  0.85148190  0.35102790  0.92303699  1
  O  O56  1  0.50789053  0.14114995  0.92299072  1
  O  O57  1  0.63661383  0.14333456  0.42346774  1
  O  O58  1  0.50377171  0.35524931  0.42383313  1
  O  O59  1  0.85836921  0.48925793  0.42370068  1
  O  O60  1  0.35502529  0.50220657  0.07420129  1
  O  O61  1  0.15064652  0.65305099  0.07462665  1
  O  O62  1  0.49481059  0.85574613  0.07379320  1
  O  O63  1  0.34531857  0.84870733  0.57493731  1
  O  O64  1  0.49746693  0.64510564  0.57507546  1
  O  O65  1  0.14225791  0.50500506  0.57436296  1
  O  O66  1  0.29913288  0.82307823  0.25710642  1
  O  O67  1  0.51668898  0.68694049  0.25626507  1
  O  O68  1  0.17367001  0.47877707  0.25622512  1
  O  O69  1  0.30324011  0.47627944  0.75670102  1
  O  O70  1  0.16993640  0.68812015  0.75718957  1
  O  O71  1  0.52543251  0.82286786  0.75678670  1
loop_
_geom_bond_atom_site_label_1
_geom_bond_atom_site_label_2
_geom_bond_distance
_geom_bond_site_symmetry_2
Na0 O53 2.390661 1_555
Na0 O68 2.454578 1_555
Na0 O51 2.512237 1_555
Na0 O67 2.545229 1_555
Na0 O17 2.651506 1_555
Na0 O32 2.784002 1_555
Na0 O10 2.881868 1_555
Na0 O0 2.933825 1_555
Na1 O66 2.418714 1_655
Na1 O52 2.426376 1_555
Na1 O51 2.460157 1_555
Na1 O68 2.621474 1_655
Na1 O15 2.646835 1_555
Na1 O30 2.823928 1_655
Na1 O1 2.877703 1_555
Na1 O11 2.904651 1_655
Na2 O71 2.405658 1_555
Na2 O50 2.430670 1_555
Na2 O49 2.448626 1_555
Na2 O69 2.613080 1_555
Na2 O14 2.649979 1_555
Na2 O35 2.759282 1_555
Na2 O6 2.904253 1_555
Na2 O4 2.934455 1_555
Na3 O48 2.363014 1_555
Na3 O69 2.429964 1_655
Na3 O70 2.521440 1_655
Na3 O50 2.542783 1_555
Na3 O12 2.719883 1_555
Na3 O33 2.751053 1_655
Na3 O7 2.916987 1_655
Na3 O5 2.979017 1_555
Na4 O44 2.408747 1_455
Na4 O65 2.419210 1_555
Na4 O63 2.467413 1_555
Na4 O43 2.501724 1_565
Na4 O8 2.723963 1_555
Na4 O29 2.776426 1_555
Na4 O12 2.867363 1_455
Na4 O22 2.917506 1_455
Na5 O47 2.400506 1_565
Na5 O62 2.436121 1_555
Na5 O61 2.485475 1_555
Na5 O45 2.499178 1_455
Na5 O26 2.744096 1_554
Na5 O11 2.753378 1_555
Na5 O16 2.819509 1_565
Na5 O18 2.903548 1_565
Na6 O56 2.388091 1_555
Na6 O41 2.403693 1_545
Na6 O55 2.489040 1_555
Na6 O39 2.497980 1_655
Na6 O20 2.674912 1_556
Na6 O5 2.766677 1_555
Na6 O24 2.890408 1_545
Na6 O34 2.935309 1_545
Na7 O59 2.404217 1_555
Na7 O38 2.437663 1_655
Na7 O37 2.446883 1_545
Na7 O57 2.610949 1_555
Na7 O2 2.643528 1_555
Na7 O23 2.782963 1_555
Na7 O30 2.915337 1_655
Na7 O28 2.939277 1_655
Na8 O36 2.366465 1_545
Na8 O57 2.433455 1_555
Na8 O58 2.527110 1_555
Na8 O38 2.536106 1_555
Na8 O0 2.695450 1_555
Na8 O21 2.747178 1_555
Na8 O31 2.912467 1_545
Na8 O29 2.979588 1_545
Na9 O37 2.520787 1_555
Na9 O44 2.575020 1_555
Na9 O42 2.580923 1_565
Na9 O36 2.586389 1_655
Na9 O38 2.595872 1_665
Na9 O43 2.630035 1_665
Na10 O45 2.559972 1_455
Na10 O46 2.564529 1_465
Na10 O47 2.574066 1_565
Na10 O40 2.635236 1_554
Na10 O39 2.638080 1_564
Na10 O41 2.656499 1_454
Na11 O49 2.543048 1_555
Na11 O54 2.572332 1_555
Na11 O56 2.573849 1_555
Na11 O48 2.619243 1_555
Na11 O50 2.622036 1_555
Na11 O55 2.626943 1_555
Na12 O52 2.532568 1_555
Na12 O53 2.543986 1_555
Na12 O51 2.572104 1_555
Na12 O58 2.647467 1_555
Na12 O59 2.653379 1_555
Na12 O57 2.654118 1_555
Na13 O67 2.585736 1_555
Na13 O60 2.594872 1_555
Na13 O62 2.608981 1_555
Na13 O68 2.636043 1_555
Na13 O61 2.647242 1_555
Na13 O66 2.653527 1_555
Na14 O71 2.587574 1_555
Na14 O64 2.594193 1_555
Na14 O63 2.599882 1_555
Na14 O70 2.634142 1_555
Na14 O69 2.653636 1_555
Na14 O65 2.672246 1_555
Hf0 O1 1.986437 1_555
Hf0 O2 2.032694 1_565
Hf0 O0 2.038422 1_665
Hf0 O37 2.104604 1_555
Hf0 O36 2.116442 1_655
Hf0 O38 2.160368 1_665
Hf1 O13 1.984639 1_555
Hf1 O14 2.053372 1_555
Hf1 O12 2.062765 1_555
Hf1 O49 2.100246 1_555
Hf1 O48 2.108525 1_555
Hf1 O50 2.166216 1_555
Hf2 O16 2.004294 1_555
Hf2 O15 2.044907 1_555
Hf2 O17 2.053702 1_555
Hf2 O53 2.095483 1_555
Hf2 O52 2.100496 1_555
Hf2 O51 2.133297 1_555
Nb0 O3 1.937169 1_555
Nb0 O4 1.954881 1_445
Nb0 O40 1.993111 1_545
Nb0 O5 2.025633 1_455
Nb0 O39 2.046088 1_555
Nb0 O41 2.062123 1_445
Nb1 O7 1.962096 1_555
Nb1 O6 1.973371 1_445
Nb1 O42 2.004362 1_455
Nb1 O8 2.017907 1_545
Nb1 O43 2.044655 1_555
Nb1 O44 2.063090 1_445
Nb2 O9 1.941664 1_555
Nb2 O10 1.972041 1_665
Nb2 O46 1.999176 1_565
Nb2 O45 2.053928 1_555
Nb2 O11 2.054271 1_655
Nb2 O47 2.072527 1_665
Nb3 O19 1.929311 1_556
Nb3 O18 1.956537 1_556
Nb3 O20 2.006626 1_556
Nb3 O54 2.021980 1_555
Nb3 O55 2.070897 1_555
Nb3 O56 2.097035 1_555
Nb4 O22 1.935691 1_555
Nb4 O21 1.973691 1_555
Nb4 O23 1.985375 1_555
Nb4 O58 2.039362 1_555
Nb4 O59 2.050927 1_555
Nb4 O57 2.092493 1_555
Nb5 O25 1.949910 1_554
Nb5 O24 1.979953 1_554
Nb5 O60 1.981074 1_555
Nb5 O61 2.023317 1_555
Nb5 O26 2.029035 1_554
Nb5 O62 2.030910 1_555
Nb6 O27 1.935823 1_555
Nb6 O28 1.951581 1_555
Nb6 O64 1.987626 1_555
Nb6 O29 2.020048 1_555
Nb6 O63 2.028169 1_555
Nb6 O65 2.040551 1_555
Nb7 O31 1.951524 1_555
Nb7 O32 1.993185 1_555
Nb7 O30 2.009464 1_555
Nb7 O67 2.015439 1_555
Nb7 O66 2.029658 1_555
Nb7 O68 2.064354 1_555
Nb8 O34 1.928056 1_555
Nb8 O33 1.967300 1_555
Nb8 O35 1.979514 1_555
Nb8 O70 2.040490 1_555
Nb8 O71 2.057038 1_555
Nb8 O69 2.096276 1_555
O0 Si0 1.631504 1_555
O1 Si1 1.617021 1_555
O2 Si2 1.621137 1_555
O3 Si3 1.643637 1_555
O4 Si4 1.648683 1_655
O5 Si5 1.645853 1_555
O6 Si5 1.660368 1_565
O7 Si3 1.656261 1_555
O8 Si4 1.647071 1_555
O9 Si1 1.660486 1_555
O10 Si2 1.666513 1_455
O11 Si0 1.662292 1_565
O12 Si6 1.624738 1_555
O13 Si7 1.604416 1_555
O14 Si8 1.613362 1_555
O15 Si9 1.607619 1_555
O16 Si10 1.613186 1_555
O17 Si11 1.611995 1_555
O18 Si11 1.667107 1_555
O19 Si9 1.660427 1_555
O20 Si10 1.655057 1_555
O21 Si7 1.658064 1_555
O22 Si8 1.670442 1_555
O23 Si6 1.661160 1_555
O24 Si12 1.636856 1_555
O25 Si13 1.630038 1_555
O26 Si14 1.626064 1_555
O27 Si15 1.639813 1_555
O28 Si16 1.642828 1_555
O29 Si17 1.643037 1_555
O30 Si17 1.662360 1_555
O31 Si15 1.661588 1_555
O32 Si16 1.652701 1_555
O33 Si13 1.653804 1_555
O34 Si14 1.669228 1_555
O35 Si12 1.659005 1_555
O36 Si17 1.616035 1_555
O37 Si15 1.607131 1_555
O38 Si16 1.625084 1_555
O39 Si13 1.644111 1_555
O40 Si14 1.633805 1_555
O41 Si12 1.644238 1_555
O42 Si6 1.638500 1_555
O43 Si7 1.651389 1_555
O44 Si8 1.646441 1_555
O45 Si9 1.652045 1_555
O46 Si10 1.643976 1_555
O47 Si11 1.650955 1_555
O48 Si5 1.616585 1_555
O49 Si3 1.610961 1_555
O50 Si4 1.628462 1_655
O51 Si1 1.621597 1_555
O52 Si2 1.615531 1_555
O53 Si0 1.616223 1_555
O54 Si12 1.630451 1_555
O55 Si13 1.639581 1_655
O56 Si14 1.637490 1_545
O57 Si15 1.652318 1_545
O58 Si16 1.644116 1_555
O59 Si17 1.646574 1_655
O60 Si11 1.636615 1_555
O61 Si9 1.648941 1_455
O62 Si10 1.646375 1_565
O63 Si7 1.647081 1_565
O64 Si8 1.633475 1_555
O65 Si6 1.646135 1_455
O66 Si0 1.660245 1_565
O67 Si1 1.652619 1_555
O68 Si2 1.671255 1_455
O69 Si3 1.655565 1_555
O70 Si4 1.649438 1_555
O71 Si5 1.647441 1_565
