# generated using pymatgen
data_Ni3AgP3(HO6)2
_symmetry_space_group_name_H-M   'P 1'
_cell_length_a   8.53805723
_cell_length_b   8.53805723
_cell_length_c   6.51379443
_cell_angle_alpha   73.55731664
_cell_angle_beta   73.55731664
_cell_angle_gamma   91.15121759
_symmetry_Int_Tables_number   1
_chemical_formula_structural   Ni3AgP3(HO6)2
_chemical_formula_sum   'Ni6 Ag2 P6 H4 O24'
_cell_volume   434.20067459
_cell_formula_units_Z   2
loop_
 _symmetry_equiv_pos_site_id
 _symmetry_equiv_pos_as_xyz
  1  'x, y, z'
loop_
 _atom_site_type_symbol
 _atom_site_label
 _atom_site_symmetry_multiplicity
 _atom_site_fract_x
 _atom_site_fract_y
 _atom_site_fract_z
 _atom_site_occupancy
  Ni  Ni0  1  0.45012000  0.12513400  0.12264700  1
  Ni  Ni1  1  0.22474600  0.77525400  0.75000000  1
  Ni  Ni2  1  0.54988000  0.87486600  0.87735300  1
  Ni  Ni3  1  0.12513400  0.45012000  0.62264700  1
  Ni  Ni4  1  0.77525400  0.22474600  0.25000000  1
  Ni  Ni5  1  0.87486600  0.54988000  0.37735300  1
  Ag  Ag0  1  0.46047400  0.53952600  0.25000000  1
  Ag  Ag1  1  0.53952600  0.46047400  0.75000000  1
  P  P0  1  0.60887900  0.83493100  0.38694600  1
  P  P1  1  0.16506900  0.39112100  0.11305400  1
  P  P2  1  0.39112100  0.16506900  0.61305400  1
  P  P3  1  0.83493100  0.60887900  0.88694600  1
  P  P4  1  0.18128000  0.81872000  0.25000000  1
  P  P5  1  0.81872000  0.18128000  0.75000000  1
  H  H0  1  0.87778400  0.89243400  0.30814300  1
  H  H1  1  0.10756600  0.12221600  0.19185700  1
  H  H2  1  0.12221600  0.10756600  0.69185700  1
  H  H3  1  0.89243400  0.87778400  0.80814300  1
  O  O0  1  0.10024400  0.46337900  0.30856300  1
  O  O1  1  0.04435600  0.23095200  0.15704000  1
  O  O2  1  0.23095200  0.04435600  0.65704000  1
  O  O3  1  0.95564400  0.76904800  0.84296000  1
  O  O4  1  0.33750800  0.33742600  0.10466000  1
  O  O5  1  0.66257400  0.66249200  0.39534000  1
  O  O6  1  0.66249200  0.66257400  0.89534000  1
  O  O7  1  0.33742600  0.33750800  0.60466000  1
  O  O8  1  0.53662100  0.89975600  0.19143700  1
  O  O9  1  0.76904800  0.95564400  0.34296000  1
  O  O10  1  0.00241100  0.21364100  0.73319900  1
  O  O11  1  0.78635900  0.99758900  0.76680100  1
  O  O12  1  0.99758900  0.78635900  0.26680100  1
  O  O13  1  0.21364100  0.00241100  0.23319900  1
  O  O14  1  0.77929100  0.29074200  0.53659000  1
  O  O15  1  0.70925800  0.22070900  0.96341000  1
  O  O16  1  0.22070900  0.70925800  0.46341000  1
  O  O17  1  0.46337900  0.10024400  0.80856300  1
  O  O18  1  0.16907100  0.51540400  0.88641800  1
  O  O19  1  0.48459600  0.83092900  0.61358200  1
  O  O20  1  0.83092900  0.48459600  0.11358200  1
  O  O21  1  0.51540400  0.16907100  0.38641800  1
  O  O22  1  0.89975600  0.53662100  0.69143700  1
  O  O23  1  0.29074200  0.77929100  0.03659000  1
loop_
_geom_bond_atom_site_label_1
_geom_bond_atom_site_label_2
_geom_bond_distance
_geom_bond_site_symmetry_2
Ni0 O8 2.050720 1_545
Ni0 O4 2.058432 1_555
Ni0 O21 2.074151 1_555
Ni0 O13 2.087548 1_555
Ni0 O17 2.087961 1_554
Ni0 O15 2.187732 1_554
Ni1 O23 2.105880 1_556
Ni1 O16 2.105880 1_555
Ni1 O19 2.130786 1_555
Ni1 O18 2.130786 1_555
Ni1 O3 2.199502 1_455
Ni1 O2 2.199502 1_565
Ni2 O17 2.050720 1_565
Ni2 O6 2.058432 1_555
Ni2 O19 2.074151 1_555
Ni2 O11 2.087548 1_555
Ni2 O8 2.087961 1_556
Ni2 O23 2.187732 1_556
Ni3 O22 2.050720 1_455
Ni3 O7 2.058432 1_555
Ni3 O18 2.074151 1_555
Ni3 O10 2.087548 1_555
Ni3 O0 2.087961 1_555
Ni3 O16 2.187732 1_555
Ni4 O15 2.105880 1_554
Ni4 O14 2.105880 1_555
Ni4 O20 2.130786 1_555
Ni4 O21 2.130786 1_555
Ni4 O9 2.199502 1_545
Ni4 O1 2.199502 1_655
Ni5 O0 2.050720 1_655
Ni5 O5 2.058432 1_555
Ni5 O20 2.074151 1_555
Ni5 O12 2.087548 1_555
Ni5 O22 2.087961 1_555
Ni5 O14 2.187732 1_555
Ag0 O6 2.390225 1_554
Ag0 O7 2.390225 1_555
Ag0 O4 2.527987 1_555
Ag0 O5 2.527987 1_555
Ag1 O5 2.390225 1_555
Ag1 O4 2.390225 1_556
Ag1 O7 2.527987 1_555
Ag1 O6 2.527987 1_555
H0 O9 1.083902 1_555
H0 O12 1.399445 1_555
H1 O1 1.083902 1_555
H1 O13 1.399445 1_555
H2 O2 1.083902 1_555
H2 O10 1.399445 1_555
H3 O3 1.083902 1_555
H3 O11 1.399445 1_555
O0 P1 1.538912 1_555
O1 P1 1.602767 1_555
O2 P2 1.602767 1_555
O3 P3 1.602767 1_555
O4 P1 1.541609 1_555
O5 P0 1.541609 1_555
O6 P3 1.541609 1_555
O7 P2 1.541609 1_555
O8 P0 1.538912 1_555
O9 P0 1.602767 1_555
O10 P5 1.554473 1_455
O11 P5 1.554473 1_565
O12 P4 1.554473 1_655
O13 P4 1.554473 1_545
O14 P5 1.568847 1_555
O15 P5 1.568847 1_555
O16 P4 1.568847 1_555
O17 P2 1.538912 1_555
O18 P1 1.545861 1_556
O19 P0 1.545861 1_555
O20 P3 1.545861 1_554
O21 P2 1.545861 1_555
O22 P3 1.538912 1_555
O23 P4 1.568847 1_555
