# generated using pymatgen
data_MgMn12(O7F5)2
_symmetry_space_group_name_H-M   'P 1'
_cell_length_a   4.81839086
_cell_length_b   5.80300382
_cell_length_c   15.19009273
_cell_angle_alpha   88.81975080
_cell_angle_beta   91.33674056
_cell_angle_gamma   92.32609114
_symmetry_Int_Tables_number   1
_chemical_formula_structural   MgMn12(O7F5)2
_chemical_formula_sum   'Mg1 Mn12 O14 F10'
_cell_volume   424.18474742
_cell_formula_units_Z   1
loop_
 _symmetry_equiv_pos_site_id
 _symmetry_equiv_pos_as_xyz
  1  'x, y, z'
loop_
 _atom_site_type_symbol
 _atom_site_label
 _atom_site_symmetry_multiplicity
 _atom_site_fract_x
 _atom_site_fract_y
 _atom_site_fract_z
 _atom_site_occupancy
  Mg  Mg0  1  0.98454200  0.57729800  0.42252000  1
  Mn  Mn0  1  0.01979800  0.12258900  0.39780600  1
  Mn  Mn1  1  0.05854200  0.82256900  0.23133700  1
  Mn  Mn2  1  0.02862500  0.17635600  0.07738600  1
  Mn  Mn3  1  0.00674100  0.17585600  0.74641400  1
  Mn  Mn4  1  0.99152400  0.83850800  0.59541600  1
  Mn  Mn5  1  0.02457700  0.85745800  0.91305300  1
  Mn  Mn6  1  0.48885600  0.36147900  0.59319800  1
  Mn  Mn7  1  0.49316300  0.34277500  0.92038200  1
  Mn  Mn8  1  0.53012300  0.33608800  0.25105300  1
  Mn  Mn9  1  0.51965200  0.63038300  0.09032700  1
  Mn  Mn10  1  0.51855800  0.81771900  0.44339500  1
  Mn  Mn11  1  0.45191200  0.64850300  0.75248000  1
  O  O0  1  0.27368200  0.07708200  0.30290900  1
  O  O1  1  0.18185200  0.12478300  0.63761700  1
  O  O2  1  0.21785800  0.13013600  0.97024400  1
  O  O3  1  0.26522000  0.87501900  0.13084300  1
  O  O4  1  0.14312600  0.87624200  0.47404000  1
  O  O5  1  0.21458300  0.89010100  0.80023700  1
  O  O6  1  0.29567800  0.39589600  0.14783900  1
  O  O7  1  0.25557700  0.61577800  0.64694500  1
  O  O8  1  0.26291800  0.40334400  0.81355000  1
  O  O9  1  0.72163200  0.39014300  0.02628400  1
  O  O10  1  0.74479700  0.60533900  0.19220700  1
  O  O11  1  0.78019800  0.33907600  0.35239400  1
  O  O12  1  0.73621100  0.60973400  0.53037900  1
  O  O13  1  0.69821200  0.39518200  0.69816400  1
  F  F0  1  0.27914300  0.60516100  0.32900200  1
  F  F1  1  0.24664800  0.36840000  0.47981800  1
  F  F2  1  0.27938000  0.62391900  0.98214300  1
  F  F3  1  0.71001700  0.63304700  0.86074100  1
  F  F4  1  0.80630600  0.10961600  0.18423800  1
  F  F5  1  0.71420400  0.10450000  0.51090100  1
  F  F6  1  0.79978300  0.82280600  0.34137500  1
  F  F7  1  0.76691000  0.86902400  0.02418400  1
  F  F8  1  0.77297400  0.13514700  0.85395600  1
  F  F9  1  0.71647900  0.88818100  0.69605400  1
loop_
_geom_bond_atom_site_label_1
_geom_bond_atom_site_label_2
_geom_bond_distance
_geom_bond_site_symmetry_2
Mg0 O11 1.978997 1_555
Mg0 O4 2.031304 1_655
Mg0 O12 2.067352 1_555
Mn0 O11 1.852507 1_455
Mn0 O4 1.925193 1_545
Mn0 O0 1.941215 1_555
Mn1 O3 1.855207 1_555
Mn1 O10 2.015441 1_455
Mn1 O0 2.080194 1_565
Mn2 O2 1.912886 1_554
Mn2 O6 2.069533 1_555
Mn2 O9 2.094146 1_455
Mn2 O3 2.253205 1_545
Mn3 O1 1.906961 1_555
Mn3 O8 2.042253 1_555
Mn3 O13 2.105091 1_455
Mn3 O5 2.112312 1_545
Mn4 O1 1.975980 1_665
Mn4 O7 1.986794 1_655
Mn4 O4 2.003508 1_655
Mn4 O12 2.028936 1_555
Mn5 O5 1.963806 1_555
Mn5 O2 2.006272 1_565
Mn6 O13 1.876135 1_555
Mn6 O12 2.064829 1_555
Mn6 O7 2.082010 1_555
Mn6 O1 2.091310 1_555
Mn7 O2 1.931701 1_555
Mn7 O9 1.945830 1_556
Mn7 O8 1.977860 1_555
Mn8 O11 1.932557 1_555
Mn8 O6 1.944589 1_555
Mn8 O10 2.040753 1_555
Mn8 O0 2.062084 1_555
Mn9 O10 1.875675 1_555
Mn9 O6 1.911873 1_555
Mn9 O9 2.011781 1_555
Mn9 O3 2.027197 1_555
Mn10 O4 1.923564 1_555
Mn10 O12 2.067551 1_555
Mn11 O7 1.851513 1_555
Mn11 O8 1.895698 1_555
Mn11 O5 2.002568 1_555
Mn11 O13 2.118345 1_555
F0 Mg0 2.031028 1_455
F0 Mn1 2.209208 1_555
F0 Mn8 2.366168 1_555
F0 Mn10 2.398104 1_555
F1 Mg0 1.962539 1_455
F1 Mn6 2.058387 1_555
F1 Mn0 2.159757 1_555
F2 Mn9 1.988089 1_556
F2 Mn5 2.112287 1_555
F2 Mn7 2.201705 1_555
F3 Mn11 2.041233 1_555
F3 Mn5 2.109688 1_655
F3 Mn7 2.142041 1_555
F4 Mn2 1.988337 1_655
F4 Mn8 2.188170 1_555
F4 Mn1 2.199619 1_645
F5 Mn10 2.146522 1_545
F5 Mn0 2.286591 1_655
F5 Mn6 2.288479 1_555
F5 Mn4 2.412873 1_545
F6 Mg0 2.078694 1_555
F6 Mn10 2.081209 1_555
F6 Mn1 2.108520 1_655
F6 Mn0 2.180439 1_665
F7 Mn9 2.052128 1_555
F7 Mn5 2.122450 1_654
F7 Mn2 2.292005 1_665
F8 Mn3 2.010337 1_655
F8 Mn7 2.129080 1_555
F8 Mn5 2.218217 1_645
F9 Mn11 2.037681 1_555
F9 Mn4 2.078474 1_555
F9 Mn3 2.267432 1_665
