# generated using pymatgen
data_MgMoWS4
_symmetry_space_group_name_H-M   'P 1'
_cell_length_a   3.19850200
_cell_length_b   3.19848556
_cell_length_c   28.68348800
_cell_angle_alpha   90.00178138
_cell_angle_beta   90.00000000
_cell_angle_gamma   120.00017005
_symmetry_Int_Tables_number   1
_chemical_formula_structural   MgMoWS4
_chemical_formula_sum   'Mg1 Mo1 W1 S4'
_cell_volume   254.12820552
_cell_formula_units_Z   1
loop_
 _symmetry_equiv_pos_site_id
 _symmetry_equiv_pos_as_xyz
  1  'x, y, z'
loop_
 _atom_site_type_symbol
 _atom_site_label
 _atom_site_symmetry_multiplicity
 _atom_site_fract_x
 _atom_site_fract_y
 _atom_site_fract_z
 _atom_site_occupancy
  Mg  Mg0  1  0.66666200  0.33332200  0.29581400  1
  Mo  Mo0  1  0.33331400  0.66662800  0.14555400  1
  W  W0  1  0.66668900  0.33337800  0.46381000  1
  S  S0  1  0.33337200  0.66674400  0.51862000  1
  S  S1  1  0.66663400  0.33326800  0.09133500  1
  S  S2  1  0.66665600  0.33330900  0.20008200  1
  S  S3  1  0.33334100  0.66668300  0.40884100  1
loop_
_geom_bond_atom_site_label_1
_geom_bond_atom_site_label_2
_geom_bond_distance
_geom_bond_site_symmetry_2
Mg0 S2 2.745928 1_555
Mo0 S1 2.414258 1_565
Mo0 S1 2.414286 1_455
Mo0 S1 2.414286 1_555
Mo0 S2 2.419978 1_565
Mo0 S2 2.420001 1_455
Mo0 S2 2.420007 1_555
S0 W0 2.425200 1_565
S0 W0 2.425246 1_555
S0 W0 2.425246 1_455
S3 W0 2.428183 1_455
S3 W0 2.428185 1_555
S3 W0 2.428202 1_565
