# generated using pymatgen
data_NaTe3
_symmetry_space_group_name_H-M   'P 1'
_cell_length_a   9.08973171
_cell_length_b   9.08973227
_cell_length_c   22.12377296
_cell_angle_alpha   90.00000000
_cell_angle_beta   90.00000000
_cell_angle_gamma   119.99999799
_symmetry_Int_Tables_number   1
_chemical_formula_structural   NaTe3
_chemical_formula_sum   'Na12 Te36'
_cell_volume   1583.04036959
_cell_formula_units_Z   12
loop_
 _symmetry_equiv_pos_site_id
 _symmetry_equiv_pos_as_xyz
  1  'x, y, z'
loop_
 _atom_site_type_symbol
 _atom_site_label
 _atom_site_symmetry_multiplicity
 _atom_site_fract_x
 _atom_site_fract_y
 _atom_site_fract_z
 _atom_site_occupancy
  Na  Na0  1  -0.00000000  0.00000000  0.12368049  1
  Na  Na1  1  -0.00000000  0.00000000  0.37631951  1
  Na  Na2  1  -0.00000000  0.00000000  0.87631951  1
  Na  Na3  1  -0.00000000  0.00000000  0.62368049  1
  Na  Na4  1  0.33333300  0.66666700  0.95915128  1
  Na  Na5  1  0.66666700  0.33333300  0.54084872  1
  Na  Na6  1  0.66666700  0.33333300  0.04084872  1
  Na  Na7  1  0.33333300  0.66666700  0.45915128  1
  Na  Na8  1  0.33333300  0.66666700  0.20778032  1
  Na  Na9  1  0.66666700  0.33333300  0.29221968  1
  Na  Na10  1  0.66666700  0.33333300  0.79221968  1
  Na  Na11  1  0.33333300  0.66666700  0.70778032  1
  Te  Te0  1  0.79382690  0.66289749  0.20672656  1
  Te  Te1  1  0.33710251  0.13092941  0.20672656  1
  Te  Te2  1  0.86907059  0.20617310  0.20672656  1
  Te  Te3  1  0.13092941  0.33710251  0.29327344  1
  Te  Te4  1  0.20617310  0.86907059  0.29327344  1
  Te  Te5  1  0.66289749  0.79382690  0.29327344  1
  Te  Te6  1  0.20617310  0.33710251  0.79327344  1
  Te  Te7  1  0.66289749  0.86907059  0.79327344  1
  Te  Te8  1  0.13092941  0.79382690  0.79327344  1
  Te  Te9  1  0.86907059  0.66289749  0.70672656  1
  Te  Te10  1  0.79382690  0.13092941  0.70672656  1
  Te  Te11  1  0.33710251  0.20617310  0.70672656  1
  Te  Te12  1  0.67100390  0.84076556  0.54053059  1
  Te  Te13  1  0.15923444  0.83023834  0.54053059  1
  Te  Te14  1  0.16976166  0.32899610  0.54053059  1
  Te  Te15  1  0.83023834  0.15923444  0.95946941  1
  Te  Te16  1  0.32899610  0.16976166  0.95946941  1
  Te  Te17  1  0.84076556  0.67100390  0.95946941  1
  Te  Te18  1  0.32899610  0.15923444  0.45946941  1
  Te  Te19  1  0.84076556  0.16976166  0.45946941  1
  Te  Te20  1  0.83023834  0.67100390  0.45946941  1
  Te  Te21  1  0.16976166  0.84076556  0.04053059  1
  Te  Te22  1  0.67100390  0.83023834  0.04053059  1
  Te  Te23  1  0.15923444  0.32899610  0.04053059  1
  Te  Te24  1  0.00874025  0.52877955  0.62147908  1
  Te  Te25  1  0.47122045  0.47995971  0.62147908  1
  Te  Te26  1  0.52004029  0.99125975  0.62147908  1
  Te  Te27  1  0.47995971  0.47122045  0.87852092  1
  Te  Te28  1  0.99125975  0.52004029  0.87852092  1
  Te  Te29  1  0.52877955  0.00874025  0.87852092  1
  Te  Te30  1  0.99125975  0.47122045  0.37852092  1
  Te  Te31  1  0.52877955  0.52004029  0.37852092  1
  Te  Te32  1  0.47995971  0.00874025  0.37852092  1
  Te  Te33  1  0.52004029  0.52877955  0.12147908  1
  Te  Te34  1  0.00874025  0.47995971  0.12147908  1
  Te  Te35  1  0.47122045  0.99125975  0.12147908  1
loop_
_geom_bond_atom_site_label_1
_geom_bond_atom_site_label_2
_geom_bond_distance
_geom_bond_site_symmetry_2
Na0 Te21 3.177048 1_545
Na0 Te22 3.177048 1_445
Na0 Te23 3.177048 1_555
Na0 Te1 3.245681 1_555
Na0 Te2 3.245682 1_455
Na0 Te0 3.245682 1_445
Na1 Te18 3.177048 1_555
Na1 Te19 3.177048 1_455
Na1 Te20 3.177048 1_445
Na1 Te4 3.245681 1_545
Na1 Te5 3.245682 1_445
Na1 Te3 3.245682 1_555
Na2 Te15 3.177048 1_455
Na2 Te16 3.177048 1_555
Na2 Te17 3.177048 1_445
Na2 Te7 3.245681 1_445
Na2 Te8 3.245682 1_545
Na2 Te6 3.245682 1_555
Na3 Te12 3.177048 1_445
Na3 Te13 3.177048 1_545
Na3 Te14 3.177048 1_555
Na3 Te10 3.245681 1_455
Na3 Te11 3.245682 1_555
Na3 Te9 3.245682 1_445
Na4 Te21 3.210822 1_556
Na4 Te22 3.210828 1_556
Na4 Te23 3.210828 1_556
Na4 Te28 3.237654 1_455
Na4 Te27 3.237654 1_555
Na4 Te29 3.237655 1_565
Na5 Te19 3.210822 1_555
Na5 Te18 3.210828 1_555
Na5 Te20 3.210829 1_555
Na5 Te24 3.237654 1_655
Na5 Te25 3.237654 1_555
Na5 Te26 3.237655 1_545
Na6 Te15 3.210822 1_554
Na6 Te16 3.210828 1_554
Na6 Te17 3.210828 1_554
Na6 Te34 3.237654 1_655
Na6 Te33 3.237654 1_555
Na6 Te35 3.237655 1_545
Na7 Te13 3.210822 1_555
Na7 Te12 3.210828 1_555
Na7 Te14 3.210829 1_555
Na7 Te30 3.237654 1_455
Na7 Te31 3.237654 1_555
Na7 Te32 3.237655 1_565
Na8 Te35 3.197437 1_555
Na8 Te34 3.197438 1_555
Na8 Te33 3.197450 1_555
Na8 Te4 3.228756 1_555
Na8 Te3 3.228762 1_555
Na8 Te5 3.228763 1_555
Na9 Te30 3.197437 1_555
Na9 Te32 3.197438 1_555
Na9 Te31 3.197450 1_555
Na9 Te2 3.228756 1_555
Na9 Te1 3.228762 1_555
Na9 Te0 3.228763 1_555
Na10 Te29 3.197437 1_555
Na10 Te28 3.197438 1_555
Na10 Te27 3.197450 1_555
Na10 Te10 3.228756 1_555
Na10 Te9 3.228762 1_555
Na10 Te11 3.228763 1_555
Na11 Te24 3.197437 1_555
Na11 Te26 3.197438 1_555
Na11 Te25 3.197450 1_555
Na11 Te8 3.228756 1_555
Na11 Te7 3.228762 1_555
Na11 Te6 3.228763 1_555
Te0 Te5 2.813423 1_555
Te0 Te33 2.864025 1_555
Te1 Te4 2.813424 1_545
Te1 Te35 2.864031 1_545
Te2 Te3 2.813423 1_655
Te2 Te34 2.864025 1_655
Te3 Te30 2.864031 1_455
Te8 Te9 2.813423 1_455
Te10 Te7 2.813424 1_545
Te10 Te26 2.864025 1_545
Te11 Te6 2.813423 1_555
Te11 Te25 2.864025 1_555
Te24 Te9 2.864031 1_455
Te27 Te6 2.864025 1_555
Te28 Te8 2.864025 1_655
Te29 Te7 2.864031 1_545
Te31 Te5 2.864025 1_555
Te32 Te4 2.864025 1_545
