# generated using pymatgen
data_In2(Ni7P2)3
_symmetry_space_group_name_H-M   'P 1'
_cell_length_a   7.77586642
_cell_length_b   7.77599951
_cell_length_c   7.77597427
_cell_angle_alpha   60.00484206
_cell_angle_beta   60.00602951
_cell_angle_gamma   60.00580611
_symmetry_Int_Tables_number   1
_chemical_formula_structural   In2(Ni7P2)3
_chemical_formula_sum   'In2 Ni21 P6'
_cell_volume   332.50606130
_cell_formula_units_Z   1
loop_
 _symmetry_equiv_pos_site_id
 _symmetry_equiv_pos_as_xyz
  1  'x, y, z'
loop_
 _atom_site_type_symbol
 _atom_site_label
 _atom_site_symmetry_multiplicity
 _atom_site_fract_x
 _atom_site_fract_y
 _atom_site_fract_z
 _atom_site_occupancy
  In  In0  1  0.75000088  0.75000743  0.75000505  1
  In  In1  1  0.25000011  0.24999155  0.24999566  1
  Ni  Ni0  1  0.38487836  0.84538511  0.38486742  1
  Ni  Ni1  1  0.38487841  0.38487217  0.84538078  1
  Ni  Ni2  1  0.34820570  -0.00000761  0.65180901  1
  Ni  Ni3  1  0.00000080  0.34820192  0.65179456  1
  Ni  Ni4  1  0.15462089  0.61512796  0.61511480  1
  Ni  Ni5  1  0.65180174  0.00000323  0.00000666  1
  Ni  Ni6  1  0.84537904  0.38487862  0.38487457  1
  Ni  Ni7  1  0.65179525  0.34819664  0.00000277  1
  Ni  Ni8  1  0.00000522  0.34817547  0.00000215  1
  Ni  Ni9  1  0.34819092  0.65181415  -0.00000320  1
  Ni  Ni10  1  -0.00000484  -0.00000660  0.34817966  1
  Ni  Ni11  1  0.61511883  0.15461385  0.61512711  1
  Ni  Ni12  1  0.65180861  -0.00000633  0.34820175  1
  Ni  Ni13  1  0.00000599  0.65181664  0.00000934  1
  Ni  Ni14  1  0.61511247  0.61513568  0.15461760  1
  Ni  Ni15  1  0.00001030  -0.00001540  0.00001445  1
  Ni  Ni16  1  -0.00000254  0.65181315  0.34819028  1
  Ni  Ni17  1  0.34818907  -0.00000667  -0.00000483  1
  Ni  Ni18  1  0.00000252  0.00000340  0.65181092  1
  Ni  Ni19  1  0.38487440  0.38487607  0.38487414  1
  Ni  Ni20  1  0.61512053  0.61513628  0.61512113  1
  P  P0  1  0.26187066  0.26186497  0.73813774  1
  P  P1  1  0.26186847  0.73813519  0.26186624  1
  P  P2  1  0.73814007  0.26186342  0.26186769  1
  P  P3  1  0.26186417  0.73813518  0.73813664  1
  P  P4  1  0.73813305  0.26186265  0.73813448  1
  P  P5  1  0.73813092  0.73813187  0.26186643  1
loop_
_geom_bond_atom_site_label_1
_geom_bond_atom_site_label_2
_geom_bond_distance
_geom_bond_site_symmetry_2
In0 Ni20 2.568936 1_555
In0 Ni11 2.569045 1_565
In0 Ni14 2.569081 1_556
In0 Ni4 2.569118 1_655
In0 Ni18 2.991869 1_665
In0 Ni5 2.991905 1_566
In0 Ni13 2.991945 1_656
In0 Ni2 2.991973 1_565
In0 Ni12 2.992023 1_565
In0 Ni9 2.992072 1_556
In0 Ni17 2.992122 1_566
In0 Ni7 2.992132 1_556
In0 Ni10 2.992136 1_665
In0 Ni3 2.992161 1_655
In0 Ni16 2.992162 1_655
In0 Ni8 2.992221 1_656
In1 Ni19 2.568948 1_555
In1 Ni0 2.569045 1_545
In1 Ni1 2.569096 1_554
In1 Ni6 2.569125 1_455
In1 Ni8 2.991828 1_555
In1 Ni10 2.991937 1_555
In1 Ni17 2.991945 1_555
In1 Ni7 2.992016 1_555
In1 Ni5 2.992096 1_555
In1 Ni12 2.992096 1_555
In1 Ni3 2.992115 1_555
In1 Ni18 2.992124 1_555
In1 Ni13 2.992126 1_555
In1 Ni2 2.992136 1_555
In1 Ni9 2.992158 1_555
In1 Ni16 2.992211 1_555
Ni0 P1 2.243886 1_555
Ni0 P5 2.244073 1_555
Ni0 P3 2.244192 1_555
Ni1 P0 2.243869 1_555
Ni1 P4 2.244087 1_555
Ni1 P3 2.244156 1_555
Ni2 P3 2.144072 1_545
Ni2 P0 2.144132 1_555
Ni3 P4 2.144090 1_455
Ni3 P0 2.144126 1_555
Ni4 P3 2.243963 1_555
Ni4 P1 2.244058 1_555
Ni4 P0 2.244152 1_555
Ni5 P5 2.144184 1_545
Ni5 P4 2.144195 1_554
Ni6 P2 2.243892 1_555
Ni6 P5 2.244090 1_555
Ni6 P4 2.244131 1_555
Ni7 P4 2.144116 1_554
Ni7 P2 2.144122 1_555
Ni8 P2 2.144165 1_455
Ni8 P0 2.144185 1_554
Ni9 P3 2.144028 1_554
Ni9 P1 2.144099 1_555
Ni10 P2 2.144119 1_455
Ni10 P1 2.144180 1_545
Ni10 Ni15 2.707299 1_555
Ni11 P4 2.243946 1_555
Ni11 P0 2.244045 1_555
Ni11 P2 2.244129 1_555
Ni12 P2 2.144099 1_555
Ni12 P5 2.144116 1_545
Ni12 Ni15 2.707779 1_655
Ni13 P3 2.144164 1_554
Ni13 P5 2.144184 1_455
Ni13 Ni15 2.707391 1_565
Ni14 P5 2.243903 1_555
Ni14 P1 2.244019 1_555
Ni14 P2 2.244214 1_555
Ni15 Ni17 2.707351 1_555
Ni15 Ni8 2.707464 1_555
Ni15 Ni18 2.707579 1_554
Ni15 Ni5 2.707581 1_455
Ni15 Ni16 2.707592 1_545
Ni15 Ni9 2.707627 1_545
Ni15 Ni2 2.707825 1_554
Ni15 Ni7 2.707923 1_455
Ni15 Ni3 2.707941 1_554
Ni15 P1 2.879670 1_545
Ni15 P5 2.879807 1_445
Ni15 P3 2.879842 1_544
Ni15 P0 2.879854 1_554
Ni15 P2 2.879868 1_455
Ni15 P4 2.879930 1_454
Ni16 P5 2.144052 1_455
Ni16 P1 2.144069 1_555
Ni17 P0 2.144147 1_554
Ni17 P1 2.144160 1_545
Ni18 P3 2.144181 1_545
Ni18 P4 2.144200 1_455
Ni19 P1 2.244136 1_555
Ni19 P0 2.244162 1_555
Ni19 P2 2.244169 1_555
Ni20 P5 2.244105 1_555
Ni20 P3 2.244110 1_555
Ni20 P4 2.244229 1_555
