# generated using pymatgen
data_Li2SnP2O7
_symmetry_space_group_name_H-M   'P 1'
_cell_length_a   5.10163400
_cell_length_b   9.09699800
_cell_length_c   15.17579300
_cell_angle_alpha   62.58045219
_cell_angle_beta   90.00000000
_cell_angle_gamma   90.00000000
_symmetry_Int_Tables_number   1
_chemical_formula_structural   Li2SnP2O7
_chemical_formula_sum   'Li8 Sn4 P8 O28'
_cell_volume   625.17934673
_cell_formula_units_Z   4
loop_
 _symmetry_equiv_pos_site_id
 _symmetry_equiv_pos_as_xyz
  1  'x, y, z'
loop_
 _atom_site_type_symbol
 _atom_site_label
 _atom_site_symmetry_multiplicity
 _atom_site_fract_x
 _atom_site_fract_y
 _atom_site_fract_z
 _atom_site_occupancy
  Li  Li0  1  0.70701400  0.50405900  0.92722100  1
  Li  Li1  1  0.22859700  0.09062700  0.78945500  1
  Li  Li2  1  0.72859700  0.90937300  0.71054500  1
  Li  Li3  1  0.20701400  0.49594100  0.57277900  1
  Li  Li4  1  0.79298600  0.50405900  0.42722100  1
  Li  Li5  1  0.27140300  0.09062700  0.28945500  1
  Li  Li6  1  0.77140300  0.90937300  0.21054500  1
  Li  Li7  1  0.29298600  0.49594100  0.07277900  1
  Sn  Sn0  1  0.75314200  0.79998400  0.98295200  1
  Sn  Sn1  1  0.74685800  0.79998400  0.48295200  1
  Sn  Sn2  1  0.25314200  0.20001600  0.51704800  1
  Sn  Sn3  1  0.24685800  0.20001600  0.01704800  1
  P  P0  1  0.74768200  0.20340400  0.86976400  1
  P  P1  1  0.21475500  0.70735700  0.83962300  1
  P  P2  1  0.24768200  0.79659600  0.63023600  1
  P  P3  1  0.71475500  0.29264300  0.66037700  1
  P  P4  1  0.28524500  0.70735700  0.33962300  1
  P  P5  1  0.75231800  0.20340400  0.36976400  1
  P  P6  1  0.78524500  0.29264300  0.16037700  1
  P  P7  1  0.25231800  0.79659600  0.13023600  1
  O  O0  1  0.84105300  0.29653100  0.92714500  1
  O  O1  1  0.45921000  0.15091900  0.88755100  1
  O  O2  1  0.32109600  0.55247200  0.92804300  1
  O  O3  1  0.91307800  0.71981200  0.84362100  1
  O  O4  1  0.92975200  0.05406900  0.89197000  1
  O  O5  1  0.78460500  0.33187800  0.75413400  1
  O  O6  1  0.35751400  0.86709200  0.81942500  1
  O  O7  1  0.28460500  0.66812200  0.74586600  1
  O  O8  1  0.82109600  0.44752800  0.57195700  1
  O  O9  1  0.85751400  0.13290800  0.68057500  1
  O  O10  1  0.95921000  0.84908100  0.61244900  1
  O  O11  1  0.34105300  0.70346900  0.57285500  1
  O  O12  1  0.42975200  0.94593100  0.60803000  1
  O  O13  1  0.41307800  0.28018800  0.65637900  1
  O  O14  1  0.58692200  0.71981200  0.34362100  1
  O  O15  1  0.57024800  0.05406900  0.39197000  1
  O  O16  1  0.65894700  0.29653100  0.42714500  1
  O  O17  1  0.04079000  0.15091900  0.38755100  1
  O  O18  1  0.14248600  0.86709200  0.31942500  1
  O  O19  1  0.17890400  0.55247200  0.42804300  1
  O  O20  1  0.71539500  0.33187800  0.25413400  1
  O  O21  1  0.64248600  0.13290800  0.18057500  1
  O  O22  1  0.21539500  0.66812200  0.24586600  1
  O  O23  1  0.07024800  0.94593100  0.10803000  1
  O  O24  1  0.08692200  0.28018800  0.15637900  1
  O  O25  1  0.67890400  0.44752800  0.07195700  1
  O  O26  1  0.54079000  0.84908100  0.11244900  1
  O  O27  1  0.15894700  0.70346900  0.07285500  1
loop_
_geom_bond_atom_site_label_1
_geom_bond_atom_site_label_2
_geom_bond_distance
_geom_bond_site_symmetry_2
Li0 O0 2.008410 1_555
Li0 O25 2.017234 1_556
Li0 O2 2.018762 1_555
Li0 O3 2.067264 1_555
Li1 O6 1.980584 1_545
Li1 O4 2.092565 1_455
Li1 O1 2.157122 1_555
Li1 O13 2.174975 1_555
Li1 O9 2.424206 1_455
Li2 O9 1.980584 1_565
Li2 O12 2.092565 1_555
Li2 O10 2.157122 1_555
Li2 O3 2.174975 1_555
Li2 O6 2.424206 1_555
Li3 O11 2.008410 1_555
Li3 O19 2.017234 1_555
Li3 O8 2.018762 1_455
Li3 O13 2.067264 1_555
Li4 O16 2.008410 1_555
Li4 O8 2.017234 1_555
Li4 O19 2.018762 1_655
Li4 O14 2.067264 1_555
Li5 O18 1.980584 1_545
Li5 O15 2.092565 1_555
Li5 O17 2.157122 1_555
Li5 O24 2.174975 1_555
Li5 O21 2.424206 1_555
Li6 O21 1.980584 1_565
Li6 O23 2.092565 1_655
Li6 O26 2.157122 1_555
Li6 O14 2.174975 1_555
Li6 O18 2.424206 1_655
Li7 O27 2.008410 1_555
Li7 O2 2.017234 1_554
Li7 O25 2.018762 1_555
Li7 O24 2.067264 1_555
O0 P0 1.543488 1_555
O0 Sn3 2.411446 1_656
O1 P0 1.532307 1_555
O1 Sn3 2.458374 1_556
O2 P1 1.529321 1_555
O3 P1 1.546451 1_655
O3 Sn0 2.662500 1_555
O4 P0 1.549263 1_555
O4 Sn0 2.263074 1_545
O5 P0 1.609907 1_555
O5 P3 1.657276 1_555
O6 P1 1.525020 1_555
O7 P2 1.609907 1_555
O7 P1 1.657276 1_555
O8 P3 1.529321 1_555
O9 P3 1.525020 1_555
O10 P2 1.532307 1_655
O10 Sn1 2.458374 1_555
O11 P2 1.543488 1_555
O11 Sn1 2.411446 1_555
O12 P2 1.549263 1_555
O12 Sn2 2.263074 1_565
O13 P3 1.546451 1_555
O13 Sn2 2.662500 1_555
O14 P4 1.546451 1_555
O14 Sn1 2.662500 1_555
O15 P5 1.549263 1_555
O15 Sn1 2.263074 1_545
O16 P5 1.543488 1_555
O16 Sn2 2.411446 1_555
O17 P5 1.532307 1_455
O17 Sn2 2.458374 1_555
O18 P4 1.525020 1_555
O19 P4 1.529321 1_555
O20 P5 1.609907 1_555
O20 P6 1.657276 1_555
O21 P6 1.525020 1_555
O22 P7 1.609907 1_555
O22 P4 1.657276 1_555
O23 P7 1.549263 1_555
O23 Sn3 2.263074 1_565
O24 P6 1.546451 1_455
O24 Sn3 2.662500 1_555
O25 P6 1.529321 1_555
O26 P7 1.532307 1_555
O26 Sn0 2.458374 1_554
O27 P7 1.543488 1_555
O27 Sn0 2.411446 1_454
