# generated using pymatgen
data_MgMn6(O5F)2
_symmetry_space_group_name_H-M   'P 1'
_cell_length_a   5.13708570
_cell_length_b   7.49491756
_cell_length_c   5.78683424
_cell_angle_alpha   98.77263578
_cell_angle_beta   99.74182563
_cell_angle_gamma   84.22792678
_symmetry_Int_Tables_number   1
_chemical_formula_structural   MgMn6(O5F)2
_chemical_formula_sum   'Mg1 Mn6 O10 F2'
_cell_volume   216.38290667
_cell_formula_units_Z   1
loop_
 _symmetry_equiv_pos_site_id
 _symmetry_equiv_pos_as_xyz
  1  'x, y, z'
loop_
 _atom_site_type_symbol
 _atom_site_label
 _atom_site_symmetry_multiplicity
 _atom_site_fract_x
 _atom_site_fract_y
 _atom_site_fract_z
 _atom_site_occupancy
  Mg  Mg0  1  0.50809194  0.16989139  0.17693876  1
  Mn  Mn0  1  0.54985470  0.67099362  0.14031503  1
  Mn  Mn1  1  0.38837758  0.95561766  0.54049300  1
  Mn  Mn2  1  0.56396363  0.36770565  0.76528385  1
  Mn  Mn3  1  0.98045221  0.66115644  0.67269990  1
  Mn  Mn4  1  0.00854458  0.32446808  0.32201719  1
  Mn  Mn5  1  0.01461105  0.98318538  0.00927142  1
  O  O0  1  0.86611721  0.41791796  0.61029821  1
  O  O1  1  0.85272837  0.75459223  0.95964068  1
  O  O2  1  0.88437302  0.09406949  0.29781524  1
  O  O3  1  0.65996375  0.74457496  0.47566305  1
  O  O4  1  0.67371844  0.40963052  0.12253113  1
  O  O5  1  0.33728682  0.57969115  0.83847812  1
  O  O6  1  0.35701250  0.24008288  0.48995772  1
  O  O7  1  0.35335673  0.91208950  0.17670423  1
  O  O8  1  0.13537812  0.22187455  0.03365639  1
  O  O9  1  0.11148917  0.89568962  0.71155703  1
  F  F0  1  0.63701884  0.08899519  0.84966566  1
  F  F1  1  0.13155033  0.57027374  0.36653840  1
loop_
_geom_bond_atom_site_label_1
_geom_bond_atom_site_label_2
_geom_bond_distance
_geom_bond_site_symmetry_2
Mg0 O8 1.979005 1_555
Mg0 O2 1.997848 1_555
Mg0 O6 2.064751 1_555
Mg0 O4 2.149968 1_555
Mg0 O7 2.161719 1_545
Mn0 O3 1.937744 1_555
Mn0 O5 1.962606 1_554
Mn0 O7 1.979265 1_555
Mn0 O4 1.990651 1_555
Mn0 O1 2.202937 1_554
Mn1 O9 1.986339 1_555
Mn1 O3 2.035041 1_555
Mn1 O7 2.060278 1_555
Mn1 O6 2.182253 1_565
Mn2 O5 1.910289 1_555
Mn2 O6 1.936524 1_555
Mn2 O0 2.011685 1_555
Mn2 O4 2.033104 1_556
Mn3 O1 1.897285 1_555
Mn3 O9 1.913058 1_655
Mn3 O0 1.934345 1_555
Mn3 O3 1.943365 1_555
Mn3 O5 2.002937 1_655
Mn4 O2 1.877755 1_455
Mn4 O8 1.917319 1_555
Mn4 O0 1.939712 1_455
Mn4 O6 1.979896 1_555
Mn4 O4 2.007611 1_455
Mn5 O9 1.877695 1_554
Mn5 O7 1.910830 1_555
Mn5 O8 1.929189 1_565
Mn5 O1 1.940378 1_454
Mn5 O2 1.941472 1_465
F0 Mg0 2.094394 1_556
F0 Mn5 2.133590 1_646
F0 Mn1 2.183961 1_545
F0 Mn2 2.198697 1_555
F1 Mn4 1.973320 1_555
F1 Mn3 2.048498 1_455
