# generated using pymatgen
data_KMgMn4O8
_symmetry_space_group_name_H-M   'P 1'
_cell_length_a   3.20532437
_cell_length_b   7.60832491
_cell_length_c   7.67065947
_cell_angle_alpha   87.01190500
_cell_angle_beta   75.77082516
_cell_angle_gamma   77.77786038
_symmetry_Int_Tables_number   1
_chemical_formula_structural   KMgMn4O8
_chemical_formula_sum   'K1 Mg1 Mn4 O8'
_cell_volume   177.21649031
_cell_formula_units_Z   1
loop_
 _symmetry_equiv_pos_site_id
 _symmetry_equiv_pos_as_xyz
  1  'x, y, z'
loop_
 _atom_site_type_symbol
 _atom_site_label
 _atom_site_symmetry_multiplicity
 _atom_site_fract_x
 _atom_site_fract_y
 _atom_site_fract_z
 _atom_site_occupancy
  K  K0  1  0.50014200  0.99899600  0.00329500  1
  Mg  Mg0  1  0.24193300  0.49917400  0.51003300  1
  Mn  Mn0  1  0.73887100  0.52042400  0.16807700  1
  Mn  Mn1  1  0.09898800  0.16494900  0.46912100  1
  Mn  Mn2  1  0.72270200  0.83602900  0.51739100  1
  Mn  Mn3  1  0.44464000  0.47368800  0.83897800  1
  O  O0  1  0.78316800  0.63993900  0.69154400  1
  O  O1  1  0.47386900  0.69343700  0.36888500  1
  O  O2  1  0.57551900  0.31120800  0.63185100  1
  O  O3  1  0.16435900  0.37441000  0.30600900  1
  O  O4  1  0.26151000  0.63274800  0.04798900  1
  O  O5  1  0.69627200  0.03939600  0.35482800  1
  O  O6  1  0.96035500  0.35969800  0.96429800  1
  O  O7  1  0.08766300  0.95591100  0.62770100  1
loop_
_geom_bond_atom_site_label_1
_geom_bond_atom_site_label_2
_geom_bond_distance
_geom_bond_site_symmetry_2
K0 O5 2.960124 1_565
K0 O6 2.961901 1_464
K0 O7 3.020630 1_654
K0 O4 3.023458 1_555
K0 O5 3.215616 1_465
K0 O6 3.347899 1_564
K0 O4 3.357144 1_655
Mg0 O0 1.931330 1_455
Mg0 O2 1.940634 1_555
Mg0 O1 1.952476 1_555
Mg0 O3 1.964238 1_555
Mn0 O6 1.931034 1_554
Mn0 O1 1.980314 1_555
Mn0 O4 1.994298 1_555
Mn0 O4 2.037334 1_655
Mn0 O3 2.039343 1_655
Mn0 O3 2.351704 1_555
Mn1 O7 1.952302 1_545
Mn1 O5 1.958120 1_555
Mn1 O2 1.984027 1_455
Mn1 O3 1.988387 1_555
Mn1 O5 2.124405 1_455
Mn2 O5 1.936869 1_565
Mn2 O0 1.960864 1_555
Mn2 O7 1.983738 1_655
Mn2 O1 2.013115 1_555
Mn2 O7 2.034417 1_555
Mn2 O1 2.438508 1_655
Mn3 O4 1.954067 1_556
Mn3 O6 1.958410 1_455
Mn3 O0 1.971059 1_555
Mn3 O2 1.971294 1_555
Mn3 O6 2.120379 1_555
