# generated using pymatgen
data_Na7Ti3ZnSi3(PO8)3
_symmetry_space_group_name_H-M   'P 1'
_cell_length_a   8.98140031
_cell_length_b   8.97600227
_cell_length_c   21.91045137
_cell_angle_alpha   90.00933996
_cell_angle_beta   90.27006048
_cell_angle_gamma   119.97291927
_symmetry_Int_Tables_number   1
_chemical_formula_structural   Na7Ti3ZnSi3(PO8)3
_chemical_formula_sum   'Na21 Ti9 Zn3 Si9 P9 O72'
_cell_volume   1530.10330023
_cell_formula_units_Z   3
loop_
 _symmetry_equiv_pos_site_id
 _symmetry_equiv_pos_as_xyz
  1  'x, y, z'
loop_
 _atom_site_type_symbol
 _atom_site_label
 _atom_site_symmetry_multiplicity
 _atom_site_fract_x
 _atom_site_fract_y
 _atom_site_fract_z
 _atom_site_occupancy
  Na  Na0  1  0.63539483  0.01185577  0.24492735  1
  Na  Na1  1  0.37872735  0.36682719  0.24474775  1
  Na  Na2  1  0.98905580  0.62708667  0.24701218  1
  Na  Na3  1  0.62860715  0.61723350  0.74597096  1
  Na  Na4  1  0.98654905  0.37105600  0.74366481  1
  Na  Na5  1  0.38112421  0.00922244  0.74491381  1
  Na  Na6  1  0.02989853  0.69180797  0.58473390  1
  Na  Na7  1  0.66422719  0.96903936  0.58126049  1
  Na  Na8  1  0.30957896  0.97117972  0.08319938  1
  Na  Na9  1  0.66120146  0.68802270  0.08635959  1
  Na  Na10  1  0.02804926  0.33756788  0.08084088  1
  Na  Na11  1  0.33320486  0.29553017  0.91699345  1
  Na  Na12  1  0.96491801  0.28349742  0.41351338  1
  Na  Na13  1  0.31936550  0.03608701  0.41474408  1
  Na  Na14  1  0.71670871  0.67981602  0.41485773  1
  Na  Na15  1  0.00940320  0.01113353  0.49566368  1
  Na  Na16  1  0.98820257  0.99108525  0.99607830  1
  Na  Na17  1  0.68266465  0.34012476  0.83353322  1
  Na  Na18  1  0.66452370  0.33375079  0.33033074  1
  Na  Na19  1  0.33745018  0.66880387  0.16546409  1
  Na  Na20  1  0.32934155  0.65012324  0.66356092  1
  Ti  Ti0  1  0.98791407  0.98892319  0.85653662  1
  Ti  Ti1  1  0.00785327  0.00476756  0.64501397  1
  Ti  Ti2  1  0.00075708  0.00589978  0.14640185  1
  Ti  Ti3  1  0.67149865  0.33001444  0.97921135  1
  Ti  Ti4  1  0.67056215  0.32947233  0.47971708  1
  Ti  Ti5  1  0.34101832  0.66311441  0.01619388  1
  Ti  Ti6  1  0.32844351  0.65727933  0.51836242  1
  Ti  Ti7  1  0.33355457  0.66651132  0.31724410  1
  Ti  Ti8  1  0.32307627  0.66058772  0.81585983  1
  Zn  Zn0  1  0.99858128  0.99931424  0.35484065  1
  Zn  Zn1  1  0.67732240  0.34456970  0.68032186  1
  Zn  Zn2  1  0.66143397  0.33017348  0.17560497  1
  Si  Si0  1  0.00410763  0.71345177  0.75031908  1
  Si  Si1  1  0.96633737  0.33477397  0.58582585  1
  Si  Si2  1  0.66373975  0.03760832  0.08497129  1
  Si  Si3  1  0.37340665  0.33395110  0.08323256  1
  Si  Si4  1  0.62526653  0.66354785  0.91506769  1
  Si  Si5  1  0.03618761  0.37296118  0.91645708  1
  Si  Si6  1  0.61877129  0.95714541  0.41922744  1
  Si  Si7  1  0.34021711  0.37883830  0.41621876  1
  Si  Si8  1  0.04143061  0.66179801  0.41779014  1
  P  P0  1  0.29045416  0.99688240  0.25191323  1
  P  P1  1  0.70708064  0.70915512  0.25129962  1
  P  P2  1  0.00205882  0.29593349  0.25133554  1
  P  P3  1  0.28340159  0.28703106  0.75277828  1
  P  P4  1  0.71108975  0.99418837  0.75003443  1
  P  P5  1  0.37503791  0.04371735  0.58507666  1
  P  P6  1  0.66493376  0.62638550  0.58500810  1
  P  P7  1  0.96051354  0.62707045  0.08381487  1
  P  P8  1  0.33463291  0.95640024  0.91679180  1
  O  O0  1  0.20767404  0.01587701  0.30966156  1
  O  O1  1  0.80824294  0.79050289  0.30967746  1
  O  O2  1  0.97917475  0.19215758  0.30889497  1
  O  O3  1  0.19696574  0.18459787  0.81068733  1
  O  O4  1  0.98978102  0.82487623  0.80740382  1
  O  O5  1  0.82811789  0.01744983  0.80611959  1
  O  O6  1  0.79932723  0.97388994  0.69176537  1
  O  O7  1  0.16592898  0.19310289  0.69592839  1
  O  O8  1  0.02789996  0.83259566  0.68918701  1
  O  O9  1  0.80533263  0.82363197  0.19384636  1
  O  O10  1  0.01769074  0.19531890  0.19367723  1
  O  O11  1  0.17670295  0.98132391  0.19390548  1
  O  O12  1  0.89437105  0.37791920  0.64656843  1
  O  O13  1  0.48068233  0.12099536  0.64345547  1
  O  O14  1  0.63833811  0.53024333  0.64509738  1
  O  O15  1  0.89614756  0.52365718  0.14295054  1
  O  O16  1  0.62241840  0.10585250  0.14672082  1
  O  O17  1  0.48831551  0.38488441  0.14442967  1
  O  O18  1  0.46614304  0.29769944  0.02528066  1
  O  O19  1  0.83354854  0.53309603  0.03024984  1
  O  O20  1  0.70163424  0.17557564  0.02927577  1
  O  O21  1  0.46522610  0.15422229  0.52782557  1
  O  O22  1  0.69048079  0.53211404  0.52993117  1
  O  O23  1  0.83263639  0.30455489  0.52752328  1
  O  O24  1  0.53043822  0.68766394  0.97562775  1
  O  O25  1  0.16288792  0.47381263  0.97449897  1
  O  O26  1  0.31401635  0.84800248  0.97425025  1
  O  O27  1  0.52262054  0.84092195  0.47859305  1
  O  O28  1  0.31469470  0.48324952  0.47268441  1
  O  O29  1  0.16271827  0.68708068  0.47716305  1
  O  O30  1  0.13419956  0.62979198  0.35691943  1
  O  O31  1  0.49511817  0.86258063  0.35776986  1
  O  O32  1  0.36939243  0.50126364  0.35479463  1
  O  O33  1  0.13317697  0.49511972  0.85572777  1
  O  O34  1  0.35283092  0.86467088  0.85897272  1
  O  O35  1  0.49801414  0.63882902  0.85663198  1
  O  O36  1  0.01984804  0.82812174  0.41567301  1
  O  O37  1  0.80771685  0.98119952  0.41629424  1
  O  O38  1  0.17218185  0.19238904  0.41449997  1
  O  O39  1  0.03119967  0.18916800  0.91173176  1
  O  O40  1  0.17694292  0.98249164  0.91240483  1
  O  O41  1  0.81482051  0.83554198  0.91071251  1
  O  O42  1  0.97157489  0.15382376  0.58925021  1
  O  O43  1  0.19038697  0.02189104  0.58738291  1
  O  O44  1  0.83495851  0.80792947  0.58687536  1
  O  O45  1  0.97531050  0.80828341  0.08808215  1
  O  O46  1  0.83778992  0.01708788  0.08946725  1
  O  O47  1  0.18013970  0.15823635  0.09004593  1
  O  O48  1  0.68849152  0.15183536  0.74906415  1
  O  O49  1  0.46178638  0.30621514  0.74816077  1
  O  O50  1  0.83333840  0.52619931  0.75163018  1
  O  O51  1  0.68463593  0.52870055  0.24647867  1
  O  O52  1  0.84806817  0.32328623  0.24491822  1
  O  O53  1  0.47142807  0.15363543  0.24787694  1
  O  O54  1  0.63235828  0.48684798  0.92205459  1
  O  O55  1  0.84848139  0.35618496  0.92351617  1
  O  O56  1  0.49686519  0.13688527  0.92054610  1
  O  O57  1  0.62750623  0.14513667  0.42246815  1
  O  O58  1  0.51673666  0.37046830  0.42294625  1
  O  O59  1  0.85386222  0.48433133  0.42307968  1
  O  O60  1  0.33874257  0.49769400  0.07477543  1
  O  O61  1  0.14363903  0.65631519  0.07371710  1
  O  O62  1  0.49696377  0.84457260  0.07480460  1
  O  O63  1  0.35010270  0.85973261  0.57985722  1
  O  O64  1  0.51428065  0.66220709  0.57779065  1
  O  O65  1  0.15638511  0.50440627  0.57686312  1
  O  O66  1  0.29794756  0.82521559  0.25087975  1
  O  O67  1  0.52809688  0.70141776  0.25016630  1
  O  O68  1  0.17461254  0.47250709  0.25000090  1
  O  O69  1  0.29722892  0.46852538  0.75303684  1
  O  O70  1  0.18268173  0.70172176  0.75394839  1
  O  O71  1  0.53308778  0.82638257  0.75379399  1
loop_
_geom_bond_atom_site_label_1
_geom_bond_atom_site_label_2
_geom_bond_distance
_geom_bond_site_symmetry_2
Na0 O16 2.334940 1_555
Na0 O53 2.380311 1_555
Na0 O67 2.454475 1_545
Na0 O52 2.475405 1_555
Na0 O66 2.634315 1_545
Na0 O31 2.799866 1_545
Na1 O51 2.381491 1_555
Na1 O17 2.384829 1_555
Na1 O53 2.439515 1_555
Na1 O68 2.452208 1_555
Na1 O67 2.608870 1_555
Na1 O32 2.716427 1_555
Na2 O52 2.364494 1_555
Na2 O51 2.417138 1_555
Na2 O66 2.436087 1_655
Na2 O15 2.442149 1_555
Na2 O68 2.648840 1_655
Na2 O30 2.727221 1_655
Na3 O50 2.358667 1_555
Na3 O14 2.360443 1_555
Na3 O49 2.421185 1_555
Na3 O71 2.429037 1_555
Na3 O69 2.588174 1_555
Na3 O35 2.746991 1_555
Na4 O12 2.291186 1_555
Na4 O50 2.404175 1_555
Na4 O48 2.406648 1_555
Na4 O69 2.479698 1_655
Na4 O70 2.595212 1_655
Na4 O33 2.739787 1_655
Na5 O49 2.388764 1_555
Na5 O48 2.394668 1_555
Na5 O13 2.422999 1_555
Na5 O70 2.433563 1_545
Na5 O71 2.613392 1_545
Na5 O34 2.769672 1_545
Na6 O44 2.445035 1_455
Na6 O65 2.461897 1_555
Na6 O63 2.495145 1_555
Na6 O43 2.567368 1_565
Na6 O8 2.618617 1_555
Na6 O29 2.656497 1_555
Na6 O12 2.800965 1_455
Na6 O22 2.896262 1_455
Na7 O64 2.386968 1_555
Na7 O42 2.412917 1_565
Na7 O63 2.481242 1_555
Na7 O27 2.551669 1_555
Na7 O44 2.582963 1_555
Na7 O6 2.693688 1_555
Na7 O23 2.865354 1_565
Na7 O13 2.949933 1_565
Na8 O61 2.457668 1_555
Na8 O62 2.464056 1_555
Na8 O47 2.478917 1_565
Na8 O45 2.603754 1_455
Na8 O26 2.639404 1_554
Na8 O11 2.729827 1_555
Na8 O16 2.803895 1_565
Na8 O18 2.842133 1_565
Na9 O45 2.466101 1_555
Na9 O62 2.506434 1_555
Na9 O60 2.533744 1_555
Na9 O46 2.561741 1_565
Na9 O9 2.664528 1_555
Na9 O17 2.689199 1_555
Na9 O24 2.689803 1_554
Na9 O19 2.830100 1_555
Na10 O60 2.422040 1_555
Na10 O61 2.514309 1_555
Na10 O46 2.514434 1_455
Na10 O47 2.586923 1_555
Na10 O25 2.634160 1_554
Na10 O10 2.763276 1_555
Na10 O20 2.773868 1_455
Na10 O15 2.834958 1_455
Na11 O54 2.359494 1_555
Na11 O39 2.385706 1_555
Na11 O40 2.435835 1_545
Na11 O56 2.506951 1_555
Na11 O3 2.582430 1_555
Na11 O18 2.646758 1_556
Na12 O37 2.352184 1_545
Na12 O38 2.378069 1_655
Na12 O2 2.459669 1_555
Na12 O59 2.467170 1_555
Na12 O57 2.647561 1_555
Na12 O23 2.817710 1_555
Na12 O30 2.967823 1_655
Na12 O28 3.016183 1_655
Na13 O38 2.359836 1_555
Na13 O36 2.388430 1_545
Na13 O57 2.436145 1_555
Na13 O0 2.477205 1_555
Na13 O58 2.619880 1_555
Na13 O21 2.749541 1_555
Na14 O36 2.358645 1_655
Na14 O37 2.403676 1_555
Na14 O58 2.446921 1_555
Na14 O1 2.485233 1_555
Na14 O59 2.605077 1_555
Na14 O22 2.804428 1_555
Na15 O38 2.365513 1_555
Na15 O37 2.421052 1_445
Na15 O36 2.435901 1_545
Na15 O42 2.530019 1_455
Na15 O43 2.549977 1_555
Na15 O44 2.636448 1_445
Na16 O41 2.381582 1_555
Na16 O39 2.459166 1_665
Na16 O40 2.529915 1_655
Na16 O46 2.531266 1_566
Na16 O45 2.565698 1_556
Na16 O47 2.615907 1_666
Na17 O50 2.367857 1_555
Na17 O55 2.425590 1_555
Na17 O54 2.510461 1_555
Na17 O48 2.524420 1_555
Na17 O56 2.595528 1_555
Na17 O49 2.624606 1_555
Na18 O53 2.460335 1_555
Na18 O51 2.481624 1_555
Na18 O52 2.532254 1_555
Na18 O58 2.539795 1_555
Na18 O57 2.548973 1_555
Na18 O59 2.553100 1_555
Na19 O67 2.435330 1_555
Na19 O66 2.470335 1_555
Na19 O68 2.475087 1_555
Na19 O62 2.501357 1_555
Na19 O60 2.514834 1_555
Na19 O61 2.618307 1_555
Na20 O65 2.381906 1_555
Na20 O69 2.473901 1_555
Na20 O64 2.480291 1_555
Na20 O70 2.550590 1_555
Na20 O63 2.567480 1_555
Na20 O71 2.613907 1_555
O0 P0 1.522581 1_545
O0 Zn0 2.065741 1_445
O1 P1 1.523349 1_555
O1 Zn0 2.048545 1_555
O2 P2 1.520514 1_655
O2 Zn0 2.083364 1_545
O3 P3 1.534405 1_555
O3 Ti0 2.083904 1_445
O4 Si0 1.646489 1_655
O4 Ti0 1.830770 1_555
O5 P4 1.557849 1_545
O5 Ti0 1.923006 1_545
O6 P4 1.563633 1_555
O6 Ti1 2.033030 1_665
O7 P3 1.572893 1_555
O7 Ti1 1.924648 1_555
O8 Si0 1.660800 1_555
O8 Ti1 1.906391 1_565
O9 P1 1.588736 1_555
O9 Ti2 1.996615 1_665
O10 P2 1.599781 1_555
O10 Ti2 1.930389 1_555
O11 P0 1.588642 1_555
O11 Ti2 1.990481 1_565
O12 Si1 1.611552 1_555
O12 Zn1 1.966547 1_555
O13 P5 1.532383 1_555
O13 Zn1 2.059990 1_555
O14 P6 1.527265 1_555
O14 Zn1 2.019097 1_555
O15 P7 1.531637 1_555
O15 Zn2 2.080506 1_555
O16 Si2 1.604704 1_555
O16 Zn2 1.967237 1_555
O17 Si3 1.608519 1_555
O17 Zn2 1.969346 1_555
O18 Si3 1.640888 1_555
O18 Ti3 1.996964 1_554
O19 P7 1.554104 1_555
O19 Ti3 2.006181 1_554
O20 Si2 1.649816 1_555
O20 Ti3 1.889651 1_554
O21 P5 1.555854 1_555
O21 Ti4 2.026541 1_555
O22 P6 1.556024 1_555
O22 Ti4 2.055061 1_555
O23 Si1 1.675519 1_555
O23 Ti4 1.891328 1_555
O24 Si4 1.651564 1_555
O24 Ti5 1.836457 1_556
O25 Si5 1.639627 1_555
O25 Ti5 1.884364 1_556
O26 P8 1.545473 1_555
O26 Ti5 2.014458 1_556
O27 Si6 1.623832 1_555
O27 Ti6 1.913192 1_555
O28 Si7 1.636601 1_555
O28 Ti6 1.806273 1_555
O29 Si8 1.634011 1_555
O29 Ti6 1.867385 1_555
O30 Si8 1.674824 1_555
O30 Ti7 1.869568 1_555
O31 Si6 1.676523 1_555
O31 Ti7 1.851221 1_555
O32 Si7 1.674388 1_555
O32 Ti7 1.858904 1_555
O33 Si5 1.669928 1_555
O33 Ti8 1.833384 1_555
O34 P8 1.563843 1_555
O34 Ti8 1.956354 1_555
O35 Si4 1.651515 1_555
O35 Ti8 1.896908 1_555
O36 Si8 1.599261 1_555
O36 Zn0 2.113233 1_455
O37 Si6 1.601710 1_555
O37 Zn0 2.126346 1_555
O38 Si7 1.598651 1_555
O38 Zn0 2.103159 1_445
O39 Si5 1.631068 1_555
O39 Ti0 2.034938 1_445
O40 P8 1.549215 1_555
O40 Ti0 2.112450 1_455
O41 Si4 1.632880 1_555
O41 Ti0 1.897540 1_555
O42 Si1 1.649923 1_555
O42 Ti1 1.954840 1_655
O43 P5 1.570814 1_555
O43 Ti1 2.018306 1_555
O44 P6 1.581773 1_555
O44 Ti1 2.096405 1_665
O45 P7 1.567154 1_555
O45 Ti2 2.103060 1_665
O46 Si2 1.665388 1_555
O46 Ti2 1.959154 1_655
O47 Si3 1.670312 1_555
O47 Ti2 1.951458 1_555
O48 P4 1.526735 1_545
O48 Zn1 2.333301 1_555
O49 P3 1.527296 1_555
O49 Zn1 2.331657 1_555
O50 Si0 1.613342 1_655
O50 Zn1 2.181379 1_555
O51 P1 1.532615 1_555
O51 Zn2 2.292446 1_555
O52 P2 1.526547 1_655
O52 Zn2 2.280256 1_555
O53 P0 1.531582 1_545
O53 Zn2 2.292387 1_555
O54 Si4 1.626038 1_555
O54 Ti3 2.040717 1_555
O55 Si5 1.624053 1_655
O55 Ti3 1.927770 1_555
O56 P8 1.547446 1_545
O56 Ti3 2.093062 1_555
O57 Si6 1.651116 1_545
O57 Ti4 1.953474 1_555
O58 Si7 1.630231 1_555
O58 Ti4 2.020714 1_555
O59 Si8 1.646040 1_655
O59 Ti4 1.978813 1_555
O60 Si3 1.657770 1_555
O60 Ti5 1.955283 1_555
O61 P7 1.547589 1_455
O61 Ti5 2.155883 1_555
O62 Si2 1.642855 1_565
O62 Ti5 1.991656 1_555
O63 P5 1.555849 1_565
O63 Ti6 2.190680 1_555
O64 P6 1.546580 1_555
O64 Ti6 2.094986 1_555
O65 Si1 1.636111 1_455
O65 Ti6 1.953046 1_555
O66 P0 1.575747 1_555
O66 Ti7 2.167342 1_555
O67 P1 1.574054 1_555
O67 Ti7 2.188260 1_555
O68 P2 1.568700 1_555
O68 Ti7 2.176336 1_555
O69 P3 1.570745 1_555
O69 Ti8 2.125308 1_555
O70 Si0 1.660499 1_555
O70 Ti8 2.003902 1_555
O71 P4 1.557756 1_555
O71 Ti8 2.200421 1_555
