# generated using pymatgen
data_Na5Nb2Si5Sn2PO24
_symmetry_space_group_name_H-M   'P 1'
_cell_length_a   9.01946437
_cell_length_b   9.02555427
_cell_length_c   22.61724212
_cell_angle_alpha   90.06919126
_cell_angle_beta   90.09740967
_cell_angle_gamma   120.01331886
_symmetry_Int_Tables_number   1
_chemical_formula_structural   Na5Nb2Si5Sn2PO24
_chemical_formula_sum   'Na15 Nb6 Si15 Sn6 P3 O72'
_cell_volume   1594.28056458
_cell_formula_units_Z   3
loop_
 _symmetry_equiv_pos_site_id
 _symmetry_equiv_pos_as_xyz
  1  'x, y, z'
loop_
 _atom_site_type_symbol
 _atom_site_label
 _atom_site_symmetry_multiplicity
 _atom_site_fract_x
 _atom_site_fract_y
 _atom_site_fract_z
 _atom_site_occupancy
  Na  Na0  1  0.64029544  0.00357651  0.24971560  1
  Na  Na1  1  0.36663896  0.36294097  0.24813875  1
  Na  Na2  1  0.99380872  0.63231497  0.24835002  1
  Na  Na3  1  0.99684228  0.36302680  0.74946417  1
  Na  Na4  1  0.03386436  0.69968474  0.57968302  1
  Na  Na5  1  0.66259822  0.96414698  0.57981576  1
  Na  Na6  1  0.96960724  0.66787749  0.91969974  1
  Na  Na7  1  0.70153514  0.03477849  0.91734956  1
  Na  Na8  1  0.32850862  0.29823064  0.92002093  1
  Na  Na9  1  0.00492445  0.00509834  0.49294007  1
  Na  Na10  1  0.00471770  0.00233726  0.00502668  1
  Na  Na11  1  0.65926893  0.33107230  0.83098197  1
  Na  Na12  1  0.66802360  0.33456115  0.33443662  1
  Na  Na13  1  0.32991251  0.66114327  0.16097525  1
  Na  Na14  1  0.34102227  0.66499559  0.66394289  1
  Nb  Nb0  1  0.00296623  0.00334342  0.64541755  1
  Nb  Nb1  1  0.00442440  0.99913794  0.14464065  1
  Nb  Nb2  1  0.66193569  0.33391223  0.68644360  1
  Nb  Nb3  1  0.66907940  0.33154377  0.47626936  1
  Nb  Nb4  1  0.33134935  0.66870687  0.31442392  1
  Nb  Nb5  1  0.33213160  0.67349839  0.81011197  1
  Si  Si0  1  0.29019282  0.00224312  0.25070175  1
  Si  Si1  1  0.71121040  0.71011911  0.24964146  1
  Si  Si2  1  0.99813539  0.28654778  0.24998731  1
  Si  Si3  1  0.29442772  0.29142096  0.75137880  1
  Si  Si4  1  0.99619487  0.71012579  0.75054390  1
  Si  Si5  1  0.70886756  0.99857996  0.74994933  1
  Si  Si6  1  0.95793297  0.33498280  0.58309647  1
  Si  Si7  1  0.37788688  0.04652806  0.58160965  1
  Si  Si8  1  0.66200735  0.61934050  0.58179744  1
  Si  Si9  1  0.96061424  0.62648112  0.08320947  1
  Si  Si10  1  0.37395839  0.33620786  0.08262147  1
  Si  Si11  1  0.04170658  0.37410895  0.91635127  1
  Si  Si12  1  0.33324372  0.95781095  0.91814856  1
  Si  Si13  1  0.62887038  0.95779118  0.41830706  1
  Si  Si14  1  0.04211352  0.67172421  0.41826440  1
  Sn  Sn0  1  0.99767540  0.99774280  0.35355462  1
  Sn  Sn1  1  0.00377575  0.00173132  0.85033327  1
  Sn  Sn2  1  0.66717913  0.33542476  0.18332643  1
  Sn  Sn3  1  0.66602739  0.33276760  0.98397427  1
  Sn  Sn4  1  0.32635812  0.66163031  0.02226314  1
  Sn  Sn5  1  0.33359464  0.66446072  0.51873756  1
  P  P0  1  0.66660392  0.03758217  0.08301005  1
  P  P1  1  0.62043281  0.66779432  0.91645758  1
  P  P2  1  0.33230204  0.37494998  0.41661241  1
  O  O0  1  0.21256903  0.04870113  0.30718260  1
  O  O1  1  0.83497064  0.78744035  0.30667282  1
  O  O2  1  0.95533274  0.16599115  0.30743114  1
  O  O3  1  0.22057370  0.18330432  0.81201793  1
  O  O4  1  0.96281798  0.78349208  0.81141280  1
  O  O5  1  0.82615799  0.04180298  0.80957277  1
  O  O6  1  0.80239442  0.97159511  0.69196479  1
  O  O7  1  0.16204474  0.19519799  0.69542038  1
  O  O8  1  0.02754756  0.83109355  0.69266153  1
  O  O9  1  0.79972291  0.83903600  0.19339454  1
  O  O10  1  0.03668920  0.19798338  0.19333602  1
  O  O11  1  0.16194785  0.96152346  0.19364612  1
  O  O12  1  0.86956045  0.36490937  0.64207917  1
  O  O13  1  0.50307037  0.13934218  0.63920891  1
  O  O14  1  0.64121003  0.50137095  0.64011015  1
  O  O15  1  0.87885032  0.51274462  0.14273349  1
  O  O16  1  0.63713961  0.11845044  0.13901676  1
  O  O17  1  0.48356729  0.36070287  0.14288915  1
  O  O18  1  0.44831222  0.29551388  0.02153844  1
  O  O19  1  0.84761017  0.54940239  0.02179597  1
  O  O20  1  0.69933160  0.14705743  0.02564336  1
  O  O21  1  0.47145332  0.16900640  0.52554908  1
  O  O22  1  0.70171704  0.53023549  0.52644389  1
  O  O23  1  0.82825234  0.29810972  0.52713506  1
  O  O24  1  0.54530789  0.70549986  0.97114901  1
  O  O25  1  0.17105609  0.45581714  0.97139641  1
  O  O26  1  0.29598983  0.83260936  0.97321798  1
  O  O27  1  0.54624503  0.84672336  0.47832894  1
  O  O28  1  0.30263435  0.45625001  0.47233332  1
  O  O29  1  0.15179856  0.69545584  0.47842395  1
  O  O30  1  0.13681057  0.64010510  0.35974191  1
  O  O31  1  0.50364405  0.85971978  0.35983031  1
  O  O32  1  0.35759579  0.48875971  0.36074563  1
  O  O33  1  0.13265655  0.49688090  0.85753347  1
  O  O34  1  0.36535523  0.86308951  0.86002052  1
  O  O35  1  0.50400060  0.63858265  0.86164047  1
  O  O36  1  0.02736176  0.84168599  0.41233670  1
  O  O37  1  0.81834781  0.98352971  0.41265622  1
  O  O38  1  0.17401756  0.19737222  0.41071374  1
  O  O39  1  0.01532289  0.18009592  0.91138443  1
  O  O40  1  0.16055892  0.97428446  0.91206198  1
  O  O41  1  0.80251977  0.82771963  0.91025495  1
  O  O42  1  0.96559660  0.15746474  0.59001683  1
  O  O43  1  0.18553749  0.02118269  0.59045626  1
  O  O44  1  0.83689750  0.80908528  0.59077096  1
  O  O45  1  0.97172552  0.81415270  0.09007254  1
  O  O46  1  0.83011577  0.02451418  0.08953641  1
  O  O47  1  0.18306109  0.16329920  0.08998408  1
  O  O48  1  0.69541470  0.17125959  0.74179552  1
  O  O49  1  0.48278188  0.31351144  0.74226482  1
  O  O50  1  0.83715538  0.51492747  0.74317454  1
  O  O51  1  0.68448190  0.51699595  0.24452010  1
  O  O52  1  0.83050748  0.31076091  0.24323873  1
  O  O53  1  0.48377864  0.16390890  0.24285267  1
  O  O54  1  0.63663365  0.50409485  0.91974000  1
  O  O55  1  0.85231289  0.36042211  0.92066287  1
  O  O56  1  0.50735745  0.14793033  0.92020162  1
  O  O57  1  0.63557288  0.14402628  0.42226219  1
  O  O58  1  0.49753728  0.36426975  0.42199409  1
  O  O59  1  0.85370428  0.49514905  0.42293266  1
  O  O60  1  0.36218120  0.50967369  0.07899528  1
  O  O61  1  0.15157203  0.65147394  0.08049527  1
  O  O62  1  0.50718875  0.86030209  0.07726499  1
  O  O63  1  0.35897521  0.85663860  0.57991741  1
  O  O64  1  0.49931115  0.64962896  0.57970842  1
  O  O65  1  0.14307995  0.50819999  0.57884761  1
  O  O66  1  0.30537363  0.82698115  0.25708268  1
  O  O67  1  0.51907976  0.69032793  0.25713518  1
  O  O68  1  0.17161161  0.47780996  0.25696869  1
  O  O69  1  0.30279891  0.47729127  0.75660386  1
  O  O70  1  0.16776131  0.68771607  0.75613313  1
  O  O71  1  0.52069323  0.82675509  0.75668504  1
loop_
_geom_bond_atom_site_label_1
_geom_bond_atom_site_label_2
_geom_bond_distance
_geom_bond_site_symmetry_2
Na0 O52 2.427954 1_555
Na0 O67 2.475129 1_545
Na0 O53 2.480831 1_555
Na0 O66 2.622811 1_545
Na0 O16 2.716587 1_555
Na0 O2 2.782546 1_555
Na0 O31 2.797280 1_545
Na0 O9 2.834386 1_545
Na1 O68 2.456441 1_555
Na1 O51 2.484311 1_555
Na1 O53 2.501227 1_555
Na1 O67 2.568310 1_555
Na1 O17 2.609398 1_555
Na1 O0 2.798388 1_555
Na1 O32 2.805186 1_555
Na1 O10 2.856544 1_555
Na2 O51 2.443081 1_555
Na2 O66 2.465934 1_655
Na2 O52 2.515515 1_555
Na2 O68 2.606002 1_655
Na2 O15 2.609945 1_555
Na2 O1 2.785915 1_555
Na2 O30 2.813110 1_655
Na2 O11 2.857728 1_655
Na3 O48 2.389015 1_555
Na3 O69 2.419887 1_655
Na3 O50 2.439153 1_555
Na3 O70 2.542789 1_655
Na3 O12 2.688345 1_555
Na3 O33 2.727000 1_655
Na3 O5 2.859240 1_555
Na3 O7 2.875483 1_655
Na4 O65 2.379222 1_555
Na4 O44 2.439201 1_455
Na4 O43 2.525209 1_565
Na4 O29 2.535080 1_555
Na4 O63 2.539615 1_555
Na4 O8 2.828440 1_555
Na4 O22 2.857169 1_455
Na4 O12 2.975778 1_455
Na5 O63 2.404728 1_555
Na5 O42 2.406832 1_565
Na5 O64 2.458619 1_555
Na5 O27 2.523182 1_555
Na5 O44 2.586902 1_555
Na5 O6 2.816401 1_555
Na5 O23 2.871721 1_565
Na5 O13 2.941532 1_565
Na6 O40 2.425147 1_655
Na6 O55 2.425572 1_555
Na6 O19 2.554174 1_556
Na6 O41 2.563738 1_555
Na6 O54 2.600649 1_555
Na6 O4 2.675919 1_555
Na6 O26 2.818972 1_655
Na6 O33 2.965450 1_655
Na7 O56 2.429817 1_555
Na7 O39 2.456962 1_655
Na7 O41 2.459772 1_545
Na7 O55 2.548321 1_555
Na7 O20 2.653443 1_556
Na7 O5 2.673542 1_555
Na7 O24 2.850196 1_545
Na7 O34 2.925364 1_545
Na8 O54 2.451563 1_555
Na8 O39 2.477674 1_555
Na8 O40 2.538238 1_545
Na8 O18 2.541310 1_556
Na8 O56 2.575175 1_555
Na8 O3 2.639353 1_555
Na8 O25 2.722540 1_555
Na9 O37 2.414113 1_445
Na9 O36 2.415166 1_545
Na9 O38 2.483115 1_555
Na9 O43 2.699942 1_555
Na9 O42 2.705739 1_455
Na9 O44 2.767872 1_445
Na10 O47 2.456648 1_555
Na10 O45 2.485443 1_445
Na10 O46 2.549141 1_455
Na10 O40 2.612580 1_544
Na10 O39 2.631378 1_554
Na10 O41 2.739972 1_444
Na11 O49 2.514194 1_555
Na11 O56 2.536389 1_555
Na11 O50 2.574332 1_555
Na11 O48 2.592555 1_555
Na11 O55 2.596383 1_555
Na11 O54 2.612092 1_555
Na12 O59 2.542618 1_555
Na12 O57 2.548596 1_555
Na12 O51 2.575582 1_555
Na12 O52 2.602409 1_555
Na12 O58 2.603762 1_555
Na12 O53 2.616195 1_555
Na13 O61 2.399476 1_555
Na13 O60 2.405272 1_555
Na13 O62 2.552543 1_555
Na13 O68 2.673199 1_555
Na13 O67 2.692011 1_555
Na13 O66 2.709138 1_555
Na14 O64 2.427717 1_555
Na14 O65 2.519614 1_555
Na14 O63 2.521594 1_555
Na14 O71 2.602232 1_555
Na14 O69 2.609175 1_555
Na14 O70 2.676262 1_555
Nb0 O7 1.959675 1_555
Nb0 O6 1.987892 1_445
Nb0 O8 1.988938 1_545
Nb0 O43 2.006231 1_555
Nb0 O42 2.022480 1_455
Nb0 O44 2.050954 1_445
Nb1 O11 1.959702 1_555
Nb1 O45 1.974565 1_455
Nb1 O47 1.985549 1_565
Nb1 O10 1.997557 1_565
Nb1 O9 2.013590 1_455
Nb1 O46 2.105162 1_465
Nb2 O14 1.924389 1_555
Nb2 O13 1.936830 1_555
Nb2 O49 1.987148 1_555
Nb2 O12 2.018639 1_555
Nb2 O50 2.053818 1_555
Nb2 O48 2.064023 1_555
Nb3 O23 1.975931 1_555
Nb3 O57 1.982380 1_555
Nb3 O59 1.989936 1_555
Nb3 O21 1.991567 1_555
Nb3 O22 2.014006 1_555
Nb3 O58 2.107042 1_555
Nb4 O30 1.936379 1_555
Nb4 O31 1.936977 1_555
Nb4 O66 2.028731 1_555
Nb4 O32 2.044340 1_555
Nb4 O68 2.058604 1_555
Nb4 O67 2.064338 1_555
Nb5 O34 1.942490 1_555
Nb5 O70 1.972154 1_555
Nb5 O71 1.980790 1_555
Nb5 O33 2.017407 1_555
Nb5 O69 2.048325 1_555
Nb5 O35 2.084229 1_555
O0 Si0 1.610368 1_555
O0 Sn0 2.045611 1_445
O1 Si1 1.615697 1_555
O1 Sn0 2.020871 1_555
O2 Si2 1.614262 1_555
O2 Sn0 2.030439 1_545
O3 Si3 1.622646 1_555
O3 Sn1 2.015842 1_555
O4 Si4 1.619565 1_555
O4 Sn1 2.014435 1_665
O5 Si5 1.634273 1_545
O5 Sn1 2.030409 1_655
O6 Si5 1.642968 1_555
O7 Si3 1.654253 1_555
O8 Si4 1.637585 1_455
O9 Si1 1.639299 1_555
O10 Si2 1.636673 1_455
O11 Si0 1.645225 1_565
O12 Si6 1.645002 1_555
O13 Si7 1.649196 1_555
O14 Si8 1.647031 1_555
O15 Si9 1.630781 1_555
O15 Sn2 2.000488 1_555
O16 P0 1.549477 1_555
O16 Sn2 2.091953 1_555
O17 Si10 1.631037 1_555
O17 Sn2 2.001112 1_555
O18 Si10 1.655780 1_555
O18 Sn3 2.009161 1_554
O19 Si9 1.653980 1_555
O19 Sn3 2.006168 1_554
O20 P0 1.568275 1_555
O20 Sn3 2.072295 1_554
O21 Si7 1.617281 1_555
O22 Si8 1.621625 1_555
O23 Si6 1.638703 1_555
O24 P1 1.528904 1_555
O24 Sn4 2.149362 1_556
O25 Si11 1.608425 1_555
O25 Sn4 2.030411 1_556
O26 Si12 1.601912 1_555
O26 Sn4 2.028019 1_556
O27 Si13 1.631726 1_555
O27 Sn5 2.018228 1_555
O28 P2 1.547130 1_555
O28 Sn5 2.044560 1_555
O29 Si14 1.630545 1_555
O29 Sn5 2.013121 1_555
O30 Si14 1.676215 1_555
O31 Si13 1.673429 1_555
O32 P2 1.572712 1_555
O33 Si11 1.663847 1_555
O34 Si12 1.670172 1_555
O35 P1 1.557970 1_555
O36 Si14 1.610420 1_555
O36 Sn0 2.050293 1_455
O37 Si13 1.610770 1_555
O37 Sn0 2.054159 1_555
O38 P2 1.527909 1_555
O38 Sn0 2.137258 1_445
O39 Si11 1.648660 1_555
O39 Sn1 2.082180 1_555
O40 Si12 1.642538 1_555
O40 Sn1 2.086816 1_565
O41 P1 1.558885 1_555
O41 Sn1 2.181710 1_665
O42 Si6 1.645502 1_555
O43 Si7 1.645134 1_555
O44 Si8 1.660676 1_555
O45 Si9 1.653095 1_555
O46 P0 1.544027 1_555
O47 Si10 1.655674 1_555
O48 Si5 1.633263 1_545
O49 Si3 1.621969 1_555
O50 Si4 1.630815 1_555
O51 Si1 1.639749 1_555
O51 Sn2 2.088884 1_555
O52 Si2 1.639139 1_555
O52 Sn2 2.092329 1_555
O53 Si0 1.631618 1_555
O53 Sn2 2.096693 1_555
O54 P1 1.557567 1_555
O54 Sn3 2.232996 1_555
O55 Si11 1.652970 1_655
O55 Sn3 2.127270 1_555
O56 Si12 1.648190 1_545
O56 Sn3 2.123753 1_555
O57 Si13 1.653772 1_545
O58 P2 1.545423 1_555
O59 Si14 1.652415 1_655
O60 Si10 1.623529 1_555
O60 Sn4 2.019394 1_555
O61 Si9 1.622596 1_455
O61 Sn4 2.022643 1_555
O62 P0 1.530277 1_565
O62 Sn4 2.117760 1_555
O63 Si7 1.635614 1_565
O63 Sn5 2.138111 1_555
O64 Si8 1.622169 1_555
O64 Sn5 2.084993 1_555
O65 Si6 1.622090 1_455
O65 Sn5 2.092418 1_555
O66 Si0 1.661007 1_565
O67 Si1 1.659829 1_555
O68 Si2 1.658147 1_455
O69 Si3 1.645213 1_555
O70 Si4 1.662516 1_455
O71 Si5 1.636193 1_555
