# generated using pymatgen
data_Na8NbIn3Si5SO24
_symmetry_space_group_name_H-M   'P 1'
_cell_length_a   9.29737874
_cell_length_b   9.28463230
_cell_length_c   22.68739905
_cell_angle_alpha   89.82334693
_cell_angle_beta   90.16243933
_cell_angle_gamma   120.02246249
_symmetry_Int_Tables_number   1
_chemical_formula_structural   Na8NbIn3Si5SO24
_chemical_formula_sum   'Na24 Nb3 In9 Si15 S3 O72'
_cell_volume   1695.66353012
_cell_formula_units_Z   3
loop_
 _symmetry_equiv_pos_site_id
 _symmetry_equiv_pos_as_xyz
  1  'x, y, z'
loop_
 _atom_site_type_symbol
 _atom_site_label
 _atom_site_symmetry_multiplicity
 _atom_site_fract_x
 _atom_site_fract_y
 _atom_site_fract_z
 _atom_site_occupancy
  Na  Na0  1  0.61734073  0.99847067  0.25153847  1
  Na  Na1  1  0.36729589  0.35740128  0.25448906  1
  Na  Na2  1  0.01215129  0.64299707  0.24900667  1
  Na  Na3  1  0.63820462  0.62172732  0.74641002  1
  Na  Na4  1  0.99929487  0.36641309  0.73939518  1
  Na  Na5  1  0.35717104  0.00676341  0.74324783  1
  Na  Na6  1  0.29717055  0.34050683  0.58143886  1
  Na  Na7  1  0.04228308  0.70401396  0.58173232  1
  Na  Na8  1  0.66269778  0.95918153  0.57812687  1
  Na  Na9  1  0.29712990  0.95559194  0.08256973  1
  Na  Na10  1  0.65899299  0.70147228  0.07896018  1
  Na  Na11  1  0.04224451  0.33947141  0.07924164  1
  Na  Na12  1  0.96930130  0.67710544  0.91529271  1
  Na  Na13  1  0.70266835  0.02540962  0.91916615  1
  Na  Na14  1  0.32318066  0.29333015  0.91445291  1
  Na  Na15  1  0.97594519  0.30311545  0.42165208  1
  Na  Na16  1  0.32900059  0.02809841  0.41823309  1
  Na  Na17  1  0.69789388  0.67358743  0.42175347  1
  Na  Na18  1  0.00098471  0.00090345  0.50149883  1
  Na  Na19  1  0.00051549  0.99833371  0.99929758  1
  Na  Na20  1  0.66498590  0.34292994  0.83074808  1
  Na  Na21  1  0.65548615  0.32330183  0.33864857  1
  Na  Na22  1  0.33209566  0.67624788  0.16062072  1
  Na  Na23  1  0.32797874  0.66189824  0.65615907  1
  Nb  Nb0  1  0.66552163  0.33221724  0.98142020  1
  Nb  Nb1  1  0.66748992  0.33474067  0.48312787  1
  Nb  Nb2  1  0.32144844  0.65634275  0.81807779  1
  In  In0  1  0.01129229  0.00270922  0.35416721  1
  In  In1  1  0.00787592  0.99692590  0.85040768  1
  In  In2  1  0.01466565  0.00444938  0.64500074  1
  In  In3  1  0.00891393  0.99671636  0.14270468  1
  In  In4  1  0.66591145  0.34185933  0.67976224  1
  In  In5  1  0.65482062  0.32360880  0.17794525  1
  In  In6  1  0.33279918  0.66563962  0.01666509  1
  In  In7  1  0.33470642  0.66914391  0.51555258  1
  In  In8  1  0.33078257  0.67726899  0.32647025  1
  Si  Si0  1  0.29912824  0.99876213  0.24934550  1
  Si  Si1  1  0.29726420  0.29853057  0.75099269  1
  Si  Si2  1  -0.00009300  0.70163007  0.75082094  1
  Si  Si3  1  0.96061264  0.33275083  0.58542903  1
  Si  Si4  1  0.37661020  0.03926514  0.58485066  1
  Si  Si5  1  0.66594933  0.63175350  0.58418595  1
  Si  Si6  1  0.95725099  0.62178668  0.08525042  1
  Si  Si7  1  0.66770198  0.03710488  0.08430997  1
  Si  Si8  1  0.37315910  0.33739109  0.08342423  1
  Si  Si9  1  0.62754064  0.66687009  0.91764105  1
  Si  Si10  1  0.03305284  0.36721885  0.91916046  1
  Si  Si11  1  0.33664296  0.96083488  0.91812921  1
  Si  Si12  1  0.63536178  0.96958614  0.41623376  1
  Si  Si13  1  0.33739395  0.37483951  0.41604511  1
  Si  Si14  1  0.03090608  0.66151496  0.41692942  1
  S  S0  1  0.70380399  0.70484933  0.24921011  1
  S  S1  1  0.00009260  0.29567654  0.24910949  1
  S  S2  1  0.70013748  0.99468924  0.75124924  1
  O  O0  1  0.21601581  0.03563279  0.30665689  1
  O  O1  1  0.80503134  0.78643322  0.30266011  1
  O  O2  1  0.97312390  0.19083127  0.30228101  1
  O  O3  1  0.21754570  0.18963506  0.81068791  1
  O  O4  1  0.95962718  0.77622351  0.80950100  1
  O  O5  1  0.80258322  0.02089756  0.80517296  1
  O  O6  1  0.77578106  0.96762745  0.69852890  1
  O  O7  1  0.17449085  0.22672940  0.69374582  1
  O  O8  1  0.04581470  0.82299982  0.69334000  1
  O  O9  1  0.78170303  0.80901983  0.19558816  1
  O  O10  1  0.01884982  0.21407512  0.19531419  1
  O  O11  1  0.18091385  0.96228973  0.19055075  1
  O  O12  1  0.88296345  0.36301749  0.64531139  1
  O  O13  1  0.48490731  0.11435715  0.64513358  1
  O  O14  1  0.62872621  0.52467721  0.64482422  1
  O  O15  1  0.87911974  0.51268912  0.14522394  1
  O  O16  1  0.63332679  0.10933505  0.14449541  1
  O  O17  1  0.48160036  0.37553987  0.14364501  1
  O  O18  1  0.47792270  0.31181419  0.02680321  1
  O  O19  1  0.83205097  0.51774410  0.02733204  1
  O  O20  1  0.69151184  0.16495738  0.02666417  1
  O  O21  1  0.48047561  0.16468530  0.52782154  1
  O  O22  1  0.68860686  0.52644412  0.52776221  1
  O  O23  1  0.83591514  0.31336685  0.52809719  1
  O  O24  1  0.55335931  0.70360994  0.97600564  1
  O  O25  1  0.15014641  0.44309637  0.97585488  1
  O  O26  1  0.29859187  0.84765100  0.97612994  1
  O  O27  1  0.55697944  0.84883719  0.47280075  1
  O  O28  1  0.29963831  0.45438528  0.47297479  1
  O  O29  1  0.15382095  0.70449407  0.47274371  1
  O  O30  1  0.09514349  0.61303672  0.35644155  1
  O  O31  1  0.52266731  0.90337983  0.35583547  1
  O  O32  1  0.37811979  0.48888609  0.35536751  1
  O  O33  1  0.13316628  0.49737555  0.86162738  1
  O  O34  1  0.36497648  0.86263934  0.86066714  1
  O  O35  1  0.49851411  0.63693432  0.86070936  1
  O  O36  1  0.00135246  0.82075687  0.41195065  1
  O  O37  1  0.82203596  0.99506918  0.40839698  1
  O  O38  1  0.17376130  0.18818134  0.41264536  1
  O  O39  1  0.00307610  0.18142900  0.90872917  1
  O  O40  1  0.17690919  0.98778880  0.91279140  1
  O  O41  1  0.81165267  0.82916069  0.90954624  1
  O  O42  1  0.96329565  0.15736381  0.58467400  1
  O  O43  1  0.19917613  0.03641932  0.58188511  1
  O  O44  1  0.83970986  0.81091379  0.58489439  1
  O  O45  1  0.95908784  0.79938138  0.08252227  1
  O  O46  1  0.84220414  0.03229068  0.08547951  1
  O  O47  1  0.19414940  0.16386761  0.08204029  1
  O  O48  1  0.67959593  0.14385157  0.74752271  1
  O  O49  1  0.48262513  0.31720941  0.74757529  1
  O  O50  1  0.84215298  0.51027179  0.74759134  1
  O  O51  1  0.69361619  0.53880106  0.24614811  1
  O  O52  1  0.85158747  0.31781748  0.24614997  1
  O  O53  1  0.48693211  0.17009398  0.24713296  1
  O  O54  1  0.63772064  0.49210400  0.92205580  1
  O  O55  1  0.85336156  0.36411810  0.92203586  1
  O  O56  1  0.51108976  0.14527826  0.92210907  1
  O  O57  1  0.65074636  0.15546912  0.42530865  1
  O  O58  1  0.50597128  0.35513350  0.42394471  1
  O  O59  1  0.84500763  0.49248437  0.42546528  1
  O  O60  1  0.35292504  0.50026181  0.07817660  1
  O  O61  1  0.14071098  0.64238581  0.07970926  1
  O  O62  1  0.50344465  0.85476976  0.07839772  1
  O  O63  1  0.35636188  0.85556507  0.57904985  1
  O  O64  1  0.50108652  0.64902710  0.57791573  1
  O  O65  1  0.14325064  0.49796226  0.57914752  1
  O  O66  1  0.31508174  0.82760563  0.25379675  1
  O  O67  1  0.53394128  0.68313800  0.25278194  1
  O  O68  1  0.15534361  0.46124388  0.25304841  1
  O  O69  1  0.31940309  0.49120696  0.76012850  1
  O  O70  1  0.17603399  0.68987709  0.76045377  1
  O  O71  1  0.53110975  0.84140429  0.75720018  1
loop_
_geom_bond_atom_site_label_1
_geom_bond_atom_site_label_2
_geom_bond_distance
_geom_bond_site_symmetry_2
Na0 O53 2.439427 1_565
Na0 O66 2.440445 1_555
Na0 O31 2.524791 1_555
Na0 O16 2.610156 1_565
Na0 O67 2.627099 1_555
Na0 O52 2.662119 1_565
Na1 O53 2.495598 1_555
Na1 O32 2.575159 1_555
Na1 O68 2.591248 1_555
Na1 O67 2.619030 1_555
Na1 O51 2.639153 1_555
Na1 O17 2.704670 1_555
Na1 O0 2.843777 1_555
Na2 O66 2.459835 1_555
Na2 O30 2.610308 1_555
Na2 O52 2.615078 1_455
Na2 O51 2.615938 1_455
Na2 O68 2.622019 1_555
Na2 O15 2.653513 1_455
Na2 O11 2.888258 1_555
Na3 O49 2.448291 1_555
Na3 O14 2.462441 1_555
Na3 O50 2.574915 1_555
Na3 O69 2.599882 1_555
Na3 O71 2.692228 1_555
Na3 O35 2.938708 1_555
Na3 O4 2.955627 1_555
Na3 O6 3.000984 1_555
Na4 O12 2.383310 1_555
Na4 O50 2.430839 1_555
Na4 O69 2.639326 1_655
Na4 O48 2.644513 1_555
Na4 O70 2.648388 1_655
Na4 O7 2.745825 1_655
Na5 O13 2.485424 1_555
Na5 O49 2.512974 1_555
Na5 O70 2.585212 1_545
Na5 O48 2.607049 1_555
Na5 O71 2.747949 1_545
Na5 O8 2.761139 1_545
Na6 O43 2.495446 1_555
Na6 O65 2.506076 1_555
Na6 O64 2.524107 1_555
Na6 O28 2.670923 1_555
Na6 O42 2.692804 1_455
Na6 O7 2.775451 1_555
Na7 O65 2.518490 1_555
Na7 O63 2.529719 1_555
Na7 O44 2.531649 1_455
Na7 O43 2.673552 1_565
Na7 O29 2.683159 1_555
Na7 O8 2.759253 1_555
Na8 O42 2.464126 1_565
Na8 O64 2.494081 1_555
Na8 O63 2.509203 1_555
Na8 O27 2.592275 1_555
Na8 O44 2.625163 1_555
Na8 O6 2.911317 1_555
Na9 O61 2.518796 1_555
Na9 O62 2.522514 1_555
Na9 O47 2.551239 1_565
Na9 O26 2.620072 1_554
Na9 O11 2.693716 1_555
Na9 O45 2.723958 1_455
Na10 O45 2.465492 1_555
Na10 O62 2.485359 1_555
Na10 O60 2.503631 1_555
Na10 O24 2.535150 1_554
Na10 O46 2.668989 1_565
Na10 O9 2.856417 1_555
Na11 O61 2.484296 1_555
Na11 O60 2.501566 1_555
Na11 O46 2.510840 1_455
Na11 O25 2.543107 1_554
Na11 O47 2.638184 1_555
Na11 O10 2.840502 1_555
Na12 O41 2.495375 1_555
Na12 O40 2.545137 1_655
Na12 O55 2.548262 1_555
Na12 O4 2.585275 1_555
Na12 O54 2.679544 1_555
Na12 O19 2.895616 1_556
Na12 O26 2.987277 1_655
Na12 O33 3.025759 1_655
Na13 O39 2.430705 1_655
Na13 O41 2.499125 1_545
Na13 O56 2.529921 1_555
Na13 O55 2.729212 1_555
Na13 O5 2.757971 1_555
Na13 O20 2.791570 1_556
Na13 O24 2.890128 1_545
Na13 O34 3.023811 1_545
Na14 O40 2.457302 1_545
Na14 O3 2.547199 1_555
Na14 O54 2.566363 1_555
Na14 O39 2.618803 1_555
Na14 O56 2.715125 1_555
Na14 O18 2.886382 1_556
Na14 O25 2.953891 1_555
Na14 O35 3.017431 1_555
Na15 O37 2.495122 1_545
Na15 O38 2.555480 1_655
Na15 O59 2.593113 1_555
Na15 O57 2.623127 1_555
Na15 O23 2.771160 1_555
Na15 O28 2.854117 1_655
Na15 O2 2.900280 1_555
Na15 O30 2.913579 1_655
Na16 O38 2.540244 1_555
Na16 O57 2.613651 1_555
Na16 O58 2.635447 1_555
Na16 O36 2.671507 1_545
Na16 O0 2.752014 1_555
Na16 O21 2.825875 1_555
Na16 O29 2.881161 1_545
Na16 O31 2.949247 1_545
Na17 O36 2.453687 1_655
Na17 O58 2.578528 1_555
Na17 O37 2.623402 1_555
Na17 O59 2.646727 1_555
Na17 O22 2.742459 1_555
Na17 O27 2.803337 1_555
Na17 O1 2.888558 1_555
Na17 O32 2.989473 1_555
Na18 O43 2.491353 1_555
Na18 O44 2.507677 1_445
Na18 O42 2.514749 1_455
Na18 O38 2.620920 1_555
Na18 O36 2.636619 1_545
Na18 O37 2.668925 1_445
Na19 O47 2.521300 1_566
Na19 O45 2.529084 1_456
Na19 O46 2.563844 1_466
Na19 O40 2.594435 1_555
Na19 O41 2.633656 1_455
Na19 O39 2.655326 1_565
Na20 O49 2.464106 1_555
Na20 O50 2.474893 1_555
Na20 O54 2.577949 1_555
Na20 O55 2.651915 1_555
Na20 O56 2.660272 1_555
Na20 O48 2.697094 1_555
Na21 O58 2.488856 1_555
Na21 O57 2.491693 1_555
Na21 O53 2.561087 1_555
Na21 O59 2.584846 1_555
Na21 O51 2.793140 1_555
Na21 O52 2.801059 1_555
Na22 O61 2.461694 1_555
Na22 O62 2.473970 1_555
Na22 O60 2.558017 1_555
Na22 O66 2.590603 1_555
Na22 O67 2.784986 1_555
Na22 O68 2.791717 1_555
Na23 O65 2.388018 1_555
Na23 O63 2.423162 1_555
Na23 O64 2.442477 1_555
Na23 O69 2.816639 1_555
Na23 O70 2.837592 1_555
Na23 O71 2.906656 1_555
Nb0 O19 1.944851 1_556
Nb0 O18 1.953590 1_556
Nb0 O20 1.971787 1_556
Nb0 O56 2.096288 1_555
Nb0 O55 2.108583 1_555
Nb0 O54 2.110478 1_555
Nb1 O21 1.948660 1_555
Nb1 O23 1.957806 1_555
Nb1 O22 1.972894 1_555
Nb1 O59 2.040095 1_555
Nb1 O57 2.066023 1_555
Nb1 O58 2.089342 1_555
Nb2 O33 1.906397 1_555
Nb2 O35 1.991187 1_555
Nb2 O34 1.999908 1_555
Nb2 O70 2.010623 1_555
Nb2 O69 2.015623 1_555
Nb2 O71 2.304058 1_555
In0 O0 2.074983 1_555
In0 O38 2.099303 1_555
In0 O36 2.100450 1_545
In0 O37 2.121729 1_445
In0 O2 2.273237 1_455
In0 O1 2.285530 1_445
In1 O3 2.079241 1_565
In1 O4 2.085914 1_455
In1 O40 2.144813 1_555
In1 O41 2.170728 1_455
In1 O39 2.185882 1_565
In1 O5 2.271212 1_465
In2 O43 2.140819 1_555
In2 O8 2.144720 1_545
In2 O7 2.150878 1_555
In2 O42 2.186295 1_455
In2 O44 2.193628 1_445
In2 O6 2.403629 1_445
In3 O11 2.082613 1_555
In3 O47 2.143466 1_565
In3 O45 2.144357 1_455
In3 O46 2.166859 1_465
In3 O9 2.292724 1_455
In3 O10 2.309445 1_565
In4 O14 2.050942 1_555
In4 O12 2.081627 1_555
In4 O13 2.087249 1_555
In4 O50 2.221417 1_555
In4 O49 2.223890 1_555
In4 O48 2.444351 1_555
In5 O16 2.045577 1_555
In5 O17 2.049235 1_555
In5 O15 2.078258 1_555
In5 O53 2.169268 1_555
In5 O51 2.410612 1_555
In5 O52 2.413697 1_555
In6 O26 2.080685 1_554
In6 O24 2.113196 1_554
In6 O25 2.121806 1_554
In6 O60 2.147795 1_555
In6 O62 2.185620 1_555
In6 O61 2.215542 1_555
In7 O28 2.091605 1_555
In7 O29 2.102484 1_555
In7 O27 2.132173 1_555
In7 O64 2.169029 1_555
In7 O63 2.185563 1_555
In7 O65 2.223884 1_555
In8 O31 2.070732 1_555
In8 O30 2.077558 1_555
In8 O32 2.108162 1_555
In8 O66 2.208261 1_555
In8 O68 2.487887 1_555
In8 O67 2.505983 1_555
O0 Si0 1.636487 1_545
O1 S0 1.488570 1_555
O2 S1 1.488596 1_655
O3 Si1 1.628849 1_555
O4 Si2 1.631047 1_655
O5 S2 1.492114 1_545
O6 S2 1.473709 1_555
O7 Si1 1.633912 1_555
O8 Si2 1.632628 1_555
O9 S0 1.495575 1_555
O10 S1 1.494361 1_555
O11 Si0 1.650449 1_555
O12 Si3 1.629973 1_555
O13 Si4 1.632787 1_555
O14 Si5 1.628105 1_555
O15 Si6 1.632745 1_555
O16 Si7 1.624483 1_555
O17 Si8 1.626786 1_555
O18 Si8 1.701680 1_555
O19 Si6 1.699618 1_555
O20 Si7 1.702252 1_555
O21 Si4 1.683773 1_555
O22 Si5 1.689503 1_555
O23 Si3 1.688920 1_555
O24 Si9 1.608966 1_555
O25 Si10 1.601907 1_555
O26 Si11 1.607212 1_555
O27 Si12 1.616737 1_555
O28 Si13 1.613927 1_555
O29 Si14 1.614696 1_555
O30 Si14 1.649238 1_555
O31 Si12 1.644958 1_555
O32 Si13 1.659045 1_555
O33 Si10 1.703545 1_555
O34 Si11 1.688123 1_555
O35 Si9 1.686536 1_555
O36 Si14 1.636932 1_555
O37 Si12 1.640245 1_555
O38 Si13 1.638817 1_555
O39 Si10 1.621829 1_555
O40 Si11 1.628968 1_555
O41 Si9 1.628911 1_555
O42 Si3 1.641170 1_555
O43 Si4 1.637805 1_555
O44 Si5 1.639530 1_555
O45 Si6 1.641401 1_555
O46 Si7 1.645370 1_555
O47 Si8 1.638110 1_555
O48 S2 1.491804 1_545
O49 Si1 1.645506 1_555
O50 Si2 1.644919 1_655
O51 S0 1.498373 1_555
O52 S1 1.495506 1_655
O53 Si0 1.674023 1_545
O54 Si9 1.674686 1_555
O55 Si10 1.657908 1_655
O56 Si11 1.670952 1_545
O57 Si12 1.672250 1_545
O58 Si13 1.675492 1_555
O59 Si14 1.665364 1_655
O60 Si8 1.618559 1_555
O61 Si6 1.623702 1_455
O62 Si7 1.621513 1_565
O63 Si4 1.625339 1_565
O64 Si5 1.624816 1_555
O65 Si3 1.627942 1_455
O66 Si0 1.671021 1_555
O67 S0 1.491099 1_555
O68 S1 1.494750 1_555
O69 Si1 1.708557 1_555
O70 Si2 1.708149 1_555
O71 S2 1.508409 1_555
