# generated using pymatgen
data_MgZrTi(PbO3)2
_symmetry_space_group_name_H-M   'P 1'
_cell_length_a   6.39709471
_cell_length_b   5.42715218
_cell_length_c   5.43144748
_cell_angle_alpha   90.00000000
_cell_angle_beta   89.63541706
_cell_angle_gamma   90.00000000
_symmetry_Int_Tables_number   1
_chemical_formula_structural   MgZrTi(PbO3)2
_chemical_formula_sum   'Mg1 Zr1 Ti1 Pb2 O6'
_cell_volume   188.56521109
_cell_formula_units_Z   1
loop_
 _symmetry_equiv_pos_site_id
 _symmetry_equiv_pos_as_xyz
  1  'x, y, z'
loop_
 _atom_site_type_symbol
 _atom_site_label
 _atom_site_symmetry_multiplicity
 _atom_site_fract_x
 _atom_site_fract_y
 _atom_site_fract_z
 _atom_site_occupancy
  Mg  Mg0  1  0.71919198  0.50000000  0.53080424  1
  Zr  Zr0  1  0.48903650  0.50000000  0.03598754  1
  Ti  Ti0  1  0.51245846  0.00000000  0.52788138  1
  Pb  Pb0  1  0.86356118  0.00000000  0.02429023  1
  Pb  Pb1  1  0.17343801  0.50000000  0.50765687  1
  O  O0  1  0.63232335  0.24024314  0.28089211  1
  O  O1  1  0.61860770  0.24221183  0.77652726  1
  O  O2  1  0.63232335  0.75975686  0.28089211  1
  O  O3  1  0.61860770  0.75778817  0.77652726  1
  O  O4  1  0.23973526  0.00000000  0.51736619  1
  O  O5  1  0.18694051  0.50000000  0.03879382  1
loop_
_geom_bond_atom_site_label_1
_geom_bond_atom_site_label_2
_geom_bond_distance
_geom_bond_site_symmetry_2
Mg0 O1 2.035115 1_555
Mg0 O3 2.035115 1_555
Mg0 O2 2.036730 1_555
Mg0 O0 2.036730 1_555
Mg0 Pb1 2.907774 1_655
O0 Ti0 2.018541 1_555
O0 Zr0 2.147666 1_555
O0 Pb0 2.409230 1_555
O1 Ti0 2.006143 1_555
O1 Zr0 2.148372 1_556
O1 Pb0 2.453813 1_556
O2 Ti0 2.018541 1_565
O2 Zr0 2.147666 1_555
O2 Pb0 2.409230 1_565
O3 Ti0 2.006143 1_565
O3 Zr0 2.148372 1_556
O3 Pb0 2.453813 1_566
O4 Ti0 1.745934 1_555
O4 Pb1 2.747077 1_555
O4 Pb1 2.747077 1_545
O5 Zr0 1.932500 1_555
O5 Pb1 2.547520 1_555
