# generated using pymatgen
data_Rb2WBr6
_symmetry_space_group_name_H-M   'P 1'
_cell_length_a   7.47823241
_cell_length_b   7.47823093
_cell_length_c   7.47824426
_cell_angle_alpha   59.99995415
_cell_angle_beta   59.99993444
_cell_angle_gamma   60.00011141
_symmetry_Int_Tables_number   1
_chemical_formula_structural   Rb2WBr6
_chemical_formula_sum   'Rb2 W1 Br6'
_cell_volume   295.72121300
_cell_formula_units_Z   1
loop_
 _symmetry_equiv_pos_site_id
 _symmetry_equiv_pos_as_xyz
  1  'x, y, z'
loop_
 _atom_site_type_symbol
 _atom_site_label
 _atom_site_symmetry_multiplicity
 _atom_site_fract_x
 _atom_site_fract_y
 _atom_site_fract_z
 _atom_site_occupancy
  Rb  Rb0  1  0.75000000  0.75000000  0.75000000  1
  Rb  Rb1  1  0.25000000  0.25000000  0.25000000  1
  W  W0  1  -0.00000000  0.00000000  0.00000000  1
  Br  Br0  1  0.75950292  0.24049708  0.75950292  1
  Br  Br1  1  0.24049708  0.24049708  0.75950292  1
  Br  Br2  1  0.75950292  0.75950292  0.24049708  1
  Br  Br3  1  0.24049708  0.75950292  0.24049708  1
  Br  Br4  1  0.24049708  0.75950292  0.75950292  1
  Br  Br5  1  0.75950292  0.24049708  0.24049708  1
loop_
_geom_bond_atom_site_label_1
_geom_bond_atom_site_label_2
_geom_bond_distance
_geom_bond_site_symmetry_2
Br0 W0 2.543458 1_656
Br0 Rb0 3.740466 1_545
Br0 Rb1 3.740466 1_556
Br0 Rb1 3.740466 1_655
Br0 Rb0 3.740466 1_555
Br1 W0 2.543449 1_556
Br1 Rb1 3.740473 1_555
Br1 Rb1 3.740473 1_556
Br1 Rb0 3.740473 1_545
Br1 Rb0 3.740473 1_455
Br2 W0 2.543449 1_665
Br2 Rb1 3.740473 1_655
Br2 Rb0 3.740473 1_554
Br2 Rb0 3.740473 1_555
Br2 Rb1 3.740473 1_565
Br3 W0 2.543458 1_565
Br3 Rb1 3.740466 1_555
Br3 Rb0 3.740466 1_455
Br3 Rb0 3.740466 1_554
Br3 Rb1 3.740466 1_565
Br4 W0 2.543457 1_566
Br4 Rb1 3.740467 1_556
Br4 Rb1 3.740467 1_565
Br4 Rb0 3.740467 1_455
Br4 Rb0 3.740467 1_555
Br5 W0 2.543457 1_655
Br5 Rb0 3.740467 1_545
Br5 Rb1 3.740467 1_655
Br5 Rb0 3.740467 1_554
Br5 Rb1 3.740467 1_555
