# generated using pymatgen
data_Na14Y3Ta5(SiO4)12
_symmetry_space_group_name_H-M   'P 1'
_cell_length_a   18.51511113
_cell_length_b   9.24913661
_cell_length_c   22.60244358
_cell_angle_alpha   90.03182298
_cell_angle_beta   89.92891950
_cell_angle_gamma   119.95942535
_symmetry_Int_Tables_number   1
_chemical_formula_structural   Na14Y3Ta5(SiO4)12
_chemical_formula_sum   'Na42 Y9 Ta15 Si36 O144'
_cell_volume   3353.44066463
_cell_formula_units_Z   3
loop_
 _symmetry_equiv_pos_site_id
 _symmetry_equiv_pos_as_xyz
  1  'x, y, z'
loop_
 _atom_site_type_symbol
 _atom_site_label
 _atom_site_symmetry_multiplicity
 _atom_site_fract_x
 _atom_site_fract_y
 _atom_site_fract_z
 _atom_site_occupancy
  Na  Na0  1  0.31988678  0.01322239  0.24762168  1
  Na  Na1  1  0.81727139  0.01001759  0.24551262  1
  Na  Na2  1  0.18776996  0.36602476  0.24546120  1
  Na  Na3  1  0.68680236  0.35980141  0.24775477  1
  Na  Na4  1  0.99539973  0.62148570  0.24679131  1
  Na  Na5  1  0.49226835  0.62807117  0.24674913  1
  Na  Na6  1  0.31622930  0.62328983  0.74723767  1
  Na  Na7  1  0.81598291  0.62289698  0.74756945  1
  Na  Na8  1  0.99497073  0.36774108  0.74778873  1
  Na  Na9  1  0.49475880  0.36732909  0.74752378  1
  Na  Na10  1  0.18937802  0.00957951  0.74733518  1
  Na  Na11  1  0.68885365  0.00930340  0.74738610  1
  Na  Na12  1  0.15479892  0.34835543  0.57953118  1
  Na  Na13  1  0.65359424  0.34736604  0.57965867  1
  Na  Na14  1  0.01957001  0.69262850  0.57955684  1
  Na  Na15  1  0.51938457  0.69130665  0.57955054  1
  Na  Na16  1  0.32524847  0.95827452  0.57886236  1
  Na  Na17  1  0.82739261  0.96228160  0.58099779  1
  Na  Na18  1  0.15521999  0.96096534  0.07943816  1
  Na  Na19  1  0.65438140  0.96049888  0.07960096  1
  Na  Na20  1  0.32627978  0.69239199  0.08048991  1
  Na  Na21  1  0.82583669  0.69177941  0.08013511  1
  Na  Na22  1  0.01928241  0.34744111  0.07909999  1
  Na  Na23  1  0.51924884  0.34675027  0.07948731  1
  Na  Na24  1  0.34787676  0.02652079  0.91930106  1
  Na  Na25  1  0.84778557  0.02656533  0.91931025  1
  Na  Na26  1  0.48549976  0.29294887  0.41481213  1
  Na  Na27  1  0.66027917  0.02696370  0.41431135  1
  Na  Na28  1  0.35200840  0.67903665  0.41503809  1
  Na  Na29  1  0.84873901  0.67171816  0.41716347  1
  Na  Na30  1  0.00603953  0.01134531  0.49697927  1
  Na  Na31  1  0.49929820  0.99971591  0.49418540  1
  Na  Na32  1  0.00552105  0.99988885  0.99776061  1
  Na  Na33  1  0.50547112  0.00007094  0.99833798  1
  Na  Na34  1  0.33299464  0.34059306  0.83525309  1
  Na  Na35  1  0.83293610  0.34059778  0.83536934  1
  Na  Na36  1  0.33009983  0.32820581  0.33094481  1
  Na  Na37  1  0.83622768  0.33048580  0.33129561  1
  Na  Na38  1  0.16748919  0.66733019  0.15972058  1
  Na  Na39  1  0.66621145  0.66668676  0.15960349  1
  Na  Na40  1  0.16729600  0.66746079  0.66011598  1
  Na  Na41  1  0.66640599  0.66628938  0.66109757  1
  Y  Y0  1  0.49921551  0.99933738  0.34887639  1
  Y  Y1  1  0.33317303  0.33308051  0.68711286  1
  Y  Y2  1  0.83335474  0.33317675  0.68789745  1
  Y  Y3  1  0.33157744  0.33095734  0.18262031  1
  Y  Y4  1  0.83509500  0.33600581  0.18450606  1
  Y  Y5  1  0.16521020  0.66440909  0.01024378  1
  Y  Y6  1  0.66519838  0.66437067  0.01065587  1
  Y  Y7  1  0.16158478  0.66038484  0.51190476  1
  Y  Y8  1  0.67031090  0.67231357  0.51457527  1
  Ta  Ta0  1  0.00236284  0.00362615  0.35355463  1
  Ta  Ta1  1  0.00152674  0.00019966  0.85401159  1
  Ta  Ta2  1  0.50154589  0.00010327  0.85397742  1
  Ta  Ta3  1  0.00022534  0.99975483  0.64598313  1
  Ta  Ta4  1  0.49984946  -0.00000135  0.64533266  1
  Ta  Ta5  1  0.99998413  0.00014643  0.14536099  1
  Ta  Ta6  1  0.49988979  0.00011515  0.14683709  1
  Ta  Ta7  1  0.33352391  0.33721689  0.97915766  1
  Ta  Ta8  1  0.83352039  0.33706703  0.97930718  1
  Ta  Ta9  1  0.33023659  0.32827968  0.47996437  1
  Ta  Ta10  1  0.83659007  0.33533894  0.47981243  1
  Ta  Ta11  1  0.16669816  0.66796360  0.31551151  1
  Ta  Ta12  1  0.66639944  0.66609002  0.31417854  1
  Ta  Ta13  1  0.16628763  0.66529788  0.81602781  1
  Ta  Ta14  1  0.66614242  0.66515659  0.81606895  1
  Si  Si0  1  0.14139274  0.98963346  0.25074017  1
  Si  Si1  1  0.64684640  0.99276559  0.25093369  1
  Si  Si2  1  0.34829774  0.70606935  0.25071930  1
  Si  Si3  1  0.85493576  0.71713330  0.25216129  1
  Si  Si4  1  0.00440473  0.29138474  0.25145461  1
  Si  Si5  1  0.50393641  0.30225966  0.25078371  1
  Si  Si6  1  0.14106697  0.29221761  0.75112550  1
  Si  Si7  1  0.64083932  0.29195065  0.75099102  1
  Si  Si8  1  0.00470707  0.71776392  0.75147434  1
  Si  Si9  1  0.50468981  0.71798382  0.75118327  1
  Si  Si10  1  0.35416252  0.99041689  0.75193166  1
  Si  Si11  1  0.85398582  0.99003982  0.75197087  1
  Si  Si12  1  0.47952324  0.32830445  0.58452221  1
  Si  Si13  1  0.97931593  0.32675745  0.58590511  1
  Si  Si14  1  0.18388615  0.03928513  0.58578140  1
  Si  Si15  1  0.68497942  0.04389183  0.58454387  1
  Si  Si16  1  0.33542128  0.63092656  0.58428256  1
  Si  Si17  1  0.83697066  0.63184513  0.58533477  1
  Si  Si18  1  0.47996943  0.63231076  0.08419242  1
  Si  Si19  1  0.98070100  0.63240721  0.08441776  1
  Si  Si20  1  0.33571195  0.03792036  0.08347062  1
  Si  Si21  1  0.83599177  0.03994136  0.08333099  1
  Si  Si22  1  0.18345709  0.32755270  0.08356431  1
  Si  Si23  1  0.68453723  0.32787533  0.08473223  1
  Si  Si24  1  0.31682210  0.66449310  0.91561346  1
  Si  Si25  1  0.81680048  0.66452850  0.91567165  1
  Si  Si26  1  0.01523436  0.36614289  0.91635654  1
  Si  Si27  1  0.51527373  0.36609808  0.91639971  1
  Si  Si28  1  0.16723938  0.96955728  0.91664355  1
  Si  Si29  1  0.66728718  0.96963432  0.91662779  1
  Si  Si30  1  0.31301654  0.96787736  0.41837756  1
  Si  Si31  1  0.81744723  0.96947494  0.41530283  1
  Si  Si32  1  0.16719000  0.36644525  0.41664000  1
  Si  Si33  1  0.67039342  0.37104138  0.41793330  1
  Si  Si34  1  0.01616717  0.66560176  0.41618562  1
  Si  Si35  1  0.51534144  0.65901541  0.41821389  1
  O  O0  1  0.08848720  0.00531080  0.30478662  1
  O  O1  1  0.61102411  0.02521991  0.31027235  1
  O  O2  1  0.40071137  0.77684398  0.30998941  1
  O  O3  1  0.91316926  0.81707508  0.30770549  1
  O  O4  1  0.48803653  0.19871887  0.31021886  1
  O  O5  1  0.99496665  0.16771292  0.30500016  1
  O  O6  1  0.08797038  0.17045329  0.80489931  1
  O  O7  1  0.58794599  0.17032881  0.80499167  1
  O  O8  1  0.49522107  0.82258255  0.80499355  1
  O  O9  1  0.99515684  0.82262562  0.80496704  1
  O  O10  1  0.41288050  0.00845696  0.80740286  1
  O  O11  1  0.91290412  0.00839148  0.80735904  1
  O  O12  1  0.40185238  0.96679686  0.69246611  1
  O  O13  1  0.90175105  0.96679731  0.69233130  1
  O  O14  1  0.08249223  0.19869026  0.69116192  1
  O  O15  1  0.58257458  0.19879475  0.69103045  1
  O  O16  1  0.01706096  0.83523239  0.69139804  1
  O  O17  1  0.51725593  0.83554753  0.69119572  1
  O  O18  1  0.40186276  0.83523168  0.19351775  1
  O  O19  1  0.90200075  0.83619021  0.19251199  1
  O  O20  1  0.01680331  0.19806212  0.19144485  1
  O  O21  1  0.51563736  0.19675578  0.19342939  1
  O  O22  1  0.08259726  0.96661520  0.19095593  1
  O  O23  1  0.58261188  0.96902997  0.19362216  1
  O  O24  1  0.44335104  0.36086916  0.64457438  1
  O  O25  1  0.94341843  0.35912898  0.64573426  1
  O  O26  1  0.23573536  0.11050168  0.64581277  1
  O  O27  1  0.73750434  0.11566204  0.64438486  1
  O  O28  1  0.31955246  0.52609184  0.64422233  1
  O  O29  1  0.82056326  0.52601366  0.64488775  1
  O  O30  1  0.44424948  0.52956844  0.14405969  1
  O  O31  1  0.94771954  0.53232575  0.14545364  1
  O  O32  1  0.31797439  0.10537768  0.14401428  1
  O  O33  1  0.82129924  0.11419354  0.14302791  1
  O  O34  1  0.23306532  0.35977686  0.14420415  1
  O  O35  1  0.73616769  0.36280924  0.14517261  1
  O  O36  1  0.23797167  0.30323348  0.02835891  1
  O  O37  1  0.73840929  0.30362172  0.02892556  1
  O  O38  1  0.41435638  0.52339860  0.02843261  1
  O  O39  1  0.91428369  0.52283085  0.02925221  1
  O  O40  1  0.34827221  0.16615773  0.02638216  1
  O  O41  1  0.84856192  0.16620851  0.02573234  1
  O  O42  1  0.23734529  0.17167341  0.52998305  1
  O  O43  1  0.73647359  0.16917724  0.52655935  1
  O  O44  1  0.34816874  0.52944695  0.52664265  1
  O  O45  1  0.84868918  0.52930533  0.52742072  1
  O  O46  1  0.41536356  0.30297033  0.52740436  1
  O  O47  1  0.91503494  0.30563765  0.52922559  1
  O  O48  1  0.28657806  0.71727473  0.97401766  1
  O  O49  1  0.78652403  0.71741877  0.97413478  1
  O  O50  1  0.06554933  0.42649532  0.97686717  1
  O  O51  1  0.56581629  0.42697333  0.97687851  1
  O  O52  1  0.14912958  0.86936462  0.97731240  1
  O  O53  1  0.64937972  0.86919234  0.97729914  1
  O  O54  1  0.27626045  0.85758590  0.47687513  1
  O  O55  1  0.78833542  0.86200254  0.47489874  1
  O  O56  1  0.14786657  0.42583511  0.47798018  1
  O  O57  1  0.65554777  0.44694548  0.47687890  1
  O  O58  1  0.06406887  0.70393324  0.47776932  1
  O  O59  1  0.57019333  0.69405825  0.47643371  1
  O  O60  1  0.06937148  0.64157649  0.36049669  1
  O  O61  1  0.56991331  0.63799179  0.36070924  1
  O  O62  1  0.25056833  0.85906276  0.36034993  1
  O  O63  1  0.74961836  0.86411351  0.36015497  1
  O  O64  1  0.18093128  0.50182535  0.36142066  1
  O  O65  1  0.68226419  0.50146994  0.36057595  1
  O  O66  1  0.07015623  0.49763747  0.86062148  1
  O  O67  1  0.57011037  0.49759626  0.86066522  1
  O  O68  1  0.18087940  0.86011320  0.86128941  1
  O  O69  1  0.68103369  0.86045816  0.86125643  1
  O  O70  1  0.25099471  0.64079720  0.85963099  1
  O  O71  1  0.75106291  0.64100090  0.85968051  1
  O  O72  1  0.99763628  0.81968838  0.40415224  1
  O  O73  1  0.49946927  0.81454629  0.41331918  1
  O  O74  1  0.40667906  0.99963113  0.41311041  1
  O  O75  1  0.90903724  0.98999083  0.40281857  1
  O  O76  1  0.08890728  0.17977861  0.40336504  1
  O  O77  1  0.59230177  0.18449066  0.41328701  1
  O  O78  1  0.99810762  0.17591329  0.90396291  1
  O  O79  1  0.49815289  0.17591669  0.90398023  1
  O  O80  1  0.08813460  0.99653171  0.90340312  1
  O  O81  1  0.58812315  0.99642262  0.90342331  1
  O  O82  1  0.40845141  0.82813421  0.90257773  1
  O  O83  1  0.90844041  0.82828560  0.90261577  1
  O  O84  1  0.48069715  0.14842475  0.58882226  1
  O  O85  1  0.98023870  0.14710064  0.58857851  1
  O  O86  1  0.09327865  0.03832669  0.58895827  1
  O  O87  1  0.59371184  0.03968017  0.58860296  1
  O  O88  1  0.42522694  0.81329305  0.58904619  1
  O  O89  1  0.92656851  0.81384244  0.58894540  1
  O  O90  1  0.48145643  0.81477116  0.08838494  1
  O  O91  1  0.98082896  0.81342094  0.08815836  1
  O  O92  1  0.42601269  0.03677653  0.08886197  1
  O  O93  1  0.92567160  0.03625323  0.08857169  1
  O  O94  1  0.09259268  0.14762179  0.08784921  1
  O  O95  1  0.59348929  0.14862316  0.08902321  1
  O  O96  1  0.34366908  0.15362444  0.75255740  1
  O  O97  1  0.84347594  0.15316723  0.75268671  1
  O  O98  1  0.23259749  0.31220067  0.75252651  1
  O  O99  1  0.73249863  0.31194602  0.75263593  1
  O  O100  1  0.42308302  0.53447005  0.75240607  1
  O  O101  1  0.92316943  0.53474086  0.75263918  1
  O  O102  1  0.33191045  0.51849578  0.24574164  1
  O  O103  1  0.84435035  0.53291266  0.25274584  1
  O  O104  1  0.42587336  0.33363031  0.24602763  1
  O  O105  1  0.92337406  0.31267615  0.25231389  1
  O  O106  1  0.23322467  0.15100306  0.25196752  1
  O  O107  1  0.74036556  0.14930514  0.24629768  1
  O  O108  1  0.32250334  0.49333904  0.92233638  1
  O  O109  1  0.82261698  0.49354188  0.92250025  1
  O  O110  1  0.42179881  0.34819650  0.92108097  1
  O  O111  1  0.92184611  0.34860762  0.92103630  1
  O  O112  1  0.25644707  0.14855212  0.92066696  1
  O  O113  1  0.75640834  0.14885505  0.92078589  1
  O  O114  1  0.31799707  0.15165168  0.42281970  1
  O  O115  1  0.81814061  0.14860055  0.42177726  1
  O  O116  1  0.25730371  0.36816176  0.42153582  1
  O  O117  1  0.75916594  0.36681451  0.42151655  1
  O  O118  1  0.42513888  0.48096246  0.42171848  1
  O  O119  1  0.92292408  0.49406045  0.42179035  1
  O  O120  1  0.16812714  0.48409470  0.07646521  1
  O  O121  1  0.66898425  0.48422716  0.07714947  1
  O  O122  1  0.07440973  0.66442957  0.07720769  1
  O  O123  1  0.57382296  0.66388966  0.07743159  1
  O  O124  1  0.25807159  0.84957549  0.07681708  1
  O  O125  1  0.75804949  0.85155852  0.07759843  1
  O  O126  1  0.16711617  0.85092542  0.57921883  1
  O  O127  1  0.66897658  0.85608449  0.57920905  1
  O  O128  1  0.25737444  0.66288708  0.57808788  1
  O  O129  1  0.76004387  0.66671214  0.58066779  1
  O  O130  1  0.07318003  0.48220771  0.58014174  1
  O  O131  1  0.57369780  0.48290888  0.57869777  1
  O  O132  1  0.14527454  0.81458442  0.25718472  1
  O  O133  1  0.64919023  0.81430545  0.25481254  1
  O  O134  1  0.25734480  0.70446483  0.25434519  1
  O  O135  1  0.76297935  0.70684719  0.25821473  1
  O  O136  1  0.09095989  0.47484912  0.25835087  1
  O  O137  1  0.59430909  0.48345658  0.25478695  1
  O  O138  1  0.14644498  0.47688262  0.75689275  1
  O  O139  1  0.64652831  0.47691123  0.75689605  1
  O  O140  1  0.09157602  0.70723830  0.75775480  1
  O  O141  1  0.59151163  0.70712847  0.75772875  1
  O  O142  1  0.26142010  0.81664404  0.75705130  1
  O  O143  1  0.76136279  0.81647188  0.75690742  1
loop_
_geom_bond_atom_site_label_1
_geom_bond_atom_site_label_2
_geom_bond_distance
_geom_bond_site_symmetry_2
Na0 O134 2.493288 1_545
Na0 O32 2.498853 1_555
Na0 O106 2.499993 1_555
Na0 O104 2.612679 1_555
Na0 O132 2.817888 1_545
Na0 O62 2.887974 1_545
Na1 O107 2.349390 1_555
Na1 O135 2.478024 1_545
Na1 O105 2.495371 1_555
Na1 O33 2.495993 1_555
Na1 O133 2.716263 1_545
Na1 O63 2.900339 1_545
Na1 O19 2.998882 1_545
Na2 O102 2.313486 1_555
Na2 O34 2.447063 1_555
Na2 O136 2.472080 1_555
Na2 O106 2.521393 1_555
Na2 O134 2.733294 1_555
Na2 O64 2.935557 1_555
Na2 O20 3.003349 1_555
Na3 O35 2.486270 1_555
Na3 O137 2.494273 1_555
Na3 O103 2.534001 1_555
Na3 O107 2.589082 1_555
Na3 O135 2.797630 1_555
Na3 O65 2.886585 1_555
Na4 O31 2.445709 1_555
Na4 O132 2.448774 1_655
Na4 O105 2.479451 1_555
Na4 O103 2.494319 1_555
Na4 O136 2.726976 1_655
Na4 O60 2.875645 1_655
Na5 O104 2.363104 1_555
Na5 O30 2.490270 1_555
Na5 O133 2.538550 1_555
Na5 O102 2.614891 1_555
Na5 O137 2.813641 1_555
Na5 O61 2.930347 1_555
Na5 O23 2.985899 1_555
Na5 O2 3.021885 1_555
Na6 O142 2.467558 1_555
Na6 O100 2.495312 1_555
Na6 O98 2.498180 1_555
Na6 O28 2.507187 1_555
Na6 O138 2.740510 1_555
Na6 O70 2.850576 1_555
Na7 O143 2.465819 1_555
Na7 O101 2.496660 1_555
Na7 O99 2.496747 1_555
Na7 O29 2.503926 1_555
Na7 O139 2.734747 1_555
Na7 O71 2.843750 1_555
Na8 O138 2.469919 1_655
Na8 O25 2.483446 1_555
Na8 O101 2.493088 1_555
Na8 O97 2.501647 1_555
Na8 O140 2.738724 1_655
Na8 O66 2.867103 1_655
Na9 O139 2.474885 1_555
Na9 O100 2.492319 1_555
Na9 O96 2.494469 1_555
Na9 O24 2.504511 1_555
Na9 O141 2.741687 1_555
Na9 O67 2.874769 1_555
Na10 O26 2.463888 1_555
Na10 O140 2.469104 1_545
Na10 O96 2.479740 1_555
Na10 O98 2.500251 1_555
Na10 O142 2.718516 1_545
Na10 O68 2.890590 1_545
Na11 O141 2.466343 1_545
Na11 O97 2.485315 1_555
Na11 O99 2.498633 1_555
Na11 O27 2.512246 1_555
Na11 O143 2.724378 1_545
Na11 O69 2.888658 1_545
Na12 O130 2.384336 1_555
Na12 O56 2.427519 1_555
Na12 O86 2.510625 1_555
Na12 O128 2.559850 1_555
Na12 O85 2.818261 1_455
Na12 O14 2.866921 1_555
Na12 O42 2.957830 1_555
Na12 O28 3.024144 1_555
Na13 O131 2.369130 1_555
Na13 O57 2.493023 1_555
Na13 O87 2.493510 1_555
Na13 O129 2.606717 1_555
Na13 O84 2.791421 1_555
Na13 O15 2.853936 1_555
Na14 O126 2.368914 1_555
Na14 O58 2.427395 1_555
Na14 O89 2.488768 1_455
Na14 O130 2.588947 1_555
Na14 O86 2.787973 1_565
Na14 O16 2.861682 1_555
Na15 O127 2.403759 1_555
Na15 O59 2.507680 1_555
Na15 O88 2.514285 1_555
Na15 O131 2.581229 1_555
Na15 O87 2.808764 1_565
Na15 O17 2.863169 1_555
Na15 O44 2.998014 1_555
Na15 O24 3.030707 1_555
Na16 O128 2.369529 1_555
Na16 O54 2.482516 1_555
Na16 O84 2.524488 1_565
Na16 O126 2.579656 1_555
Na16 O88 2.785384 1_555
Na17 O129 2.371436 1_555
Na17 O85 2.475758 1_565
Na17 O55 2.542833 1_555
Na17 O127 2.586937 1_555
Na17 O89 2.794297 1_555
Na17 O13 2.860168 1_555
Na17 O47 2.990033 1_565
Na17 O27 3.030674 1_565
Na18 O122 2.380126 1_555
Na18 O52 2.441675 1_554
Na18 O94 2.521843 1_565
Na18 O124 2.578859 1_555
Na18 O91 2.815059 1_455
Na18 O22 2.868039 1_555
Na18 O36 2.976116 1_565
Na18 O32 2.997300 1_565
Na19 O123 2.380424 1_555
Na19 O53 2.447165 1_554
Na19 O95 2.510435 1_565
Na19 O125 2.575441 1_555
Na19 O90 2.792083 1_555
Na20 O124 2.355730 1_555
Na20 O90 2.514116 1_555
Na20 O48 2.560993 1_554
Na20 O120 2.580768 1_555
Na20 O92 2.777969 1_565
Na20 O18 2.896357 1_555
Na21 O125 2.369656 1_555
Na21 O91 2.512021 1_555
Na21 O49 2.550211 1_554
Na21 O121 2.560453 1_555
Na21 O93 2.778916 1_565
Na21 O19 2.889306 1_555
Na21 O39 2.999233 1_555
Na21 O35 3.021389 1_555
Na22 O120 2.390949 1_555
Na22 O50 2.445244 1_554
Na22 O93 2.520183 1_455
Na22 O122 2.578889 1_555
Na22 O94 2.793522 1_555
Na22 O20 2.880825 1_555
Na23 O121 2.405096 1_555
Na23 O51 2.455742 1_554
Na23 O92 2.510215 1_555
Na23 O123 2.582048 1_555
Na23 O95 2.794810 1_555
Na24 O79 2.434972 1_555
Na24 O112 2.459414 1_555
Na24 O110 2.580644 1_555
Na24 O82 2.611743 1_545
Na24 O40 2.740991 1_556
Na24 O48 2.785116 1_545
Na24 O10 2.840067 1_555
Na24 O68 2.983822 1_545
Na25 O78 2.435788 1_555
Na25 O113 2.460471 1_555
Na25 O111 2.583521 1_555
Na25 O83 2.611901 1_545
Na25 O41 2.726247 1_556
Na25 O49 2.785515 1_545
Na25 O11 2.842369 1_555
Na25 O69 2.980706 1_545
Na26 O74 2.353076 1_545
Na26 O118 2.497537 1_555
Na26 O4 2.527630 1_555
Na26 O77 2.626562 1_555
Na26 O114 2.703650 1_555
Na26 O46 2.878014 1_555
Na27 O77 2.353526 1_555
Na27 O1 2.520366 1_555
Na27 O115 2.560046 1_555
Na27 O73 2.623564 1_545
Na27 O117 2.740681 1_555
Na27 O43 2.882525 1_555
Na27 O63 2.997421 1_545
Na27 O59 3.017269 1_545
Na28 O73 2.368272 1_555
Na28 O116 2.515539 1_555
Na28 O2 2.539960 1_555
Na28 O74 2.611757 1_555
Na28 O118 2.773229 1_555
Na28 O44 2.861418 1_555
Na28 O54 2.992234 1_555
Na28 O64 3.001709 1_555
Na29 O72 2.406203 1_555
Na29 O117 2.457994 1_555
Na29 O75 2.595168 1_555
Na29 O119 2.617702 1_555
Na29 O3 2.783139 1_555
Na29 O45 2.819204 1_555
Na29 O55 2.830352 1_555
Na29 O65 2.962420 1_555
Na30 O86 2.568750 1_555
Na30 O85 2.585525 1_455
Na30 O76 2.620383 1_555
Na30 O89 2.671120 1_445
Na30 O72 2.699972 1_445
Na30 O75 2.729263 1_445
Na31 O73 2.505174 1_555
Na31 O77 2.507133 1_565
Na31 O74 2.511017 1_555
Na31 O84 2.655911 1_565
Na31 O88 2.661953 1_555
Na31 O87 2.666398 1_565
Na32 O94 2.533215 1_566
Na32 O91 2.563646 1_456
Na32 O80 2.632177 1_555
Na32 O93 2.645783 1_466
Na32 O78 2.718798 1_465
Na32 O83 2.744282 1_455
Na33 O95 2.552198 1_556
Na33 O90 2.553021 1_546
Na33 O92 2.637539 1_556
Na33 O81 2.643609 1_545
Na33 O79 2.727042 1_555
Na33 O82 2.755563 1_545
Na34 O108 2.485535 1_555
Na34 O110 2.522690 1_555
Na34 O112 2.524561 1_555
Na34 O100 2.552017 1_555
Na34 O98 2.557559 1_555
Na34 O96 2.619162 1_555
Na35 O109 2.486350 1_555
Na35 O111 2.520025 1_555
Na35 O113 2.523364 1_555
Na35 O101 2.551820 1_555
Na35 O99 2.557552 1_555
Na35 O97 2.620926 1_555
Na36 O106 2.481630 1_555
Na36 O116 2.575964 1_555
Na36 O114 2.581900 1_555
Na36 O104 2.594921 1_555
Na36 O102 2.598493 1_555
Na36 O118 2.612416 1_555
Na37 O105 2.464843 1_555
Na37 O103 2.530204 1_555
Na37 O115 2.562054 1_555
Na37 O119 2.574570 1_555
Na37 O107 2.585253 1_555
Na37 O117 2.603445 1_555
Na38 O124 2.517433 1_555
Na38 O122 2.531933 1_555
Na38 O120 2.535716 1_555
Na38 O134 2.626282 1_555
Na38 O132 2.725979 1_555
Na38 O136 2.761152 1_555
Na39 O123 2.517917 1_555
Na39 O125 2.518409 1_555
Na39 O121 2.531136 1_555
Na39 O137 2.648845 1_555
Na39 O133 2.649381 1_555
Na39 O135 2.767695 1_555
Na40 O126 2.496370 1_555
Na40 O130 2.502423 1_555
Na40 O128 2.506700 1_555
Na40 O142 2.710307 1_555
Na40 O138 2.713540 1_555
Na40 O140 2.734546 1_555
Na41 O129 2.509183 1_555
Na41 O131 2.527540 1_555
Na41 O127 2.535654 1_555
Na41 O139 2.692641 1_555
Na41 O143 2.697596 1_555
Na41 O141 2.711191 1_555
O0 Si0 1.616016 1_545
O0 Ta0 1.931024 1_555
O1 Si1 1.589030 1_545
O1 Y0 2.145913 1_545
O2 Si2 1.591447 1_555
O2 Y0 2.141745 1_555
O3 Si3 1.612368 1_555
O3 Ta0 1.983580 1_665
O4 Si5 1.589755 1_555
O4 Y0 2.142541 1_545
O5 Si4 1.614016 1_655
O5 Ta0 1.932936 1_655
O6 Si6 1.613943 1_555
O6 Ta1 1.937485 1_555
O7 Si7 1.616316 1_555
O7 Ta2 1.935407 1_555
O8 Si9 1.616633 1_555
O8 Ta2 1.934334 1_565
O9 Si8 1.613452 1_655
O9 Ta1 1.935220 1_665
O10 Si10 1.613607 1_545
O10 Ta2 1.984999 1_555
O11 Si11 1.613790 1_545
O11 Ta1 1.984590 1_655
O12 Si10 1.680266 1_555
O12 Ta4 1.990086 1_565
O13 Si11 1.682869 1_555
O13 Ta3 1.988756 1_655
O14 Si6 1.681286 1_555
O14 Ta3 1.987699 1_545
O15 Si7 1.678344 1_555
O15 Ta4 1.995656 1_555
O16 Si8 1.682033 1_555
O16 Ta3 1.985614 1_555
O17 Si9 1.680189 1_555
O17 Ta4 1.996035 1_565
O18 Si2 1.702211 1_555
O18 Ta6 1.991390 1_565
O19 Si3 1.682253 1_555
O19 Ta5 1.993965 1_565
O20 Si4 1.683239 1_555
O20 Ta5 1.990520 1_455
O21 Si5 1.699624 1_555
O21 Ta6 1.992711 1_555
O22 Si0 1.681716 1_555
O22 Ta5 1.993977 1_465
O23 Si1 1.698056 1_555
O23 Ta6 1.997717 1_565
O24 Si12 1.606349 1_555
O24 Y1 2.150270 1_555
O25 Si13 1.598797 1_555
O25 Y2 2.150695 1_555
O26 Si14 1.602247 1_555
O26 Y1 2.157957 1_555
O27 Si15 1.604154 1_555
O27 Y2 2.144842 1_555
O28 Si16 1.605579 1_555
O28 Y1 2.154639 1_555
O29 Si17 1.601786 1_555
O29 Y2 2.146311 1_555
O30 Si18 1.594658 1_555
O30 Y3 2.157745 1_555
O31 Si19 1.602406 1_555
O31 Y4 2.154062 1_555
O32 Si20 1.603850 1_555
O32 Y3 2.156772 1_555
O33 Si21 1.597156 1_555
O33 Y4 2.151321 1_555
O34 Si22 1.593830 1_555
O34 Y3 2.154440 1_555
O35 Si23 1.605837 1_555
O35 Y4 2.159766 1_555
O36 Si22 1.688086 1_555
O36 Ta7 1.976242 1_554
O37 Si23 1.690063 1_555
O37 Ta8 1.976347 1_554
O38 Si18 1.690879 1_555
O38 Ta7 1.968143 1_554
O39 Si19 1.688697 1_555
O39 Ta8 1.974444 1_554
O40 Si20 1.688584 1_555
O40 Ta7 2.037445 1_554
O41 Si21 1.685942 1_555
O41 Ta8 2.029310 1_554
O42 Si14 1.690485 1_555
O42 Ta9 1.960374 1_555
O43 Si15 1.692505 1_555
O43 Ta10 2.016437 1_555
O44 Si16 1.689113 1_555
O44 Ta9 2.016671 1_555
O45 Si17 1.692177 1_555
O45 Ta10 2.005908 1_555
O46 Si12 1.690625 1_555
O46 Ta9 2.015370 1_555
O47 Si13 1.693272 1_555
O47 Ta10 1.958372 1_555
O48 Si24 1.601556 1_555
O48 Y5 2.203999 1_556
O49 Si25 1.603435 1_555
O49 Y6 2.205285 1_556
O50 Si26 1.591526 1_555
O50 Y5 2.182279 1_556
O51 Si27 1.592926 1_555
O51 Y6 2.180872 1_556
O52 Si28 1.594204 1_555
O52 Y5 2.191354 1_556
O53 Si29 1.595664 1_555
O53 Y6 2.190743 1_556
O54 Si30 1.599319 1_555
O54 Y7 2.142728 1_555
O55 Si31 1.599256 1_555
O55 Y8 2.196655 1_555
O56 Si32 1.595669 1_555
O56 Y7 2.192483 1_555
O57 Si33 1.591940 1_555
O57 Y8 2.138967 1_555
O58 Si34 1.593192 1_555
O58 Y7 2.178889 1_555
O59 Si35 1.594418 1_555
O59 Y8 2.143904 1_555
O60 Si34 1.679093 1_555
O60 Ta11 1.974114 1_555
O61 Si35 1.714864 1_555
O61 Ta12 1.974076 1_555
O62 Si30 1.705887 1_555
O62 Ta11 1.955285 1_555
O63 Si31 1.691372 1_555
O63 Ta12 1.997950 1_555
O64 Si32 1.695024 1_555
O64 Ta11 1.978467 1_555
O65 Si33 1.708947 1_555
O65 Ta12 1.988358 1_555
O66 Si26 1.692183 1_555
O66 Ta13 1.956833 1_555
O67 Si27 1.691808 1_555
O67 Ta14 1.955606 1_555
O68 Si28 1.704976 1_555
O68 Ta13 1.969452 1_555
O69 Si29 1.704484 1_555
O69 Ta14 1.970625 1_555
O70 Si24 1.694498 1_555
O70 Ta13 1.959961 1_555
O71 Si25 1.693913 1_555
O71 Ta14 1.961807 1_555
O72 Si34 1.646766 1_655
O72 Ta0 2.015705 1_665
O73 Si35 1.609486 1_555
O73 Y0 2.248027 1_555
O74 Si30 1.612022 1_555
O74 Y0 2.245398 1_555
O75 Si31 1.633660 1_555
O75 Ta0 2.004805 1_665
O76 Si32 1.634870 1_555
O76 Ta0 1.970930 1_555
O77 Si33 1.608471 1_555
O77 Y0 2.253480 1_545
O78 Si26 1.648378 1_655
O78 Ta1 2.005122 1_655
O79 Si27 1.648081 1_555
O79 Ta2 2.006328 1_555
O80 Si28 1.631898 1_555
O80 Ta1 1.969171 1_565
O81 Si29 1.631783 1_555
O81 Ta2 1.969453 1_565
O82 Si24 1.640263 1_555
O82 Ta2 1.991626 1_565
O83 Si25 1.640893 1_555
O83 Ta1 1.991418 1_665
O84 Si12 1.677565 1_555
O84 Ta4 2.032504 1_555
O85 Si13 1.671395 1_555
O85 Ta3 2.045616 1_645
O86 Si14 1.674650 1_555
O86 Ta3 2.034208 1_545
O87 Si15 1.673120 1_555
O87 Ta4 2.038862 1_555
O88 Si16 1.679430 1_555
O88 Ta4 2.031862 1_565
O89 Si17 1.674319 1_555
O89 Ta3 2.034304 1_655
O90 Si18 1.676651 1_555
O90 Ta6 2.053028 1_565
O91 Si19 1.675127 1_555
O91 Ta5 2.041327 1_565
O92 Si20 1.681808 1_555
O92 Ta6 2.042365 1_555
O93 Si21 1.682050 1_555
O93 Ta5 2.028792 1_555
O94 Si22 1.677117 1_555
O94 Ta5 2.037361 1_455
O95 Si23 1.675785 1_555
O95 Ta6 2.053400 1_555
O96 Si10 1.615400 1_545
O96 Y1 2.303564 1_555
O97 Si11 1.614859 1_545
O97 Y2 2.294903 1_555
O98 Si6 1.610730 1_555
O98 Y1 2.307651 1_555
O99 Si7 1.613180 1_555
O99 Y2 2.300869 1_555
O100 Si9 1.613448 1_555
O100 Y1 2.307548 1_555
O101 Si8 1.610250 1_655
O101 Y2 2.299751 1_555
O102 Si2 1.608943 1_555
O102 Y3 2.242949 1_555
O103 Si3 1.615018 1_555
O103 Y4 2.326152 1_555
O104 Si5 1.613705 1_555
O104 Y3 2.250730 1_555
O105 Si4 1.607807 1_655
O105 Y4 2.329359 1_555
O106 Si0 1.607740 1_545
O106 Y3 2.347718 1_555
O107 Si1 1.612832 1_545
O107 Y4 2.231675 1_555
O108 Si24 1.645220 1_555
O108 Ta7 2.018211 1_555
O109 Si25 1.645270 1_555
O109 Ta8 2.019510 1_555
O110 Si27 1.657494 1_555
O110 Ta7 2.057621 1_555
O111 Si26 1.657327 1_655
O111 Ta8 2.059350 1_555
O112 Si28 1.657196 1_545
O112 Ta7 2.084287 1_555
O113 Si29 1.657620 1_545
O113 Ta8 2.082832 1_555
O114 Si30 1.658623 1_545
O114 Ta9 2.004262 1_555
O115 Si31 1.656779 1_545
O115 Ta10 2.056643 1_555
O116 Si32 1.664414 1_555
O116 Ta9 2.050870 1_555
O117 Si33 1.665572 1_555
O117 Ta10 2.073113 1_555
O118 Si35 1.661447 1_555
O118 Ta9 2.081565 1_555
O119 Si34 1.666662 1_655
O119 Ta10 2.020728 1_555
O120 Si22 1.616628 1_555
O120 Y5 2.262202 1_555
O121 Si23 1.618604 1_555
O121 Y6 2.271452 1_555
O122 Si19 1.615767 1_455
O122 Y5 2.260796 1_555
O123 Si18 1.618876 1_555
O123 Y6 2.264160 1_555
O124 Si20 1.619524 1_565
O124 Y5 2.283853 1_555
O125 Si21 1.619905 1_565
O125 Y6 2.296327 1_555
O126 Si14 1.616509 1_565
O126 Y7 2.290918 1_555
O127 Si15 1.614156 1_565
O127 Y8 2.250096 1_555
O128 Si16 1.619363 1_555
O128 Y7 2.312856 1_555
O129 Si17 1.613367 1_555
O129 Y8 2.255393 1_555
O130 Si13 1.615079 1_455
O130 Y7 2.253045 1_555
O131 Si12 1.616101 1_555
O131 Y8 2.288191 1_555
O132 Si0 1.662595 1_555
O132 Ta11 2.067588 1_555
O133 Si1 1.675043 1_555
O133 Ta12 2.054418 1_555
O134 Si2 1.678542 1_555
O134 Ta11 2.066628 1_555
O135 Si3 1.662593 1_555
O135 Ta12 2.064314 1_555
O136 Si4 1.660195 1_555
O136 Ta11 2.079961 1_555
O137 Si5 1.678119 1_555
O137 Ta12 2.046222 1_555
O138 Si6 1.665552 1_555
O138 Ta13 2.077876 1_555
O139 Si7 1.665923 1_555
O139 Ta14 2.078272 1_555
O140 Si8 1.665387 1_555
O140 Ta13 2.083216 1_555
O141 Si9 1.666698 1_555
O141 Ta14 2.083196 1_555
O142 Si10 1.669859 1_555
O142 Ta13 2.091066 1_555
O143 Si11 1.667519 1_555
O143 Ta14 2.094485 1_555
