# generated using pymatgen
data_Al2O3
_symmetry_space_group_name_H-M   'P 1'
_cell_length_a   4.99579751
_cell_length_b   4.99579751
_cell_length_c   9.33675446
_cell_angle_alpha   90.00000000
_cell_angle_beta   90.00000000
_cell_angle_gamma   120.00000302
_symmetry_Int_Tables_number   1
_chemical_formula_structural   Al2O3
_chemical_formula_sum   'Al6 O9'
_cell_volume   201.80699255
_cell_formula_units_Z   3
loop_
 _symmetry_equiv_pos_site_id
 _symmetry_equiv_pos_as_xyz
  1  'x, y, z'
loop_
 _atom_site_type_symbol
 _atom_site_label
 _atom_site_symmetry_multiplicity
 _atom_site_fract_x
 _atom_site_fract_y
 _atom_site_fract_z
 _atom_site_occupancy
  Al  Al0  1  0.66666700  0.33333300  0.14984279  1
  Al  Al1  1  0.00000000  0.00000000  0.14998967  1
  Al  Al2  1  0.33333300  0.66666700  0.15014454  1
  Al  Al3  1  0.66666700  0.33333300  0.84985546  1
  Al  Al4  1  0.00000000  0.00000000  0.85001033  1
  Al  Al5  1  0.33333300  0.66666700  0.85015721  1
  O  O0  1  -0.00008087  0.66663017  0.22231692  1
  O  O1  1  0.33336983  0.33328896  0.22231692  1
  O  O2  1  0.66671104  0.00008087  0.22231692  1
  O  O3  1  0.33333100  0.00000000  0.00000000  1
  O  O4  1  0.00000000  0.33333100  0.00000000  1
  O  O5  1  0.66666900  0.66666900  0.00000000  1
  O  O6  1  0.33328896  0.33336983  0.77768308  1
  O  O7  1  0.66663017  -0.00008087  0.77768308  1
  O  O8  1  0.00008087  0.66671104  0.77768308  1
loop_
_geom_bond_atom_site_label_1
_geom_bond_atom_site_label_2
_geom_bond_distance
_geom_bond_site_symmetry_2
Al0 O2 1.797223 1_555
Al0 O0 1.797226 1_655
Al0 O1 1.797228 1_555
Al0 O4 2.174960 1_655
Al0 O3 2.174961 1_555
Al0 O5 2.174963 1_555
Al1 O1 1.796963 1_555
Al1 O0 1.796963 1_545
Al1 O2 1.796963 1_455
Al1 O5 2.175830 1_445
Al1 O3 2.175831 1_555
Al1 O4 2.175831 1_555
Al2 O0 1.796726 1_555
Al2 O2 1.796729 1_565
Al2 O1 1.796731 1_555
Al2 O3 2.176773 1_565
Al2 O4 2.176775 1_555
Al2 O5 2.176777 1_555
Al3 O7 1.796726 1_555
Al3 O8 1.796729 1_655
Al3 O6 1.796731 1_555
Al3 O4 2.176773 1_656
Al3 O3 2.176775 1_556
Al3 O5 2.176777 1_556
Al4 O6 1.796963 1_555
Al4 O7 1.796963 1_455
Al4 O8 1.796963 1_545
Al4 O5 2.175830 1_446
Al4 O3 2.175831 1_556
Al4 O4 2.175831 1_556
Al5 O8 1.797223 1_555
Al5 O7 1.797226 1_565
Al5 O6 1.797228 1_555
Al5 O3 2.174960 1_566
Al5 O4 2.174961 1_556
Al5 O5 2.174963 1_556
