# generated using pymatgen
data_MgFe2CuAs2(HO5)2
_symmetry_space_group_name_H-M   'P 1'
_cell_length_a   6.02410532
_cell_length_b   5.51525488
_cell_length_c   7.89990686
_cell_angle_alpha   104.02109846
_cell_angle_beta   106.63017386
_cell_angle_gamma   106.88699078
_symmetry_Int_Tables_number   1
_chemical_formula_structural   MgFe2CuAs2(HO5)2
_chemical_formula_sum   'Mg1 Fe2 Cu1 As2 H2 O10'
_cell_volume   224.97992618
_cell_formula_units_Z   1
loop_
 _symmetry_equiv_pos_site_id
 _symmetry_equiv_pos_as_xyz
  1  'x, y, z'
loop_
 _atom_site_type_symbol
 _atom_site_label
 _atom_site_symmetry_multiplicity
 _atom_site_fract_x
 _atom_site_fract_y
 _atom_site_fract_z
 _atom_site_occupancy
  Mg  Mg0  1  0.49802500  0.51038700  0.99775500  1
  Fe  Fe0  1  0.84719000  0.40657300  0.78924900  1
  Fe  Fe1  1  0.14391500  0.61438400  0.20092700  1
  Cu  Cu0  1  0.99423300  0.00971400  0.99202200  1
  As  As0  1  0.26876300  0.85382200  0.69014400  1
  As  As1  1  0.73165500  0.16613000  0.30484400  1
  H  H0  1  0.21951800  0.41244900  0.63141700  1
  H  H1  1  0.74330400  0.60105600  0.38190800  1
  O  O0  1  0.51908800  0.14737800  0.83552900  1
  O  O1  1  0.48262600  0.86851000  0.16822500  1
  O  O2  1  0.37157900  0.57969800  0.71556300  1
  O  O3  1  0.61245000  0.43069300  0.28279800  1
  O  O4  1  0.01195900  0.79035300  0.75240800  1
  O  O5  1  0.97487100  0.23075600  0.22914100  1
  O  O6  1  0.17619900  0.82263100  0.45983500  1
  O  O7  1  0.84926000  0.20910200  0.53784000  1
  O  O8  1  0.14089900  0.34962700  0.96765500  1
  O  O9  1  0.85196500  0.67173700  0.02107300  1
loop_
_geom_bond_atom_site_label_1
_geom_bond_atom_site_label_2
_geom_bond_distance
_geom_bond_site_symmetry_2
Mg0 O9 1.991335 1_556
Mg0 O8 1.991952 1_555
Mg0 O1 2.147660 1_556
Mg0 O0 2.159688 1_555
Mg0 O2 2.303523 1_555
Mg0 O3 2.346519 1_556
Fe0 O7 2.026044 1_555
Fe0 O9 2.034987 1_556
Fe0 O8 2.079796 1_655
Fe0 O4 2.189379 1_655
Fe0 O0 2.260355 1_555
Fe1 O6 2.011131 1_555
Fe1 O8 2.046963 1_554
Fe1 O9 2.079095 1_455
Fe1 O5 2.161017 1_455
Fe1 O1 2.238350 1_555
Cu0 O8 1.908436 1_655
Cu0 O9 1.911423 1_546
Cu0 O5 2.027282 1_556
Cu0 O4 2.034534 1_645
As0 O6 1.691957 1_555
As0 O0 1.703993 1_565
As0 O4 1.721077 1_555
As0 O2 1.824726 1_555
As1 O7 1.700215 1_555
As1 O1 1.701153 1_545
As1 O5 1.712550 1_555
As1 O3 1.826299 1_555
H0 O2 0.997647 1_555
H1 O3 0.988535 1_555
