# generated using pymatgen
data_CaP2H6O7
_symmetry_space_group_name_H-M   'P 1'
_cell_length_a   6.83746700
_cell_length_b   7.12946647
_cell_length_c   8.16158039
_cell_angle_alpha   68.54981452
_cell_angle_beta   84.91720379
_cell_angle_gamma   84.22361489
_symmetry_Int_Tables_number   1
_chemical_formula_structural   CaP2H6O7
_chemical_formula_sum   'Ca2 P4 H12 O14'
_cell_volume   367.84245828
_cell_formula_units_Z   2
loop_
 _symmetry_equiv_pos_site_id
 _symmetry_equiv_pos_as_xyz
  1  'x, y, z'
loop_
 _atom_site_type_symbol
 _atom_site_label
 _atom_site_symmetry_multiplicity
 _atom_site_fract_x
 _atom_site_fract_y
 _atom_site_fract_z
 _atom_site_occupancy
  Ca  Ca0  1  0.64081000  0.63191100  0.26373300  1
  Ca  Ca1  1  0.35919000  0.36808900  0.73626700  1
  P  P0  1  0.74398300  0.09729900  0.30940000  1
  P  P1  1  0.25601700  0.90270100  0.69060000  1
  P  P2  1  0.18670700  0.54390100  0.28300200  1
  P  P3  1  0.81329300  0.45609900  0.71699800  1
  H  H0  1  0.17553400  0.14056000  0.10933200  1
  H  H1  1  0.82446600  0.85944000  0.89066800  1
  H  H2  1  0.40568000  0.10906000  0.12673200  1
  H  H3  1  0.59432000  0.89094000  0.87326800  1
  H  H4  1  0.98022700  0.88149000  0.26437600  1
  H  H5  1  0.01977300  0.11851000  0.73562400  1
  H  H6  1  0.73812700  0.07130200  0.48897100  1
  H  H7  1  0.26187300  0.92869800  0.51102900  1
  H  H8  1  0.14899000  0.34698700  0.30058300  1
  H  H9  1  0.85101000  0.65301300  0.69941700  1
  H  H10  1  0.30262800  0.63598400  0.98858000  1
  H  H11  1  0.69737200  0.36401600  0.01142000  1
  O  O0  1  0.31166600  0.53962600  0.42976600  1
  O  O1  1  0.71385300  0.32469500  0.20627300  1
  O  O2  1  0.39929300  0.03628700  0.71937800  1
  O  O3  1  0.60070700  0.96371300  0.28062200  1
  O  O4  1  0.03500400  0.97247400  0.73688000  1
  O  O5  1  0.96499600  0.02752600  0.26312000  1
  O  O6  1  0.69840100  0.81523200  0.95415900  1
  O  O7  1  0.30159900  0.18476800  0.04584100  1
  O  O8  1  0.98915700  0.66798300  0.26165100  1
  O  O9  1  0.01084300  0.33201700  0.73834900  1
  O  O10  1  0.33305700  0.62467300  0.11416300  1
  O  O11  1  0.66694300  0.37532700  0.88583700  1
  O  O12  1  0.28614700  0.67530500  0.79372700  1
  O  O13  1  0.68833400  0.46037400  0.57023400  1
loop_
_geom_bond_atom_site_label_1
_geom_bond_atom_site_label_2
_geom_bond_distance
_geom_bond_site_symmetry_2
Ca0 O13 2.384412 1_555
Ca0 O1 2.399223 1_555
Ca0 O6 2.399820 1_554
Ca0 O3 2.406519 1_555
Ca0 O8 2.419170 1_555
Ca0 O0 2.537630 1_555
Ca0 O10 2.538463 1_555
Ca1 O0 2.384412 1_555
Ca1 O12 2.399223 1_555
Ca1 O7 2.399820 1_556
Ca1 O2 2.406519 1_555
Ca1 O9 2.419170 1_555
Ca1 O13 2.537630 1_555
Ca1 O11 2.538463 1_555
H0 O7 0.983326 1_555
H1 O6 0.983326 1_555
H2 O7 0.989419 1_555
H3 O6 0.989419 1_555
H4 O5 1.032240 1_565
H4 O8 1.525483 1_555
H5 O4 1.032240 1_545
H5 O9 1.525483 1_555
H6 P0 1.405814 1_555
H7 P1 1.405814 1_555
H8 P2 1.406057 1_555
H9 P3 1.406057 1_555
H10 O10 1.036476 1_556
H10 O12 1.523055 1_555
H11 O11 1.036476 1_554
H11 O1 1.523055 1_555
O0 P2 1.521552 1_555
O1 P0 1.531236 1_555
O2 P1 1.521221 1_545
O3 P0 1.521221 1_565
O4 P1 1.599600 1_555
O5 P0 1.599600 1_555
O8 P2 1.525086 1_655
O9 P3 1.525086 1_455
O10 P2 1.588425 1_555
O11 P3 1.588425 1_555
O12 P1 1.531236 1_555
O13 P3 1.521552 1_555
