# generated using pymatgen
data_Na3CaHf(PO4)3
_symmetry_space_group_name_H-M   'P 1'
_cell_length_a   15.96893892
_cell_length_b   9.21965715
_cell_length_c   9.16819466
_cell_angle_alpha   90.00000000
_cell_angle_beta   125.09874864
_cell_angle_gamma   90.00000000
_symmetry_Int_Tables_number   1
_chemical_formula_structural   Na3CaHf(PO4)3
_chemical_formula_sum   'Na12 Ca4 Hf4 P12 O48'
_cell_volume   1104.36874665
_cell_formula_units_Z   4
loop_
 _symmetry_equiv_pos_site_id
 _symmetry_equiv_pos_as_xyz
  1  'x, y, z'
loop_
 _atom_site_type_symbol
 _atom_site_label
 _atom_site_symmetry_multiplicity
 _atom_site_fract_x
 _atom_site_fract_y
 _atom_site_fract_z
 _atom_site_occupancy
  Na  Na0  1  0.25206251  0.73163818  0.98784552  1
  Na  Na1  1  0.75206251  0.76836182  0.48784552  1
  Na  Na2  1  0.75206251  0.23163818  0.98784552  1
  Na  Na3  1  0.25206251  0.26836182  0.48784552  1
  Na  Na4  1  0.50406340  0.09097271  0.74739538  1
  Na  Na5  1  0.50406340  0.90902729  0.24739538  1
  Na  Na6  1  0.00406340  0.59097271  0.74739538  1
  Na  Na7  1  0.00406340  0.40902729  0.24739538  1
  Na  Na8  1  0.17946856  0.93245436  0.30054719  1
  Na  Na9  1  0.17946856  0.06754564  0.80054719  1
  Na  Na10  1  0.67946856  0.43245436  0.30054719  1
  Na  Na11  1  0.67946856  0.56754564  0.80054719  1
  Ca  Ca0  1  0.10309280  0.74949904  0.56114841  1
  Ca  Ca1  1  0.10309280  0.25050096  0.06114841  1
  Ca  Ca2  1  0.60309280  0.24949904  0.56114841  1
  Ca  Ca3  1  0.60309280  0.75050096  0.06114841  1
  Hf  Hf0  1  0.89611393  0.75791069  0.94240375  1
  Hf  Hf1  1  0.89611393  0.24208931  0.44240375  1
  Hf  Hf2  1  0.39611393  0.25791069  0.94240375  1
  Hf  Hf3  1  0.39611393  0.74208931  0.44240375  1
  P  P0  1  0.99519694  0.95105285  0.75670503  1
  P  P1  1  0.99519694  0.04894715  0.25670503  1
  P  P2  1  0.49519694  0.45105285  0.75670503  1
  P  P3  1  0.49519694  0.54894715  0.25670503  1
  P  P4  1  0.35324191  0.91156835  0.75614545  1
  P  P5  1  0.64941518  0.88590370  0.74510741  1
  P  P6  1  0.64941518  0.11409630  0.24510741  1
  P  P7  1  0.35324191  0.08843165  0.25614545  1
  P  P8  1  0.85324191  0.41156835  0.75614545  1
  P  P9  1  0.14941518  0.38590370  0.74510741  1
  P  P10  1  0.14941518  0.61409630  0.24510741  1
  P  P11  1  0.85324191  0.58843165  0.25614545  1
  O  O0  1  0.15598908  0.55119021  0.74583963  1
  O  O1  1  0.85112389  0.58383058  0.75197232  1
  O  O2  1  0.85112389  0.41616942  0.25197232  1
  O  O3  1  0.15598908  0.44880979  0.24583963  1
  O  O4  1  0.65598908  0.05119021  0.74583963  1
  O  O5  1  0.35112389  0.08383058  0.75197232  1
  O  O6  1  0.35112389  0.91616942  0.25197232  1
  O  O7  1  0.65598908  0.94880979  0.24583963  1
  O  O8  1  0.43671063  0.55911973  0.59213643  1
  O  O9  1  0.56059925  0.53829199  0.92635792  1
  O  O10  1  0.56059925  0.46170801  0.42635792  1
  O  O11  1  0.43671063  0.44088027  0.09213643  1
  O  O12  1  0.93671063  0.05911973  0.59213643  1
  O  O13  1  0.06059925  0.03829199  0.92635792  1
  O  O14  1  0.06059925  0.96170801  0.42635792  1
  O  O15  1  0.93671063  0.94088027  0.09213643  1
  O  O16  1  0.26051550  0.85943093  0.75060475  1
  O  O17  1  0.73955740  0.81031861  0.74983717  1
  O  O18  1  0.73955740  0.18968139  0.24983717  1
  O  O19  1  0.26051550  0.14056907  0.25060475  1
  O  O20  1  0.76051550  0.35943093  0.75060475  1
  O  O21  1  0.23955740  0.31031861  0.74983717  1
  O  O22  1  0.23955740  0.68968139  0.24983717  1
  O  O23  1  0.76051550  0.64056907  0.25060475  1
  O  O24  1  0.35202126  0.86586072  0.58600748  1
  O  O25  1  0.65318524  0.83366052  0.90468052  1
  O  O26  1  0.65318524  0.16633948  0.40468052  1
  O  O27  1  0.35202126  0.13413928  0.08600748  1
  O  O28  1  0.85202126  0.36586072  0.58600748  1
  O  O29  1  0.15318524  0.33366052  0.90468052  1
  O  O30  1  0.15318524  0.66633948  0.40468052  1
  O  O31  1  0.85202126  0.63413928  0.08600748  1
  O  O32  1  0.45330924  0.86395490  0.92465277  1
  O  O33  1  0.54519340  0.82794244  0.57091870  1
  O  O34  1  0.54519340  0.17205756  0.07091870  1
  O  O35  1  0.45330924  0.13604510  0.42465277  1
  O  O36  1  0.95330924  0.36395490  0.92465277  1
  O  O37  1  0.04519340  0.32794244  0.57091870  1
  O  O38  1  0.04519340  0.67205756  0.07091870  1
  O  O39  1  0.95330924  0.63604510  0.42465277  1
  O  O40  1  0.06632114  0.84730000  0.74429456  1
  O  O41  1  0.91281875  0.85756546  0.75539963  1
  O  O42  1  0.91281875  0.14243454  0.25539963  1
  O  O43  1  0.06632114  0.15270000  0.24429456  1
  O  O44  1  0.56632114  0.34730000  0.74429456  1
  O  O45  1  0.41281875  0.35756546  0.75539963  1
  O  O46  1  0.41281875  0.64243454  0.25539963  1
  O  O47  1  0.56632114  0.65270000  0.24429456  1
loop_
_geom_bond_atom_site_label_1
_geom_bond_atom_site_label_2
_geom_bond_distance
_geom_bond_site_symmetry_2
Na0 O46 2.458066 1_556
Na0 O0 2.475865 1_555
Na0 O16 2.544593 1_555
Na0 O22 2.551601 1_556
Na0 O6 2.618336 1_556
Na0 O40 2.702671 1_555
Na1 O41 2.458066 1_555
Na1 O7 2.475865 1_555
Na1 O23 2.544593 1_555
Na1 O17 2.551601 1_555
Na1 O1 2.618336 1_555
Na1 O47 2.702671 1_555
Na2 O42 2.458066 1_556
Na2 O4 2.475865 1_555
Na2 O20 2.544593 1_555
Na2 O18 2.551601 1_556
Na2 O2 2.618336 1_556
Na2 O44 2.702671 1_555
Na3 O45 2.458066 1_555
Na3 O3 2.475865 1_555
Na3 O19 2.544593 1_555
Na3 O21 2.551601 1_555
Na3 O5 2.618336 1_555
Na3 O43 2.702671 1_555
Na4 O4 2.461798 1_555
Na4 O5 2.467527 1_555
Na4 O44 2.570345 1_555
Na4 O35 2.612887 1_555
Na4 O34 2.747330 1_556
Na4 O24 2.874112 1_545
Na4 O45 2.879700 1_555
Na5 O7 2.461798 1_555
Na5 O6 2.467527 1_555
Na5 O47 2.570345 1_555
Na5 O32 2.612887 1_554
Na5 O33 2.747330 1_555
Na5 O27 2.874112 1_565
Na5 O46 2.879700 1_555
Na6 O0 2.461798 1_555
Na6 O1 2.467527 1_455
Na6 O40 2.570345 1_555
Na6 O39 2.612887 1_455
Na6 O38 2.747330 1_556
Na6 O28 2.874112 1_455
Na6 O41 2.879700 1_455
Na7 O3 2.461798 1_555
Na7 O2 2.467527 1_455
Na7 O43 2.570345 1_555
Na7 O36 2.612887 1_454
Na7 O37 2.747330 1_555
Na7 O31 2.874112 1_455
Na7 O42 2.879700 1_455
Na8 O19 2.499553 1_565
Na8 O24 2.554619 1_555
Na8 O43 2.565610 1_565
Na8 O22 2.580665 1_555
Na8 O14 2.743049 1_555
Na8 O30 2.751009 1_555
Na8 O13 2.972529 1_564
Na9 O16 2.499553 1_545
Na9 O27 2.554619 1_556
Na9 O40 2.565610 1_545
Na9 O21 2.580665 1_555
Na9 O13 2.743049 1_555
Na9 O29 2.751009 1_555
Na9 O14 2.972529 1_545
Na10 O23 2.499553 1_555
Na10 O28 2.554619 1_555
Na10 O47 2.565610 1_555
Na10 O18 2.580665 1_555
Na10 O10 2.743049 1_555
Na10 O26 2.751009 1_555
Na10 O9 2.972529 1_554
Na11 O20 2.499553 1_555
Na11 O31 2.554619 1_556
Na11 O44 2.565610 1_555
Na11 O17 2.580665 1_555
Na11 O9 2.743049 1_555
Na11 O25 2.751009 1_555
Na11 O10 2.972529 1_555
Ca0 O30 2.145971 1_555
Ca0 O14 2.202535 1_555
Ca0 O39 2.222415 1_455
Ca0 O40 2.260787 1_555
Ca0 O0 2.297548 1_555
Ca0 O16 2.311382 1_555
Ca1 O29 2.145971 1_554
Ca1 O13 2.202535 1_554
Ca1 O36 2.222415 1_454
Ca1 O43 2.260787 1_555
Ca1 O3 2.297548 1_555
Ca1 O19 2.311382 1_555
Ca2 O26 2.145971 1_555
Ca2 O10 2.202535 1_555
Ca2 O35 2.222415 1_555
Ca2 O44 2.260787 1_555
Ca2 O4 2.297548 1_555
Ca2 O20 2.311382 1_555
Ca3 O25 2.145971 1_554
Ca3 O9 2.202535 1_554
Ca3 O32 2.222415 1_554
Ca3 O47 2.260787 1_555
Ca3 O7 2.297548 1_555
Ca3 O23 2.311382 1_555
Hf0 O15 2.031517 1_556
Hf0 O41 2.093023 1_555
Hf0 O38 2.111063 1_656
Hf0 O17 2.127174 1_555
Hf0 O31 2.144157 1_556
Hf0 O1 2.167442 1_555
Hf1 O12 2.031517 1_555
Hf1 O42 2.093023 1_555
Hf1 O37 2.111063 1_655
Hf1 O18 2.127174 1_555
Hf1 O28 2.144157 1_555
Hf1 O2 2.167442 1_555
Hf2 O11 2.031517 1_556
Hf2 O45 2.093023 1_555
Hf2 O34 2.111063 1_556
Hf2 O21 2.127174 1_555
Hf2 O27 2.144157 1_556
Hf2 O5 2.167442 1_555
Hf3 O8 2.031517 1_555
Hf3 O46 2.093023 1_555
Hf3 O33 2.111063 1_555
Hf3 O22 2.127174 1_555
Hf3 O24 2.144157 1_555
Hf3 O6 2.167442 1_555
O0 P9 1.527246 1_555
O1 P8 1.588551 1_555
O2 P11 1.588551 1_555
O3 P10 1.527246 1_555
O4 P5 1.527246 1_545
O5 P4 1.588551 1_545
O6 P7 1.588551 1_565
O7 P6 1.527246 1_565
O8 P2 1.587750 1_555
O9 P2 1.512910 1_555
O10 P3 1.512910 1_555
O11 P3 1.587750 1_555
O12 P0 1.587750 1_545
O13 P0 1.512910 1_445
O14 P1 1.512910 1_465
O15 P1 1.587750 1_565
O16 P4 1.529621 1_555
O17 P5 1.577281 1_555
O18 P6 1.577281 1_555
O19 P7 1.529621 1_555
O20 P8 1.529621 1_555
O21 P9 1.577281 1_555
O22 P10 1.577281 1_555
O23 P11 1.529621 1_555
O24 P4 1.605041 1_555
O25 P5 1.508210 1_555
O26 P6 1.508210 1_555
O27 P7 1.605041 1_555
O28 P8 1.605041 1_555
O29 P9 1.508210 1_555
O30 P10 1.508210 1_555
O31 P11 1.605041 1_555
O32 P4 1.514592 1_555
O33 P5 1.596677 1_555
O34 P6 1.596677 1_555
O35 P7 1.514592 1_555
O36 P8 1.514592 1_555
O37 P9 1.596677 1_555
O38 P10 1.596677 1_555
O39 P11 1.514592 1_555
O40 P0 1.538365 1_455
O41 P0 1.566993 1_555
O42 P1 1.566993 1_555
O43 P1 1.538365 1_455
O44 P2 1.538365 1_555
O45 P2 1.566993 1_555
O46 P3 1.566993 1_555
O47 P3 1.538365 1_555
