# generated using pymatgen
data_MgCo(NiO2)4
_symmetry_space_group_name_H-M   'P 1'
_cell_length_a   10.28494982
_cell_length_b   10.28495279
_cell_length_c   14.55676548
_cell_angle_alpha   18.96069470
_cell_angle_beta   18.96071485
_cell_angle_gamma   32.83868146
_symmetry_Int_Tables_number   1
_chemical_formula_structural   MgCo(NiO2)4
_chemical_formula_sum   'Mg1 Co1 Ni4 O8'
_cell_volume   139.47969064
_cell_formula_units_Z   1
loop_
 _symmetry_equiv_pos_site_id
 _symmetry_equiv_pos_as_xyz
  1  'x, y, z'
loop_
 _atom_site_type_symbol
 _atom_site_label
 _atom_site_symmetry_multiplicity
 _atom_site_fract_x
 _atom_site_fract_y
 _atom_site_fract_z
 _atom_site_occupancy
  Mg  Mg0  1  0.50000000  0.50000000  0.50000000  1
  Co  Co0  1  0.50000000  0.50000000  0.00000000  1
  Ni  Ni0  1  0.00000000  0.50000000  0.00000000  1
  Ni  Ni1  1  0.00000000  0.00000000  0.00000000  1
  Ni  Ni2  1  0.00000000  0.00000000  0.50000000  1
  Ni  Ni3  1  0.50000000  0.00000000  0.00000000  1
  O  O0  1  0.00615600  0.52818700  0.71873600  1
  O  O1  1  0.99384400  0.47181300  0.28126400  1
  O  O2  1  0.00076500  0.00076600  0.26018600  1
  O  O3  1  0.99923500  0.99923400  0.73981400  1
  O  O4  1  0.45604200  0.45604200  0.79284300  1
  O  O5  1  0.54395800  0.54395800  0.20715700  1
  O  O6  1  0.52818800  0.00615600  0.71873500  1
  O  O7  1  0.47181200  0.99384400  0.28126500  1
loop_
_geom_bond_atom_site_label_1
_geom_bond_atom_site_label_2
_geom_bond_distance
_geom_bond_site_symmetry_2
Mg0 O2 2.130790 1_556
Mg0 O3 2.130790 1_554
Mg0 O1 2.168406 1_555
Mg0 O0 2.168406 1_555
Mg0 O7 2.168411 1_555
Mg0 O6 2.168411 1_555
Co0 O2 1.944167 1_664
Co0 O3 1.944167 1_445
Co0 O6 1.980733 1_564
Co0 O7 1.980733 1_545
Co0 O0 1.980737 1_654
Co0 O1 1.980737 1_455
Ni0 O4 1.886717 1_554
Ni0 O5 1.886717 1_455
Ni0 O6 1.918474 1_455
Ni0 O7 1.918474 1_554
Ni0 O3 1.978292 1_454
Ni0 O2 1.978292 1_555
Ni1 O4 2.033277 1_445
Ni1 O5 2.033277 1_554
Ni1 O0 2.072613 1_554
Ni1 O1 2.072613 1_445
Ni1 O6 2.072613 1_554
Ni1 O7 2.072613 1_445
Ni2 O5 2.069235 1_446
Ni2 O4 2.069235 1_554
Ni2 O1 2.080765 1_455
Ni2 O0 2.080765 1_545
Ni2 O7 2.080766 1_545
Ni2 O6 2.080766 1_455
Ni3 O4 1.886717 1_554
Ni3 O5 1.886717 1_545
Ni3 O0 1.918478 1_545
Ni3 O1 1.918478 1_554
Ni3 O3 1.978296 1_544
Ni3 O2 1.978296 1_555
