# generated using pymatgen
data_Na6Ta2Al2Si5SO24
_symmetry_space_group_name_H-M   'P 1'
_cell_length_a   8.91245353
_cell_length_b   8.89807530
_cell_length_c   22.20543041
_cell_angle_alpha   90.37599355
_cell_angle_beta   89.45909394
_cell_angle_gamma   120.08423538
_symmetry_Int_Tables_number   1
_chemical_formula_structural   Na6Ta2Al2Si5SO24
_chemical_formula_sum   'Na18 Ta6 Al6 Si15 S3 O72'
_cell_volume   1523.67940287
_cell_formula_units_Z   3
loop_
 _symmetry_equiv_pos_site_id
 _symmetry_equiv_pos_as_xyz
  1  'x, y, z'
loop_
 _atom_site_type_symbol
 _atom_site_label
 _atom_site_symmetry_multiplicity
 _atom_site_fract_x
 _atom_site_fract_y
 _atom_site_fract_z
 _atom_site_occupancy
  Na  Na0  1  0.63814490  0.00939786  0.24808594  1
  Na  Na1  1  0.36643094  0.35838104  0.25117188  1
  Na  Na2  1  0.99387399  0.63093619  0.24760808  1
  Na  Na3  1  0.99650075  0.36115669  0.74989186  1
  Na  Na4  1  0.30052038  0.34005060  0.58045282  1
  Na  Na5  1  0.66321282  0.96432080  0.58072756  1
  Na  Na6  1  0.66507030  0.70049637  0.07768036  1
  Na  Na7  1  0.02450211  0.33558903  0.08097937  1
  Na  Na8  1  0.95905022  0.66402664  0.91436451  1
  Na  Na9  1  0.70877444  0.03509706  0.91849547  1
  Na  Na10  1  0.33092293  0.30360600  0.91472093  1
  Na  Na11  1  0.69758058  0.67149029  0.41661898  1
  Na  Na12  1  0.00644097  0.00805211  0.49485532  1
  Na  Na13  1  0.99458034  0.99622185  0.99689773  1
  Na  Na14  1  0.66502632  0.33858217  0.83303757  1
  Na  Na15  1  0.66071463  0.32183345  0.33161502  1
  Na  Na16  1  0.33016074  0.68154439  0.16169059  1
  Na  Na17  1  0.33097859  0.67422053  0.66219924  1
  Ta  Ta0  1  0.99808248  0.99388448  0.64596179  1
  Ta  Ta1  1  0.99478686  0.99304968  0.14696465  1
  Ta  Ta2  1  0.66468952  0.33398469  0.68804334  1
  Ta  Ta3  1  0.65651799  0.32133264  0.47924339  1
  Ta  Ta4  1  0.34247415  0.67048914  0.31362124  1
  Ta  Ta5  1  0.33499999  0.65539188  0.81017726  1
  Al  Al0  1  0.00324532  0.01944905  0.35151502  1
  Al  Al1  1  0.98579391  0.00048755  0.84953280  1
  Al  Al2  1  0.68068377  0.32810075  0.18785759  1
  Al  Al3  1  0.69659919  0.35105938  0.98194020  1
  Al  Al4  1  0.33469207  0.67420214  0.01871792  1
  Al  Al5  1  0.34322670  0.66233394  0.52220622  1
  Si  Si0  1  0.29017886  0.00745808  0.25246485  1
  Si  Si1  1  0.71631921  0.70570532  0.25338069  1
  Si  Si2  1  0.99568990  0.28750651  0.25104155  1
  Si  Si3  1  0.28433145  0.27413362  0.75355172  1
  Si  Si4  1  0.00036484  0.71767189  0.75475551  1
  Si  Si5  1  0.71051536  0.99887722  0.75233543  1
  Si  Si6  1  0.96602707  0.34539487  0.58197328  1
  Si  Si7  1  0.37095912  0.02964078  0.58311257  1
  Si  Si8  1  0.66659966  0.62398800  0.58123829  1
  Si  Si9  1  0.96084776  0.61899422  0.08287825  1
  Si  Si10  1  0.65373368  0.04488097  0.08176899  1
  Si  Si11  1  0.62593523  0.66440800  0.92105641  1
  Si  Si12  1  0.04404866  0.37336979  0.92033332  1
  Si  Si13  1  0.63149655  0.95620929  0.41925018  1
  Si  Si14  1  0.32095713  0.36696960  0.41940490  1
  S  S0  1  0.38221382  0.33212377  0.08264971  1
  S  S1  1  0.33392427  0.95586629  0.91870703  1
  S  S2  1  0.04814927  0.67040561  0.41843227  1
  O  O0  1  0.19230777  0.03591012  0.30816028  1
  O  O1  1  0.83806650  0.79652383  0.31043001  1
  O  O2  1  0.95776072  0.15927899  0.30612211  1
  O  O3  1  0.19377932  0.16443203  0.81322591  1
  O  O4  1  0.97310768  0.80638700  0.81380247  1
  O  O5  1  0.83148060  0.03915324  0.81055498  1
  O  O6  1  0.79622248  0.96814240  0.69096513  1
  O  O7  1  0.16579960  0.20107623  0.69235723  1
  O  O8  1  0.03063197  0.83471188  0.69372384  1
  O  O9  1  0.79601048  0.83395359  0.19247373  1
  O  O10  1  0.04133202  0.20855956  0.18949471  1
  O  O11  1  0.16227906  0.96550415  0.19229772  1
  O  O12  1  0.86978130  0.36453845  0.64286599  1
  O  O13  1  0.50172976  0.13089927  0.63988381  1
  O  O14  1  0.63359820  0.49600217  0.63897007  1
  O  O15  1  0.86770912  0.50130488  0.14262704  1
  O  O16  1  0.63727128  0.13470183  0.14351286  1
  O  O17  1  0.48528037  0.35897837  0.13748998  1
  O  O18  1  0.46010110  0.30522732  0.02771563  1
  O  O19  1  0.83424983  0.54271245  0.02423251  1
  O  O20  1  0.69527797  0.17047961  0.02277584  1
  O  O21  1  0.46337667  0.16762312  0.52602614  1
  O  O22  1  0.70110843  0.53615111  0.52170932  1
  O  O23  1  0.82753191  0.29975417  0.52649893  1
  O  O24  1  0.53068418  0.70079892  0.97761569  1
  O  O25  1  0.17263393  0.47159096  0.97679390  1
  O  O26  1  0.30327691  0.84305107  0.97158742  1
  O  O27  1  0.53139286  0.83130464  0.47597780  1
  O  O28  1  0.30593853  0.46937116  0.47724683  1
  O  O29  1  0.15571592  0.69069704  0.47081197  1
  O  O30  1  0.12562669  0.64046677  0.36146752  1
  O  O31  1  0.50440637  0.86806738  0.35832530  1
  O  O32  1  0.36179255  0.49854316  0.35892015  1
  O  O33  1  0.13192732  0.50115892  0.86013166  1
  O  O34  1  0.36620572  0.87789743  0.86380543  1
  O  O35  1  0.49672660  0.63401255  0.86192609  1
  O  O36  1  0.02490183  0.82048397  0.41203989  1
  O  O37  1  0.81584220  0.96446383  0.40879070  1
  O  O38  1  0.15708128  0.17713054  0.40923647  1
  O  O39  1  0.02672602  0.18147009  0.91155049  1
  O  O40  1  0.17785515  0.97307944  0.91358189  1
  O  O41  1  0.81851343  0.83719999  0.91124296  1
  O  O42  1  0.97628627  0.16501794  0.58901259  1
  O  O43  1  0.18924192  0.03088788  0.58913428  1
  O  O44  1  0.83688015  0.81748360  0.58790473  1
  O  O45  1  0.97646809  0.81489870  0.08934202  1
  O  O46  1  0.83828117  0.02821459  0.08854203  1
  O  O47  1  0.20149364  0.17642174  0.08705973  1
  O  O48  1  0.69562519  0.17388647  0.74411291  1
  O  O49  1  0.47977453  0.30748456  0.74511156  1
  O  O50  1  0.83358444  0.52013598  0.74488909  1
  O  O51  1  0.68389048  0.51241969  0.23991098  1
  O  O52  1  0.82842177  0.31277185  0.24355489  1
  O  O53  1  0.48262138  0.17469167  0.24133006  1
  O  O54  1  0.63525423  0.48329475  0.92618195  1
  O  O55  1  0.84969853  0.35430936  0.92345951  1
  O  O56  1  0.48956417  0.13161075  0.92428972  1
  O  O57  1  0.64808071  0.14975822  0.42174085  1
  O  O58  1  0.51058044  0.36743298  0.42156714  1
  O  O59  1  0.87102606  0.51004227  0.42108207  1
  O  O60  1  0.35982815  0.48785263  0.07845659  1
  O  O61  1  0.15161217  0.63636587  0.07391827  1
  O  O62  1  0.49468126  0.84327265  0.07503038  1
  O  O63  1  0.36057997  0.84696948  0.57315074  1
  O  O64  1  0.49563447  0.64292978  0.57751047  1
  O  O65  1  0.15711468  0.50967262  0.57466224  1
  O  O66  1  0.30586409  0.82871390  0.25700822  1
  O  O67  1  0.52186598  0.69204178  0.25610403  1
  O  O68  1  0.17009949  0.48294148  0.25736203  1
  O  O69  1  0.30164344  0.47082038  0.75697995  1
  O  O70  1  0.16923197  0.68784542  0.75879370  1
  O  O71  1  0.51675980  0.82994517  0.75861932  1
loop_
_geom_bond_atom_site_label_1
_geom_bond_atom_site_label_2
_geom_bond_distance
_geom_bond_site_symmetry_2
Na0 O52 2.363019 1_555
Na0 O67 2.479732 1_545
Na0 O53 2.481469 1_555
Na0 O66 2.571761 1_545
Na0 O16 2.584247 1_555
Na0 O31 2.734415 1_545
Na0 O2 2.791383 1_555
Na0 O9 2.843508 1_545
Na1 O53 2.340846 1_555
Na1 O51 2.459598 1_555
Na1 O68 2.499378 1_555
Na1 O67 2.573111 1_555
Na1 O32 2.700431 1_555
Na1 O17 2.727349 1_555
Na1 O0 2.790933 1_555
Na1 O10 2.868193 1_555
Na2 O51 2.420656 1_555
Na2 O66 2.443891 1_655
Na2 O52 2.451787 1_555
Na2 O68 2.516257 1_655
Na2 O15 2.596729 1_555
Na2 O30 2.780598 1_655
Na2 O1 2.834236 1_555
Na2 O11 2.856109 1_655
Na3 O48 2.346865 1_555
Na3 O69 2.391355 1_655
Na3 O50 2.487176 1_555
Na3 O70 2.524052 1_655
Na3 O12 2.647661 1_555
Na3 O33 2.740321 1_655
Na3 O5 2.824110 1_555
Na3 O7 2.834126 1_655
Na4 O64 2.364985 1_555
Na4 O43 2.420044 1_555
Na4 O65 2.422330 1_555
Na4 O42 2.508731 1_455
Na4 O28 2.560333 1_555
Na4 O7 2.764226 1_555
Na4 O21 2.845429 1_555
Na4 O14 2.888880 1_555
Na5 O63 2.361404 1_555
Na5 O42 2.453225 1_565
Na5 O64 2.476145 1_555
Na5 O44 2.482551 1_555
Na5 O27 2.610146 1_555
Na5 O6 2.722461 1_555
Na5 O13 2.840997 1_565
Na5 O23 2.852179 1_565
Na6 O60 2.412532 1_555
Na6 O62 2.420827 1_555
Na6 O45 2.446108 1_555
Na6 O24 2.534811 1_554
Na6 O46 2.535630 1_565
Na6 O19 2.778459 1_555
Na6 O9 2.810114 1_555
Na6 O17 2.949083 1_555
Na7 O61 2.330933 1_555
Na7 O46 2.390211 1_455
Na7 O60 2.590136 1_555
Na7 O47 2.599744 1_555
Na7 O25 2.633818 1_554
Na7 O10 2.705361 1_555
Na7 O15 2.829164 1_455
Na7 O20 2.857136 1_455
Na8 O41 2.426112 1_555
Na8 O55 2.428254 1_555
Na8 O40 2.447275 1_655
Na8 O54 2.514270 1_555
Na8 O4 2.545474 1_555
Na8 O19 2.670952 1_556
Na8 O33 2.846932 1_655
Na8 O26 2.951556 1_655
Na9 O41 2.408986 1_545
Na9 O39 2.458532 1_655
Na9 O55 2.465631 1_555
Na9 O56 2.499380 1_555
Na9 O5 2.618077 1_555
Na9 O20 2.632679 1_556
Na9 O24 2.893013 1_545
Na9 O34 2.918762 1_545
Na10 O39 2.363265 1_555
Na10 O54 2.374430 1_555
Na10 O40 2.547300 1_545
Na10 O56 2.562364 1_555
Na10 O3 2.569978 1_555
Na10 O18 2.767429 1_556
Na10 O35 2.803304 1_555
Na10 O25 2.859131 1_555
Na11 O37 2.277034 1_555
Na11 O58 2.364202 1_555
Na11 O36 2.529232 1_655
Na11 O59 2.587326 1_555
Na11 O1 2.635838 1_555
Na11 O22 2.640650 1_555
Na11 O27 2.829041 1_555
Na11 O32 2.897468 1_555
Na12 O38 2.375891 1_555
Na12 O37 2.465639 1_445
Na12 O36 2.534496 1_545
Na12 O42 2.592648 1_455
Na12 O43 2.608694 1_555
Na12 O44 2.616538 1_445
Na13 O41 2.424283 1_555
Na13 O39 2.438877 1_665
Na13 O40 2.531479 1_655
Na13 O46 2.549349 1_566
Na13 O45 2.572771 1_556
Na13 O47 2.653907 1_666
Na14 O49 2.492043 1_555
Na14 O50 2.500164 1_555
Na14 O54 2.510701 1_555
Na14 O48 2.544326 1_555
Na14 O55 2.566671 1_555
Na14 O56 2.654213 1_555
Na15 O52 2.475437 1_555
Na15 O53 2.488985 1_555
Na15 O57 2.495058 1_555
Na15 O58 2.535341 1_555
Na15 O51 2.598348 1_555
Na15 O59 2.672894 1_555
Na16 O62 2.406566 1_555
Na16 O61 2.428886 1_555
Na16 O66 2.545755 1_555
Na16 O60 2.619572 1_555
Na16 O68 2.671295 1_555
Na16 O67 2.688541 1_555
Na17 O63 2.442502 1_555
Na17 O65 2.463366 1_555
Na17 O64 2.473492 1_555
Na17 O70 2.609003 1_555
Na17 O71 2.640743 1_555
Na17 O69 2.709010 1_555
Al0 O2 1.805062 1_455
Al0 O0 1.873850 1_555
Al0 O38 1.890030 1_555
Al0 O37 1.948172 1_445
Al0 O1 2.002058 1_445
Al0 O36 2.314429 1_545
Al1 O5 1.805474 1_555
Al1 O4 1.847474 1_545
Al1 O3 1.868244 1_655
Al1 O39 2.003584 1_655
Al1 O41 2.006832 1_545
Al1 O40 2.341221 1_645
Al2 O16 1.843414 1_555
Al2 O52 1.869484 1_555
Al2 O15 1.890935 1_555
Al2 O53 1.988764 1_555
Al2 O51 1.988837 1_555
Al2 O17 2.209027 1_555
Al3 O19 1.788428 1_556
Al3 O20 1.845040 1_556
Al3 O55 1.864533 1_555
Al3 O54 1.973127 1_555
Al3 O18 2.178406 1_556
Al3 O56 2.292600 1_555
Al4 O24 1.870431 1_554
Al4 O25 1.896269 1_554
Al4 O61 1.922273 1_555
Al4 O62 1.928317 1_555
Al4 O26 1.969483 1_554
Al4 O60 2.228499 1_555
Al5 O28 1.861966 1_555
Al5 O27 1.893836 1_555
Al5 O64 1.911122 1_555
Al5 O65 1.917996 1_555
Al5 O63 1.930526 1_555
Al5 O29 2.149786 1_555
O0 Si0 1.597309 1_555
O1 Si1 1.602697 1_555
O2 Si2 1.592443 1_555
O3 Si3 1.602192 1_555
O4 Si4 1.604357 1_655
O5 Si5 1.610875 1_545
O6 Si5 1.643247 1_555
O6 Ta0 1.960529 1_555
O7 Si3 1.646842 1_555
O7 Ta0 1.983927 1_445
O8 Si4 1.650449 1_555
O8 Ta0 1.911128 1_455
O9 Si1 1.680897 1_555
O9 Ta1 1.906419 1_555
O10 Si2 1.670368 1_455
O10 Ta1 1.981758 1_445
O11 Si0 1.679083 1_565
O11 Ta1 1.923583 1_455
O12 Si6 1.647630 1_555
O12 Ta2 1.972853 1_555
O13 Si7 1.649063 1_555
O13 Ta2 1.972625 1_555
O14 Si8 1.644107 1_555
O14 Ta2 1.941486 1_555
O15 Si9 1.634597 1_555
O16 Si10 1.624641 1_555
O17 S0 1.476836 1_555
O18 S0 1.474408 1_555
O19 Si9 1.636455 1_555
O20 Si10 1.642350 1_555
O21 Si7 1.667215 1_555
O21 Ta3 1.880816 1_555
O22 Si8 1.634792 1_555
O22 Ta3 1.980582 1_555
O23 Si6 1.650909 1_555
O23 Ta3 1.946083 1_555
O24 Si11 1.628798 1_555
O25 Si12 1.630224 1_555
O26 S1 1.481771 1_555
O27 Si13 1.618954 1_555
O28 Si14 1.612924 1_555
O29 S2 1.466038 1_555
O30 S2 1.520304 1_555
O30 Ta4 2.093471 1_555
O31 Si13 1.688999 1_555
O31 Ta4 1.902494 1_555
O32 Si14 1.700365 1_555
O32 Ta4 1.915690 1_555
O33 Si12 1.673545 1_555
O33 Ta5 1.970138 1_555
O34 S1 1.494230 1_555
O34 Ta5 2.199682 1_555
O35 Si11 1.683716 1_555
O35 Ta5 1.934748 1_555
O36 S2 1.458364 1_555
O37 Si13 1.621953 1_555
O38 Si14 1.601672 1_555
O39 Si12 1.646044 1_555
O40 S1 1.479183 1_555
O41 Si11 1.645901 1_555
O42 Si6 1.661184 1_555
O42 Ta0 2.069340 1_545
O43 Si7 1.629368 1_555
O43 Ta0 2.001454 1_445
O44 Si8 1.634247 1_555
O44 Ta0 1.984296 1_555
O45 Si9 1.682983 1_555
O45 Ta1 1.973470 1_555
O46 Si10 1.731873 1_555
O46 Ta1 2.050256 1_545
O47 S0 1.511595 1_555
O47 Ta1 2.189598 1_445
O48 Si5 1.639310 1_545
O48 Ta2 2.019674 1_555
O49 Si3 1.622856 1_555
O49 Ta2 1.988066 1_555
O50 Si4 1.651877 1_655
O50 Ta2 2.027707 1_555
O51 Si1 1.620952 1_555
O52 Si2 1.625343 1_555
O53 Si0 1.629492 1_555
O54 Si11 1.659443 1_555
O55 Si12 1.654462 1_655
O56 S1 1.486922 1_545
O57 Si13 1.653671 1_545
O57 Ta3 1.956512 1_555
O58 Si14 1.689081 1_555
O58 Ta3 2.018289 1_555
O59 S2 1.507525 1_655
O59 Ta3 2.214938 1_555
O60 S0 1.499270 1_555
O61 Si9 1.638484 1_455
O62 Si10 1.643483 1_565
O63 Si7 1.595123 1_565
O64 Si8 1.617719 1_555
O65 Si6 1.601748 1_455
O66 Si0 1.668719 1_565
O66 Ta4 2.039729 1_555
O67 Si1 1.675947 1_555
O67 Ta4 1.970151 1_555
O68 Si2 1.658592 1_455
O68 Ta4 2.035763 1_555
O69 Si3 1.679382 1_555
O69 Ta5 1.916431 1_555
O70 Si4 1.657368 1_555
O70 Ta5 2.007944 1_555
O71 Si5 1.629977 1_555
O71 Ta5 1.952726 1_555
