# generated using pymatgen
data_MgMn6O11F
_symmetry_space_group_name_H-M   'P 1'
_cell_length_a   11.97929962
_cell_length_b   6.42765660
_cell_length_c   2.93966313
_cell_angle_alpha   89.99984471
_cell_angle_beta   89.99146492
_cell_angle_gamma   109.53764004
_symmetry_Int_Tables_number   1
_chemical_formula_structural   MgMn6O11F
_chemical_formula_sum   'Mg1 Mn6 O11 F1'
_cell_volume   213.31778608
_cell_formula_units_Z   1
loop_
 _symmetry_equiv_pos_site_id
 _symmetry_equiv_pos_as_xyz
  1  'x, y, z'
loop_
 _atom_site_type_symbol
 _atom_site_label
 _atom_site_symmetry_multiplicity
 _atom_site_fract_x
 _atom_site_fract_y
 _atom_site_fract_z
 _atom_site_occupancy
  Mg  Mg0  1  0.49916817  0.00227845  0.98795167  1
  Mn  Mn0  1  0.01191203  0.00701520  0.98720741  1
  Mn  Mn1  1  0.29514545  0.19191774  0.48808917  1
  Mn  Mn2  1  0.00119147  0.50059624  0.48759522  1
  Mn  Mn3  1  0.70814226  0.32108222  0.98864362  1
  Mn  Mn4  1  0.29144909  0.67822462  0.98796006  1
  Mn  Mn5  1  0.69682902  0.80206462  0.48833199  1
  O  O0  1  0.11723449  0.06955101  0.48794156  1
  O  O1  1  0.99918994  0.30225992  0.98746298  1
  O  O2  1  0.30781627  0.39083002  0.98814106  1
  O  O3  1  0.99533712  0.69444568  0.98749649  1
  O  O4  1  0.66988165  0.98135361  0.98842559  1
  O  O5  1  0.58581896  0.23419960  0.48849325  1
  O  O6  1  0.18233064  0.62127102  0.48795947  1
  O  O7  1  0.41375340  0.76819352  0.48792639  1
  O  O8  1  0.81635552  0.37348943  0.48847091  1
  O  O9  1  0.69466334  0.60982900  0.98842597  1
  O  O10  1  0.32651396  0.01642979  0.98803135  1
  F  F0  1  0.88726420  0.93496832  0.48627883  1
loop_
_geom_bond_atom_site_label_1
_geom_bond_atom_site_label_2
_geom_bond_distance
_geom_bond_site_symmetry_2
Mg0 O4 2.093848 1_545
Mg0 O10 2.100446 1_555
Mg0 O5 2.102376 1_555
Mg0 O5 2.104822 1_556
Mg0 O7 2.107329 1_546
Mg0 O7 2.107651 1_545
Mn0 O0 1.888845 1_555
Mn0 O0 1.892494 1_556
Mn0 O3 1.951679 1_445
Mn0 O1 1.953985 1_455
Mn1 O2 1.920360 1_554
Mn1 O2 1.920633 1_555
Mn1 O10 1.963950 1_555
Mn1 O10 1.964125 1_554
Mn1 O0 2.009891 1_555
Mn2 O1 1.940253 1_455
Mn2 O1 1.940853 1_454
Mn2 O3 1.943040 1_455
Mn2 O3 1.943490 1_454
Mn2 O6 2.045592 1_555
Mn2 O8 2.088119 1_455
Mn3 O8 1.913460 1_556
Mn3 O8 1.913942 1_555
Mn3 O9 1.916017 1_555
Mn3 O5 2.017482 1_556
Mn3 O5 2.018446 1_555
Mn3 O4 2.075818 1_545
Mn4 O6 1.918971 1_556
Mn4 O6 1.919274 1_555
Mn4 O2 1.921748 1_555
Mn4 O7 2.018502 1_555
Mn4 O7 2.018678 1_556
Mn4 O10 2.071566 1_565
Mn5 O9 1.914579 1_554
Mn5 O9 1.914992 1_555
Mn5 O4 1.959796 1_554
Mn5 O4 1.960141 1_555
F0 Mn0 2.033055 1_664
F0 Mn0 2.037321 1_665
F0 Mn5 2.151875 1_555
