# generated using pymatgen
data_Na4YScSi2SO12
_symmetry_space_group_name_H-M   'P 1'
_cell_length_a   9.36007651
_cell_length_b   9.35706650
_cell_length_c   22.87272862
_cell_angle_alpha   89.89422489
_cell_angle_beta   90.08443653
_cell_angle_gamma   119.83203272
_symmetry_Int_Tables_number   1
_chemical_formula_structural   Na4YScSi2SO12
_chemical_formula_sum   'Na24 Y6 Sc6 Si12 S6 O72'
_cell_volume   1737.79872372
_cell_formula_units_Z   6
loop_
 _symmetry_equiv_pos_site_id
 _symmetry_equiv_pos_as_xyz
  1  'x, y, z'
loop_
 _atom_site_type_symbol
 _atom_site_label
 _atom_site_symmetry_multiplicity
 _atom_site_fract_x
 _atom_site_fract_y
 _atom_site_fract_z
 _atom_site_occupancy
  Na  Na0  1  0.65174603  0.99919748  0.25718355  1
  Na  Na1  1  0.36312667  0.38085792  0.24216680  1
  Na  Na2  1  0.98953912  0.61778649  0.25597497  1
  Na  Na3  1  0.62077613  0.63003728  0.73576870  1
  Na  Na4  1  0.99575778  0.34369073  0.75430029  1
  Na  Na5  1  0.38629055  0.01837315  0.75220733  1
  Na  Na6  1  0.31987040  0.33046984  0.59108491  1
  Na  Na7  1  0.03471431  0.71847342  0.57453878  1
  Na  Na8  1  0.65869547  0.95079765  0.58814896  1
  Na  Na9  1  0.28415115  0.96926349  0.07380089  1
  Na  Na10  1  0.67006953  0.67792170  0.09271990  1
  Na  Na11  1  0.05095806  0.34407310  0.08995507  1
  Na  Na12  1  0.99118875  0.66549017  0.92439783  1
  Na  Na13  1  0.69806435  0.04901118  0.90461352  1
  Na  Na14  1  0.31798670  0.28190361  0.92207964  1
  Na  Na15  1  0.95066182  0.29986639  0.40647080  1
  Na  Na16  1  0.33162012  0.01353534  0.42155317  1
  Na  Na17  1  0.71529766  0.67898512  0.42028318  1
  Na  Na18  1  0.98957637  0.97183128  0.49965987  1
  Na  Na19  1  0.03158643  0.01366365  0.00038415  1
  Na  Na20  1  0.65559867  0.30241819  0.83185528  1
  Na  Na21  1  0.69193037  0.34275647  0.33420025  1
  Na  Na22  1  0.32066003  0.63739753  0.16982428  1
  Na  Na23  1  0.36163638  0.67821216  0.66575786  1
  Y  Y0  1  0.00913245  0.01393417  0.84628641  1
  Y  Y1  1  0.99758380  0.00200047  0.15536625  1
  Y  Y2  1  0.66594535  0.33499639  0.98547094  1
  Y  Y3  1  0.32039685  0.65704641  0.01836569  1
  Y  Y4  1  0.34273627  0.68067923  0.51584206  1
  Y  Y5  1  0.33117601  0.66690025  0.81442727  1
  Sc  Sc0  1  0.97765587  0.98774334  0.34906436  1
  Sc  Sc1  1  0.99943994  0.00311763  0.64793544  1
  Sc  Sc2  1  0.64931684  0.32207715  0.68185590  1
  Sc  Sc3  1  0.67871059  0.35469425  0.18623216  1
  Sc  Sc4  1  0.66281867  0.33490419  0.48309687  1
  Sc  Sc5  1  0.32986047  0.66996671  0.31906422  1
  Si  Si0  1  0.68892779  0.69515919  0.25113239  1
  Si  Si1  1  0.00107199  0.30498896  0.25209481  1
  Si  Si2  1  0.30358943  0.30087506  0.74552595  1
  Si  Si3  1  0.70222550  0.00481500  0.74606180  1
  Si  Si4  1  0.36629646  0.03935586  0.58258197  1
  Si  Si5  1  0.67120900  0.62777315  0.58415092  1
  Si  Si6  1  0.96810432  0.63792172  0.08469499  1
  Si  Si7  1  0.36918804  0.33260994  0.08645793  1
  Si  Si8  1  0.02555673  0.35938716  0.91519792  1
  Si  Si9  1  0.33326825  0.97048596  0.91656455  1
  Si  Si10  1  0.63562183  0.97241388  0.41512540  1
  Si  Si11  1  0.03019233  0.66812591  0.41608858  1
  S  S0  1  0.30126021  -0.00043573  0.25271088  1
  S  S1  1  0.99479039  0.70034405  0.74675407  1
  S  S2  1  0.95560809  0.32949895  0.58362199  1
  S  S3  1  0.66693581  0.03730255  0.08635419  1
  S  S4  1  0.63498346  0.66784554  0.91650417  1
  S  S5  1  0.33260749  0.36686163  0.41553085  1
  O  O0  1  0.21841508  0.02341403  0.30361851  1
  O  O1  1  0.81570095  0.79040834  0.30580125  1
  O  O2  1  0.97971226  0.18136206  0.30680315  1
  O  O3  1  0.22982442  0.19387128  0.80563498  1
  O  O4  1  0.97076385  0.77156350  0.80123155  1
  O  O5  1  0.80069264  0.02347654  0.80727811  1
  O  O6  1  0.80232264  0.98140621  0.69100254  1
  O  O7  1  0.18041679  0.19792511  0.69076772  1
  O  O8  1  0.01354566  0.80739786  0.69615843  1
  O  O9  1  0.76497859  0.80600304  0.19201165  1
  O  O10  1  0.03915778  0.23416609  0.19235286  1
  O  O11  1  0.20160342  0.97423996  0.19892453  1
  O  O12  1  0.87922500  0.35245771  0.63653569  1
  O  O13  1  0.48136064  0.12790644  0.64023675  1
  O  O14  1  0.65829617  0.51875692  0.64193258  1
  O  O15  1  0.86715058  0.51838207  0.14080808  1
  O  O16  1  0.64915042  0.12170921  0.13779753  1
  O  O17  1  0.48417062  0.34014810  0.14249146  1
  O  O18  1  0.44475768  0.30755268  0.02540505  1
  O  O19  1  0.86604811  0.55649074  0.02436051  1
  O  O20  1  0.68528676  0.13185098  0.03216186  1
  O  O21  1  0.46100636  0.15429781  0.52495595  1
  O  O22  1  0.69350581  0.53758479  0.52566816  1
  O  O23  1  0.85553679  0.31193593  0.53067072  1
  O  O24  1  0.55791460  0.68967943  0.96929706  1
  O  O25  1  0.14067498  0.44692379  0.97308880  1
  O  O26  1  0.32291509  0.86653463  0.97591012  1
  O  O27  1  0.56297332  0.85729522  0.47377565  1
  O  O28  1  0.30398533  0.43812411  0.46925463  1
  O  O29  1  0.13833983  0.69519387  0.47557871  1
  O  O30  1  0.12524400  0.63976664  0.36067061  1
  O  O31  1  0.51223713  0.87611284  0.35977974  1
  O  O32  1  0.35383621  0.47412160  0.36454152  1
  O  O33  1  0.11635927  0.46934401  0.85678453  1
  O  O34  1  0.35797987  0.88317962  0.85823407  1
  O  O35  1  0.53403708  0.64994137  0.86436373  1
  O  O36  1  0.01972700  0.83935985  0.40896487  1
  O  O37  1  0.82296260  0.99731187  0.40850963  1
  O  O38  1  0.18981143  0.19812540  0.40807320  1
  O  O39  1  0.00045837  0.17211723  0.91491680  1
  O  O40  1  0.15760026  0.97173877  0.91534487  1
  O  O41  1  0.80075683  0.81163209  0.91125736  1
  O  O42  1  0.96803909  0.17561193  0.58704652  1
  O  O43  1  0.18266055  0.02470677  0.58629665  1
  O  O44  1  0.83456779  0.81528033  0.58735095  1
  O  O45  1  0.98517401  0.82136933  0.08847265  1
  O  O46  1  0.81817841  0.02282287  0.08953873  1
  O  O47  1  0.18132410  0.17379066  0.08898081  1
  O  O48  1  0.69505720  0.17773713  0.74160123  1
  O  O49  1  0.49111027  0.32630735  0.74150319  1
  O  O50  1  0.85215417  0.53249125  0.74079554  1
  O  O51  1  0.67259732  0.51071685  0.24788792  1
  O  O52  1  0.82644547  0.31034992  0.24819593  1
  O  O53  1  0.46874445  0.14495455  0.24708447  1
  O  O54  1  0.64705414  0.51687843  0.91949789  1
  O  O55  1  0.84386918  0.34702772  0.91738153  1
  O  O56  1  0.49247857  0.15839085  0.91690418  1
  O  O57  1  0.64920151  0.15498200  0.42087918  1
  O  O58  1  0.48691923  0.35705632  0.42016608  1
  O  O59  1  0.84398136  0.50304099  0.41975454  1
  O  O60  1  0.36853576  0.50898114  0.08719232  1
  O  O61  1  0.15244646  0.65555809  0.08642497  1
  O  O62  1  0.52097430  0.87060299  0.08267161  1
  O  O63  1  0.34400269  0.85284157  0.58167295  1
  O  O64  1  0.49814390  0.63539246  0.58278585  1
  O  O65  1  0.12549949  0.47423013  0.57851973  1
  O  O66  1  0.31580116  0.84740059  0.25801604  1
  O  O67  1  0.50505215  0.67445756  0.25979191  1
  O  O68  1  0.16083858  0.49206979  0.25964755  1
  O  O69  1  0.31617418  0.48285295  0.74643535  1
  O  O70  1  0.14871736  0.68985938  0.74950284  1
  O  O71  1  0.51610181  0.84202603  0.74595446  1
loop_
_geom_bond_atom_site_label_1
_geom_bond_atom_site_label_2
_geom_bond_distance
_geom_bond_site_symmetry_2
Na0 O52 2.540660 1_565
Na0 O67 2.640189 1_555
Na0 O31 2.653517 1_555
Na0 O53 2.677590 1_565
Na0 O66 2.731660 1_555
Na0 O2 2.899659 1_565
Na0 O9 2.921319 1_555
Na0 O16 2.964338 1_565
Na1 O67 2.417866 1_555
Na1 O51 2.526242 1_555
Na1 O68 2.606132 1_555
Na1 O17 2.658319 1_555
Na1 O53 2.834124 1_555
Na1 O10 2.869149 1_555
Na1 O32 2.947712 1_555
Na2 O68 2.416074 1_655
Na2 O52 2.503881 1_555
Na2 O51 2.623110 1_555
Na2 O30 2.668920 1_655
Na2 O66 2.723288 1_655
Na2 O15 2.838383 1_555
Na3 O49 2.476817 1_555
Na3 O69 2.485798 1_555
Na3 O14 2.487649 1_555
Na3 O71 2.623889 1_555
Na3 O50 2.739020 1_555
Na4 O48 2.463416 1_555
Na4 O33 2.614064 1_655
Na4 O69 2.614948 1_655
Na4 O50 2.717048 1_555
Na4 O70 2.817620 1_655
Na4 O5 2.886145 1_555
Na4 O12 2.920872 1_555
Na5 O71 2.493134 1_545
Na5 O48 2.519530 1_555
Na5 O49 2.551527 1_555
Na5 O34 2.684911 1_545
Na5 O13 2.736973 1_555
Na5 O70 2.756308 1_545
Na5 O3 2.956405 1_555
Na6 O43 2.488369 1_555
Na6 O64 2.494642 1_555
Na6 O7 2.613071 1_555
Na6 O65 2.762960 1_555
Na6 O42 2.864460 1_455
Na6 O21 2.988657 1_555
Na6 O14 2.989159 1_555
Na6 O28 2.989872 1_555
Na7 O44 2.471219 1_455
Na7 O43 2.500924 1_565
Na7 O29 2.515971 1_555
Na7 O63 2.523147 1_555
Na7 O65 2.807953 1_555
Na7 O8 2.940079 1_555
Na7 O22 2.988738 1_455
Na8 O44 2.528867 1_555
Na8 O64 2.563513 1_555
Na8 O42 2.598003 1_565
Na8 O63 2.617521 1_555
Na8 O6 2.652146 1_555
Na8 O27 2.762873 1_555
Na9 O45 2.450933 1_455
Na9 O26 2.534999 1_554
Na9 O47 2.558409 1_565
Na9 O61 2.572379 1_555
Na9 O62 2.800190 1_555
Na9 O18 2.960165 1_565
Na9 O11 2.971960 1_555
Na10 O60 2.457941 1_555
Na10 O9 2.515575 1_555
Na10 O45 2.563531 1_555
Na10 O62 2.784193 1_555
Na10 O46 2.809013 1_565
Na11 O47 2.441886 1_555
Na11 O10 2.536570 1_555
Na11 O61 2.578461 1_555
Na11 O60 2.580265 1_555
Na11 O46 2.695746 1_455
Na11 O25 2.823053 1_554
Na12 O40 2.497719 1_655
Na12 O19 2.539812 1_556
Na12 O55 2.592260 1_555
Na12 O41 2.749435 1_555
Na12 O54 2.804456 1_555
Na12 O26 2.958722 1_655
Na12 O4 3.022396 1_555
Na12 O33 3.047630 1_655
Na13 O55 2.437085 1_555
Na13 O39 2.479713 1_655
Na13 O5 2.484553 1_555
Na13 O56 2.606063 1_555
Na13 O41 2.828976 1_545
Na13 O34 2.957671 1_545
Na13 O20 3.037738 1_556
Na14 O56 2.428228 1_555
Na14 O40 2.523206 1_545
Na14 O18 2.600275 1_556
Na14 O39 2.622403 1_555
Na14 O54 2.754450 1_555
Na14 O3 2.789007 1_555
Na15 O37 2.465476 1_545
Na15 O57 2.470555 1_555
Na15 O59 2.568143 1_555
Na15 O2 2.609891 1_555
Na15 O38 2.835162 1_655
Na15 O30 2.950429 1_655
Na15 O23 2.997383 1_555
Na16 O36 2.554838 1_545
Na16 O57 2.583406 1_555
Na16 O38 2.667954 1_555
Na16 O21 2.685378 1_555
Na16 O58 2.792332 1_555
Na16 O29 2.881716 1_545
Na16 O0 2.914765 1_555
Na16 O31 2.946948 1_545
Na17 O59 2.476758 1_555
Na17 O36 2.486948 1_655
Na17 O37 2.640372 1_555
Na17 O58 2.690171 1_555
Na17 O22 2.706211 1_555
Na17 O1 2.801634 1_555
Na17 O27 2.948388 1_555
Na18 O44 2.481339 1_555
Na18 O36 2.505729 1_655
Na18 O43 2.557599 1_665
Na18 O37 2.682178 1_555
Na18 O42 2.840645 1_565
Na18 O38 2.903691 1_665
Na19 O40 2.407984 1_544
Na19 O47 2.495865 1_555
Na19 O39 2.553842 1_554
Na19 O45 2.587907 1_445
Na19 O41 2.887072 1_444
Na19 O46 2.887691 1_455
Na20 O56 2.425586 1_555
Na20 O48 2.489755 1_555
Na20 O55 2.523387 1_555
Na20 O49 2.650012 1_555
Na20 O54 2.868247 1_555
Na20 O50 2.900264 1_555
Na21 O52 2.436443 1_555
Na21 O59 2.446050 1_555
Na21 O57 2.543235 1_555
Na21 O51 2.582756 1_555
Na21 O58 2.798917 1_555
Na21 O53 2.813286 1_555
Na22 O60 2.400715 1_555
Na22 O68 2.506557 1_555
Na22 O61 2.530389 1_555
Na22 O67 2.594288 1_555
Na22 O66 2.834820 1_555
Na22 O62 2.859230 1_555
Na23 O71 2.366911 1_555
Na23 O64 2.431878 1_555
Na23 O69 2.478660 1_555
Na23 O63 2.579137 1_555
Na23 O70 2.807284 1_555
Na23 O65 2.883338 1_555
O0 S0 1.477401 1_555
O0 Sc0 2.351076 1_445
O1 Si0 1.647265 1_555
O1 Sc0 1.975884 1_555
O2 Si1 1.645977 1_655
O2 Sc0 2.043503 1_545
O3 Si2 1.636875 1_555
O3 Y0 2.122736 1_555
O4 S1 1.483343 1_555
O4 Y0 2.351902 1_665
O5 Si3 1.636289 1_555
O5 Y0 2.185951 1_655
O6 Si3 1.649376 1_565
O6 Sc1 2.011830 1_565
O7 Si2 1.649568 1_555
O7 Sc1 2.020294 1_455
O8 S1 1.481504 1_455
O8 Sc1 2.195585 1_465
O9 Si0 1.635280 1_555
O9 Y1 2.198468 1_565
O10 Si1 1.635018 1_555
O10 Y1 2.179713 1_455
O11 S0 1.489137 1_565
O11 Y1 2.278982 1_465
O12 S2 1.475942 1_555
O12 Sc2 2.276647 1_555
O13 Si4 1.642411 1_555
O13 Sc2 1.959305 1_555
O14 Si5 1.635443 1_555
O14 Sc2 2.016909 1_555
O15 Si6 1.654690 1_555
O15 Sc3 1.961669 1_555
O16 S3 1.473370 1_555
O16 Sc3 2.337602 1_555
O17 Si7 1.651248 1_555
O17 Sc3 2.020823 1_555
O18 Si7 1.635384 1_555
O18 Y2 2.159234 1_554
O19 Si6 1.635041 1_555
O19 Y2 2.175889 1_554
O20 S3 1.481218 1_555
O20 Y2 2.262921 1_554
O21 Si4 1.652126 1_555
O21 Sc4 2.040622 1_555
O22 Si5 1.650840 1_555
O22 Sc4 2.022711 1_555
O23 S2 1.488445 1_555
O23 Sc4 2.205267 1_555
O24 S4 1.473200 1_555
O24 Y3 2.371942 1_556
O25 Si8 1.645281 1_555
O25 Y3 2.116537 1_556
O26 Si9 1.643092 1_555
O26 Y3 2.175541 1_556
O27 Si10 1.640395 1_555
O27 Y4 2.125312 1_555
O28 S5 1.485970 1_555
O28 Y4 2.367887 1_555
O29 Si11 1.637827 1_555
O29 Y4 2.186236 1_555
O30 Si11 1.645639 1_555
O30 Sc5 2.029656 1_555
O31 Si10 1.647054 1_555
O31 Sc5 2.056201 1_555
O32 S5 1.484889 1_555
O32 Sc5 2.211781 1_555
O33 Si8 1.641430 1_555
O33 Y5 2.167905 1_555
O34 Si9 1.641292 1_555
O34 Y5 2.159637 1_555
O35 S4 1.477513 1_555
O35 Y5 2.286461 1_555
O36 Si11 1.660868 1_555
O36 Sc0 2.120217 1_455
O37 Si10 1.657174 1_555
O37 Sc0 2.022004 1_555
O38 S5 1.486320 1_555
O38 Sc0 2.398519 1_445
O39 Si8 1.648105 1_555
O39 Y0 2.188618 1_555
O40 Si9 1.650323 1_555
O40 Y0 2.262561 1_565
O41 S4 1.468032 1_555
O41 Y0 2.433237 1_665
O42 S2 1.503105 1_555
O42 Sc1 2.256898 1_555
O43 Si4 1.657232 1_555
O43 Sc1 2.151966 1_455
O44 Si5 1.659131 1_555
O44 Sc1 2.166808 1_565
O45 Si6 1.645332 1_555
O45 Y1 2.241631 1_565
O46 S3 1.489360 1_555
O46 Y1 2.332770 1_555
O47 Si7 1.644360 1_555
O47 Y1 2.257318 1_455
O48 Si3 1.655403 1_555
O48 Sc2 2.107511 1_555
O49 Si2 1.652478 1_555
O49 Sc2 2.029824 1_555
O50 S1 1.477110 1_555
O50 Sc2 2.362544 1_555
O51 Si0 1.656916 1_555
O51 Sc3 2.052886 1_555
O52 Si1 1.662301 1_655
O52 Sc3 2.157759 1_555
O53 S0 1.484247 1_555
O53 Sc3 2.410778 1_555
O54 S4 1.473543 1_555
O54 Y2 2.343893 1_555
O55 Si8 1.646966 1_655
O55 Y2 2.243234 1_555
O56 Si9 1.644807 1_545
O56 Y2 2.271396 1_555
O57 Si10 1.654243 1_545
O57 Sc4 2.161150 1_555
O58 S5 1.495734 1_555
O58 Sc4 2.270908 1_555
O59 Si11 1.659011 1_655
O59 Sc4 2.189569 1_555
O60 Si7 1.653479 1_555
O60 Y3 2.282923 1_555
O61 Si6 1.650008 1_455
O61 Y3 2.209104 1_555
O62 S3 1.478714 1_565
O62 Y3 2.439542 1_555
O63 Si4 1.651540 1_565
O63 Y4 2.202813 1_555
O64 Si5 1.656770 1_555
O64 Y4 2.290054 1_555
O65 S2 1.494567 1_455
O65 Y4 2.451904 1_555
O66 S0 1.500862 1_565
O66 Sc5 2.220769 1_555
O67 Si0 1.645623 1_555
O67 Sc5 2.113408 1_555
O68 Si1 1.651171 1_555
O68 Sc5 2.121941 1_555
O69 Si2 1.647523 1_555
O69 Y5 2.274351 1_555
O70 S1 1.493228 1_455
O70 Y5 2.350409 1_555
O71 Si3 1.647749 1_565
O71 Y5 2.304494 1_555
