# generated using pymatgen
data_Na3YGa(PO4)3
_symmetry_space_group_name_H-M   'P 1'
_cell_length_a   15.77563620
_cell_length_b   9.04558489
_cell_length_c   9.06914309
_cell_angle_alpha   90.12615151
_cell_angle_beta   125.05616824
_cell_angle_gamma   89.88880067
_symmetry_Int_Tables_number   1
_chemical_formula_structural   Na3YGa(PO4)3
_chemical_formula_sum   'Na12 Y4 Ga4 P12 O48'
_cell_volume   1059.38711310
_cell_formula_units_Z   4
loop_
 _symmetry_equiv_pos_site_id
 _symmetry_equiv_pos_as_xyz
  1  'x, y, z'
loop_
 _atom_site_type_symbol
 _atom_site_label
 _atom_site_symmetry_multiplicity
 _atom_site_fract_x
 _atom_site_fract_y
 _atom_site_fract_z
 _atom_site_occupancy
  Na  Na0  1  0.24102347  0.77385998  0.99555809  1
  Na  Na1  1  0.75047266  0.72297667  0.50859610  1
  Na  Na2  1  0.75084454  0.27105403  0.01096916  1
  Na  Na3  1  0.24017844  0.22396265  0.49357764  1
  Na  Na4  1  0.50439884  0.09673942  0.76264463  1
  Na  Na5  1  0.50108218  0.91063631  0.23803569  1
  Na  Na6  1  0.00474170  0.60799790  0.75261500  1
  Na  Na7  1  0.99937202  0.38543607  0.24049403  1
  Na  Na8  1  0.81775806  0.93306796  0.21789411  1
  Na  Na9  1  0.81436508  0.07238135  0.71436309  1
  Na  Na10  1  0.30137925  0.43006253  0.19200399  1
  Na  Na11  1  0.31065866  0.56140938  0.72342065  1
  Y  Y0  1  0.10550233  0.76166540  0.55482183  1
  Y  Y1  1  0.60257580  0.26067752  0.55689441  1
  Y  Y2  1  0.39709340  0.74928881  0.44205525  1
  Y  Y3  1  0.60720454  0.73953387  0.05823920  1
  Ga  Ga0  1  0.90040967  0.74976628  0.94634436  1
  Ga  Ga1  1  0.90123653  0.25054650  0.44863134  1
  Ga  Ga2  1  0.09952612  0.24472471  0.04752348  1
  Ga  Ga3  1  0.39501186  0.25265190  0.94147609  1
  P  P0  1  0.99770964  0.96233789  0.75410166  1
  P  P1  1  0.99644995  0.05399873  0.23503485  1
  P  P2  1  0.49040554  0.43439890  0.74937232  1
  P  P3  1  0.48935874  0.55000531  0.23009512  1
  P  P4  1  0.35779052  0.90995998  0.77454584  1
  P  P5  1  0.66284732  0.89146191  0.75223921  1
  P  P6  1  0.65656301  0.11272726  0.24774260  1
  P  P7  1  0.34771281  0.10813418  0.24187276  1
  P  P8  1  0.86407158  0.40243685  0.75823547  1
  P  P9  1  0.14637754  0.38471287  0.74777871  1
  P  P10  1  0.14376042  0.59614481  0.23207205  1
  P  P11  1  0.86077046  0.59383420  0.25922122  1
  O  O0  1  0.15566592  0.55695519  0.74487687  1
  O  O1  1  0.85955861  0.57487685  0.76367978  1
  O  O2  1  0.85596599  0.42160687  0.26048466  1
  O  O3  1  0.14847283  0.42344794  0.22310059  1
  O  O4  1  0.67290031  0.06196458  0.74883118  1
  O  O5  1  0.34835251  0.08098490  0.77017640  1
  O  O6  1  0.34148803  0.93698359  0.23378910  1
  O  O7  1  0.66723137  0.94098993  0.24509141  1
  O  O8  1  0.42740351  0.52513229  0.57330168  1
  O  O9  1  0.54775874  0.53787744  0.91099902  1
  O  O10  1  0.54263084  0.45616643  0.40049022  1
  O  O11  1  0.43127710  0.44994474  0.05881428  1
  O  O12  1  0.92868253  0.05467164  0.57629014  1
  O  O13  1  0.05873517  0.06353617  0.91825921  1
  O  O14  1  0.06563735  0.96400224  0.40663233  1
  O  O15  1  0.92612671  0.95022616  0.07009011  1
  O  O16  1  0.26988033  0.82745293  0.76657900  1
  O  O17  1  0.75425198  0.81559626  0.76058630  1
  O  O18  1  0.75117963  0.18148393  0.25922252  1
  O  O19  1  0.25301613  0.18188142  0.22404406  1
  O  O20  1  0.77165489  0.33192061  0.74781952  1
  O  O21  1  0.24132770  0.32010572  0.75996818  1
  O  O22  1  0.23353015  0.66107605  0.22989815  1
  O  O23  1  0.76960737  0.66720081  0.25009693  1
  O  O24  1  0.35990658  0.86706624  0.61090178  1
  O  O25  1  0.66565178  0.85836805  0.92143059  1
  O  O26  1  0.66073515  0.14426021  0.41901971  1
  O  O27  1  0.36037131  0.15924285  0.09161735  1
  O  O28  1  0.86469380  0.36341109  0.59138755  1
  O  O29  1  0.14600370  0.35360312  0.91583198  1
  O  O30  1  0.15837492  0.62819731  0.41330744  1
  O  O31  1  0.86450912  0.63857368  0.09662145  1
  O  O32  1  0.46013579  0.86229056  0.94842409  1
  O  O33  1  0.55919768  0.83964249  0.57950514  1
  O  O34  1  0.55228802  0.16675516  0.07629584  1
  O  O35  1  0.44547422  0.15397321  0.42742018  1
  O  O36  1  0.96341137  0.34304991  0.93222509  1
  O  O37  1  0.04562094  0.32745636  0.57192083  1
  O  O38  1  0.04040113  0.66143898  0.07020612  1
  O  O39  1  0.95826337  0.64854429  0.43720428  1
  O  O40  1  0.07279264  0.85569137  0.74990871  1
  O  O41  1  0.91970575  0.86290283  0.76482900  1
  O  O42  1  0.91952799  0.15019551  0.25278957  1
  O  O43  1  0.06788039  0.15956040  0.21835330  1
  O  O44  1  0.57027880  0.32728246  0.75965363  1
  O  O45  1  0.40778234  0.34145392  0.75322601  1
  O  O46  1  0.40405448  0.64691610  0.21824220  1
  O  O47  1  0.57195033  0.65544709  0.24808657  1
loop_
_geom_bond_atom_site_label_1
_geom_bond_atom_site_label_2
_geom_bond_distance
_geom_bond_site_symmetry_2
Na0 O6 2.327772 1_556
Na0 O40 2.400444 1_555
Na0 O16 2.417847 1_555
Na0 O22 2.422837 1_556
Na0 O46 2.458427 1_556
Na0 O0 2.702829 1_555
Na1 O1 2.353570 1_555
Na1 O17 2.400720 1_555
Na1 O47 2.498657 1_555
Na1 O23 2.578540 1_555
Na1 O41 2.646318 1_555
Na1 O7 2.780305 1_555
Na2 O2 2.325877 1_555
Na2 O18 2.391615 1_555
Na2 O44 2.471626 1_554
Na2 O42 2.526128 1_555
Na2 O20 2.648211 1_554
Na2 O4 2.715162 1_554
Na3 O5 2.442458 1_555
Na3 O43 2.482682 1_555
Na3 O45 2.552069 1_555
Na3 O21 2.556146 1_555
Na3 O19 2.593355 1_555
Na3 O3 2.701650 1_555
Na4 O44 2.338975 1_555
Na4 O5 2.505925 1_555
Na4 O34 2.566818 1_556
Na4 O45 2.658680 1_555
Na4 O35 2.670863 1_555
Na4 O4 2.749526 1_555
Na4 O24 2.794302 1_545
Na5 O32 2.356733 1_554
Na5 O6 2.506674 1_555
Na5 O47 2.541745 1_555
Na5 O7 2.599950 1_555
Na5 O33 2.754675 1_555
Na5 O46 2.786118 1_555
Na5 O27 2.890590 1_565
Na5 O26 2.959710 1_565
Na6 O1 2.369045 1_455
Na6 O0 2.464639 1_555
Na6 O40 2.492576 1_555
Na6 O39 2.539449 1_455
Na6 O38 2.641920 1_556
Na6 O41 2.699260 1_455
Na6 O28 2.864915 1_455
Na6 O29 2.942494 1_555
Na7 O43 2.371047 1_655
Na7 O2 2.392917 1_555
Na7 O3 2.470906 1_655
Na7 O42 2.509923 1_555
Na7 O36 2.541482 1_554
Na7 O37 2.707059 1_655
Na7 O31 2.877032 1_555
Na7 O30 3.010055 1_655
Na8 O42 2.441525 1_565
Na8 O25 2.455681 1_554
Na8 O7 2.525287 1_555
Na8 O23 2.590557 1_555
Na8 O18 2.594673 1_565
Na8 O15 2.716258 1_555
Na8 O12 2.880049 1_565
Na9 O41 2.383160 1_545
Na9 O4 2.426810 1_555
Na9 O26 2.452600 1_555
Na9 O20 2.506639 1_555
Na9 O17 2.634356 1_545
Na9 O12 2.727312 1_555
Na9 O15 2.865560 1_546
Na10 O29 2.388753 1_554
Na10 O19 2.443463 1_555
Na10 O22 2.457876 1_555
Na10 O46 2.468911 1_555
Na10 O3 2.585329 1_555
Na10 O11 2.921748 1_555
Na10 O27 2.941213 1_555
Na10 O8 2.957370 1_555
Na11 O45 2.427764 1_555
Na11 O30 2.507286 1_555
Na11 O21 2.549384 1_555
Na11 O0 2.562232 1_555
Na11 O16 2.576329 1_555
Na11 O11 2.691961 1_556
Na11 O8 2.868672 1_555
Ga0 O38 1.981095 1_656
Ga0 O17 2.011454 1_555
Ga0 O31 2.021087 1_556
Ga0 O15 2.045216 1_556
Ga0 O1 2.104359 1_555
Ga0 O41 2.105756 1_555
Ga1 O28 1.974866 1_555
Ga1 O37 1.999854 1_655
Ga1 O12 2.024193 1_555
Ga1 O18 2.067503 1_555
Ga1 O2 2.103167 1_555
Ga1 O42 2.154641 1_555
Ga2 O13 1.898321 1_554
Ga2 O36 1.978045 1_454
Ga2 O29 1.986942 1_554
Ga2 O43 2.034260 1_555
Ga2 O19 2.072389 1_555
Ga2 O3 2.080001 1_555
Ga3 O27 1.930886 1_556
Ga3 O11 1.985160 1_556
Ga3 O45 2.000592 1_555
Ga3 O5 2.011654 1_555
Ga3 O21 2.091428 1_555
Ga3 O34 2.183221 1_556
O0 P9 1.566884 1_555
O0 Y0 2.338267 1_555
O1 P8 1.563271 1_555
O2 P11 1.560274 1_555
O3 P10 1.567922 1_555
O4 P5 1.552925 1_545
O4 Y1 2.297686 1_555
O5 P4 1.552292 1_545
O6 P7 1.550364 1_565
O6 Y2 2.307509 1_555
O7 P6 1.563849 1_565
O7 Y3 2.288838 1_555
O8 P2 1.546186 1_555
O8 Y2 2.260476 1_555
O9 P2 1.522202 1_555
O9 Y3 2.132438 1_556
O10 P3 1.525110 1_555
O10 Y1 2.120577 1_555
O11 P3 1.560039 1_555
O12 P0 1.571305 1_545
O13 P0 1.527139 1_445
O14 P1 1.525375 1_465
O14 Y0 2.141723 1_555
O15 P1 1.562388 1_565
O16 P4 1.540849 1_555
O16 Y0 2.246523 1_555
O17 P5 1.557860 1_555
O18 P6 1.565381 1_555
O19 P7 1.556281 1_555
O20 P8 1.544827 1_555
O20 Y1 2.285670 1_555
O21 P9 1.550523 1_555
O22 P10 1.544753 1_555
O22 Y2 2.301036 1_555
O23 P11 1.541230 1_555
O23 Y3 2.212926 1_555
O24 P4 1.551957 1_555
O24 Y2 2.201447 1_555
O25 P5 1.539482 1_555
O25 Y3 2.206574 1_556
O26 P6 1.542472 1_555
O26 Y1 2.196047 1_555
O27 P7 1.557646 1_555
O28 P8 1.558553 1_555
O29 P9 1.553809 1_555
O30 P10 1.549723 1_555
O30 Y0 2.240412 1_555
O31 P11 1.563475 1_555
O32 P4 1.534581 1_555
O32 Y3 2.224463 1_556
O33 P5 1.550690 1_555
O33 Y2 2.259039 1_555
O34 P6 1.557073 1_555
O35 P7 1.549272 1_555
O35 Y1 2.261413 1_555
O36 P8 1.547306 1_555
O37 P9 1.557490 1_555
O38 P10 1.553354 1_555
O39 P11 1.537345 1_555
O39 Y0 2.176776 1_655
O40 P0 1.543437 1_455
O40 Y0 2.271658 1_555
O41 P0 1.573201 1_555
O42 P1 1.573344 1_555
O43 P1 1.550847 1_455
O44 P2 1.547883 1_555
O44 Y1 2.252591 1_555
O45 P2 1.569625 1_555
O46 P3 1.555844 1_555
O46 Y2 2.288454 1_555
O47 P3 1.547217 1_555
O47 Y3 2.227038 1_555
