# generated using pymatgen
data_MgCr2Fe3Ni(PO4)6
_symmetry_space_group_name_H-M   'P 1'
_cell_length_a   8.61492072
_cell_length_b   8.61207466
_cell_length_c   8.38623792
_cell_angle_alpha   61.52873515
_cell_angle_beta   61.47253972
_cell_angle_gamma   60.78720308
_symmetry_Int_Tables_number   1
_chemical_formula_structural   MgCr2Fe3Ni(PO4)6
_chemical_formula_sum   'Mg1 Cr2 Fe3 Ni1 P6 O24'
_cell_volume   452.40515038
_cell_formula_units_Z   1
loop_
 _symmetry_equiv_pos_site_id
 _symmetry_equiv_pos_as_xyz
  1  'x, y, z'
loop_
 _atom_site_type_symbol
 _atom_site_label
 _atom_site_symmetry_multiplicity
 _atom_site_fract_x
 _atom_site_fract_y
 _atom_site_fract_z
 _atom_site_occupancy
  Mg  Mg0  1  0.86872100  0.63256100  0.24802200  1
  Cr  Cr0  1  0.00309000  0.00563300  0.99517400  1
  Cr  Cr1  1  0.49118900  0.49432100  0.50831300  1
  Fe  Fe0  1  0.15238100  0.14097000  0.14404000  1
  Fe  Fe1  1  0.35834400  0.35241700  0.35794200  1
  Fe  Fe2  1  0.64229100  0.64906000  0.65206300  1
  Ni  Ni0  1  0.84739300  0.85988100  0.85196800  1
  P  P0  1  0.03936300  0.74794200  0.44369700  1
  P  P1  1  0.44801500  0.04145900  0.75296900  1
  P  P2  1  0.75524200  0.45062800  0.06174800  1
  P  P3  1  0.26109200  0.54089400  0.95571100  1
  P  P4  1  0.55014100  0.96187400  0.24734300  1
  P  P5  1  0.96208400  0.24458300  0.54275100  1
  O  O0  1  0.11505100  0.32257000  0.47760800  1
  O  O1  1  0.34797200  0.49552700  0.09932000  1
  O  O2  1  0.05697700  0.91148800  0.24491800  1
  O  O3  1  0.51559700  0.11238300  0.31520300  1
  O  O4  1  0.97580700  0.80763800  0.61213600  1
  O  O5  1  0.23559400  0.59320300  0.43029200  1
  O  O6  1  0.24798000  0.04942200  0.91521400  1
  O  O7  1  0.41545700  0.23985500  0.60332800  1
  O  O8  1  0.18889000  0.38814500  0.00268200  1
  O  O9  1  0.59611500  0.42318700  0.25747300  1
  O  O10  1  0.08527900  0.73037300  0.97354200  1
  O  O11  1  0.39476700  0.99914100  0.18254000  1
  O  O12  1  0.59613600  0.00383200  0.82611900  1
  O  O13  1  0.91361800  0.25321300  0.05680600  1
  O  O14  1  0.40453200  0.57159200  0.74902800  1
  O  O15  1  0.82280400  0.58916500  0.05774100  1
  O  O16  1  0.58392600  0.75677600  0.39404600  1
  O  O17  1  0.75692100  0.93417500  0.09255100  1
  O  O18  1  0.77202900  0.41711200  0.53749800  1
  O  O19  1  0.99720200  0.16333700  0.39678300  1
  O  O20  1  0.48973600  0.88879900  0.67873800  1
  O  O21  1  0.94580800  0.09853900  0.74724300  1
  O  O22  1  0.69875300  0.52310000  0.88514200  1
  O  O23  1  0.89338600  0.68333300  0.45231300  1
loop_
_geom_bond_atom_site_label_1
_geom_bond_atom_site_label_2
_geom_bond_distance
_geom_bond_site_symmetry_2
Mg0 O15 2.039210 1_555
Mg0 O23 2.079458 1_555
Mg0 O16 2.116810 1_555
Mg0 O17 2.214306 1_555
Mg0 O10 2.252137 1_654
Mg0 O18 2.304881 1_555
Cr0 O2 2.049804 1_546
Cr0 O21 2.053121 1_455
Cr0 O6 2.055959 1_555
Cr0 O13 2.115050 1_456
Cr0 O17 2.164176 1_446
Cr0 O10 2.191519 1_545
Cr1 O14 2.105163 1_555
Cr1 O9 2.118830 1_555
Cr1 O5 2.239723 1_555
Cr1 O7 2.257726 1_555
Cr1 O18 2.279415 1_555
Cr1 O16 2.373125 1_555
Fe0 O11 1.932573 1_545
Fe0 O19 1.936040 1_455
Fe0 O8 1.981660 1_555
Fe0 O6 2.069188 1_554
Fe0 O13 2.126683 1_455
Fe0 O2 2.150427 1_545
Fe1 O0 1.933146 1_555
Fe1 O3 1.935481 1_555
Fe1 O1 1.939063 1_555
Fe1 O7 2.004040 1_555
Fe1 O5 2.057371 1_555
Fe1 O9 2.087519 1_555
Fe2 O20 1.884404 1_555
Fe2 O22 1.898811 1_555
Fe2 O23 2.064751 1_555
Fe2 O16 2.113166 1_555
Fe2 O14 2.127791 1_555
Fe2 O18 2.188003 1_555
Ni0 O4 1.929566 1_555
Ni0 O12 1.960059 1_565
Ni0 O17 2.080749 1_556
Ni0 O15 2.180672 1_556
Ni0 O21 2.232323 1_565
Ni0 O10 2.272398 1_655
O0 P5 1.520720 1_455
O1 P3 1.513339 1_554
O2 P0 1.585602 1_555
O3 P4 1.502519 1_545
O4 P0 1.496107 1_655
O5 P0 1.551991 1_555
O6 P1 1.599912 1_555
O7 P1 1.548198 1_555
O8 P3 1.530747 1_554
O9 P2 1.557709 1_555
O10 P3 1.607178 1_555
O11 P4 1.516313 1_555
O12 P1 1.504720 1_555
O13 P2 1.581999 1_555
O14 P3 1.561208 1_555
O15 P2 1.544117 1_555
O16 P4 1.576871 1_555
O17 P4 1.608435 1_555
O18 P5 1.588162 1_555
O19 P5 1.528347 1_555
O20 P1 1.533155 1_565
O21 P5 1.558363 1_555
O22 P2 1.526607 1_556
O23 P0 1.566597 1_655
