# generated using pymatgen
data_Ba(AlTe2)2
_symmetry_space_group_name_H-M   'P 1'
_cell_length_a   6.74162841
_cell_length_b   8.68739556
_cell_length_c   8.68739556
_cell_angle_alpha   90.00000000
_cell_angle_beta   90.00000000
_cell_angle_gamma   90.00000000
_symmetry_Int_Tables_number   1
_chemical_formula_structural   Ba(AlTe2)2
_chemical_formula_sum   'Ba2 Al4 Te8'
_cell_volume   508.79636996
_cell_formula_units_Z   2
loop_
 _symmetry_equiv_pos_site_id
 _symmetry_equiv_pos_as_xyz
  1  'x, y, z'
loop_
 _atom_site_type_symbol
 _atom_site_label
 _atom_site_symmetry_multiplicity
 _atom_site_fract_x
 _atom_site_fract_y
 _atom_site_fract_z
 _atom_site_occupancy
  Ba  Ba0  1  -0.00000000  0.75000000  0.75000000  1
  Ba  Ba1  1  -0.00000000  0.25000000  0.25000000  1
  Al  Al0  1  0.50000000  0.25000000  0.75000000  1
  Al  Al1  1  0.50000000  0.75000000  0.25000000  1
  Al  Al2  1  -0.00000000  0.75000000  0.25000000  1
  Al  Al3  1  -0.00000000  0.25000000  0.75000000  1
  Te  Te0  1  0.25062363  0.08499618  0.91500382  1
  Te  Te1  1  0.25062363  0.41500382  0.58499618  1
  Te  Te2  1  0.74937637  0.91500382  0.08499618  1
  Te  Te3  1  0.74937637  0.41500382  0.91500382  1
  Te  Te4  1  0.74937637  0.08499618  0.58499618  1
  Te  Te5  1  0.74937637  0.58499618  0.41500382  1
  Te  Te6  1  0.25062363  0.91500382  0.41500382  1
  Te  Te7  1  0.25062363  0.58499618  0.08499618  1
loop_
_geom_bond_atom_site_label_1
_geom_bond_atom_site_label_2
_geom_bond_distance
_geom_bond_site_symmetry_2
Ba0 Te5 3.657745 1_455
Ba0 Te3 3.657745 1_455
Ba0 Te6 3.657745 1_555
Ba0 Te1 3.657745 1_555
Ba0 Te7 3.657745 1_556
Ba0 Te0 3.657745 1_565
Ba0 Te2 3.657745 1_456
Ba0 Te4 3.657745 1_465
Ba1 Te0 3.657745 1_554
Ba1 Te5 3.657745 1_455
Ba1 Te4 3.657745 1_455
Ba1 Te3 3.657745 1_454
Ba1 Te6 3.657745 1_545
Ba1 Te7 3.657745 1_555
Ba1 Te2 3.657745 1_445
Ba1 Te1 3.657745 1_555
Al0 Te1 2.633633 1_555
Al0 Te4 2.633633 1_555
Al0 Te3 2.633633 1_555
Al0 Te0 2.633633 1_555
Al1 Te6 2.633633 1_555
Al1 Te7 2.633633 1_555
Al1 Te5 2.633633 1_555
Al1 Te2 2.633633 1_555
Al2 Te7 2.639008 1_555
Al2 Te2 2.639008 1_455
Al2 Te5 2.639008 1_455
Al2 Te6 2.639008 1_555
Al3 Te1 2.639008 1_555
Al3 Te3 2.639008 1_455
Al3 Te0 2.639008 1_555
Al3 Te4 2.639008 1_455
