# generated using pymatgen
data_Na4La3Nb(PO4)6
_symmetry_space_group_name_H-M   'P 1'
_cell_length_a   9.41996677
_cell_length_b   9.41544007
_cell_length_c   23.77172583
_cell_angle_alpha   89.96899577
_cell_angle_beta   90.14481166
_cell_angle_gamma   120.03743989
_symmetry_Int_Tables_number   1
_chemical_formula_structural   Na4La3Nb(PO4)6
_chemical_formula_sum   'Na12 La9 Nb3 P18 O72'
_cell_volume   1825.22256841
_cell_formula_units_Z   3
loop_
 _symmetry_equiv_pos_site_id
 _symmetry_equiv_pos_as_xyz
  1  'x, y, z'
loop_
 _atom_site_type_symbol
 _atom_site_label
 _atom_site_symmetry_multiplicity
 _atom_site_fract_x
 _atom_site_fract_y
 _atom_site_fract_z
 _atom_site_occupancy
  Na  Na0  1  0.63861539  0.99724425  0.25356281  1
  Na  Na1  1  0.36332637  0.36308762  0.25242227  1
  Na  Na2  1  0.99783800  0.63925001  0.25162116  1
  Na  Na3  1  0.29858424  0.33764851  0.58341661  1
  Na  Na4  1  0.03694758  0.69592123  0.58406352  1
  Na  Na5  1  0.66084441  0.70506949  0.07466299  1
  Na  Na6  1  0.98792639  0.00101001  0.49887476  1
  Na  Na7  1  0.01363480  0.01534992  0.99726767  1
  Na  Na8  1  0.66659015  0.33470900  0.83174518  1
  Na  Na9  1  0.66655305  0.33312220  0.33920090  1
  Na  Na10  1  0.31977308  0.66897241  0.16376846  1
  Na  Na11  1  0.35105811  0.68537554  0.67498438  1
  La  La0  1  0.00111419  0.99810055  0.35490678  1
  La  La1  1  0.99947363  0.99694975  0.85268279  1
  La  La2  1  0.98787849  0.00022257  0.65763528  1
  La  La3  1  0.01179559  0.01156314  0.14223138  1
  La  La4  1  0.66640798  0.32680906  0.69086635  1
  La  La5  1  0.66622524  0.32608863  0.17710137  1
  La  La6  1  0.32139517  0.66535017  0.01286309  1
  La  La7  1  0.34479476  0.67802966  0.51429070  1
  La  La8  1  0.33497348  0.66761342  0.33047352  1
  Nb  Nb0  1  0.66696108  0.32984087  0.97735743  1
  Nb  Nb1  1  0.66649430  0.32909502  0.48340833  1
  Nb  Nb2  1  0.33033052  0.66428506  0.82016002  1
  P  P0  1  0.30257338  0.99418099  0.25050667  1
  P  P1  1  0.69336885  0.69878232  0.24646380  1
  P  P2  1  0.00690226  0.30833977  0.25089584  1
  P  P3  1  0.30116919  0.32047048  0.75252957  1
  P  P4  1  0.01899205  0.69770055  0.75195388  1
  P  P5  1  0.67684225  0.97949429  0.75645413  1
  P  P6  1  0.95583025  0.32816810  0.58004706  1
  P  P7  1  0.36812642  0.04741145  0.58079656  1
  P  P8  1  0.67420186  0.62073351  0.58117575  1
  P  P9  1  0.95040696  0.62673935  0.07812990  1
  P  P10  1  0.67432502  0.04042784  0.07649318  1
  P  P11  1  0.37735862  0.33024765  0.07649956  1
  P  P12  1  0.61829915  0.64574489  0.91975860  1
  P  P13  1  0.02402474  0.37740963  0.91654559  1
  P  P14  1  0.35499818  0.97523803  0.91648711  1
  P  P15  1  0.64855018  0.99583522  0.41647699  1
  P  P16  1  0.34734678  0.35430861  0.42156622  1
  P  P17  1  0.00650185  0.65115871  0.42137986  1
  O  O0  1  0.21799202  0.01546124  0.30210355  1
  O  O1  1  0.80604226  0.79052823  0.29646331  1
  O  O2  1  0.98749278  0.20238569  0.30234675  1
  O  O3  1  0.20366067  0.19964865  0.79836657  1
  O  O4  1  0.99482903  0.79394642  0.79815215  1
  O  O5  1  0.79286030  0.00473996  0.80412850  1
  O  O6  1  0.74145432  0.95017216  0.69993264  1
  O  O7  1  0.21144711  0.26253920  0.69456470  1
  O  O8  1  0.04687494  0.78682342  0.69413727  1
  O  O9  1  0.77172757  0.79472882  0.19127616  1
  O  O10  1  0.02529071  0.22459629  0.19746577  1
  O  O11  1  0.20067724  0.97741848  0.19712049  1
  O  O12  1  0.87666035  0.34612517  0.63330565  1
  O  O13  1  0.46252980  0.12593906  0.63450447  1
  O  O14  1  0.65884966  0.52573544  0.63489109  1
  O  O15  1  0.87808042  0.55087835  0.13597053  1
  O  O16  1  0.67030421  0.11159187  0.13440875  1
  O  O17  1  0.45051971  0.33095015  0.13480640  1
  O  O18  1  0.49415648  0.32663788  0.02862574  1
  O  O19  1  0.83657907  0.50531715  0.02947542  1
  O  O20  1  0.67078228  0.15608544  0.02812697  1
  O  O21  1  0.48176163  0.15465060  0.52960096  1
  O  O22  1  0.67800451  0.51175714  0.53014395  1
  O  O23  1  0.84270749  0.32102195  0.52876530  1
  O  O24  1  0.55670989  0.67097041  0.97613706  1
  O  O25  1  0.11612876  0.44116567  0.97157265  1
  O  O26  1  0.32992678  0.88488444  0.97156515  1
  O  O27  1  0.54729442  0.87446923  0.46261658  1
  O  O28  1  0.32923098  0.44682456  0.47156945  1
  O  O29  1  0.11726998  0.66928732  0.47138941  1
  O  O30  1  0.07875629  0.62933264  0.36528399  1
  O  O31  1  0.56132536  0.93284189  0.35873827  1
  O  O32  1  0.37240586  0.45002639  0.36548740  1
  O  O33  1  0.12870913  0.50202069  0.86781127  1
  O  O34  1  0.37020018  0.86899245  0.86755509  1
  O  O35  1  0.49201749  0.62767822  0.87166143  1
  O  O36  1  0.97582347  0.79585165  0.41995047  1
  O  O37  1  0.82326024  0.02612551  0.41827614  1
  O  O38  1  0.20178177  0.17980616  0.41963647  1
  O  O39  1  0.98966363  0.20485760  0.90618394  1
  O  O40  1  0.21761383  0.01190898  0.90710804  1
  O  O41  1  0.79081837  0.78405334  0.90862435  1
  O  O42  1  0.97600655  0.17495703  0.57972256  1
  O  O43  1  0.20473187  0.05094055  0.57835123  1
  O  O44  1  0.83741405  0.78681781  0.57967295  1
  O  O45  1  0.94292684  0.78667000  0.07108602  1
  O  O46  1  0.83189223  0.02951806  0.07017237  1
  O  O47  1  0.20782594  0.17709698  0.06952379  1
  O  O48  1  0.64036656  0.12053900  0.75345646  1
  O  O49  1  0.47863721  0.35601440  0.75096576  1
  O  O50  1  0.87752602  0.51975651  0.75101314  1
  O  O51  1  0.66962383  0.52248402  0.24632110  1
  O  O52  1  0.85384889  0.33044727  0.24841849  1
  O  O53  1  0.47839510  0.14639847  0.24840957  1
  O  O54  1  0.62629299  0.47915434  0.92477597  1
  O  O55  1  0.85216030  0.37263577  0.92290088  1
  O  O56  1  0.52230840  0.14795177  0.92243410  1
  O  O57  1  0.65471850  0.16334570  0.42816485  1
  O  O58  1  0.50822078  0.34374418  0.43034283  1
  O  O59  1  0.83548738  0.48940680  0.42963943  1
  O  O60  1  0.37704146  0.49347312  0.07409249  1
  O  O61  1  0.12410542  0.65351747  0.07698189  1
  O  O62  1  0.52510458  0.86539717  0.07509018  1
  O  O63  1  0.32907479  0.86742232  0.57709424  1
  O  O64  1  0.51893200  0.63556592  0.57620658  1
  O  O65  1  0.12790197  0.48425240  0.57487086  1
  O  O66  1  0.31599934  0.83576849  0.25457908  1
  O  O67  1  0.52135269  0.68404598  0.25336939  1
  O  O68  1  0.16376889  0.48179369  0.25510986  1
  O  O69  1  0.30889515  0.49063594  0.76814739  1
  O  O70  1  0.18263998  0.69192524  0.76689439  1
  O  O71  1  0.50722629  0.81504716  0.76861287  1
loop_
_geom_bond_atom_site_label_1
_geom_bond_atom_site_label_2
_geom_bond_distance
_geom_bond_site_symmetry_2
Na0 O53 2.527040 1_565
Na0 O67 2.579750 1_555
Na0 O31 2.591209 1_555
Na0 O66 2.631060 1_555
Na0 O52 2.756977 1_565
Na0 O16 2.991741 1_565
Na1 O51 2.503031 1_555
Na1 O67 2.616299 1_555
Na1 O68 2.625089 1_555
Na1 O53 2.749776 1_555
Na1 O32 2.798663 1_555
Na1 O17 2.974015 1_555
Na2 O52 2.520072 1_555
Na2 O66 2.618837 1_655
Na2 O68 2.639511 1_655
Na2 O51 2.716398 1_555
Na2 O30 2.819736 1_655
Na2 O15 2.927494 1_555
Na3 O43 2.386178 1_555
Na3 O64 2.525534 1_555
Na3 O65 2.598383 1_555
Na3 O42 2.631832 1_455
Na3 O7 2.753689 1_555
Na3 O28 2.813015 1_555
Na4 O63 2.400188 1_555
Na4 O44 2.426023 1_455
Na4 O65 2.542557 1_555
Na4 O8 2.740285 1_555
Na4 O29 2.830273 1_555
Na4 O43 2.898508 1_565
Na5 O45 2.369702 1_555
Na5 O60 2.405021 1_555
Na5 O62 2.417918 1_555
Na5 O24 2.494957 1_554
Na5 O46 2.648083 1_565
Na5 O9 2.931435 1_555
Na6 O37 2.546493 1_555
Na6 O42 2.564611 1_555
Na6 O44 2.629351 1_545
Na6 O43 2.642286 1_655
Na6 O36 2.654555 1_545
Na6 O38 2.657235 1_655
Na7 O47 2.411186 1_556
Na7 O46 2.489215 1_456
Na7 O45 2.593249 1_446
Na7 O39 2.884369 1_455
Na7 O40 2.893070 1_555
Na7 O41 2.999152 1_445
Na8 O48 2.663437 1_555
Na8 O49 2.683344 1_555
Na8 O56 2.684200 1_555
Na8 O50 2.686390 1_555
Na8 O55 2.689904 1_555
Na8 O54 2.721916 1_555
Na9 O57 2.619029 1_555
Na9 O59 2.638464 1_555
Na9 O58 2.663567 1_555
Na9 O53 2.784900 1_555
Na9 O52 2.799009 1_555
Na9 O51 2.828245 1_555
Na10 O66 2.680978 1_555
Na10 O61 2.717964 1_555
Na10 O68 2.720189 1_555
Na10 O67 2.805835 1_555
Na10 O62 2.835584 1_555
Na10 O60 2.909962 1_555
Na11 O71 2.607072 1_555
Na11 O70 2.722130 1_555
Na11 O69 2.774045 1_555
Na11 O63 2.957104 1_555
Na11 O64 2.999459 1_555
La0 O0 2.335487 1_565
La0 O2 2.349647 1_465
La0 O1 2.349701 1_455
La0 O37 2.366753 1_465
La0 O36 2.370275 1_455
La0 O38 2.370309 1_565
La1 O4 2.292219 1_555
La1 O5 2.292841 1_565
La1 O3 2.311710 1_665
La1 O40 2.369224 1_665
La1 O39 2.375378 1_565
La1 O41 2.390764 1_555
La2 O6 2.353226 1_545
La2 O7 2.468121 1_655
La2 O8 2.492473 1_645
La2 O42 2.515829 1_555
La2 O44 2.573043 1_545
La2 O43 2.644795 1_655
La3 O10 2.347370 1_555
La3 O11 2.352044 1_545
La3 O47 2.440962 1_555
La3 O9 2.455616 1_445
La3 O46 2.471157 1_455
La3 O45 2.527438 1_445
La4 O13 2.326767 1_555
La4 O14 2.326805 1_555
La4 O12 2.341120 1_555
La4 O48 2.359565 1_555
La4 O50 2.381416 1_555
La4 O49 2.396971 1_555
La5 O16 2.278215 1_555
La5 O15 2.279750 1_555
La5 O17 2.285714 1_555
La5 O53 2.425202 1_555
La5 O52 2.431436 1_555
La5 O51 2.464085 1_555
La6 O25 2.250400 1_554
La6 O26 2.252703 1_554
La6 O24 2.360269 1_554
La6 O61 2.365666 1_555
La6 O62 2.405903 1_555
La6 O60 2.419724 1_555
La7 O27 2.246286 1_555
La7 O29 2.335144 1_555
La7 O28 2.339628 1_555
La7 O64 2.379230 1_555
La7 O63 2.387266 1_555
La7 O65 2.420156 1_555
La8 O32 2.394594 1_555
La8 O30 2.403914 1_555
La8 O31 2.428565 1_555
La8 O68 2.456723 1_555
La8 O66 2.464173 1_555
La8 O67 2.491967 1_555
Nb0 O18 2.024067 1_556
Nb0 O56 2.037518 1_555
Nb0 O19 2.041322 1_556
Nb0 O55 2.046653 1_555
Nb0 O20 2.047168 1_556
Nb0 O54 2.054365 1_555
Nb1 O57 2.000135 1_555
Nb1 O22 2.004665 1_555
Nb1 O58 2.007326 1_555
Nb1 O23 2.010185 1_555
Nb1 O59 2.012179 1_555
Nb1 O21 2.019402 1_555
Nb2 O69 1.978160 1_555
Nb2 O71 1.983329 1_555
Nb2 O70 1.989922 1_555
Nb2 O33 2.080510 1_555
Nb2 O34 2.097819 1_555
Nb2 O35 2.110241 1_555
O0 P0 1.531145 1_545
O1 P1 1.536972 1_555
O2 P2 1.530283 1_655
O3 P3 1.510865 1_555
O4 P4 1.512584 1_655
O5 P5 1.506397 1_545
O6 P5 1.557153 1_555
O7 P3 1.563305 1_555
O8 P4 1.562700 1_555
O9 P1 1.555016 1_555
O10 P2 1.550437 1_555
O11 P0 1.548936 1_555
O12 P6 1.522790 1_555
O13 P7 1.518076 1_555
O14 P8 1.523693 1_555
O15 P9 1.543176 1_555
O16 P10 1.540294 1_555
O17 P11 1.544917 1_555
O18 P11 1.597065 1_555
O19 P9 1.600746 1_555
O20 P10 1.594904 1_555
O21 P7 1.603015 1_555
O22 P8 1.601278 1_555
O23 P6 1.596213 1_555
O24 P12 1.526894 1_555
O25 P13 1.515884 1_555
O26 P14 1.514259 1_555
O27 P15 1.526872 1_555
O28 P16 1.533552 1_555
O29 P17 1.531929 1_555
O30 P17 1.558403 1_555
O31 P15 1.555019 1_555
O32 P16 1.559605 1_555
O33 P13 1.592835 1_555
O34 P14 1.587372 1_555
O35 P12 1.594371 1_555
O36 P17 1.527976 1_655
O37 P15 1.523635 1_545
O38 P16 1.525165 1_555
O39 P13 1.509472 1_655
O40 P14 1.513131 1_545
O41 P12 1.513280 1_555
O42 P6 1.546490 1_555
O43 P7 1.557009 1_555
O44 P8 1.550377 1_555
O45 P9 1.551251 1_555
O46 P10 1.545960 1_555
O47 P11 1.533191 1_555
O48 P5 1.530787 1_545
O49 P3 1.532418 1_555
O50 P4 1.532339 1_655
O51 P1 1.560029 1_555
O52 P2 1.557390 1_655
O53 P0 1.556789 1_545
O54 P12 1.611881 1_555
O55 P13 1.604445 1_655
O56 P14 1.606756 1_545
O57 P15 1.573763 1_545
O58 P16 1.580896 1_555
O59 P17 1.580574 1_655
O60 P11 1.539370 1_555
O61 P9 1.526036 1_455
O62 P10 1.540631 1_565
O63 P7 1.546247 1_565
O64 P8 1.541547 1_555
O65 P6 1.555071 1_455
O66 P0 1.561615 1_555
O67 P1 1.564637 1_555
O68 P2 1.563383 1_555
O69 P3 1.610557 1_555
O70 P4 1.608300 1_555
O71 P5 1.599669 1_555
