# generated using pymatgen
data_Na10Mg2Si7Ge6S5O48
_symmetry_space_group_name_H-M   'P 1'
_cell_length_a   17.42236836
_cell_length_b   8.79510682
_cell_length_c   21.91308914
_cell_angle_alpha   90.21337510
_cell_angle_beta   89.32611845
_cell_angle_gamma   120.18757382
_symmetry_Int_Tables_number   1
_chemical_formula_structural   Na10Mg2Si7Ge6S5O48
_chemical_formula_sum   'Na30 Mg6 Si21 Ge18 S15 O144'
_cell_volume   2902.19867484
_cell_formula_units_Z   3
loop_
 _symmetry_equiv_pos_site_id
 _symmetry_equiv_pos_as_xyz
  1  'x, y, z'
loop_
 _atom_site_type_symbol
 _atom_site_label
 _atom_site_symmetry_multiplicity
 _atom_site_fract_x
 _atom_site_fract_y
 _atom_site_fract_z
 _atom_site_occupancy
  Na  Na0  1  0.81526076  0.00902516  0.24893541  1
  Na  Na1  1  0.18821590  0.37498922  0.24673982  1
  Na  Na2  1  0.68806270  0.36295588  0.25402764  1
  Na  Na3  1  0.99475669  0.61576297  0.25367651  1
  Na  Na4  1  0.49551566  0.62734792  0.24514984  1
  Na  Na5  1  0.31641401  0.62321344  0.74958899  1
  Na  Na6  1  0.99515063  0.36154161  0.74603891  1
  Na  Na7  1  0.49559085  0.37715704  0.75348710  1
  Na  Na8  1  0.18987773  0.01553556  0.74911760  1
  Na  Na9  1  0.68934687  0.00101658  0.74712409  1
  Na  Na10  1  0.15247545  0.33412181  0.57984054  1
  Na  Na11  1  0.01461188  0.69223917  0.58622569  1
  Na  Na12  1  0.48490326  0.66462461  0.91675477  1
  Na  Na13  1  0.99130062  0.67531223  0.92119859  1
  Na  Na14  1  0.84862479  0.03130504  0.91515734  1
  Na  Na15  1  0.49180163  0.30944733  0.42145931  1
  Na  Na16  1  0.16361399  0.02610409  0.41821870  1
  Na  Na17  1  0.34823985  0.66471726  0.41517153  1
  Na  Na18  1  0.98940754  0.99329071  0.49878590  1
  Na  Na19  1  0.51403504  0.01106085  0.49824548  1
  Na  Na20  1  0.01234699  0.01605013  0.99814775  1
  Na  Na21  1  0.50312038  0.01955148  0.00040960  1
  Na  Na22  1  0.32745761  0.31870976  0.83205434  1
  Na  Na23  1  0.82953673  0.33662302  0.83256992  1
  Na  Na24  1  0.33577584  0.33357996  0.33084817  1
  Na  Na25  1  0.83156295  0.33457047  0.33179131  1
  Na  Na26  1  0.17558279  0.67561394  0.16418686  1
  Na  Na27  1  0.66253826  0.66661174  0.16126777  1
  Na  Na28  1  0.17184047  0.67969156  0.66386626  1
  Na  Na29  1  0.67379182  0.67403543  0.66418004  1
  Mg  Mg0  1  0.33189695  0.32413793  0.69017163  1
  Mg  Mg1  1  0.83684696  0.33012668  0.68358449  1
  Mg  Mg2  1  0.33922320  0.34602006  0.18273420  1
  Mg  Mg3  1  0.83356620  0.33395098  0.18992563  1
  Mg  Mg4  1  0.16242398  0.67038616  0.01783762  1
  Mg  Mg5  1  0.66164646  0.65535734  0.51766024  1
  Si  Si0  1  0.64002865  0.99060175  0.25165084  1
  Si  Si1  1  0.35400888  0.71903686  0.25320258  1
  Si  Si2  1  0.85643902  0.72012987  0.25183707  1
  Si  Si3  1  0.00421196  0.29005169  0.25293004  1
  Si  Si4  1  0.14129039  0.29286242  0.75239983  1
  Si  Si5  1  0.50469851  0.71911936  0.75261179  1
  Si  Si6  1  0.35730961  0.99410951  0.75273559  1
  Si  Si7  1  0.85646538  0.98877552  0.75137921  1
  Si  Si8  1  0.97604037  0.33442712  0.58035156  1
  Si  Si9  1  0.18842347  0.03688294  0.58587414  1
  Si  Si10  1  0.48153924  0.62055170  0.08106569  1
  Si  Si11  1  0.80555053  0.66526995  0.91721729  1
  Si  Si12  1  0.02534356  0.38086244  0.92012851  1
  Si  Si13  1  0.52455785  0.37236004  0.91351117  1
  Si  Si14  1  0.16822169  0.96434282  0.91722930  1
  Si  Si15  1  0.66459835  0.96142074  0.91665040  1
  Si  Si16  1  0.30833301  0.94777640  0.41599688  1
  Si  Si17  1  0.16197535  0.37352028  0.41725996  1
  Si  Si18  1  0.66817423  0.37216904  0.41677312  1
  Si  Si19  1  0.01915970  0.66505206  0.41279389  1
  Si  Si20  1  0.52454884  0.66902953  0.42040866  1
  Ge  Ge0  1  0.99510294  0.99664357  0.35539052  1
  Ge  Ge1  1  0.50367873  0.98830963  0.35810169  1
  Ge  Ge2  1  0.00270170  0.01788093  0.85812766  1
  Ge  Ge3  1  0.50002342  0.00350257  0.85493182  1
  Ge  Ge4  1  0.00106219  0.03244596  0.64462657  1
  Ge  Ge5  1  0.49864996  0.98615062  0.65106739  1
  Ge  Ge6  1  0.99648810  0.01450483  0.15001025  1
  Ge  Ge7  1  0.49231026  0.94996059  0.14638288  1
  Ge  Ge8  1  0.33994300  0.31817152  0.97949219  1
  Ge  Ge9  1  0.82995681  0.33920884  0.97497961  1
  Ge  Ge10  1  0.32723209  0.32104997  0.47588877  1
  Ge  Ge11  1  0.83782277  0.34560929  0.47581220  1
  Ge  Ge12  1  0.65551309  0.65896128  0.00928127  1
  Ge  Ge13  1  0.15956128  0.66920583  0.51283643  1
  Ge  Ge14  1  0.16889144  0.65891663  0.31731347  1
  Ge  Ge15  1  0.66634255  0.66140636  0.31703483  1
  Ge  Ge16  1  0.16678590  0.67263966  0.81743959  1
  Ge  Ge17  1  0.67176745  0.68573569  0.81731590  1
  S  S0  1  0.14432879  0.99884991  0.24786373  1
  S  S1  1  0.49800275  0.27937716  0.24961319  1
  S  S2  1  0.64389530  0.28867728  0.74835378  1
  S  S3  1  0.99724076  0.71210171  0.75032202  1
  S  S4  1  0.48007277  0.32427855  0.58619986  1
  S  S5  1  0.68375697  0.04261296  0.58525534  1
  S  S6  1  0.33961973  0.63299223  0.58340474  1
  S  S7  1  0.83097903  0.62309412  0.58415853  1
  S  S8  1  0.97889751  0.63409642  0.08607519  1
  S  S9  1  0.33731012  0.04197263  0.08559345  1
  S  S10  1  0.83611143  0.04380231  0.08334578  1
  S  S11  1  0.18436008  0.32428572  0.08559649  1
  S  S12  1  0.68778825  0.33339214  0.08409807  1
  S  S13  1  0.31109044  0.66594853  0.91707402  1
  S  S14  1  0.81129459  0.95825727  0.41769118  1
  O  O0  1  0.10846074  0.03346075  0.30546274  1
  O  O1  1  0.59620513  0.03898861  0.30833457  1
  O  O2  1  0.41862142  0.80923909  0.31127957  1
  O  O3  1  0.92286496  0.80790711  0.30963251  1
  O  O4  1  0.48766579  0.18585072  0.30752739  1
  O  O5  1  0.98634475  0.15842842  0.31032368  1
  O  O6  1  0.09367322  0.15128159  0.80673468  1
  O  O7  1  0.60686970  0.17609530  0.80389017  1
  O  O8  1  0.48740405  0.80961427  0.81292901  1
  O  O9  1  0.98750206  0.79083408  0.80707967  1
  O  O10  1  0.42388055  0.03370710  0.80967845  1
  O  O11  1  0.91747591  0.02605649  0.81159361  1
  O  O12  1  0.39994191  0.94602700  0.69177313  1
  O  O13  1  0.90265690  0.96209080  0.68903239  1
  O  O14  1  0.08246567  0.22012027  0.68829867  1
  O  O15  1  0.58516243  0.20582703  0.69388013  1
  O  O16  1  0.01167746  0.81934795  0.69479102  1
  O  O17  1  0.53203206  0.85472787  0.69329631  1
  O  O18  1  0.39450834  0.83196224  0.18941399  1
  O  O19  1  0.89967612  0.85616237  0.19194429  1
  O  O20  1  0.03154965  0.21275237  0.19203371  1
  O  O21  1  0.51374487  0.19619407  0.19600290  1
  O  O22  1  0.08409684  0.96648556  0.19483277  1
  O  O23  1  0.57602452  0.94223358  0.19042589  1
  O  O24  1  0.43557548  0.34039146  0.64076383  1
  O  O25  1  0.94509907  0.38258362  0.64250642  1
  O  O26  1  0.23994701  0.11716352  0.64708208  1
  O  O27  1  0.73183532  0.12785817  0.64149885  1
  O  O28  1  0.33045863  0.52825595  0.63759269  1
  O  O29  1  0.81915543  0.51679028  0.63820716  1
  O  O30  1  0.44618899  0.52704225  0.14517379  1
  O  O31  1  0.93294006  0.52910571  0.13986495  1
  O  O32  1  0.32348554  0.12652607  0.13804320  1
  O  O33  1  0.82894581  0.12928700  0.13829074  1
  O  O34  1  0.23182073  0.33531034  0.14198267  1
  O  O35  1  0.73717771  0.34997917  0.13932804  1
  O  O36  1  0.22746175  0.29968684  0.03051829  1
  O  O37  1  0.73109632  0.30028059  0.02818503  1
  O  O38  1  0.41487514  0.51878212  0.02175793  1
  O  O39  1  0.92671975  0.55306831  0.02818563  1
  O  O40  1  0.35062508  0.14714188  0.02720664  1
  O  O41  1  0.84747534  0.14805815  0.02634450  1
  O  O42  1  0.23176413  0.17472764  0.52548660  1
  O  O43  1  0.72477327  0.15092003  0.52985469  1
  O  O44  1  0.35016164  0.55261068  0.52586254  1
  O  O45  1  0.84746110  0.54249851  0.52761326  1
  O  O46  1  0.42751858  0.29984206  0.52889016  1
  O  O47  1  0.90899526  0.30365344  0.52340472  1
  O  O48  1  0.26888802  0.68665818  0.97117996  1
  O  O49  1  0.76225294  0.71531362  0.97569132  1
  O  O50  1  0.08251581  0.45926082  0.97801703  1
  O  O51  1  0.58451654  0.45578478  0.97358985  1
  O  O52  1  0.14435893  0.83782469  0.97376347  1
  O  O53  1  0.63787840  0.82098728  0.97176592  1
  O  O54  1  0.26493959  0.81373194  0.47392366  1
  O  O55  1  0.76970205  0.85381130  0.47145880  1
  O  O56  1  0.14934867  0.46526406  0.47773218  1
  O  O57  1  0.64469452  0.45289579  0.47317565  1
  O  O58  1  0.08267721  0.71328922  0.47263194  1
  O  O59  1  0.58162121  0.70612601  0.47830331  1
  O  O60  1  0.06522611  0.63434860  0.35218130  1
  O  O61  1  0.56383207  0.61690718  0.35815902  1
  O  O62  1  0.24025538  0.86616455  0.35876256  1
  O  O63  1  0.76092501  0.87833996  0.35973517  1
  O  O64  1  0.18869962  0.50152242  0.35766903  1
  O  O65  1  0.68750048  0.49600501  0.35316570  1
  O  O66  1  0.06442555  0.51120360  0.85830751  1
  O  O67  1  0.56594384  0.50752164  0.85453440  1
  O  O68  1  0.18754732  0.88024620  0.85331354  1
  O  O69  1  0.69227179  0.88882876  0.85594445  1
  O  O70  1  0.26019809  0.64424704  0.85937563  1
  O  O71  1  0.74239767  0.62429705  0.85829616  1
  O  O72  1  0.01204719  0.84539331  0.40785783  1
  O  O73  1  0.50363048  0.82876890  0.41093876  1
  O  O74  1  0.40815669  0.97966724  0.40834486  1
  O  O75  1  0.90202784  0.97702125  0.41268630  1
  O  O76  1  0.07807654  0.17344942  0.40992740  1
  O  O77  1  0.57676983  0.17783992  0.40710771  1
  O  O78  1  0.00410789  0.17891289  0.91099780  1
  O  O79  1  0.51238441  0.17738701  0.90750985  1
  O  O80  1  0.07705827  0.97695398  0.90682334  1
  O  O81  1  0.57560450  0.97515887  0.90916848  1
  O  O82  1  0.40235068  0.82643872  0.91266650  1
  O  O83  1  0.90626632  0.83594730  0.90987556  1
  O  O84  1  0.48722310  0.15843754  0.58937146  1
  O  O85  1  0.98691654  0.15806851  0.58376142  1
  O  O86  1  0.08466660  0.01339198  0.59116040  1
  O  O87  1  0.59153409  0.02907534  0.58812351  1
  O  O88  1  0.42189632  0.81300146  0.58585620  1
  O  O89  1  0.91587099  0.79785993  0.58705174  1
  O  O90  1  0.48839765  0.81947242  0.08188572  1
  O  O91  1  0.98632924  0.81376695  0.08879185  1
  O  O92  1  0.42216867  0.03645027  0.08889987  1
  O  O93  1  0.92134044  0.03284762  0.08509569  1
  O  O94  1  0.09226304  0.15354017  0.08746145  1
  O  O95  1  0.59679472  0.17643694  0.08655133  1
  O  O96  1  0.34659295  0.16340304  0.74884529  1
  O  O97  1  0.84328101  0.15975319  0.74655798  1
  O  O98  1  0.23917349  0.32253230  0.74669812  1
  O  O99  1  0.73211316  0.30960035  0.74052332  1
  O  O100  1  0.41893237  0.52921730  0.74511406  1
  O  O101  1  0.91985197  0.53333612  0.74625935  1
  O  O102  1  0.34174905  0.52299584  0.24860288  1
  O  O103  1  0.84359593  0.52779073  0.24500365  1
  O  O104  1  0.42067811  0.30426632  0.24450760  1
  O  O105  1  0.91814000  0.30821650  0.24600784  1
  O  O106  1  0.23237824  0.15467355  0.24000678  1
  O  O107  1  0.73716877  0.15787518  0.24393001  1
  O  O108  1  0.32340415  0.51084601  0.91872692  1
  O  O109  1  0.82073679  0.49639569  0.92673977  1
  O  O110  1  0.42655285  0.35950403  0.92199593  1
  O  O111  1  0.92289751  0.36217537  0.92578664  1
  O  O112  1  0.25625097  0.16571507  0.92656285  1
  O  O113  1  0.75399561  0.15209500  0.92745405  1
  O  O114  1  0.31889599  0.14429353  0.42529851  1
  O  O115  1  0.82149009  0.13604809  0.41986492  1
  O  O116  1  0.25220467  0.35405384  0.42325497  1
  O  O117  1  0.75440807  0.34135921  0.42516073  1
  O  O118  1  0.42188356  0.48270575  0.42634307  1
  O  O119  1  0.92318445  0.48821233  0.42133924  1
  O  O120  1  0.17333058  0.47844039  0.08168323  1
  O  O121  1  0.68371777  0.49592219  0.07595800  1
  O  O122  1  0.06769519  0.65438102  0.08280237  1
  O  O123  1  0.58231088  0.64337875  0.07201641  1
  O  O124  1  0.26145972  0.86263066  0.07858677  1
  O  O125  1  0.75816143  0.86583415  0.07918323  1
  O  O126  1  0.17469287  0.84060354  0.57279428  1
  O  O127  1  0.67341876  0.86728056  0.58165866  1
  O  O128  1  0.25860317  0.64786205  0.58042841  1
  O  O129  1  0.75576956  0.65130507  0.57726233  1
  O  O130  1  0.07833820  0.50879629  0.57118006  1
  O  O131  1  0.56893284  0.47977473  0.58249188  1
  O  O132  1  0.14836538  0.83544389  0.25136917  1
  O  O133  1  0.64671379  0.80992013  0.26054359  1
  O  O134  1  0.25649062  0.70489231  0.25861197  1
  O  O135  1  0.75729339  0.70456763  0.25784286  1
  O  O136  1  0.09323524  0.48762423  0.25794076  1
  O  O137  1  0.58118642  0.46230673  0.25165006  1
  O  O138  1  0.14719235  0.48650715  0.76103174  1
  O  O139  1  0.64728778  0.45887588  0.75359533  1
  O  O140  1  0.08082389  0.69771288  0.75240241  1
  O  O141  1  0.59423004  0.69949781  0.75762875  1
  O  O142  1  0.25789280  0.81215699  0.75782611  1
  O  O143  1  0.75819030  0.80878264  0.75630139  1
loop_
_geom_bond_atom_site_label_1
_geom_bond_atom_site_label_2
_geom_bond_distance
_geom_bond_site_symmetry_2
Na0 O107 2.317937 1_555
Na0 O105 2.323028 1_555
Na0 O135 2.346900 1_545
Na0 O133 2.562923 1_545
Na0 O33 2.608835 1_555
Na0 O63 2.642868 1_545
Na0 O19 2.731841 1_545
Na0 O5 2.926262 1_555
Na1 O102 2.313385 1_555
Na1 O136 2.327476 1_555
Na1 O106 2.421359 1_555
Na1 O34 2.487595 1_555
Na1 O134 2.536181 1_555
Na1 O20 2.659081 1_555
Na1 O64 2.668006 1_555
Na1 O0 2.898031 1_555
Na2 O103 2.349993 1_555
Na2 O107 2.361936 1_555
Na2 O137 2.423287 1_555
Na2 O65 2.465953 1_555
Na2 O135 2.616286 1_555
Na2 O35 2.666089 1_555
Na2 O1 2.736910 1_555
Na2 O21 2.930661 1_555
Na3 O105 2.344646 1_555
Na3 O103 2.352015 1_555
Na3 O132 2.386481 1_655
Na3 O60 2.459933 1_655
Na3 O136 2.484291 1_655
Na3 O31 2.680333 1_555
Na3 O3 2.829359 1_555
Na3 O22 2.958777 1_655
Na4 O133 2.322579 1_555
Na4 O102 2.355435 1_555
Na4 O30 2.363007 1_555
Na4 O104 2.459424 1_555
Na4 O137 2.557441 1_555
Na4 O23 2.674677 1_555
Na4 O61 2.781814 1_555
Na4 O2 2.923393 1_555
Na5 O98 2.286982 1_555
Na5 O100 2.315921 1_555
Na5 O142 2.351803 1_555
Na5 O138 2.573054 1_555
Na5 O70 2.627670 1_555
Na5 O28 2.637520 1_555
Na5 O12 2.759002 1_555
Na5 O8 2.942388 1_555
Na6 O138 2.328655 1_655
Na6 O97 2.329760 1_555
Na6 O101 2.448927 1_555
Na6 O25 2.480665 1_555
Na6 O140 2.559856 1_655
Na6 O14 2.703330 1_655
Na6 O66 2.773032 1_655
Na6 O11 2.927681 1_555
Na7 O96 2.319540 1_555
Na7 O100 2.325921 1_555
Na7 O139 2.364622 1_555
Na7 O141 2.470022 1_555
Na7 O67 2.520227 1_555
Na7 O24 2.648417 1_555
Na7 O10 2.897893 1_555
Na7 O15 2.951999 1_555
Na8 O96 2.361120 1_555
Na8 O98 2.387198 1_555
Na8 O26 2.396679 1_555
Na8 O140 2.466967 1_545
Na8 O68 2.569085 1_545
Na8 O142 2.603780 1_545
Na8 O6 2.789313 1_555
Na8 O16 2.952577 1_545
Na9 O97 2.318569 1_555
Na9 O141 2.325459 1_545
Na9 O99 2.430795 1_555
Na9 O27 2.509621 1_555
Na9 O143 2.526883 1_545
Na9 O69 2.594880 1_545
Na9 O17 2.660273 1_545
Na9 O7 2.855195 1_555
Na10 O128 2.429493 1_555
Na10 O86 2.461978 1_555
Na10 O130 2.463338 1_555
Na10 O85 2.495689 1_455
Na10 O56 2.534768 1_555
Na10 O14 2.619391 1_555
Na10 O42 2.681152 1_555
Na11 O89 2.330013 1_455
Na11 O130 2.394435 1_555
Na11 O126 2.427229 1_555
Na11 O86 2.452229 1_565
Na11 O16 2.635688 1_555
Na11 O25 2.660411 1_455
Na11 O58 2.711054 1_555
Na11 O45 2.843088 1_455
Na12 O110 2.346099 1_555
Na12 O81 2.375074 1_555
Na12 O108 2.432798 1_555
Na12 O82 2.482843 1_555
Na12 O8 2.601482 1_555
Na12 O38 2.609658 1_556
Na12 O53 2.612441 1_555
Na12 O67 2.768451 1_555
Na13 O80 2.319206 1_655
Na13 O111 2.390351 1_555
Na13 O83 2.523608 1_555
Na13 O109 2.571345 1_555
Na13 O39 2.580381 1_556
Na13 O52 2.589905 1_655
Na13 O9 2.716730 1_555
Na13 O66 2.720070 1_655
Na14 O78 2.343109 1_655
Na14 O113 2.380783 1_555
Na14 O83 2.388548 1_545
Na14 O111 2.532220 1_555
Na14 O11 2.565561 1_555
Na14 O41 2.644247 1_556
Na14 O69 2.704155 1_545
Na14 O49 2.742723 1_545
Na15 O77 2.310777 1_555
Na15 O118 2.383239 1_555
Na15 O74 2.524242 1_545
Na15 O46 2.578323 1_555
Na15 O57 2.579194 1_555
Na15 O114 2.605024 1_555
Na15 O4 2.706496 1_555
Na15 O61 2.717637 1_555
Na16 O72 2.311137 1_545
Na16 O114 2.367322 1_555
Na16 O76 2.425619 1_555
Na16 O116 2.497694 1_555
Na16 O58 2.657596 1_545
Na16 O42 2.669373 1_555
Na16 O0 2.674339 1_555
Na16 O62 2.700660 1_545
Na17 O73 2.342332 1_555
Na17 O116 2.386531 1_555
Na17 O74 2.424154 1_555
Na17 O118 2.518848 1_555
Na17 O2 2.586614 1_555
Na17 O44 2.628625 1_555
Na17 O54 2.708824 1_555
Na17 O64 2.725919 1_555
Na18 O85 2.368703 1_565
Na18 O75 2.396708 1_555
Na18 O89 2.467533 1_555
Na18 O76 2.485795 1_665
Na18 O72 2.509162 1_655
Na18 O86 2.581543 1_665
Na19 O87 2.360557 1_555
Na19 O77 2.385968 1_555
Na19 O73 2.440609 1_545
Na19 O88 2.537180 1_545
Na19 O84 2.540362 1_555
Na19 O74 2.632317 1_545
Na20 O94 2.363155 1_556
Na20 O80 2.392863 1_545
Na20 O78 2.439879 1_555
Na20 O93 2.515625 1_456
Na20 O91 2.551501 1_446
Na20 O83 2.604534 1_445
Na21 O79 2.425953 1_554
Na21 O90 2.430786 1_545
Na21 O92 2.432212 1_555
Na21 O95 2.432896 1_555
Na21 O81 2.485029 1_544
Na21 O82 2.592334 1_544
Na22 O96 2.393055 1_555
Na22 O112 2.433139 1_555
Na22 O98 2.446538 1_555
Na22 O110 2.538839 1_555
Na22 O108 2.561400 1_555
Na22 O100 2.566073 1_555
Na23 O101 2.502588 1_555
Na23 O97 2.524237 1_555
Na23 O109 2.538506 1_555
Na23 O113 2.549877 1_555
Na23 O111 2.564337 1_555
Na23 O99 2.584017 1_555
Na24 O102 2.424430 1_555
Na24 O104 2.479552 1_555
Na24 O118 2.534638 1_555
Na24 O116 2.538559 1_555
Na24 O114 2.580825 1_555
Na24 O106 2.625646 1_555
Na25 O117 2.451892 1_555
Na25 O119 2.471691 1_555
Na25 O105 2.478742 1_555
Na25 O103 2.491001 1_555
Na25 O107 2.511670 1_555
Na25 O115 2.552087 1_555
Na26 O124 2.438149 1_555
Na26 O134 2.456474 1_555
Na26 O120 2.487424 1_555
Na26 O122 2.543976 1_555
Na26 O132 2.545528 1_555
Na26 O136 2.565770 1_555
Na27 O123 2.365292 1_555
Na27 O125 2.469494 1_555
Na27 O121 2.530707 1_555
Na27 O137 2.561152 1_555
Na27 O133 2.590776 1_555
Na27 O135 2.614961 1_555
Na28 O126 2.436398 1_555
Na28 O128 2.462327 1_555
Na28 O142 2.478404 1_555
Na28 O140 2.545926 1_555
Na28 O130 2.575019 1_555
Na28 O138 2.622293 1_555
Na29 O129 2.434710 1_555
Na29 O143 2.437448 1_555
Na29 O127 2.488562 1_555
Na29 O131 2.525081 1_555
Na29 O141 2.531176 1_555
Na29 O139 2.600172 1_555
Mg0 O26 1.965121 1_555
Mg0 O98 2.018500 1_555
Mg0 O96 2.025442 1_555
Mg0 O24 2.037378 1_555
Mg0 O100 2.068431 1_555
Mg0 O28 2.147633 1_555
Mg1 O25 1.915266 1_555
Mg1 O27 2.028993 1_555
Mg1 O29 2.075398 1_555
Mg1 O97 2.085698 1_555
Mg1 O99 2.129735 1_555
Mg1 O101 2.144992 1_555
Mg2 O30 1.917046 1_555
Mg2 O34 2.041848 1_555
Mg2 O32 2.054481 1_555
Mg2 O102 2.103315 1_555
Mg2 O104 2.134047 1_555
Mg2 O106 2.163960 1_555
Mg3 O107 1.992630 1_555
Mg3 O103 2.020826 1_555
Mg3 O105 2.027979 1_555
Mg3 O31 2.031693 1_555
Mg3 O35 2.086225 1_555
Mg3 O33 2.090007 1_555
Mg4 O50 1.887941 1_554
Mg4 O52 1.919469 1_554
Mg4 O48 2.048371 1_554
Mg4 O122 2.117262 1_555
Mg4 O124 2.170581 1_555
Mg4 O120 2.278129 1_555
Mg5 O59 1.882622 1_555
Mg5 O57 1.916559 1_555
Mg5 O55 2.068676 1_555
Mg5 O131 2.113290 1_555
Mg5 O129 2.122658 1_555
Mg5 O127 2.255155 1_555
Ge0 O5 1.804326 1_565
Ge0 O3 1.805860 1_555
Ge0 O72 1.895497 1_655
Ge0 O76 1.924103 1_665
Ge0 O75 1.976858 1_555
Ge0 O0 2.123910 1_665
Ge1 O1 1.796186 1_565
Ge1 O73 1.822184 1_555
Ge1 O2 1.845477 1_555
Ge1 O77 1.854072 1_565
Ge1 O74 1.953939 1_555
Ge1 O4 2.198552 1_565
Ge2 O6 1.804061 1_555
Ge2 O78 1.817216 1_555
Ge2 O11 1.842074 1_455
Ge2 O80 1.857628 1_545
Ge2 O83 1.983470 1_445
Ge2 O9 2.183478 1_445
Ge3 O10 1.789155 1_555
Ge3 O79 1.836892 1_555
Ge3 O8 1.849179 1_545
Ge3 O81 1.891498 1_545
Ge3 O7 2.035291 1_555
Ge3 O82 2.054385 1_545
Ge4 O13 1.779737 1_445
Ge4 O14 1.821455 1_555
Ge4 O85 1.831087 1_455
Ge4 O86 1.930355 1_555
Ge4 O89 2.235296 1_445
Ge4 O16 2.263623 1_545
Ge5 O17 1.796467 1_555
Ge5 O12 1.798218 1_555
Ge5 O15 1.993994 1_565
Ge5 O87 2.000182 1_565
Ge5 O88 2.032256 1_555
Ge5 O84 2.118595 1_565
Ge6 O20 1.786463 1_655
Ge6 O19 1.799882 1_545
Ge6 O93 2.005377 1_555
Ge6 O94 2.016173 1_655
Ge6 O22 2.039478 1_645
Ge6 O91 2.149798 1_545
Ge7 O18 1.749491 1_555
Ge7 O23 1.787897 1_555
Ge7 O90 1.797437 1_555
Ge7 O92 2.153339 1_565
Ge7 O21 2.278260 1_565
Ge7 O95 2.305887 1_565
Ge8 O112 1.825171 1_555
Ge8 O38 1.837120 1_556
Ge8 O110 1.844863 1_555
Ge8 O40 1.920513 1_556
Ge8 O36 2.178637 1_556
Ge8 O108 2.290109 1_555
Ge9 O109 1.814574 1_555
Ge9 O113 1.836761 1_555
Ge9 O111 1.859144 1_555
Ge9 O37 1.950854 1_556
Ge9 O39 2.140154 1_556
Ge9 O41 2.173627 1_556
Ge10 O42 1.849093 1_555
Ge10 O114 1.852217 1_555
Ge10 O118 1.879119 1_555
Ge10 O116 1.882209 1_555
Ge10 O44 2.163795 1_555
Ge10 O46 2.193992 1_555
Ge11 O47 1.804115 1_555
Ge11 O119 1.817478 1_555
Ge11 O117 1.824383 1_555
Ge11 O45 2.003188 1_555
Ge11 O115 2.108316 1_555
Ge11 O43 2.186847 1_555
Ge12 O51 1.767595 1_554
Ge12 O53 1.804413 1_554
Ge12 O49 1.813662 1_554
Ge12 O123 1.821965 1_555
Ge12 O121 2.274550 1_555
Ge12 O125 2.372008 1_555
Ge13 O58 1.809242 1_555
Ge13 O54 1.826977 1_555
Ge13 O56 1.874220 1_555
Ge13 O130 1.894880 1_555
Ge13 O126 1.913611 1_555
Ge13 O128 2.365267 1_555
Ge14 O64 1.820474 1_555
Ge14 O62 1.851597 1_555
Ge14 O60 1.862461 1_555
Ge14 O134 1.866673 1_555
Ge14 O136 1.930927 1_555
Ge14 O132 2.283366 1_555
Ge15 O61 1.848456 1_555
Ge15 O65 1.853017 1_555
Ge15 O135 1.920365 1_555
Ge15 O133 1.956197 1_555
Ge15 O63 2.022960 1_555
Ge15 O137 2.176920 1_555
Ge16 O68 1.847861 1_555
Ge16 O66 1.850350 1_555
Ge16 O142 1.932895 1_555
Ge16 O138 1.938351 1_555
Ge16 O70 2.000262 1_555
Ge16 O140 2.169655 1_555
Ge17 O71 1.819603 1_555
Ge17 O69 1.840887 1_555
Ge17 O143 1.884308 1_555
Ge17 O67 1.894494 1_555
Ge17 O141 1.938401 1_555
Ge17 O139 2.291312 1_555
O0 S0 1.498712 1_545
O1 Si0 1.614753 1_545
O2 Si1 1.626124 1_555
O3 Si2 1.633397 1_555
O4 S1 1.474125 1_555
O5 Si3 1.630339 1_655
O6 Si4 1.614114 1_555
O7 S2 1.491892 1_555
O8 Si5 1.641714 1_555
O9 S3 1.470355 1_555
O10 Si6 1.627286 1_545
O11 Si7 1.630237 1_545
O12 Si6 1.674343 1_555
O13 Si7 1.652561 1_555
O14 Si4 1.673466 1_555
O15 S2 1.508419 1_555
O16 S3 1.482048 1_455
O17 Si5 1.662687 1_555
O18 Si1 1.649403 1_555
O19 Si2 1.674347 1_555
O20 Si3 1.665437 1_555
O21 S1 1.475925 1_555
O22 S0 1.502819 1_555
O23 Si0 1.666815 1_555
O24 S4 1.462234 1_555
O25 Si8 1.591568 1_555
O26 Si9 1.577075 1_555
O27 S5 1.472604 1_555
O28 S6 1.462817 1_555
O29 S7 1.458812 1_555
O30 Si10 1.583681 1_555
O31 S8 1.457899 1_555
O32 S9 1.448883 1_555
O33 S10 1.454175 1_555
O34 S11 1.470487 1_555
O35 S12 1.457181 1_555
O36 S11 1.485772 1_555
O37 S12 1.533584 1_555
O38 Si10 1.679431 1_555
O39 S8 1.520636 1_555
O40 S9 1.527217 1_555
O41 S10 1.503433 1_555
O42 Si9 1.690816 1_555
O43 S5 1.481717 1_555
O44 S6 1.497318 1_555
O45 S7 1.519881 1_555
O46 S4 1.512878 1_555
O47 Si8 1.645817 1_555
O48 S13 1.446401 1_555
O49 Si11 1.646685 1_555
O50 Si12 1.552173 1_555
O51 Si13 1.617756 1_555
O52 Si14 1.574379 1_555
O53 Si15 1.618815 1_555
O54 Si16 1.632464 1_555
O55 S14 1.440725 1_555
O56 Si17 1.618377 1_555
O57 Si18 1.572476 1_555
O58 Si19 1.637618 1_555
O59 Si20 1.550794 1_555
O60 Si19 1.634447 1_555
O61 Si20 1.681722 1_555
O62 Si16 1.633117 1_555
O63 S14 1.508738 1_555
O64 Si17 1.630605 1_555
O65 Si18 1.695247 1_555
O66 Si12 1.678644 1_555
O67 Si13 1.652506 1_555
O68 Si14 1.689297 1_555
O69 Si15 1.642502 1_555
O70 S13 1.508498 1_555
O71 Si11 1.624414 1_555
O72 Si19 1.655925 1_555
O73 Si20 1.633576 1_555
O74 Si16 1.623084 1_555
O75 S14 1.507267 1_555
O76 Si17 1.635704 1_555
O77 Si18 1.664353 1_555
O78 Si12 1.633989 1_555
O79 Si13 1.623597 1_555
O80 Si14 1.665176 1_555
O81 Si15 1.624811 1_555
O82 S13 1.506700 1_555
O83 Si11 1.644524 1_555
O84 S4 1.526933 1_555
O85 Si8 1.656549 1_555
O86 Si9 1.715665 1_555
O87 S5 1.550817 1_555
O88 S6 1.510985 1_555
O89 S7 1.506442 1_555
O90 Si10 1.692641 1_555
O91 S8 1.520239 1_555
O92 S9 1.506036 1_555
O93 S10 1.536522 1_555
O94 S11 1.551483 1_555
O95 S12 1.489785 1_555
O96 Si6 1.593741 1_545
O97 Si7 1.635350 1_545
O98 Si4 1.593625 1_555
O99 S2 1.461219 1_555
O100 Si5 1.594759 1_555
O101 S3 1.472323 1_555
O102 Si1 1.630183 1_555
O103 Si2 1.597619 1_555
O104 S1 1.475000 1_555
O105 Si3 1.594907 1_655
O106 S0 1.463691 1_545
O107 Si0 1.596381 1_545
O108 S13 1.484280 1_555
O109 Si11 1.648748 1_555
O110 Si13 1.661737 1_555
O111 Si12 1.711146 1_655
O112 Si14 1.674447 1_545
O113 Si15 1.634990 1_545
O114 Si16 1.655633 1_545
O115 S14 1.482990 1_545
O116 Si17 1.671369 1_555
O117 Si18 1.667542 1_555
O118 Si20 1.717576 1_555
O119 Si19 1.621561 1_655
O120 S11 1.464839 1_555
O121 S12 1.477963 1_555
O122 S8 1.466391 1_455
O123 Si10 1.673222 1_555
O124 S9 1.471265 1_565
O125 S10 1.471996 1_565
O126 Si9 1.643809 1_565
O127 S5 1.461755 1_565
O128 S6 1.483767 1_555
O129 S7 1.460565 1_555
O130 Si8 1.677468 1_455
O131 S4 1.463672 1_555
O132 S0 1.476112 1_555
O133 Si0 1.663069 1_555
O134 Si1 1.642845 1_555
O135 Si2 1.666379 1_555
O136 Si3 1.652072 1_555
O137 S1 1.531972 1_555
O138 Si4 1.664010 1_555
O139 S2 1.472190 1_555
O140 S3 1.524990 1_455
O141 Si5 1.658280 1_555
O142 Si6 1.668149 1_555
O143 Si7 1.649353 1_555
