# generated using pymatgen
data_MgNb4O10
_symmetry_space_group_name_H-M   'P 1'
_cell_length_a   8.30773142
_cell_length_b   3.93243200
_cell_length_c   6.61144076
_cell_angle_alpha   90.00000000
_cell_angle_beta   87.61814272
_cell_angle_gamma   90.00000000
_symmetry_Int_Tables_number   1
_chemical_formula_structural   MgNb4O10
_chemical_formula_sum   'Mg1 Nb4 O10'
_cell_volume   215.80644219
_cell_formula_units_Z   1
loop_
 _symmetry_equiv_pos_site_id
 _symmetry_equiv_pos_as_xyz
  1  'x, y, z'
loop_
 _atom_site_type_symbol
 _atom_site_label
 _atom_site_symmetry_multiplicity
 _atom_site_fract_x
 _atom_site_fract_y
 _atom_site_fract_z
 _atom_site_occupancy
  Mg  Mg0  1  0.41831300  0.25000000  0.66407700  1
  Nb  Nb0  1  0.06858100  0.25000000  0.81725100  1
  Nb  Nb1  1  0.26114900  0.25000000  0.25713200  1
  Nb  Nb2  1  0.74139400  0.75000000  0.73764600  1
  Nb  Nb3  1  0.92445100  0.75000000  0.19236700  1
  O  O0  1  0.01627600  0.75000000  0.82908700  1
  O  O1  1  0.17801000  0.25000000  0.55371700  1
  O  O2  1  0.18856400  0.75000000  0.23259900  1
  O  O3  1  0.28140700  0.25000000  0.93480800  1
  O  O4  1  0.46041600  0.25000000  0.35403200  1
  O  O5  1  0.52024300  0.75000000  0.69809800  1
  O  O6  1  0.73747400  0.75000000  0.04342500  1
  O  O7  1  0.80953900  0.25000000  0.75159900  1
  O  O8  1  0.83792300  0.75000000  0.45401100  1
  O  O9  1  0.98959100  0.25000000  0.15607600  1
loop_
_geom_bond_atom_site_label_1
_geom_bond_atom_site_label_2
_geom_bond_distance
_geom_bond_site_symmetry_2
Mg0 O4 2.065094 1_555
Mg0 O3 2.080441 1_555
Mg0 O1 2.153822 1_555
Mg0 O5 2.156273 1_545
Mg0 O5 2.156273 1_555
Nb0 O1 1.931467 1_555
Nb0 O3 1.960734 1_555
Nb0 O0 2.014479 1_545
Nb0 O0 2.014479 1_555
Nb0 O7 2.213000 1_455
Nb0 O9 2.307941 1_456
Nb1 O4 1.799756 1_555
Nb1 O1 2.051692 1_555
Nb1 O2 2.064963 1_545
Nb1 O2 2.064963 1_555
Nb1 O3 2.130677 1_554
Nb1 O9 2.379360 1_455
Nb2 O5 1.866502 1_555
Nb2 O8 2.008636 1_555
Nb2 O6 2.020548 1_556
Nb2 O7 2.049234 1_565
Nb2 O7 2.049234 1_555
Nb2 O0 2.386479 1_655
Nb3 O8 1.845467 1_555
Nb3 O6 1.873426 1_555
Nb3 O9 2.050766 1_565
Nb3 O9 2.050766 1_555
Nb3 O2 2.221191 1_655
Nb3 O0 2.489643 1_654
