# generated using pymatgen
data_MgTi3Zn2O8
_symmetry_space_group_name_H-M   'P 1'
_cell_length_a   6.48328068
_cell_length_b   5.89090579
_cell_length_c   5.89090548
_cell_angle_alpha   59.99999748
_cell_angle_beta   62.97911846
_cell_angle_gamma   62.97911691
_symmetry_Int_Tables_number   1
_chemical_formula_structural   MgTi3Zn2O8
_chemical_formula_sum   'Mg1 Ti3 Zn2 O8'
_cell_volume   165.88142134
_cell_formula_units_Z   1
loop_
 _symmetry_equiv_pos_site_id
 _symmetry_equiv_pos_as_xyz
  1  'x, y, z'
loop_
 _atom_site_type_symbol
 _atom_site_label
 _atom_site_symmetry_multiplicity
 _atom_site_fract_x
 _atom_site_fract_y
 _atom_site_fract_z
 _atom_site_occupancy
  Mg  Mg0  1  0.62500000  0.12500000  0.12500000  1
  Ti  Ti0  1  0.62500000  0.12500000  0.62500000  1
  Ti  Ti1  1  0.62500000  0.62500000  0.12500000  1
  Ti  Ti2  1  0.62500000  0.62500000  0.62500000  1
  Zn  Zn0  1  0.06751700  0.97749400  0.97749400  1
  Zn  Zn1  1  0.18248300  0.27250600  0.27250600  1
  O  O0  1  0.42565500  0.35795200  0.35795200  1
  O  O1  1  0.42565500  0.35795200  0.85844000  1
  O  O2  1  0.42565500  0.85844000  0.35795200  1
  O  O3  1  0.83578400  0.38807200  0.38807200  1
  O  O4  1  0.41421600  0.86192800  0.86192800  1
  O  O5  1  0.82434500  0.89204800  0.39156000  1
  O  O6  1  0.82434500  0.39156000  0.89204800  1
  O  O7  1  0.82434500  0.89204800  0.89204800  1
loop_
_geom_bond_atom_site_label_1
_geom_bond_atom_site_label_2
_geom_bond_distance
_geom_bond_site_symmetry_2
Mg0 O0 2.024077 1_555
Mg0 O7 2.024077 1_544
Mg0 O1 2.024081 1_554
Mg0 O5 2.024081 1_545
Mg0 O2 2.024081 1_545
Mg0 O6 2.024081 1_554
O0 Ti0 2.026172 1_555
O0 Ti1 2.026172 1_555
O0 Zn1 2.165116 1_555
O1 Ti0 2.026168 1_555
O1 Ti2 2.026172 1_555
O1 Zn1 2.165124 1_556
O2 Ti1 2.026168 1_555
O2 Ti2 2.026172 1_555
O2 Zn1 2.165124 1_565
O3 Zn1 1.913619 1_655
O3 Ti1 2.060454 1_555
O3 Ti2 2.060454 1_555
O3 Ti0 2.060454 1_555
O4 Zn0 1.913619 1_555
O4 Ti1 2.060454 1_556
O4 Ti2 2.060454 1_555
O4 Ti0 2.060454 1_565
O5 Ti0 2.026168 1_565
O5 Ti2 2.026172 1_555
O5 Zn0 2.165124 1_654
O6 Ti1 2.026168 1_556
O6 Ti2 2.026172 1_555
O6 Zn0 2.165124 1_645
O7 Ti0 2.026172 1_565
O7 Ti1 2.026172 1_556
O7 Zn0 2.165116 1_655
