# generated using pymatgen
data_Na2Mg3Ti(SO4)6
_symmetry_space_group_name_H-M   'P 1'
_cell_length_a   8.63937182
_cell_length_b   8.63937155
_cell_length_c   22.53827721
_cell_angle_alpha   90.00000000
_cell_angle_beta   90.00000000
_cell_angle_gamma   120.00000102
_symmetry_Int_Tables_number   1
_chemical_formula_structural   Na2Mg3Ti(SO4)6
_chemical_formula_sum   'Na6 Mg9 Ti3 S18 O72'
_cell_volume   1456.85275972
_cell_formula_units_Z   3
loop_
 _symmetry_equiv_pos_site_id
 _symmetry_equiv_pos_as_xyz
  1  'x, y, z'
loop_
 _atom_site_type_symbol
 _atom_site_label
 _atom_site_symmetry_multiplicity
 _atom_site_fract_x
 _atom_site_fract_y
 _atom_site_fract_z
 _atom_site_occupancy
  Na  Na0  1  0.00000000  0.00000000  0.50391847  1
  Na  Na1  1  0.00000000  0.00000000  0.00206616  1
  Na  Na2  1  0.66666700  0.33333300  0.83155996  1
  Na  Na3  1  0.66666700  0.33333300  0.33480068  1
  Na  Na4  1  0.33333300  0.66666700  0.17148743  1
  Na  Na5  1  0.33333300  0.66666700  0.66159303  1
  Mg  Mg0  1  0.00000000  0.00000000  0.64305604  1
  Mg  Mg1  1  0.00000000  0.00000000  0.15043172  1
  Mg  Mg2  1  0.66666700  0.33333300  0.68000220  1
  Mg  Mg3  1  0.66666700  0.33333300  0.18801477  1
  Mg  Mg4  1  0.66666700  0.33333300  0.98214739  1
  Mg  Mg5  1  0.66666700  0.33333300  0.48430441  1
  Mg  Mg6  1  0.33333300  0.66666700  0.52009475  1
  Mg  Mg7  1  0.33333300  0.66666700  0.31603440  1
  Mg  Mg8  1  0.33333300  0.66666700  0.81357132  1
  Ti  Ti0  1  0.00000000  0.00000000  0.35519095  1
  Ti  Ti1  1  0.00000000  0.00000000  0.84688685  1
  Ti  Ti2  1  0.33333300  0.66666700  0.02174618  1
  S  S0  1  0.28972685  0.99861443  0.24953093  1
  S  S1  1  0.70888758  0.71027315  0.24953093  1
  S  S2  1  0.00138557  0.29111242  0.24953093  1
  S  S3  1  0.29211730  0.29260298  0.74855004  1
  S  S4  1  0.00048568  0.70788270  0.74855004  1
  S  S5  1  0.70739702  -0.00048568  0.74855004  1
  S  S6  1  0.95922675  0.33429178  0.58332813  1
  S  S7  1  0.37506603  0.04077325  0.58332813  1
  S  S8  1  0.66570822  0.62493397  0.58332813  1
  S  S9  1  0.95515227  0.62497318  0.08260182  1
  S  S10  1  0.66982191  0.04484773  0.08260182  1
  S  S11  1  0.37502682  0.33017809  0.08260182  1
  S  S12  1  0.62337941  0.66563272  0.91583324  1
  S  S13  1  0.04225231  0.37662059  0.91583324  1
  S  S14  1  0.33436728  0.95774769  0.91583324  1
  S  S15  1  0.62207749  0.95852120  0.41580732  1
  S  S16  1  0.33644271  0.37792251  0.41580732  1
  S  S17  1  0.04147880  0.66355729  0.41580732  1
  O  O0  1  0.20099608  0.02555923  0.30377384  1
  O  O1  1  0.82456315  0.79900392  0.30377384  1
  O  O2  1  0.97444077  0.17543685  0.30377384  1
  O  O3  1  0.19888424  0.17360502  0.80496113  1
  O  O4  1  0.97472078  0.80111576  0.80496113  1
  O  O5  1  0.82639498  0.02527922  0.80496113  1
  O  O6  1  0.79330917  0.97164054  0.69765590  1
  O  O7  1  0.17833137  0.20669083  0.69765590  1
  O  O8  1  0.02835946  0.82166863  0.69765590  1
  O  O9  1  0.78966171  0.81832428  0.19624375  1
  O  O10  1  0.02866257  0.21033829  0.19624375  1
  O  O11  1  0.18167572  0.97133743  0.19624375  1
  O  O12  1  0.87987160  0.36246107  0.63788873  1
  O  O13  1  0.48259047  0.12012840  0.63788873  1
  O  O14  1  0.63753893  0.51740953  0.63788873  1
  O  O15  1  0.88374784  0.51479982  0.13584857  1
  O  O16  1  0.63105298  0.11625216  0.13584857  1
  O  O17  1  0.48520018  0.36894702  0.13584857  1
  O  O18  1  0.45552078  0.30635312  0.02869221  1
  O  O19  1  0.85083334  0.54447922  0.02869221  1
  O  O20  1  0.69364688  0.14916666  0.02869221  1
  O  O21  1  0.45551773  0.15023545  0.52995303  1
  O  O22  1  0.69471872  0.54448227  0.52995303  1
  O  O23  1  0.84976455  0.30528128  0.52995303  1
  O  O24  1  0.53870346  0.69640260  0.97065876  1
  O  O25  1  0.15769814  0.46129654  0.97065876  1
  O  O26  1  0.30359740  0.84230186  0.97065876  1
  O  O27  1  0.55093630  0.84840693  0.46905218  1
  O  O28  1  0.29746963  0.44906370  0.46905218  1
  O  O29  1  0.15159307  0.70253037  0.46905218  1
  O  O30  1  0.12177486  0.63953307  0.36204174  1
  O  O31  1  0.51775720  0.87822514  0.36204174  1
  O  O32  1  0.36046693  0.48224280  0.36204174  1
  O  O33  1  0.12478184  0.48523021  0.86344252  1
  O  O34  1  0.36044737  0.87521816  0.86344252  1
  O  O35  1  0.51476979  0.63955263  0.86344252  1
  O  O36  1  0.02231562  0.83185194  0.40667782  1
  O  O37  1  0.80953632  0.97768438  0.40667782  1
  O  O38  1  0.16814806  0.19046368  0.40667782  1
  O  O39  1  0.02729418  0.19541050  0.91066816  1
  O  O40  1  0.16811632  0.97270582  0.91066816  1
  O  O41  1  0.80458950  0.83188368  0.91066816  1
  O  O42  1  0.97739191  0.17266397  0.58997147  1
  O  O43  1  0.19527207  0.02260809  0.58997147  1
  O  O44  1  0.82733603  0.80472793  0.58997147  1
  O  O45  1  0.98347242  0.80673779  0.08889951  1
  O  O46  1  0.82326537  0.01652758  0.08889951  1
  O  O47  1  0.19326221  0.17673463  0.08889951  1
  O  O48  1  0.69575317  0.16336128  0.74717191  1
  O  O49  1  0.46760911  0.30424683  0.74717191  1
  O  O50  1  0.83663872  0.53239089  0.74717191  1
  O  O51  1  0.69520826  0.53286818  0.24507478  1
  O  O52  1  0.83766092  0.30479174  0.24507478  1
  O  O53  1  0.46713182  0.16233908  0.24507478  1
  O  O54  1  0.64509384  0.50929618  0.92424777  1
  O  O55  1  0.86420335  0.35490616  0.92424777  1
  O  O56  1  0.49070382  0.13579665  0.92424777  1
  O  O57  1  0.65046927  0.14042568  0.42224713  1
  O  O58  1  0.48995741  0.34953073  0.42224713  1
  O  O59  1  0.85957432  0.51004259  0.42224713  1
  O  O60  1  0.35588734  0.49869615  0.07342641  1
  O  O61  1  0.14280782  0.64411266  0.07342641  1
  O  O62  1  0.50130385  0.85719218  0.07342641  1
  O  O63  1  0.35611492  0.86080832  0.57720631  1
  O  O64  1  0.50469240  0.64388508  0.57720631  1
  O  O65  1  0.13919168  0.49530760  0.57720631  1
  O  O66  1  0.30811045  0.83908859  0.25726276  1
  O  O67  1  0.53097714  0.69188955  0.25726276  1
  O  O68  1  0.16091141  0.46902286  0.25726276  1
  O  O69  1  0.30707101  0.46737186  0.75897991  1
  O  O70  1  0.16029985  0.69292899  0.75897991  1
  O  O71  1  0.53262814  0.83970015  0.75897991  1
loop_
_geom_bond_atom_site_label_1
_geom_bond_atom_site_label_2
_geom_bond_distance
_geom_bond_site_symmetry_2
Na0 O42 2.513227 1_455
Na0 O44 2.513227 1_445
Na0 O43 2.513227 1_555
Na0 O38 2.689020 1_555
Na0 O36 2.689020 1_545
Na0 O37 2.689020 1_445
Na1 O45 2.529802 1_445
Na1 O47 2.529802 1_555
Na1 O46 2.529802 1_455
Na1 O39 2.598273 1_554
Na1 O41 2.598273 1_444
Na1 O40 2.598273 1_544
Na2 O50 2.491173 1_555
Na2 O48 2.491173 1_555
Na2 O49 2.491173 1_555
Na2 O54 2.644453 1_555
Na2 O56 2.644453 1_555
Na2 O55 2.644453 1_555
Na3 O57 2.539356 1_555
Na3 O59 2.539356 1_555
Na3 O58 2.539356 1_555
Na3 O51 2.587854 1_555
Na3 O53 2.587854 1_555
Na3 O52 2.587854 1_555
Na4 O68 2.515632 1_555
Na4 O66 2.515632 1_555
Na4 O67 2.515632 1_555
Na4 O62 2.703935 1_555
Na4 O61 2.703935 1_555
Na4 O60 2.703935 1_555
Na5 O63 2.477733 1_555
Na5 O65 2.477733 1_555
Na5 O64 2.477733 1_555
Na5 O69 2.728204 1_555
Na5 O71 2.728204 1_555
Na5 O70 2.728204 1_555
Mg0 O42 1.996537 1_455
Mg0 O44 1.996537 1_445
Mg0 O43 1.996537 1_555
Mg0 O7 2.079788 1_555
Mg0 O8 2.079788 1_545
Mg0 O6 2.079788 1_445
Mg1 O10 1.994899 1_555
Mg1 O9 1.994899 1_445
Mg1 O11 1.994899 1_545
Mg1 O45 2.119683 1_445
Mg1 O47 2.119683 1_555
Mg1 O46 2.119683 1_455
Mg2 O13 1.973198 1_555
Mg2 O14 1.973198 1_555
Mg2 O12 1.973198 1_555
Mg2 O50 2.209151 1_555
Mg2 O48 2.209151 1_555
Mg2 O49 2.209151 1_555
Mg3 O51 2.064293 1_555
Mg3 O53 2.064293 1_555
Mg3 O52 2.064293 1_555
Mg3 O16 2.101729 1_555
Mg3 O15 2.101729 1_555
Mg3 O17 2.101729 1_555
Mg4 O19 2.014254 1_556
Mg4 O20 2.014254 1_556
Mg4 O18 2.014254 1_556
Mg4 O54 2.081353 1_555
Mg4 O56 2.081353 1_555
Mg4 O55 2.081353 1_555
Mg5 O22 2.000712 1_555
Mg5 O21 2.000712 1_555
Mg5 O23 2.000712 1_555
Mg5 O57 2.126070 1_555
Mg5 O59 2.126070 1_555
Mg5 O58 2.126070 1_555
Mg6 O63 2.044184 1_555
Mg6 O65 2.044184 1_555
Mg6 O64 2.044184 1_555
Mg6 O28 2.090741 1_555
Mg6 O27 2.090741 1_555
Mg6 O29 2.090741 1_555
Mg7 O32 2.010549 1_555
Mg7 O31 2.010549 1_555
Mg7 O30 2.010549 1_555
Mg7 O68 2.084617 1_555
Mg7 O66 2.084617 1_555
Mg7 O67 2.084617 1_555
Mg8 O69 2.034513 1_555
Mg8 O71 2.034513 1_555
Mg8 O70 2.034513 1_555
Mg8 O34 2.035318 1_555
Mg8 O33 2.035318 1_555
Mg8 O35 2.035318 1_555
O0 S0 1.521476 1_545
O0 Ti0 2.005896 1_555
O1 S1 1.521476 1_555
O1 Ti0 2.005896 1_665
O2 S2 1.521476 1_655
O2 Ti0 2.005896 1_655
O3 S3 1.579275 1_555
O3 Ti1 1.875545 1_555
O4 S4 1.579275 1_655
O4 Ti1 1.875545 1_665
O5 S5 1.579275 1_555
O5 Ti1 1.875545 1_655
O6 S5 1.450307 1_565
O7 S3 1.450307 1_555
O8 S4 1.450307 1_555
O9 S1 1.466071 1_555
O10 S2 1.466071 1_555
O11 S0 1.466071 1_555
O12 S6 1.486021 1_555
O13 S7 1.486021 1_555
O14 S8 1.486021 1_555
O15 S9 1.462728 1_555
O16 S10 1.462728 1_555
O17 S11 1.462728 1_555
O18 S11 1.464722 1_555
O19 S9 1.464722 1_555
O20 S10 1.464722 1_555
O21 S7 1.472170 1_555
O22 S8 1.472170 1_555
O23 S6 1.472170 1_555
O24 S12 1.525511 1_555
O24 Ti2 2.020892 1_556
O25 S13 1.525511 1_555
O25 Ti2 2.020892 1_556
O26 S14 1.525511 1_555
O26 Ti2 2.020892 1_556
O27 S15 1.462251 1_555
O28 S16 1.462251 1_555
O29 S17 1.462251 1_555
O30 S17 1.461749 1_555
O31 S15 1.461749 1_555
O32 S16 1.461749 1_555
O33 S13 1.453985 1_555
O34 S14 1.453985 1_555
O35 S12 1.453985 1_555
O36 S17 1.557068 1_555
O36 Ti0 1.942716 1_565
O37 S15 1.557077 1_555
O37 Ti0 1.942716 1_665
O38 S16 1.557073 1_555
O38 Ti0 1.942716 1_555
O39 S13 1.509589 1_555
O39 Ti1 2.138710 1_555
O40 S14 1.509580 1_555
O40 Ti1 2.138710 1_565
O41 S12 1.509585 1_555
O41 Ti1 2.138710 1_665
O42 S6 1.488629 1_555
O43 S7 1.488637 1_555
O44 S8 1.488634 1_555
O45 S9 1.470286 1_555
O46 S10 1.470278 1_555
O47 S11 1.470283 1_555
O48 S5 1.468748 1_555
O49 S3 1.468756 1_555
O50 S4 1.468752 1_655
O51 S1 1.480538 1_555
O52 S2 1.480529 1_655
O53 S0 1.480534 1_545
O54 S12 1.465877 1_555
O55 S13 1.465860 1_655
O56 S14 1.465867 1_545
O57 S15 1.471561 1_545
O58 S16 1.471578 1_555
O59 S17 1.471568 1_655
O60 S11 1.558993 1_555
O60 Ti2 1.945078 1_555
O61 S9 1.558976 1_455
O61 Ti2 1.945078 1_555
O62 S10 1.558983 1_565
O62 Ti2 1.945078 1_555
O63 S7 1.486149 1_565
O64 S8 1.486166 1_555
O65 S6 1.486156 1_455
O66 S0 1.474424 1_555
O67 S1 1.474432 1_555
O68 S2 1.474429 1_555
O69 S3 1.468558 1_555
O70 S4 1.468549 1_555
O71 S5 1.468554 1_565
