# generated using pymatgen
data_Na4ScInSi2SO12
_symmetry_space_group_name_H-M   'P 1'
_cell_length_a   9.25281248
_cell_length_b   9.24011369
_cell_length_c   22.77856182
_cell_angle_alpha   90.08373759
_cell_angle_beta   89.93936961
_cell_angle_gamma   119.68856967
_symmetry_Int_Tables_number   1
_chemical_formula_structural   Na4ScInSi2SO12
_chemical_formula_sum   'Na24 Sc6 In6 Si12 S6 O72'
_cell_volume   1691.85005283
_cell_formula_units_Z   6
loop_
 _symmetry_equiv_pos_site_id
 _symmetry_equiv_pos_as_xyz
  1  'x, y, z'
loop_
 _atom_site_type_symbol
 _atom_site_label
 _atom_site_symmetry_multiplicity
 _atom_site_fract_x
 _atom_site_fract_y
 _atom_site_fract_z
 _atom_site_occupancy
  Na  Na0  1  0.64717429  0.99903841  0.25394563  1
  Na  Na1  1  0.36517390  0.37742091  0.24379032  1
  Na  Na2  1  0.99168689  0.62073549  0.25278405  1
  Na  Na3  1  0.62291312  0.63263587  0.74314969  1
  Na  Na4  1  0.99908811  0.35299357  0.75393648  1
  Na  Na5  1  0.37913178  0.00994172  0.75291398  1
  Na  Na6  1  0.31367908  0.33239549  0.58756816  1
  Na  Na7  1  0.03460473  0.71185892  0.57727258  1
  Na  Na8  1  0.65709823  0.95403816  0.58541247  1
  Na  Na9  1  0.28892696  0.96681711  0.07707365  1
  Na  Na10  1  0.66861583  0.68753017  0.08782945  1
  Na  Na11  1  0.04617425  0.34138191  0.08612478  1
  Na  Na12  1  0.97953139  0.66526296  0.92092072  1
  Na  Na13  1  0.70100119  0.04478706  0.91009234  1
  Na  Na14  1  0.32326933  0.28727403  0.91979066  1
  Na  Na15  1  0.95531217  0.29942615  0.41034014  1
  Na  Na16  1  0.33307836  0.01900706  0.42049224  1
  Na  Na17  1  0.71214634  0.67691275  0.41961580  1
  Na  Na18  1  0.99230019  0.97995526  0.50005620  1
  Na  Na19  1  0.01967832  0.00862807  0.00003205  1
  Na  Na20  1  0.65932358  0.31320846  0.83338194  1
  Na  Na21  1  0.68596282  0.33974278  0.33348548  1
  Na  Na22  1  0.32584303  0.64723092  0.16692996  1
  Na  Na23  1  0.35196271  0.67438810  0.66653665  1
  Sc  Sc0  1  0.97857825  0.98731842  0.35007995  1
  Sc  Sc1  1  0.99678899  0.00160684  0.64961995  1
  Sc  Sc2  1  0.64586817  0.32151555  0.68325868  1
  Sc  Sc3  1  0.67890415  0.35492164  0.18436907  1
  Sc  Sc4  1  0.66535511  0.33581583  0.48337227  1
  Sc  Sc5  1  0.33031966  0.66765129  0.31693016  1
  In  In0  1  0.01359699  0.02073694  0.84861645  1
  In  In1  1  0.00050318  0.00233226  0.15168661  1
  In  In2  1  0.66493275  0.33349633  0.98458932  1
  In  In3  1  0.31269345  0.65425438  0.01682847  1
  In  In4  1  0.34715311  0.68847971  0.51584946  1
  In  In5  1  0.33262608  0.66781971  0.81686067  1
  Si  Si0  1  0.69964457  0.70322351  0.24954651  1
  Si  Si1  1  -0.00006086  0.29600417  0.25055419  1
  Si  Si2  1  0.29759533  0.29910448  0.74842789  1
  Si  Si3  1  0.70473416  0.00078512  0.74971192  1
  Si  Si4  1  0.36773344  0.03853883  0.58277380  1
  Si  Si5  1  0.66615453  0.62725552  0.58324878  1
  Si  Si6  1  0.96292546  0.63340754  0.08340585  1
  Si  Si7  1  0.37215283  0.33390243  0.08374680  1
  Si  Si8  1  0.03174102  0.36754710  0.91603744  1
  Si  Si9  1  0.33311839  0.96300370  0.91653158  1
  Si  Si10  1  0.63107372  0.96676115  0.41530401  1
  Si  Si11  1  0.03722983  0.66682899  0.41669168  1
  S  S0  1  0.29648984  0.00020177  0.25120551  1
  S  S1  1  0.99707759  0.70536059  0.74901874  1
  S  S2  1  0.95839790  0.33296643  0.58375083  1
  S  S3  1  0.66531879  0.03839705  0.08423602  1
  S  S4  1  0.63031112  0.66823926  0.91686482  1
  S  S5  1  0.33238552  0.37152206  0.41649935  1
  O  O0  1  0.21676311  0.02803152  0.30278596  1
  O  O1  1  0.82323728  0.78819870  0.30599505  1
  O  O2  1  0.97538737  0.17748017  0.30741912  1
  O  O3  1  0.23108427  0.18277021  0.80729849  1
  O  O4  1  0.96781888  0.77696347  0.80322810  1
  O  O5  1  0.81395683  0.02748678  0.80968088  1
  O  O6  1  0.79475096  0.96909213  0.69290738  1
  O  O7  1  0.17509209  0.20713815  0.69227773  1
  O  O8  1  0.02183209  0.81316283  0.69746666  1
  O  O9  1  0.77844042  0.81922395  0.19089393  1
  O  O10  1  0.04182682  0.22156908  0.19129571  1
  O  O11  1  0.19409631  0.96859516  0.19719927  1
  O  O12  1  0.88115104  0.35956871  0.63642678  1
  O  O13  1  0.48847294  0.12413637  0.63984893  1
  O  O14  1  0.64240868  0.51232130  0.64104743  1
  O  O15  1  0.87467559  0.51110416  0.13984076  1
  O  O16  1  0.64094008  0.11899574  0.13612334  1
  O  O17  1  0.48847926  0.35740448  0.14121399  1
  O  O18  1  0.44737031  0.29519131  0.02429300  1
  O  O19  1  0.85016785  0.55418754  0.02416154  1
  O  O20  1  0.69294076  0.13847038  0.02997733  1
  O  O21  1  0.45835280  0.15590166  0.52514513  1
  O  O22  1  0.69754756  0.54034527  0.52529299  1
  O  O23  1  0.85509485  0.30793471  0.53070742  1
  O  O24  1  0.55437456  0.69678792  0.96990166  1
  O  O25  1  0.15180530  0.44041016  0.97373198  1
  O  O26  1  0.30618547  0.85245180  0.97626197  1
  O  O27  1  0.56445286  0.84828820  0.47386758  1
  O  O28  1  0.30067304  0.44345092  0.47015297  1
  O  O29  1  0.14839918  0.69576322  0.47656528  1
  O  O30  1  0.12669902  0.63440353  0.35992664  1
  O  O31  1  0.50883843  0.87486883  0.35911979  1
  O  O32  1  0.35913095  0.47907672  0.36460955  1
  O  O33  1  0.11274349  0.48411583  0.85746728  1
  O  O34  1  0.37217880  0.88475132  0.85794175  1
  O  O35  1  0.52720553  0.64053537  0.86370462  1
  O  O36  1  0.02806405  0.84057164  0.41050509  1
  O  O37  1  0.82013779  0.99042522  0.41034361  1
  O  O38  1  0.18689378  0.20262004  0.40882166  1
  O  O39  1  0.00752677  0.17817311  0.91471139  1
  O  O40  1  0.15591736  0.96731666  0.91209488  1
  O  O41  1  0.79869505  0.81604637  0.91082813  1
  O  O42  1  0.97336260  0.17944183  0.58837180  1
  O  O43  1  0.18305135  0.02338481  0.58900561  1
  O  O44  1  0.83189667  0.81495962  0.58837432  1
  O  O45  1  0.97848972  0.81892322  0.08881916  1
  O  O46  1  0.81731801  0.02088678  0.08816812  1
  O  O47  1  0.18363224  0.16873216  0.08779432  1
  O  O48  1  0.69545933  0.17432589  0.74377891  1
  O  O49  1  0.48666341  0.32385417  0.74368229  1
  O  O50  1  0.85097412  0.53657571  0.74186782  1
  O  O51  1  0.68101153  0.51577640  0.24608164  1
  O  O52  1  0.82518667  0.30357092  0.24520652  1
  O  O53  1  0.46421542  0.14804368  0.24442462  1
  O  O54  1  0.64556631  0.51546075  0.92103173  1
  O  O55  1  0.84773443  0.35544414  0.92129067  1
  O  O56  1  0.49849958  0.15112347  0.92024991  1
  O  O57  1  0.64545549  0.15123399  0.42194980  1
  O  O58  1  0.48615741  0.35803205  0.42149894  1
  O  O59  1  0.85020593  0.50013931  0.42135994  1
  O  O60  1  0.36767702  0.51184555  0.07999900  1
  O  O61  1  0.15052296  0.65303575  0.08355956  1
  O  O62  1  0.51603552  0.86989010  0.07880151  1
  O  O63  1  0.34669145  0.84979966  0.58251389  1
  O  O64  1  0.48927810  0.63347953  0.57912932  1
  O  O65  1  0.12774433  0.48010037  0.57781630  1
  O  O66  1  0.31309202  0.84795588  0.25704300  1
  O  O67  1  0.51427851  0.68455787  0.25730942  1
  O  O68  1  0.16465457  0.48420356  0.25662238  1
  O  O69  1  0.31001567  0.48383632  0.75332120  1
  O  O70  1  0.15093323  0.69172726  0.75236864  1
  O  O71  1  0.51736716  0.83271866  0.75238473  1
loop_
_geom_bond_atom_site_label_1
_geom_bond_atom_site_label_2
_geom_bond_distance
_geom_bond_site_symmetry_2
Na0 O52 2.465875 1_565
Na0 O67 2.534319 1_555
Na0 O53 2.668149 1_565
Na0 O66 2.689704 1_555
Na0 O31 2.690917 1_555
Na0 O9 2.878697 1_555
Na0 O2 2.909787 1_565
Na0 O16 2.916707 1_565
Na1 O67 2.484400 1_555
Na1 O68 2.512525 1_555
Na1 O51 2.544944 1_555
Na1 O17 2.645271 1_555
Na1 O53 2.693751 1_555
Na1 O10 2.861742 1_555
Na1 O32 2.916087 1_555
Na2 O68 2.482187 1_655
Na2 O51 2.542874 1_555
Na2 O52 2.553153 1_555
Na2 O66 2.660195 1_655
Na2 O30 2.717007 1_655
Na2 O15 2.780099 1_555
Na2 O1 2.944895 1_555
Na3 O49 2.483369 1_555
Na3 O71 2.490569 1_555
Na3 O69 2.526374 1_555
Na3 O14 2.620639 1_555
Na3 O50 2.663988 1_555
Na3 O35 2.896332 1_555
Na3 O6 2.934808 1_555
Na4 O48 2.465314 1_555
Na4 O69 2.508638 1_655
Na4 O33 2.621094 1_655
Na4 O50 2.671378 1_555
Na4 O70 2.723222 1_655
Na4 O12 2.903719 1_555
Na4 O5 2.914789 1_555
Na4 O7 2.933397 1_655
Na5 O71 2.528334 1_545
Na5 O48 2.552073 1_555
Na5 O49 2.567128 1_555
Na5 O70 2.637065 1_545
Na5 O34 2.645713 1_545
Na5 O13 2.777572 1_555
Na5 O3 2.849385 1_555
Na6 O64 2.437206 1_555
Na6 O43 2.489233 1_555
Na6 O65 2.683187 1_555
Na6 O7 2.684065 1_555
Na6 O42 2.739493 1_455
Na6 O28 2.889938 1_555
Na6 O14 2.914186 1_555
Na6 O21 2.936843 1_555
Na7 O44 2.501547 1_455
Na7 O43 2.515160 1_565
Na7 O63 2.516329 1_555
Na7 O29 2.557744 1_555
Na7 O65 2.675258 1_555
Na7 O8 2.913313 1_555
Na7 O22 2.957419 1_455
Na8 O44 2.516213 1_555
Na8 O63 2.537944 1_555
Na8 O64 2.578433 1_555
Na8 O42 2.620780 1_565
Na8 O27 2.704273 1_555
Na8 O6 2.732626 1_555
Na9 O47 2.507686 1_565
Na9 O45 2.510174 1_455
Na9 O61 2.528054 1_555
Na9 O26 2.564120 1_554
Na9 O62 2.661598 1_555
Na9 O11 2.875158 1_555
Na9 O18 2.898582 1_565
Na10 O60 2.437878 1_555
Na10 O45 2.499445 1_555
Na10 O9 2.607049 1_555
Na10 O46 2.680095 1_565
Na10 O62 2.689402 1_555
Na10 O24 2.904606 1_554
Na10 O19 2.912586 1_555
Na10 O17 2.920950 1_555
Na11 O47 2.484808 1_555
Na11 O61 2.544519 1_555
Na11 O60 2.590020 1_555
Na11 O10 2.632450 1_555
Na11 O46 2.654157 1_455
Na11 O25 2.731769 1_554
Na12 O40 2.445931 1_655
Na12 O55 2.494892 1_555
Na12 O19 2.607815 1_556
Na12 O41 2.665481 1_555
Na12 O54 2.688461 1_555
Na12 O4 2.895443 1_555
Na12 O33 2.905666 1_655
Na12 O26 2.922204 1_655
Na13 O39 2.472217 1_655
Na13 O55 2.507245 1_555
Na13 O56 2.520285 1_555
Na13 O5 2.551214 1_555
Na13 O41 2.679056 1_545
Na13 O20 2.875556 1_556
Na13 O34 2.898386 1_545
Na14 O56 2.496446 1_555
Na14 O40 2.575521 1_545
Na14 O39 2.578337 1_555
Na14 O18 2.629132 1_556
Na14 O54 2.666683 1_555
Na14 O3 2.721663 1_555
Na14 O25 2.871156 1_555
Na15 O37 2.485778 1_545
Na15 O59 2.496635 1_555
Na15 O57 2.505093 1_555
Na15 O2 2.645569 1_555
Na15 O38 2.700228 1_655
Na15 O23 2.906835 1_555
Na15 O30 2.925459 1_655
Na16 O36 2.475105 1_545
Na16 O57 2.519932 1_555
Na16 O38 2.655940 1_555
Na16 O21 2.677868 1_555
Na16 O58 2.724834 1_555
Na16 O29 2.902280 1_545
Na16 O0 2.906826 1_555
Na16 O31 2.916886 1_545
Na17 O59 2.523618 1_555
Na17 O36 2.548618 1_655
Na17 O37 2.563011 1_555
Na17 O58 2.636882 1_555
Na17 O22 2.691554 1_555
Na17 O1 2.787015 1_555
Na17 O27 2.834884 1_555
Na18 O44 2.517051 1_555
Na18 O36 2.518389 1_655
Na18 O43 2.585545 1_665
Na18 O37 2.623562 1_555
Na18 O42 2.789926 1_565
Na18 O38 2.851124 1_665
Na19 O40 2.493237 1_544
Na19 O47 2.502203 1_555
Na19 O39 2.535329 1_554
Na19 O45 2.579756 1_445
Na19 O46 2.784008 1_455
Na19 O41 2.805384 1_444
Na20 O56 2.483458 1_555
Na20 O48 2.518007 1_555
Na20 O55 2.555858 1_555
Na20 O49 2.626771 1_555
Na20 O54 2.778328 1_555
Na20 O50 2.851161 1_555
Na21 O52 2.496767 1_555
Na21 O59 2.505868 1_555
Na21 O57 2.568472 1_555
Na21 O51 2.587494 1_555
Na21 O58 2.786832 1_555
Na21 O53 2.803774 1_555
Na22 O60 2.471157 1_555
Na22 O61 2.516714 1_555
Na22 O68 2.538655 1_555
Na22 O67 2.609040 1_555
Na22 O62 2.788860 1_555
Na22 O66 2.805777 1_555
Na23 O71 2.467113 1_555
Na23 O64 2.487873 1_555
Na23 O63 2.525886 1_555
Na23 O69 2.547594 1_555
Na23 O70 2.755852 1_555
Na23 O65 2.814264 1_555
In0 O3 2.047592 1_555
In0 O5 2.078581 1_455
In0 O39 2.111970 1_555
In0 O40 2.172222 1_545
In0 O4 2.317557 1_445
In0 O41 2.411594 1_445
In1 O10 2.071740 1_555
In1 O9 2.106883 1_445
In1 O45 2.148456 1_445
In1 O47 2.184936 1_555
In1 O11 2.222308 1_545
In1 O46 2.299896 1_455
In2 O18 2.070488 1_556
In2 O19 2.108143 1_556
In2 O55 2.153347 1_555
In2 O56 2.187704 1_555
In2 O20 2.202748 1_556
In2 O54 2.293735 1_555
In3 O25 2.041522 1_554
In3 O26 2.079831 1_554
In3 O61 2.130899 1_555
In3 O60 2.175111 1_555
In3 O24 2.328813 1_554
In3 O62 2.405557 1_555
In4 O27 2.048580 1_555
In4 O29 2.076912 1_555
In4 O63 2.127799 1_555
In4 O64 2.175666 1_555
In4 O28 2.328964 1_555
In4 O65 2.439472 1_555
In5 O34 2.072700 1_555
In5 O33 2.110890 1_555
In5 O69 2.160969 1_555
In5 O71 2.195861 1_555
In5 O35 2.213158 1_555
In5 O70 2.325351 1_555
O0 S0 1.475117 1_555
O0 Sc0 2.309557 1_445
O1 Si0 1.639609 1_555
O1 Sc0 1.958975 1_555
O2 Si1 1.638871 1_655
O2 Sc0 2.022145 1_545
O3 Si2 1.636964 1_555
O4 S1 1.486648 1_555
O5 Si3 1.644122 1_555
O6 Si3 1.640721 1_565
O6 Sc1 1.999463 1_565
O7 Si2 1.639691 1_555
O7 Sc1 2.041341 1_455
O8 S1 1.483399 1_455
O8 Sc1 2.163150 1_465
O9 Si0 1.641162 1_555
O10 Si1 1.644850 1_555
O11 S0 1.491173 1_565
O12 S2 1.477283 1_555
O12 Sc2 2.288884 1_555
O13 Si4 1.639720 1_555
O13 Sc2 1.947227 1_555
O14 Si5 1.637627 1_555
O14 Sc2 2.023575 1_555
O15 Si6 1.638398 1_555
O15 Sc3 1.950289 1_555
O16 S3 1.471640 1_555
O16 Sc3 2.306233 1_555
O17 Si7 1.640070 1_555
O17 Sc3 2.028579 1_555
O18 Si7 1.639989 1_555
O19 Si6 1.639842 1_555
O20 S3 1.488783 1_555
O21 Si4 1.644193 1_555
O21 Sc4 2.045556 1_555
O22 Si5 1.642935 1_555
O22 Sc4 2.002467 1_555
O23 S2 1.486485 1_555
O23 Sc4 2.182662 1_555
O24 S4 1.484472 1_555
O25 Si8 1.635292 1_555
O26 Si9 1.645578 1_555
O27 Si10 1.640727 1_555
O28 S5 1.487125 1_555
O29 Si11 1.648966 1_555
O30 Si11 1.639910 1_555
O30 Sc5 2.006718 1_555
O31 Si10 1.639099 1_555
O31 Sc5 2.045290 1_555
O32 S5 1.484982 1_555
O32 Sc5 2.180142 1_555
O33 Si8 1.644462 1_555
O34 Si9 1.640000 1_555
O35 S4 1.483783 1_555
O36 Si11 1.655271 1_555
O36 Sc0 2.136481 1_455
O37 Si10 1.655788 1_555
O37 Sc0 2.017848 1_555
O38 S5 1.482256 1_555
O38 Sc0 2.379632 1_445
O39 Si8 1.650620 1_555
O40 Si9 1.662890 1_555
O41 S4 1.484559 1_555
O42 S2 1.495886 1_555
O42 Sc1 2.248052 1_555
O43 Si4 1.649962 1_555
O43 Sc1 2.137607 1_455
O44 Si5 1.654897 1_555
O44 Sc1 2.153936 1_565
O45 Si6 1.652047 1_555
O46 S3 1.495973 1_555
O47 Si7 1.656343 1_555
O48 Si3 1.653460 1_555
O48 Sc2 2.141431 1_555
O49 Si2 1.651604 1_555
O49 Sc2 2.022868 1_555
O50 S1 1.482446 1_555
O50 Sc2 2.365322 1_555
O51 Si0 1.655210 1_555
O51 Sc3 2.037355 1_555
O52 Si1 1.657314 1_655
O52 Sc3 2.149336 1_555
O53 S0 1.482754 1_555
O53 Sc3 2.389973 1_555
O54 S4 1.489836 1_555
O55 Si8 1.654267 1_655
O56 Si9 1.653876 1_545
O57 Si10 1.649459 1_545
O57 Sc4 2.140758 1_555
O58 S5 1.492982 1_555
O58 Sc4 2.262896 1_555
O59 Si11 1.654719 1_655
O59 Sc4 2.157503 1_555
O60 Si7 1.667427 1_555
O61 Si6 1.653507 1_455
O62 S3 1.488954 1_565
O63 Si4 1.656202 1_565
O64 Si5 1.668581 1_555
O65 S2 1.487198 1_455
O66 S0 1.494970 1_565
O66 Sc5 2.220842 1_555
O67 Si0 1.645964 1_555
O67 Sc5 2.120936 1_555
O68 Si1 1.655408 1_555
O68 Sc5 2.129299 1_555
O69 Si2 1.656635 1_555
O70 S1 1.492054 1_455
O71 Si3 1.659553 1_565
