# generated using pymatgen
data_MgTi2Mn2O6
_symmetry_space_group_name_H-M   'P 1'
_cell_length_a   6.09120386
_cell_length_b   6.12941172
_cell_length_c   6.00780178
_cell_angle_alpha   50.49070520
_cell_angle_beta   50.59849999
_cell_angle_gamma   50.66777952
_symmetry_Int_Tables_number   1
_chemical_formula_structural   MgTi2Mn2O6
_chemical_formula_sum   'Mg1 Ti2 Mn2 O6'
_cell_volume   123.37195289
_cell_formula_units_Z   1
loop_
 _symmetry_equiv_pos_site_id
 _symmetry_equiv_pos_as_xyz
  1  'x, y, z'
loop_
 _atom_site_type_symbol
 _atom_site_label
 _atom_site_symmetry_multiplicity
 _atom_site_fract_x
 _atom_site_fract_y
 _atom_site_fract_z
 _atom_site_occupancy
  Mg  Mg0  1  0.50000100  0.50001700  0.50001300  1
  Ti  Ti0  1  0.85835300  0.85114800  0.83811700  1
  Ti  Ti1  1  0.14162100  0.14879800  0.16195000  1
  Mn  Mn0  1  0.66787600  0.67207800  0.66820600  1
  Mn  Mn1  1  0.33212900  0.32803800  0.33174200  1
  O  O0  1  0.08673000  0.74122500  0.44657600  1
  O  O1  1  0.74862700  0.44146200  0.08874400  1
  O  O2  1  0.44966400  0.08528100  0.74865700  1
  O  O3  1  0.91328800  0.25884200  0.55326000  1
  O  O4  1  0.55029000  0.91470100  0.25147400  1
  O  O5  1  0.25142000  0.55840900  0.91126200  1
loop_
_geom_bond_atom_site_label_1
_geom_bond_atom_site_label_2
_geom_bond_distance
_geom_bond_site_symmetry_2
Mg0 O5 2.052827 1_555
Mg0 O1 2.053364 1_555
Mg0 O3 2.080444 1_555
Mg0 O0 2.080865 1_555
Mg0 O4 2.088334 1_555
Mg0 O2 2.088646 1_555
Mn0 O1 2.185264 1_556
Mn0 O0 2.191309 1_655
Mn0 O2 2.211227 1_565
Mn0 O4 2.276307 1_555
Mn0 O3 2.289651 1_555
Mn0 O5 2.301313 1_555
Mn1 O5 2.185162 1_554
Mn1 O3 2.191572 1_455
Mn1 O4 2.211429 1_545
Mn1 O2 2.276891 1_555
Mn1 O0 2.289006 1_555
Mn1 O1 2.300734 1_555
O0 Ti1 2.043090 1_565
O0 Ti0 2.144012 1_455
O1 Ti1 2.007722 1_655
O1 Ti0 2.249131 1_554
O2 Ti1 2.055949 1_556
O2 Ti0 2.175768 1_545
O3 Ti0 2.043726 1_545
O3 Ti1 2.143295 1_655
O4 Ti0 2.056324 1_554
O4 Ti1 2.175923 1_565
O5 Ti0 2.007912 1_455
O5 Ti1 2.248901 1_556
