# generated using pymatgen
data_MgTe2Mo2W2(Se2S)2
_symmetry_space_group_name_H-M   'P 1'
_cell_length_a   6.67788200
_cell_length_b   6.67788890
_cell_length_c   76.11049800
_cell_angle_alpha   89.99984696
_cell_angle_beta   90.00000452
_cell_angle_gamma   119.99993875
_symmetry_Int_Tables_number   1
_chemical_formula_structural   MgTe2Mo2W2(Se2S)2
_chemical_formula_sum   'Mg8 Te16 Mo16 W16 Se32 S16'
_cell_volume   2939.36415279
_cell_formula_units_Z   8
loop_
 _symmetry_equiv_pos_site_id
 _symmetry_equiv_pos_as_xyz
  1  'x, y, z'
loop_
 _atom_site_type_symbol
 _atom_site_label
 _atom_site_symmetry_multiplicity
 _atom_site_fract_x
 _atom_site_fract_y
 _atom_site_fract_z
 _atom_site_occupancy
  Mg  Mg0_0  1  0.16802000  0.30156100  0.43414250  1
  Mg  Mg0_1  1  0.16802000  0.30156100  0.93414250  1
  Mg  Mg0_2  1  0.16802000  0.80156100  0.43414250  1
  Mg  Mg0_3  1  0.16802000  0.80156100  0.93414250  1
  Mg  Mg0_4  1  0.66802000  0.30156100  0.43414250  1
  Mg  Mg0_5  1  0.66802000  0.30156100  0.93414250  1
  Mg  Mg0_6  1  0.66802000  0.80156100  0.43414250  1
  Mg  Mg0_7  1  0.66802000  0.80156100  0.93414250  1
  Te  Te0_0  1  0.33332050  0.16664100  0.02202550  1
  Te  Te0_1  1  0.33332050  0.16664100  0.52202550  1
  Te  Te0_2  1  0.33332050  0.66664100  0.02202550  1
  Te  Te0_3  1  0.33332050  0.66664100  0.52202550  1
  Te  Te0_4  1  0.83332050  0.16664100  0.02202550  1
  Te  Te0_5  1  0.83332050  0.16664100  0.52202550  1
  Te  Te0_6  1  0.83332050  0.66664100  0.02202550  1
  Te  Te0_7  1  0.83332050  0.66664100  0.52202550  1
  Te  Te1_0  1  0.33332300  0.16664500  0.07188550  1
  Te  Te1_1  1  0.33332300  0.16664500  0.57188550  1
  Te  Te1_2  1  0.33332300  0.66664500  0.07188550  1
  Te  Te1_3  1  0.33332300  0.66664500  0.57188550  1
  Te  Te1_4  1  0.83332300  0.16664500  0.07188550  1
  Te  Te1_5  1  0.83332300  0.16664500  0.57188550  1
  Te  Te1_6  1  0.83332300  0.66664500  0.07188550  1
  Te  Te1_7  1  0.83332300  0.66664500  0.57188550  1
  Mo  Mo0_0  1  0.16665350  0.33330700  0.04694750  1
  Mo  Mo0_1  1  0.16665350  0.33330700  0.54694750  1
  Mo  Mo0_2  1  0.16665350  0.83330700  0.04694750  1
  Mo  Mo0_3  1  0.16665350  0.83330700  0.54694750  1
  Mo  Mo0_4  1  0.66665350  0.33330700  0.04694750  1
  Mo  Mo0_5  1  0.66665350  0.33330700  0.54694750  1
  Mo  Mo0_6  1  0.66665350  0.83330700  0.04694750  1
  Mo  Mo0_7  1  0.66665350  0.83330700  0.54694750  1
  Mo  Mo1_0  1  0.16665700  0.33331400  0.23482750  1
  Mo  Mo1_1  1  0.16665700  0.33331400  0.73482750  1
  Mo  Mo1_2  1  0.16665700  0.83331400  0.23482750  1
  Mo  Mo1_3  1  0.16665700  0.83331400  0.73482750  1
  Mo  Mo1_4  1  0.66665700  0.33331400  0.23482750  1
  Mo  Mo1_5  1  0.66665700  0.33331400  0.73482750  1
  Mo  Mo1_6  1  0.66665700  0.83331400  0.23482750  1
  Mo  Mo1_7  1  0.66665700  0.83331400  0.73482750  1
  W  W0_0  1  0.33334450  0.16668950  0.14090800  1
  W  W0_1  1  0.33334450  0.16668950  0.64090800  1
  W  W0_2  1  0.33334450  0.66668950  0.14090800  1
  W  W0_3  1  0.33334450  0.66668950  0.64090800  1
  W  W0_4  1  0.83334450  0.16668950  0.14090800  1
  W  W0_5  1  0.83334450  0.16668950  0.64090800  1
  W  W0_6  1  0.83334450  0.66668950  0.14090800  1
  W  W0_7  1  0.83334450  0.66668950  0.64090800  1
  W  W1_0  1  0.33334550  0.16668950  0.32877800  1
  W  W1_1  1  0.33334550  0.16668950  0.82877800  1
  W  W1_2  1  0.33334550  0.66668950  0.32877800  1
  W  W1_3  1  0.33334550  0.66668950  0.82877800  1
  W  W1_4  1  0.83334550  0.16668950  0.32877800  1
  W  W1_5  1  0.83334550  0.16668950  0.82877800  1
  W  W1_6  1  0.83334550  0.66668950  0.32877800  1
  W  W1_7  1  0.83334550  0.66668950  0.82877800  1
  Se  Se0_0  1  0.16667800  0.33335650  0.35078100  1
  Se  Se0_1  1  0.16667800  0.33335650  0.85078100  1
  Se  Se0_2  1  0.16667800  0.83335650  0.35078100  1
  Se  Se0_3  1  0.16667800  0.83335650  0.85078100  1
  Se  Se0_4  1  0.66667800  0.33335650  0.35078100  1
  Se  Se0_5  1  0.66667800  0.33335650  0.85078100  1
  Se  Se0_6  1  0.66667800  0.83335650  0.35078100  1
  Se  Se0_7  1  0.66667800  0.83335650  0.85078100  1
  Se  Se1_0  1  0.33332450  0.16664950  0.21291350  1
  Se  Se1_1  1  0.33332450  0.16664950  0.71291350  1
  Se  Se1_2  1  0.33332450  0.66664950  0.21291350  1
  Se  Se1_3  1  0.33332450  0.66664950  0.71291350  1
  Se  Se1_4  1  0.83332450  0.16664950  0.21291350  1
  Se  Se1_5  1  0.83332450  0.16664950  0.71291350  1
  Se  Se1_6  1  0.83332450  0.66664950  0.21291350  1
  Se  Se1_7  1  0.83332450  0.66664950  0.71291350  1
  Se  Se2_0  1  0.33332200  0.16664350  0.25674100  1
  Se  Se2_1  1  0.33332200  0.16664350  0.75674100  1
  Se  Se2_2  1  0.33332200  0.66664350  0.25674100  1
  Se  Se2_3  1  0.33332200  0.66664350  0.75674100  1
  Se  Se2_4  1  0.83332200  0.16664350  0.25674100  1
  Se  Se2_5  1  0.83332200  0.16664350  0.75674100  1
  Se  Se2_6  1  0.83332200  0.66664350  0.25674100  1
  Se  Se2_7  1  0.83332200  0.66664350  0.75674100  1
  Se  Se3_0  1  0.16667850  0.33335600  0.30675950  1
  Se  Se3_1  1  0.16667850  0.33335600  0.80675950  1
  Se  Se3_2  1  0.16667850  0.83335600  0.30675950  1
  Se  Se3_3  1  0.16667850  0.83335600  0.80675950  1
  Se  Se3_4  1  0.66667850  0.33335600  0.30675950  1
  Se  Se3_5  1  0.66667850  0.33335600  0.80675950  1
  Se  Se3_6  1  0.66667850  0.83335600  0.30675950  1
  Se  Se3_7  1  0.66667850  0.83335600  0.80675950  1
  S  S0_0  1  0.16667650  0.33335450  0.16091850  1
  S  S0_1  1  0.16667650  0.33335450  0.66091850  1
  S  S0_2  1  0.16667650  0.83335450  0.16091850  1
  S  S0_3  1  0.16667650  0.83335450  0.66091850  1
  S  S0_4  1  0.66667650  0.33335450  0.16091850  1
  S  S0_5  1  0.66667650  0.33335450  0.66091850  1
  S  S0_6  1  0.66667650  0.83335450  0.16091850  1
  S  S0_7  1  0.66667650  0.83335450  0.66091850  1
  S  S1_0  1  0.16667650  0.33335450  0.12088800  1
  S  S1_1  1  0.16667650  0.33335450  0.62088800  1
  S  S1_2  1  0.16667650  0.83335450  0.12088800  1
  S  S1_3  1  0.16667650  0.83335450  0.62088800  1
  S  S1_4  1  0.66667650  0.33335450  0.12088800  1
  S  S1_5  1  0.66667650  0.33335450  0.62088800  1
  S  S1_6  1  0.66667650  0.83335450  0.12088800  1
  S  S1_7  1  0.66667650  0.83335450  0.62088800  1
loop_
_geom_bond_atom_site_label_1
_geom_bond_atom_site_label_2
_geom_bond_distance
_geom_bond_site_symmetry_2
Mg0_0 Mg0_4 3.338941 1_555
Mg0_0 Mg0_4 3.338941 1_455
Mg0_0 Mg0_2 3.338944 1_555
Mg0_0 Mg0_2 3.338944 1_545
Mg0_0 Mg0_6 3.338946 1_445
Mg0_0 Mg0_6 3.338946 1_555
Mg0_1 Mg0_5 3.338941 1_555
Mg0_1 Mg0_5 3.338941 1_455
Mg0_1 Mg0_3 3.338944 1_545
Mg0_1 Mg0_3 3.338944 1_555
Mg0_1 Mg0_7 3.338946 1_555
Mg0_1 Mg0_7 3.338946 1_445
Mg0_2 Mg0_6 3.338941 1_555
Mg0_2 Mg0_6 3.338941 1_455
Mg0_2 Mg0_4 3.338946 1_455
Mg0_2 Mg0_4 3.338946 1_565
Mg0_3 Mg0_7 3.338941 1_455
Mg0_3 Mg0_7 3.338941 1_555
Mg0_3 Mg0_5 3.338946 1_455
Mg0_3 Mg0_5 3.338946 1_565
Mg0_4 Mg0_6 3.338944 1_545
Mg0_4 Mg0_6 3.338944 1_555
Mg0_5 Mg0_7 3.338944 1_555
Mg0_5 Mg0_7 3.338944 1_545
Mo0_0 Te0_2 2.704465 1_555
Mo0_0 Te0_0 2.704465 1_555
Mo0_0 Te0_4 2.704465 1_455
Mo0_0 Te1_4 2.705305 1_455
Mo0_0 Te1_0 2.705309 1_555
Mo0_0 Te1_2 2.705344 1_555
Mo0_1 Te0_3 2.704465 1_555
Mo0_1 Te0_1 2.704465 1_555
Mo0_1 Te0_5 2.704465 1_455
Mo0_1 Te1_5 2.705305 1_455
Mo0_1 Te1_1 2.705309 1_555
Mo0_1 Te1_3 2.705344 1_555
Mo0_2 Te0_0 2.704465 1_565
Mo0_2 Te0_2 2.704465 1_555
Mo0_2 Te0_6 2.704465 1_455
Mo0_2 Te1_6 2.705305 1_455
Mo0_2 Te1_2 2.705309 1_555
Mo0_2 Te1_0 2.705344 1_565
Mo0_3 Te0_1 2.704465 1_565
Mo0_3 Te0_3 2.704465 1_555
Mo0_3 Te0_7 2.704465 1_455
Mo0_3 Te1_7 2.705305 1_455
Mo0_3 Te1_3 2.705309 1_555
Mo0_3 Te1_1 2.705344 1_565
Mo0_4 Te0_6 2.704465 1_555
Mo0_4 Te0_4 2.704465 1_555
Mo0_4 Te0_0 2.704465 1_555
Mo0_4 Te1_0 2.705305 1_555
Mo0_4 Te1_4 2.705309 1_555
Mo0_4 Te1_6 2.705344 1_555
Mo0_5 Te0_7 2.704465 1_555
Mo0_5 Te0_5 2.704465 1_555
Mo0_5 Te0_1 2.704465 1_555
Mo0_5 Te1_1 2.705305 1_555
Mo0_5 Te1_5 2.705309 1_555
Mo0_5 Te1_7 2.705344 1_555
Mo0_6 Te0_4 2.704465 1_565
Mo0_6 Te0_6 2.704465 1_555
Mo0_6 Te0_2 2.704465 1_555
Mo0_6 Te1_2 2.705305 1_555
Mo0_6 Te1_6 2.705309 1_555
Mo0_6 Te1_4 2.705344 1_565
Mo0_7 Te0_5 2.704465 1_565
Mo0_7 Te0_7 2.704465 1_555
Mo0_7 Te0_3 2.704465 1_555
Mo0_7 Te1_3 2.705305 1_555
Mo0_7 Te1_7 2.705309 1_555
Mo0_7 Te1_5 2.705344 1_565
Mo1_0 Se2_2 2.549086 1_555
Mo1_0 Se2_4 2.549102 1_455
Mo1_0 Se2_0 2.549104 1_555
Mo1_0 Se1_0 2.549117 1_555
Mo1_0 Se1_4 2.549120 1_455
Mo1_0 Se1_2 2.549129 1_555
Mo1_1 Se2_3 2.549086 1_555
Mo1_1 Se2_5 2.549102 1_455
Mo1_1 Se2_1 2.549104 1_555
Mo1_1 Se1_1 2.549117 1_555
Mo1_1 Se1_5 2.549120 1_455
Mo1_1 Se1_3 2.549129 1_555
Mo1_2 Se2_0 2.549086 1_565
Mo1_2 Se2_6 2.549102 1_455
Mo1_2 Se2_2 2.549104 1_555
Mo1_2 Se1_2 2.549117 1_555
Mo1_2 Se1_6 2.549120 1_455
Mo1_2 Se1_0 2.549129 1_565
Mo1_3 Se2_1 2.549086 1_565
Mo1_3 Se2_7 2.549102 1_455
Mo1_3 Se2_3 2.549104 1_555
Mo1_3 Se1_3 2.549117 1_555
Mo1_3 Se1_7 2.549120 1_455
Mo1_3 Se1_1 2.549129 1_565
Mo1_4 Se2_6 2.549086 1_555
Mo1_4 Se2_0 2.549102 1_555
Mo1_4 Se2_4 2.549104 1_555
Mo1_4 Se1_4 2.549117 1_555
Mo1_4 Se1_0 2.549120 1_555
Mo1_4 Se1_6 2.549129 1_555
Mo1_5 Se2_7 2.549086 1_555
Mo1_5 Se2_1 2.549102 1_555
Mo1_5 Se2_5 2.549104 1_555
Mo1_5 Se1_5 2.549117 1_555
Mo1_5 Se1_1 2.549120 1_555
Mo1_5 Se1_7 2.549129 1_555
Mo1_6 Se2_4 2.549086 1_565
Mo1_6 Se2_2 2.549102 1_555
Mo1_6 Se2_6 2.549104 1_555
Mo1_6 Se1_6 2.549117 1_555
Mo1_6 Se1_2 2.549120 1_555
Mo1_6 Se1_4 2.549129 1_565
Mo1_7 Se2_5 2.549086 1_565
Mo1_7 Se2_3 2.549102 1_555
Mo1_7 Se2_7 2.549104 1_555
Mo1_7 Se1_7 2.549117 1_555
Mo1_7 Se1_3 2.549120 1_555
Mo1_7 Se1_5 2.549129 1_565
Se0_0 W1_2 2.553555 1_555
Se0_0 W1_4 2.553557 1_455
Se0_0 W1_0 2.553566 1_555
Se0_1 W1_3 2.553555 1_555
Se0_1 W1_5 2.553557 1_455
Se0_1 W1_1 2.553566 1_555
Se0_2 W1_0 2.553555 1_565
Se0_2 W1_6 2.553557 1_455
Se0_2 W1_2 2.553566 1_555
Se0_3 W1_1 2.553555 1_565
Se0_3 W1_7 2.553557 1_455
Se0_3 W1_3 2.553566 1_555
Se0_4 W1_6 2.553555 1_555
Se0_4 W1_0 2.553557 1_555
Se0_4 W1_4 2.553566 1_555
Se0_5 W1_7 2.553555 1_555
Se0_5 W1_1 2.553557 1_555
Se0_5 W1_5 2.553566 1_555
Se0_6 W1_4 2.553555 1_565
Se0_6 W1_2 2.553557 1_555
Se0_6 W1_6 2.553566 1_555
Se0_7 W1_5 2.553555 1_565
Se0_7 W1_3 2.553557 1_555
Se0_7 W1_7 2.553566 1_555
Se3_0 W1_4 2.554330 1_455
Se3_0 W1_0 2.554331 1_555
Se3_0 W1_2 2.554339 1_555
Se3_1 W1_5 2.554330 1_455
Se3_1 W1_1 2.554331 1_555
Se3_1 W1_3 2.554339 1_555
Se3_2 W1_6 2.554330 1_455
Se3_2 W1_2 2.554331 1_555
Se3_2 W1_0 2.554339 1_565
Se3_3 W1_7 2.554330 1_455
Se3_3 W1_3 2.554331 1_555
Se3_3 W1_1 2.554339 1_565
Se3_4 W1_0 2.554330 1_555
Se3_4 W1_4 2.554331 1_555
Se3_4 W1_6 2.554339 1_555
Se3_5 W1_1 2.554330 1_555
Se3_5 W1_5 2.554331 1_555
Se3_5 W1_7 2.554339 1_555
Se3_6 W1_2 2.554330 1_555
Se3_6 W1_6 2.554331 1_555
Se3_6 W1_4 2.554339 1_565
Se3_7 W1_3 2.554330 1_555
Se3_7 W1_7 2.554331 1_555
Se3_7 W1_5 2.554339 1_565
S0_0 W0_4 2.456769 1_455
S0_0 W0_0 2.456773 1_555
S0_0 W0_2 2.456779 1_555
S0_1 W0_5 2.456769 1_455
S0_1 W0_1 2.456773 1_555
S0_1 W0_3 2.456779 1_555
S0_2 W0_6 2.456769 1_455
S0_2 W0_2 2.456773 1_555
S0_2 W0_0 2.456779 1_565
S0_3 W0_7 2.456769 1_455
S0_3 W0_3 2.456773 1_555
S0_3 W0_1 2.456779 1_565
S0_4 W0_0 2.456769 1_555
S0_4 W0_4 2.456773 1_555
S0_4 W0_6 2.456779 1_555
S0_5 W0_1 2.456769 1_555
S0_5 W0_5 2.456773 1_555
S0_5 W0_7 2.456779 1_555
S0_6 W0_2 2.456769 1_555
S0_6 W0_6 2.456773 1_555
S0_6 W0_4 2.456779 1_565
S0_7 W0_3 2.456769 1_555
S0_7 W0_7 2.456773 1_555
S0_7 W0_5 2.456779 1_565
S1_0 W0_4 2.457214 1_455
S1_0 W0_0 2.457218 1_555
S1_0 W0_2 2.457235 1_555
S1_1 W0_5 2.457214 1_455
S1_1 W0_1 2.457218 1_555
S1_1 W0_3 2.457235 1_555
S1_2 W0_6 2.457214 1_455
S1_2 W0_2 2.457218 1_555
S1_2 W0_0 2.457235 1_565
S1_3 W0_7 2.457214 1_455
S1_3 W0_3 2.457218 1_555
S1_3 W0_1 2.457235 1_565
S1_4 W0_0 2.457214 1_555
S1_4 W0_4 2.457218 1_555
S1_4 W0_6 2.457235 1_555
S1_5 W0_1 2.457214 1_555
S1_5 W0_5 2.457218 1_555
S1_5 W0_7 2.457235 1_555
S1_6 W0_2 2.457214 1_555
S1_6 W0_6 2.457218 1_555
S1_6 W0_4 2.457235 1_565
S1_7 W0_3 2.457214 1_555
S1_7 W0_7 2.457218 1_555
S1_7 W0_5 2.457235 1_565
