# generated using pymatgen
data_Nb2Si3Sn2(SO8)3
_symmetry_space_group_name_H-M   'P 1'
_cell_length_a   8.88951380
_cell_length_b   8.88311966
_cell_length_c   22.95183422
_cell_angle_alpha   90.15452374
_cell_angle_beta   90.21378895
_cell_angle_gamma   119.80988280
_symmetry_Int_Tables_number   1
_chemical_formula_structural   Nb2Si3Sn2(SO8)3
_chemical_formula_sum   'Nb6 Si9 Sn6 S9 O72'
_cell_volume   1572.57499531
_cell_formula_units_Z   3
loop_
 _symmetry_equiv_pos_site_id
 _symmetry_equiv_pos_as_xyz
  1  'x, y, z'
loop_
 _atom_site_type_symbol
 _atom_site_label
 _atom_site_symmetry_multiplicity
 _atom_site_fract_x
 _atom_site_fract_y
 _atom_site_fract_z
 _atom_site_occupancy
  Nb  Nb0  1  0.98673948  0.01046183  0.64260198  1
  Nb  Nb1  1  0.01181983  0.01618870  0.13748398  1
  Nb  Nb2  1  0.65674347  0.33859853  0.97505984  1
  Nb  Nb3  1  0.67556484  0.33029272  0.48171159  1
  Nb  Nb4  1  0.33495333  0.66988389  0.31002949  1
  Nb  Nb5  1  0.34238575  0.67922787  0.80433524  1
  Si  Si0  1  0.99316786  0.28634904  0.24903266  1
  Si  Si1  1  0.29173043  0.28614623  0.74909680  1
  Si  Si2  1  0.72176947  0.01134808  0.75160078  1
  Si  Si3  1  0.96189412  0.34528810  0.58544656  1
  Si  Si4  1  0.67158504  0.62031877  0.58500492  1
  Si  Si5  1  0.95477936  0.61944141  0.08268507  1
  Si  Si6  1  0.39143729  0.34738994  0.08349631  1
  Si  Si7  1  0.32662478  0.94928850  0.91599033  1
  Si  Si8  1  0.62004953  0.95457528  0.41778237  1
  Sn  Sn0  1  0.98952791  0.00546728  0.35478995  1
  Sn  Sn1  1  0.01425460  0.01108968  0.85178563  1
  Sn  Sn2  1  0.66738577  0.33597578  0.68912694  1
  Sn  Sn3  1  0.67743875  0.34203822  0.18491582  1
  Sn  Sn4  1  0.32041267  0.66392453  0.02094481  1
  Sn  Sn5  1  0.34691437  0.66923026  0.52493099  1
  S  S0  1  0.28706035  0.00202438  0.25024030  1
  S  S1  1  0.71239321  0.71113592  0.25013789  1
  S  S2  1  0.99872748  0.71272389  0.74993396  1
  S  S3  1  0.37620341  0.04510472  0.58317978  1
  S  S4  1  0.66372208  0.04411343  0.08234987  1
  S  S5  1  0.62229507  0.67252743  0.91572840  1
  S  S6  1  0.04272619  0.37640509  0.91596472  1
  S  S7  1  0.33362072  0.37728241  0.41569067  1
  S  S8  1  0.04633728  0.66999126  0.41551472  1
  O  O0  1  0.20943754  0.02710447  0.30409204  1
  O  O1  1  0.81989426  0.78428552  0.30372191  1
  O  O2  1  0.96944689  0.17351701  0.30668607  1
  O  O3  1  0.21364061  0.17463472  0.80752920  1
  O  O4  1  0.96870908  0.78561124  0.80395741  1
  O  O5  1  0.82703572  0.02623761  0.81063781  1
  O  O6  1  0.80301536  0.96598325  0.69360251  1
  O  O7  1  0.16215254  0.18925861  0.69280391  1
  O  O8  1  0.03395629  0.82179647  0.69848459  1
  O  O9  1  0.78812380  0.82020567  0.19898904  1
  O  O10  1  0.02651711  0.18947201  0.19309557  1
  O  O11  1  0.17521460  0.96762575  0.19830821  1
  O  O12  1  0.87001760  0.36874231  0.64092531  1
  O  O13  1  0.48580652  0.11702052  0.63489878  1
  O  O14  1  0.63354721  0.49838053  0.64019132  1
  O  O15  1  0.87735218  0.50724990  0.14112598  1
  O  O16  1  0.63163432  0.11502418  0.13656851  1
  O  O17  1  0.49250348  0.36080039  0.14359253  1
  O  O18  1  0.47500593  0.30244571  0.02649807  1
  O  O19  1  0.82768667  0.52362206  0.02607820  1
  O  O20  1  0.69977122  0.15619180  0.03148015  1
  O  O21  1  0.46065961  0.15675547  0.52992379  1
  O  O22  1  0.69249480  0.51990864  0.52548464  1
  O  O23  1  0.83175346  0.30130988  0.52603613  1
  O  O24  1  0.54597577  0.69664441  0.96984169  1
  O  O25  1  0.15136368  0.44848149  0.96978864  1
  O  O26  1  0.30693685  0.83970103  0.97451682  1
  O  O27  1  0.52459526  0.83177836  0.47209008  1
  O  O28  1  0.29445203  0.44965282  0.46724096  1
  O  O29  1  0.15199171  0.70033737  0.46775555  1
  O  O30  1  0.12891687  0.63951827  0.36256009  1
  O  O31  1  0.49403611  0.85275591  0.35949172  1
  O  O32  1  0.35665664  0.48874360  0.36309064  1
  O  O33  1  0.12223810  0.48591796  0.86525135  1
  O  O34  1  0.35834249  0.85299385  0.85993250  1
  O  O35  1  0.50963443  0.63559903  0.86432308  1
  O  O36  1  0.02943638  0.82638902  0.40478689  1
  O  O37  1  0.80798668  0.96998887  0.40953413  1
  O  O38  1  0.18227959  0.20001623  0.40698711  1
  O  O39  1  0.01817508  0.19983092  0.91077279  1
  O  O40  1  0.15871484  0.97286986  0.90897511  1
  O  O41  1  0.79732770  0.81968737  0.90875413  1
  O  O42  1  0.97513311  0.16767094  0.59020175  1
  O  O43  1  0.20523879  0.02958170  0.58915876  1
  O  O44  1  0.84941079  0.80775998  0.59367743  1
  O  O45  1  0.96786821  0.81091033  0.09736964  1
  O  O46  1  0.82330880  0.02753090  0.09166355  1
  O  O47  1  0.19703875  0.16823592  0.09274157  1
  O  O48  1  0.68951933  0.16911493  0.74075777  1
  O  O49  1  0.48286219  0.31708078  0.74089208  1
  O  O50  1  0.84983039  0.53781397  0.74456910  1
  O  O51  1  0.68383954  0.53377045  0.24471409  1
  O  O52  1  0.82338784  0.30648474  0.24153932  1
  O  O53  1  0.46153567  0.15120769  0.24269412  1
  O  O54  1  0.63757194  0.51033888  0.92334624  1
  O  O55  1  0.86934744  0.36080315  0.92611120  1
  O  O56  1  0.50523862  0.14258451  0.92838110  1
  O  O57  1  0.63389533  0.14451132  0.42610904  1
  O  O58  1  0.49031638  0.36360801  0.42205189  1
  O  O59  1  0.87251507  0.51420213  0.42167931  1
  O  O60  1  0.36383891  0.50810725  0.07113532  1
  O  O61  1  0.14671262  0.65038407  0.07608414  1
  O  O62  1  0.51756936  0.86829876  0.07497926  1
  O  O63  1  0.35543388  0.87136477  0.57378083  1
  O  O64  1  0.50648884  0.64562480  0.57608938  1
  O  O65  1  0.14364417  0.50978742  0.56906304  1
  O  O66  1  0.30230080  0.84107484  0.25891990  1
  O  O67  1  0.53591001  0.69423747  0.25994518  1
  O  O68  1  0.16845470  0.47936216  0.26319423  1
  O  O69  1  0.30198359  0.47598723  0.76358310  1
  O  O70  1  0.15671789  0.69317424  0.75861420  1
  O  O71  1  0.52838559  0.83146345  0.75995613  1
loop_
_geom_bond_atom_site_label_1
_geom_bond_atom_site_label_2
_geom_bond_distance
_geom_bond_site_symmetry_2
Nb0 O42 1.886454 1_555
Nb0 O6 1.889150 1_545
Nb0 O44 1.945976 1_545
Nb0 O7 1.948354 1_655
Nb0 O43 2.235415 1_655
Nb0 O8 2.310196 1_645
Nb1 O47 1.843596 1_555
Nb1 O45 1.898797 1_445
Nb1 O10 1.950352 1_555
Nb1 O46 2.019813 1_455
Nb1 O11 2.203600 1_545
Nb1 O9 2.360115 1_445
Nb2 O18 1.899319 1_556
Nb2 O56 1.908171 1_555
Nb2 O19 1.968460 1_556
Nb2 O54 2.007988 1_555
Nb2 O55 2.125880 1_555
Nb2 O20 2.252228 1_556
Nb3 O23 1.837197 1_555
Nb3 O22 1.899173 1_555
Nb3 O57 1.966396 1_555
Nb3 O21 2.085048 1_555
Nb3 O59 2.195230 1_555
Nb3 O58 2.268109 1_555
Nb4 O31 1.903047 1_555
Nb4 O68 1.923093 1_555
Nb4 O67 2.047410 1_555
Nb4 O66 2.053979 1_555
Nb4 O30 2.099539 1_555
Nb4 O32 2.104051 1_555
Nb5 O71 1.843108 1_555
Nb5 O69 1.899223 1_555
Nb5 O34 1.949726 1_555
Nb5 O70 2.007926 1_555
Nb5 O35 2.194725 1_555
Nb5 O33 2.329282 1_555
O0 S0 1.487006 1_555
O0 Sn0 2.203889 1_455
O1 S1 1.489137 1_555
O1 Sn0 2.129969 1_565
O2 Si0 1.612193 1_555
O2 Sn0 1.936925 1_555
O3 Si1 1.610025 1_555
O3 Sn1 1.935241 1_555
O4 S2 1.482494 1_555
O4 Sn1 2.135258 1_665
O5 Si2 1.611121 1_555
O5 Sn1 1.972686 1_655
O6 Si2 1.658216 1_565
O7 Si1 1.653518 1_555
O8 S2 1.462369 1_455
O9 S1 1.460701 1_555
O10 Si0 1.651454 1_455
O11 S0 1.479782 1_565
O12 Si3 1.583470 1_555
O12 Sn2 2.012127 1_555
O13 S3 1.461135 1_555
O13 Sn2 2.188179 1_555
O14 Si4 1.593244 1_555
O14 Sn2 1.967469 1_555
O15 Si5 1.611900 1_555
O15 Sn3 1.936583 1_555
O16 S4 1.484516 1_555
O16 Sn3 2.152197 1_555
O17 Si6 1.614726 1_555
O17 Sn3 1.972726 1_555
O18 Si6 1.649855 1_555
O19 Si5 1.647997 1_555
O20 S4 1.465930 1_555
O21 S3 1.521336 1_555
O22 Si4 1.690126 1_555
O23 Si3 1.698927 1_555
O24 S5 1.482600 1_555
O24 Sn4 2.218276 1_556
O25 S6 1.496914 1_555
O25 Sn4 2.101140 1_556
O26 Si7 1.619300 1_555
O26 Sn4 1.944730 1_556
O27 Si8 1.599538 1_555
O27 Sn5 1.951103 1_555
O28 S7 1.468316 1_555
O28 Sn5 2.202800 1_555
O29 S8 1.459650 1_555
O29 Sn5 2.293898 1_555
O30 S8 1.513881 1_555
O31 Si8 1.684565 1_555
O32 S7 1.512110 1_555
O33 S6 1.459239 1_555
O34 Si7 1.644137 1_555
O35 S5 1.471428 1_555
O36 S8 1.490789 1_555
O36 Sn0 2.130995 1_465
O37 Si8 1.618886 1_555
O37 Sn0 1.947831 1_565
O38 S7 1.489789 1_555
O38 Sn0 2.094573 1_455
O39 S6 1.476671 1_555
O39 Sn1 2.138807 1_555
O40 Si7 1.614631 1_555
O40 Sn1 1.977531 1_565
O41 S5 1.461567 1_555
O41 Sn1 2.256118 1_665
O42 Si3 1.643365 1_555
O43 S3 1.463185 1_555
O44 Si4 1.640072 1_555
O45 Si5 1.679241 1_555
O46 S4 1.511832 1_555
O47 Si6 1.683531 1_555
O48 Si2 1.583995 1_555
O48 Sn2 1.984374 1_555
O49 Si1 1.592565 1_555
O49 Sn2 1.967819 1_555
O50 S2 1.460916 1_555
O50 Sn2 2.132004 1_555
O51 S1 1.470849 1_555
O51 Sn3 2.162919 1_555
O52 Si0 1.614335 1_555
O52 Sn3 1.966993 1_555
O53 S0 1.466783 1_555
O53 Sn3 2.261005 1_555
O54 S5 1.523306 1_555
O55 S6 1.496454 1_655
O56 Si7 1.683336 1_545
O57 Si8 1.640126 1_545
O58 S7 1.463962 1_555
O59 S8 1.483041 1_655
O60 Si6 1.590231 1_555
O60 Sn4 1.982029 1_555
O61 Si5 1.595455 1_455
O61 Sn4 1.957319 1_555
O62 S4 1.461257 1_565
O62 Sn4 2.171134 1_555
O63 S3 1.475520 1_565
O63 Sn5 2.083324 1_555
O64 Si4 1.603856 1_555
O64 Sn5 1.928616 1_555
O65 Si3 1.596009 1_455
O65 Sn5 1.942679 1_555
O66 S0 1.515289 1_565
O67 S1 1.517617 1_555
O68 Si0 1.676402 1_455
O69 Si1 1.675309 1_555
O70 S2 1.510943 1_455
O71 Si2 1.678799 1_565
