# generated using pymatgen
data_Na3TiGaSi(PO6)2
_symmetry_space_group_name_H-M   'P 1'
_cell_length_a   15.29477024
_cell_length_b   8.84097645
_cell_length_c   8.84902642
_cell_angle_alpha   90.00000000
_cell_angle_beta   124.83615502
_cell_angle_gamma   90.00000000
_symmetry_Int_Tables_number   1
_chemical_formula_structural   Na3TiGaSi(PO6)2
_chemical_formula_sum   'Na12 Ti4 Ga4 Si4 P8 O48'
_cell_volume   982.13268315
_cell_formula_units_Z   4
loop_
 _symmetry_equiv_pos_site_id
 _symmetry_equiv_pos_as_xyz
  1  'x, y, z'
loop_
 _atom_site_type_symbol
 _atom_site_label
 _atom_site_symmetry_multiplicity
 _atom_site_fract_x
 _atom_site_fract_y
 _atom_site_fract_z
 _atom_site_occupancy
  Na  Na0  1  0.25150713  0.72827624  0.99575410  1
  Na  Na1  1  0.75150713  0.77172376  0.49575410  1
  Na  Na2  1  0.75150713  0.22827624  0.99575410  1
  Na  Na3  1  0.25150713  0.27172376  0.49575410  1
  Na  Na4  1  0.50190219  0.10848536  0.75340445  1
  Na  Na5  1  0.50190219  0.89151464  0.25340445  1
  Na  Na6  1  0.00190219  0.60848536  0.75340445  1
  Na  Na7  1  0.00190219  0.39151464  0.25340445  1
  Na  Na8  1  0.18955755  0.93374829  0.28550185  1
  Na  Na9  1  0.18955755  0.06625171  0.78550185  1
  Na  Na10  1  0.68955755  0.43374829  0.28550185  1
  Na  Na11  1  0.68955755  0.56625171  0.78550185  1
  Ti  Ti0  1  0.89600556  0.75766390  0.93766467  1
  Ti  Ti1  1  0.89600556  0.24233610  0.43766467  1
  Ti  Ti2  1  0.39600556  0.25766390  0.93766467  1
  Ti  Ti3  1  0.39600556  0.74233610  0.43766467  1
  Ga  Ga0  1  0.10462782  0.74143603  0.56042070  1
  Ga  Ga1  1  0.10462782  0.25856397  0.06042070  1
  Ga  Ga2  1  0.60462782  0.24143603  0.56042070  1
  Ga  Ga3  1  0.60462782  0.75856397  0.06042070  1
  Si  Si0  1  0.64490028  0.89748526  0.74579550  1
  Si  Si1  1  0.64490028  0.10251474  0.24579550  1
  Si  Si2  1  0.14490028  0.39748526  0.74579550  1
  Si  Si3  1  0.14490028  0.60251474  0.24579550  1
  P  P0  1  0.00049697  0.96099928  0.75624311  1
  P  P1  1  0.00049697  0.03900072  0.25624311  1
  P  P2  1  0.50049697  0.46099928  0.75624311  1
  P  P3  1  0.50049697  0.53900072  0.25624311  1
  P  P4  1  0.35286071  0.89158079  0.75593871  1
  P  P5  1  0.35286071  0.10841921  0.25593871  1
  P  P6  1  0.85286071  0.39158079  0.75593871  1
  P  P7  1  0.85286071  0.60841921  0.25593871  1
  O  O0  1  0.14797104  0.58059094  0.73728708  1
  O  O1  1  0.84848467  0.56905395  0.75845364  1
  O  O2  1  0.84848467  0.43094605  0.25845364  1
  O  O3  1  0.14797104  0.41940906  0.23728708  1
  O  O4  1  0.64797104  0.08059094  0.73728708  1
  O  O5  1  0.34848467  0.06905395  0.75845364  1
  O  O6  1  0.34848467  0.93094605  0.25845364  1
  O  O7  1  0.64797104  0.91940906  0.23728708  1
  O  O8  1  0.43660839  0.56754706  0.58549642  1
  O  O9  1  0.56801731  0.55509898  0.93276002  1
  O  O10  1  0.56801731  0.44490102  0.43276002  1
  O  O11  1  0.43660839  0.43245294  0.08549642  1
  O  O12  1  0.93660839  0.06754706  0.58549642  1
  O  O13  1  0.06801731  0.05509898  0.93276002  1
  O  O14  1  0.06801731  0.94490102  0.43276002  1
  O  O15  1  0.93660839  0.93245294  0.08549642  1
  O  O16  1  0.25340698  0.83504094  0.74219059  1
  O  O17  1  0.74583208  0.81259169  0.76150996  1
  O  O18  1  0.74583208  0.18740831  0.26150996  1
  O  O19  1  0.25340698  0.16495906  0.24219059  1
  O  O20  1  0.75340698  0.33504094  0.74219059  1
  O  O21  1  0.24583208  0.31259169  0.76150996  1
  O  O22  1  0.24583208  0.68740831  0.26150996  1
  O  O23  1  0.75340698  0.66495906  0.24219059  1
  O  O24  1  0.35355400  0.85452352  0.58362431  1
  O  O25  1  0.64081849  0.85542423  0.91886918  1
  O  O26  1  0.64081849  0.14457577  0.41886918  1
  O  O27  1  0.35355400  0.14547648  0.08362431  1
  O  O28  1  0.85355400  0.35452352  0.58362431  1
  O  O29  1  0.14081849  0.35542423  0.91886918  1
  O  O30  1  0.14081849  0.64457577  0.41886918  1
  O  O31  1  0.85355400  0.64547648  0.08362431  1
  O  O32  1  0.45285271  0.83013257  0.93376777  1
  O  O33  1  0.53403858  0.82704015  0.55847623  1
  O  O34  1  0.53403858  0.17295985  0.05847623  1
  O  O35  1  0.45285271  0.16986743  0.43376777  1
  O  O36  1  0.95285271  0.33013257  0.93376777  1
  O  O37  1  0.03403858  0.32704015  0.55847623  1
  O  O38  1  0.03403858  0.67295985  0.05847623  1
  O  O39  1  0.95285271  0.66986743  0.43376777  1
  O  O40  1  0.07799941  0.86004740  0.74186530  1
  O  O41  1  0.91855813  0.85654627  0.75497643  1
  O  O42  1  0.91855813  0.14345373  0.25497643  1
  O  O43  1  0.07799941  0.13995260  0.24186530  1
  O  O44  1  0.57799941  0.36004740  0.74186530  1
  O  O45  1  0.41855813  0.35654627  0.75497643  1
  O  O46  1  0.41855813  0.64345373  0.25497643  1
  O  O47  1  0.57799941  0.63995260  0.24186530  1
loop_
_geom_bond_atom_site_label_1
_geom_bond_atom_site_label_2
_geom_bond_distance
_geom_bond_site_symmetry_2
Na0 O0 2.303431 1_555
Na0 O46 2.378330 1_556
Na0 O22 2.429338 1_556
Na0 O16 2.449670 1_555
Na0 O40 2.575976 1_555
Na0 O6 2.622074 1_556
Na1 O7 2.303431 1_555
Na1 O41 2.378330 1_555
Na1 O17 2.429338 1_555
Na1 O23 2.449670 1_555
Na1 O47 2.575976 1_555
Na1 O1 2.622074 1_555
Na2 O4 2.303431 1_555
Na2 O42 2.378330 1_556
Na2 O18 2.429338 1_556
Na2 O20 2.449670 1_555
Na2 O44 2.575976 1_555
Na2 O2 2.622074 1_556
Na3 O3 2.303431 1_555
Na3 O45 2.378330 1_555
Na3 O21 2.429338 1_555
Na3 O19 2.449670 1_555
Na3 O43 2.575976 1_555
Na3 O5 2.622074 1_555
Na4 O4 2.331596 1_555
Na4 O5 2.397770 1_555
Na4 O34 2.517609 1_556
Na4 O35 2.536404 1_555
Na4 O44 2.539145 1_555
Na4 O45 2.540684 1_555
Na4 O25 2.847731 1_545
Na4 O24 2.924392 1_545
Na5 O7 2.331596 1_555
Na5 O6 2.397770 1_555
Na5 O33 2.517609 1_555
Na5 O32 2.536404 1_554
Na5 O47 2.539145 1_555
Na5 O46 2.540684 1_555
Na5 O26 2.847731 1_565
Na5 O27 2.924392 1_565
Na6 O0 2.331596 1_555
Na6 O1 2.397770 1_455
Na6 O38 2.517609 1_556
Na6 O39 2.536404 1_455
Na6 O40 2.539145 1_555
Na6 O41 2.540684 1_455
Na6 O29 2.847731 1_555
Na6 O28 2.924392 1_455
Na7 O3 2.331596 1_555
Na7 O2 2.397770 1_455
Na7 O37 2.517609 1_555
Na7 O36 2.536404 1_454
Na7 O43 2.539145 1_555
Na7 O42 2.540684 1_455
Na7 O30 2.847731 1_555
Na7 O31 2.924392 1_455
Na8 O43 2.373015 1_565
Na8 O19 2.388855 1_565
Na8 O22 2.395379 1_555
Na8 O24 2.486332 1_555
Na8 O6 2.575103 1_555
Na8 O13 2.778628 1_564
Na8 O14 2.816175 1_555
Na9 O40 2.373015 1_545
Na9 O16 2.388855 1_545
Na9 O21 2.395379 1_555
Na9 O27 2.486332 1_556
Na9 O5 2.575103 1_555
Na9 O14 2.778628 1_545
Na9 O13 2.816175 1_555
Na10 O47 2.373015 1_555
Na10 O23 2.388855 1_555
Na10 O18 2.395379 1_555
Na10 O28 2.486332 1_555
Na10 O2 2.575103 1_555
Na10 O9 2.778628 1_554
Na10 O10 2.816175 1_555
Na11 O44 2.373015 1_555
Na11 O20 2.388855 1_555
Na11 O17 2.395379 1_555
Na11 O31 2.486332 1_556
Na11 O1 2.575103 1_555
Na11 O10 2.778628 1_555
Na11 O9 2.816175 1_555
Ga0 O30 1.844132 1_555
Ga0 O0 1.930234 1_555
Ga0 O39 2.018132 1_455
Ga0 O14 2.025540 1_555
Ga0 O16 2.066049 1_555
Ga0 O40 2.142564 1_555
Ga1 O29 1.844132 1_554
Ga1 O3 1.930234 1_555
Ga1 O36 2.018132 1_454
Ga1 O13 2.025540 1_554
Ga1 O19 2.066049 1_555
Ga1 O43 2.142564 1_555
Ga2 O26 1.844132 1_555
Ga2 O4 1.930234 1_555
Ga2 O35 2.018132 1_555
Ga2 O10 2.025540 1_555
Ga2 O20 2.066049 1_555
Ga2 O44 2.142564 1_555
Ga3 O25 1.844132 1_554
Ga3 O7 1.930234 1_555
Ga3 O32 2.018132 1_554
Ga3 O9 2.025540 1_554
Ga3 O23 2.066049 1_555
Ga3 O47 2.142564 1_555
O0 Si2 1.622509 1_555
O1 P6 1.571162 1_555
O1 Ti0 2.122941 1_555
O2 P7 1.571162 1_555
O2 Ti1 2.122941 1_555
O3 Si3 1.622509 1_555
O4 Si0 1.622509 1_545
O5 P4 1.571162 1_545
O5 Ti2 2.122941 1_555
O6 P5 1.571162 1_565
O6 Ti3 2.122941 1_555
O7 Si1 1.622509 1_565
O8 P2 1.561524 1_555
O8 Ti3 1.885949 1_555
O9 P2 1.534781 1_555
O10 P3 1.534781 1_555
O11 P3 1.561524 1_555
O11 Ti2 1.885949 1_554
O12 P0 1.561524 1_645
O12 Ti1 1.885949 1_555
O13 P0 1.534781 1_545
O14 P1 1.534781 1_565
O15 P1 1.561524 1_665
O15 Ti0 1.885949 1_554
O16 P4 1.538525 1_555
O17 Si0 1.649394 1_555
O17 Ti0 1.962360 1_555
O18 Si1 1.649394 1_555
O18 Ti1 1.962360 1_555
O19 P5 1.538525 1_555
O20 P6 1.538525 1_555
O21 Si2 1.649394 1_555
O21 Ti2 1.962360 1_555
O22 Si3 1.649394 1_555
O22 Ti3 1.962360 1_555
O23 P7 1.538525 1_555
O24 P4 1.565561 1_555
O24 Ti3 2.007899 1_555
O25 Si0 1.611524 1_555
O26 Si1 1.611524 1_555
O27 P5 1.565561 1_555
O27 Ti2 2.007899 1_554
O28 P6 1.565561 1_555
O28 Ti1 2.007899 1_555
O29 Si2 1.611524 1_555
O30 Si3 1.611524 1_555
O31 P7 1.565561 1_555
O31 Ti0 2.007899 1_554
O32 P4 1.536507 1_555
O33 Si0 1.673183 1_555
O33 Ti3 1.892687 1_555
O34 Si1 1.673183 1_555
O34 Ti2 1.892687 1_554
O35 P5 1.536507 1_555
O36 P6 1.536507 1_555
O37 Si2 1.673183 1_555
O37 Ti1 1.892687 1_455
O38 Si3 1.673183 1_555
O38 Ti0 1.892687 1_454
O39 P7 1.536507 1_555
O40 P0 1.546027 1_555
O41 P0 1.551602 1_655
O41 Ti0 2.033161 1_555
O42 P1 1.551602 1_655
O42 Ti1 2.033161 1_555
O43 P1 1.546027 1_555
O44 P2 1.546027 1_555
O45 P2 1.551602 1_555
O45 Ti2 2.033161 1_555
O46 P3 1.551602 1_555
O46 Ti3 2.033161 1_555
O47 P3 1.546027 1_555
