# generated using pymatgen
data_Tl4SiSe4
_symmetry_space_group_name_H-M   'P 1'
_cell_length_a   7.00227686
_cell_length_b   7.00227686
_cell_length_c   25.10411428
_cell_angle_alpha   81.71584238
_cell_angle_beta   81.71584238
_cell_angle_gamma   63.73655802
_symmetry_Int_Tables_number   1
_chemical_formula_structural   Tl4SiSe4
_chemical_formula_sum   'Tl16 Si4 Se16'
_cell_volume   1087.83277896
_cell_formula_units_Z   4
loop_
 _symmetry_equiv_pos_site_id
 _symmetry_equiv_pos_as_xyz
  1  'x, y, z'
loop_
 _atom_site_type_symbol
 _atom_site_label
 _atom_site_symmetry_multiplicity
 _atom_site_fract_x
 _atom_site_fract_y
 _atom_site_fract_z
 _atom_site_occupancy
  Tl  Tl0  1  0.17118074  0.82881926  0.25000000  1
  Tl  Tl1  1  0.82881926  0.17118074  0.75000000  1
  Tl  Tl2  1  0.00000000  -0.00000000  0.50000000  1
  Tl  Tl3  1  0.00000000  -0.00000000  -0.00000000  1
  Tl  Tl4  1  0.05729717  0.33146880  0.33576058  1
  Tl  Tl5  1  0.66853120  0.94270283  0.16423942  1
  Tl  Tl6  1  0.94270283  0.66853120  0.66423942  1
  Tl  Tl7  1  0.33146880  0.05729717  0.83576058  1
  Tl  Tl8  1  0.89692576  0.32606758  0.17641327  1
  Tl  Tl9  1  0.67393242  0.10307424  0.32358673  1
  Tl  Tl10  1  0.10307424  0.67393242  0.82358673  1
  Tl  Tl11  1  0.32606758  0.89692576  0.67641327  1
  Tl  Tl12  1  0.27412304  0.34880573  0.50013243  1
  Tl  Tl13  1  0.65119427  0.72587696  0.99986757  1
  Tl  Tl14  1  0.72587696  0.65119427  0.49986757  1
  Tl  Tl15  1  0.34880573  0.27412304  0.00013243  1
  Si  Si0  1  0.44124773  0.68642144  0.37661429  1
  Si  Si1  1  0.68642144  0.44124773  0.87661429  1
  Si  Si2  1  0.55875227  0.31357856  0.62338571  1
  Si  Si3  1  0.31357856  0.55875227  0.12338571  1
  Se  Se0  1  0.60110585  0.69456189  0.29125107  1
  Se  Se1  1  0.70511417  0.10587082  0.88188711  1
  Se  Se2  1  0.10587082  0.70511417  0.38188711  1
  Se  Se3  1  0.29488583  0.89412918  0.11811289  1
  Se  Se4  1  0.33900591  0.62544494  0.57734476  1
  Se  Se5  1  0.89412918  0.29488583  0.61811289  1
  Se  Se6  1  0.66099409  0.37455506  0.42265524  1
  Se  Se7  1  0.62544494  0.33900591  0.07734476  1
  Se  Se8  1  0.96918616  0.41769862  0.91708081  1
  Se  Se9  1  0.58230138  0.03081384  0.58291919  1
  Se  Se10  1  0.03081384  0.58230138  0.08291919  1
  Se  Se11  1  0.41769862  0.96918616  0.41708081  1
  Se  Se12  1  0.30543811  0.39889415  0.20874893  1
  Se  Se13  1  0.39889415  0.30543811  0.70874893  1
  Se  Se14  1  0.69456189  0.60110585  0.79125107  1
  Se  Se15  1  0.37455506  0.66099409  0.92265524  1
loop_
_geom_bond_atom_site_label_1
_geom_bond_atom_site_label_2
_geom_bond_distance
_geom_bond_site_symmetry_2
Se0 Si0 2.275649 1_555
Se0 Tl0 3.021952 1_555
Se0 Tl4 3.307421 1_655
Se1 Si1 2.278821 1_555
Se1 Tl7 3.174279 1_555
Se1 Tl1 3.318042 1_555
Se2 Si0 2.278821 1_555
Se2 Tl4 3.174279 1_555
Se2 Tl0 3.318042 1_555
Se3 Si3 2.278821 1_555
Se3 Tl5 3.174279 1_555
Se3 Tl0 3.318042 1_555
Se4 Si2 2.298656 1_555
Se4 Tl12 3.135381 1_555
Se4 Tl14 3.157050 1_555
Se4 Tl6 3.202288 1_455
Se4 Tl2 3.261082 1_565
Se4 Tl11 3.309425 1_555
Se5 Si2 2.278821 1_555
Se5 Tl6 3.174279 1_555
Se5 Tl1 3.318042 1_555
Se6 Si0 2.298656 1_555
Se6 Tl14 3.135381 1_555
Se6 Tl12 3.157050 1_555
Se6 Tl4 3.202288 1_655
Se6 Tl2 3.261082 1_655
Se6 Tl9 3.309425 1_555
Se7 Si3 2.298656 1_555
Se7 Tl15 3.135381 1_555
Se7 Tl13 3.157050 1_554
Se7 Tl5 3.202288 1_545
Se7 Tl3 3.261082 1_655
Se7 Tl8 3.309425 1_555
Se8 Si1 2.285167 1_555
Se8 Tl10 3.041060 1_655
Se8 Tl13 3.104911 1_555
Se8 Tl3 3.278845 1_656
Se8 Tl15 3.324406 1_656
Se8 Tl7 3.361283 1_655
Se9 Si2 2.285167 1_555
Se9 Tl11 3.041060 1_545
Se9 Tl12 3.104911 1_555
Se9 Tl2 3.278845 1_655
Se9 Tl14 3.324406 1_545
Se9 Tl6 3.361283 1_545
Se10 Si3 2.285167 1_555
Se10 Tl8 3.041060 1_455
Se10 Tl15 3.104911 1_555
Se10 Tl3 3.278845 1_565
Se10 Tl13 3.324406 1_454
Se10 Tl5 3.361283 1_455
Se11 Si0 2.285167 1_555
Se11 Tl9 3.041060 1_565
Se11 Tl14 3.104911 1_555
Se11 Tl2 3.278845 1_565
Se11 Tl12 3.324406 1_565
Se11 Tl4 3.361283 1_565
Se12 Si3 2.275649 1_555
Se12 Tl0 3.021952 1_555
Se12 Tl5 3.307421 1_545
Se13 Si2 2.275649 1_555
Se13 Tl1 3.021952 1_555
Se13 Tl6 3.307421 1_455
Se14 Si1 2.275649 1_555
Se14 Tl1 3.021952 1_555
Se14 Tl7 3.307421 1_565
Se15 Si1 2.298656 1_555
Se15 Tl13 3.135381 1_555
Se15 Tl15 3.157050 1_556
Se15 Tl7 3.202288 1_565
Se15 Tl3 3.261082 1_566
Se15 Tl10 3.309425 1_555
