# generated using pymatgen
data_Na4Mg(FeO3)2
_symmetry_space_group_name_H-M   'P 1'
_cell_length_a   6.90619670
_cell_length_b   6.03381715
_cell_length_c   5.57441973
_cell_angle_alpha   73.39510752
_cell_angle_beta   85.96098718
_cell_angle_gamma   52.16138414
_symmetry_Int_Tables_number   1
_chemical_formula_structural   Na4Mg(FeO3)2
_chemical_formula_sum   'Na4 Mg1 Fe2 O6'
_cell_volume   174.10317544
_cell_formula_units_Z   1
loop_
 _symmetry_equiv_pos_site_id
 _symmetry_equiv_pos_as_xyz
  1  'x, y, z'
loop_
 _atom_site_type_symbol
 _atom_site_label
 _atom_site_symmetry_multiplicity
 _atom_site_fract_x
 _atom_site_fract_y
 _atom_site_fract_z
 _atom_site_occupancy
  Na  Na0  1  0.55759969  0.51767558  0.43383489  1
  Na  Na1  1  0.07792114  0.36288570  0.50689322  1
  Na  Na2  1  0.73424409  0.98605755  0.02254090  1
  Na  Na3  1  0.22327454  0.40182902  0.01825865  1
  Mg  Mg0  1  0.68360288  0.58092283  0.89115246  1
  Fe  Fe0  1  0.02673102  0.89640703  0.54815521  1
  Fe  Fe1  1  0.16388443  0.94627691  0.02228195  1
  O  O0  1  0.34086352  0.68907159  0.76867251  1
  O  O1  1  0.16963052  0.65571114  0.29221027  1
  O  O2  1  0.87059162  0.73061934  0.71415239  1
  O  O3  1  0.88152582  0.20531999  0.75245207  1
  O  O4  1  0.45216856  0.91265660  0.05994538  1
  O  O5  1  0.92389219  0.23780273  0.22755010  1
loop_
_geom_bond_atom_site_label_1
_geom_bond_atom_site_label_2
_geom_bond_distance
_geom_bond_site_symmetry_2
Na0 O3 2.277049 1_555
Na0 O0 2.367363 1_555
Na0 O1 2.383350 1_555
Na0 O4 2.408277 1_555
Na0 O5 2.456080 1_555
Na1 O1 2.238923 1_555
Na1 O3 2.279038 1_455
Na1 O2 2.375403 1_455
Na1 O5 2.452758 1_455
Na2 O4 2.232291 1_555
Na2 O3 2.312689 1_564
Na2 O2 2.392312 1_554
Na2 O1 2.616302 1_655
Na3 O4 2.280360 1_545
Na3 O1 2.318849 1_555
Na3 O2 2.339494 1_454
Na3 O0 2.405941 1_554
Mg0 O2 2.049206 1_555
Mg0 O4 2.094267 1_556
Mg0 O5 2.135629 1_556
Mg0 O0 2.138403 1_555
Mg0 O3 2.157396 1_555
Fe0 O2 1.916643 1_455
Fe0 O0 1.987368 1_555
Fe0 O5 2.054629 1_465
Fe0 O1 2.084764 1_555
Fe0 O3 2.129761 1_465
Fe1 O4 1.894236 1_555
Fe1 O1 1.937719 1_555
Fe1 O3 1.959116 1_464
Fe1 O5 2.111120 1_465
Fe1 O0 2.141109 1_554
