# generated using pymatgen
data_Fe3(P3O10)2
_symmetry_space_group_name_H-M   'P 1'
_cell_length_a   8.44075607
_cell_length_b   8.44075607
_cell_length_c   12.44374600
_cell_angle_alpha   90.00000000
_cell_angle_beta   90.00000000
_cell_angle_gamma   105.22794361
_symmetry_Int_Tables_number   1
_chemical_formula_structural   Fe3(P3O10)2
_chemical_formula_sum   'Fe6 P12 O40'
_cell_volume   855.44279169
_cell_formula_units_Z   2
loop_
 _symmetry_equiv_pos_site_id
 _symmetry_equiv_pos_as_xyz
  1  'x, y, z'
loop_
 _atom_site_type_symbol
 _atom_site_label
 _atom_site_symmetry_multiplicity
 _atom_site_fract_x
 _atom_site_fract_y
 _atom_site_fract_z
 _atom_site_occupancy
  Fe  Fe0  1  0.86131900  0.86131900  0.00000000  1
  Fe  Fe1  1  0.29521100  0.70478900  0.75000000  1
  Fe  Fe2  1  0.13868100  0.13868100  0.50000000  1
  Fe  Fe3  1  0.70478900  0.29521100  0.25000000  1
  Fe  Fe4  1  0.75271800  0.24728200  0.75000000  1
  Fe  Fe5  1  0.24728200  0.75271800  0.25000000  1
  P  P0  1  0.85205200  0.26099300  0.01357600  1
  P  P1  1  0.30128000  0.17501800  0.27363500  1
  P  P2  1  0.09453100  0.36546600  0.17997300  1
  P  P3  1  0.14794800  0.73900700  0.51357600  1
  P  P4  1  0.63453400  0.90546900  0.32002700  1
  P  P5  1  0.26099300  0.85205200  0.98642400  1
  P  P6  1  0.17501800  0.30128000  0.72636500  1
  P  P7  1  0.82498200  0.69872000  0.22636500  1
  P  P8  1  0.90546900  0.63453400  0.67997300  1
  P  P9  1  0.73900700  0.14794800  0.48642400  1
  P  P10  1  0.36546600  0.09453100  0.82002700  1
  P  P11  1  0.69872000  0.82498200  0.77363500  1
  O  O0  1  0.94861200  0.33176600  0.25456400  1
  O  O1  1  0.15107300  0.92115700  0.51758700  1
  O  O2  1  0.96512300  0.64062100  0.55693900  1
  O  O3  1  0.46742600  0.26612900  0.23104500  1
  O  O4  1  0.83782900  0.32321600  0.90042400  1
  O  O5  1  0.26612900  0.46742600  0.76895500  1
  O  O6  1  0.73387100  0.53257400  0.26895500  1
  O  O7  1  0.07884300  0.84892700  0.98241300  1
  O  O8  1  0.35937900  0.03487700  0.94306100  1
  O  O9  1  0.26964500  0.99047000  0.28501500  1
  O  O10  1  0.75386000  0.74171500  0.11900700  1
  O  O11  1  0.73035500  0.00953000  0.78501500  1
  O  O12  1  0.17153300  0.21031800  0.18529800  1
  O  O13  1  0.72793500  0.30632400  0.08888100  1
  O  O14  1  0.27206500  0.69367600  0.58888100  1
  O  O15  1  0.84892700  0.07884300  0.01758700  1
  O  O16  1  0.52191500  0.22695000  0.80168400  1
  O  O17  1  0.67678400  0.16217100  0.59957600  1
  O  O18  1  0.74171500  0.75386000  0.88099300  1
  O  O19  1  0.30632400  0.72793500  0.91111900  1
  O  O20  1  0.00953000  0.73035500  0.21498500  1
  O  O21  1  0.77305000  0.47808500  0.69831600  1
  O  O22  1  0.99047000  0.26964500  0.71498500  1
  O  O23  1  0.47808500  0.77305000  0.30168400  1
  O  O24  1  0.69367600  0.27206500  0.41111900  1
  O  O25  1  0.24614000  0.25828500  0.61900700  1
  O  O26  1  0.25828500  0.24614000  0.38099300  1
  O  O27  1  0.78968200  0.82846700  0.31470200  1
  O  O28  1  0.33176600  0.94861200  0.74543600  1
  O  O29  1  0.03487700  0.35937900  0.05693900  1
  O  O30  1  0.92115700  0.15107300  0.48241300  1
  O  O31  1  0.22695000  0.52191500  0.19831600  1
  O  O32  1  0.21031800  0.17153300  0.81470200  1
  O  O33  1  0.82846700  0.78968200  0.68529800  1
  O  O34  1  0.64062100  0.96512300  0.44306100  1
  O  O35  1  0.53257400  0.73387100  0.73104500  1
  O  O36  1  0.16217100  0.67678400  0.40042400  1
  O  O37  1  0.66823400  0.05138800  0.24543600  1
  O  O38  1  0.32321600  0.83782900  0.09957600  1
  O  O39  1  0.05138800  0.66823400  0.75456400  1
loop_
_geom_bond_atom_site_label_1
_geom_bond_atom_site_label_2
_geom_bond_distance
_geom_bond_site_symmetry_2
Fe0 O15 1.879059 1_565
Fe0 O7 1.879059 1_654
Fe0 O18 1.885182 1_554
Fe0 O10 1.885182 1_555
Fe1 O35 1.967648 1_555
Fe1 O5 1.967648 1_555
Fe1 O28 2.000104 1_555
Fe1 O39 2.000104 1_555
Fe1 O14 2.014215 1_555
Fe1 O19 2.014215 1_555
Fe2 O1 1.879059 1_545
Fe2 O30 1.879059 1_455
Fe2 O26 1.885182 1_555
Fe2 O25 1.885182 1_555
Fe3 O6 1.967648 1_555
Fe3 O3 1.967648 1_555
Fe3 O37 2.000104 1_555
Fe3 O0 2.000104 1_555
Fe3 O24 2.014215 1_555
Fe3 O13 2.014215 1_555
Fe4 O22 2.013395 1_555
Fe4 O11 2.013395 1_555
Fe4 O16 2.015626 1_555
Fe4 O21 2.015626 1_555
Fe4 O4 2.046655 1_555
Fe4 O17 2.046655 1_555
Fe5 O9 2.013395 1_555
Fe5 O20 2.013395 1_555
Fe5 O31 2.015626 1_555
Fe5 O23 2.015626 1_555
Fe5 O38 2.046655 1_555
Fe5 O36 2.046655 1_555
O0 P2 1.508446 1_655
O1 P3 1.531581 1_555
O2 P8 1.608278 1_555
O2 P3 1.639820 1_655
O3 P1 1.507471 1_555
O4 P0 1.518533 1_556
O5 P6 1.507471 1_555
O6 P7 1.507471 1_555
O7 P5 1.531581 1_555
O8 P10 1.608278 1_555
O8 P5 1.639820 1_545
O9 P1 1.516362 1_565
O10 P7 1.546371 1_555
O11 P11 1.516362 1_545
O12 P2 1.609014 1_555
O12 P1 1.633375 1_555
O13 P0 1.527300 1_555
O14 P3 1.527300 1_555
O15 P0 1.531581 1_555
O16 P10 1.506608 1_555
O17 P9 1.518533 1_555
O18 P11 1.546371 1_555
O19 P5 1.527300 1_555
O20 P7 1.516362 1_455
O21 P8 1.506608 1_555
O22 P6 1.516362 1_655
O23 P4 1.506608 1_555
O24 P9 1.527300 1_555
O25 P6 1.546371 1_555
O26 P1 1.546371 1_555
O27 P4 1.609014 1_555
O27 P7 1.633375 1_555
O28 P10 1.508446 1_565
O29 P2 1.608278 1_555
O29 P0 1.639820 1_455
O30 P9 1.531581 1_555
O31 P2 1.506608 1_555
O32 P10 1.609014 1_555
O32 P6 1.633375 1_555
O33 P8 1.609014 1_555
O33 P11 1.633375 1_555
O34 P4 1.608278 1_555
O34 P9 1.639820 1_565
O35 P11 1.507471 1_555
O36 P3 1.518533 1_555
O37 P4 1.508446 1_545
O38 P5 1.518533 1_554
O39 P8 1.508446 1_455
