# generated using pymatgen
data_K2FeF5
_symmetry_space_group_name_H-M   'P 1'
_cell_length_a   7.55211900
_cell_length_b   13.07149700
_cell_length_c   20.77700800
_cell_angle_alpha   90.00000000
_cell_angle_beta   90.00000000
_cell_angle_gamma   90.00000000
_symmetry_Int_Tables_number   1
_chemical_formula_structural   K2FeF5
_chemical_formula_sum   'K32 Fe16 F80'
_cell_volume   2051.05430494
_cell_formula_units_Z   16
loop_
 _symmetry_equiv_pos_site_id
 _symmetry_equiv_pos_as_xyz
  1  'x, y, z'
loop_
 _atom_site_type_symbol
 _atom_site_label
 _atom_site_symmetry_multiplicity
 _atom_site_fract_x
 _atom_site_fract_y
 _atom_site_fract_z
 _atom_site_occupancy
  K  K0  1  0.00000000  0.07386900  0.25000000  1
  K  K1  1  0.50000000  0.42613100  0.75000000  1
  K  K2  1  0.00000000  0.92613100  0.75000000  1
  K  K3  1  0.50000000  0.57386900  0.25000000  1
  K  K4  1  0.00000000  0.53602400  0.25000000  1
  K  K5  1  0.50000000  0.96397600  0.75000000  1
  K  K6  1  0.00000000  0.46397600  0.75000000  1
  K  K7  1  0.50000000  0.03602400  0.25000000  1
  K  K8  1  0.15869100  0.01926400  0.41655400  1
  K  K9  1  0.65869100  0.48073600  0.58344600  1
  K  K10  1  0.84130900  0.01926400  0.08344600  1
  K  K11  1  0.34130900  0.48073600  0.91655400  1
  K  K12  1  0.84130900  0.98073600  0.58344600  1
  K  K13  1  0.34130900  0.51926400  0.41655400  1
  K  K14  1  0.15869100  0.98073600  0.91655400  1
  K  K15  1  0.65869100  0.51926400  0.08344600  1
  K  K16  1  0.14895200  0.78754700  0.16273500  1
  K  K17  1  0.64895200  0.71245300  0.83726500  1
  K  K18  1  0.85104800  0.78754700  0.33726500  1
  K  K19  1  0.35104800  0.71245300  0.66273500  1
  K  K20  1  0.85104800  0.21245300  0.83726500  1
  K  K21  1  0.35104800  0.28754700  0.16273500  1
  K  K22  1  0.14895200  0.21245300  0.66273500  1
  K  K23  1  0.64895200  0.28754700  0.33726500  1
  K  K24  1  0.48762400  0.23089500  0.99307000  1
  K  K25  1  0.98762400  0.26910500  0.00693000  1
  K  K26  1  0.51237600  0.23089500  0.50693000  1
  K  K27  1  0.01237600  0.26910500  0.49307000  1
  K  K28  1  0.51237600  0.76910500  0.00693000  1
  K  K29  1  0.01237600  0.73089500  0.99307000  1
  K  K30  1  0.48762400  0.76910500  0.49307000  1
  K  K31  1  0.98762400  0.73089500  0.50693000  1
  Fe  Fe0  1  0.66952500  0.00102400  0.42227400  1
  Fe  Fe1  1  0.16952500  0.49897600  0.57772600  1
  Fe  Fe2  1  0.33047500  0.00102400  0.07772600  1
  Fe  Fe3  1  0.83047500  0.49897600  0.92227400  1
  Fe  Fe4  1  0.33047500  0.99897600  0.57772600  1
  Fe  Fe5  1  0.83047500  0.50102400  0.42227400  1
  Fe  Fe6  1  0.66952500  0.99897600  0.92227400  1
  Fe  Fe7  1  0.16952500  0.50102400  0.07772600  1
  Fe  Fe8  1  0.33612300  0.80329000  0.32832200  1
  Fe  Fe9  1  0.83612300  0.69671000  0.67167800  1
  Fe  Fe10  1  0.66387700  0.80329000  0.17167800  1
  Fe  Fe11  1  0.16387700  0.69671000  0.82832200  1
  Fe  Fe12  1  0.66387700  0.19671000  0.67167800  1
  Fe  Fe13  1  0.16387700  0.30329000  0.32832200  1
  Fe  Fe14  1  0.33612300  0.19671000  0.82832200  1
  Fe  Fe15  1  0.83612300  0.30329000  0.17167800  1
  F  F0  1  0.98995900  0.19769800  0.14022000  1
  F  F1  1  0.48995900  0.30230200  0.85978000  1
  F  F2  1  0.01004100  0.19769800  0.35978000  1
  F  F3  1  0.51004100  0.30230200  0.64022000  1
  F  F4  1  0.01004100  0.80230200  0.85978000  1
  F  F5  1  0.51004100  0.69769800  0.14022000  1
  F  F6  1  0.98995900  0.80230200  0.64022000  1
  F  F7  1  0.48995900  0.69769800  0.35978000  1
  F  F8  1  0.49585000  0.90451700  0.37689500  1
  F  F9  1  0.99585000  0.59548300  0.62310500  1
  F  F10  1  0.50415000  0.90451700  0.12310500  1
  F  F11  1  0.00415000  0.59548300  0.87689500  1
  F  F12  1  0.50415000  0.09548300  0.62310500  1
  F  F13  1  0.00415000  0.40451700  0.37689500  1
  F  F14  1  0.49585000  0.09548300  0.87689500  1
  F  F15  1  0.99585000  0.40451700  0.12310500  1
  F  F16  1  0.00000000  0.50000000  0.00000000  1
  F  F17  1  0.50000000  0.00000000  0.00000000  1
  F  F18  1  0.00000000  0.50000000  0.50000000  1
  F  F19  1  0.50000000  0.00000000  0.50000000  1
  F  F20  1  0.00000000  0.32176000  0.25000000  1
  F  F21  1  0.50000000  0.17824000  0.75000000  1
  F  F22  1  0.00000000  0.67824000  0.75000000  1
  F  F23  1  0.50000000  0.82176000  0.25000000  1
  F  F24  1  0.29895900  0.20599700  0.27788300  1
  F  F25  1  0.79895900  0.29400300  0.72211700  1
  F  F26  1  0.70104100  0.20599700  0.22211700  1
  F  F27  1  0.20104100  0.29400300  0.77788300  1
  F  F28  1  0.70104100  0.79400300  0.72211700  1
  F  F29  1  0.20104100  0.70599700  0.27788300  1
  F  F30  1  0.29895900  0.79400300  0.77788300  1
  F  F31  1  0.79895900  0.70599700  0.22211700  1
  F  F32  1  0.22365400  0.87797900  0.03953400  1
  F  F33  1  0.72365400  0.62202100  0.96046600  1
  F  F34  1  0.77634600  0.87797900  0.46046600  1
  F  F35  1  0.27634600  0.62202100  0.53953400  1
  F  F36  1  0.77634600  0.12202100  0.96046600  1
  F  F37  1  0.27634600  0.37797900  0.03953400  1
  F  F38  1  0.22365400  0.12202100  0.53953400  1
  F  F39  1  0.72365400  0.37797900  0.46046600  1
  F  F40  1  0.46806300  0.11113100  0.11191600  1
  F  F41  1  0.96806300  0.38886900  0.88808400  1
  F  F42  1  0.53193700  0.11113100  0.38808400  1
  F  F43  1  0.03193700  0.38886900  0.61191600  1
  F  F44  1  0.53193700  0.88886900  0.88808400  1
  F  F45  1  0.03193700  0.61113100  0.11191600  1
  F  F46  1  0.46806300  0.88886900  0.61191600  1
  F  F47  1  0.96806300  0.61113100  0.38808400  1
  F  F48  1  0.17821600  0.99111000  0.15126100  1
  F  F49  1  0.67821600  0.50889000  0.84873900  1
  F  F50  1  0.82178400  0.99111000  0.34873900  1
  F  F51  1  0.32178400  0.50889000  0.65126100  1
  F  F52  1  0.82178400  0.00889000  0.84873900  1
  F  F53  1  0.32178400  0.49111000  0.15126100  1
  F  F54  1  0.17821600  0.00889000  0.65126100  1
  F  F55  1  0.67821600  0.49111000  0.34873900  1
  F  F56  1  0.17547300  0.91169600  0.52945300  1
  F  F57  1  0.67547300  0.58830400  0.47054700  1
  F  F58  1  0.82452700  0.91169600  0.97054700  1
  F  F59  1  0.32452700  0.58830400  0.02945300  1
  F  F60  1  0.82452700  0.08830400  0.47054700  1
  F  F61  1  0.32452700  0.41169600  0.52945300  1
  F  F62  1  0.17547300  0.08830400  0.02945300  1
  F  F63  1  0.67547300  0.41169600  0.97054700  1
  F  F64  1  0.20817700  0.92187300  0.29657000  1
  F  F65  1  0.70817700  0.57812700  0.70343000  1
  F  F66  1  0.79182300  0.92187300  0.20343000  1
  F  F67  1  0.29182300  0.57812700  0.79657000  1
  F  F68  1  0.79182300  0.07812700  0.70343000  1
  F  F69  1  0.29182300  0.42187300  0.29657000  1
  F  F70  1  0.20817700  0.07812700  0.79657000  1
  F  F71  1  0.70817700  0.42187300  0.20343000  1
  F  F72  1  0.31291000  0.29921400  0.40314400  1
  F  F73  1  0.81291000  0.20078600  0.59685600  1
  F  F74  1  0.68709000  0.29921400  0.09685600  1
  F  F75  1  0.18709000  0.20078600  0.90314400  1
  F  F76  1  0.68709000  0.70078600  0.59685600  1
  F  F77  1  0.18709000  0.79921400  0.40314400  1
  F  F78  1  0.31291000  0.70078600  0.90314400  1
  F  F79  1  0.81291000  0.79921400  0.09685600  1
loop_
_geom_bond_atom_site_label_1
_geom_bond_atom_site_label_2
_geom_bond_distance
_geom_bond_site_symmetry_2
F0 Fe15 1.918860 1_555
F0 K0 2.797895 1_655
F0 K10 2.844611 1_555
F0 K25 2.922488 1_555
F0 K21 3.005769 1_655
F1 Fe14 1.918860 1_555
F1 K1 2.797895 1_555
F1 K11 2.844611 1_555
F1 K24 2.922488 1_555
F1 K20 3.005769 1_555
F2 Fe13 1.918860 1_555
F2 K0 2.797895 1_555
F2 K8 2.844611 1_555
F2 K27 2.922488 1_555
F2 K23 3.005769 1_455
F3 Fe12 1.918860 1_555
F3 K1 2.797895 1_555
F3 K9 2.844611 1_555
F3 K26 2.922488 1_555
F3 K22 3.005769 1_555
F4 Fe11 1.918860 1_555
F4 K2 2.797895 1_555
F4 K14 2.844611 1_555
F4 K29 2.922488 1_555
F4 K17 3.005769 1_455
F5 Fe10 1.918860 1_555
F5 K3 2.797895 1_555
F5 K15 2.844611 1_555
F5 K28 2.922488 1_555
F5 K16 3.005769 1_555
F6 Fe9 1.918860 1_555
F6 K2 2.797895 1_655
F6 K12 2.844611 1_555
F6 K31 2.922488 1_555
F6 K19 3.005769 1_655
F7 Fe8 1.918860 1_555
F7 K3 2.797895 1_555
F7 K13 2.844611 1_555
F7 K30 2.922488 1_555
F7 K18 3.005769 1_555
F8 Fe0 2.049546 1_565
F8 Fe8 2.055339 1_555
F8 K30 2.993856 1_555
F8 K8 3.067927 1_565
F8 K7 3.147546 1_565
F8 K18 3.195548 1_555
F9 Fe1 2.049546 1_655
F9 Fe9 2.055339 1_555
F9 K31 2.993856 1_555
F9 K9 3.067927 1_555
F9 K6 3.147546 1_655
F9 K19 3.195548 1_655
F10 Fe2 2.049546 1_565
F10 Fe10 2.055339 1_555
F10 K28 2.993856 1_555
F10 K10 3.067927 1_565
F10 K7 3.147546 1_565
F10 K16 3.195548 1_555
F11 Fe3 2.049546 1_455
F11 Fe11 2.055339 1_555
F11 K29 2.993856 1_555
F11 K11 3.067927 1_555
F11 K6 3.147546 1_555
F11 K17 3.195548 1_455
F12 Fe4 2.049546 1_545
F12 Fe12 2.055339 1_555
F12 K26 2.993856 1_555
F12 K12 3.067927 1_545
F12 K5 3.147546 1_545
F12 K22 3.195548 1_555
F13 Fe5 2.049546 1_455
F13 Fe13 2.055339 1_555
F13 K27 2.993856 1_555
F13 K13 3.067927 1_555
F13 K4 3.147546 1_555
F13 K23 3.195548 1_455
F14 Fe6 2.049546 1_545
F14 Fe14 2.055339 1_555
F14 K24 2.993856 1_555
F14 K14 3.067927 1_545
F14 K5 3.147546 1_545
F14 K20 3.195548 1_555
F15 Fe7 2.049546 1_655
F15 Fe15 2.055339 1_555
F15 K25 2.993856 1_555
F15 K15 3.067927 1_555
F15 K4 3.147546 1_655
F15 K21 3.195548 1_655
F16 Fe3 2.060880 1_454
F16 Fe7 2.060880 1_555
F16 K29 3.023021 1_554
F16 K25 3.023021 1_455
F16 K11 3.116629 1_554
F16 K15 3.116629 1_455
F17 Fe6 2.060880 1_544
F17 Fe2 2.060880 1_555
F17 K28 3.023021 1_545
F17 K24 3.023021 1_554
F17 K10 3.116629 1_555
F17 K14 3.116629 1_544
F18 Fe1 2.060880 1_555
F18 Fe5 2.060880 1_455
F18 K31 3.023021 1_455
F18 K27 3.023021 1_555
F18 K13 3.116629 1_555
F18 K9 3.116629 1_455
F19 Fe4 2.060880 1_545
F19 Fe0 2.060880 1_555
F19 K30 3.023021 1_545
F19 K26 3.023021 1_555
F19 K8 3.116629 1_555
F19 K12 3.116629 1_545
F20 Fe13 2.058661 1_555
F20 Fe15 2.058661 1_455
F20 K4 2.800751 1_555
F20 K23 3.242836 1_455
F20 K21 3.242836 1_555
F21 Fe14 2.058661 1_555
F21 Fe12 2.058661 1_555
F21 K5 2.800751 1_545
F21 K22 3.242836 1_555
F21 K20 3.242836 1_555
F22 Fe11 2.058661 1_555
F22 Fe9 2.058661 1_455
F22 K6 2.800751 1_555
F22 K19 3.242836 1_555
F22 K17 3.242836 1_455
F23 Fe10 2.058661 1_555
F23 Fe8 2.058661 1_555
F23 K7 2.800751 1_565
F23 K18 3.242836 1_555
F23 K16 3.242836 1_555
F24 Fe13 1.938130 1_555
F24 K21 2.648545 1_555
F24 K7 2.752673 1_555
F24 K0 2.901047 1_555
F24 K23 3.105636 1_555
F25 Fe12 1.938130 1_555
F25 K20 2.648545 1_555
F25 K6 2.752673 1_655
F25 K1 2.901047 1_555
F25 K22 3.105636 1_655
F26 Fe15 1.938130 1_555
F26 K23 2.648545 1_555
F26 K7 2.752673 1_555
F26 K0 2.901047 1_655
F26 K21 3.105636 1_555
F27 Fe14 1.938130 1_555
F27 K22 2.648545 1_555
F27 K6 2.752673 1_555
F27 K1 2.901047 1_555
F27 K20 3.105636 1_455
F28 Fe9 1.938130 1_555
F28 K17 2.648545 1_555
F28 K5 2.752673 1_555
F28 K2 2.901047 1_655
F28 K19 3.105636 1_555
F29 Fe8 1.938130 1_555
F29 K16 2.648545 1_555
F29 K4 2.752673 1_555
F29 K3 2.901047 1_555
F29 K18 3.105636 1_455
F30 Fe11 1.938130 1_555
F30 K19 2.648545 1_555
F30 K5 2.752673 1_555
F30 K2 2.901047 1_555
F30 K17 3.105636 1_555
F31 Fe10 1.938130 1_555
F31 K18 2.648545 1_555
F31 K4 2.752673 1_655
F31 K3 2.901047 1_555
F31 K16 3.105636 1_655
F32 Fe2 1.966562 1_565
F32 K29 2.678491 1_554
F32 K28 2.690474 1_555
F32 K16 2.875396 1_555
F32 K14 2.928084 1_554
F33 Fe3 1.966562 1_555
F33 K28 2.678491 1_556
F33 K29 2.690474 1_655
F33 K17 2.875396 1_555
F33 K15 2.928084 1_556
F34 Fe0 1.966562 1_565
F34 K31 2.678491 1_555
F34 K30 2.690474 1_555
F34 K18 2.875396 1_555
F34 K12 2.928084 1_555
F35 Fe1 1.966562 1_555
F35 K30 2.678491 1_555
F35 K31 2.690474 1_455
F35 K19 2.875396 1_555
F35 K13 2.928084 1_555
F36 Fe6 1.966562 1_545
F36 K25 2.678491 1_556
F36 K24 2.690474 1_555
F36 K20 2.875396 1_555
F36 K10 2.928084 1_556
F37 Fe7 1.966562 1_555
F37 K24 2.678491 1_554
F37 K25 2.690474 1_455
F37 K21 2.875396 1_555
F37 K11 2.928084 1_554
F38 Fe4 1.966562 1_545
F38 K27 2.678491 1_555
F38 K26 2.690474 1_555
F38 K22 2.875396 1_555
F38 K8 2.928084 1_555
F39 Fe5 1.966562 1_555
F39 K26 2.678491 1_555
F39 K27 2.690474 1_655
F39 K23 2.875396 1_555
F39 K9 2.928084 1_555
F40 Fe2 1.912011 1_555
F40 K21 2.685802 1_555
F40 K24 2.927433 1_554
F40 K7 3.041879 1_555
F40 K10 3.120502 1_555
F41 Fe3 1.912011 1_555
F41 K20 2.685802 1_555
F41 K25 2.927433 1_556
F41 K6 3.041879 1_655
F41 K11 3.120502 1_655
F42 Fe0 1.912011 1_555
F42 K23 2.685802 1_555
F42 K26 2.927433 1_555
F42 K7 3.041879 1_555
F42 K8 3.120502 1_555
F43 Fe1 1.912011 1_555
F43 K22 2.685802 1_555
F43 K27 2.927433 1_555
F43 K6 3.041879 1_555
F43 K9 3.120502 1_455
F44 Fe6 1.912011 1_555
F44 K17 2.685802 1_555
F44 K28 2.927433 1_556
F44 K5 3.041879 1_555
F44 K14 3.120502 1_555
F45 Fe7 1.912011 1_555
F45 K16 2.685802 1_555
F45 K29 2.927433 1_554
F45 K4 3.041879 1_555
F45 K15 3.120502 1_455
F46 Fe4 1.912011 1_555
F46 K19 2.685802 1_555
F46 K30 2.927433 1_555
F46 K5 3.041879 1_555
F46 K12 3.120502 1_555
F47 Fe5 1.912011 1_555
F47 K18 2.685802 1_555
F47 K31 2.927433 1_555
F47 K4 3.041879 1_655
F47 K13 3.120502 1_655
F48 Fe2 1.916586 1_565
F48 K16 2.680657 1_555
F48 K0 2.681489 1_565
F48 K10 2.931633 1_465
F48 K7 3.234033 1_565
F49 Fe3 1.916586 1_555
F49 K17 2.680657 1_555
F49 K1 2.681489 1_555
F49 K11 2.931633 1_555
F49 K6 3.234033 1_655
F50 Fe0 1.916586 1_565
F50 K18 2.680657 1_555
F50 K0 2.681489 1_665
F50 K8 2.931633 1_665
F50 K7 3.234033 1_565
F51 Fe1 1.916586 1_555
F51 K19 2.680657 1_555
F51 K1 2.681489 1_555
F51 K9 2.931633 1_555
F51 K6 3.234033 1_555
F52 Fe6 1.916586 1_545
F52 K20 2.680657 1_555
F52 K2 2.681489 1_645
F52 K14 2.931633 1_645
F52 K5 3.234033 1_545
F53 Fe7 1.916586 1_555
F53 K21 2.680657 1_555
F53 K3 2.681489 1_555
F53 K15 2.931633 1_555
F53 K4 3.234033 1_555
F54 Fe4 1.916586 1_545
F54 K22 2.680657 1_555
F54 K2 2.681489 1_545
F54 K12 2.931633 1_445
F54 K5 3.234033 1_545
F55 Fe5 1.916586 1_555
F55 K23 2.680657 1_555
F55 K3 2.681489 1_555
F55 K13 2.931633 1_555
F55 K4 3.234033 1_655
F56 Fe4 1.917770 1_555
F56 K8 2.737779 1_565
F56 K31 2.795881 1_455
F56 K12 2.905457 1_455
F56 K30 3.098840 1_555
F57 Fe5 1.917770 1_555
F57 K9 2.737779 1_555
F57 K30 2.795881 1_555
F57 K13 2.905457 1_555
F57 K31 3.098840 1_555
F58 Fe6 1.917770 1_555
F58 K10 2.737779 1_566
F58 K29 2.795881 1_655
F58 K14 2.905457 1_655
F58 K28 3.098840 1_556
F59 Fe7 1.917770 1_555
F59 K11 2.737779 1_554
F59 K28 2.795881 1_555
F59 K15 2.905457 1_555
F59 K29 3.098840 1_554
F60 Fe0 1.917770 1_555
F60 K12 2.737779 1_545
F60 K27 2.795881 1_655
F60 K8 2.905457 1_655
F60 K26 3.098840 1_555
F61 Fe1 1.917770 1_555
F61 K13 2.737779 1_555
F61 K26 2.795881 1_555
F61 K9 2.905457 1_555
F61 K27 3.098840 1_555
F62 Fe2 1.917770 1_555
F62 K14 2.737779 1_544
F62 K25 2.795881 1_455
F62 K10 2.905457 1_455
F62 K24 3.098840 1_554
F63 Fe3 1.917770 1_555
F63 K15 2.737779 1_556
F63 K24 2.795881 1_555
F63 K11 2.905457 1_555
F63 K25 3.098840 1_556
F64 Fe8 1.942051 1_555
F64 K0 2.712084 1_565
F64 K8 2.823988 1_565
F64 K7 2.831917 1_565
F64 K16 3.318927 1_555
F64 K18 3.327481 1_455
F65 Fe9 1.942051 1_555
F65 K1 2.712084 1_555
F65 K9 2.823988 1_555
F65 K6 2.831917 1_655
F65 K17 3.318927 1_555
F65 K19 3.327481 1_555
F66 Fe10 1.942051 1_555
F66 K0 2.712084 1_665
F66 K10 2.823988 1_565
F66 K7 2.831917 1_565
F66 K18 3.318927 1_555
F66 K16 3.327481 1_655
F67 Fe11 1.942051 1_555
F67 K1 2.712084 1_555
F67 K11 2.823988 1_555
F67 K6 2.831917 1_555
F67 K19 3.318927 1_555
F67 K17 3.327481 1_555
F68 Fe12 1.942051 1_555
F68 K2 2.712084 1_645
F68 K12 2.823988 1_545
F68 K5 2.831917 1_545
F68 K20 3.318927 1_555
F68 K22 3.327481 1_655
F69 Fe13 1.942051 1_555
F69 K3 2.712084 1_555
F69 K13 2.823988 1_555
F69 K4 2.831917 1_555
F69 K21 3.318927 1_555
F69 K23 3.327481 1_555
F70 Fe14 1.942051 1_555
F70 K2 2.712084 1_545
F70 K14 2.823988 1_545
F70 K5 2.831917 1_545
F70 K22 3.318927 1_555
F70 K20 3.327481 1_455
F71 Fe15 1.942051 1_555
F71 K3 2.712084 1_555
F71 K15 2.823988 1_555
F71 K4 2.831917 1_655
F71 K23 3.318927 1_555
F71 K21 3.327481 1_555
F72 Fe13 1.919983 1_555
F72 K26 2.777880 1_555
F72 K23 2.887449 1_555
F72 K13 2.897793 1_555
F72 K27 2.966005 1_555
F73 Fe12 1.919983 1_555
F73 K27 2.777880 1_655
F73 K22 2.887449 1_655
F73 K12 2.897793 1_545
F73 K26 2.966005 1_555
F74 Fe15 1.919983 1_555
F74 K24 2.777880 1_554
F74 K21 2.887449 1_555
F74 K15 2.897793 1_555
F74 K25 2.966005 1_555
F75 Fe14 1.919983 1_555
F75 K25 2.777880 1_456
F75 K20 2.887449 1_455
F75 K14 2.897793 1_545
F75 K24 2.966005 1_555
F76 Fe9 1.919983 1_555
F76 K30 2.777880 1_555
F76 K19 2.887449 1_555
F76 K9 2.897793 1_555
F76 K31 2.966005 1_555
F77 Fe8 1.919983 1_555
F77 K31 2.777880 1_455
F77 K18 2.887449 1_455
F77 K8 2.897793 1_565
F77 K30 2.966005 1_555
F78 Fe11 1.919983 1_555
F78 K28 2.777880 1_556
F78 K17 2.887449 1_555
F78 K11 2.897793 1_555
F78 K29 2.966005 1_555
F79 Fe10 1.919983 1_555
F79 K29 2.777880 1_654
F79 K16 2.887449 1_655
F79 K10 2.897793 1_565
F79 K28 2.966005 1_555
