# generated using pymatgen
data_MgV4O5F7
_symmetry_space_group_name_H-M   'P 1'
_cell_length_a   5.30422843
_cell_length_b   7.22397331
_cell_length_c   5.56168215
_cell_angle_alpha   93.94202271
_cell_angle_beta   91.37801480
_cell_angle_gamma   90.26878632
_symmetry_Int_Tables_number   1
_chemical_formula_structural   MgV4O5F7
_chemical_formula_sum   'Mg1 V4 O5 F7'
_cell_volume   212.54035689
_cell_formula_units_Z   1
loop_
 _symmetry_equiv_pos_site_id
 _symmetry_equiv_pos_as_xyz
  1  'x, y, z'
loop_
 _atom_site_type_symbol
 _atom_site_label
 _atom_site_symmetry_multiplicity
 _atom_site_fract_x
 _atom_site_fract_y
 _atom_site_fract_z
 _atom_site_occupancy
  Mg  Mg0  1  0.02362800  0.79980900  0.40840300  1
  V  V0  1  0.49018600  0.50559300  0.50839800  1
  V  V1  1  0.52218900  0.00780500  0.51535500  1
  V  V2  1  0.99158400  0.47658300  0.99668800  1
  V  V3  1  0.00195400  0.98192300  0.96781100  1
  O  O0  1  0.91352000  0.24743100  0.00169300  1
  O  O1  1  0.83433900  0.93552800  0.67427300  1
  O  O2  1  0.56854800  0.24529100  0.50818400  1
  O  O3  1  0.38606300  0.76048200  0.50011100  1
  O  O4  1  0.07084000  0.74975300  0.03201000  1
  F  F0  1  0.82422900  0.56063400  0.32343800  1
  F  F1  1  0.71195900  0.94264400  0.20714000  1
  F  F2  1  0.68824200  0.55020000  0.81715600  1
  F  F3  1  0.30523400  0.45340000  0.18906200  1
  F  F4  1  0.31396500  0.04541200  0.81959800  1
  F  F5  1  0.18536200  0.04165600  0.30881600  1
  F  F6  1  0.16815800  0.46371200  0.69686300  1
loop_
_geom_bond_atom_site_label_1
_geom_bond_atom_site_label_2
_geom_bond_distance
_geom_bond_site_symmetry_2
Mg0 O3 2.003626 1_555
Mg0 O1 2.009264 1_455
Mg0 O4 2.120775 1_555
O0 V2 1.706750 1_554
O0 V3 1.974171 1_644
O1 V3 1.849379 1_655
O1 V1 1.948430 1_565
O2 V1 1.735291 1_555
O2 V0 1.927635 1_555
O3 V1 1.919582 1_565
O3 V0 1.928099 1_555
O4 V3 1.776450 1_554
O4 V2 2.011085 1_454
F0 Mg0 2.042981 1_655
F0 V2 2.095257 1_554
F0 V0 2.119672 1_555
F1 V1 2.037091 1_565
F1 V3 2.089171 1_654
F1 Mg0 2.266365 1_655
F2 V2 1.967855 1_555
F2 V0 1.997563 1_555
F3 V2 1.970336 1_454
F3 V0 2.019794 1_555
F4 V3 1.933720 1_545
F4 V1 2.046061 1_555
F5 Mg0 2.058375 1_545
F5 V1 2.124923 1_555
F5 V3 2.127053 1_544
F6 V2 1.929021 1_455
F6 V0 2.057360 1_555
