# generated using pymatgen
data_B
_symmetry_space_group_name_H-M   'P 1'
_cell_length_a   4.92026460
_cell_length_b   8.84945082
_cell_length_c   8.84945082
_cell_angle_alpha   90.00000000
_cell_angle_beta   90.00000000
_cell_angle_gamma   90.00000000
_symmetry_Int_Tables_number   1
_chemical_formula_structural   B
_chemical_formula_sum   B50
_cell_volume   385.31959825
_cell_formula_units_Z   50
loop_
 _symmetry_equiv_pos_site_id
 _symmetry_equiv_pos_as_xyz
  1  'x, y, z'
loop_
 _atom_site_type_symbol
 _atom_site_label
 _atom_site_symmetry_multiplicity
 _atom_site_fract_x
 _atom_site_fract_y
 _atom_site_fract_z
 _atom_site_occupancy
  B  B0  1  0.75000000  0.25000000  0.75000000  1
  B  B1  1  0.25000000  0.75000000  0.25000000  1
  B  B2  1  0.64257439  0.37879101  0.87879101  1
  B  B3  1  0.14257439  0.62120899  0.37879101  1
  B  B4  1  0.14257439  0.87879101  0.12120899  1
  B  B5  1  0.64257439  0.12120899  0.62120899  1
  B  B6  1  0.85742561  0.37879101  0.62120899  1
  B  B7  1  0.85742561  0.12120899  0.87879101  1
  B  B8  1  0.35742561  0.87879101  0.37879101  1
  B  B9  1  0.35742561  0.62120899  0.12120899  1
  B  B10  1  0.82429402  0.49577399  0.99577399  1
  B  B11  1  0.32429402  0.50422601  0.49577399  1
  B  B12  1  0.32429402  0.99577399  0.00422601  1
  B  B13  1  0.82429402  0.00422601  0.50422601  1
  B  B14  1  0.67570598  0.49577399  0.50422601  1
  B  B15  1  0.67570598  0.00422601  0.99577399  1
  B  B16  1  0.17570598  0.99577399  0.49577399  1
  B  B17  1  0.17570598  0.50422601  0.00422601  1
  B  B18  1  0.65567759  0.57997093  0.83594831  1
  B  B19  1  0.15567759  0.66405169  0.57997093  1
  B  B20  1  0.15567759  0.83594831  0.92002907  1
  B  B21  1  0.65567759  0.92002907  0.66405169  1
  B  B22  1  0.84432241  0.57997093  0.66405169  1
  B  B23  1  0.84432241  0.92002907  0.83594831  1
  B  B24  1  0.34432241  0.83594831  0.57997093  1
  B  B25  1  0.34432241  0.66405169  0.92002907  1
  B  B26  1  0.34432241  0.42002907  0.16405169  1
  B  B27  1  0.84432241  0.33594831  0.42002907  1
  B  B28  1  0.84432241  0.16405169  0.07997093  1
  B  B29  1  0.34432241  0.07997093  0.33594831  1
  B  B30  1  0.15567759  0.42002907  0.33594831  1
  B  B31  1  0.15567759  0.07997093  0.16405169  1
  B  B32  1  0.65567759  0.16405169  0.42002907  1
  B  B33  1  0.65567759  0.33594831  0.07997093  1
  B  B34  1  0.33773820  0.47817988  0.83265032  1
  B  B35  1  0.83773820  0.66734968  0.47817988  1
  B  B36  1  0.83773820  0.83265032  0.02182012  1
  B  B37  1  0.33773820  0.02182012  0.66734968  1
  B  B38  1  0.16226180  0.47817988  0.66734968  1
  B  B39  1  0.16226180  0.02182012  0.83265032  1
  B  B40  1  0.66226180  0.83265032  0.47817988  1
  B  B41  1  0.66226180  0.66734968  0.02182012  1
  B  B42  1  0.66226180  0.52182012  0.16734968  1
  B  B43  1  0.16226180  0.33265032  0.52182012  1
  B  B44  1  0.16226180  0.16734968  0.97817988  1
  B  B45  1  0.66226180  0.97817988  0.33265032  1
  B  B46  1  0.83773820  0.52182012  0.33265032  1
  B  B47  1  0.83773820  0.97817988  0.16734968  1
  B  B48  1  0.33773820  0.16734968  0.52182012  1
  B  B49  1  0.33773820  0.33265032  0.97817988  1
loop_
_geom_bond_atom_site_label_1
_geom_bond_atom_site_label_2
_geom_bond_distance
_geom_bond_site_symmetry_2
B0 B2 1.696274 1_555
B0 B5 1.696274 1_555
B0 B6 1.696274 1_555
B0 B7 1.696274 1_555
B1 B4 1.696274 1_555
B1 B3 1.696274 1_555
B1 B8 1.696274 1_555
B1 B9 1.696274 1_555
B2 B49 1.786039 1_555
B2 B34 1.786039 1_555
B2 B33 1.821395 1_556
B3 B46 1.786039 1_455
B3 B35 1.786039 1_455
B3 B30 1.821395 1_555
B4 B47 1.786039 1_455
B10 B2 1.715475 1_555
B10 B41 1.730350 1_556
B10 B42 1.730350 1_556
B10 B17 1.732272 1_656
B10 B18 1.801085 1_555
B10 B33 1.801085 1_556
B11 B3 1.715475 1_555
B11 B38 1.730350 1_555
B11 B43 1.730350 1_555
B11 B14 1.732272 1_555
B11 B30 1.801085 1_555
B11 B19 1.801085 1_555
B12 B4 1.715475 1_555
B12 B39 1.730350 1_564
B12 B44 1.730350 1_564
B12 B15 1.732272 1_564
B12 B20 1.801085 1_554
B12 B31 1.801085 1_565
B13 B5 1.715475 1_555
B13 B40 1.730350 1_545
B13 B45 1.730350 1_545
B13 B16 1.732272 1_645
B13 B21 1.801085 1_545
B13 B32 1.801085 1_555
B14 B6 1.715475 1_555
B14 B35 1.730350 1_555
B14 B46 1.730350 1_555
B14 B22 1.801085 1_555
B14 B27 1.801085 1_555
B15 B7 1.715475 1_555
B15 B36 1.730350 1_546
B15 B47 1.730350 1_546
B15 B23 1.801085 1_545
B15 B28 1.801085 1_556
B16 B8 1.715475 1_555
B16 B37 1.730350 1_565
B16 B48 1.730350 1_565
B16 B24 1.801085 1_555
B16 B29 1.801085 1_565
B17 B9 1.715475 1_555
B17 B34 1.730350 1_554
B17 B49 1.730350 1_554
B17 B25 1.801085 1_554
B17 B26 1.801085 1_555
B18 B22 1.782006 1_555
B18 B34 1.805398 1_555
B18 B41 1.817841 1_556
B18 B2 1.821395 1_555
B18 B25 1.858533 1_555
B19 B24 1.782006 1_555
B19 B35 1.805398 1_455
B19 B38 1.817841 1_555
B19 B3 1.821395 1_555
B19 B22 1.858533 1_455
B20 B25 1.782006 1_555
B20 B36 1.805398 1_456
B20 B39 1.817841 1_565
B20 B4 1.821395 1_556
B20 B23 1.858533 1_455
B21 B23 1.782006 1_555
B21 B37 1.805398 1_565
B21 B40 1.817841 1_555
B21 B5 1.821395 1_565
B21 B24 1.858533 1_555
B22 B38 1.805398 1_655
B22 B35 1.817841 1_555
B22 B6 1.821395 1_555
B23 B39 1.805398 1_665
B23 B36 1.817841 1_556
B23 B7 1.821395 1_565
B24 B40 1.805398 1_555
B24 B37 1.817841 1_565
B24 B8 1.821395 1_555
B25 B41 1.805398 1_556
B25 B34 1.817841 1_555
B25 B9 1.821395 1_556
B26 B30 1.782006 1_555
B26 B42 1.805398 1_555
B26 B49 1.817841 1_554
B26 B9 1.821395 1_555
B26 B33 1.858533 1_555
B27 B32 1.782006 1_555
B27 B43 1.805398 1_655
B27 B46 1.817841 1_555
B27 B6 1.821395 1_555
B27 B30 1.858533 1_655
B28 B33 1.782006 1_555
B28 B44 1.805398 1_654
B28 B47 1.817841 1_545
B28 B7 1.821395 1_554
B28 B31 1.858533 1_655
B29 B31 1.782006 1_555
B29 B45 1.805398 1_545
B29 B48 1.817841 1_555
B29 B8 1.821395 1_545
B29 B32 1.858533 1_555
B30 B46 1.805398 1_455
B30 B43 1.817841 1_555
B31 B47 1.805398 1_445
B31 B44 1.817841 1_554
B31 B4 1.821395 1_545
B32 B48 1.805398 1_555
B32 B45 1.817841 1_545
B32 B5 1.821395 1_555
B33 B49 1.805398 1_554
B33 B42 1.817841 1_555
B34 B38 1.698613 1_555
B34 B49 1.821304 1_555
B35 B40 1.698613 1_555
B35 B46 1.821304 1_555
B36 B41 1.698613 1_555
B36 B4 1.786039 1_655
B36 B47 1.821304 1_555
B37 B39 1.698613 1_555
B37 B5 1.786039 1_555
B37 B48 1.821304 1_555
B38 B6 1.786039 1_455
B38 B43 1.821304 1_555
B39 B7 1.786039 1_455
B39 B44 1.821304 1_555
B40 B8 1.786039 1_555
B40 B45 1.821304 1_555
B41 B9 1.786039 1_555
B41 B42 1.821304 1_555
B42 B46 1.698613 1_555
B42 B9 1.786039 1_555
B43 B48 1.698613 1_555
B43 B6 1.786039 1_455
B44 B49 1.698613 1_555
B44 B7 1.786039 1_455
B45 B47 1.698613 1_555
B45 B8 1.786039 1_555
B48 B5 1.786039 1_555
