# generated using pymatgen
data_NaHf3TaSi3(SO8)3
_symmetry_space_group_name_H-M   'P 1'
_cell_length_a   8.93580076
_cell_length_b   8.94030228
_cell_length_c   23.16624205
_cell_angle_alpha   89.86281195
_cell_angle_beta   90.48315295
_cell_angle_gamma   119.85658309
_symmetry_Int_Tables_number   1
_chemical_formula_structural   NaHf3TaSi3(SO8)3
_chemical_formula_sum   'Na3 Hf9 Ta3 Si9 S9 O72'
_cell_volume   1605.02327638
_cell_formula_units_Z   3
loop_
 _symmetry_equiv_pos_site_id
 _symmetry_equiv_pos_as_xyz
  1  'x, y, z'
loop_
 _atom_site_type_symbol
 _atom_site_label
 _atom_site_symmetry_multiplicity
 _atom_site_fract_x
 _atom_site_fract_y
 _atom_site_fract_z
 _atom_site_occupancy
  Na  Na0  1  0.00996644  0.99543410  0.99589115  1
  Na  Na1  1  0.65544116  0.31760020  0.83039905  1
  Na  Na2  1  0.68082688  0.33803949  0.33443635  1
  Hf  Hf0  1  0.99494117  0.99976005  0.35802443  1
  Hf  Hf1  1  0.01267298  0.01004611  0.85070448  1
  Hf  Hf2  1  0.64552651  0.32226901  0.68813587  1
  Hf  Hf3  1  0.67857320  0.34557039  0.18419310  1
  Hf  Hf4  1  0.65386696  0.33442533  0.97980171  1
  Hf  Hf5  1  0.66803237  0.34524394  0.48425166  1
  Hf  Hf6  1  0.31919077  0.66607932  0.02266323  1
  Hf  Hf7  1  0.31418927  0.65490664  0.31050287  1
  Hf  Hf8  1  0.34687720  0.68255502  0.80633231  1
  Ta  Ta0  1  0.99751532  0.00109127  0.64577157  1
  Ta  Ta1  1  0.01127282  0.01277487  0.14302467  1
  Ta  Ta2  1  0.32862018  0.67578236  0.52694805  1
  Si  Si0  1  0.99363563  0.28364045  0.25079013  1
  Si  Si1  1  0.28729038  0.29187814  0.74937824  1
  Si  Si2  1  0.71814410  0.00744000  0.74985418  1
  Si  Si3  1  0.37373622  0.05096584  0.58301591  1
  Si  Si4  1  0.66835575  0.62673916  0.58476055  1
  Si  Si5  1  0.95442061  0.62500456  0.08249300  1
  Si  Si6  1  0.38295309  0.34112085  0.08385410  1
  Si  Si7  1  0.33230352  0.95668097  0.91611505  1
  Si  Si8  1  0.04024899  0.66156526  0.41718087  1
  S  S0  1  0.28732233  0.00176303  0.25045211  1
  S  S1  1  0.71252866  0.71419747  0.25015839  1
  S  S2  1  0.99808562  0.71190526  0.74938524  1
  S  S3  1  0.95752287  0.33319795  0.58367889  1
  S  S4  1  0.66729480  0.04342030  0.08374107  1
  S  S5  1  0.62284753  0.66926689  0.91692244  1
  S  S6  1  0.04265721  0.37748372  0.91639364  1
  S  S7  1  0.61713725  0.95235229  0.41685515  1
  S  S8  1  0.33420050  0.38026352  0.41665963  1
  O  O0  1  0.20470349  0.02698568  0.30171168  1
  O  O1  1  0.82312441  0.79235195  0.30248368  1
  O  O2  1  0.97200333  0.16401181  0.30641849  1
  O  O3  1  0.20386047  0.16776160  0.80562851  1
  O  O4  1  0.96929990  0.79001338  0.80169972  1
  O  O5  1  0.83129745  0.02648428  0.80744033  1
  O  O6  1  0.81253356  0.97720017  0.69320105  1
  O  O7  1  0.16518198  0.18869701  0.69313548  1
  O  O8  1  0.02684907  0.82159354  0.69740137  1
  O  O9  1  0.79492160  0.81928202  0.19832646  1
  O  O10  1  0.01894595  0.18319824  0.19437925  1
  O  O11  1  0.17686641  0.97152918  0.19765801  1
  O  O12  1  0.88661172  0.36996710  0.63444973  1
  O  O13  1  0.49912491  0.12701243  0.63820011  1
  O  O14  1  0.63644217  0.50365630  0.63900947  1
  O  O15  1  0.86902790  0.50714769  0.13979340  1
  O  O16  1  0.64130412  0.12284869  0.13590468  1
  O  O17  1  0.49110641  0.35404923  0.14168737  1
  O  O18  1  0.45957256  0.29214786  0.02821592  1
  O  O19  1  0.83362187  0.53640245  0.02663967  1
  O  O20  1  0.70404647  0.15342756  0.03227540  1
  O  O21  1  0.46574675  0.16113333  0.52520898  1
  O  O22  1  0.70149191  0.54073377  0.52705847  1
  O  O23  1  0.85048932  0.30416918  0.53087951  1
  O  O24  1  0.54256675  0.69129258  0.96915236  1
  O  O25  1  0.15069625  0.45522829  0.96920965  1
  O  O26  1  0.31148845  0.84029958  0.97346224  1
  O  O27  1  0.53819149  0.84383295  0.46878319  1
  O  O28  1  0.30748510  0.45912377  0.46796749  1
  O  O29  1  0.16855814  0.68592822  0.47238611  1
  O  O30  1  0.13792975  0.63829758  0.36062644  1
  O  O31  1  0.51269267  0.87107514  0.36410089  1
  O  O32  1  0.36433401  0.48881525  0.36409546  1
  O  O33  1  0.12172456  0.48165805  0.86493124  1
  O  O34  1  0.35638027  0.86079974  0.86044177  1
  O  O35  1  0.51479036  0.63761610  0.86467401  1
  O  O36  1  0.02598240  0.83347806  0.40523248  1
  O  O37  1  0.79060305  0.96864138  0.40951314  1
  O  O38  1  0.18043903  0.20727501  0.40756282  1
  O  O39  1  0.02302530  0.20155710  0.91185551  1
  O  O40  1  0.15862016  0.97537524  0.91207080  1
  O  O41  1  0.79684908  0.82120859  0.91090732  1
  O  O42  1  0.97870433  0.18064291  0.59040185  1
  O  O43  1  0.18257929  0.01911888  0.59551348  1
  O  O44  1  0.83397167  0.81719755  0.59547928  1
  O  O45  1  0.97200687  0.81628331  0.09708174  1
  O  O46  1  0.82532936  0.02365271  0.09285398  1
  O  O47  1  0.18532729  0.16322055  0.09411985  1
  O  O48  1  0.70387800  0.17995817  0.74212669  1
  O  O49  1  0.47854435  0.31217298  0.74418561  1
  O  O50  1  0.84644191  0.53996767  0.74204777  1
  O  O51  1  0.69230818  0.53868541  0.24438237  1
  O  O52  1  0.82342985  0.30388185  0.24385426  1
  O  O53  1  0.45938779  0.15457293  0.24341509  1
  O  O54  1  0.64232150  0.51175691  0.92270952  1
  O  O55  1  0.86874970  0.35769997  0.92454258  1
  O  O56  1  0.50732973  0.14862088  0.92353132  1
  O  O57  1  0.63956493  0.12643804  0.42320587  1
  O  O58  1  0.48807569  0.35789925  0.42193898  1
  O  O59  1  0.85112597  0.48951995  0.42304011  1
  O  O60  1  0.35710111  0.50164771  0.07202692  1
  O  O61  1  0.14404621  0.65011250  0.07531304  1
  O  O62  1  0.51982555  0.87161080  0.07595145  1
  O  O63  1  0.35380712  0.85581259  0.57123266  1
  O  O64  1  0.49669920  0.64361714  0.56668140  1
  O  O65  1  0.13429946  0.48643308  0.57257287  1
  O  O66  1  0.30678573  0.84772332  0.25768210  1
  O  O67  1  0.54223237  0.69781477  0.25906572  1
  O  O68  1  0.16837395  0.47088785  0.25824933  1
  O  O69  1  0.29977571  0.47439684  0.76113430  1
  O  O70  1  0.15278952  0.69539361  0.75698862  1
  O  O71  1  0.52979277  0.83615501  0.75678851  1
loop_
_geom_bond_atom_site_label_1
_geom_bond_atom_site_label_2
_geom_bond_distance
_geom_bond_site_symmetry_2
Na0 O40 2.418593 1_555
Na0 O41 2.631894 1_455
Na0 O39 2.640468 1_565
Na0 O47 2.738572 1_566
Na0 O45 2.762279 1_456
Na0 O46 2.882898 1_466
Na1 O49 2.522071 1_555
Na1 O48 2.537848 1_555
Na1 O56 2.594346 1_555
Na1 O50 2.777696 1_555
Na1 O55 2.787739 1_555
Na1 O54 2.797241 1_555
Na2 O59 2.504345 1_555
Na2 O52 2.560492 1_555
Na2 O57 2.691368 1_555
Na2 O51 2.717186 1_555
Na2 O58 2.733568 1_555
Na2 O53 2.786888 1_555
Hf0 O36 1.969936 1_655
Hf0 O2 1.978582 1_565
Hf0 O37 2.088906 1_555
Hf0 O38 2.103037 1_665
Hf0 O1 2.143515 1_555
Hf0 O0 2.204523 1_665
Hf1 O3 1.903120 1_555
Hf1 O5 1.965191 1_455
Hf1 O40 2.046225 1_545
Hf1 O4 2.133752 1_445
Hf1 O39 2.190581 1_555
Hf1 O41 2.303690 1_445
Hf2 O13 1.951240 1_555
Hf2 O49 1.954121 1_555
Hf2 O14 2.013019 1_555
Hf2 O48 2.024090 1_555
Hf2 O50 2.250748 1_555
Hf2 O12 2.344692 1_555
Hf3 O15 1.901494 1_555
Hf3 O17 1.969724 1_555
Hf3 O52 2.042641 1_555
Hf3 O16 2.161324 1_555
Hf3 O51 2.176646 1_555
Hf3 O53 2.310481 1_555
Hf4 O18 1.947442 1_556
Hf4 O56 1.997294 1_555
Hf4 O19 2.027361 1_556
Hf4 O54 2.103317 1_555
Hf4 O20 2.236313 1_556
Hf4 O55 2.238618 1_555
Hf5 O22 1.900108 1_555
Hf5 O21 1.983942 1_555
Hf5 O59 2.068955 1_555
Hf5 O23 2.127060 1_555
Hf5 O58 2.196294 1_555
Hf5 O57 2.324453 1_555
Hf6 O61 1.940712 1_555
Hf6 O26 1.956236 1_554
Hf6 O60 2.016152 1_555
Hf6 O25 2.123130 1_554
Hf6 O62 2.192747 1_555
Hf6 O24 2.272472 1_554
Hf7 O30 1.910032 1_555
Hf7 O68 1.928298 1_555
Hf7 O66 2.139024 1_555
Hf7 O32 2.142758 1_555
Hf7 O67 2.231580 1_555
Hf7 O31 2.232536 1_555
Hf8 O71 1.914144 1_555
Hf8 O69 1.989682 1_555
Hf8 O34 1.997744 1_555
Hf8 O70 2.119412 1_555
Hf8 O35 2.191541 1_555
Hf8 O33 2.356495 1_555
O0 S0 1.479136 1_555
O1 S1 1.493514 1_555
O2 Si0 1.622879 1_555
O3 Si1 1.634312 1_555
O4 S2 1.486852 1_555
O5 Si2 1.624185 1_555
O6 Si2 1.659638 1_565
O6 Ta0 1.913937 1_565
O7 Si1 1.648870 1_555
O7 Ta0 1.934141 1_455
O8 S2 1.492181 1_455
O8 Ta0 2.116339 1_465
O9 S1 1.478957 1_555
O9 Ta1 2.252260 1_665
O10 Si0 1.666777 1_455
O10 Ta1 1.909143 1_555
O11 S0 1.502889 1_565
O11 Ta1 2.106382 1_565
O12 S3 1.454222 1_555
O13 Si3 1.604218 1_555
O14 Si4 1.599557 1_555
O15 Si5 1.632308 1_555
O16 S4 1.480393 1_555
O17 Si6 1.615566 1_555
O18 Si6 1.624142 1_555
O19 Si5 1.611479 1_555
O20 S4 1.475134 1_555
O21 Si3 1.626476 1_555
O22 Si4 1.644403 1_555
O23 S3 1.487579 1_555
O24 S5 1.474401 1_555
O25 S6 1.492731 1_555
O26 Si7 1.639215 1_555
O27 S7 1.487736 1_555
O27 Ta2 2.193487 1_555
O28 S8 1.463979 1_555
O28 Ta2 2.301877 1_555
O29 Si8 1.650922 1_555
O29 Ta2 1.936428 1_555
O30 Si8 1.650160 1_555
O31 S7 1.484052 1_555
O32 S8 1.495613 1_555
O33 S6 1.463432 1_555
O34 Si7 1.624229 1_555
O35 S5 1.478975 1_555
O36 Si8 1.627128 1_555
O37 S7 1.494116 1_555
O38 S8 1.484942 1_555
O39 S6 1.497132 1_555
O40 Si7 1.643518 1_555
O41 S5 1.477167 1_555
O42 S3 1.475054 1_555
O42 Ta0 2.122633 1_555
O43 Si3 1.614417 1_555
O43 Ta0 1.970395 1_455
O44 Si4 1.624194 1_555
O44 Ta0 1.945327 1_565
O45 Si5 1.672610 1_555
O45 Ta1 1.931535 1_665
O46 S4 1.520951 1_555
O46 Ta1 2.061276 1_655
O47 Si6 1.706900 1_555
O47 Ta1 1.857745 1_555
O48 Si2 1.619026 1_555
O49 Si1 1.631784 1_555
O50 S2 1.466773 1_555
O51 S1 1.493664 1_555
O52 Si0 1.625287 1_555
O53 S0 1.472671 1_555
O54 S5 1.507956 1_555
O55 S6 1.487604 1_655
O56 Si7 1.656795 1_545
O57 S7 1.474505 1_545
O58 S8 1.488735 1_555
O59 Si8 1.629424 1_655
O60 Si6 1.585957 1_555
O61 Si5 1.604713 1_455
O62 S4 1.452728 1_565
O63 Si3 1.685945 1_565
O63 Ta2 1.826759 1_555
O64 Si4 1.664426 1_555
O64 Ta2 1.895040 1_555
O65 S3 1.512868 1_455
O65 Ta2 2.023279 1_555
O66 S0 1.480459 1_565
O67 S1 1.470694 1_555
O68 Si0 1.632367 1_455
O69 Si1 1.603014 1_555
O70 S2 1.470649 1_455
O71 Si2 1.625037 1_565
