# generated using pymatgen
data_Ta3TeI7
_symmetry_space_group_name_H-M   'P 1'
_cell_length_a   7.68760146
_cell_length_b   7.68760146
_cell_length_c   15.07368300
_cell_angle_alpha   90.00000000
_cell_angle_beta   90.00000000
_cell_angle_gamma   119.99999533
_symmetry_Int_Tables_number   1
_chemical_formula_structural   Ta3TeI7
_chemical_formula_sum   'Ta6 Te2 I14'
_cell_volume   771.49257528
_cell_formula_units_Z   2
loop_
 _symmetry_equiv_pos_site_id
 _symmetry_equiv_pos_as_xyz
  1  'x, y, z'
loop_
 _atom_site_type_symbol
 _atom_site_label
 _atom_site_symmetry_multiplicity
 _atom_site_fract_x
 _atom_site_fract_y
 _atom_site_fract_z
 _atom_site_occupancy
  Ta  Ta0  1  0.13068100  0.86931900  0.75051100  1
  Ta  Ta1  1  0.26136200  0.13068100  0.25051100  1
  Ta  Ta2  1  0.86931900  0.73863800  0.25051100  1
  Ta  Ta3  1  0.13068100  0.26136200  0.75051100  1
  Ta  Ta4  1  0.73863800  0.86931900  0.75051100  1
  Ta  Ta5  1  0.86931900  0.13068100  0.25051100  1
  Te  Te0  1  0.00000000  0.00000000  0.89084800  1
  Te  Te1  1  0.00000000  0.00000000  0.39084800  1
  I  I0  1  0.49849700  0.99699500  0.35113500  1
  I  I1  1  0.50150300  0.00300500  0.85113500  1
  I  I2  1  0.99699500  0.49849700  0.85113500  1
  I  I3  1  0.49849700  0.50150300  0.35113500  1
  I  I4  1  0.00300500  0.50150300  0.35113500  1
  I  I5  1  0.50150300  0.49849700  0.85113500  1
  I  I6  1  0.33333300  0.66666700  0.65409900  1
  I  I7  1  0.66666700  0.33333300  0.15409900  1
  I  I8  1  0.83277700  0.16722300  0.62627100  1
  I  I9  1  0.66555400  0.83277700  0.12627200  1
  I  I10  1  0.16722300  0.33444600  0.12627200  1
  I  I11  1  0.83277700  0.66555400  0.62627100  1
  I  I12  1  0.33444600  0.16722300  0.62627100  1
  I  I13  1  0.16722300  0.83277700  0.12627200  1
loop_
_geom_bond_atom_site_label_1
_geom_bond_atom_site_label_2
_geom_bond_distance
_geom_bond_site_symmetry_2
Ta0 Te0 2.739106 1_565
Ta1 Te1 2.739106 1_555
Ta2 Te1 2.739106 1_665
Ta3 Te0 2.739106 1_555
Ta4 Te0 2.739106 1_665
Ta5 Te1 2.739106 1_655
I0 Ta1 2.924669 1_565
I0 Ta5 2.924675 1_565
I1 Ta4 2.924669 1_545
I1 Ta0 2.924675 1_545
I2 Ta3 2.924669 1_655
I2 Ta0 2.924675 1_655
I3 Ta2 2.924675 1_555
I3 Ta1 2.924675 1_555
I4 Ta2 2.924669 1_455
I4 Ta5 2.924675 1_455
I5 Ta4 2.924675 1_555
I5 Ta3 2.924675 1_555
I6 Ta0 3.064843 1_555
I6 Ta4 3.064849 1_555
I6 Ta3 3.064849 1_555
I7 Ta5 3.064843 1_555
I7 Ta2 3.064849 1_555
I7 Ta1 3.064849 1_555
I8 Ta3 2.760149 1_655
I8 Ta4 2.760149 1_545
I9 Ta2 2.760138 1_555
I9 Ta5 2.760138 1_565
I10 Ta1 2.760138 1_555
I10 Ta5 2.760138 1_455
I11 Ta4 2.760149 1_555
I11 Ta0 2.760149 1_655
I12 Ta3 2.760149 1_555
I12 Ta0 2.760149 1_545
I13 Ta2 2.760138 1_455
I13 Ta1 2.760138 1_565
