# generated using pymatgen
data_K4Ge23
_symmetry_space_group_name_H-M   'P 1'
_cell_length_a   10.86951103
_cell_length_b   10.86951103
_cell_length_c   10.86951103
_cell_angle_alpha   89.99999009
_cell_angle_beta   89.99999009
_cell_angle_gamma   89.99999009
_symmetry_Int_Tables_number   1
_chemical_formula_structural   K4Ge23
_chemical_formula_sum   'K8 Ge46'
_cell_volume   1284.19218526
_cell_formula_units_Z   2
loop_
 _symmetry_equiv_pos_site_id
 _symmetry_equiv_pos_as_xyz
  1  'x, y, z'
loop_
 _atom_site_type_symbol
 _atom_site_label
 _atom_site_symmetry_multiplicity
 _atom_site_fract_x
 _atom_site_fract_y
 _atom_site_fract_z
 _atom_site_occupancy
  K  K0  1  0.00000000  -0.00000000  -0.00000000  1
  K  K1  1  0.50000000  0.50000000  0.50000000  1
  K  K2  1  0.25000000  0.50000000  -0.00000000  1
  K  K3  1  0.75000000  0.50000000  -0.00000000  1
  K  K4  1  0.50000000  0.00000000  0.25000000  1
  K  K5  1  0.50000000  -0.00000000  0.75000000  1
  K  K6  1  0.00000000  0.75000000  0.50000000  1
  K  K7  1  0.00000000  0.25000000  0.50000000  1
  Ge  Ge0  1  0.25000000  0.00000000  0.50000000  1
  Ge  Ge1  1  0.75000000  -0.00000000  0.50000000  1
  Ge  Ge2  1  0.00000000  0.50000000  0.25000000  1
  Ge  Ge3  1  0.00000000  0.50000000  0.75000000  1
  Ge  Ge4  1  0.50000000  0.75000000  -0.00000000  1
  Ge  Ge5  1  0.50000000  0.25000000  -0.00000000  1
  Ge  Ge6  1  0.18469109  0.18469109  0.18469109  1
  Ge  Ge7  1  0.68469109  0.31530891  0.68469109  1
  Ge  Ge8  1  0.68469109  0.68469109  0.31530891  1
  Ge  Ge9  1  0.31530891  0.68469109  0.68469109  1
  Ge  Ge10  1  0.81530891  0.81530891  0.18469109  1
  Ge  Ge11  1  0.18469109  0.81530891  0.81530891  1
  Ge  Ge12  1  0.81530891  0.18469109  0.81530891  1
  Ge  Ge13  1  0.31530891  0.31530891  0.31530891  1
  Ge  Ge14  1  0.81530891  0.81530891  0.81530891  1
  Ge  Ge15  1  0.31530891  0.68469109  0.31530891  1
  Ge  Ge16  1  0.31530891  0.31530891  0.68469109  1
  Ge  Ge17  1  0.68469109  0.31530891  0.31530891  1
  Ge  Ge18  1  0.18469109  0.18469109  0.81530891  1
  Ge  Ge19  1  0.81530891  0.18469109  0.18469109  1
  Ge  Ge20  1  0.18469109  0.81530891  0.18469109  1
  Ge  Ge21  1  0.68469109  0.68469109  0.68469109  1
  Ge  Ge22  1  1.00000000  0.30634550  0.11904677  1
  Ge  Ge23  1  0.50000000  0.38095323  0.80634550  1
  Ge  Ge24  1  0.50000000  0.61904677  0.19365450  1
  Ge  Ge25  1  0.61904677  0.80634550  0.50000000  1
  Ge  Ge26  1  0.38095323  0.80634550  0.50000000  1
  Ge  Ge27  1  0.19365450  0.50000000  0.61904677  1
  Ge  Ge28  1  0.80634550  0.50000000  0.61904677  1
  Ge  Ge29  1  0.11904677  1.00000000  0.30634550  1
  Ge  Ge30  1  0.30634550  0.11904677  1.00000000  1
  Ge  Ge31  1  0.69365450  0.88095323  0.00000000  1
  Ge  Ge32  1  0.11904677  0.00000000  0.69365450  1
  Ge  Ge33  1  0.69365450  0.11904677  0.00000000  1
  Ge  Ge34  1  0.88095323  1.00000000  0.30634550  1
  Ge  Ge35  1  0.88095323  0.00000000  0.69365450  1
  Ge  Ge36  1  0.30634550  0.88095323  1.00000000  1
  Ge  Ge37  1  0.00000000  0.69365450  0.88095323  1
  Ge  Ge38  1  1.00000000  0.30634550  0.88095323  1
  Ge  Ge39  1  0.00000000  0.69365450  0.11904677  1
  Ge  Ge40  1  0.80634550  0.50000000  0.38095323  1
  Ge  Ge41  1  0.19365450  0.50000000  0.38095323  1
  Ge  Ge42  1  0.61904677  0.19365450  0.50000000  1
  Ge  Ge43  1  0.38095323  0.19365450  0.50000000  1
  Ge  Ge44  1  0.50000000  0.61904677  0.80634550  1
  Ge  Ge45  1  0.50000000  0.38095323  0.19365450  1
loop_
_geom_bond_atom_site_label_1
_geom_bond_atom_site_label_2
_geom_bond_distance
_geom_bond_site_symmetry_2
Ge0 Ge32 2.541021 1_555
Ge0 Ge26 2.541021 1_545
Ge0 Ge43 2.541022 1_555
Ge0 Ge29 2.541022 1_545
Ge0 K4 3.842952 1_555
Ge0 K7 3.842952 1_555
Ge0 K5 3.842953 1_555
Ge0 K6 3.842953 1_545
Ge1 Ge42 2.541021 1_555
Ge1 Ge34 2.541021 1_545
Ge1 Ge35 2.541022 1_555
Ge1 Ge25 2.541022 1_545
Ge1 K6 3.842952 1_645
Ge1 K5 3.842952 1_555
Ge1 K4 3.842953 1_555
Ge1 K7 3.842953 1_655
Ge2 Ge40 2.541021 1_455
Ge2 Ge39 2.541021 1_555
Ge2 Ge41 2.541022 1_555
Ge2 Ge22 2.541022 1_455
Ge2 K2 3.842952 1_555
Ge2 K7 3.842952 1_555
Ge2 K6 3.842953 1_555
Ge2 K3 3.842953 1_455
Ge3 Ge38 2.541021 1_455
Ge3 Ge37 2.541022 1_555
Ge3 K6 3.842952 1_555
Ge3 K3 3.842952 1_456
Ge3 K7 3.842953 1_555
Ge3 K2 3.842953 1_556
Ge4 Ge44 2.541022 1_554
Ge4 K5 3.842952 1_564
Ge4 K3 3.842952 1_555
Ge4 K4 3.842953 1_565
Ge4 K2 3.842953 1_555
Ge5 K2 3.842952 1_555
Ge5 K4 3.842952 1_555
Ge5 K5 3.842953 1_554
Ge5 K3 3.842953 1_555
Ge6 K0 3.477096 1_555
Ge7 K1 3.477095 1_555
Ge8 K1 3.477095 1_555
Ge9 K1 3.477095 1_555
Ge10 Ge8 2.459082 1_555
Ge10 Ge39 2.507532 1_655
Ge10 Ge31 2.507532 1_555
Ge10 Ge34 2.507532 1_555
Ge10 K0 3.477095 1_665
Ge11 Ge9 2.459082 1_555
Ge11 Ge32 2.507532 1_565
Ge11 Ge37 2.507532 1_555
Ge11 Ge36 2.507532 1_555
Ge11 K0 3.477095 1_566
Ge12 Ge7 2.459082 1_555
Ge12 Ge33 2.507532 1_556
Ge12 Ge35 2.507532 1_555
Ge12 Ge38 2.507532 1_555
Ge12 K0 3.477095 1_656
Ge13 Ge6 2.459083 1_555
Ge13 Ge41 2.507532 1_555
Ge13 Ge45 2.507532 1_555
Ge13 Ge43 2.507532 1_555
Ge13 K1 3.477096 1_555
Ge14 Ge21 2.459083 1_555
Ge14 Ge37 2.507532 1_655
Ge14 Ge31 2.507532 1_556
Ge14 Ge35 2.507532 1_565
Ge14 K0 3.477096 1_666
Ge15 Ge20 2.459082 1_555
Ge15 Ge24 2.507532 1_555
Ge15 Ge41 2.507532 1_555
Ge15 Ge26 2.507532 1_555
Ge15 K1 3.477095 1_555
Ge16 Ge18 2.459082 1_555
Ge16 Ge27 2.507532 1_555
Ge16 Ge43 2.507532 1_555
Ge16 Ge23 2.507532 1_555
Ge16 K1 3.477095 1_555
Ge17 Ge19 2.459082 1_555
Ge17 Ge42 2.507532 1_555
Ge17 Ge45 2.507532 1_555
Ge17 Ge40 2.507532 1_555
Ge17 K1 3.477095 1_555
Ge18 Ge38 2.507532 1_455
Ge18 Ge30 2.507532 1_555
Ge18 Ge32 2.507532 1_555
Ge18 K0 3.477095 1_556
Ge19 Ge34 2.507532 1_545
Ge19 Ge22 2.507532 1_555
Ge19 Ge33 2.507532 1_555
Ge19 K0 3.477095 1_655
Ge20 Ge36 2.507532 1_554
Ge20 Ge29 2.507532 1_555
Ge20 Ge39 2.507532 1_555
Ge20 K0 3.477095 1_565
Ge21 Ge44 2.507532 1_555
Ge21 Ge28 2.507532 1_555
Ge21 Ge25 2.507532 1_555
Ge21 K1 3.477096 1_555
Ge22 Ge6 2.507532 1_655
Ge22 Ge38 2.587960 1_554
Ge22 K0 3.572412 1_655
Ge22 K3 3.672772 1_555
Ge22 K2 3.672772 1_655
Ge23 Ge7 2.507532 1_555
Ge23 Ge5 2.541021 1_556
Ge23 Ge44 2.587960 1_555
Ge23 K1 3.572411 1_555
Ge23 K2 3.672772 1_556
Ge23 K3 3.672773 1_556
Ge24 Ge8 2.507532 1_555
Ge24 Ge4 2.541021 1_555
Ge24 Ge45 2.587960 1_555
Ge24 K1 3.572411 1_555
Ge24 K3 3.672772 1_555
Ge24 K2 3.672773 1_555
Ge25 Ge8 2.507532 1_555
Ge25 Ge26 2.587960 1_555
Ge25 K1 3.572412 1_555
Ge25 K4 3.672772 1_565
Ge25 K5 3.672772 1_565
Ge26 Ge9 2.507532 1_555
Ge26 K1 3.572411 1_555
Ge26 K4 3.672772 1_565
Ge26 K5 3.672773 1_565
Ge27 Ge9 2.507532 1_555
Ge27 Ge3 2.541021 1_555
Ge27 Ge41 2.587960 1_555
Ge27 K1 3.572411 1_555
Ge27 K6 3.672772 1_555
Ge27 K7 3.672773 1_555
Ge28 Ge7 2.507532 1_555
Ge28 Ge3 2.541022 1_655
Ge28 Ge40 2.587960 1_555
Ge28 K1 3.572412 1_555
Ge28 K7 3.672772 1_655
Ge28 K6 3.672772 1_655
Ge29 Ge6 2.507532 1_565
Ge29 Ge34 2.587960 1_455
Ge29 K0 3.572412 1_565
Ge29 K6 3.672772 1_555
Ge29 K7 3.672772 1_565
Ge30 Ge6 2.507532 1_556
Ge30 Ge5 2.541022 1_556
Ge30 Ge36 2.587960 1_545
Ge30 K0 3.572412 1_556
Ge30 K5 3.672772 1_555
Ge30 K4 3.672772 1_556
Ge31 Ge4 2.541022 1_555
Ge31 Ge33 2.587960 1_565
Ge31 K0 3.572412 1_665
Ge31 K4 3.672772 1_565
Ge31 K5 3.672772 1_564
Ge32 Ge35 2.587960 1_455
Ge32 K0 3.572411 1_556
Ge32 K7 3.672772 1_555
Ge32 K6 3.672773 1_545
Ge33 Ge5 2.541021 1_555
Ge33 K0 3.572411 1_655
Ge33 K4 3.672772 1_555
Ge33 K5 3.672773 1_554
Ge34 K0 3.572411 1_665
Ge34 K6 3.672772 1_655
Ge34 K7 3.672773 1_665
Ge35 K0 3.572412 1_656
Ge35 K7 3.672772 1_655
Ge35 K6 3.672772 1_645
Ge36 Ge4 2.541021 1_556
Ge36 K0 3.572411 1_566
Ge36 K5 3.672772 1_565
Ge36 K4 3.672773 1_566
Ge37 Ge39 2.587960 1_556
Ge37 K0 3.572412 1_566
Ge37 K2 3.672772 1_556
Ge37 K3 3.672772 1_456
Ge38 K0 3.572411 1_656
Ge38 K3 3.672772 1_556
Ge38 K2 3.672773 1_656
Ge39 K0 3.572411 1_565
Ge39 K2 3.672772 1_555
Ge39 K3 3.672773 1_455
Ge40 Ge8 2.507532 1_555
Ge40 K1 3.572411 1_555
Ge40 K7 3.672772 1_655
Ge40 K6 3.672773 1_655
Ge41 K1 3.572412 1_555
Ge41 K6 3.672772 1_555
Ge41 K7 3.672772 1_555
Ge42 Ge7 2.507532 1_555
Ge42 Ge43 2.587960 1_555
Ge42 K1 3.572411 1_555
Ge42 K5 3.672772 1_555
Ge42 K4 3.672773 1_555
Ge43 K1 3.572412 1_555
Ge43 K5 3.672772 1_555
Ge43 K4 3.672772 1_555
Ge44 Ge9 2.507532 1_555
Ge44 K1 3.572412 1_555
Ge44 K2 3.672772 1_556
Ge44 K3 3.672772 1_556
Ge45 Ge5 2.541022 1_555
Ge45 K1 3.572412 1_555
Ge45 K3 3.672772 1_555
Ge45 K2 3.672772 1_555
