# generated using pymatgen
data_TbNiSn
_symmetry_space_group_name_H-M   'P 1'
_cell_length_a   4.45975779
_cell_length_b   7.15476543
_cell_length_c   7.63011345
_cell_angle_alpha   90.00000000
_cell_angle_beta   90.00000000
_cell_angle_gamma   90.00000000
_symmetry_Int_Tables_number   1
_chemical_formula_structural   TbNiSn
_chemical_formula_sum   'Tb4 Ni4 Sn4'
_cell_volume   243.46563420
_cell_formula_units_Z   4
loop_
 _symmetry_equiv_pos_site_id
 _symmetry_equiv_pos_as_xyz
  1  'x, y, z'
loop_
 _atom_site_type_symbol
 _atom_site_label
 _atom_site_symmetry_multiplicity
 _atom_site_fract_x
 _atom_site_fract_y
 _atom_site_fract_z
 _atom_site_occupancy
  Tb  Tb0  1  0.75000000  0.01481686  0.29858424  1
  Tb  Tb1  1  0.25000000  0.98518314  0.70141576  1
  Tb  Tb2  1  0.75000000  0.51481686  0.20141576  1
  Tb  Tb3  1  0.25000000  0.48518314  0.79858424  1
  Ni  Ni0  1  0.75000000  0.80081187  0.91566854  1
  Ni  Ni1  1  0.25000000  0.19918813  0.08433146  1
  Ni  Ni2  1  0.75000000  0.30081187  0.58433146  1
  Ni  Ni3  1  0.25000000  0.69918813  0.41566854  1
  Sn  Sn0  1  0.75000000  0.68849716  0.58728635  1
  Sn  Sn1  1  0.25000000  0.31150284  0.41271365  1
  Sn  Sn2  1  0.75000000  0.18849716  0.91271365  1
  Sn  Sn3  1  0.25000000  0.81150284  0.08728635  1
loop_
_geom_bond_atom_site_label_1
_geom_bond_atom_site_label_2
_geom_bond_distance
_geom_bond_site_symmetry_2
Ni0 Sn3 2.587065 1_656
Ni0 Sn3 2.587065 1_556
Ni0 Sn0 2.631302 1_555
Ni0 Sn2 2.773889 1_565
Ni0 Tb2 2.990097 1_556
Ni0 Tb1 3.063487 1_555
Ni0 Tb1 3.063487 1_655
Ni0 Tb3 3.296992 1_655
Ni0 Tb3 3.296992 1_555
Ni0 Tb0 3.298592 1_566
Ni1 Sn2 2.587065 1_554
Ni1 Sn2 2.587065 1_454
Ni1 Sn1 2.631302 1_555
Ni1 Sn3 2.773889 1_545
Ni1 Tb3 2.990097 1_554
Ni1 Tb0 3.063487 1_555
Ni1 Tb0 3.063487 1_455
Ni1 Tb2 3.296992 1_555
Ni1 Tb2 3.296992 1_455
Ni1 Tb1 3.298592 1_544
Ni2 Sn1 2.587065 1_655
Ni2 Sn1 2.587065 1_555
Ni2 Sn2 2.631302 1_555
Ni2 Sn0 2.773889 1_555
Ni2 Tb0 2.990097 1_555
Ni2 Tb3 3.063487 1_555
Ni2 Tb3 3.063487 1_655
Ni2 Tb1 3.296992 1_545
Ni2 Tb1 3.296992 1_645
Ni2 Tb2 3.298592 1_555
Ni3 Sn0 2.587065 1_455
Ni3 Sn0 2.587065 1_555
Ni3 Sn3 2.631302 1_555
Ni3 Sn1 2.773889 1_555
Ni3 Tb1 2.990097 1_555
Ni3 Tb2 3.063487 1_555
Ni3 Tb2 3.063487 1_455
Ni3 Tb0 3.296992 1_565
Ni3 Tb0 3.296992 1_465
Ni3 Tb3 3.298592 1_555
Sn0 Tb3 3.112504 1_555
Sn0 Tb3 3.112504 1_655
Sn0 Tb2 3.195729 1_555
Sn0 Tb1 3.199472 1_555
Sn0 Tb1 3.199472 1_655
Sn0 Tb0 3.209903 1_565
Sn1 Tb2 3.112504 1_455
Sn1 Tb2 3.112504 1_555
Sn1 Tb3 3.195729 1_555
Sn1 Tb0 3.199472 1_555
Sn1 Tb0 3.199472 1_455
Sn1 Tb1 3.209903 1_545
Sn2 Tb1 3.112504 1_545
Sn2 Tb1 3.112504 1_645
Sn2 Tb0 3.195729 1_556
Sn2 Tb3 3.199472 1_655
Sn2 Tb3 3.199472 1_555
Sn2 Tb2 3.209903 1_556
Sn3 Tb0 3.112504 1_565
Sn3 Tb0 3.112504 1_465
Sn3 Tb1 3.195729 1_554
Sn3 Tb2 3.199472 1_455
Sn3 Tb2 3.199472 1_555
Sn3 Tb3 3.209903 1_554
