# generated using pymatgen
data_CeIn2Ir
_symmetry_space_group_name_H-M   'P 1'
_cell_length_a   5.50637279
_cell_length_b   5.50637279
_cell_length_c   8.22432700
_cell_angle_alpha   90.00000000
_cell_angle_beta   90.00000000
_cell_angle_gamma   133.05066882
_symmetry_Int_Tables_number   1
_chemical_formula_structural   CeIn2Ir
_chemical_formula_sum   'Ce2 In4 Ir2'
_cell_volume   182.22190906
_cell_formula_units_Z   2
loop_
 _symmetry_equiv_pos_site_id
 _symmetry_equiv_pos_as_xyz
  1  'x, y, z'
loop_
 _atom_site_type_symbol
 _atom_site_label
 _atom_site_symmetry_multiplicity
 _atom_site_fract_x
 _atom_site_fract_y
 _atom_site_fract_z
 _atom_site_occupancy
  Ce  Ce0  1  0.93159500  0.06840500  0.75000000  1
  Ce  Ce1  1  0.06840500  0.93159500  0.25000000  1
  In  In0  1  0.64360800  0.35639200  0.54991900  1
  In  In1  1  0.35639200  0.64360800  0.45008100  1
  In  In2  1  0.64360800  0.35639200  0.95008100  1
  In  In3  1  0.35639200  0.64360800  0.04991900  1
  Ir  Ir0  1  0.78329400  0.21670600  0.25000000  1
  Ir  Ir1  1  0.21670600  0.78329400  0.75000000  1
loop_
_geom_bond_atom_site_label_1
_geom_bond_atom_site_label_2
_geom_bond_distance
_geom_bond_site_symmetry_2
Ce0 Ir1 2.879989 1_645
Ce0 Ir1 3.085915 1_655
Ce0 Ir1 3.085915 1_545
Ce0 In2 3.342198 1_555
Ce0 In0 3.342198 1_555
Ce0 In3 3.387103 1_656
Ce0 In3 3.387103 1_546
Ce0 In1 3.387103 1_545
Ce0 In1 3.387103 1_655
Ce0 In2 3.479277 1_545
Ce0 In2 3.479277 1_655
Ce0 In0 3.479277 1_655
Ce0 In0 3.479277 1_545
Ce1 Ir0 2.879989 1_465
Ce1 Ir0 3.085915 1_565
Ce1 Ir0 3.085915 1_455
Ce1 In1 3.342198 1_555
Ce1 In3 3.342198 1_555
Ce1 In0 3.387103 1_565
Ce1 In0 3.387103 1_455
Ce1 In2 3.387103 1_454
Ce1 In2 3.387103 1_564
Ce1 In1 3.479277 1_565
Ce1 In1 3.479277 1_455
Ce1 In3 3.479277 1_455
Ce1 In3 3.479277 1_565
In0 Ir1 2.839738 1_655
In0 Ir1 2.839738 1_545
In0 Ir0 2.841693 1_555
In1 Ir0 2.839738 1_565
In1 Ir0 2.839738 1_455
In1 Ir1 2.841693 1_555
In2 Ir1 2.839738 1_655
In2 Ir1 2.839738 1_545
In2 Ir0 2.841693 1_556
In3 Ir0 2.839738 1_565
In3 Ir0 2.839738 1_455
In3 Ir1 2.841693 1_554
