# generated using pymatgen
data_Zr2Ni2Sn
_symmetry_space_group_name_H-M   'P 1'
_cell_length_a   14.26422800
_cell_length_b   14.26422800
_cell_length_c   6.86895000
_cell_angle_alpha   90.00000000
_cell_angle_beta   90.00000000
_cell_angle_gamma   90.00000000
_symmetry_Int_Tables_number   1
_chemical_formula_structural   Zr2Ni2Sn
_chemical_formula_sum   'Zr32 Ni32 Sn16'
_cell_volume   1397.61289538
_cell_formula_units_Z   16
loop_
 _symmetry_equiv_pos_site_id
 _symmetry_equiv_pos_as_xyz
  1  'x, y, z'
loop_
 _atom_site_type_symbol
 _atom_site_label
 _atom_site_symmetry_multiplicity
 _atom_site_fract_x
 _atom_site_fract_y
 _atom_site_fract_z
 _atom_site_occupancy
  Zr  Zr0_0  1  0.41530350  0.33469650  0.25000000  1
  Zr  Zr0_1  1  0.41530350  0.33469650  0.75000000  1
  Zr  Zr0_2  1  0.41530350  0.83469650  0.25000000  1
  Zr  Zr0_3  1  0.41530350  0.83469650  0.75000000  1
  Zr  Zr0_4  1  0.91530350  0.33469650  0.25000000  1
  Zr  Zr0_5  1  0.91530350  0.33469650  0.75000000  1
  Zr  Zr0_6  1  0.91530350  0.83469650  0.25000000  1
  Zr  Zr0_7  1  0.91530350  0.83469650  0.75000000  1
  Zr  Zr1_0  1  0.16530350  0.41530350  0.25000000  1
  Zr  Zr1_1  1  0.16530350  0.41530350  0.75000000  1
  Zr  Zr1_2  1  0.16530350  0.91530350  0.25000000  1
  Zr  Zr1_3  1  0.16530350  0.91530350  0.75000000  1
  Zr  Zr1_4  1  0.66530350  0.41530350  0.25000000  1
  Zr  Zr1_5  1  0.66530350  0.41530350  0.75000000  1
  Zr  Zr1_6  1  0.66530350  0.91530350  0.25000000  1
  Zr  Zr1_7  1  0.66530350  0.91530350  0.75000000  1
  Zr  Zr2_0  1  0.33469650  0.08469650  0.25000000  1
  Zr  Zr2_1  1  0.33469650  0.08469650  0.75000000  1
  Zr  Zr2_2  1  0.33469650  0.58469650  0.25000000  1
  Zr  Zr2_3  1  0.33469650  0.58469650  0.75000000  1
  Zr  Zr2_4  1  0.83469650  0.08469650  0.25000000  1
  Zr  Zr2_5  1  0.83469650  0.08469650  0.75000000  1
  Zr  Zr2_6  1  0.83469650  0.58469650  0.25000000  1
  Zr  Zr2_7  1  0.83469650  0.58469650  0.75000000  1
  Zr  Zr3_0  1  0.08469650  0.16530350  0.25000000  1
  Zr  Zr3_1  1  0.08469650  0.16530350  0.75000000  1
  Zr  Zr3_2  1  0.08469650  0.66530350  0.25000000  1
  Zr  Zr3_3  1  0.08469650  0.66530350  0.75000000  1
  Zr  Zr3_4  1  0.58469650  0.16530350  0.25000000  1
  Zr  Zr3_5  1  0.58469650  0.16530350  0.75000000  1
  Zr  Zr3_6  1  0.58469650  0.66530350  0.25000000  1
  Zr  Zr3_7  1  0.58469650  0.66530350  0.75000000  1
  Ni  Ni0_0  1  0.06234600  0.31234600  0.00000000  1
  Ni  Ni0_1  1  0.06234600  0.31234600  0.50000000  1
  Ni  Ni0_2  1  0.06234600  0.81234600  0.00000000  1
  Ni  Ni0_3  1  0.06234600  0.81234600  0.50000000  1
  Ni  Ni0_4  1  0.56234600  0.31234600  0.00000000  1
  Ni  Ni0_5  1  0.56234600  0.31234600  0.50000000  1
  Ni  Ni0_6  1  0.56234600  0.81234600  0.00000000  1
  Ni  Ni0_7  1  0.56234600  0.81234600  0.50000000  1
  Ni  Ni1_0  1  0.31234600  0.43765400  0.00000000  1
  Ni  Ni1_1  1  0.31234600  0.43765400  0.50000000  1
  Ni  Ni1_2  1  0.31234600  0.93765400  0.00000000  1
  Ni  Ni1_3  1  0.31234600  0.93765400  0.50000000  1
  Ni  Ni1_4  1  0.81234600  0.43765400  0.00000000  1
  Ni  Ni1_5  1  0.81234600  0.43765400  0.50000000  1
  Ni  Ni1_6  1  0.81234600  0.93765400  0.00000000  1
  Ni  Ni1_7  1  0.81234600  0.93765400  0.50000000  1
  Ni  Ni2_0  1  0.43765400  0.18765400  0.00000000  1
  Ni  Ni2_1  1  0.43765400  0.18765400  0.50000000  1
  Ni  Ni2_2  1  0.43765400  0.68765400  0.00000000  1
  Ni  Ni2_3  1  0.43765400  0.68765400  0.50000000  1
  Ni  Ni2_4  1  0.93765400  0.18765400  0.00000000  1
  Ni  Ni2_5  1  0.93765400  0.18765400  0.50000000  1
  Ni  Ni2_6  1  0.93765400  0.68765400  0.00000000  1
  Ni  Ni2_7  1  0.93765400  0.68765400  0.50000000  1
  Ni  Ni3_0  1  0.18765400  0.06234600  0.00000000  1
  Ni  Ni3_1  1  0.18765400  0.06234600  0.50000000  1
  Ni  Ni3_2  1  0.18765400  0.56234600  0.00000000  1
  Ni  Ni3_3  1  0.18765400  0.56234600  0.50000000  1
  Ni  Ni3_4  1  0.68765400  0.06234600  0.00000000  1
  Ni  Ni3_5  1  0.68765400  0.06234600  0.50000000  1
  Ni  Ni3_6  1  0.68765400  0.56234600  0.00000000  1
  Ni  Ni3_7  1  0.68765400  0.56234600  0.50000000  1
  Sn  Sn0_0  1  0.25000000  0.25000000  0.00000000  1
  Sn  Sn0_1  1  0.25000000  0.25000000  0.50000000  1
  Sn  Sn0_2  1  0.25000000  0.75000000  0.00000000  1
  Sn  Sn0_3  1  0.25000000  0.75000000  0.50000000  1
  Sn  Sn0_4  1  0.75000000  0.25000000  0.00000000  1
  Sn  Sn0_5  1  0.75000000  0.25000000  0.50000000  1
  Sn  Sn0_6  1  0.75000000  0.75000000  0.00000000  1
  Sn  Sn0_7  1  0.75000000  0.75000000  0.50000000  1
  Sn  Sn1_0  1  0.00000000  0.00000000  0.00000000  1
  Sn  Sn1_1  1  0.00000000  0.00000000  0.50000000  1
  Sn  Sn1_2  1  0.00000000  0.50000000  0.00000000  1
  Sn  Sn1_3  1  0.00000000  0.50000000  0.50000000  1
  Sn  Sn1_4  1  0.50000000  0.00000000  0.00000000  1
  Sn  Sn1_5  1  0.50000000  0.00000000  0.50000000  1
  Sn  Sn1_6  1  0.50000000  0.50000000  0.00000000  1
  Sn  Sn1_7  1  0.50000000  0.50000000  0.50000000  1
loop_
_geom_bond_atom_site_label_1
_geom_bond_atom_site_label_2
_geom_bond_distance
_geom_bond_site_symmetry_2
Ni0_0 Ni2_4 2.515370 1_455
Ni0_0 Zr1_1 2.694908 1_554
Ni0_0 Zr1_0 2.694908 1_555
Ni0_0 Zr3_0 2.729438 1_555
Ni0_0 Zr0_4 2.729438 1_455
Ni0_0 Zr0_5 2.729438 1_454
Ni0_0 Zr3_1 2.729438 1_554
Ni0_0 Sn1_2 2.820606 1_555
Ni0_0 Sn0_0 2.820606 1_555
Ni0_1 Ni2_5 2.515370 1_455
Ni0_1 Zr1_1 2.694908 1_555
Ni0_1 Zr1_0 2.694908 1_555
Ni0_1 Zr3_0 2.729438 1_555
Ni0_1 Zr0_4 2.729438 1_455
Ni0_1 Zr3_1 2.729438 1_555
Ni0_1 Zr0_5 2.729438 1_455
Ni0_1 Sn1_3 2.820606 1_555
Ni0_1 Sn0_1 2.820606 1_555
Ni0_2 Ni2_6 2.515370 1_455
Ni0_2 Zr1_2 2.694908 1_555
Ni0_2 Zr1_3 2.694908 1_554
Ni0_2 Zr3_3 2.729438 1_554
Ni0_2 Zr3_2 2.729438 1_555
Ni0_2 Zr0_7 2.729438 1_454
Ni0_2 Zr0_6 2.729438 1_455
Ni0_2 Sn1_0 2.820606 1_565
Ni0_2 Sn0_2 2.820606 1_555
Ni0_3 Ni2_7 2.515370 1_455
Ni0_3 Zr1_2 2.694908 1_555
Ni0_3 Zr1_3 2.694908 1_555
Ni0_3 Zr3_3 2.729438 1_555
Ni0_3 Zr3_2 2.729438 1_555
Ni0_3 Zr0_7 2.729438 1_455
Ni0_3 Zr0_6 2.729438 1_455
Ni0_3 Sn1_1 2.820606 1_565
Ni0_3 Sn0_3 2.820606 1_555
Ni0_4 Ni2_0 2.515370 1_555
Ni0_4 Zr1_5 2.694908 1_554
Ni0_4 Zr1_4 2.694908 1_555
Ni0_4 Zr0_1 2.729438 1_554
Ni0_4 Zr0_0 2.729438 1_555
Ni0_4 Zr3_4 2.729438 1_555
Ni0_4 Zr3_5 2.729438 1_554
Ni0_4 Sn1_6 2.820606 1_555
Ni0_4 Sn0_4 2.820606 1_555
Ni0_5 Ni2_1 2.515370 1_555
Ni0_5 Zr1_4 2.694908 1_555
Ni0_5 Zr1_5 2.694908 1_555
Ni0_5 Zr0_1 2.729438 1_555
Ni0_5 Zr0_0 2.729438 1_555
Ni0_5 Zr3_4 2.729438 1_555
Ni0_5 Zr3_5 2.729438 1_555
Ni0_5 Sn1_7 2.820606 1_555
Ni0_5 Sn0_5 2.820606 1_555
Ni0_6 Ni2_2 2.515370 1_555
Ni0_6 Zr1_6 2.694908 1_555
Ni0_6 Zr1_7 2.694908 1_554
Ni0_6 Zr0_3 2.729438 1_554
Ni0_6 Zr3_6 2.729438 1_555
Ni0_6 Zr3_7 2.729438 1_554
Ni0_6 Zr0_2 2.729438 1_555
Ni0_6 Sn1_4 2.820606 1_565
Ni0_6 Sn0_6 2.820606 1_555
Ni0_7 Ni2_3 2.515370 1_555
Ni0_7 Zr1_6 2.694908 1_555
Ni0_7 Zr1_7 2.694908 1_555
Ni0_7 Zr3_7 2.729438 1_555
Ni0_7 Zr3_6 2.729438 1_555
Ni0_7 Zr0_2 2.729438 1_555
Ni0_7 Zr0_3 2.729438 1_555
Ni0_7 Sn1_5 2.820606 1_565
Ni0_7 Sn0_7 2.820606 1_555
Ni1_0 Ni3_2 2.515370 1_555
Ni1_0 Zr0_1 2.694908 1_554
Ni1_0 Zr0_0 2.694908 1_555
Ni1_0 Zr2_3 2.729438 1_554
Ni1_0 Zr2_2 2.729438 1_555
Ni1_0 Zr1_1 2.729438 1_554
Ni1_0 Zr1_0 2.729438 1_555
Ni1_0 Sn0_0 2.820606 1_555
Ni1_0 Sn1_6 2.820606 1_555
Ni1_1 Ni3_3 2.515370 1_555
Ni1_1 Zr0_1 2.694908 1_555
Ni1_1 Zr0_0 2.694908 1_555
Ni1_1 Zr2_2 2.729438 1_555
Ni1_1 Zr2_3 2.729438 1_555
Ni1_1 Zr1_1 2.729438 1_555
Ni1_1 Zr1_0 2.729438 1_555
Ni1_1 Sn1_7 2.820606 1_555
Ni1_1 Sn0_1 2.820606 1_555
Ni1_2 Ni3_0 2.515370 1_565
Ni1_2 Zr0_2 2.694908 1_555
Ni1_2 Zr0_3 2.694908 1_554
Ni1_2 Zr2_1 2.729438 1_564
Ni1_2 Zr2_0 2.729438 1_565
Ni1_2 Zr1_2 2.729438 1_555
Ni1_2 Zr1_3 2.729438 1_554
Ni1_2 Sn1_4 2.820606 1_565
Ni1_2 Sn0_2 2.820606 1_555
Ni1_3 Ni3_1 2.515370 1_565
Ni1_3 Zr0_2 2.694908 1_555
Ni1_3 Zr0_3 2.694908 1_555
Ni1_3 Zr2_1 2.729438 1_565
Ni1_3 Zr2_0 2.729438 1_565
Ni1_3 Zr1_2 2.729438 1_555
Ni1_3 Zr1_3 2.729438 1_555
Ni1_3 Sn1_5 2.820606 1_565
Ni1_3 Sn0_3 2.820606 1_555
Ni1_4 Ni3_6 2.515370 1_555
Ni1_4 Zr0_4 2.694908 1_555
Ni1_4 Zr0_5 2.694908 1_554
Ni1_4 Zr2_6 2.729438 1_555
Ni1_4 Zr1_4 2.729438 1_555
Ni1_4 Zr1_5 2.729438 1_554
Ni1_4 Zr2_7 2.729438 1_554
Ni1_4 Sn1_2 2.820606 1_655
Ni1_4 Sn0_4 2.820606 1_555
Ni1_5 Ni3_7 2.515370 1_555
Ni1_5 Zr0_4 2.694908 1_555
Ni1_5 Zr0_5 2.694908 1_555
Ni1_5 Zr2_6 2.729438 1_555
Ni1_5 Zr1_4 2.729438 1_555
Ni1_5 Zr1_5 2.729438 1_555
Ni1_5 Zr2_7 2.729438 1_555
Ni1_5 Sn1_3 2.820606 1_655
Ni1_5 Sn0_5 2.820606 1_555
Ni1_6 Ni3_4 2.515370 1_565
Ni1_6 Zr0_6 2.694908 1_555
Ni1_6 Zr0_7 2.694908 1_554
Ni1_6 Zr1_7 2.729438 1_554
Ni1_6 Zr2_5 2.729438 1_564
Ni1_6 Zr1_6 2.729438 1_555
Ni1_6 Zr2_4 2.729438 1_565
Ni1_6 Sn1_0 2.820606 1_665
Ni1_6 Sn0_6 2.820606 1_555
Ni1_7 Ni3_5 2.515370 1_565
Ni1_7 Zr0_6 2.694908 1_555
Ni1_7 Zr0_7 2.694908 1_555
Ni1_7 Zr2_5 2.729438 1_565
Ni1_7 Zr1_7 2.729438 1_555
Ni1_7 Zr2_4 2.729438 1_565
Ni1_7 Zr1_6 2.729438 1_555
Ni1_7 Sn1_1 2.820606 1_665
Ni1_7 Sn0_7 2.820606 1_555
Ni2_0 Zr2_0 2.694908 1_555
Ni2_0 Zr2_1 2.694908 1_554
Ni2_0 Zr3_4 2.729438 1_555
Ni2_0 Zr3_5 2.729438 1_554
Ni2_0 Zr0_0 2.729438 1_555
Ni2_0 Zr0_1 2.729438 1_554
Ni2_0 Sn0_0 2.820606 1_555
Ni2_0 Sn1_4 2.820606 1_555
Ni2_1 Zr2_0 2.694908 1_555
Ni2_1 Zr2_1 2.694908 1_555
Ni2_1 Zr3_5 2.729438 1_555
Ni2_1 Zr3_4 2.729438 1_555
Ni2_1 Zr0_0 2.729438 1_555
Ni2_1 Zr0_1 2.729438 1_555
Ni2_1 Sn0_1 2.820606 1_555
Ni2_1 Sn1_5 2.820606 1_555
Ni2_2 Zr2_3 2.694908 1_554
Ni2_2 Zr2_2 2.694908 1_555
Ni2_2 Zr3_7 2.729438 1_554
Ni2_2 Zr3_6 2.729438 1_555
Ni2_2 Zr0_3 2.729438 1_554
Ni2_2 Zr0_2 2.729438 1_555
Ni2_2 Sn0_2 2.820606 1_555
Ni2_2 Sn1_6 2.820606 1_555
Ni2_3 Zr2_3 2.694908 1_555
Ni2_3 Zr2_2 2.694908 1_555
Ni2_3 Zr3_7 2.729438 1_555
Ni2_3 Zr3_6 2.729438 1_555
Ni2_3 Zr0_2 2.729438 1_555
Ni2_3 Zr0_3 2.729438 1_555
Ni2_3 Sn0_3 2.820606 1_555
Ni2_3 Sn1_7 2.820606 1_555
Ni2_4 Zr2_4 2.694908 1_555
Ni2_4 Zr2_5 2.694908 1_554
Ni2_4 Zr3_1 2.729438 1_654
Ni2_4 Zr3_0 2.729438 1_655
Ni2_4 Zr0_4 2.729438 1_555
Ni2_4 Zr0_5 2.729438 1_554
Ni2_4 Sn1_0 2.820606 1_655
Ni2_4 Sn0_4 2.820606 1_555
Ni2_5 Zr2_4 2.694908 1_555
Ni2_5 Zr2_5 2.694908 1_555
Ni2_5 Zr3_0 2.729438 1_655
Ni2_5 Zr3_1 2.729438 1_655
Ni2_5 Zr0_4 2.729438 1_555
Ni2_5 Zr0_5 2.729438 1_555
Ni2_5 Sn1_1 2.820606 1_655
Ni2_5 Sn0_5 2.820606 1_555
Ni2_6 Zr2_6 2.694908 1_555
Ni2_6 Zr2_7 2.694908 1_554
Ni2_6 Zr3_3 2.729438 1_654
Ni2_6 Zr3_2 2.729438 1_655
Ni2_6 Zr0_6 2.729438 1_555
Ni2_6 Zr0_7 2.729438 1_554
Ni2_6 Sn1_2 2.820606 1_655
Ni2_6 Sn0_6 2.820606 1_555
Ni2_7 Zr2_6 2.694908 1_555
Ni2_7 Zr2_7 2.694908 1_555
Ni2_7 Zr3_2 2.729438 1_655
Ni2_7 Zr3_3 2.729438 1_655
Ni2_7 Zr0_6 2.729438 1_555
Ni2_7 Zr0_7 2.729438 1_555
Ni2_7 Sn1_3 2.820606 1_655
Ni2_7 Sn0_7 2.820606 1_555
Ni3_0 Zr3_0 2.694908 1_555
Ni3_0 Zr3_1 2.694908 1_554
Ni3_0 Zr2_1 2.729438 1_554
Ni3_0 Zr2_0 2.729438 1_555
Ni3_0 Zr1_3 2.729438 1_544
Ni3_0 Zr1_2 2.729438 1_545
Ni3_0 Sn1_0 2.820606 1_555
Ni3_0 Sn0_0 2.820606 1_555
Ni3_1 Zr3_0 2.694908 1_555
Ni3_1 Zr3_1 2.694908 1_555
Ni3_1 Zr2_1 2.729438 1_555
Ni3_1 Zr2_0 2.729438 1_555
Ni3_1 Zr1_3 2.729438 1_545
Ni3_1 Zr1_2 2.729438 1_545
Ni3_1 Sn1_1 2.820606 1_555
Ni3_1 Sn0_1 2.820606 1_555
Ni3_2 Zr3_2 2.694908 1_555
Ni3_2 Zr3_3 2.694908 1_554
Ni3_2 Zr1_0 2.729438 1_555
Ni3_2 Zr1_1 2.729438 1_554
Ni3_2 Zr2_2 2.729438 1_555
Ni3_2 Zr2_3 2.729438 1_554
Ni3_2 Sn1_2 2.820606 1_555
Ni3_2 Sn0_2 2.820606 1_555
Ni3_3 Zr3_2 2.694908 1_555
Ni3_3 Zr3_3 2.694908 1_555
Ni3_3 Zr1_0 2.729438 1_555
Ni3_3 Zr1_1 2.729438 1_555
Ni3_3 Zr2_2 2.729438 1_555
Ni3_3 Zr2_3 2.729438 1_555
Ni3_3 Sn1_3 2.820606 1_555
Ni3_3 Sn0_3 2.820606 1_555
Ni3_4 Zr3_4 2.694908 1_555
Ni3_4 Zr3_5 2.694908 1_554
Ni3_4 Zr1_7 2.729438 1_544
Ni3_4 Zr1_6 2.729438 1_545
Ni3_4 Zr2_5 2.729438 1_554
Ni3_4 Zr2_4 2.729438 1_555
Ni3_4 Sn1_4 2.820606 1_555
Ni3_4 Sn0_4 2.820606 1_555
Ni3_5 Zr3_5 2.694908 1_555
Ni3_5 Zr3_4 2.694908 1_555
Ni3_5 Zr1_7 2.729438 1_545
Ni3_5 Zr1_6 2.729438 1_545
Ni3_5 Zr2_5 2.729438 1_555
Ni3_5 Zr2_4 2.729438 1_555
Ni3_5 Sn1_5 2.820606 1_555
Ni3_5 Sn0_5 2.820606 1_555
Ni3_6 Zr3_7 2.694908 1_554
Ni3_6 Zr3_6 2.694908 1_555
Ni3_6 Zr1_5 2.729438 1_554
Ni3_6 Zr1_4 2.729438 1_555
Ni3_6 Zr2_6 2.729438 1_555
Ni3_6 Zr2_7 2.729438 1_554
Ni3_6 Sn1_6 2.820606 1_555
Ni3_6 Sn0_6 2.820606 1_555
Ni3_7 Zr3_7 2.694908 1_555
Ni3_7 Zr3_6 2.694908 1_555
Ni3_7 Zr1_5 2.729438 1_555
Ni3_7 Zr1_4 2.729438 1_555
Ni3_7 Zr2_6 2.729438 1_555
Ni3_7 Zr2_7 2.729438 1_555
Ni3_7 Sn0_7 2.820606 1_555
Ni3_7 Sn1_7 2.820606 1_555
Sn0_0 Zr0_1 3.157262 1_554
Sn0_0 Zr0_0 3.157262 1_555
Sn0_0 Zr1_1 3.157262 1_554
Sn0_0 Zr1_0 3.157262 1_555
Sn0_0 Zr2_1 3.157262 1_554
Sn0_0 Zr3_1 3.157262 1_554
Sn0_0 Zr3_0 3.157262 1_555
Sn0_0 Zr2_0 3.157262 1_555
Sn0_0 Sn0_1 3.434475 1_555
Sn0_0 Sn0_1 3.434475 1_554
Sn0_1 Zr0_0 3.157262 1_555
Sn0_1 Zr0_1 3.157262 1_555
Sn0_1 Zr1_1 3.157262 1_555
Sn0_1 Zr1_0 3.157262 1_555
Sn0_1 Zr3_1 3.157262 1_555
Sn0_1 Zr2_1 3.157262 1_555
Sn0_1 Zr3_0 3.157262 1_555
Sn0_1 Zr2_0 3.157262 1_555
Sn0_2 Zr3_2 3.157262 1_555
Sn0_2 Zr3_3 3.157262 1_554
Sn0_2 Zr2_2 3.157262 1_555
Sn0_2 Zr2_3 3.157262 1_554
Sn0_2 Zr0_3 3.157262 1_554
Sn0_2 Zr0_2 3.157262 1_555
Sn0_2 Zr1_2 3.157262 1_555
Sn0_2 Zr1_3 3.157262 1_554
Sn0_2 Sn0_3 3.434475 1_554
Sn0_2 Sn0_3 3.434475 1_555
Sn0_3 Zr3_2 3.157262 1_555
Sn0_3 Zr2_3 3.157262 1_555
Sn0_3 Zr3_3 3.157262 1_555
Sn0_3 Zr2_2 3.157262 1_555
Sn0_3 Zr0_3 3.157262 1_555
Sn0_3 Zr0_2 3.157262 1_555
Sn0_3 Zr1_2 3.157262 1_555
Sn0_3 Zr1_3 3.157262 1_555
Sn0_4 Zr1_5 3.157262 1_554
Sn0_4 Zr1_4 3.157262 1_555
Sn0_4 Zr3_5 3.157262 1_554
Sn0_4 Zr3_4 3.157262 1_555
Sn0_4 Zr0_5 3.157262 1_554
Sn0_4 Zr0_4 3.157262 1_555
Sn0_4 Zr2_5 3.157262 1_554
Sn0_4 Zr2_4 3.157262 1_555
Sn0_4 Sn0_5 3.434475 1_555
Sn0_4 Sn0_5 3.434475 1_554
Sn0_5 Zr1_5 3.157262 1_555
Sn0_5 Zr1_4 3.157262 1_555
Sn0_5 Zr3_5 3.157262 1_555
Sn0_5 Zr3_4 3.157262 1_555
Sn0_5 Zr0_5 3.157262 1_555
Sn0_5 Zr0_4 3.157262 1_555
Sn0_5 Zr2_4 3.157262 1_555
Sn0_5 Zr2_5 3.157262 1_555
Sn0_6 Zr3_7 3.157262 1_554
Sn0_6 Zr3_6 3.157262 1_555
Sn0_6 Zr1_6 3.157262 1_555
Sn0_6 Zr1_7 3.157262 1_554
Sn0_6 Zr2_6 3.157262 1_555
Sn0_6 Zr2_7 3.157262 1_554
Sn0_6 Zr0_6 3.157262 1_555
Sn0_6 Zr0_7 3.157262 1_554
Sn0_6 Sn0_7 3.434475 1_554
Sn0_6 Sn0_7 3.434475 1_555
Sn0_7 Zr3_7 3.157262 1_555
Sn0_7 Zr3_6 3.157262 1_555
Sn0_7 Zr1_6 3.157262 1_555
Sn0_7 Zr1_7 3.157262 1_555
Sn0_7 Zr2_7 3.157262 1_555
Sn0_7 Zr2_6 3.157262 1_555
Sn0_7 Zr0_6 3.157262 1_555
Sn0_7 Zr0_7 3.157262 1_555
Sn1_0 Zr2_5 3.157262 1_454
Sn1_0 Zr2_4 3.157262 1_455
Sn1_0 Zr3_0 3.157262 1_555
Sn1_0 Zr3_1 3.157262 1_554
Sn1_0 Zr0_6 3.157262 1_445
Sn1_0 Zr0_7 3.157262 1_444
Sn1_0 Zr1_2 3.157262 1_545
Sn1_0 Zr1_3 3.157262 1_544
Sn1_0 Sn1_1 3.434475 1_555
Sn1_0 Sn1_1 3.434475 1_554
Sn1_1 Zr2_5 3.157262 1_455
Sn1_1 Zr2_4 3.157262 1_455
Sn1_1 Zr3_0 3.157262 1_555
Sn1_1 Zr3_1 3.157262 1_555
Sn1_1 Zr0_6 3.157262 1_445
Sn1_1 Zr0_7 3.157262 1_445
Sn1_1 Zr1_2 3.157262 1_545
Sn1_1 Zr1_3 3.157262 1_545
Sn1_2 Zr2_7 3.157262 1_454
Sn1_2 Zr2_6 3.157262 1_455
Sn1_2 Zr3_3 3.157262 1_554
Sn1_2 Zr0_5 3.157262 1_454
Sn1_2 Zr3_2 3.157262 1_555
Sn1_2 Zr1_0 3.157262 1_555
Sn1_2 Zr1_1 3.157262 1_554
Sn1_2 Zr0_4 3.157262 1_455
Sn1_2 Sn1_3 3.434475 1_554
Sn1_2 Sn1_3 3.434475 1_555
Sn1_3 Zr2_7 3.157262 1_455
Sn1_3 Zr2_6 3.157262 1_455
Sn1_3 Zr0_5 3.157262 1_455
Sn1_3 Zr3_3 3.157262 1_555
Sn1_3 Zr1_0 3.157262 1_555
Sn1_3 Zr1_1 3.157262 1_555
Sn1_3 Zr0_4 3.157262 1_455
Sn1_3 Zr3_2 3.157262 1_555
Sn1_4 Zr3_5 3.157262 1_554
Sn1_4 Zr3_4 3.157262 1_555
Sn1_4 Zr0_2 3.157262 1_545
Sn1_4 Zr2_0 3.157262 1_555
Sn1_4 Zr0_3 3.157262 1_544
Sn1_4 Zr2_1 3.157262 1_554
Sn1_4 Zr1_6 3.157262 1_545
Sn1_4 Zr1_7 3.157262 1_544
Sn1_4 Sn1_5 3.434475 1_554
Sn1_4 Sn1_5 3.434475 1_555
Sn1_5 Zr3_5 3.157262 1_555
Sn1_5 Zr3_4 3.157262 1_555
Sn1_5 Zr0_2 3.157262 1_545
Sn1_5 Zr2_0 3.157262 1_555
Sn1_5 Zr0_3 3.157262 1_545
Sn1_5 Zr2_1 3.157262 1_555
Sn1_5 Zr1_6 3.157262 1_545
Sn1_5 Zr1_7 3.157262 1_545
Sn1_6 Zr2_2 3.157262 1_555
Sn1_6 Zr2_3 3.157262 1_554
Sn1_6 Zr0_1 3.157262 1_554
Sn1_6 Zr3_6 3.157262 1_555
Sn1_6 Zr0_0 3.157262 1_555
Sn1_6 Zr3_7 3.157262 1_554
Sn1_6 Zr1_4 3.157262 1_555
Sn1_6 Zr1_5 3.157262 1_554
Sn1_6 Sn1_7 3.434475 1_554
Sn1_6 Sn1_7 3.434475 1_555
Sn1_7 Zr2_3 3.157262 1_555
Sn1_7 Zr2_2 3.157262 1_555
Sn1_7 Zr3_7 3.157262 1_555
Sn1_7 Zr3_6 3.157262 1_555
Sn1_7 Zr0_0 3.157262 1_555
Sn1_7 Zr0_1 3.157262 1_555
Sn1_7 Zr1_4 3.157262 1_555
Sn1_7 Zr1_5 3.157262 1_555
