# generated using pymatgen
data_Na12Ca5Ta(PO4)9
_symmetry_space_group_name_H-M   'P 1'
_cell_length_a   9.41975083
_cell_length_b   9.41975048
_cell_length_c   23.00261599
_cell_angle_alpha   90.00000000
_cell_angle_beta   90.00000000
_cell_angle_gamma   120.00000121
_symmetry_Int_Tables_number   1
_chemical_formula_structural   Na12Ca5Ta(PO4)9
_chemical_formula_sum   'Na24 Ca10 Ta2 P18 O72'
_cell_volume   1767.61089381
_cell_formula_units_Z   2
loop_
 _symmetry_equiv_pos_site_id
 _symmetry_equiv_pos_as_xyz
  1  'x, y, z'
loop_
 _atom_site_type_symbol
 _atom_site_label
 _atom_site_symmetry_multiplicity
 _atom_site_fract_x
 _atom_site_fract_y
 _atom_site_fract_z
 _atom_site_occupancy
  Na  Na0  1  0.63501160  0.00022901  0.25035141  1
  Na  Na1  1  0.36521741  0.36498840  0.25035141  1
  Na  Na2  1  0.99977099  0.63478259  0.25035141  1
  Na  Na3  1  0.63501160  0.63478259  0.75035141  1
  Na  Na4  1  0.99977099  0.36498840  0.75035141  1
  Na  Na5  1  0.36521741  0.00022901  0.75035141  1
  Na  Na6  1  0.29497780  0.33642859  0.58697415  1
  Na  Na7  1  0.04145179  0.70502220  0.58697415  1
  Na  Na8  1  0.66357141  0.95854821  0.58697415  1
  Na  Na9  1  0.29497780  0.95854821  0.08697415  1
  Na  Na10  1  0.66357141  0.70502220  0.08697415  1
  Na  Na11  1  0.04145179  0.33642859  0.08697415  1
  Na  Na12  1  0.98424689  0.68063249  0.90669476  1
  Na  Na13  1  0.69638460  0.01575311  0.90669476  1
  Na  Na14  1  0.31936751  0.30361540  0.90669476  1
  Na  Na15  1  0.98424689  0.30361540  0.40669476  1
  Na  Na16  1  0.31936751  0.01575311  0.40669476  1
  Na  Na17  1  0.69638460  0.68063249  0.40669476  1
  Na  Na18  1  0.00000000  -0.00000000  0.49940897  1
  Na  Na19  1  0.00000000  -0.00000000  0.99940897  1
  Na  Na20  1  0.66666700  0.33333300  0.82039595  1
  Na  Na21  1  0.66666700  0.33333300  0.32039595  1
  Na  Na22  1  0.33333300  0.66666700  0.17602957  1
  Na  Na23  1  0.33333300  0.66666700  0.67602957  1
  Ca  Ca0  1  0.00000000  -0.00000000  0.34601212  1
  Ca  Ca1  1  0.00000000  -0.00000000  0.84601212  1
  Ca  Ca2  1  0.00000000  -0.00000000  0.65035613  1
  Ca  Ca3  1  0.00000000  -0.00000000  0.15035613  1
  Ca  Ca4  1  0.66666700  0.33333300  0.68233004  1
  Ca  Ca5  1  0.66666700  0.33333300  0.18233004  1
  Ca  Ca6  1  0.33333300  0.66666700  0.01336297  1
  Ca  Ca7  1  0.33333300  0.66666700  0.51336297  1
  Ca  Ca8  1  0.33333300  0.66666700  0.32285960  1
  Ca  Ca9  1  0.33333300  0.66666700  0.82285960  1
  Ta  Ta0  1  0.66666700  0.33333300  0.98451817  1
  Ta  Ta1  1  0.66666700  0.33333300  0.48451817  1
  P  P0  1  0.30584341  0.99677939  0.25000237  1
  P  P1  1  0.69093598  0.69415659  0.25000237  1
  P  P2  1  0.00322061  0.30906402  0.25000237  1
  P  P3  1  0.30584341  0.30906402  0.75000237  1
  P  P4  1  0.00322061  0.69415659  0.75000237  1
  P  P5  1  0.69093598  0.99677939  0.75000237  1
  P  P6  1  0.95943344  0.33296943  0.58154204  1
  P  P7  1  0.37353699  0.04056656  0.58154204  1
  P  P8  1  0.66703057  0.62646301  0.58154204  1
  P  P9  1  0.95943344  0.62646301  0.08154204  1
  P  P10  1  0.66703057  0.04056656  0.08154204  1
  P  P11  1  0.37353699  0.33296943  0.08154204  1
  P  P12  1  0.64095500  0.65699317  0.92106469  1
  P  P13  1  0.01603717  0.35904500  0.92106469  1
  P  P14  1  0.34300683  0.98396283  0.92106469  1
  P  P15  1  0.64095500  0.98396283  0.42106469  1
  P  P16  1  0.34300683  0.35904500  0.42106469  1
  P  P17  1  0.01603717  0.65699317  0.42106469  1
  O  O0  1  0.22059486  0.01117857  0.30554362  1
  O  O1  1  0.79058371  0.77940514  0.30554362  1
  O  O2  1  0.98882143  0.20941629  0.30554362  1
  O  O3  1  0.22059486  0.20941629  0.80554362  1
  O  O4  1  0.98882143  0.77940514  0.80554362  1
  O  O5  1  0.79058371  0.01117857  0.80554362  1
  O  O6  1  0.77660966  0.98170530  0.69469187  1
  O  O7  1  0.20509564  0.22339034  0.69469187  1
  O  O8  1  0.01829470  0.79490436  0.69469187  1
  O  O9  1  0.77660966  0.79490436  0.19469187  1
  O  O10  1  0.01829470  0.22339034  0.19469187  1
  O  O11  1  0.20509564  0.98170530  0.19469187  1
  O  O12  1  0.88486155  0.35054526  0.63751228  1
  O  O13  1  0.46568471  0.11513845  0.63751228  1
  O  O14  1  0.64945474  0.53431529  0.63751228  1
  O  O15  1  0.88486155  0.53431529  0.13751228  1
  O  O16  1  0.64945474  0.11513845  0.13751228  1
  O  O17  1  0.46568471  0.35054526  0.13751228  1
  O  O18  1  0.48773724  0.33045689  0.02914212  1
  O  O19  1  0.84272065  0.51226276  0.02914212  1
  O  O20  1  0.66954311  0.15727935  0.02914212  1
  O  O21  1  0.48773724  0.15727935  0.52914212  1
  O  O22  1  0.66954311  0.51226276  0.52914212  1
  O  O23  1  0.84272065  0.33045689  0.52914212  1
  O  O24  1  0.56128478  0.68412119  0.97410175  1
  O  O25  1  0.12283541  0.43871522  0.97410175  1
  O  O26  1  0.31587881  0.87716459  0.97410175  1
  O  O27  1  0.56128478  0.87716459  0.47410175  1
  O  O28  1  0.31587881  0.43871522  0.47410175  1
  O  O29  1  0.12283541  0.68412119  0.47410175  1
  O  O30  1  0.08307548  0.61542724  0.36659682  1
  O  O31  1  0.53235076  0.91692452  0.36659682  1
  O  O32  1  0.38457276  0.46764924  0.36659682  1
  O  O33  1  0.08307548  0.46764924  0.86659682  1
  O  O34  1  0.38457276  0.91692452  0.86659682  1
  O  O35  1  0.53235076  0.61542724  0.86659682  1
  O  O36  1  0.98609803  0.80334886  0.41475293  1
  O  O37  1  0.81725083  0.01390197  0.41475293  1
  O  O38  1  0.19665114  0.18274917  0.41475293  1
  O  O39  1  0.98609803  0.18274917  0.91475293  1
  O  O40  1  0.19665114  0.01390197  0.91475293  1
  O  O41  1  0.81725083  0.80334886  0.91475293  1
  O  O42  1  0.96024071  0.16970754  0.57594943  1
  O  O43  1  0.20946683  0.03975929  0.57594943  1
  O  O44  1  0.83029246  0.79053317  0.57594943  1
  O  O45  1  0.96024071  0.79053317  0.07594943  1
  O  O46  1  0.83029246  0.03975929  0.07594943  1
  O  O47  1  0.20946683  0.16970754  0.07594943  1
  O  O48  1  0.67300899  0.15246826  0.74890168  1
  O  O49  1  0.47946027  0.32699101  0.74890168  1
  O  O50  1  0.84753174  0.52053973  0.74890168  1
  O  O51  1  0.67300899  0.52053973  0.24890168  1
  O  O52  1  0.84753174  0.32699101  0.24890168  1
  O  O53  1  0.47946027  0.15246826  0.24890168  1
  O  O54  1  0.66027738  0.49753981  0.93031888  1
  O  O55  1  0.83726343  0.33972262  0.93031888  1
  O  O56  1  0.50246019  0.16273657  0.93031888  1
  O  O57  1  0.66027738  0.16273657  0.43031888  1
  O  O58  1  0.50246019  0.33972262  0.43031888  1
  O  O59  1  0.83726343  0.49753981  0.43031888  1
  O  O60  1  0.35245805  0.48361076  0.07470709  1
  O  O61  1  0.13115172  0.64754195  0.07470709  1
  O  O62  1  0.51638924  0.86884828  0.07470709  1
  O  O63  1  0.35245805  0.86884828  0.57470709  1
  O  O64  1  0.51638924  0.64754195  0.57470709  1
  O  O65  1  0.13115172  0.48361076  0.57470709  1
  O  O66  1  0.32320826  0.84078720  0.25272759  1
  O  O67  1  0.51757794  0.67679174  0.25272759  1
  O  O68  1  0.15921280  0.48242206  0.25272759  1
  O  O69  1  0.32320826  0.48242206  0.75272759  1
  O  O70  1  0.15921280  0.67679174  0.75272759  1
  O  O71  1  0.51757794  0.84078720  0.75272759  1
loop_
_geom_bond_atom_site_label_1
_geom_bond_atom_site_label_2
_geom_bond_distance
_geom_bond_site_symmetry_2
Na0 O53 2.511146 1_555
Na0 O66 2.544417 1_545
Na0 O67 2.671850 1_545
Na0 O52 2.705736 1_555
Na0 O16 2.789263 1_555
Na0 O31 2.818171 1_545
Na1 O51 2.511155 1_555
Na1 O67 2.544417 1_555
Na1 O68 2.671859 1_555
Na1 O53 2.705743 1_555
Na1 O17 2.789267 1_555
Na1 O32 2.818172 1_555
Na2 O52 2.511155 1_555
Na2 O68 2.544409 1_655
Na2 O66 2.671852 1_655
Na2 O51 2.705735 1_555
Na2 O15 2.789265 1_555
Na2 O30 2.818169 1_655
Na3 O49 2.511155 1_555
Na3 O69 2.544417 1_555
Na3 O71 2.671859 1_555
Na3 O50 2.705743 1_555
Na3 O14 2.789267 1_555
Na3 O35 2.818172 1_555
Na4 O50 2.511146 1_555
Na4 O70 2.544417 1_655
Na4 O69 2.671850 1_655
Na4 O48 2.705736 1_555
Na4 O12 2.789263 1_555
Na4 O33 2.818171 1_655
Na5 O48 2.511155 1_555
Na5 O71 2.544409 1_545
Na5 O70 2.671852 1_545
Na5 O49 2.705734 1_555
Na5 O13 2.789265 1_555
Na5 O34 2.818169 1_545
Na6 O43 2.504327 1_555
Na6 O65 2.553972 1_555
Na6 O64 2.627888 1_555
Na6 O7 2.662432 1_555
Na6 O28 2.741990 1_555
Na6 O42 2.742456 1_455
Na7 O44 2.504336 1_455
Na7 O63 2.553956 1_555
Na7 O65 2.627875 1_555
Na7 O8 2.662434 1_555
Na7 O29 2.741985 1_555
Na7 O43 2.742456 1_565
Na8 O42 2.504329 1_565
Na8 O64 2.553956 1_555
Na8 O63 2.627893 1_555
Na8 O6 2.662431 1_555
Na8 O27 2.741988 1_555
Na8 O44 2.742448 1_555
Na9 O47 2.504336 1_565
Na9 O61 2.553956 1_555
Na9 O62 2.627875 1_555
Na9 O11 2.662434 1_555
Na9 O26 2.741985 1_554
Na9 O45 2.742456 1_455
Na10 O45 2.504327 1_555
Na10 O62 2.553972 1_555
Na10 O60 2.627888 1_555
Na10 O9 2.662432 1_555
Na10 O24 2.741990 1_554
Na10 O46 2.742456 1_565
Na11 O46 2.504329 1_455
Na11 O60 2.553956 1_555
Na11 O61 2.627892 1_555
Na11 O10 2.662431 1_555
Na11 O25 2.741988 1_554
Na11 O47 2.742448 1_555
Na12 O41 2.379813 1_555
Na12 O4 2.498231 1_555
Na12 O54 2.705466 1_555
Na12 O33 2.758646 1_655
Na12 O40 2.758933 1_665
Na12 O55 2.842262 1_555
Na13 O39 2.379821 1_555
Na13 O5 2.498234 1_555
Na13 O55 2.705464 1_555
Na13 O34 2.758646 1_545
Na13 O41 2.758941 1_545
Na13 O56 2.842245 1_555
Na14 O40 2.379821 1_555
Na14 O3 2.498232 1_555
Na14 O56 2.705481 1_555
Na14 O35 2.758646 1_555
Na14 O39 2.758932 1_455
Na14 O54 2.842260 1_555
Na15 O37 2.379821 1_555
Na15 O2 2.498234 1_555
Na15 O57 2.705464 1_555
Na15 O30 2.758646 1_655
Na15 O38 2.758941 1_655
Na15 O59 2.842245 1_555
Na16 O38 2.379813 1_555
Na16 O0 2.498231 1_555
Na16 O58 2.705466 1_555
Na16 O31 2.758646 1_545
Na16 O36 2.758933 1_445
Na16 O57 2.842262 1_555
Na17 O36 2.379822 1_555
Na17 O1 2.498232 1_555
Na17 O59 2.705481 1_555
Na17 O32 2.758646 1_555
Na17 O37 2.758932 1_565
Na17 O58 2.842260 1_555
Na18 O44 2.528702 1_445
Na18 O42 2.528702 1_455
Na18 O43 2.528702 1_555
Na18 O36 2.645372 1_445
Na18 O38 2.645372 1_555
Na18 O37 2.645372 1_455
Na19 O45 2.528702 1_446
Na19 O47 2.528702 1_556
Na19 O46 2.528702 1_456
Na19 O41 2.645372 1_445
Na19 O39 2.645372 1_455
Na19 O40 2.645372 1_555
Na20 O50 2.390085 1_555
Na20 O48 2.390085 1_555
Na20 O49 2.390085 1_555
Na21 O51 2.390085 1_555
Na21 O53 2.390085 1_555
Na21 O52 2.390085 1_555
Na22 O68 2.443005 1_555
Na22 O66 2.443005 1_555
Na22 O67 2.443005 1_555
Na22 O62 2.957794 1_555
Na22 O61 2.957794 1_555
Na22 O60 2.957794 1_555
Na23 O69 2.443005 1_555
Na23 O71 2.443005 1_555
Na23 O70 2.443005 1_555
Na23 O63 2.957794 1_555
Na23 O65 2.957794 1_555
Na23 O64 2.957794 1_555
Ca0 O1 2.230850 1_445
Ca0 O2 2.230850 1_455
Ca0 O0 2.230850 1_555
Ca0 O36 2.388771 1_445
Ca0 O38 2.388771 1_555
Ca0 O37 2.388771 1_455
Ca1 O4 2.230850 1_445
Ca1 O3 2.230850 1_555
Ca1 O5 2.230850 1_455
Ca1 O41 2.388771 1_445
Ca1 O39 2.388771 1_455
Ca1 O40 2.388771 1_555
Ca2 O7 2.266083 1_555
Ca2 O8 2.266083 1_545
Ca2 O6 2.266083 1_445
Ca2 O44 2.494776 1_445
Ca2 O42 2.494776 1_455
Ca2 O43 2.494777 1_555
Ca3 O10 2.266083 1_555
Ca3 O9 2.266083 1_445
Ca3 O11 2.266083 1_545
Ca3 O45 2.494776 1_445
Ca3 O47 2.494776 1_555
Ca3 O46 2.494777 1_455
Ca4 O13 2.231651 1_555
Ca4 O14 2.231651 1_555
Ca4 O12 2.231652 1_555
Ca4 O50 2.313631 1_555
Ca4 O48 2.313631 1_555
Ca4 O49 2.313632 1_555
Ca5 O16 2.231651 1_555
Ca5 O15 2.231651 1_555
Ca5 O17 2.231652 1_555
Ca5 O51 2.313631 1_555
Ca5 O53 2.313631 1_555
Ca5 O52 2.313632 1_555
Ca6 O25 2.258380 1_554
Ca6 O26 2.258380 1_554
Ca6 O24 2.258380 1_554
Ca6 O62 2.303822 1_555
Ca6 O61 2.303822 1_555
Ca6 O60 2.303822 1_555
Ca7 O28 2.258380 1_555
Ca7 O27 2.258380 1_555
Ca7 O29 2.258380 1_555
Ca7 O63 2.303822 1_555
Ca7 O65 2.303822 1_555
Ca7 O64 2.303822 1_555
Ca8 O68 2.336269 1_555
Ca8 O66 2.336269 1_555
Ca8 O67 2.336269 1_555
Ca8 O31 2.380018 1_555
Ca8 O32 2.380018 1_555
Ca8 O30 2.380018 1_555
Ca9 O69 2.336269 1_555
Ca9 O71 2.336269 1_555
Ca9 O70 2.336269 1_555
Ca9 O34 2.380018 1_555
Ca9 O33 2.380018 1_555
Ca9 O35 2.380018 1_555
O0 P0 1.550614 1_545
O1 P1 1.550614 1_555
O2 P2 1.550614 1_655
O3 P3 1.550614 1_555
O4 P4 1.550614 1_655
O5 P5 1.550614 1_545
O6 P5 1.550728 1_555
O7 P3 1.550728 1_555
O8 P4 1.550728 1_555
O9 P1 1.550728 1_555
O10 P2 1.550728 1_555
O11 P0 1.550728 1_555
O12 P6 1.514827 1_555
O13 P7 1.514827 1_555
O14 P8 1.514827 1_555
O15 P9 1.514827 1_555
O16 P10 1.514827 1_555
O17 P11 1.514827 1_555
O18 P11 1.623596 1_555
O18 Ta0 1.962021 1_554
O19 P9 1.623596 1_555
O19 Ta0 1.962021 1_554
O20 P10 1.623596 1_555
O20 Ta0 1.962021 1_554
O21 P7 1.623596 1_555
O21 Ta1 1.962021 1_555
O22 P8 1.623596 1_555
O22 Ta1 1.962021 1_555
O23 P6 1.623596 1_555
O23 Ta1 1.962021 1_555
O24 P12 1.519429 1_555
O25 P13 1.519429 1_555
O26 P14 1.519429 1_555
O27 P15 1.519429 1_555
O28 P16 1.519429 1_555
O29 P17 1.519429 1_555
O30 P17 1.539187 1_555
O31 P15 1.539187 1_555
O32 P16 1.539187 1_555
O33 P13 1.539187 1_555
O34 P14 1.539187 1_555
O35 P12 1.539187 1_555
O36 P17 1.545978 1_655
O37 P15 1.545987 1_545
O38 P16 1.545984 1_555
O39 P13 1.545987 1_655
O40 P14 1.545978 1_545
O41 P12 1.545984 1_555
O42 P6 1.547060 1_555
O43 P7 1.547070 1_555
O44 P8 1.547065 1_555
O45 P9 1.547070 1_555
O46 P10 1.547060 1_555
O47 P11 1.547065 1_555
O48 P5 1.558069 1_545
O49 P3 1.558079 1_555
O50 P4 1.558075 1_655
O51 P1 1.558079 1_555
O52 P2 1.558069 1_655
O53 P0 1.558075 1_545
O54 P12 1.614888 1_555
O54 Ta0 2.010870 1_555
O55 P13 1.614869 1_655
O55 Ta0 2.010870 1_555
O56 P14 1.614877 1_545
O56 Ta0 2.010870 1_555
O57 P15 1.614869 1_545
O57 Ta1 2.010870 1_555
O58 P16 1.614888 1_555
O58 Ta1 2.010870 1_555
O59 P17 1.614877 1_655
O59 Ta1 2.010870 1_555
O60 P11 1.536057 1_555
O61 P9 1.536038 1_455
O62 P10 1.536046 1_565
O63 P7 1.536038 1_565
O64 P8 1.536057 1_555
O65 P6 1.536046 1_455
O66 P0 1.558910 1_555
O67 P1 1.558919 1_555
O68 P2 1.558915 1_555
O69 P3 1.558919 1_555
O70 P4 1.558910 1_555
O71 P5 1.558915 1_555
