# generated using pymatgen
data_Na14Hf4In4Si9(SO16)3
_symmetry_space_group_name_H-M   'P 1'
_cell_length_a   18.46022246
_cell_length_b   9.24234534
_cell_length_c   22.64475802
_cell_angle_alpha   90.08318309
_cell_angle_beta   90.20937448
_cell_angle_gamma   120.02655060
_symmetry_Int_Tables_number   1
_chemical_formula_structural   Na14Hf4In4Si9(SO16)3
_chemical_formula_sum   'Na42 Hf12 In12 Si27 S9 O144'
_cell_volume   3344.99264302
_cell_formula_units_Z   3
loop_
 _symmetry_equiv_pos_site_id
 _symmetry_equiv_pos_as_xyz
  1  'x, y, z'
loop_
 _atom_site_type_symbol
 _atom_site_label
 _atom_site_symmetry_multiplicity
 _atom_site_fract_x
 _atom_site_fract_y
 _atom_site_fract_z
 _atom_site_occupancy
  Na  Na0  1  0.82088238  0.01220114  0.25783948  1
  Na  Na1  1  0.17329479  0.35098744  0.25490877  1
  Na  Na2  1  0.69432700  0.37234988  0.25533442  1
  Na  Na3  1  0.99482519  0.62743967  0.24574445  1
  Na  Na4  1  0.50147629  0.64806043  0.25074719  1
  Na  Na5  1  0.31969767  0.62839535  0.75379287  1
  Na  Na6  1  0.99912957  0.35134444  0.74216193  1
  Na  Na7  1  0.49684600  0.36471040  0.74193991  1
  Na  Na8  1  0.19262825  0.01605513  0.75003372  1
  Na  Na9  1  0.67956766  0.00114041  0.74884194  1
  Na  Na10  1  0.14625536  0.31887509  0.58115015  1
  Na  Na11  1  0.65260604  0.32921627  0.58138416  1
  Na  Na12  1  0.33528461  0.99212381  0.58742247  1
  Na  Na13  1  0.83377154  0.97303065  0.58184084  1
  Na  Na14  1  0.14367768  0.97064784  0.07952730  1
  Na  Na15  1  0.65051015  0.97693996  0.07825104  1
  Na  Na16  1  0.33378110  0.68187829  0.08122349  1
  Na  Na17  1  0.83542180  0.68000274  0.08770750  1
  Na  Na18  1  0.47975113  0.67940153  0.91377207  1
  Na  Na19  1  0.97924694  0.67731712  0.92377364  1
  Na  Na20  1  0.34588424  0.02461458  0.90512235  1
  Na  Na21  1  0.84426408  0.02139952  0.90798003  1
  Na  Na22  1  0.17407208  0.29713606  0.90814120  1
  Na  Na23  1  0.66925252  0.28867299  0.90955753  1
  Na  Na24  1  0.48284927  0.28766923  0.42848464  1
  Na  Na25  1  0.97762471  0.27861481  0.41995119  1
  Na  Na26  1  0.16796518  0.04960346  0.41401878  1
  Na  Na27  1  0.67706562  0.05470153  0.41574233  1
  Na  Na28  1  0.34549339  0.66810593  0.41289050  1
  Na  Na29  1  0.84594143  0.66432841  0.41911340  1
  Na  Na30  1  0.99729263  0.99452757  0.50046289  1
  Na  Na31  1  0.50813125  0.01784899  0.50232849  1
  Na  Na32  1  0.00451993  0.99496316  0.00024132  1
  Na  Na33  1  0.50579815  0.99984245  0.99477302  1
  Na  Na34  1  0.32918276  0.33711092  0.82573595  1
  Na  Na35  1  0.82052412  0.32899595  0.82994585  1
  Na  Na36  1  0.32100952  0.30899550  0.33712446  1
  Na  Na37  1  0.82805852  0.32166933  0.33221248  1
  Na  Na38  1  0.15381331  0.64773954  0.16918169  1
  Na  Na39  1  0.66451895  0.65652699  0.16985661  1
  Na  Na40  1  0.16210580  0.66989935  0.66795615  1
  Na  Na41  1  0.66183050  0.66178819  0.66416176  1
  Hf  Hf0  1  0.99705755  0.00316936  0.64631370  1
  Hf  Hf1  1  0.50517031  0.00730902  0.65271573  1
  Hf  Hf2  1  0.00426132  0.00331682  0.15257313  1
  Hf  Hf3  1  0.50163890  0.99049730  0.14914785  1
  Hf  Hf4  1  0.82894156  0.32636943  0.68048923  1
  Hf  Hf5  1  0.33057829  0.34223104  0.18448694  1
  Hf  Hf6  1  0.16574292  0.66702159  0.01925902  1
  Hf  Hf7  1  0.66654387  0.66601180  0.01948585  1
  Hf  Hf8  1  0.16576038  0.66656233  0.51938947  1
  Hf  Hf9  1  0.67051751  0.66249000  0.52169419  1
  Hf  Hf10  1  0.17428934  0.67139949  0.30984583  1
  Hf  Hf11  1  0.67513140  0.67962967  0.80878166  1
  In  In0  1  0.00085236  0.01266977  0.34903825  1
  In  In1  1  0.50105272  0.00254892  0.35103777  1
  In  In2  1  0.00067941  0.99889078  0.84941522  1
  In  In3  1  0.50109372  0.98934724  0.84760409  1
  In  In4  1  0.33471144  0.32524532  0.68341243  1
  In  In5  1  0.83474126  0.34473659  0.18395764  1
  In  In6  1  0.32771134  0.33877610  0.98429647  1
  In  In7  1  0.82526096  0.34062577  0.98475123  1
  In  In8  1  0.32642628  0.31237985  0.48482576  1
  In  In9  1  0.82834781  0.32798856  0.48806510  1
  In  In10  1  0.67866269  0.68258444  0.31711948  1
  In  In11  1  0.17623495  0.67454817  0.81443070  1
  Si  Si0  1  0.15075686  0.00125976  0.25177269  1
  Si  Si1  1  0.64833813  0.99536408  0.25191999  1
  Si  Si2  1  0.35428813  0.70619293  0.25025082  1
  Si  Si3  1  0.85322747  0.70752223  0.25102753  1
  Si  Si4  1  0.99841722  0.29766679  0.25178349  1
  Si  Si5  1  0.14678691  0.29776091  0.75151385  1
  Si  Si6  1  0.65108342  0.29969642  0.75337063  1
  Si  Si7  1  0.49857789  0.69958280  0.75236472  1
  Si  Si8  1  0.35275662  0.99936649  0.75141437  1
  Si  Si9  1  0.85505768  0.01016776  0.75174119  1
  Si  Si10  1  0.48272880  0.33145986  0.58285600  1
  Si  Si11  1  0.98345087  0.34012584  0.58375253  1
  Si  Si12  1  0.18145242  0.03020879  0.58407087  1
  Si  Si13  1  0.67939949  0.02774466  0.58152406  1
  Si  Si14  1  0.83681537  0.62963850  0.57980274  1
  Si  Si15  1  0.48333854  0.62738974  0.08363481  1
  Si  Si16  1  0.98365588  0.63395492  0.08287298  1
  Si  Si17  1  0.18014987  0.33156725  0.08224736  1
  Si  Si18  1  0.67947017  0.33098279  0.08433171  1
  Si  Si19  1  0.31714656  0.66961108  0.91839920  1
  Si  Si20  1  0.81372913  0.66855536  0.91694082  1
  Si  Si21  1  0.16774221  0.96292026  0.91574123  1
  Si  Si22  1  0.66855935  0.96314142  0.91776654  1
  Si  Si23  1  0.31381279  0.95915568  0.41686574  1
  Si  Si24  1  0.81742667  0.96997036  0.41817244  1
  Si  Si25  1  0.16846011  0.37373006  0.41693736  1
  Si  Si26  1  0.66642042  0.37017497  0.41361090  1
  S  S0  1  0.49601363  0.29114492  0.24858054  1
  S  S1  1  0.99709913  0.69988698  0.75014918  1
  S  S2  1  0.33383051  0.63374285  0.58154190  1
  S  S3  1  0.33473763  0.04160989  0.08240205  1
  S  S4  1  0.83415760  0.03476597  0.08150011  1
  S  S5  1  0.02004700  0.37613102  0.91729404  1
  S  S6  1  0.52228981  0.37885976  0.91663639  1
  S  S7  1  0.02403382  0.66673042  0.41452015  1
  S  S8  1  0.52028322  0.66356234  0.41689519  1
  O  O0  1  0.11654748  0.04964434  0.31067081  1
  O  O1  1  0.60988314  0.03633937  0.31027754  1
  O  O2  1  0.41195758  0.78013382  0.30913035  1
  O  O3  1  0.90911066  0.79021691  0.31053374  1
  O  O4  1  0.48345427  0.20276569  0.30514999  1
  O  O5  1  0.98045447  0.19613089  0.31365355  1
  O  O6  1  0.11168086  0.18668513  0.81248988  1
  O  O7  1  0.61464746  0.18675284  0.81322430  1
  O  O8  1  0.47911068  0.76145477  0.81506011  1
  O  O9  1  0.98553005  0.76355197  0.80767426  1
  O  O10  1  0.40606860  0.02441439  0.81238870  1
  O  O11  1  0.90981436  0.04469151  0.81261930  1
  O  O12  1  0.40195827  0.97930208  0.69448076  1
  O  O13  1  0.90178360  0.98596990  0.69528693  1
  O  O14  1  0.08558259  0.19421997  0.69592505  1
  O  O15  1  0.58957164  0.20624670  0.69603051  1
  O  O16  1  0.00654042  0.81305574  0.70141961  1
  O  O17  1  0.51644845  0.83692744  0.70064810  1
  O  O18  1  0.39846726  0.82002853  0.19208521  1
  O  O19  1  0.90105354  0.82361158  0.19272485  1
  O  O20  1  0.01733438  0.19868302  0.19901180  1
  O  O21  1  0.50449888  0.19570108  0.19907427  1
  O  O22  1  0.09019661  0.97299460  0.19376399  1
  O  O23  1  0.58651263  0.97243133  0.19438229  1
  O  O24  1  0.44312357  0.36188149  0.64180401  1
  O  O25  1  0.93655131  0.35946084  0.64195004  1
  O  O26  1  0.24388594  0.10941434  0.64077613  1
  O  O27  1  0.74306210  0.12322064  0.63847962  1
  O  O28  1  0.31906112  0.52903811  0.63403746  1
  O  O29  1  0.82017452  0.49693009  0.63290211  1
  O  O30  1  0.43553147  0.51066756  0.14089994  1
  O  O31  1  0.94431902  0.52450332  0.14162621  1
  O  O32  1  0.32345732  0.13023939  0.13264059  1
  O  O33  1  0.81931774  0.10961428  0.13399661  1
  O  O34  1  0.24515141  0.36218711  0.13817385  1
  O  O35  1  0.74111371  0.37193446  0.14097936  1
  O  O36  1  0.21519434  0.28244582  0.02395533  1
  O  O37  1  0.71179542  0.27456545  0.02551816  1
  O  O38  1  0.42675068  0.54796170  0.02458369  1
  O  O39  1  0.92687175  0.55102237  0.02277878  1
  O  O40  1  0.34782078  0.13384064  0.02689122  1
  O  O41  1  0.84520817  0.13215827  0.02742804  1
  O  O42  1  0.21417052  0.14890976  0.52484663  1
  O  O43  1  0.71335504  0.14338437  0.52250886  1
  O  O44  1  0.34513665  0.55854181  0.52732639  1
  O  O45  1  0.85299224  0.56302190  0.51764236  1
  O  O46  1  0.42454397  0.29592353  0.52312236  1
  O  O47  1  0.92791644  0.30455283  0.52432303  1
  O  O48  1  0.26545904  0.68394226  0.97616789  1
  O  O49  1  0.76780340  0.68687376  0.97684399  1
  O  O50  1  0.07510739  0.47040176  0.96870257  1
  O  O51  1  0.57500704  0.46967555  0.96932650  1
  O  O52  1  0.15651852  0.84260107  0.97313621  1
  O  O53  1  0.65720950  0.84704721  0.97629306  1
  O  O54  1  0.26721335  0.84820980  0.47603628  1
  O  O55  1  0.76353178  0.84550152  0.47294775  1
  O  O56  1  0.15794779  0.46974253  0.47478266  1
  O  O57  1  0.65474394  0.46893721  0.46992633  1
  O  O58  1  0.07585901  0.68120483  0.46759060  1
  O  O59  1  0.57462099  0.67867578  0.46711367  1
  O  O60  1  0.06563359  0.65194165  0.36084738  1
  O  O61  1  0.55402281  0.63954758  0.36045976  1
  O  O62  1  0.25204571  0.85981528  0.36113057  1
  O  O63  1  0.76152300  0.90499091  0.35693621  1
  O  O64  1  0.17704488  0.48660455  0.35823296  1
  O  O65  1  0.67296666  0.46990630  0.35189100  1
  O  O66  1  0.05495988  0.47079811  0.86231094  1
  O  O67  1  0.56059592  0.47671907  0.86281599  1
  O  O68  1  0.17714259  0.87769515  0.85514093  1
  O  O69  1  0.67665011  0.86510664  0.85995822  1
  O  O70  1  0.25840055  0.62467995  0.85945981  1
  O  O71  1  0.75111936  0.64368042  0.86212018  1
  O  O72  1  0.01908119  0.82138178  0.41436968  1
  O  O73  1  0.51445882  0.81843735  0.41679856  1
  O  O74  1  0.40520717  0.96909976  0.41385773  1
  O  O75  1  0.90659779  0.96901329  0.41810811  1
  O  O76  1  0.08659841  0.18540082  0.41659685  1
  O  O77  1  0.58085308  0.18267971  0.41556993  1
  O  O78  1  0.01638939  0.21245343  0.91770615  1
  O  O79  1  0.51763635  0.21464268  0.91634905  1
  O  O80  1  0.08331711  0.98184368  0.91628707  1
  O  O81  1  0.58631939  0.98684583  0.91687950  1
  O  O82  1  0.40639339  0.84722813  0.91879156  1
  O  O83  1  0.90577335  0.84046588  0.91388293  1
  O  O84  1  0.48900106  0.15795927  0.58852848  1
  O  O85  1  0.99272343  0.17018804  0.59031255  1
  O  O86  1  0.08979134  0.01077576  0.59449215  1
  O  O87  1  0.58816937  0.01221636  0.59154694  1
  O  O88  1  0.40568491  0.80502224  0.58799484  1
  O  O89  1  0.91249017  0.82031318  0.59093480  1
  O  O90  1  0.48839898  0.81382219  0.08964071  1
  O  O91  1  0.99034142  0.82066244  0.08718140  1
  O  O92  1  0.40541887  0.01153555  0.09103853  1
  O  O93  1  0.90597651  0.00647526  0.08756245  1
  O  O94  1  0.08855320  0.16714984  0.09119717  1
  O  O95  1  0.58549096  0.16769330  0.09353590  1
  O  O96  1  0.34210102  0.16464614  0.75019656  1
  O  O97  1  0.84606255  0.17821773  0.74497318  1
  O  O98  1  0.24172799  0.33008229  0.74369559  1
  O  O99  1  0.74254105  0.31441510  0.74339725  1
  O  O100  1  0.41584105  0.51796020  0.74260801  1
  O  O101  1  0.92427316  0.52995116  0.74239695  1
  O  O102  1  0.34637243  0.51864154  0.24296000  1
  O  O103  1  0.84177085  0.52027607  0.24907985  1
  O  O104  1  0.42219615  0.31312175  0.23995360  1
  O  O105  1  0.91580426  0.31372238  0.24221434  1
  O  O106  1  0.24378655  0.16655490  0.23979583  1
  O  O107  1  0.74204601  0.15275036  0.24301127  1
  O  O108  1  0.33181501  0.50828606  0.92048609  1
  O  O109  1  0.82458549  0.50229820  0.91663912  1
  O  O110  1  0.43789405  0.35784239  0.92228501  1
  O  O111  1  0.93554946  0.35325291  0.92448955  1
  O  O112  1  0.25572639  0.14391712  0.92097644  1
  O  O113  1  0.75743244  0.14409583  0.92028568  1
  O  O114  1  0.32431861  0.14659832  0.41626312  1
  O  O115  1  0.83194327  0.15978471  0.42310181  1
  O  O116  1  0.25756909  0.37096567  0.41946845  1
  O  O117  1  0.75207010  0.35850840  0.41704997  1
  O  O118  1  0.43492271  0.51612167  0.42281501  1
  O  O119  1  0.94112430  0.51663328  0.41739717  1
  O  O120  1  0.18019018  0.50927167  0.07806392  1
  O  O121  1  0.67672403  0.50506324  0.07585523  1
  O  O122  1  0.08146205  0.67197126  0.07718452  1
  O  O123  1  0.58037417  0.66684491  0.08009340  1
  O  O124  1  0.25592958  0.87355703  0.07953784  1
  O  O125  1  0.75655854  0.86376439  0.07683335  1
  O  O126  1  0.17798724  0.84992964  0.57529812  1
  O  O127  1  0.67697204  0.84900650  0.57712153  1
  O  O128  1  0.25627588  0.64905810  0.57675237  1
  O  O129  1  0.74981395  0.64170567  0.57778688  1
  O  O130  1  0.08051615  0.49865493  0.57986563  1
  O  O131  1  0.57835586  0.48786672  0.57583936  1
  O  O132  1  0.15150473  0.82568050  0.25591789  1
  O  O133  1  0.64577415  0.81469598  0.25329317  1
  O  O134  1  0.25869573  0.67288394  0.25316228  1
  O  O135  1  0.76026642  0.69246603  0.24851920  1
  O  O136  1  0.08296331  0.48447170  0.25488640  1
  O  O137  1  0.57230826  0.45847556  0.24901867  1
  O  O138  1  0.14515184  0.47524906  0.75311425  1
  O  O139  1  0.65185064  0.47718044  0.75752357  1
  O  O140  1  0.07452347  0.68703447  0.75099940  1
  O  O141  1  0.58303840  0.68189481  0.75573474  1
  O  O142  1  0.25960343  0.82879608  0.74772960  1
  O  O143  1  0.75941965  0.84765558  0.75404285  1
loop_
_geom_bond_atom_site_label_1
_geom_bond_atom_site_label_2
_geom_bond_distance
_geom_bond_site_symmetry_2
Na0 O107 2.409952 1_555
Na0 O105 2.466174 1_555
Na0 O63 2.481125 1_545
Na0 O135 2.591601 1_545
Na0 O133 2.807774 1_545
Na0 O5 2.849482 1_555
Na0 O33 2.951067 1_555
Na1 O136 2.522226 1_555
Na1 O134 2.577758 1_555
Na1 O106 2.633937 1_555
Na1 O64 2.636997 1_555
Na1 O0 2.747484 1_555
Na1 O102 2.781249 1_555
Na1 O20 2.790142 1_555
Na1 O34 2.940584 1_555
Na2 O103 2.361531 1_555
Na2 O65 2.470959 1_555
Na2 O135 2.580192 1_555
Na2 O107 2.600515 1_555
Na2 O35 2.733377 1_555
Na2 O137 2.742300 1_555
Na2 O1 2.966939 1_555
Na3 O103 2.484106 1_555
Na3 O105 2.511335 1_555
Na3 O31 2.534362 1_555
Na3 O132 2.542827 1_655
Na3 O136 2.566342 1_655
Na3 O60 2.868930 1_655
Na4 O133 2.315980 1_555
Na4 O102 2.495628 1_555
Na4 O137 2.659826 1_555
Na4 O61 2.679325 1_555
Na4 O104 2.691754 1_555
Na4 O30 2.775523 1_555
Na4 O2 2.828228 1_555
Na4 O23 2.897737 1_555
Na5 O98 2.397875 1_555
Na5 O100 2.464036 1_555
Na5 O142 2.595390 1_555
Na5 O70 2.643529 1_555
Na5 O138 2.796630 1_555
Na5 O28 2.859925 1_555
Na5 O8 2.905265 1_555
Na6 O138 2.354589 1_655
Na6 O97 2.454656 1_555
Na6 O25 2.560820 1_555
Na6 O101 2.630116 1_555
Na6 O140 2.697704 1_655
Na6 O14 2.842437 1_655
Na6 O66 2.918145 1_655
Na6 O11 2.941489 1_555
Na7 O24 2.466465 1_555
Na7 O96 2.516524 1_555
Na7 O100 2.522367 1_555
Na7 O139 2.531313 1_555
Na7 O141 2.559034 1_555
Na7 O15 2.945059 1_555
Na7 O67 2.949222 1_555
Na8 O96 2.388981 1_555
Na8 O98 2.575879 1_555
Na8 O142 2.582335 1_545
Na8 O26 2.639563 1_555
Na8 O68 2.651403 1_545
Na8 O140 2.714114 1_545
Na9 O143 2.508203 1_545
Na9 O99 2.526538 1_555
Na9 O141 2.578175 1_545
Na9 O97 2.664760 1_555
Na9 O27 2.756557 1_555
Na9 O69 2.803089 1_545
Na9 O17 2.821213 1_545
Na9 O7 2.927080 1_555
Na10 O85 2.464051 1_455
Na10 O130 2.500477 1_555
Na10 O86 2.514090 1_555
Na10 O128 2.692025 1_555
Na10 O56 2.739502 1_555
Na10 O42 2.764412 1_555
Na10 O14 2.841728 1_555
Na11 O131 2.460746 1_555
Na11 O129 2.526462 1_555
Na11 O87 2.562784 1_555
Na11 O84 2.621655 1_555
Na11 O43 2.813699 1_555
Na11 O57 2.828176 1_555
Na11 O15 2.844776 1_555
Na11 O29 2.915843 1_555
Na12 O84 2.459396 1_565
Na12 O126 2.531441 1_555
Na12 O88 2.632218 1_555
Na12 O26 2.706145 1_565
Na12 O12 2.744305 1_555
Na12 O128 2.757919 1_555
Na12 O54 2.829247 1_555
Na12 O46 2.849238 1_565
Na13 O89 2.489524 1_555
Na13 O127 2.525980 1_555
Na13 O85 2.571182 1_565
Na13 O129 2.652547 1_555
Na13 O55 2.754932 1_555
Na13 O13 2.831156 1_555
Na13 O27 2.951718 1_565
Na13 O47 2.967149 1_565
Na14 O122 2.401718 1_555
Na14 O91 2.457913 1_455
Na14 O94 2.500781 1_565
Na14 O124 2.638217 1_555
Na14 O52 2.745478 1_554
Na14 O22 2.776142 1_555
Na14 O36 2.801093 1_565
Na15 O123 2.485783 1_555
Na15 O90 2.605106 1_555
Na15 O95 2.605319 1_565
Na15 O53 2.632447 1_554
Na15 O125 2.641479 1_555
Na15 O37 2.679067 1_565
Na15 O23 2.878694 1_555
Na15 O33 2.991739 1_565
Na16 O120 2.461812 1_555
Na16 O90 2.486403 1_555
Na16 O92 2.654186 1_565
Na16 O48 2.693105 1_554
Na16 O124 2.784448 1_555
Na16 O18 2.793096 1_555
Na16 O34 2.873783 1_555
Na16 O38 2.873989 1_555
Na17 O91 2.479594 1_555
Na17 O121 2.553673 1_555
Na17 O93 2.620658 1_565
Na17 O19 2.691710 1_555
Na17 O125 2.745498 1_555
Na17 O35 2.767216 1_555
Na17 O49 2.814525 1_554
Na17 O39 2.908594 1_555
Na18 O8 2.363379 1_555
Na18 O108 2.379822 1_555
Na18 O81 2.520551 1_555
Na18 O82 2.521019 1_555
Na18 O110 2.677922 1_555
Na18 O38 2.750800 1_556
Na19 O109 2.483549 1_555
Na19 O83 2.491808 1_555
Na19 O39 2.493511 1_556
Na19 O80 2.496693 1_655
Na19 O111 2.684012 1_555
Na19 O9 2.734290 1_555
Na20 O10 2.379741 1_555
Na20 O82 2.421384 1_545
Na20 O112 2.440194 1_555
Na20 O110 2.697705 1_555
Na20 O79 2.760736 1_555
Na20 O68 2.926550 1_545
Na20 O40 2.928969 1_556
Na21 O113 2.398861 1_555
Na21 O11 2.435869 1_555
Na21 O83 2.450195 1_545
Na21 O111 2.684401 1_555
Na21 O78 2.764300 1_655
Na21 O41 2.887611 1_556
Na21 O69 2.888049 1_545
Na22 O6 2.420506 1_555
Na22 O80 2.539749 1_545
Na22 O112 2.548769 1_555
Na22 O108 2.582883 1_555
Na22 O78 2.618705 1_555
Na22 O36 2.749960 1_556
Na22 O70 2.847601 1_555
Na23 O7 2.385328 1_555
Na23 O81 2.425318 1_545
Na23 O79 2.532263 1_555
Na23 O109 2.544806 1_555
Na23 O113 2.582495 1_555
Na23 O37 2.759988 1_556
Na24 O46 2.419818 1_555
Na24 O77 2.461745 1_555
Na24 O114 2.552515 1_555
Na24 O74 2.569696 1_545
Na24 O118 2.669629 1_555
Na24 O57 2.899984 1_555
Na24 O4 2.901504 1_555
Na25 O115 2.342937 1_555
Na25 O75 2.480559 1_545
Na25 O5 2.532469 1_555
Na25 O76 2.555434 1_655
Na25 O47 2.592274 1_555
Na25 O119 2.603889 1_555
Na26 O76 2.392058 1_555
Na26 O72 2.490257 1_545
Na26 O0 2.522306 1_555
Na26 O114 2.558576 1_555
Na26 O116 2.579458 1_555
Na26 O42 2.657547 1_555
Na27 O117 2.431207 1_555
Na27 O115 2.522378 1_555
Na27 O43 2.529576 1_555
Na27 O77 2.579938 1_555
Na27 O1 2.652745 1_555
Na27 O73 2.687016 1_545
Na27 O63 2.878802 1_545
Na28 O116 2.395946 1_555
Na28 O74 2.425931 1_555
Na28 O2 2.618189 1_555
Na28 O118 2.658597 1_555
Na28 O73 2.706973 1_555
Na28 O44 2.782399 1_555
Na29 O45 2.449005 1_555
Na29 O75 2.455375 1_555
Na29 O117 2.468045 1_555
Na29 O119 2.711652 1_555
Na29 O3 2.725888 1_555
Na29 O72 2.773810 1_655
Na30 O75 2.432562 1_555
Na30 O76 2.560982 1_665
Na30 O89 2.598243 1_555
Na30 O85 2.628939 1_565
Na30 O72 2.676620 1_655
Na30 O86 2.681031 1_665
Na31 O77 2.442123 1_555
Na31 O84 2.463167 1_555
Na31 O87 2.514554 1_555
Na31 O74 2.634279 1_545
Na31 O73 2.714473 1_545
Na31 O88 2.742961 1_545
Na32 O80 2.437404 1_554
Na32 O91 2.476000 1_455
Na32 O83 2.558693 1_454
Na32 O94 2.584129 1_565
Na32 O78 2.674849 1_564
Na32 O93 2.729456 1_465
Na33 O81 2.352115 1_555
Na33 O82 2.386789 1_555
Na33 O79 2.592619 1_565
Na33 O90 2.671543 1_556
Na33 O95 2.693414 1_566
Na33 O92 2.902867 1_566
Na34 O96 2.428824 1_555
Na34 O98 2.436134 1_555
Na34 O100 2.500305 1_555
Na34 O108 2.649772 1_555
Na34 O112 2.699579 1_555
Na34 O110 2.902761 1_555
Na35 O99 2.390841 1_555
Na35 O109 2.508921 1_555
Na35 O113 2.549015 1_555
Na35 O97 2.554030 1_555
Na35 O101 2.743446 1_555
Na35 O111 2.937950 1_555
Na36 O114 2.359413 1_555
Na36 O116 2.420886 1_555
Na36 O106 2.590997 1_555
Na36 O102 2.762569 1_555
Na36 O118 2.789730 1_555
Na36 O104 2.879480 1_555
Na37 O117 2.504033 1_555
Na37 O107 2.554443 1_555
Na37 O103 2.554573 1_555
Na37 O115 2.568080 1_555
Na37 O105 2.631599 1_555
Na37 O119 2.742418 1_555
Na38 O136 2.409577 1_555
Na38 O122 2.540545 1_555
Na38 O132 2.574032 1_555
Na38 O120 2.599153 1_555
Na38 O134 2.634527 1_555
Na38 O124 2.851842 1_555
Na39 O135 2.407316 1_555
Na39 O133 2.515870 1_555
Na39 O137 2.524890 1_555
Na39 O123 2.584453 1_555
Na39 O121 2.617640 1_555
Na39 O125 2.788130 1_555
Na40 O142 2.445934 1_555
Na40 O130 2.517102 1_555
Na40 O140 2.540267 1_555
Na40 O138 2.550313 1_555
Na40 O126 2.604510 1_555
Na40 O128 2.772140 1_555
Na41 O131 2.539239 1_555
Na41 O127 2.546947 1_555
Na41 O141 2.596462 1_555
Na41 O129 2.611900 1_555
Na41 O139 2.667110 1_555
Na41 O143 2.684193 1_555
Hf0 O13 2.020738 1_545
Hf0 O85 2.031242 1_555
Hf0 O14 2.035561 1_655
Hf0 O89 2.050609 1_545
Hf0 O86 2.051108 1_655
Hf0 O16 2.233336 1_645
Hf1 O15 1.971506 1_555
Hf1 O17 2.008149 1_545
Hf1 O12 2.027804 1_545
Hf1 O87 2.052907 1_555
Hf1 O84 2.135201 1_555
Hf1 O88 2.356318 1_545
Hf2 O22 1.974860 1_545
Hf2 O20 1.995233 1_555
Hf2 O19 2.016261 1_445
Hf2 O94 2.075960 1_555
Hf2 O91 2.159728 1_445
Hf2 O93 2.343841 1_455
Hf3 O23 1.944872 1_555
Hf3 O18 2.017407 1_555
Hf3 O90 2.033146 1_555
Hf3 O95 2.036467 1_565
Hf3 O21 2.184276 1_565
Hf3 O92 2.292091 1_565
Hf4 O29 1.982769 1_555
Hf4 O27 1.987052 1_555
Hf4 O25 2.051036 1_555
Hf4 O99 2.103842 1_555
Hf4 O97 2.131335 1_555
Hf4 O101 2.294128 1_555
Hf5 O34 1.974940 1_555
Hf5 O102 2.002942 1_555
Hf5 O30 2.037473 1_555
Hf5 O106 2.046707 1_555
Hf5 O104 2.225147 1_555
Hf5 O32 2.229115 1_555
Hf6 O52 2.008332 1_554
Hf6 O48 2.022514 1_554
Hf6 O122 2.056525 1_555
Hf6 O50 2.085529 1_554
Hf6 O120 2.088599 1_555
Hf6 O124 2.252566 1_555
Hf7 O53 2.019403 1_554
Hf7 O49 2.028988 1_554
Hf7 O121 2.039856 1_555
Hf7 O51 2.085560 1_554
Hf7 O123 2.107654 1_555
Hf7 O125 2.173923 1_555
Hf8 O56 2.020198 1_555
Hf8 O126 2.033423 1_555
Hf8 O54 2.039935 1_555
Hf8 O130 2.082768 1_555
Hf8 O58 2.087932 1_555
Hf8 O128 2.181928 1_555
Hf9 O129 2.015356 1_555
Hf9 O57 2.032046 1_555
Hf9 O55 2.034803 1_555
Hf9 O131 2.067746 1_555
Hf9 O127 2.085255 1_555
Hf9 O59 2.221131 1_555
Hf10 O62 1.980373 1_555
Hf10 O134 2.017156 1_555
Hf10 O64 2.052367 1_555
Hf10 O132 2.074364 1_555
Hf10 O136 2.106979 1_555
Hf10 O60 2.246325 1_555
Hf11 O143 1.992636 1_555
Hf11 O71 1.998053 1_555
Hf11 O139 2.053847 1_555
Hf11 O69 2.056286 1_555
Hf11 O141 2.086712 1_555
Hf11 O67 2.354118 1_555
In0 O5 2.073564 1_455
In0 O3 2.086808 1_445
In0 O0 2.171883 1_555
In0 O76 2.200180 1_555
In0 O75 2.226137 1_445
In0 O72 2.454977 1_545
In1 O1 2.090968 1_555
In1 O2 2.104894 1_545
In1 O77 2.144747 1_555
In1 O74 2.173011 1_545
In1 O4 2.283488 1_555
In1 O73 2.366520 1_545
In2 O6 2.089944 1_565
In2 O11 2.094882 1_465
In2 O83 2.191374 1_455
In2 O80 2.206684 1_555
In2 O9 2.255205 1_455
In2 O78 2.405513 1_565
In3 O8 2.069297 1_555
In3 O10 2.092282 1_565
In3 O7 2.125433 1_565
In3 O81 2.226011 1_555
In3 O82 2.260251 1_555
In3 O79 2.490609 1_565
In4 O24 2.084269 1_555
In4 O26 2.087544 1_555
In4 O100 2.126270 1_555
In4 O96 2.171757 1_555
In4 O98 2.214857 1_555
In4 O28 2.330150 1_555
In5 O35 2.102598 1_555
In5 O31 2.103909 1_555
In5 O105 2.116075 1_555
In5 O103 2.145841 1_555
In5 O107 2.202213 1_555
In5 O33 2.335509 1_555
In6 O36 2.079570 1_556
In6 O38 2.087564 1_556
In6 O108 2.106354 1_555
In6 O112 2.156088 1_555
In6 O40 2.315621 1_556
In6 O110 2.408932 1_555
In7 O37 2.085238 1_556
In7 O39 2.091458 1_556
In7 O109 2.153376 1_555
In7 O113 2.168160 1_555
In7 O41 2.344072 1_556
In7 O111 2.409118 1_555
In8 O42 2.069437 1_555
In8 O46 2.078587 1_555
In8 O114 2.166261 1_555
In8 O116 2.185575 1_555
In8 O44 2.329474 1_555
In8 O118 2.404765 1_555
In9 O45 2.092553 1_555
In9 O43 2.101627 1_555
In9 O47 2.118357 1_555
In9 O115 2.163929 1_555
In9 O117 2.242911 1_555
In9 O119 2.516873 1_555
In10 O63 2.053242 1_555
In10 O65 2.071967 1_555
In10 O135 2.137906 1_555
In10 O133 2.165434 1_555
In10 O61 2.348865 1_555
In10 O137 2.534120 1_555
In11 O70 2.059743 1_555
In11 O68 2.082959 1_555
In11 O142 2.123619 1_555
In11 O138 2.139875 1_555
In11 O66 2.353341 1_555
In11 O140 2.408235 1_555
O0 Si0 1.632386 1_555
O1 Si1 1.633451 1_545
O2 Si2 1.623873 1_555
O3 Si3 1.631534 1_555
O4 S0 1.475672 1_555
O5 Si4 1.627662 1_555
O6 Si5 1.650845 1_555
O7 Si6 1.639263 1_555
O8 Si7 1.636704 1_555
O9 S1 1.488050 1_555
O10 Si8 1.640042 1_545
O11 Si9 1.640053 1_555
O12 Si8 1.642541 1_555
O13 Si9 1.621304 1_565
O14 Si5 1.637349 1_555
O15 Si6 1.650998 1_555
O16 S1 1.471168 1_455
O17 Si7 1.636983 1_555
O18 Si2 1.630972 1_555
O19 Si3 1.654790 1_555
O20 Si4 1.645152 1_455
O21 S0 1.481941 1_555
O22 Si0 1.655168 1_565
O23 Si1 1.670739 1_555
O24 Si10 1.614692 1_555
O25 Si11 1.637307 1_555
O26 Si12 1.629464 1_555
O27 Si13 1.664634 1_555
O28 S2 1.471595 1_555
O29 Si14 1.635382 1_555
O30 Si15 1.638235 1_555
O31 Si16 1.611376 1_555
O32 S3 1.475914 1_555
O33 S4 1.468478 1_555
O34 Si17 1.664880 1_555
O35 Si18 1.624983 1_555
O36 Si17 1.632634 1_555
O37 Si18 1.648306 1_555
O38 Si15 1.624103 1_555
O39 Si16 1.649420 1_555
O40 S3 1.471182 1_555
O41 S4 1.473901 1_555
O42 Si12 1.647427 1_555
O43 Si13 1.631233 1_555
O44 S2 1.475957 1_555
O45 Si14 1.623016 1_555
O46 Si10 1.651144 1_555
O47 Si11 1.619098 1_555
O48 Si19 1.665639 1_555
O49 Si20 1.654959 1_555
O50 S5 1.499855 1_555
O51 S6 1.498769 1_555
O52 Si21 1.656601 1_555
O53 Si22 1.653126 1_555
O54 Si23 1.648153 1_555
O55 Si24 1.649082 1_555
O56 Si25 1.646739 1_555
O57 Si26 1.643611 1_555
O58 S7 1.496819 1_555
O59 S8 1.473045 1_555
O60 S7 1.482234 1_555
O61 S8 1.487863 1_555
O62 Si23 1.635364 1_555
O63 Si24 1.647852 1_555
O64 Si25 1.649456 1_555
O65 Si26 1.646542 1_555
O66 S5 1.475061 1_555
O67 S6 1.474056 1_555
O68 Si21 1.633739 1_555
O69 Si22 1.640220 1_555
O70 Si19 1.633082 1_555
O71 Si20 1.628660 1_555
O72 S7 1.477222 1_555
O73 S8 1.488130 1_555
O74 Si23 1.644770 1_555
O75 Si24 1.650569 1_555
O76 Si25 1.637325 1_555
O77 Si26 1.661709 1_555
O78 S5 1.480177 1_555
O79 S6 1.476642 1_555
O80 Si21 1.653062 1_555
O81 Si22 1.638871 1_555
O82 Si19 1.643884 1_555
O83 Si20 1.647935 1_555
O84 Si10 1.669610 1_555
O85 Si11 1.669666 1_555
O86 Si12 1.627877 1_555
O87 Si13 1.633827 1_555
O88 S2 1.477568 1_555
O89 Si14 1.628808 1_555
O90 Si15 1.683549 1_555
O91 Si16 1.669964 1_555
O92 S3 1.476228 1_555
O93 S4 1.480085 1_555
O94 Si17 1.625189 1_555
O95 Si18 1.647445 1_555
O96 Si8 1.635155 1_545
O97 Si9 1.649860 1_555
O98 Si5 1.634243 1_555
O99 Si6 1.641031 1_555
O100 Si7 1.621703 1_555
O101 S1 1.479618 1_555
O102 Si2 1.672970 1_555
O103 Si3 1.635555 1_555
O104 S0 1.487116 1_555
O105 Si4 1.618310 1_555
O106 Si0 1.653977 1_555
O107 Si1 1.623004 1_545
O108 Si19 1.644044 1_555
O109 Si20 1.646071 1_555
O110 S6 1.476482 1_555
O111 S5 1.475208 1_655
O112 Si21 1.652055 1_545
O113 Si22 1.656787 1_545
O114 Si23 1.644043 1_545
O115 Si24 1.640322 1_545
O116 Si25 1.658688 1_555
O117 Si26 1.639315 1_555
O118 S8 1.486952 1_555
O119 S7 1.465362 1_655
O120 Si17 1.644901 1_555
O121 Si18 1.646349 1_555
O122 Si16 1.663399 1_455
O123 Si15 1.641816 1_555
O124 S3 1.506888 1_565
O125 S4 1.514479 1_565
O126 Si12 1.646834 1_565
O127 Si13 1.632887 1_565
O128 S2 1.511032 1_555
O129 Si14 1.665147 1_555
O130 Si11 1.655070 1_455
O131 Si10 1.637069 1_555
O132 Si0 1.632550 1_565
O133 Si1 1.646965 1_555
O134 Si2 1.634121 1_555
O135 Si3 1.651605 1_555
O136 Si4 1.650377 1_455
O137 S0 1.481699 1_555
O138 Si5 1.656064 1_555
O139 Si6 1.635893 1_555
O140 S1 1.492319 1_455
O141 Si7 1.648572 1_555
O142 Si8 1.653721 1_555
O143 Si9 1.650058 1_565
