# generated using pymatgen
data_CaMnSi
_symmetry_space_group_name_H-M   'P 1'
_cell_length_a   3.92172900
_cell_length_b   3.92172900
_cell_length_c   7.90564500
_cell_angle_alpha   90.00000000
_cell_angle_beta   90.00000000
_cell_angle_gamma   90.00000000
_symmetry_Int_Tables_number   1
_chemical_formula_structural   CaMnSi
_chemical_formula_sum   'Ca2 Mn2 Si2'
_cell_volume   121.58849083
_cell_formula_units_Z   2
loop_
 _symmetry_equiv_pos_site_id
 _symmetry_equiv_pos_as_xyz
  1  'x, y, z'
loop_
 _atom_site_type_symbol
 _atom_site_label
 _atom_site_symmetry_multiplicity
 _atom_site_fract_x
 _atom_site_fract_y
 _atom_site_fract_z
 _atom_site_occupancy
  Ca  Ca0  1  0.00000000  0.50000000  0.31937900  1
  Ca  Ca1  1  0.50000000  0.00000000  0.68062100  1
  Mn  Mn0  1  0.50000000  0.50000000  0.00000000  1
  Mn  Mn1  1  0.00000000  0.00000000  0.00000000  1
  Si  Si0  1  0.00000000  0.50000000  0.82851000  1
  Si  Si1  1  0.50000000  0.00000000  0.17149000  1
loop_
_geom_bond_atom_site_label_1
_geom_bond_atom_site_label_2
_geom_bond_distance
_geom_bond_site_symmetry_2
Ca0 Si1 3.009470 1_455
Ca0 Si1 3.009470 1_465
Ca0 Si1 3.009470 1_565
Ca0 Si1 3.009470 1_555
Ca1 Si0 3.009470 1_645
Ca1 Si0 3.009470 1_655
Ca1 Si0 3.009470 1_545
Ca1 Si0 3.009470 1_555
Mn0 Si1 2.383908 1_555
Mn0 Si1 2.383908 1_565
Mn0 Si0 2.383908 1_654
Mn0 Si0 2.383908 1_554
Mn1 Si1 2.383908 1_455
Mn1 Si0 2.383908 1_554
Mn1 Si1 2.383908 1_555
Mn1 Si0 2.383908 1_544
