# generated using pymatgen
data_Na2TaAlSi(PO6)2
_symmetry_space_group_name_H-M   'P 1'
_cell_length_a   8.72158873
_cell_length_b   8.72158845
_cell_length_c   22.19213122
_cell_angle_alpha   89.69691774
_cell_angle_beta   90.30308227
_cell_angle_gamma   119.78994389
_symmetry_Int_Tables_number   1
_chemical_formula_structural   Na2TaAlSi(PO6)2
_chemical_formula_sum   'Na12 Ta6 Al6 Si6 P12 O72'
_cell_volume   1464.96782768
_cell_formula_units_Z   6
loop_
 _symmetry_equiv_pos_site_id
 _symmetry_equiv_pos_as_xyz
  1  'x, y, z'
loop_
 _atom_site_type_symbol
 _atom_site_label
 _atom_site_symmetry_multiplicity
 _atom_site_fract_x
 _atom_site_fract_y
 _atom_site_fract_z
 _atom_site_occupancy
  Na  Na0  1  0.99320573  0.62910998  0.24713565  1
  Na  Na1  1  0.37089002  0.00679427  0.74713565  1
  Na  Na2  1  0.65997870  0.96575057  0.58316777  1
  Na  Na3  1  0.03424943  0.34002130  0.08316777  1
  Na  Na4  1  0.97411141  0.67337478  0.91660837  1
  Na  Na5  1  0.32662522  0.02588859  0.41660837  1
  Na  Na6  1  0.00103716  0.99703353  0.49500984  1
  Na  Na7  1  0.00296647  0.99896284  0.99500984  1
  Na  Na8  1  0.66800435  0.32979845  0.82833327  1
  Na  Na9  1  0.67020155  0.33199565  0.32833327  1
  Na  Na10  1  0.34616243  0.67442544  0.16154117  1
  Na  Na11  1  0.32557456  0.65383757  0.66154117  1
  Ta  Ta0  1  0.00239046  0.99980762  0.64569098  1
  Ta  Ta1  1  0.00019238  0.99760954  0.14569098  1
  Ta  Ta2  1  0.66177843  0.33029502  0.97880714  1
  Ta  Ta3  1  0.66970498  0.33822157  0.47880714  1
  Ta  Ta4  1  0.32895333  0.66012634  0.31195378  1
  Ta  Ta5  1  0.33987366  0.67104667  0.81195378  1
  Al  Al0  1  0.99179068  0.99768381  0.35349569  1
  Al  Al1  1  0.00231619  0.00820932  0.85349569  1
  Al  Al2  1  0.66953961  0.32954415  0.68601229  1
  Al  Al3  1  0.67045585  0.33046039  0.18601229  1
  Al  Al4  1  0.33085602  0.67458397  0.01967935  1
  Al  Al5  1  0.32541603  0.66914398  0.51967935  1
  Si  Si0  1  0.98733935  0.27772907  0.25216314  1
  Si  Si1  1  0.72227093  0.01266065  0.75216314  1
  Si  Si2  1  0.37874823  0.03919052  0.58466938  1
  Si  Si3  1  0.96080948  0.62125177  0.08466938  1
  Si  Si4  1  0.32527362  0.95513244  0.91772990  1
  Si  Si5  1  0.04486756  0.67472638  0.41772990  1
  P  P0  1  0.29742178  0.01363991  0.25248703  1
  P  P1  1  0.71357231  0.70990262  0.25179795  1
  P  P2  1  0.29009738  0.28642769  0.75179795  1
  P  P3  1  0.98636009  0.70257822  0.75248703  1
  P  P4  1  0.96144052  0.34525755  0.58549407  1
  P  P5  1  0.65800247  0.61305007  0.58606166  1
  P  P6  1  0.65474245  0.03855948  0.08549407  1
  P  P7  1  0.38694993  0.34199753  0.08606166  1
  P  P8  1  0.62160041  0.67500209  0.91994939  1
  P  P9  1  0.05117794  0.37290840  0.91895093  1
  P  P10  1  0.62709160  0.94882206  0.41895093  1
  P  P11  1  0.32499791  0.37839959  0.41994939  1
  O  O0  1  0.20925427  0.03137243  0.30901357  1
  O  O1  1  0.83453479  0.79524298  0.30582495  1
  O  O2  1  0.97072819  0.15886217  0.30892654  1
  O  O3  1  0.20475702  0.16546521  0.80582495  1
  O  O4  1  0.96862757  0.79074573  0.80901357  1
  O  O5  1  0.84113783  0.02927181  0.80892654  1
  O  O6  1  0.79938934  0.97163331  0.68971800  1
  O  O7  1  0.17173312  0.19985833  0.69436890  1
  O  O8  1  0.03286725  0.83091787  0.69649640  1
  O  O9  1  0.80014167  0.82826688  0.19436890  1
  O  O10  1  0.02836669  0.20061066  0.18971800  1
  O  O11  1  0.16908213  0.96713275  0.19649640  1
  O  O12  1  0.87169131  0.36756727  0.64038212  1
  O  O13  1  0.50267954  0.13377217  0.64271586  1
  O  O14  1  0.63898598  0.50126636  0.64066202  1
  O  O15  1  0.86622783  0.49732046  0.14271586  1
  O  O16  1  0.63243273  0.12830869  0.14038212  1
  O  O17  1  0.49873364  0.36101402  0.14066202  1
  O  O18  1  0.46560691  0.30320457  0.02829153  1
  O  O19  1  0.83759838  0.53312154  0.02352780  1
  O  O20  1  0.69643211  0.16207076  0.02869080  1
  O  O21  1  0.46687846  0.16240162  0.52352780  1
  O  O22  1  0.69679543  0.53439309  0.52829153  1
  O  O23  1  0.83792924  0.30356789  0.52869080  1
  O  O24  1  0.52775313  0.69287992  0.97425165  1
  O  O25  1  0.15835771  0.45828756  0.97608031  1
  O  O26  1  0.29193473  0.82428727  0.97335717  1
  O  O27  1  0.54171244  0.84164229  0.47608031  1
  O  O28  1  0.30712008  0.47224687  0.47425165  1
  O  O29  1  0.17571273  0.70806527  0.47335717  1
  O  O30  1  0.13274710  0.63840942  0.35634098  1
  O  O31  1  0.50280868  0.86630656  0.36303816  1
  O  O32  1  0.36295409  0.49499378  0.36171098  1
  O  O33  1  0.13369344  0.49719132  0.86303816  1
  O  O34  1  0.36159058  0.86725290  0.85634098  1
  O  O35  1  0.50500622  0.63704591  0.86171098  1
  O  O36  1  0.02825462  0.84954935  0.40677634  1
  O  O37  1  0.81028956  0.97364116  0.40971300  1
  O  O38  1  0.16866414  0.19221578  0.41108268  1
  O  O39  1  0.02635884  0.18971044  0.90971300  1
  O  O40  1  0.15045065  0.97174538  0.90677634  1
  O  O41  1  0.80778422  0.83133586  0.91108268  1
  O  O42  1  0.96975676  0.16831467  0.58979563  1
  O  O43  1  0.18190420  0.02112658  0.58939530  1
  O  O44  1  0.82665563  0.80406184  0.59032963  1
  O  O45  1  0.97887342  0.81809580  0.08939530  1
  O  O46  1  0.83168533  0.03024324  0.08979563  1
  O  O47  1  0.19593816  0.17334437  0.09032963  1
  O  O48  1  0.68528840  0.17617368  0.74354637  1
  O  O49  1  0.47372000  0.30870578  0.74199649  1
  O  O50  1  0.82672890  0.52283435  0.74093762  1
  O  O51  1  0.69129422  0.52628000  0.24199649  1
  O  O52  1  0.82382632  0.31471160  0.24354637  1
  O  O53  1  0.47716565  0.17327110  0.24093762  1
  O  O54  1  0.64283517  0.50502342  0.92339344  1
  O  O55  1  0.86430513  0.36233331  0.92347757  1
  O  O56  1  0.50492855  0.14976185  0.92263833  1
  O  O57  1  0.63766669  0.13569487  0.42347757  1
  O  O58  1  0.49497658  0.35716483  0.42339344  1
  O  O59  1  0.85023815  0.49507145  0.42263833  1
  O  O60  1  0.35954030  0.50055241  0.07595667  1
  O  O61  1  0.15250162  0.63584778  0.07610487  1
  O  O62  1  0.49942304  0.85467892  0.07518032  1
  O  O63  1  0.36415222  0.84749838  0.57610487  1
  O  O64  1  0.49944759  0.64045970  0.57595667  1
  O  O65  1  0.14532108  0.50057696  0.57518032  1
  O  O66  1  0.31114407  0.83950886  0.25643274  1
  O  O67  1  0.53076014  0.69837145  0.25683072  1
  O  O68  1  0.16952350  0.48126356  0.25627579  1
  O  O69  1  0.30162855  0.46923986  0.75683072  1
  O  O70  1  0.16049114  0.68885593  0.75643274  1
  O  O71  1  0.51873644  0.83047650  0.75627579  1
loop_
_geom_bond_atom_site_label_1
_geom_bond_atom_site_label_2
_geom_bond_distance
_geom_bond_site_symmetry_2
Na0 O51 2.324264 1_555
Na0 O52 2.384027 1_555
Na0 O68 2.456175 1_655
Na0 O66 2.457826 1_655
Na0 O15 2.579470 1_555
Na0 O30 2.689584 1_655
Na0 O1 2.782497 1_555
Na0 O11 2.792289 1_655
Na1 O49 2.324263 1_555
Na1 O48 2.384028 1_555
Na1 O71 2.456175 1_545
Na1 O70 2.457826 1_545
Na1 O13 2.579470 1_555
Na1 O34 2.689584 1_545
Na1 O3 2.782497 1_555
Na1 O8 2.792289 1_545
Na2 O63 2.257971 1_555
Na2 O42 2.387055 1_565
Na2 O64 2.467850 1_555
Na2 O44 2.481774 1_555
Na2 O27 2.602923 1_555
Na2 O6 2.642178 1_555
Na2 O13 2.795210 1_565
Na2 O23 2.826582 1_565
Na3 O61 2.257971 1_555
Na3 O46 2.387055 1_455
Na3 O60 2.467850 1_555
Na3 O47 2.481774 1_555
Na3 O25 2.602923 1_554
Na3 O10 2.642178 1_555
Na3 O15 2.795210 1_455
Na3 O20 2.826582 1_455
Na4 O40 2.281560 1_655
Na4 O55 2.390659 1_555
Na4 O41 2.449386 1_555
Na4 O54 2.512630 1_555
Na4 O4 2.602525 1_555
Na4 O19 2.663819 1_556
Na4 O26 2.712447 1_655
Na4 O33 2.805975 1_655
Na5 O36 2.281561 1_545
Na5 O57 2.390659 1_555
Na5 O38 2.449386 1_555
Na5 O58 2.512630 1_555
Na5 O0 2.602525 1_555
Na5 O21 2.663819 1_555
Na5 O29 2.712447 1_545
Na5 O31 2.805975 1_545
Na6 O36 2.424868 1_555
Na6 O37 2.454775 1_455
Na6 O38 2.454903 1_565
Na6 O43 2.561298 1_565
Na6 O44 2.659570 1_455
Na6 O42 2.678614 1_465
Na7 O40 2.424868 1_555
Na7 O39 2.454775 1_565
Na7 O41 2.454903 1_455
Na7 O45 2.561298 1_456
Na7 O47 2.659570 1_566
Na7 O46 2.678614 1_466
Na8 O48 2.364047 1_555
Na8 O50 2.488071 1_555
Na8 O49 2.497149 1_555
Na8 O56 2.577986 1_555
Na8 O55 2.637284 1_555
Na8 O54 2.684476 1_555
Na9 O52 2.364047 1_555
Na9 O53 2.488071 1_555
Na9 O51 2.497149 1_555
Na9 O59 2.577986 1_555
Na9 O57 2.637284 1_555
Na9 O58 2.684476 1_555
Na10 O62 2.416295 1_555
Na10 O61 2.443171 1_555
Na10 O60 2.475723 1_555
Na10 O67 2.596552 1_555
Na10 O68 2.655063 1_555
Na10 O66 2.660203 1_555
Na11 O65 2.416295 1_555
Na11 O63 2.443171 1_555
Na11 O64 2.475723 1_555
Na11 O69 2.596552 1_555
Na11 O71 2.655063 1_555
Na11 O70 2.660203 1_555
Al0 O2 1.796683 1_565
Al0 O36 1.885879 1_655
Al0 O1 1.927656 1_555
Al0 O37 1.947961 1_555
Al0 O0 2.030028 1_665
Al0 O38 2.071935 1_665
Al1 O5 1.796683 1_455
Al1 O40 1.885879 1_545
Al1 O3 1.927656 1_555
Al1 O39 1.947961 1_555
Al1 O4 2.030028 1_445
Al1 O41 2.071935 1_445
Al2 O13 1.868146 1_555
Al2 O48 1.897629 1_555
Al2 O12 1.917872 1_555
Al2 O14 1.924771 1_555
Al2 O50 1.978574 1_555
Al2 O49 2.050617 1_555
Al3 O15 1.868146 1_555
Al3 O52 1.897629 1_555
Al3 O16 1.917872 1_555
Al3 O17 1.924771 1_555
Al3 O53 1.978574 1_555
Al3 O51 2.050617 1_555
Al4 O26 1.816374 1_554
Al4 O61 1.896255 1_555
Al4 O24 1.932642 1_554
Al4 O62 1.962744 1_555
Al4 O25 1.985476 1_554
Al4 O60 2.068848 1_555
Al5 O29 1.816374 1_555
Al5 O63 1.896255 1_555
Al5 O28 1.932642 1_555
Al5 O65 1.962744 1_555
Al5 O27 1.985476 1_555
Al5 O64 2.068848 1_555
O0 P0 1.522917 1_555
O1 P1 1.523267 1_555
O2 Si0 1.587915 1_555
O3 P2 1.523267 1_555
O4 P3 1.522917 1_555
O5 Si1 1.587915 1_555
O6 Si1 1.659845 1_565
O6 Ta0 1.932131 1_655
O7 P2 1.575380 1_555
O7 Ta0 1.958328 1_545
O8 P3 1.581403 1_455
O8 Ta0 1.969735 1_555
O9 P1 1.575380 1_555
O9 Ta1 1.958328 1_655
O10 Si0 1.659845 1_455
O10 Ta1 1.932131 1_545
O11 P0 1.581403 1_565
O11 Ta1 1.969735 1_555
O12 P4 1.515990 1_555
O13 Si2 1.618245 1_555
O14 P5 1.508367 1_555
O15 Si3 1.618245 1_555
O16 P6 1.515989 1_555
O17 P7 1.508367 1_555
O18 P7 1.572654 1_555
O18 Ta2 1.950518 1_554
O19 Si3 1.661782 1_555
O19 Ta2 1.942353 1_554
O20 P6 1.575744 1_555
O20 Ta2 1.972148 1_554
O21 Si2 1.661782 1_555
O21 Ta3 1.942353 1_555
O22 P5 1.572654 1_555
O22 Ta3 1.950518 1_555
O23 P4 1.575744 1_555
O23 Ta3 1.972148 1_555
O24 P8 1.511856 1_555
O25 P9 1.530188 1_555
O26 Si4 1.603115 1_555
O27 P10 1.530188 1_555
O28 P11 1.511856 1_555
O29 Si5 1.603115 1_555
O30 Si5 1.673501 1_555
O30 Ta4 1.904810 1_555
O31 P10 1.566077 1_555
O31 Ta4 2.027816 1_555
O32 P11 1.571676 1_555
O32 Ta4 1.945647 1_555
O33 P9 1.566077 1_555
O33 Ta5 2.027816 1_555
O34 Si4 1.673501 1_555
O34 Ta5 1.904810 1_555
O35 P8 1.571676 1_555
O35 Ta5 1.945647 1_555
O36 Si5 1.618678 1_555
O37 P10 1.516942 1_555
O38 P11 1.528121 1_555
O39 P9 1.516942 1_555
O40 Si4 1.618678 1_555
O41 P8 1.528121 1_555
O42 P4 1.582877 1_555
O42 Ta0 2.042588 1_645
O43 Si2 1.648081 1_555
O43 Ta0 1.943090 1_545
O44 P5 1.585314 1_555
O44 Ta0 2.043382 1_655
O45 Si3 1.648081 1_555
O45 Ta1 1.943090 1_655
O46 P6 1.582877 1_555
O46 Ta1 2.042588 1_645
O47 P7 1.585314 1_555
O47 Ta1 2.043382 1_545
O48 Si1 1.621069 1_555
O49 P2 1.530965 1_555
O50 P3 1.514383 1_555
O51 P1 1.530965 1_555
O52 Si0 1.621069 1_555
O53 P0 1.514383 1_555
O54 P8 1.584097 1_555
O54 Ta2 2.022393 1_555
O55 P9 1.589718 1_655
O55 Ta2 2.057831 1_555
O56 Si4 1.644906 1_545
O56 Ta2 1.940822 1_555
O57 P10 1.589718 1_545
O57 Ta3 2.057831 1_555
O58 P11 1.584097 1_555
O58 Ta3 2.022393 1_555
O59 Si5 1.644907 1_655
O59 Ta3 1.940822 1_555
O60 P7 1.531124 1_555
O61 Si3 1.624523 1_455
O62 P6 1.517009 1_565
O63 Si2 1.624523 1_565
O64 P5 1.531124 1_555
O65 P4 1.517009 1_455
O66 P0 1.583516 1_565
O66 Ta4 2.051579 1_555
O67 P1 1.551507 1_555
O67 Ta4 2.034869 1_555
O68 Si0 1.697558 1_455
O68 Ta4 1.934057 1_555
O69 P2 1.551507 1_555
O69 Ta5 2.034869 1_555
O70 P3 1.583516 1_455
O70 Ta5 2.051579 1_555
O71 Si1 1.697558 1_565
O71 Ta5 1.934057 1_555
