# generated using pymatgen
data_Ba2YMgNi3O8
_symmetry_space_group_name_H-M   'P 1'
_cell_length_a   3.98607100
_cell_length_b   3.98622200
_cell_length_c   13.13993500
_cell_angle_alpha   90.00000872
_cell_angle_beta   90.00002309
_cell_angle_gamma   90.00001437
_symmetry_Int_Tables_number   1
_chemical_formula_structural   Ba2YMgNi3O8
_chemical_formula_sum   'Ba2 Y1 Mg1 Ni3 O8'
_cell_volume   208.78520902
_cell_formula_units_Z   1
loop_
 _symmetry_equiv_pos_site_id
 _symmetry_equiv_pos_as_xyz
  1  'x, y, z'
loop_
 _atom_site_type_symbol
 _atom_site_label
 _atom_site_symmetry_multiplicity
 _atom_site_fract_x
 _atom_site_fract_y
 _atom_site_fract_z
 _atom_site_occupancy
  Ba  Ba0  1  0.50000000  0.50000000  0.14422300  1
  Ba  Ba1  1  0.50000000  0.50000000  0.85570900  1
  Y  Y0  1  0.50000000  0.50000000  0.50005000  1
  Mg  Mg0  1  0.00000000  0.00000000  0.49999800  1
  Ni  Ni0  1  0.00000100  0.00000100  0.31008100  1
  Ni  Ni1  1  0.99999900  0.00000000  0.99995200  1
  Ni  Ni2  1  0.00000000  0.99999800  0.68989400  1
  O  O0  1  0.00000000  0.50000000  0.40197000  1
  O  O1  1  0.50000000  0.00000000  0.40197600  1
  O  O2  1  0.49999900  0.00000000  0.99997100  1
  O  O3  1  0.00000000  0.00000000  0.17331900  1
  O  O4  1  0.00000000  0.49999900  0.59808900  1
  O  O5  1  0.50000000  0.00000000  0.59808600  1
  O  O6  1  0.99999900  0.00000000  0.82671000  1
  O  O7  1  0.00000000  0.50000000  0.99997100  1
loop_
_geom_bond_atom_site_label_1
_geom_bond_atom_site_label_2
_geom_bond_distance
_geom_bond_site_symmetry_2
Ba0 O7 2.750448 1_554
Ba0 O7 2.750449 1_654
Ba0 O2 2.750503 1_554
Ba0 O2 2.750503 1_564
Ba0 O3 2.844441 1_665
Ba0 O3 2.844442 1_555
Ba0 O3 2.844442 1_655
Ba0 O3 2.844442 1_565
Ba1 O7 2.750538 1_655
Ba1 O7 2.750539 1_555
Ba1 O2 2.750593 1_565
Ba1 O2 2.750594 1_555
Ba1 O6 2.844268 1_565
Ba1 O6 2.844269 1_555
Ba1 O6 2.844273 1_455
Ba1 O6 2.844274 1_465
Mg0 O1 2.373002 1_455
Mg0 O1 2.373003 1_555
Mg0 O0 2.373109 1_545
Mg0 O0 2.373109 1_555
Mg0 O5 2.373473 1_555
Mg0 O5 2.373474 1_455
Mg0 O4 2.373555 1_555
Mg0 O4 2.373562 1_545
Ni0 O3 1.797044 1_555
Ni0 O1 2.330282 1_555
Ni0 O1 2.330290 1_455
Ni0 O0 2.330306 1_555
Ni0 O0 2.330313 1_545
Ni1 O2 1.993036 1_655
Ni1 O2 1.993036 1_555
Ni1 O7 1.993111 1_655
Ni1 O7 1.993111 1_645
Ni1 O6 2.276389 1_555
Ni1 O3 2.278031 1_656
Ni2 O6 1.797753 1_465
Ni2 O5 2.329693 1_465
Ni2 O5 2.329694 1_565
Ni2 O4 2.329734 1_555
Ni2 O4 2.329742 1_565
O0 Y0 2.373416 1_555
O0 Y0 2.373417 1_455
O1 Y0 2.373437 1_555
O1 Y0 2.373437 1_545
O4 Y0 2.373123 1_455
O4 Y0 2.373124 1_555
O5 Y0 2.373166 1_545
O5 Y0 2.373166 1_555
