# generated using pymatgen
data_Ag3Sb
_symmetry_space_group_name_H-M   'P 1'
_cell_length_a   6.51873000
_cell_length_b   9.62747200
_cell_length_c   10.33541000
_cell_angle_alpha   90.00000000
_cell_angle_beta   90.00000000
_cell_angle_gamma   90.00000000
_symmetry_Int_Tables_number   1
_chemical_formula_structural   Ag3Sb
_chemical_formula_sum   'Ag24 Sb8'
_cell_volume   648.63886499
_cell_formula_units_Z   8
loop_
 _symmetry_equiv_pos_site_id
 _symmetry_equiv_pos_as_xyz
  1  'x, y, z'
loop_
 _atom_site_type_symbol
 _atom_site_label
 _atom_site_symmetry_multiplicity
 _atom_site_fract_x
 _atom_site_fract_y
 _atom_site_fract_z
 _atom_site_occupancy
  Ag  Ag0_0  1  0.25000000  0.25000000  0.41544350  1
  Ag  Ag0_1  1  0.25000000  0.25000000  0.91544350  1
  Ag  Ag0_2  1  0.25000000  0.75000000  0.41544350  1
  Ag  Ag0_3  1  0.25000000  0.75000000  0.91544350  1
  Ag  Ag0_4  1  0.75000000  0.25000000  0.41544350  1
  Ag  Ag0_5  1  0.75000000  0.25000000  0.91544350  1
  Ag  Ag0_6  1  0.75000000  0.75000000  0.41544350  1
  Ag  Ag0_7  1  0.75000000  0.75000000  0.91544350  1
  Ag  Ag1_0  1  0.00000000  0.25000000  0.17454750  1
  Ag  Ag1_1  1  0.00000000  0.25000000  0.67454750  1
  Ag  Ag1_2  1  0.00000000  0.75000000  0.17454750  1
  Ag  Ag1_3  1  0.00000000  0.75000000  0.67454750  1
  Ag  Ag1_4  1  0.50000000  0.25000000  0.17454750  1
  Ag  Ag1_5  1  0.50000000  0.25000000  0.67454750  1
  Ag  Ag1_6  1  0.50000000  0.75000000  0.17454750  1
  Ag  Ag1_7  1  0.50000000  0.75000000  0.67454750  1
  Ag  Ag2_0  1  0.25000000  0.00000000  0.24864800  1
  Ag  Ag2_1  1  0.25000000  0.00000000  0.74864800  1
  Ag  Ag2_2  1  0.25000000  0.50000000  0.24864800  1
  Ag  Ag2_3  1  0.25000000  0.50000000  0.74864800  1
  Ag  Ag2_4  1  0.75000000  0.00000000  0.24864800  1
  Ag  Ag2_5  1  0.75000000  0.00000000  0.74864800  1
  Ag  Ag2_6  1  0.75000000  0.50000000  0.24864800  1
  Ag  Ag2_7  1  0.75000000  0.50000000  0.74864800  1
  Sb  Sb0_0  1  0.00000000  0.00000000  0.00136100  1
  Sb  Sb0_1  1  0.00000000  0.00000000  0.50136100  1
  Sb  Sb0_2  1  0.00000000  0.50000000  0.00136100  1
  Sb  Sb0_3  1  0.00000000  0.50000000  0.50136100  1
  Sb  Sb0_4  1  0.50000000  0.00000000  0.00136100  1
  Sb  Sb0_5  1  0.50000000  0.00000000  0.50136100  1
  Sb  Sb0_6  1  0.50000000  0.50000000  0.00136100  1
  Sb  Sb0_7  1  0.50000000  0.50000000  0.50136100  1
loop_
_geom_bond_atom_site_label_1
_geom_bond_atom_site_label_2
_geom_bond_distance
_geom_bond_site_symmetry_2
Ag0_0 Ag2_0 2.960548 1_555
Ag0_0 Ag2_2 2.960548 1_555
Ag0_0 Ag1_0 2.975696 1_555
Ag0_0 Ag1_4 2.975696 1_555
Ag0_0 Sb0_5 3.039311 1_555
Ag0_0 Sb0_3 3.039311 1_555
Ag0_0 Sb0_1 3.039311 1_555
Ag0_0 Sb0_7 3.039311 1_555
Ag0_0 Ag1_5 3.134846 1_555
Ag0_0 Ag1_1 3.134846 1_555
Ag0_0 Ag0_4 3.259365 1_455
Ag0_0 Ag0_4 3.259365 1_555
Ag0_1 Ag2_1 2.960548 1_555
Ag0_1 Ag2_3 2.960548 1_555
Ag0_1 Ag1_5 2.975696 1_555
Ag0_1 Ag1_1 2.975696 1_555
Ag0_1 Sb0_0 3.039311 1_556
Ag0_1 Sb0_4 3.039311 1_556
Ag0_1 Sb0_2 3.039311 1_556
Ag0_1 Sb0_6 3.039311 1_556
Ag0_1 Ag1_0 3.134846 1_556
Ag0_1 Ag1_4 3.134846 1_556
Ag0_1 Ag0_5 3.259365 1_455
Ag0_1 Ag0_5 3.259365 1_555
Ag0_2 Ag2_0 2.960548 1_565
Ag0_2 Ag2_2 2.960548 1_555
Ag0_2 Ag1_2 2.975696 1_555
Ag0_2 Ag1_6 2.975696 1_555
Ag0_2 Sb0_5 3.039311 1_565
Ag0_2 Sb0_3 3.039311 1_555
Ag0_2 Sb0_7 3.039311 1_555
Ag0_2 Sb0_1 3.039311 1_565
Ag0_2 Ag1_3 3.134846 1_555
Ag0_2 Ag1_7 3.134846 1_555
Ag0_2 Ag0_6 3.259365 1_455
Ag0_2 Ag0_6 3.259365 1_555
Ag0_3 Ag2_3 2.960548 1_555
Ag0_3 Ag2_1 2.960548 1_565
Ag0_3 Ag1_3 2.975696 1_555
Ag0_3 Ag1_7 2.975696 1_555
Ag0_3 Sb0_0 3.039311 1_566
Ag0_3 Sb0_2 3.039311 1_556
Ag0_3 Sb0_6 3.039311 1_556
Ag0_3 Sb0_4 3.039311 1_566
Ag0_3 Ag1_2 3.134846 1_556
Ag0_3 Ag1_6 3.134846 1_556
Ag0_3 Ag0_7 3.259365 1_455
Ag0_3 Ag0_7 3.259365 1_555
Ag0_4 Ag2_6 2.960548 1_555
Ag0_4 Ag2_4 2.960548 1_555
Ag0_4 Ag1_0 2.975696 1_655
Ag0_4 Ag1_4 2.975696 1_555
Ag0_4 Sb0_3 3.039311 1_655
Ag0_4 Sb0_1 3.039311 1_655
Ag0_4 Sb0_7 3.039311 1_555
Ag0_4 Sb0_5 3.039311 1_555
Ag0_4 Ag1_1 3.134846 1_655
Ag0_4 Ag1_5 3.134846 1_555
Ag0_5 Ag2_5 2.960548 1_555
Ag0_5 Ag2_7 2.960548 1_555
Ag0_5 Ag1_1 2.975696 1_655
Ag0_5 Ag1_5 2.975696 1_555
Ag0_5 Sb0_2 3.039311 1_656
Ag0_5 Sb0_0 3.039311 1_656
Ag0_5 Sb0_6 3.039311 1_556
Ag0_5 Sb0_4 3.039311 1_556
Ag0_5 Ag1_0 3.134846 1_656
Ag0_5 Ag1_4 3.134846 1_556
Ag0_6 Ag2_4 2.960548 1_565
Ag0_6 Ag2_6 2.960548 1_555
Ag0_6 Ag1_2 2.975696 1_655
Ag0_6 Ag1_6 2.975696 1_555
Ag0_6 Sb0_3 3.039311 1_655
Ag0_6 Sb0_1 3.039311 1_665
Ag0_6 Sb0_7 3.039311 1_555
Ag0_6 Sb0_5 3.039311 1_565
Ag0_6 Ag1_3 3.134846 1_655
Ag0_6 Ag1_7 3.134846 1_555
Ag0_7 Ag2_5 2.960548 1_565
Ag0_7 Ag2_7 2.960548 1_555
Ag0_7 Ag1_3 2.975696 1_655
Ag0_7 Ag1_7 2.975696 1_555
Ag0_7 Sb0_2 3.039311 1_656
Ag0_7 Sb0_0 3.039311 1_666
Ag0_7 Sb0_6 3.039311 1_556
Ag0_7 Sb0_4 3.039311 1_566
Ag0_7 Ag1_2 3.134846 1_656
Ag0_7 Ag1_6 3.134846 1_556
Ag1_0 Sb0_0 2.999491 1_555
Ag1_0 Sb0_2 2.999491 1_555
Ag1_0 Ag2_0 3.005897 1_555
Ag1_0 Ag2_2 3.005897 1_555
Ag1_0 Ag2_4 3.005897 1_455
Ag1_0 Ag2_6 3.005897 1_455
Ag1_0 Ag1_4 3.259365 1_455
Ag1_0 Ag1_4 3.259365 1_555
Ag1_1 Sb0_1 2.999491 1_555
Ag1_1 Sb0_3 2.999491 1_555
Ag1_1 Ag2_5 3.005897 1_455
Ag1_1 Ag2_7 3.005897 1_455
Ag1_1 Ag2_3 3.005897 1_555
Ag1_1 Ag2_1 3.005897 1_555
Ag1_1 Ag1_5 3.259365 1_455
Ag1_1 Ag1_5 3.259365 1_555
Ag1_2 Sb0_0 2.999491 1_565
Ag1_2 Sb0_2 2.999491 1_555
Ag1_2 Ag2_0 3.005897 1_565
Ag1_2 Ag2_2 3.005897 1_555
Ag1_2 Ag2_6 3.005897 1_455
Ag1_2 Ag2_4 3.005897 1_465
Ag1_2 Ag1_6 3.259365 1_455
Ag1_2 Ag1_6 3.259365 1_555
Ag1_3 Sb0_1 2.999491 1_565
Ag1_3 Sb0_3 2.999491 1_555
Ag1_3 Ag2_5 3.005897 1_465
Ag1_3 Ag2_7 3.005897 1_455
Ag1_3 Ag2_3 3.005897 1_555
Ag1_3 Ag2_1 3.005897 1_565
Ag1_3 Ag1_7 3.259365 1_555
Ag1_3 Ag1_7 3.259365 1_455
Ag1_4 Sb0_6 2.999491 1_555
Ag1_4 Sb0_4 2.999491 1_555
Ag1_4 Ag2_0 3.005897 1_555
Ag1_4 Ag2_2 3.005897 1_555
Ag1_4 Ag2_4 3.005897 1_555
Ag1_4 Ag2_6 3.005897 1_555
Ag1_5 Sb0_7 2.999491 1_555
Ag1_5 Sb0_5 2.999491 1_555
Ag1_5 Ag2_3 3.005897 1_555
Ag1_5 Ag2_1 3.005897 1_555
Ag1_5 Ag2_5 3.005897 1_555
Ag1_5 Ag2_7 3.005897 1_555
Ag1_6 Sb0_6 2.999491 1_555
Ag1_6 Sb0_4 2.999491 1_565
Ag1_6 Ag2_0 3.005897 1_565
Ag1_6 Ag2_2 3.005897 1_555
Ag1_6 Ag2_4 3.005897 1_565
Ag1_6 Ag2_6 3.005897 1_555
Ag1_7 Sb0_7 2.999491 1_555
Ag1_7 Sb0_5 2.999491 1_565
Ag1_7 Ag2_3 3.005897 1_555
Ag1_7 Ag2_1 3.005897 1_565
Ag1_7 Ag2_5 3.005897 1_565
Ag1_7 Ag2_7 3.005897 1_555
Ag2_0 Sb0_0 3.031178 1_555
Ag2_0 Sb0_4 3.031178 1_555
Ag2_0 Sb0_5 3.078611 1_555
Ag2_0 Sb0_1 3.078611 1_555
Ag2_0 Ag2_4 3.259365 1_455
Ag2_0 Ag2_4 3.259365 1_555
Ag2_1 Sb0_5 3.031178 1_555
Ag2_1 Sb0_1 3.031178 1_555
Ag2_1 Sb0_0 3.078611 1_556
Ag2_1 Sb0_4 3.078611 1_556
Ag2_1 Ag2_5 3.259365 1_455
Ag2_1 Ag2_5 3.259365 1_555
Ag2_2 Sb0_2 3.031178 1_555
Ag2_2 Sb0_6 3.031178 1_555
Ag2_2 Sb0_3 3.078611 1_555
Ag2_2 Sb0_7 3.078611 1_555
Ag2_2 Ag2_6 3.259365 1_455
Ag2_2 Ag2_6 3.259365 1_555
Ag2_3 Sb0_3 3.031178 1_555
Ag2_3 Sb0_7 3.031178 1_555
Ag2_3 Sb0_2 3.078611 1_556
Ag2_3 Sb0_6 3.078611 1_556
Ag2_3 Ag2_7 3.259365 1_455
Ag2_3 Ag2_7 3.259365 1_555
Ag2_4 Sb0_0 3.031178 1_655
Ag2_4 Sb0_4 3.031178 1_555
Ag2_4 Sb0_1 3.078611 1_655
Ag2_4 Sb0_5 3.078611 1_555
Ag2_5 Sb0_1 3.031178 1_655
Ag2_5 Sb0_5 3.031178 1_555
Ag2_5 Sb0_0 3.078611 1_656
Ag2_5 Sb0_4 3.078611 1_556
Ag2_6 Sb0_2 3.031178 1_655
Ag2_6 Sb0_6 3.031178 1_555
Ag2_6 Sb0_3 3.078611 1_655
Ag2_6 Sb0_7 3.078611 1_555
Ag2_7 Sb0_3 3.031178 1_655
Ag2_7 Sb0_7 3.031178 1_555
Ag2_7 Sb0_2 3.078611 1_656
Ag2_7 Sb0_6 3.078611 1_556
Sb0_0 Sb0_4 3.259365 1_455
Sb0_0 Sb0_4 3.259365 1_555
Sb0_1 Sb0_5 3.259365 1_455
Sb0_1 Sb0_5 3.259365 1_555
Sb0_2 Sb0_6 3.259365 1_555
Sb0_2 Sb0_6 3.259365 1_455
Sb0_3 Sb0_7 3.259365 1_455
Sb0_3 Sb0_7 3.259365 1_555
