# generated using pymatgen
data_WN2
_symmetry_space_group_name_H-M   'P 1'
_cell_length_a   6.07032239
_cell_length_b   6.07081975
_cell_length_c   8.58453953
_cell_angle_alpha   90.00000000
_cell_angle_beta   90.00000000
_cell_angle_gamma   90.00000000
_symmetry_Int_Tables_number   1
_chemical_formula_structural   WN2
_chemical_formula_sum   'W4 N8'
_cell_volume   316.35601761
_cell_formula_units_Z   4
loop_
 _symmetry_equiv_pos_site_id
 _symmetry_equiv_pos_as_xyz
  1  'x, y, z'
loop_
 _atom_site_type_symbol
 _atom_site_label
 _atom_site_symmetry_multiplicity
 _atom_site_fract_x
 _atom_site_fract_y
 _atom_site_fract_z
 _atom_site_occupancy
  W  W0  1  0.00217943  0.37500015  0.12500031  1
  W  W1  1  0.49782057  0.87500015  0.62500031  1
  W  W2  1  0.50217943  0.37500015  0.37499969  1
  W  W3  1  0.99782057  0.87500015  0.87499969  1
  N  N0  1  0.99988269  0.12431194  0.00068975  1
  N  N1  1  0.24579110  0.87568791  0.74802563  1
  N  N2  1  0.25420890  0.37568791  0.24802563  1
  N  N3  1  0.50011731  0.62431194  0.50068975  1
  N  N4  1  0.74579110  0.87568791  0.75197437  1
  N  N5  1  0.49988269  0.12431194  0.49931025  1
  N  N6  1  0.00011731  0.62431194  0.99931025  1
  N  N7  1  0.75420890  0.37568791  0.25197437  1
loop_
_geom_bond_atom_site_label_1
_geom_bond_atom_site_label_2
_geom_bond_distance
_geom_bond_site_symmetry_2
N0 W0 1.858798 1_655
N0 W3 1.858801 1_544
N1 W3 1.858483 1_455
N1 W1 1.859030 1_555
N2 W2 1.858483 1_555
N2 W0 1.859030 1_555
N3 W1 1.858798 1_555
N3 W2 1.858801 1_555
N4 W1 1.858483 1_555
N4 W3 1.859030 1_555
N5 W2 1.858798 1_555
N5 W1 1.858801 1_545
N6 W3 1.858798 1_455
N6 W0 1.858801 1_556
N7 W0 1.858483 1_655
N7 W2 1.859030 1_555
