# generated using pymatgen
data_Na9Nb5Zn(SiO4)9
_symmetry_space_group_name_H-M   'P 1'
_cell_length_a   9.10505830
_cell_length_b   27.28675298
_cell_length_c   22.53530132
_cell_angle_alpha   90.03783000
_cell_angle_beta   89.99386070
_cell_angle_gamma   120.06003918
_symmetry_Int_Tables_number   1
_chemical_formula_structural   Na9Nb5Zn(SiO4)9
_chemical_formula_sum   'Na54 Nb30 Zn6 Si54 O216'
_cell_volume   4845.79925077
_cell_formula_units_Z   6
loop_
 _symmetry_equiv_pos_site_id
 _symmetry_equiv_pos_as_xyz
  1  'x, y, z'
loop_
 _atom_site_type_symbol
 _atom_site_label
 _atom_site_symmetry_multiplicity
 _atom_site_fract_x
 _atom_site_fract_y
 _atom_site_fract_z
 _atom_site_occupancy
  Na  Na0  1  0.00103382  0.00066900  0.49491667  1
  Na  Na1  1  0.99275708  0.33079209  0.49810190  1
  Na  Na2  1  0.00380717  0.66793538  0.50548891  1
  Na  Na3  1  0.99066826  0.99756390  0.99786423  1
  Na  Na4  1  0.99916234  0.33052523  0.99854377  1
  Na  Na5  1  0.00813682  0.66809260  0.00843385  1
  Na  Na6  1  0.66627485  0.11053957  0.82949149  1
  Na  Na7  1  0.66779083  0.44234112  0.83833231  1
  Na  Na8  1  0.66615214  0.78411955  0.83490423  1
  Na  Na9  1  0.66490121  0.11023917  0.32831863  1
  Na  Na10  1  0.66071353  0.44309180  0.33876868  1
  Na  Na11  1  0.67733876  0.78085167  0.33536103  1
  Na  Na12  1  0.33954730  0.22429135  0.16836220  1
  Na  Na13  1  0.33735232  0.55379768  0.16876368  1
  Na  Na14  1  0.33397041  0.88906602  0.16678427  1
  Na  Na15  1  0.33381055  0.22461800  0.66843777  1
  Na  Na16  1  0.32474729  0.55366822  0.66678618  1
  Na  Na17  1  0.34105676  0.88853044  0.66849670  1
  Na  Na18  1  0.62882652  0.00598985  0.24445151  1
  Na  Na19  1  0.64159340  0.66551056  0.24796979  1
  Na  Na20  1  0.38519075  0.12197631  0.24403621  1
  Na  Na21  1  0.35677807  0.78666050  0.24727113  1
  Na  Na22  1  0.98030929  0.20307999  0.24388360  1
  Na  Na23  1  0.00331882  0.54796529  0.24707993  1
  Na  Na24  1  0.62977887  0.20353587  0.74397787  1
  Na  Na25  1  0.63933099  0.54740771  0.74593078  1
  Na  Na26  1  0.98064399  0.12252227  0.74514150  1
  Na  Na27  1  0.00380782  0.78738612  0.74735262  1
  Na  Na28  1  0.38943388  0.00614177  0.74503190  1
  Na  Na29  1  0.35502989  0.66518469  0.74687215  1
  Na  Na30  1  0.31174783  0.11176920  0.58516018  1
  Na  Na31  1  0.31256775  0.44405858  0.57968944  1
  Na  Na32  1  0.27565714  0.77099566  0.58916703  1
  Na  Na33  1  0.02444448  0.22909002  0.58629249  1
  Na  Na34  1  0.02652013  0.57240798  0.58676653  1
  Na  Na35  1  0.03140234  0.89986176  0.58190423  1
  Na  Na36  1  0.66996676  0.32597575  0.57929149  1
  Na  Na37  1  0.68617704  0.65459633  0.59000102  1
  Na  Na38  1  0.66275239  0.99207775  0.58553528  1
  Na  Na39  1  0.30735671  0.32557983  0.07966008  1
  Na  Na40  1  0.27936235  0.65536666  0.09186475  1
  Na  Na41  1  0.31023072  0.99155554  0.08593221  1
  Na  Na42  1  0.66243768  0.22858809  0.08645376  1
  Na  Na43  1  0.69101645  0.57270445  0.08841692  1
  Na  Na44  1  0.02472873  0.11147957  0.08649784  1
  Na  Na45  1  0.01808086  0.44358036  0.08059336  1
  Na  Na46  1  0.03945230  0.77202991  0.08956545  1
  Na  Na47  1  0.94234795  0.54914463  0.92438677  1
  Na  Na48  1  0.70145220  0.35097945  0.92294294  1
  Na  Na49  1  0.70264935  0.67885144  0.91786524  1
  Na  Na50  1  0.35152072  0.43221143  0.92263778  1
  Na  Na51  1  0.94680052  0.43307620  0.42250889  1
  Na  Na52  1  0.35194061  0.35132195  0.42267124  1
  Na  Na53  1  0.70705838  0.55003370  0.42304111  1
  Nb  Nb0  1  0.99905362  0.99922848  0.35602061  1
  Nb  Nb1  1  0.99753658  0.33253258  0.35441494  1
  Nb  Nb2  1  0.00449908  0.66842741  0.35453619  1
  Nb  Nb3  1  0.00011330  0.99948661  0.85699925  1
  Nb  Nb4  1  0.99938069  0.33223681  0.85462930  1
  Nb  Nb5  1  0.00551175  0.66853321  0.85354023  1
  Nb  Nb6  1  0.99846914  0.00055716  0.64733390  1
  Nb  Nb7  1  0.00147261  0.33322036  0.64800448  1
  Nb  Nb8  1  0.99644313  0.99878100  0.14612508  1
  Nb  Nb9  1  0.99792156  0.33313304  0.14810852  1
  Nb  Nb10  1  0.66671041  0.44370228  0.68718346  1
  Nb  Nb11  1  0.66615824  0.77891995  0.68782751  1
  Nb  Nb12  1  0.66449201  0.44390826  0.18759872  1
  Nb  Nb13  1  0.67029566  0.77926281  0.18784609  1
  Nb  Nb14  1  0.66645433  0.11019192  0.97790533  1
  Nb  Nb15  1  0.66840859  0.78106539  0.97823204  1
  Nb  Nb16  1  0.66473923  0.11062684  0.47732081  1
  Nb  Nb17  1  0.66725882  0.77804988  0.47599167  1
  Nb  Nb18  1  0.32988161  0.22157648  0.01842402  1
  Nb  Nb19  1  0.33207325  0.55581943  0.02141884  1
  Nb  Nb20  1  0.34051262  0.88901668  0.02011072  1
  Nb  Nb21  1  0.33554729  0.22183764  0.51819146  1
  Nb  Nb22  1  0.33443972  0.55618792  0.52023150  1
  Nb  Nb23  1  0.33035920  0.88857595  0.51804521  1
  Nb  Nb24  1  0.33478517  0.22215905  0.31229218  1
  Nb  Nb25  1  0.33567513  0.55483481  0.31323409  1
  Nb  Nb26  1  0.32752970  0.88956863  0.31317762  1
  Nb  Nb27  1  0.33188880  0.22240355  0.81261646  1
  Nb  Nb28  1  0.32764013  0.55384820  0.81263126  1
  Nb  Nb29  1  0.34117040  0.88999641  0.81380274  1
  Zn  Zn0  1  0.99826139  0.66575136  0.65005857  1
  Zn  Zn1  1  0.00045493  0.66619235  0.15088461  1
  Zn  Zn2  1  0.66717033  0.11091520  0.68369758  1
  Zn  Zn3  1  0.66510973  0.11057926  0.18349328  1
  Zn  Zn4  1  0.66396077  0.44297839  0.98351452  1
  Zn  Zn5  1  0.66686996  0.44369219  0.48286485  1
  Si  Si0  1  0.28805766  0.99928992  0.25061566  1
  Si  Si1  1  0.29176646  0.33384945  0.25093628  1
  Si  Si2  1  0.29077196  0.66637223  0.24800117  1
  Si  Si3  1  0.70562250  0.23577618  0.25066888  1
  Si  Si4  1  0.71105421  0.57030235  0.24807490  1
  Si  Si5  1  0.71041103  0.90365795  0.25144690  1
  Si  Si6  1  0.99957648  0.09621131  0.25083276  1
  Si  Si7  1  0.99917647  0.43028283  0.25099461  1
  Si  Si8  1  0.00139105  0.76352028  0.24732211  1
  Si  Si9  1  0.29114855  0.09673963  0.75175972  1
  Si  Si10  1  0.29140387  0.42982791  0.75116339  1
  Si  Si11  1  0.29013927  0.76440260  0.74654545  1
  Si  Si12  1  0.00178300  0.23582018  0.75059310  1
  Si  Si13  1  0.99923106  0.56998837  0.74777397  1
  Si  Si14  1  0.00068424  0.90385629  0.75080460  1
  Si  Si15  1  0.70893912  0.99944421  0.75183418  1
  Si  Si16  1  0.70988774  0.33395123  0.75098371  1
  Si  Si17  1  0.70853503  0.66628222  0.74828560  1
  Si  Si18  1  0.95581543  0.11166951  0.58504345  1
  Si  Si19  1  0.95564752  0.44432381  0.58108325  1
  Si  Si20  1  0.95646978  0.77772680  0.58224137  1
  Si  Si21  1  0.37867968  0.01480858  0.58555145  1
  Si  Si22  1  0.37524879  0.34730532  0.58082504  1
  Si  Si23  1  0.37788112  0.68159870  0.58232704  1
  Si  Si24  1  0.66604219  0.20713846  0.58540018  1
  Si  Si25  1  0.67058934  0.54173076  0.58045649  1
  Si  Si26  1  0.66352427  0.87386610  0.58217696  1
  Si  Si27  1  0.95534928  0.20715109  0.08527617  1
  Si  Si28  1  0.95316423  0.54151177  0.08037899  1
  Si  Si29  1  0.95873951  0.87487718  0.08296937  1
  Si  Si30  1  0.66595732  0.01451448  0.08567637  1
  Si  Si31  1  0.66664888  0.34731420  0.08097201  1
  Si  Si32  1  0.66725885  0.68189744  0.08172750  1
  Si  Si33  1  0.37831800  0.11141170  0.08509895  1
  Si  Si34  1  0.37758580  0.44411939  0.08093271  1
  Si  Si35  1  0.37836783  0.77906415  0.08337150  1
  Si  Si36  1  0.62234486  0.22091005  0.91595041  1
  Si  Si37  1  0.62527066  0.55561928  0.91581274  1
  Si  Si38  1  0.62681957  0.88939326  0.91653347  1
  Si  Si39  1  0.04000640  0.12456055  0.91551480  1
  Si  Si40  1  0.04021786  0.45743221  0.91745805  1
  Si  Si41  1  0.04531950  0.79346008  0.91613613  1
  Si  Si42  1  0.33131765  0.31937596  0.91618218  1
  Si  Si43  1  0.33223348  0.65277688  0.91639433  1
  Si  Si44  1  0.33291561  0.98545457  0.91758252  1
  Si  Si45  1  0.62692609  0.31943343  0.41581201  1
  Si  Si46  1  0.62552648  0.65286734  0.41606654  1
  Si  Si47  1  0.62513034  0.98594226  0.41640581  1
  Si  Si48  1  0.33289234  0.12449240  0.41545244  1
  Si  Si49  1  0.33260854  0.45766844  0.41730156  1
  Si  Si50  1  0.33397470  0.79251551  0.41527716  1
  Si  Si51  1  0.04117730  0.22125687  0.41587221  1
  Si  Si52  1  0.04357654  0.55684213  0.41566954  1
  Si  Si53  1  0.03971744  0.88919680  0.41678169  1
  O  O0  1  0.18151065  0.00461220  0.30667573  1
  O  O1  1  0.19803496  0.34204424  0.30950545  1
  O  O2  1  0.19414536  0.67709964  0.30484566  1
  O  O3  1  0.83488533  0.27294717  0.30593028  1
  O  O4  1  0.83431276  0.60077444  0.30672863  1
  O  O5  1  0.82726413  0.93419783  0.30910434  1
  O  O6  1  0.98056464  0.05446865  0.30642978  1
  O  O7  1  0.97952208  0.39192813  0.30966289  1
  O  O8  1  0.96732820  0.72054456  0.30450269  1
  O  O9  1  0.18349891  0.05466333  0.80647099  1
  O  O10  1  0.19643285  0.39198726  0.80988431  1
  O  O11  1  0.19337825  0.72127701  0.80441470  1
  O  O12  1  0.98389128  0.27289889  0.80581058  1
  O  O13  1  0.96930420  0.60145589  0.80692497  1
  O  O14  1  0.97619859  0.93493932  0.80761824  1
  O  O15  1  0.83277326  0.00476235  0.80679279  1
  O  O16  1  0.82820193  0.34212556  0.80947567  1
  O  O17  1  0.83111222  0.67688254  0.80754919  1
  O  O18  1  0.80254196  0.32382432  0.69249801  1
  O  O19  1  0.77789123  0.65158198  0.69059301  1
  O  O20  1  0.80202328  0.99111727  0.69081417  1
  O  O21  1  0.16844664  0.06562355  0.69134881  1
  O  O22  1  0.17278067  0.39850976  0.69256829  1
  O  O23  1  0.17778599  0.74143102  0.68811456  1
  O  O24  1  0.02296397  0.27504163  0.69125360  1
  O  O25  1  0.05199152  0.60875874  0.69005422  1
  O  O26  1  0.02751075  0.94297071  0.69066424  1
  O  O27  1  0.80218542  0.27503976  0.19130813  1
  O  O28  1  0.77486877  0.60838193  0.18920942  1
  O  O29  1  0.80622290  0.94505371  0.19353922  1
  O  O30  1  0.03108789  0.06626454  0.19091456  1
  O  O31  1  0.02269945  0.39852410  0.19244335  1
  O  O32  1  0.04699121  0.74151100  0.18799582  1
  O  O33  1  0.16904730  0.32388088  0.19242654  1
  O  O34  1  0.17873911  0.65138056  0.18922254  1
  O  O35  1  0.17093216  0.99108969  0.19031099  1
  O  O36  1  0.89445857  0.12791253  0.64468374  1
  O  O37  1  0.85895295  0.45421436  0.63848562  1
  O  O38  1  0.86627206  0.78892674  0.64206610  1
  O  O39  1  0.48903136  0.03595091  0.64503831  1
  O  O40  1  0.50254993  0.37937526  0.63796352  1
  O  O41  1  0.50030262  0.71170833  0.64249960  1
  O  O42  1  0.61835325  0.17027390  0.64481704  1
  O  O43  1  0.63441958  0.49955275  0.64032374  1
  O  O44  1  0.63489545  0.83273731  0.64050857  1
  O  O45  1  0.89255165  0.17052751  0.14493631  1
  O  O46  1  0.86472489  0.49947721  0.13990808  1
  O  O47  1  0.86072937  0.83291558  0.13994796  1
  O  O48  1  0.61944449  0.03608315  0.14516392  1
  O  O49  1  0.63547492  0.37951059  0.13777363  1
  O  O50  1  0.63542906  0.71203084  0.14088776  1
  O  O51  1  0.49125134  0.12870943  0.14431818  1
  O  O52  1  0.50394026  0.45442791  0.13814786  1
  O  O53  1  0.49595236  0.78674976  0.14293362  1
  O  O54  1  0.47358479  0.10068254  0.02851390  1
  O  O55  1  0.43746298  0.42665556  0.02189567  1
  O  O56  1  0.48677728  0.77381486  0.02689674  1
  O  O57  1  0.82886929  0.17637055  0.02849196  1
  O  O58  1  0.84380297  0.51376934  0.02152187  1
  O  O59  1  0.84064448  0.84323880  0.02461737  1
  O  O60  1  0.69984023  0.05743469  0.02876660  1
  O  O61  1  0.71383581  0.38376585  0.02136161  1
  O  O62  1  0.68396862  0.72133869  0.02368972  1
  O  O63  1  0.47107201  0.05742120  0.52884644  1
  O  O64  1  0.43839812  0.38375548  0.52138175  1
  O  O65  1  0.48516916  0.72382277  0.52729452  1
  O  O66  1  0.70030912  0.17617381  0.52871141  1
  O  O67  1  0.69744048  0.51365901  0.52196026  1
  O  O68  1  0.69878085  0.84456722  0.52581855  1
  O  O69  1  0.82762027  0.09992200  0.52865648  1
  O  O70  1  0.84172134  0.42628314  0.52241751  1
  O  O71  1  0.83514477  0.77349276  0.52659655  1
  O  O72  1  0.53138658  0.23214070  0.97416726  1
  O  O73  1  0.52982501  0.56614024  0.97398872  1
  O  O74  1  0.52540664  0.89565732  0.97353693  1
  O  O75  1  0.16117290  0.15741719  0.97381666  1
  O  O76  1  0.16418616  0.48892072  0.97617023  1
  O  O77  1  0.16082157  0.82331520  0.97501334  1
  O  O78  1  0.31005844  0.28077437  0.97568325  1
  O  O79  1  0.30181370  0.61126284  0.97438577  1
  O  O80  1  0.30721914  0.94552177  0.97583637  1
  O  O81  1  0.53193119  0.28066790  0.47560439  1
  O  O82  1  0.53005722  0.61130807  0.47434139  1
  O  O83  1  0.52830234  0.94611283  0.47575820  1
  O  O84  1  0.31134779  0.15733424  0.47419302  1
  O  O85  1  0.30284876  0.48871112  0.47642580  1
  O  O86  1  0.30863114  0.82383023  0.47479095  1
  O  O87  1  0.16461296  0.23185867  0.47448595  1
  O  O88  1  0.16441846  0.56417101  0.47505825  1
  O  O89  1  0.15700929  0.89588229  0.47606385  1
  O  O90  1  0.13563722  0.21357617  0.35746343  1
  O  O91  1  0.14599772  0.55100970  0.35808000  1
  O  O92  1  0.14317935  0.88196305  0.36087751  1
  O  O93  1  0.49827648  0.28273192  0.36077183  1
  O  O94  1  0.50897565  0.62168791  0.35765840  1
  O  O95  1  0.50558642  0.95442440  0.35833547  1
  O  O96  1  0.35570777  0.16406540  0.35729333  1
  O  O97  1  0.34706172  0.49947887  0.36204157  1
  O  O98  1  0.36024244  0.83213933  0.35718569  1
  O  O99  1  0.13692976  0.16404089  0.85702057  1
  O  O100  1  0.15178507  0.49964104  0.86205419  1
  O  O101  1  0.13584326  0.83183020  0.85684488  1
  O  O102  1  0.34988245  0.28281526  0.86069237  1
  O  O103  1  0.36035155  0.62201538  0.85849037  1
  O  O104  1  0.35771416  0.95408245  0.85839591  1
  O  O105  1  0.50499128  0.21364843  0.85721169  1
  O  O106  1  0.50742542  0.55092763  0.85783753  1
  O  O107  1  0.50372003  0.88153468  0.85935742  1
  O  O108  1  0.03559256  0.28056645  0.41097561  1
  O  O109  1  0.02597059  0.61373106  0.41089203  1
  O  O110  1  0.02556150  0.94587652  0.41261838  1
  O  O111  1  0.81449758  0.32452017  0.41173200  1
  O  O112  1  0.80741196  0.65474620  0.41063734  1
  O  O113  1  0.81096665  0.99165883  0.41182694  1
  O  O114  1  0.16327605  0.06256896  0.41126578  1
  O  O115  1  0.15537105  0.39607649  0.41325294  1
  O  O116  1  0.16206699  0.73058624  0.40935261  1
  O  O117  1  0.02449606  0.06255267  0.91079127  1
  O  O118  1  0.03319770  0.39611463  0.91325610  1
  O  O119  1  0.02255963  0.72955620  0.90937246  1
  O  O120  1  0.15920654  0.32458886  0.91167176  1
  O  O121  1  0.15663536  0.65519286  0.91050755  1
  O  O122  1  0.16408721  0.99141476  0.91083411  1
  O  O123  1  0.80603362  0.28050055  0.91068824  1
  O  O124  1  0.81103873  0.61477144  0.91094958  1
  O  O125  1  0.81207622  0.94541765  0.91192172  1
  O  O126  1  0.97535028  0.05389103  0.58823748  1
  O  O127  1  0.98720590  0.38989684  0.59345161  1
  O  O128  1  0.97454464  0.72297586  0.58329861  1
  O  O129  1  0.18517268  0.00748053  0.58841081  1
  O  O130  1  0.18256522  0.33802670  0.59260950  1
  O  O131  1  0.19448017  0.67509981  0.58333701  1
  O  O132  1  0.83679004  0.27192610  0.58804212  1
  O  O133  1  0.83044910  0.60446878  0.58748354  1
  O  O134  1  0.83380715  0.93682143  0.58980461  1
  O  O135  1  0.97936185  0.27203785  0.08798251  1
  O  O136  1  0.98357933  0.60460149  0.08705308  1
  O  O137  1  0.98291183  0.93815068  0.08900182  1
  O  O138  1  0.84127983  0.01017020  0.08892938  1
  O  O139  1  0.83147418  0.33802330  0.09257364  1
  O  O140  1  0.83126452  0.67511307  0.08206868  1
  O  O141  1  0.18702828  0.05421473  0.08804473  1
  O  O142  1  0.18263900  0.39007556  0.09313227  1
  O  O143  1  0.19623500  0.72299412  0.08271072  1
  O  O144  1  0.69458440  0.05538503  0.74983785  1
  O  O145  1  0.69033601  0.38964277  0.74293226  1
  O  O146  1  0.69254338  0.72452404  0.74561017  1
  O  O147  1  0.47380261  0.10247810  0.74984292  1
  O  O148  1  0.48051379  0.43766150  0.74395905  1
  O  O149  1  0.47695899  0.76744676  0.74497871  1
  O  O150  1  0.83345032  0.17540247  0.75093349  1
  O  O151  1  0.82305108  0.50800504  0.74409263  1
  O  O152  1  0.83475386  0.83975092  0.74378711  1
  O  O153  1  0.69259201  0.17532038  0.25107113  1
  O  O154  1  0.70013825  0.50795458  0.24317009  1
  O  O155  1  0.68428622  0.83983412  0.24375403  1
  O  O156  1  0.83416154  0.10236314  0.24992666  1
  O  O157  1  0.83217938  0.43749500  0.24366161  1
  O  O158  1  0.82530560  0.76741880  0.24409371  1
  O  O159  1  0.47127533  0.05537355  0.24979507  1
  O  O160  1  0.47841023  0.38961305  0.24277209  1
  O  O161  1  0.48142543  0.72418938  0.24565985  1
  O  O162  1  0.64183014  0.16555605  0.92354396  1
  O  O163  1  0.63991403  0.50004584  0.91647447  1
  O  O164  1  0.64145689  0.83213572  0.92091742  1
  O  O165  1  0.85619991  0.12023498  0.92352908  1
  O  O166  1  0.85880797  0.45238333  0.91579498  1
  O  O167  1  0.85185715  0.78318405  0.92125574  1
  O  O168  1  0.50399816  0.04754944  0.92428308  1
  O  O169  1  0.49954200  0.38008972  0.91579554  1
  O  O170  1  0.50500237  0.71403932  0.92223989  1
  O  O171  1  0.63874800  0.04778833  0.42465258  1
  O  O172  1  0.64085698  0.38009377  0.41581332  1
  O  O173  1  0.64381871  0.71509559  0.42298643  1
  O  O174  1  0.50458813  0.12027359  0.42402300  1
  O  O175  1  0.49864928  0.45238012  0.41590661  1
  O  O176  1  0.50237191  0.78651566  0.42340155  1
  O  O177  1  0.85506913  0.16558833  0.42405077  1
  O  O178  1  0.86181192  0.50012460  0.41663386  1
  O  O179  1  0.85462631  0.83220908  0.42141872  1
  O  O180  1  0.34750717  0.16616029  0.07341898  1
  O  O181  1  0.36269318  0.50240955  0.07841793  1
  O  O182  1  0.35811368  0.83565576  0.07852455  1
  O  O183  1  0.14986741  0.21730084  0.07421704  1
  O  O184  1  0.14466777  0.54483725  0.07769303  1
  O  O185  1  0.14573273  0.88008316  0.07924588  1
  O  O186  1  0.49549453  0.28328098  0.07935392  1
  O  O187  1  0.48920345  0.61925860  0.07749945  1
  O  O188  1  0.49712159  0.95169374  0.07340507  1
  O  O189  1  0.35399984  0.28317435  0.57945432  1
  O  O190  1  0.36936563  0.61942529  0.57801608  1
  O  O191  1  0.35021854  0.95039432  0.57431327  1
  O  O192  1  0.50215428  0.21729495  0.57429879  1
  O  O193  1  0.48963334  0.54500259  0.57824767  1
  O  O194  1  0.49457614  0.88070183  0.57914848  1
  O  O195  1  0.15109413  0.16575608  0.57369126  1
  O  O196  1  0.14502175  0.50229813  0.57924797  1
  O  O197  1  0.14503333  0.83673801  0.57866212  1
  O  O198  1  0.29683360  0.27463491  0.25566407  1
  O  O199  1  0.32119627  0.61198994  0.25787694  1
  O  O200  1  0.30925968  0.94251437  0.25503796  1
  O  O201  1  0.51870269  0.23103051  0.25480951  1
  O  O202  1  0.52030215  0.56200713  0.25978866  1
  O  O203  1  0.52145617  0.89760218  0.25428876  1
  O  O204  1  0.17642213  0.15856587  0.25448842  1
  O  O205  1  0.16460916  0.49453692  0.25465503  1
  O  O206  1  0.16946728  0.82617278  0.25986620  1
  O  O207  1  0.29905661  0.15854452  0.75394680  1
  O  O208  1  0.31832863  0.49432352  0.75482469  1
  O  O209  1  0.30933281  0.82664683  0.75924585  1
  O  O210  1  0.17439588  0.23098553  0.75476421  1
  O  O211  1  0.16531662  0.56215523  0.76093409  1
  O  O212  1  0.17129427  0.89759571  0.75362111  1
  O  O213  1  0.52692131  0.27467957  0.75563982  1
  O  O214  1  0.51407569  0.61208722  0.75794022  1
  O  O215  1  0.51776776  0.94250270  0.75472404  1
loop_
_geom_bond_atom_site_label_1
_geom_bond_atom_site_label_2
_geom_bond_distance
_geom_bond_site_symmetry_2
Na0 O110 2.460809 1_545
Na0 O114 2.468329 1_555
Na0 O113 2.476942 1_445
Na0 O126 2.631061 1_455
Na0 O129 2.640583 1_555
Na0 O134 2.696804 1_445
Na1 O111 2.484743 1_555
Na1 O115 2.526510 1_655
Na1 O108 2.533209 1_655
Na1 O132 2.534419 1_555
Na1 O130 2.687008 1_655
Na1 O127 2.701431 1_555
Na2 O131 2.406260 1_555
Na2 O128 2.408021 1_455
Na2 O133 2.483940 1_455
Na2 O109 2.658485 1_555
Na2 O116 2.688646 1_555
Na2 O112 2.692800 1_455
Na3 O125 2.469586 1_555
Na3 O117 2.558739 1_665
Na3 O122 2.575303 1_655
Na3 O138 2.578196 1_566
Na3 O137 2.596357 1_556
Na3 O141 2.635136 1_666
Na4 O120 2.493529 1_655
Na4 O135 2.521464 1_556
Na4 O118 2.538098 1_655
Na4 O123 2.543172 1_555
Na4 O139 2.678585 1_556
Na4 O142 2.692869 1_656
Na5 O143 2.325113 1_555
Na5 O140 2.385752 1_455
Na5 O136 2.409621 1_455
Na5 O121 2.701319 1_554
Na5 O124 2.746705 1_454
Na5 O119 2.756411 1_554
Na6 O150 2.426552 1_555
Na6 O144 2.436901 1_555
Na6 O147 2.440325 1_555
Na6 O165 2.663265 1_555
Na6 O162 2.669441 1_555
Na6 O168 2.675916 1_555
Na7 O166 2.381140 1_555
Na7 O169 2.382416 1_555
Na7 O163 2.457907 1_555
Na7 O145 2.650162 1_555
Na7 O151 2.680644 1_555
Na7 O148 2.688712 1_555
Na8 O164 2.411643 1_555
Na8 O149 2.548624 1_555
Na8 O152 2.558531 1_555
Na8 O167 2.586581 1_555
Na8 O170 2.622336 1_555
Na8 O146 2.671784 1_555
Na9 O153 2.408949 1_555
Na9 O159 2.415314 1_555
Na9 O156 2.423387 1_555
Na9 O174 2.693693 1_555
Na9 O171 2.696612 1_555
Na9 O177 2.703686 1_555
Na10 O175 2.374228 1_555
Na10 O172 2.386354 1_555
Na10 O178 2.448659 1_555
Na10 O160 2.671063 1_555
Na10 O154 2.696472 1_555
Na10 O157 2.700368 1_555
Na11 O179 2.461996 1_555
Na11 O173 2.582207 1_555
Na11 O158 2.583160 1_555
Na11 O176 2.596866 1_555
Na11 O155 2.599687 1_555
Na11 O161 2.625329 1_555
Na12 O201 2.487881 1_555
Na12 O186 2.518806 1_555
Na12 O198 2.537791 1_555
Na12 O204 2.554380 1_555
Na12 O183 2.681499 1_555
Na12 O180 2.685096 1_555
Na13 O205 2.508116 1_555
Na13 O181 2.546539 1_555
Na13 O202 2.580503 1_555
Na13 O199 2.608748 1_555
Na13 O187 2.619576 1_555
Na13 O184 2.630598 1_555
Na14 O182 2.538761 1_555
Na14 O200 2.541234 1_555
Na14 O203 2.541390 1_555
Na14 O185 2.543298 1_555
Na14 O188 2.648804 1_555
Na14 O206 2.649077 1_555
Na15 O210 2.484579 1_555
Na15 O189 2.513524 1_555
Na15 O213 2.531852 1_555
Na15 O207 2.548886 1_555
Na15 O192 2.682438 1_555
Na15 O195 2.688044 1_555
Na16 O196 2.496657 1_555
Na16 O208 2.543853 1_555
Na16 O193 2.577822 1_555
Na16 O190 2.580832 1_555
Na16 O214 2.641190 1_555
Na16 O211 2.645321 1_555
Na17 O215 2.481247 1_555
Na17 O194 2.520236 1_555
Na17 O212 2.551869 1_555
Na17 O209 2.575438 1_555
Na17 O197 2.598315 1_555
Na17 O191 2.687926 1_555
Na18 O156 2.345250 1_555
Na18 O48 2.400129 1_555
Na18 O159 2.413386 1_555
Na18 O200 2.544536 1_545
Na18 O203 2.618434 1_545
Na18 O95 2.871899 1_545
Na19 O158 2.424583 1_555
Na19 O202 2.478572 1_555
Na19 O199 2.534779 1_555
Na19 O161 2.651895 1_555
Na19 O50 2.741007 1_555
Na19 O28 2.747367 1_555
Na19 O94 2.748599 1_555
Na19 O8 2.865436 1_555
Na20 O159 2.315474 1_555
Na20 O51 2.416287 1_555
Na20 O153 2.428187 1_555
Na20 O204 2.562499 1_555
Na20 O201 2.601317 1_555
Na20 O96 2.865318 1_555
Na21 O206 2.448111 1_555
Na21 O161 2.476527 1_555
Na21 O155 2.582498 1_555
Na21 O203 2.624790 1_555
Na21 O53 2.670310 1_555
Na21 O98 2.762800 1_555
Na21 O32 2.788443 1_555
Na21 O2 2.895406 1_555
Na22 O153 2.339845 1_555
Na22 O156 2.383034 1_555
Na22 O45 2.384580 1_555
Na22 O198 2.559437 1_655
Na22 O204 2.625684 1_655
Na22 O90 2.868367 1_655
Na23 O154 2.408446 1_455
Na23 O199 2.534214 1_555
Na23 O205 2.540963 1_555
Na23 O157 2.610475 1_455
Na23 O46 2.738558 1_455
Na23 O34 2.775449 1_555
Na23 O91 2.800709 1_555
Na23 O4 2.910275 1_455
Na24 O150 2.340777 1_555
Na24 O147 2.390718 1_555
Na24 O42 2.393926 1_555
Na24 O213 2.556432 1_555
Na24 O207 2.630958 1_555
Na24 O105 2.862009 1_555
Na25 O151 2.399505 1_555
Na25 O208 2.537665 1_555
Na25 O214 2.550387 1_555
Na25 O148 2.592756 1_555
Na25 O43 2.703407 1_555
Na25 O19 2.763814 1_555
Na25 O106 2.815311 1_555
Na25 O13 2.941116 1_555
Na26 O144 2.317584 1_555
Na26 O150 2.415012 1_555
Na26 O36 2.424638 1_555
Na26 O207 2.560411 1_655
Na26 O210 2.585941 1_655
Na26 O99 2.836711 1_655
Na27 O209 2.443822 1_555
Na27 O146 2.470957 1_455
Na27 O152 2.573118 1_455
Na27 O212 2.606586 1_555
Na27 O38 2.693138 1_455
Na27 O101 2.745970 1_555
Na27 O23 2.801991 1_555
Na27 O17 2.942739 1_455
Na28 O147 2.342777 1_555
Na28 O144 2.407610 1_555
Na28 O39 2.413450 1_555
Na28 O215 2.542014 1_545
Na28 O212 2.619587 1_545
Na28 O104 2.867297 1_545
Na29 O149 2.432558 1_555
Na29 O211 2.474645 1_555
Na29 O214 2.522090 1_555
Na29 O146 2.661112 1_555
Na29 O41 2.685972 1_555
Na29 O25 2.713915 1_555
Na29 O103 2.788910 1_555
Na29 O11 2.905919 1_555
Na30 O129 2.479169 1_555
Na30 O192 2.521217 1_555
Na30 O195 2.556540 1_555
Na30 O126 2.652268 1_455
Na30 O21 2.715094 1_555
Na30 O42 2.771734 1_555
Na30 O84 2.794262 1_555
Na30 O63 2.840147 1_555
Na31 O193 2.395517 1_555
Na31 O130 2.535149 1_555
Na31 O127 2.582768 1_455
Na31 O85 2.649430 1_555
Na31 O196 2.698421 1_555
Na31 O64 2.762644 1_555
Na31 O22 2.837977 1_555
Na31 O43 2.881032 1_555
Na32 O131 2.339363 1_555
Na32 O128 2.377384 1_455
Na32 O23 2.387199 1_555
Na32 O197 2.612789 1_555
Na32 O194 2.647330 1_555
Na32 O86 2.895378 1_555
Na33 O132 2.507544 1_455
Na33 O195 2.528389 1_555
Na33 O130 2.577033 1_555
Na33 O189 2.601789 1_555
Na33 O24 2.679584 1_555
Na33 O36 2.735933 1_455
Na33 O87 2.808171 1_555
Na33 O66 2.864944 1_455
Na34 O133 2.348887 1_455
Na34 O131 2.429781 1_555
Na34 O25 2.494406 1_555
Na34 O196 2.630612 1_555
Na34 O190 2.723500 1_555
Na34 O88 2.871493 1_555
Na35 O197 2.414062 1_555
Na35 O134 2.470429 1_455
Na35 O191 2.519391 1_555
Na35 O129 2.546710 1_565
Na35 O89 2.670608 1_555
Na35 O26 2.725799 1_555
Na35 O68 2.909731 1_455
Na35 O38 2.950801 1_455
Na36 O189 2.504898 1_555
Na36 O127 2.537639 1_555
Na36 O192 2.569421 1_555
Na36 O132 2.601135 1_555
Na36 O81 2.647267 1_555
Na36 O70 2.701092 1_555
Na36 O18 2.835618 1_555
Na36 O40 2.901226 1_555
Na37 O133 2.323708 1_555
Na37 O128 2.343166 1_555
Na37 O19 2.431514 1_555
Na37 O190 2.557590 1_555
Na37 O193 2.617870 1_555
Na37 O82 2.919574 1_555
Na38 O126 2.477923 1_565
Na38 O191 2.492501 1_555
Na38 O194 2.634182 1_555
Na38 O134 2.657269 1_555
Na38 O20 2.696558 1_555
Na38 O39 2.761811 1_565
Na38 O83 2.765873 1_555
Na38 O69 2.852210 1_565
Na39 O186 2.499467 1_555
Na39 O142 2.545613 1_555
Na39 O183 2.560461 1_555
Na39 O135 2.591820 1_455
Na39 O78 2.648023 1_554
Na39 O55 2.726872 1_555
Na39 O33 2.826099 1_555
Na39 O49 2.898259 1_555
Na40 O143 2.328185 1_555
Na40 O136 2.333672 1_455
Na40 O34 2.358993 1_555
Na40 O187 2.571254 1_555
Na40 O184 2.644906 1_555
Na40 O79 2.956530 1_554
Na40 O50 3.016363 1_555
Na41 O188 2.451967 1_555
Na41 O141 2.470878 1_565
Na41 O137 2.580606 1_455
Na41 O185 2.636941 1_555
Na41 O35 2.669256 1_555
Na41 O80 2.774083 1_554
Na41 O48 2.784993 1_565
Na41 O54 2.884621 1_565
Na42 O135 2.511209 1_555
Na42 O180 2.513253 1_555
Na42 O139 2.588443 1_555
Na42 O186 2.614627 1_555
Na42 O27 2.681418 1_555
Na42 O51 2.702973 1_555
Na42 O72 2.820109 1_554
Na42 O57 2.862318 1_555
Na43 O136 2.351946 1_555
Na43 O140 2.425991 1_555
Na43 O28 2.437764 1_555
Na43 O181 2.630898 1_555
Na43 O187 2.718394 1_555
Na43 O73 2.927884 1_554
Na43 O58 3.005244 1_555
Na43 O52 3.011711 1_555
Na44 O138 2.410240 1_455
Na44 O183 2.533293 1_555
Na44 O180 2.560809 1_555
Na44 O141 2.634376 1_555
Na44 O30 2.671680 1_555
Na44 O45 2.778160 1_455
Na44 O75 2.829513 1_554
Na44 O60 2.871562 1_455
Na45 O184 2.403461 1_555
Na45 O139 2.520736 1_455
Na45 O142 2.578449 1_555
Na45 O76 2.681841 1_554
Na45 O181 2.716358 1_555
Na45 O61 2.754602 1_455
Na45 O31 2.814691 1_555
Na45 O46 2.862386 1_455
Na46 O140 2.364911 1_455
Na46 O32 2.382891 1_555
Na46 O143 2.401079 1_555
Na46 O182 2.539365 1_555
Na46 O185 2.612704 1_555
Na46 O77 2.880695 1_554
Na47 O166 2.361070 1_555
Na47 O58 2.379729 1_556
Na47 O163 2.390256 1_555
Na47 O121 2.573535 1_655
Na47 O124 2.621738 1_555
Na48 O169 2.345165 1_555
Na48 O61 2.372450 1_556
Na48 O166 2.400805 1_555
Na48 O123 2.552504 1_555
Na48 O118 2.638490 1_655
Na48 O16 2.864690 1_555
Na49 O124 2.404989 1_555
Na49 O170 2.429201 1_555
Na49 O167 2.466047 1_555
Na49 O119 2.529459 1_655
Na49 O62 2.693328 1_556
Na49 O17 2.759234 1_555
Na49 O73 2.948043 1_555
Na49 O103 3.010790 1_555
Na50 O163 2.339126 1_555
Na50 O55 2.399641 1_556
Na50 O169 2.404761 1_555
Na50 O118 2.560310 1_555
Na50 O120 2.568816 1_555
Na50 O10 2.845946 1_555
Na51 O178 2.319952 1_555
Na51 O172 2.416170 1_555
Na51 O70 2.416874 1_555
Na51 O115 2.567018 1_655
Na51 O111 2.590126 1_555
Na51 O7 2.854395 1_555
Na52 O172 2.343369 1_555
Na52 O64 2.377189 1_555
Na52 O175 2.392065 1_555
Na52 O108 2.553791 1_555
Na52 O115 2.632446 1_555
Na52 O1 2.859362 1_555
Na53 O175 2.379275 1_555
Na53 O178 2.404784 1_555
Na53 O67 2.424424 1_555
Na53 O112 2.542144 1_555
Na53 O109 2.543984 1_655
Na53 O4 2.920075 1_555
Nb0 O0 1.942502 1_665
Nb0 O6 1.950832 1_565
Nb0 O5 1.982537 1_555
Nb0 O110 2.039338 1_655
Nb0 O114 2.044866 1_665
Nb0 O113 2.050016 1_555
Nb1 O3 1.901661 1_555
Nb1 O7 1.984740 1_555
Nb1 O1 1.987340 1_655
Nb1 O111 2.031884 1_555
Nb1 O108 2.061576 1_655
Nb1 O115 2.081065 1_655
Nb2 O2 1.970316 1_555
Nb2 O8 1.972970 1_455
Nb2 O116 2.005214 1_555
Nb2 O4 2.025257 1_455
Nb2 O109 2.042912 1_555
Nb2 O112 2.070486 1_455
Nb3 O9 1.958252 1_565
Nb3 O15 1.960264 1_465
Nb3 O14 2.000289 1_455
Nb3 O122 2.019785 1_555
Nb3 O117 2.023540 1_565
Nb3 O125 2.027623 1_455
Nb4 O12 1.902823 1_555
Nb4 O16 1.989837 1_555
Nb4 O10 1.991296 1_655
Nb4 O120 2.029446 1_655
Nb4 O123 2.049427 1_555
Nb4 O118 2.082739 1_655
Nb5 O11 1.938619 1_555
Nb5 O13 1.988800 1_455
Nb5 O17 2.002660 1_455
Nb5 O119 2.029314 1_555
Nb5 O121 2.043702 1_555
Nb5 O124 2.088268 1_455
Nb6 O20 1.940130 1_545
Nb6 O21 1.943332 1_655
Nb6 O26 1.977592 1_645
Nb6 O126 2.060417 1_555
Nb6 O134 2.082889 1_545
Nb6 O129 2.089691 1_655
Nb7 O24 1.954910 1_555
Nb7 O22 1.956894 1_555
Nb7 O18 1.971428 1_455
Nb7 O130 2.019265 1_555
Nb7 O127 2.030697 1_455
Nb7 O132 2.087256 1_455
Nb8 O29 1.936128 1_555
Nb8 O35 1.973391 1_655
Nb8 O30 1.981101 1_665
Nb8 O138 2.048070 1_565
Nb8 O137 2.049969 1_555
Nb8 O141 2.094008 1_665
Nb9 O27 1.951454 1_555
Nb9 O31 1.956342 1_655
Nb9 O33 1.970692 1_655
Nb9 O139 2.020903 1_555
Nb9 O142 2.040071 1_655
Nb9 O135 2.087700 1_555
Nb10 O37 1.961492 1_555
Nb10 O40 1.978590 1_555
Nb10 O43 1.993778 1_555
Nb10 O145 2.030011 1_555
Nb10 O151 2.060321 1_555
Nb10 O148 2.063536 1_555
Nb11 O44 1.948208 1_555
Nb11 O41 1.977545 1_555
Nb11 O38 1.989834 1_555
Nb11 O152 2.036401 1_555
Nb11 O149 2.045509 1_555
Nb11 O146 2.077563 1_555
Nb12 O52 1.970372 1_555
Nb12 O49 1.987626 1_555
Nb12 O46 2.002574 1_555
Nb12 O160 2.024538 1_555
Nb12 O154 2.038814 1_555
Nb12 O157 2.055795 1_555
Nb13 O47 1.942547 1_555
Nb13 O53 1.977745 1_555
Nb13 O50 2.000053 1_555
Nb13 O155 2.030190 1_555
Nb13 O158 2.039856 1_555
Nb13 O161 2.079943 1_555
Nb14 O60 1.979682 1_556
Nb14 O54 1.998833 1_556
Nb14 O168 2.008634 1_555
Nb14 O57 2.017351 1_556
Nb14 O165 2.021659 1_555
Nb14 O162 2.043300 1_555
Nb15 O56 1.910206 1_556
Nb15 O59 1.939796 1_556
Nb15 O62 1.989748 1_556
Nb15 O164 2.003860 1_555
Nb15 O167 2.084413 1_555
Nb15 O170 2.102860 1_555
Nb16 O171 1.998909 1_555
Nb16 O63 2.000627 1_555
Nb16 O174 2.005871 1_555
Nb16 O69 2.014415 1_555
Nb16 O66 2.015463 1_555
Nb16 O177 2.022790 1_555
Nb17 O65 1.954230 1_555
Nb17 O71 1.960512 1_555
Nb17 O173 2.013283 1_555
Nb17 O176 2.014944 1_555
Nb17 O179 2.020656 1_555
Nb17 O68 2.028071 1_555
Nb18 O75 1.933634 1_554
Nb18 O78 1.965632 1_554
Nb18 O72 1.978410 1_554
Nb18 O183 2.022147 1_555
Nb18 O180 2.023325 1_555
Nb18 O186 2.109010 1_555
Nb19 O79 1.976825 1_554
Nb19 O76 1.977652 1_554
Nb19 O73 1.988894 1_554
Nb19 O184 2.024200 1_555
Nb19 O187 2.038867 1_555
Nb19 O181 2.064269 1_555
Nb20 O74 1.913830 1_554
Nb20 O80 1.983678 1_554
Nb20 O188 1.988765 1_555
Nb20 O77 1.995789 1_554
Nb20 O182 2.028530 1_555
Nb20 O185 2.132459 1_555
Nb21 O84 1.933596 1_555
Nb21 O81 1.954818 1_555
Nb21 O87 1.973358 1_555
Nb21 O192 2.025893 1_555
Nb21 O195 2.038130 1_555
Nb21 O189 2.109672 1_555
Nb22 O88 1.954147 1_555
Nb22 O82 1.954967 1_555
Nb22 O85 1.978496 1_555
Nb22 O190 2.054684 1_555
Nb22 O193 2.057223 1_555
Nb22 O196 2.089725 1_555
Nb23 O89 1.934378 1_555
Nb23 O86 1.938587 1_555
Nb23 O83 1.946310 1_555
Nb23 O191 2.043916 1_555
Nb23 O197 2.079671 1_555
Nb23 O194 2.121450 1_555
Nb24 O93 1.916885 1_555
Nb24 O96 1.970337 1_555
Nb24 O90 1.988327 1_555
Nb24 O201 2.033394 1_555
Nb24 O204 2.068291 1_555
Nb24 O198 2.072786 1_555
Nb25 O97 1.913419 1_555
Nb25 O91 1.958068 1_555
Nb25 O94 1.983438 1_555
Nb25 O202 1.996267 1_555
Nb25 O199 2.052918 1_555
Nb25 O205 2.075089 1_555
Nb26 O92 1.914917 1_555
Nb26 O95 1.979771 1_555
Nb26 O98 1.999410 1_555
Nb26 O206 2.002628 1_555
Nb26 O200 2.018614 1_555
Nb26 O203 2.130504 1_555
Nb27 O102 1.909210 1_555
Nb27 O99 1.964222 1_555
Nb27 O105 1.982175 1_555
Nb27 O210 2.036673 1_555
Nb27 O213 2.073896 1_555
Nb27 O207 2.085410 1_555
Nb28 O100 1.902946 1_555
Nb28 O106 1.963404 1_555
Nb28 O211 1.982259 1_555
Nb28 O103 2.014715 1_555
Nb28 O208 2.049780 1_555
Nb28 O214 2.055623 1_555
Nb29 O107 1.908049 1_555
Nb29 O104 1.955590 1_555
Nb29 O101 1.996009 1_555
Nb29 O209 2.019637 1_555
Nb29 O215 2.026033 1_555
Nb29 O212 2.144020 1_555
O0 Si0 1.642821 1_545
O1 Si1 1.646500 1_555
O2 Si2 1.660709 1_555
O3 Si3 1.663593 1_555
O4 Si4 1.661923 1_555
O5 Si5 1.620286 1_555
O6 Si6 1.643592 1_555
O7 Si7 1.639957 1_555
O8 Si8 1.664132 1_655
O9 Si9 1.635009 1_555
O10 Si10 1.634648 1_555
O11 Si11 1.680709 1_555
O12 Si12 1.661925 1_655
O13 Si13 1.679636 1_555
O14 Si14 1.611276 1_655
O15 Si15 1.631687 1_545
O16 Si16 1.645269 1_555
O17 Si17 1.670121 1_555
O18 Si16 1.660718 1_555
O19 Si17 1.582053 1_555
O19 Zn0 2.057365 1_555
O20 Si15 1.689117 1_555
O21 Si9 1.694375 1_555
O22 Si10 1.647604 1_555
O23 Si11 1.590616 1_555
O23 Zn0 2.070778 1_455
O24 Si12 1.663079 1_555
O25 Si13 1.591985 1_455
O25 Zn0 2.057741 1_455
O26 Si14 1.666211 1_555
O27 Si3 1.663820 1_555
O28 Si4 1.604315 1_555
O28 Zn1 2.051482 1_655
O29 Si5 1.659636 1_555
O30 Si6 1.675301 1_455
O31 Si7 1.649918 1_455
O32 Si8 1.602834 1_555
O32 Zn1 2.056261 1_555
O33 Si1 1.660236 1_555
O34 Si2 1.594980 1_555
O34 Zn1 2.050089 1_555
O35 Si0 1.671837 1_555
O36 Si18 1.600631 1_555
O36 Zn2 2.075905 1_555
O37 Si19 1.660915 1_555
O38 Si20 1.684065 1_555
O39 Si21 1.599378 1_555
O39 Zn2 2.061094 1_555
O40 Si22 1.658295 1_555
O41 Si23 1.684525 1_555
O42 Si24 1.599170 1_555
O42 Zn2 2.076513 1_555
O43 Si25 1.695705 1_555
O44 Si26 1.662591 1_555
O45 Si27 1.600734 1_555
O45 Zn3 2.080176 1_555
O46 Si28 1.685276 1_555
O47 Si29 1.653531 1_555
O48 Si30 1.603557 1_555
O48 Zn3 2.049903 1_555
O49 Si31 1.655038 1_555
O50 Si32 1.665737 1_555
O51 Si33 1.604464 1_555
O51 Zn3 2.077354 1_555
O52 Si34 1.655531 1_555
O53 Si35 1.663381 1_555
O54 Si33 1.648582 1_555
O55 Si34 1.597998 1_555
O55 Zn4 2.068669 1_554
O56 Si35 1.660020 1_555
O57 Si27 1.642876 1_555
O58 Si28 1.602374 1_555
O58 Zn4 1.993880 1_554
O59 Si29 1.643015 1_555
O60 Si30 1.658753 1_555
O61 Si31 1.597497 1_555
O61 Zn4 2.069094 1_554
O62 Si32 1.652206 1_555
O63 Si21 1.647552 1_555
O64 Si22 1.594671 1_555
O64 Zn5 2.085365 1_555
O65 Si23 1.641294 1_555
O66 Si24 1.644941 1_555
O67 Si25 1.603261 1_555
O67 Zn5 1.990995 1_555
O68 Si26 1.615834 1_555
O69 Si18 1.644623 1_555
O70 Si19 1.598130 1_555
O70 Zn5 2.076826 1_555
O71 Si20 1.636564 1_555
O72 Si36 1.659655 1_555
O73 Si37 1.674992 1_555
O74 Si38 1.639991 1_555
O75 Si39 1.659813 1_555
O76 Si40 1.670365 1_555
O77 Si41 1.634214 1_555
O78 Si42 1.656029 1_555
O79 Si43 1.659921 1_555
O80 Si44 1.646763 1_555
O81 Si45 1.663632 1_555
O82 Si46 1.667449 1_555
O83 Si47 1.670080 1_555
O84 Si48 1.663829 1_555
O85 Si49 1.671687 1_555
O86 Si50 1.666747 1_555
O87 Si51 1.663018 1_555
O88 Si52 1.679667 1_555
O89 Si53 1.662331 1_555
O90 Si51 1.641994 1_555
O91 Si52 1.651487 1_555
O92 Si53 1.642928 1_555
O93 Si45 1.654372 1_555
O94 Si46 1.636097 1_555
O95 Si47 1.642533 1_555
O96 Si48 1.644387 1_555
O97 Si49 1.649579 1_555
O98 Si50 1.637899 1_555
O99 Si39 1.651109 1_555
O100 Si40 1.657349 1_555
O101 Si41 1.642534 1_555
O102 Si42 1.659749 1_555
O103 Si43 1.639083 1_555
O104 Si44 1.659774 1_555
O105 Si36 1.649545 1_555
O106 Si37 1.654410 1_555
O107 Si38 1.649722 1_555
O108 Si51 1.648196 1_555
O109 Si52 1.642098 1_555
O110 Si53 1.617808 1_555
O111 Si45 1.645288 1_555
O112 Si46 1.635573 1_555
O113 Si47 1.622831 1_555
O114 Si48 1.623147 1_555
O115 Si49 1.649199 1_555
O116 Si50 1.635024 1_555
O117 Si39 1.629264 1_555
O118 Si40 1.644737 1_555
O119 Si41 1.656628 1_555
O120 Si42 1.646109 1_555
O121 Si43 1.638248 1_555
O122 Si44 1.631893 1_555
O123 Si36 1.652583 1_555
O124 Si37 1.656297 1_555
O125 Si38 1.615513 1_555
O126 Si18 1.674374 1_555
O127 Si19 1.671513 1_555
O128 Si20 1.583027 1_555
O128 Zn0 2.255921 1_555
O129 Si21 1.671959 1_555
O130 Si22 1.663589 1_555
O131 Si23 1.588643 1_555
O131 Zn0 2.249689 1_455
O132 Si24 1.671016 1_555
O133 Si25 1.605531 1_555
O133 Zn0 2.134728 1_555
O134 Si26 1.647974 1_555
O135 Si27 1.672847 1_555
O136 Si28 1.607788 1_555
O136 Zn1 2.157639 1_655
O137 Si29 1.633045 1_555
O138 Si30 1.660506 1_555
O139 Si31 1.663186 1_555
O140 Si32 1.594103 1_555
O140 Zn1 2.283412 1_655
O141 Si33 1.658509 1_555
O142 Si34 1.667038 1_555
O143 Si35 1.596641 1_555
O143 Zn1 2.274829 1_555
O144 Si15 1.596589 1_545
O144 Zn2 2.227504 1_555
O145 Si16 1.626441 1_555
O146 Si17 1.668064 1_555
O147 Si9 1.591011 1_555
O147 Zn2 2.229019 1_555
O148 Si10 1.633434 1_555
O149 Si11 1.661326 1_555
O150 Si12 1.592390 1_655
O150 Zn2 2.238827 1_555
O151 Si13 1.650002 1_555
O152 Si14 1.649087 1_655
O153 Si3 1.593557 1_555
O153 Zn3 2.248615 1_555
O154 Si4 1.657337 1_555
O155 Si5 1.644450 1_555
O156 Si6 1.596954 1_555
O156 Zn3 2.237727 1_555
O157 Si7 1.636425 1_555
O158 Si8 1.660715 1_655
O159 Si0 1.602396 1_545
O159 Zn3 2.226074 1_555
O160 Si1 1.626928 1_555
O161 Si2 1.661806 1_555
O162 Si36 1.615849 1_555
O163 Si37 1.587484 1_555
O163 Zn4 2.258300 1_555
O164 Si38 1.636257 1_555
O165 Si39 1.627714 1_655
O166 Si40 1.587668 1_655
O166 Zn4 2.255220 1_555
O167 Si41 1.643153 1_655
O168 Si44 1.635770 1_545
O169 Si42 1.596445 1_555
O169 Zn4 2.222200 1_555
O170 Si43 1.628399 1_555
O171 Si47 1.639451 1_545
O172 Si45 1.595469 1_555
O172 Zn5 2.221651 1_555
O173 Si46 1.628380 1_555
O174 Si48 1.635496 1_555
O175 Si49 1.589314 1_555
O175 Zn5 2.245832 1_555
O176 Si50 1.631810 1_555
O177 Si51 1.623088 1_655
O178 Si52 1.602713 1_655
O178 Zn5 2.239112 1_555
O179 Si53 1.626011 1_655
O180 Si33 1.673362 1_555
O181 Si34 1.663620 1_555
O182 Si35 1.648034 1_555
O183 Si27 1.668592 1_455
O184 Si28 1.701086 1_455
O185 Si29 1.638200 1_455
O186 Si31 1.659781 1_555
O187 Si32 1.668111 1_555
O188 Si30 1.654565 1_565
O189 Si22 1.661740 1_555
O190 Si23 1.661808 1_555
O191 Si21 1.662458 1_565
O192 Si24 1.667498 1_555
O193 Si25 1.694836 1_555
O194 Si26 1.641113 1_555
O195 Si18 1.666280 1_455
O196 Si19 1.656731 1_455
O197 Si20 1.666605 1_455
O198 Si1 1.642897 1_555
O199 Si2 1.655457 1_555
O200 Si0 1.657439 1_555
O201 Si3 1.643529 1_555
O202 Si4 1.656370 1_555
O203 Si5 1.645151 1_555
O204 Si6 1.658207 1_455
O205 Si7 1.644321 1_455
O206 Si8 1.650150 1_555
O207 Si9 1.652266 1_555
O208 Si10 1.652774 1_555
O209 Si11 1.642917 1_555
O210 Si12 1.644410 1_555
O211 Si13 1.656633 1_455
O212 Si14 1.646875 1_555
O213 Si16 1.644084 1_555
O214 Si17 1.657218 1_555
O215 Si15 1.654951 1_555
