# generated using pymatgen
data_Na12Ca4Nb2Si3(PO6)6
_symmetry_space_group_name_H-M   'P 1'
_cell_length_a   9.42503525
_cell_length_b   9.42503489
_cell_length_c   22.42275123
_cell_angle_alpha   90.00000000
_cell_angle_beta   90.00000000
_cell_angle_gamma   120.00000121
_symmetry_Int_Tables_number   1
_chemical_formula_structural   Na12Ca4Nb2Si3(PO6)6
_chemical_formula_sum   'Na24 Ca8 Nb4 Si6 P12 O72'
_cell_volume   1724.98560389
_cell_formula_units_Z   2
loop_
 _symmetry_equiv_pos_site_id
 _symmetry_equiv_pos_as_xyz
  1  'x, y, z'
loop_
 _atom_site_type_symbol
 _atom_site_label
 _atom_site_symmetry_multiplicity
 _atom_site_fract_x
 _atom_site_fract_y
 _atom_site_fract_z
 _atom_site_occupancy
  Na  Na0  1  0.65114416  0.00599556  0.24285159  1
  Na  Na1  1  0.35485140  0.34885584  0.24285159  1
  Na  Na2  1  0.99400444  0.64514860  0.24285159  1
  Na  Na3  1  0.65114416  0.64514860  0.74285159  1
  Na  Na4  1  0.99400444  0.34885584  0.74285159  1
  Na  Na5  1  0.35485140  0.00599556  0.74285159  1
  Na  Na6  1  0.29253362  0.33896839  0.57716956  1
  Na  Na7  1  0.04643576  0.70746638  0.57716956  1
  Na  Na8  1  0.66103161  0.95356424  0.57716956  1
  Na  Na9  1  0.29253362  0.95356424  0.07716956  1
  Na  Na10  1  0.66103161  0.70746638  0.07716956  1
  Na  Na11  1  0.04643576  0.33896839  0.07716956  1
  Na  Na12  1  0.98794423  0.69449303  0.91378944  1
  Na  Na13  1  0.70654779  0.01205577  0.91378944  1
  Na  Na14  1  0.30550697  0.29345221  0.91378944  1
  Na  Na15  1  0.98794423  0.29345221  0.41378944  1
  Na  Na16  1  0.30550697  0.01205577  0.41378944  1
  Na  Na17  1  0.70654779  0.69449303  0.41378944  1
  Na  Na18  1  0.00000000  0.00000000  0.49377122  1
  Na  Na19  1  0.00000000  0.00000000  0.99377122  1
  Na  Na20  1  0.66666700  0.33333300  0.82926943  1
  Na  Na21  1  0.66666700  0.33333300  0.32926943  1
  Na  Na22  1  0.33333300  0.66666700  0.16296113  1
  Na  Na23  1  0.33333300  0.66666700  0.66296113  1
  Ca  Ca0  1  0.00000000  0.00000000  0.34579037  1
  Ca  Ca1  1  0.00000000  0.00000000  0.84579037  1
  Ca  Ca2  1  0.00000000  0.00000000  0.64880179  1
  Ca  Ca3  1  0.00000000  0.00000000  0.14880179  1
  Ca  Ca4  1  0.66666700  0.33333300  0.68304437  1
  Ca  Ca5  1  0.66666700  0.33333300  0.18304437  1
  Ca  Ca6  1  0.33333300  0.66666700  0.01379341  1
  Ca  Ca7  1  0.33333300  0.66666700  0.51379341  1
  Nb  Nb0  1  0.66666700  0.33333300  0.97787736  1
  Nb  Nb1  1  0.66666700  0.33333300  0.47787736  1
  Nb  Nb2  1  0.33333300  0.66666700  0.32312838  1
  Nb  Nb3  1  0.33333300  0.66666700  0.82312838  1
  Si  Si0  1  0.63375753  0.66083526  0.92158624  1
  Si  Si1  1  0.02707674  0.36624247  0.92158624  1
  Si  Si2  1  0.33916474  0.97292326  0.92158624  1
  Si  Si3  1  0.63375753  0.97292326  0.42158624  1
  Si  Si4  1  0.33916474  0.36624247  0.42158624  1
  Si  Si5  1  0.02707674  0.66083526  0.42158624  1
  P  P0  1  0.30772553  0.98657016  0.25218134  1
  P  P1  1  0.67884463  0.69227447  0.25218134  1
  P  P2  1  0.01342984  0.32115538  0.25218134  1
  P  P3  1  0.30772553  0.32115538  0.75218134  1
  P  P4  1  0.01342984  0.69227447  0.75218134  1
  P  P5  1  0.67884463  0.98657016  0.75218134  1
  P  P6  1  0.95778175  0.32780676  0.58281920  1
  P  P7  1  0.37002601  0.04221825  0.58281920  1
  P  P8  1  0.67219324  0.62997399  0.58281920  1
  P  P9  1  0.95778175  0.62997399  0.08281920  1
  P  P10  1  0.67219324  0.04221825  0.08281920  1
  P  P11  1  0.37002601  0.32780676  0.08281920  1
  O  O0  1  0.22575263  0.00851304  0.30750381  1
  O  O1  1  0.78276041  0.77424737  0.30750381  1
  O  O2  1  0.99148696  0.21723959  0.30750381  1
  O  O3  1  0.22575263  0.21723959  0.80750381  1
  O  O4  1  0.99148696  0.77424737  0.80750381  1
  O  O5  1  0.78276041  0.00851304  0.80750381  1
  O  O6  1  0.75577608  0.95937731  0.69548089  1
  O  O7  1  0.20360123  0.24422392  0.69548089  1
  O  O8  1  0.04062269  0.79639877  0.69548089  1
  O  O9  1  0.75577608  0.79639877  0.19548089  1
  O  O10  1  0.04062269  0.24422392  0.19548089  1
  O  O11  1  0.20360123  0.95937731  0.19548089  1
  O  O12  1  0.87801824  0.33135026  0.64166494  1
  O  O13  1  0.45333302  0.12198176  0.64166494  1
  O  O14  1  0.66864974  0.54666698  0.64166494  1
  O  O15  1  0.87801824  0.54666698  0.14166494  1
  O  O16  1  0.66864974  0.12198176  0.14166494  1
  O  O17  1  0.45333302  0.33135026  0.14166494  1
  O  O18  1  0.48472430  0.32893314  0.02887910  1
  O  O19  1  0.84420984  0.51527570  0.02887910  1
  O  O20  1  0.67106686  0.15579016  0.02887910  1
  O  O21  1  0.48472430  0.15579016  0.52887910  1
  O  O22  1  0.67106686  0.51527570  0.52887910  1
  O  O23  1  0.84420984  0.32893314  0.52887910  1
  O  O24  1  0.56691347  0.69609055  0.98161553  1
  O  O25  1  0.12917608  0.43308653  0.98161553  1
  O  O26  1  0.30390945  0.87082392  0.98161553  1
  O  O27  1  0.56691347  0.87082392  0.48161553  1
  O  O28  1  0.30390945  0.43308653  0.48161553  1
  O  O29  1  0.12917608  0.69609055  0.48161553  1
  O  O30  1  0.14143467  0.63835573  0.36605995  1
  O  O31  1  0.49692006  0.85856533  0.36605995  1
  O  O32  1  0.36164427  0.50307994  0.36605995  1
  O  O33  1  0.14143467  0.50307994  0.86605995  1
  O  O34  1  0.36164427  0.85856533  0.86605995  1
  O  O35  1  0.49692006  0.63835573  0.86605995  1
  O  O36  1  0.98916437  0.80589892  0.40903758  1
  O  O37  1  0.81673455  0.01083563  0.40903758  1
  O  O38  1  0.19410108  0.18326545  0.40903758  1
  O  O39  1  0.98916437  0.18326545  0.90903758  1
  O  O40  1  0.19410108  0.01083563  0.90903758  1
  O  O41  1  0.81673455  0.80589892  0.90903758  1
  O  O42  1  0.96245178  0.16697307  0.57515092  1
  O  O43  1  0.20452129  0.03754822  0.57515092  1
  O  O44  1  0.83302693  0.79547871  0.57515092  1
  O  O45  1  0.96245178  0.79547871  0.07515092  1
  O  O46  1  0.83302693  0.03754822  0.07515092  1
  O  O47  1  0.20452129  0.16697307  0.07515092  1
  O  O48  1  0.64720626  0.13284862  0.74956467  1
  O  O49  1  0.48564337  0.35279374  0.74956467  1
  O  O50  1  0.86715138  0.51435663  0.74956467  1
  O  O51  1  0.64720626  0.51435663  0.24956467  1
  O  O52  1  0.86715138  0.35279374  0.24956467  1
  O  O53  1  0.48564337  0.13284862  0.24956467  1
  O  O54  1  0.62794768  0.47890888  0.92204649  1
  O  O55  1  0.85096220  0.37205232  0.92204649  1
  O  O56  1  0.52109112  0.14903780  0.92204649  1
  O  O57  1  0.62794768  0.14903780  0.42204649  1
  O  O58  1  0.52109112  0.37205232  0.42204649  1
  O  O59  1  0.85096220  0.47890888  0.42204649  1
  O  O60  1  0.35121321  0.48126428  0.08103700  1
  O  O61  1  0.13005006  0.64878679  0.08103700  1
  O  O62  1  0.51873572  0.86994994  0.08103700  1
  O  O63  1  0.35121321  0.86994994  0.58103700  1
  O  O64  1  0.51873572  0.64878679  0.58103700  1
  O  O65  1  0.13005006  0.48126428  0.58103700  1
  O  O66  1  0.31853540  0.82361827  0.25874925  1
  O  O67  1  0.50508187  0.68146460  0.25874925  1
  O  O68  1  0.17638173  0.49491813  0.25874925  1
  O  O69  1  0.31853540  0.49491813  0.75874925  1
  O  O70  1  0.17638173  0.68146460  0.75874925  1
  O  O71  1  0.50508187  0.82361827  0.75874925  1
loop_
_geom_bond_atom_site_label_1
_geom_bond_atom_site_label_2
_geom_bond_distance
_geom_bond_site_symmetry_2
Na0 O53 2.397955 1_555
Na0 O16 2.487914 1_555
Na0 O67 2.677162 1_545
Na0 O66 2.742349 1_545
Na0 O9 2.819803 1_545
Na0 O52 2.862981 1_555
Na1 O51 2.397963 1_555
Na1 O17 2.487918 1_555
Na1 O68 2.677171 1_555
Na1 O67 2.742350 1_555
Na1 O10 2.819803 1_555
Na1 O53 2.862989 1_555
Na2 O52 2.397963 1_555
Na2 O15 2.487916 1_555
Na2 O66 2.677163 1_655
Na2 O68 2.742341 1_655
Na2 O11 2.819802 1_655
Na2 O51 2.862980 1_555
Na3 O49 2.397963 1_555
Na3 O14 2.487918 1_555
Na3 O71 2.677171 1_555
Na3 O69 2.742350 1_555
Na3 O6 2.819802 1_555
Na3 O50 2.862989 1_555
Na4 O50 2.397955 1_555
Na4 O12 2.487914 1_555
Na4 O69 2.677162 1_655
Na4 O70 2.742349 1_655
Na4 O7 2.819803 1_655
Na4 O48 2.862981 1_555
Na5 O48 2.397963 1_555
Na5 O13 2.487916 1_555
Na5 O70 2.677163 1_545
Na5 O71 2.742341 1_545
Na5 O8 2.819803 1_545
Na5 O49 2.862980 1_555
Na6 O28 2.300857 1_555
Na6 O65 2.491036 1_555
Na6 O43 2.530664 1_555
Na6 O64 2.618021 1_555
Na6 O42 2.695411 1_455
Na6 O7 2.790909 1_555
Na7 O29 2.300850 1_555
Na7 O63 2.491020 1_555
Na7 O44 2.530673 1_455
Na7 O65 2.618008 1_555
Na7 O43 2.695411 1_565
Na7 O8 2.790911 1_555
Na8 O27 2.300854 1_555
Na8 O64 2.491019 1_555
Na8 O42 2.530666 1_565
Na8 O63 2.618026 1_555
Na8 O44 2.695403 1_555
Na8 O6 2.790908 1_555
Na9 O26 2.300850 1_554
Na9 O61 2.491020 1_555
Na9 O47 2.530673 1_565
Na9 O62 2.618008 1_555
Na9 O45 2.695411 1_455
Na9 O11 2.790911 1_555
Na10 O24 2.300857 1_554
Na10 O62 2.491036 1_555
Na10 O45 2.530664 1_555
Na10 O60 2.618022 1_555
Na10 O46 2.695411 1_565
Na10 O9 2.790909 1_555
Na11 O25 2.300854 1_554
Na11 O60 2.491019 1_555
Na11 O46 2.530666 1_455
Na11 O61 2.618026 1_555
Na11 O47 2.695403 1_555
Na11 O10 2.790908 1_555
Na12 O41 2.326392 1_555
Na12 O4 2.494147 1_555
Na12 O40 2.623563 1_665
Na12 O55 2.648240 1_555
Na13 O39 2.326399 1_555
Na13 O5 2.494150 1_555
Na13 O41 2.623570 1_545
Na13 O56 2.648223 1_555
Na14 O40 2.326401 1_555
Na14 O3 2.494148 1_555
Na14 O39 2.623561 1_455
Na14 O54 2.648239 1_555
Na15 O37 2.326399 1_555
Na15 O2 2.494150 1_555
Na15 O38 2.623570 1_655
Na15 O59 2.648223 1_555
Na16 O38 2.326392 1_555
Na16 O0 2.494147 1_555
Na16 O36 2.623563 1_445
Na16 O57 2.648240 1_555
Na17 O36 2.326401 1_555
Na17 O1 2.494148 1_555
Na17 O37 2.623561 1_565
Na17 O58 2.648238 1_555
Na18 O44 2.547258 1_445
Na18 O42 2.547259 1_455
Na18 O43 2.547259 1_555
Na18 O36 2.603880 1_445
Na18 O38 2.603880 1_555
Na18 O37 2.603880 1_455
Na19 O45 2.547258 1_446
Na19 O47 2.547259 1_556
Na19 O46 2.547259 1_456
Na19 O41 2.603880 1_445
Na19 O39 2.603880 1_455
Na19 O40 2.603880 1_555
Na20 O50 2.540005 1_555
Na20 O49 2.540005 1_555
Na20 O48 2.540005 1_555
Na20 O56 2.616131 1_555
Na20 O54 2.616131 1_555
Na20 O55 2.616131 1_555
Na21 O51 2.540005 1_555
Na21 O53 2.540005 1_555
Na21 O52 2.540005 1_555
Na21 O57 2.616131 1_555
Na21 O59 2.616131 1_555
Na21 O58 2.616131 1_555
Na22 O60 2.598234 1_555
Na22 O62 2.598234 1_555
Na22 O61 2.598234 1_555
Na22 O68 2.650885 1_555
Na22 O66 2.650885 1_555
Na22 O67 2.650885 1_555
Na23 O65 2.598234 1_555
Na23 O64 2.598234 1_555
Na23 O63 2.598234 1_555
Na23 O69 2.650885 1_555
Na23 O71 2.650885 1_555
Na23 O70 2.650885 1_555
Ca0 O1 2.258305 1_445
Ca0 O2 2.258305 1_455
Ca0 O0 2.258305 1_555
Ca0 O36 2.276305 1_445
Ca0 O38 2.276305 1_555
Ca0 O37 2.276305 1_455
Ca1 O4 2.258305 1_445
Ca1 O3 2.258305 1_555
Ca1 O5 2.258305 1_455
Ca1 O41 2.276305 1_445
Ca1 O39 2.276305 1_455
Ca1 O40 2.276305 1_555
Ca2 O7 2.378905 1_555
Ca2 O8 2.378905 1_545
Ca2 O6 2.378905 1_445
Ca2 O44 2.426127 1_445
Ca2 O42 2.426127 1_455
Ca2 O43 2.426127 1_555
Ca3 O10 2.378905 1_555
Ca3 O9 2.378905 1_445
Ca3 O11 2.378905 1_545
Ca3 O45 2.426127 1_445
Ca3 O47 2.426127 1_555
Ca3 O46 2.426127 1_455
Ca4 O14 2.206014 1_555
Ca4 O13 2.206014 1_555
Ca4 O12 2.206014 1_555
Ca4 O50 2.341435 1_555
Ca4 O49 2.341435 1_555
Ca4 O48 2.341435 1_555
Ca5 O15 2.206014 1_555
Ca5 O16 2.206014 1_555
Ca5 O17 2.206014 1_555
Ca5 O51 2.341435 1_555
Ca5 O53 2.341435 1_555
Ca5 O52 2.341435 1_555
Ca6 O25 2.198544 1_554
Ca6 O26 2.198544 1_554
Ca6 O24 2.198544 1_554
Ca6 O60 2.376931 1_555
Ca6 O62 2.376931 1_555
Ca6 O61 2.376931 1_555
Ca7 O28 2.198544 1_555
Ca7 O27 2.198544 1_555
Ca7 O29 2.198544 1_555
Ca7 O65 2.376931 1_555
Ca7 O64 2.376931 1_555
Ca7 O63 2.376931 1_555
Nb0 O56 2.020800 1_555
Nb0 O54 2.020800 1_555
Nb0 O55 2.020800 1_555
Nb0 O19 2.044266 1_556
Nb0 O20 2.044266 1_556
Nb0 O18 2.044266 1_556
Nb1 O57 2.020800 1_555
Nb1 O59 2.020800 1_555
Nb1 O58 2.020800 1_555
Nb1 O22 2.044266 1_555
Nb1 O21 2.044266 1_555
Nb1 O23 2.044266 1_555
Nb2 O31 1.945889 1_555
Nb2 O32 1.945889 1_555
Nb2 O30 1.945889 1_555
Nb2 O68 2.120817 1_555
Nb2 O66 2.120817 1_555
Nb2 O67 2.120817 1_555
Nb3 O34 1.945889 1_555
Nb3 O33 1.945889 1_555
Nb3 O35 1.945889 1_555
Nb3 O69 2.120817 1_555
Nb3 O71 2.120817 1_555
Nb3 O70 2.120817 1_555
O0 P0 1.529136 1_545
O1 P1 1.529136 1_555
O2 P2 1.529136 1_655
O3 P3 1.529136 1_555
O4 P4 1.529136 1_655
O5 P5 1.529136 1_545
O6 P5 1.547149 1_555
O7 P3 1.547149 1_555
O8 P4 1.547149 1_555
O9 P1 1.547149 1_555
O10 P2 1.547149 1_555
O11 P0 1.547149 1_555
O12 P6 1.527227 1_555
O13 P7 1.527227 1_555
O14 P8 1.527227 1_555
O15 P9 1.527227 1_555
O16 P10 1.527227 1_555
O17 P11 1.527227 1_555
O18 P11 1.618681 1_555
O19 P9 1.618681 1_555
O20 P10 1.618681 1_555
O21 P7 1.618681 1_555
O22 P8 1.618681 1_555
O23 P6 1.618681 1_555
O24 Si0 1.590106 1_555
O25 Si1 1.590106 1_555
O26 Si2 1.590106 1_555
O27 Si3 1.590106 1_555
O28 Si4 1.590106 1_555
O29 Si5 1.590106 1_555
O30 Si5 1.727749 1_555
O31 Si3 1.727749 1_555
O32 Si4 1.727749 1_555
O33 Si1 1.727749 1_555
O34 Si2 1.727749 1_555
O35 Si0 1.727749 1_555
O36 Si5 1.601474 1_655
O37 Si3 1.601483 1_545
O38 Si4 1.601480 1_555
O39 Si1 1.601483 1_655
O40 Si2 1.601474 1_545
O41 Si0 1.601480 1_555
O42 P6 1.547923 1_555
O43 P7 1.547932 1_555
O44 P8 1.547927 1_555
O45 P9 1.547932 1_555
O46 P10 1.547923 1_555
O47 P11 1.547927 1_555
O48 P5 1.550558 1_545
O49 P3 1.550568 1_555
O50 P4 1.550564 1_655
O51 P1 1.550568 1_555
O52 P2 1.550558 1_655
O53 P0 1.550564 1_545
O54 Si0 1.687981 1_555
O55 Si1 1.687963 1_655
O56 Si2 1.687972 1_545
O57 Si3 1.687963 1_545
O58 Si4 1.687981 1_555
O59 Si5 1.687972 1_655
O60 P11 1.543177 1_555
O61 P9 1.543158 1_455
O62 P10 1.543166 1_565
O63 P7 1.543158 1_565
O64 P8 1.543177 1_555
O65 P6 1.543166 1_455
O66 P0 1.596029 1_555
O67 P1 1.596039 1_555
O68 P2 1.596034 1_555
O69 P3 1.596039 1_555
O70 P4 1.596029 1_555
O71 P5 1.596034 1_555
