# generated using pymatgen
data_Li2NiPO4F
_symmetry_space_group_name_H-M   'P 1'
_cell_length_a   5.34069350
_cell_length_b   7.41069028
_cell_length_c   10.62418342
_cell_angle_alpha   71.61378050
_cell_angle_beta   94.10787639
_cell_angle_gamma   71.67246137
_symmetry_Int_Tables_number   1
_chemical_formula_structural   Li2NiPO4F
_chemical_formula_sum   'Li8 Ni4 P4 O16 F4'
_cell_volume   371.90826541
_cell_formula_units_Z   4
loop_
 _symmetry_equiv_pos_site_id
 _symmetry_equiv_pos_as_xyz
  1  'x, y, z'
loop_
 _atom_site_type_symbol
 _atom_site_label
 _atom_site_symmetry_multiplicity
 _atom_site_fract_x
 _atom_site_fract_y
 _atom_site_fract_z
 _atom_site_occupancy
  Li  Li0  1  0.45802400  0.11287400  0.42856400  1
  Li  Li1  1  0.45809100  0.11303200  0.92834700  1
  Li  Li2  1  0.82981700  0.86287700  0.24200400  1
  Li  Li3  1  0.82866000  0.86292300  0.74217900  1
  Li  Li4  1  0.05234900  0.47205900  0.25726800  1
  Li  Li5  1  0.05203000  0.47226700  0.75722200  1
  Li  Li6  1  0.54749100  0.70436700  0.11073400  1
  Li  Li7  1  0.54758800  0.70430500  0.61062900  1
  Ni  Ni0  1  0.00077800  0.01695900  0.49700800  1
  Ni  Ni1  1  0.00275900  0.50730200  0.50237600  1
  Ni  Ni2  1  0.00023200  0.01727200  0.99689900  1
  Ni  Ni3  1  0.00307400  0.50689600  0.00243600  1
  P  P0  1  0.63047800  0.26231600  0.17078500  1
  P  P1  1  0.63047200  0.26239500  0.67072000  1
  P  P2  1  0.36493400  0.76802700  0.32682500  1
  P  P3  1  0.36522800  0.76811100  0.82673200  1
  O  O0  1  0.19066300  0.63185300  0.35600800  1
  O  O1  1  0.18932000  0.63318300  0.85575700  1
  O  O2  1  0.77738900  0.41760900  0.14148500  1
  O  O3  1  0.77730600  0.41772800  0.64146400  1
  O  O4  1  0.67054100  0.65180700  0.33945300  1
  O  O5  1  0.67104500  0.65118000  0.84000000  1
  O  O6  1  0.33490900  0.88199700  0.42883600  1
  O  O7  1  0.33517100  0.88243100  0.92856200  1
  O  O8  1  0.67716400  0.14069600  0.07370700  1
  O  O9  1  0.67739200  0.14069500  0.57374100  1
  O  O10  1  0.73979100  0.09875800  0.31662900  1
  O  O11  1  0.73988800  0.09885200  0.81657600  1
  O  O12  1  0.32829800  0.37720900  0.15830800  1
  O  O13  1  0.32826500  0.37723600  0.65841800  1
  O  O14  1  0.27012900  0.90935900  0.17707700  1
  O  O15  1  0.27277400  0.90875500  0.67671700  1
  F  F0  1  0.88959200  0.75369000  0.07730100  1
  F  F1  1  0.88961100  0.75369900  0.57729200  1
  F  F2  1  0.10278300  0.27097900  0.43221900  1
  F  F3  1  0.10269500  0.27112900  0.93183900  1
loop_
_geom_bond_atom_site_label_1
_geom_bond_atom_site_label_2
_geom_bond_distance
_geom_bond_site_symmetry_2
Li0 O9 1.971721 1_555
Li0 O10 1.981305 1_555
Li0 O6 2.016029 1_545
Li1 O8 1.971699 1_556
Li1 O11 1.980263 1_555
Li1 O7 2.013614 1_545
Li2 O4 2.045356 1_555
Li2 O10 2.077433 1_565
Li2 O0 2.096318 1_655
Li2 O8 2.124555 1_565
Li3 O5 2.044064 1_555
Li3 O11 2.076194 1_565
Li3 O1 2.091277 1_655
Li3 O9 2.124989 1_565
Li4 O12 1.951442 1_555
Li4 O2 2.063825 1_455
Li4 O0 2.066686 1_555
Li4 O4 2.444453 1_455
Li5 O13 1.951704 1_555
Li5 O3 2.063144 1_455
Li5 O1 2.069545 1_555
Li5 O5 2.442701 1_455
Li6 O7 1.976458 1_554
Li6 O2 1.998460 1_555
Li6 O14 2.099685 1_555
Li6 O4 2.345509 1_555
Li7 O6 1.973604 1_555
Li7 O3 1.996912 1_555
Li7 O15 2.088764 1_555
Li7 O5 2.351478 1_555
Ni0 O9 2.040987 1_455
Ni0 O6 2.056454 1_545
Ni0 O15 2.074304 1_545
Ni0 O10 2.082279 1_455
Ni1 O0 2.043976 1_555
Ni1 O3 2.052511 1_455
Ni1 O13 2.055434 1_555
Ni1 O4 2.118176 1_455
Ni2 O8 2.039507 1_456
Ni2 O7 2.060354 1_545
Ni2 O14 2.072588 1_546
Ni2 O11 2.080399 1_455
Ni3 O1 2.044793 1_554
Ni3 O2 2.052558 1_455
Ni3 O12 2.053534 1_555
Ni3 O5 2.114485 1_454
O0 P2 1.554157 1_555
O1 P3 1.554118 1_555
O2 P0 1.553633 1_555
O3 P1 1.553570 1_555
O4 P2 1.560573 1_555
O5 P3 1.561483 1_555
O6 P2 1.559107 1_555
O7 P3 1.559317 1_555
O8 P0 1.555682 1_555
O9 P1 1.555250 1_555
O10 P0 1.565707 1_555
O11 P1 1.565793 1_555
O12 P0 1.543055 1_555
O13 P1 1.543408 1_555
O14 P2 1.544141 1_555
O15 P3 1.544655 1_555
F0 Li6 2.007229 1_555
F0 Li2 2.151590 1_555
F0 Ni3 2.152792 1_655
F0 Ni2 2.154045 1_664
F0 Li4 2.206993 1_655
F1 Li7 2.006850 1_555
F1 Ni1 2.150494 1_655
F1 Ni0 2.153467 1_665
F1 Li3 2.154157 1_555
F1 Li5 2.205910 1_655
F2 Li0 1.901334 1_555
F2 Li4 1.917410 1_555
F2 Ni0 2.048293 1_555
F2 Ni1 2.049438 1_555
F3 Li1 1.901487 1_555
F3 Li5 1.914848 1_555
F3 Ni3 2.048797 1_556
F3 Ni2 2.048819 1_555
