# generated using pymatgen
data_Na14Ca4In4Si5S7O48
_symmetry_space_group_name_H-M   'P 1'
_cell_length_a   18.75016939
_cell_length_b   9.34541232
_cell_length_c   22.90389165
_cell_angle_alpha   89.90296766
_cell_angle_beta   89.84315111
_cell_angle_gamma   119.85090390
_symmetry_Int_Tables_number   1
_chemical_formula_structural   Na14Ca4In4Si5S7O48
_chemical_formula_sum   'Na42 Ca12 In12 Si15 S21 O144'
_cell_volume   3480.88578242
_cell_formula_units_Z   3
loop_
 _symmetry_equiv_pos_site_id
 _symmetry_equiv_pos_as_xyz
  1  'x, y, z'
loop_
 _atom_site_type_symbol
 _atom_site_label
 _atom_site_symmetry_multiplicity
 _atom_site_fract_x
 _atom_site_fract_y
 _atom_site_fract_z
 _atom_site_occupancy
  Na  Na0  1  0.80756648  0.99689859  0.24673725  1
  Na  Na1  1  0.18611600  0.35551313  0.25225238  1
  Na  Na2  1  0.67961272  0.34651518  0.25121212  1
  Na  Na3  1  0.00831370  0.65442316  0.24399488  1
  Na  Na4  1  0.50824096  0.65282579  0.23380918  1
  Na  Na5  1  0.31962489  0.61663003  0.75086094  1
  Na  Na6  1  0.00766676  0.36215433  0.73424612  1
  Na  Na7  1  0.50704039  0.37810327  0.74404185  1
  Na  Na8  1  0.18516530  0.02029104  0.75012039  1
  Na  Na9  1  0.67232519  0.99651715  0.75010026  1
  Na  Na10  1  0.14651759  0.31852924  0.58631689  1
  Na  Na11  1  0.65211347  0.32101405  0.58289320  1
  Na  Na12  1  0.32468735  0.97221923  0.59289067  1
  Na  Na13  1  0.83270579  0.98912401  0.58775290  1
  Na  Na14  1  0.15648302  0.98996707  0.07246314  1
  Na  Na15  1  0.64468485  0.97063157  0.07763102  1
  Na  Na16  1  0.33583105  0.67855618  0.08125163  1
  Na  Na17  1  0.82204433  0.67550184  0.08416196  1
  Na  Na18  1  0.48578460  0.68024609  0.91636977  1
  Na  Na19  1  0.99223200  0.68139378  0.91616022  1
  Na  Na20  1  0.34051902  0.03398438  0.91087699  1
  Na  Na21  1  0.83922210  0.02211711  0.91048525  1
  Na  Na22  1  0.16958313  0.27667203  0.91330409  1
  Na  Na23  1  0.66553894  0.27254611  0.91564953  1
  Na  Na24  1  0.49311739  0.30438477  0.42178223  1
  Na  Na25  1  0.98823558  0.29814810  0.43556657  1
  Na  Na26  1  0.16786829  0.06303704  0.42336706  1
  Na  Na27  1  0.66775141  0.05929254  0.42087813  1
  Na  Na28  1  0.34381815  0.65712272  0.41817141  1
  Na  Na29  1  0.83834666  0.64825158  0.41813820  1
  Na  Na30  1  0.01305472  0.02007437  0.50951806  1
  Na  Na31  1  0.51617843  0.00804271  0.50610209  1
  Na  Na32  1  0.01649109  0.02877789  0.00113488  1
  Na  Na33  1  0.51481496  0.00618962  0.00407191  1
  Na  Na34  1  0.32824377  0.33643561  0.82506209  1
  Na  Na35  1  0.81282918  0.32142480  0.82691987  1
  Na  Na36  1  0.31767643  0.30745940  0.32953923  1
  Na  Na37  1  0.80966026  0.31180963  0.33540642  1
  Na  Na38  1  0.17215782  0.67157525  0.16407658  1
  Na  Na39  1  0.65223985  0.64856359  0.16125542  1
  Na  Na40  1  0.15449168  0.65368084  0.66403557  1
  Na  Na41  1  0.66073825  0.67163504  0.67091481  1
  Ca  Ca0  1  0.01148252  0.01716096  0.34909911  1
  Ca  Ca1  1  0.50702106  0.01133486  0.34841198  1
  Ca  Ca2  1  0.00636387  0.00195995  0.84783518  1
  Ca  Ca3  1  0.50968062  -0.00258940  0.84584656  1
  Ca  Ca4  1  0.33090704  0.33139700  0.67931063  1
  Ca  Ca5  1  0.82532626  0.33037899  0.17698529  1
  Ca  Ca6  1  0.33218234  0.33379883  0.98871943  1
  Ca  Ca7  1  0.82670441  0.32012260  0.98695062  1
  Ca  Ca8  1  0.32653771  0.33298277  0.48852007  1
  Ca  Ca9  1  0.83155972  0.33043501  0.49040828  1
  Ca  Ca10  1  0.66415035  0.66227450  0.31585441  1
  Ca  Ca11  1  0.16567314  0.66633843  0.81523233  1
  In  In0  1  0.00736501  0.00792537  0.65086288  1
  In  In1  1  0.51498327  0.00300454  0.65786847  1
  In  In2  1  0.01133280  0.01053294  0.15264372  1
  In  In3  1  0.50844631  0.00814573  0.14962144  1
  In  In4  1  0.82720035  0.32026665  0.67606262  1
  In  In5  1  0.32795175  0.33257586  0.17559511  1
  In  In6  1  0.16360854  0.65909708  0.01586174  1
  In  In7  1  0.65032474  0.65399341  0.02060520  1
  In  In8  1  0.15255716  0.64787358  0.52287220  1
  In  In9  1  0.66355890  0.66655391  0.51681680  1
  In  In10  1  0.17266441  0.68007038  0.31669160  1
  In  In11  1  0.66671529  0.66609624  0.81392942  1
  Si  Si0  1  0.15667950  0.99980537  0.24922500  1
  Si  Si1  1  0.65332696  -0.00008015  0.25157256  1
  Si  Si2  1  0.15190297  0.30798643  0.75127954  1
  Si  Si3  1  0.65834065  0.31367923  0.74915666  1
  Si  Si4  1  0.49854402  0.68815538  0.75516489  1
  Si  Si5  1  0.98191420  0.32438850  0.58528474  1
  Si  Si6  1  0.17769309  0.01758845  0.58138087  1
  Si  Si7  1  0.67772919  0.01806041  0.58063289  1
  Si  Si8  1  0.48162121  0.63826732  0.08628050  1
  Si  Si9  1  0.17792686  0.33799528  0.08347598  1
  Si  Si10  1  0.67701952  0.33918742  0.08282494  1
  Si  Si11  1  0.16666051  0.96399343  0.91927192  1
  Si  Si12  1  0.66898598  0.95898882  0.91749008  1
  Si  Si13  1  0.16812364  0.38147859  0.41491076  1
  Si  Si14  1  0.66730966  0.36953068  0.41761245  1
  S  S0  1  0.34901937  0.69964807  0.25020762  1
  S  S1  1  0.85640352  0.71118224  0.24846912  1
  S  S2  1  0.00012104  0.30376998  0.25011859  1
  S  S3  1  0.49427490  0.29675061  0.24911269  1
  S  S4  1  0.99463618  0.69183322  0.74899893  1
  S  S5  1  0.35427678  0.99889024  0.74832754  1
  S  S6  1  0.85088351  0.00177729  0.74976126  1
  S  S7  1  0.48696650  0.32811133  0.58220166  1
  S  S8  1  0.33678582  0.65204801  0.58213928  1
  S  S9  1  0.83280678  0.64009881  0.58273225  1
  S  S10  1  0.98673658  0.64267864  0.08469347  1
  S  S11  1  0.33243757  0.02532481  0.08418644  1
  S  S12  1  0.83889941  0.02434676  0.08546560  1
  S  S13  1  0.31693491  0.67136947  0.91815085  1
  S  S14  1  0.81353131  0.66766043  0.91827722  1
  S  S15  1  0.01527480  0.36579521  0.91736348  1
  S  S16  1  0.51709876  0.36580335  0.91482904  1
  S  S17  1  0.31518956  0.96423804  0.41812647  1
  S  S18  1  0.81726935  0.96538258  0.41550463  1
  S  S19  1  0.01751259  0.66480768  0.41319399  1
  S  S20  1  0.51443881  0.66343954  0.41663189  1
  O  O0  1  0.12094648  0.03889199  0.30773408  1
  O  O1  1  0.61448445  0.02236957  0.31209557  1
  O  O2  1  0.39262369  0.78106632  0.30424708  1
  O  O3  1  0.90290773  0.79538193  0.30140571  1
  O  O4  1  0.48616384  0.21159784  0.30525111  1
  O  O5  1  0.98649103  0.20799627  0.30398848  1
  O  O6  1  0.11138363  0.20897390  0.81188898  1
  O  O7  1  0.62271146  0.20244667  0.80779199  1
  O  O8  1  0.47976811  0.75637748  0.81469384  1
  O  O9  1  0.98600512  0.75973738  0.80522025  1
  O  O10  1  0.40023414  0.01106491  0.80187757  1
  O  O11  1  0.89595603  0.01042673  0.80373507  1
  O  O12  1  0.39760242  0.98588494  0.69515648  1
  O  O13  1  0.89253449  0.98565087  0.69721523  1
  O  O14  1  0.09050505  0.21269464  0.69520643  1
  O  O15  1  0.59637497  0.23587753  0.69127898  1
  O  O16  1  -0.00130047  0.79731262  0.69954161  1
  O  O17  1  0.51193856  0.81186980  0.69985260  1
  O  O18  1  0.39040420  0.79757921  0.19779503  1
  O  O19  1  0.89770365  0.81436821  0.19515375  1
  O  O20  1  0.00892449  0.21371404  0.19946106  1
  O  O21  1  0.49888959  0.20075803  0.19957237  1
  O  O22  1  0.09157921  0.95118039  0.19335989  1
  O  O23  1  0.59313479  0.97636900  0.19548160  1
  O  O24  1  0.44660225  0.34522979  0.63419681  1
  O  O25  1  0.93522619  0.34692830  0.64282802  1
  O  O26  1  0.23691906  0.09911648  0.63780255  1
  O  O27  1  0.73742681  0.09969528  0.63831853  1
  O  O28  1  0.32880359  0.54948153  0.63332292  1
  O  O29  1  0.82037559  0.52532110  0.63127660  1
  O  O30  1  0.43725321  0.52616529  0.14575041  1
  O  O31  1  0.94812162  0.54910506  0.13847723  1
  O  O32  1  0.31893144  0.11185117  0.13359084  1
  O  O33  1  0.83192695  0.10876614  0.13788252  1
  O  O34  1  0.23427379  0.37263575  0.14315679  1
  O  O35  1  0.73244929  0.37668600  0.14200190  1
  O  O36  1  0.21649624  0.30018726  0.02670786  1
  O  O37  1  0.72000173  0.30543303  0.02662491  1
  O  O38  1  0.43141533  0.55771430  0.02751476  1
  O  O39  1  0.93988510  0.55737810  0.03221180  1
  O  O40  1  0.34409244  0.11362698  0.02903524  1
  O  O41  1  0.85256794  0.12360960  0.03244372  1
  O  O42  1  0.21504225  0.12879802  0.52201856  1
  O  O43  1  0.71583696  0.12413882  0.52165895  1
  O  O44  1  0.34930210  0.58138361  0.52802978  1
  O  O45  1  0.84571857  0.57833867  0.52686545  1
  O  O46  1  0.44186452  0.32094114  0.52803967  1
  O  O47  1  0.93610381  0.31072725  0.52445569  1
  O  O48  1  0.27448785  0.68006300  0.97260038  1
  O  O49  1  0.77440053  0.68232225  0.97268234  1
  O  O50  1  0.07034822  0.44294308  0.96870134  1
  O  O51  1  0.57084290  0.44294596  0.96601705  1
  O  O52  1  0.15626843  0.85009621  0.97950028  1
  O  O53  1  0.66366827  0.85609581  0.97776196  1
  O  O54  1  0.27363874  0.86520387  0.47038846  1
  O  O55  1  0.77528276  0.86711127  0.46882299  1
  O  O56  1  0.16073534  0.47991575  0.47165610  1
  O  O57  1  0.65862338  0.46989070  0.47543365  1
  O  O58  1  0.07225531  0.69350798  0.46307791  1
  O  O59  1  0.57002085  0.69451307  0.46698567  1
  O  O60  1  0.05595148  0.64900777  0.35777359  1
  O  O61  1  0.55236156  0.64829896  0.36217833  1
  O  O62  1  0.26239286  0.89319367  0.36510839  1
  O  O63  1  0.76838168  0.88635974  0.36277452  1
  O  O64  1  0.17759966  0.48747387  0.35380667  1
  O  O65  1  0.67586553  0.46822198  0.35721540  1
  O  O66  1  0.05417894  0.45845967  0.86369449  1
  O  O67  1  0.55684278  0.46121531  0.86101901  1
  O  O68  1  0.17331935  0.87419083  0.86085767  1
  O  O69  1  0.68280898  0.86815434  0.86022475  1
  O  O70  1  0.26644583  0.65208741  0.86634918  1
  O  O71  1  0.76025115  0.63871795  0.86707742  1
  O  O72  1  0.00379742  0.80865953  0.41041109  1
  O  O73  1  0.49807676  0.80389650  0.41483102  1
  O  O74  1  0.39482605  0.96727024  0.41145203  1
  O  O75  1  0.89876176  0.97312645  0.41306560  1
  O  O76  1  0.08448097  0.19914819  0.41738652  1
  O  O77  1  0.58223001  0.18705749  0.42172381  1
  O  O78  1  -0.00164922  0.19249277  0.91543221  1
  O  O79  1  0.50266327  0.19452009  0.91162333  1
  O  O80  1  0.08163711  0.97739609  0.92196193  1
  O  O81  1  0.58579972  0.97499292  0.91896382  1
  O  O82  1  0.39677577  0.82805210  0.91641598  1
  O  O83  1  0.89413038  0.82411196  0.91228046  1
  O  O84  1  0.48945607  0.16920180  0.58466885  1
  O  O85  1  0.98294425  0.14742472  0.58960791  1
  O  O86  1  0.08583224  0.00006851  0.58792010  1
  O  O87  1  0.58890480  0.01421467  0.58781289  1
  O  O88  1  0.40600178  0.82554146  0.58803263  1
  O  O89  1  0.90262418  0.80872625  0.59252743  1
  O  O90  1  0.48394565  0.81870501  0.09048965  1
  O  O91  1  0.98825172  0.80680601  0.08579230  1
  O  O92  1  0.40231296  0.99684920  0.09389654  1
  O  O93  1  0.90913070  0.99007570  0.09110580  1
  O  O94  1  0.08667280  0.16732753  0.08926978  1
  O  O95  1  0.58547782  0.17236791  0.08658772  1
  O  O96  1  0.34598574  0.14844957  0.74513055  1
  O  O97  1  0.84763275  0.15965175  0.74769151  1
  O  O98  1  0.24216014  0.32073659  0.74656688  1
  O  O99  1  0.74727317  0.31688082  0.73930024  1
  O  O100  1  0.42290914  0.50089804  0.74563178  1
  O  O101  1  0.92453568  0.52035018  0.74371326  1
  O  O102  1  0.34397633  0.53307804  0.24905884  1
  O  O103  1  0.85382395  0.54976817  0.24513132  1
  O  O104  1  0.42335548  0.32662078  0.24429891  1
  O  O105  1  0.92996465  0.33288139  0.24253200  1
  O  O106  1  0.24615183  0.17041504  0.23913374  1
  O  O107  1  0.74588387  0.16606252  0.24743494  1
  O  O108  1  0.32956524  0.52672086  0.91999527  1
  O  O109  1  0.83000534  0.52655315  0.92071530  1
  O  O110  1  0.43653718  0.35942845  0.92045077  1
  O  O111  1  0.93633505  0.36524825  0.92452146  1
  O  O112  1  0.25046652  0.14554627  0.92111912  1
  O  O113  1  0.75253965  0.14340942  0.91640805  1
  O  O114  1  0.33163146  0.13732290  0.42155177  1
  O  O115  1  0.82953693  0.13498109  0.41828498  1
  O  O116  1  0.25170132  0.36505568  0.41502525  1
  O  O117  1  0.75140289  0.35540293  0.42056012  1
  O  O118  1  0.43488299  0.50725009  0.42368067  1
  O  O119  1  0.93687471  0.51155371  0.41867734  1
  O  O120  1  0.17397648  0.51261395  0.07905117  1
  O  O121  1  0.67504224  0.51456518  0.07658572  1
  O  O122  1  0.07327069  0.67617242  0.08283901  1
  O  O123  1  0.57821512  0.67997237  0.08653484  1
  O  O124  1  0.25496072  0.85769033  0.08261509  1
  O  O125  1  0.76161671  0.86070187  0.08190171  1
  O  O126  1  0.17586329  0.83811313  0.57659689  1
  O  O127  1  0.67379909  0.83524335  0.57781388  1
  O  O128  1  0.25830393  0.65827890  0.57928951  1
  O  O129  1  0.75526055  0.65144371  0.58108490  1
  O  O130  1  0.07881016  0.47482865  0.58697161  1
  O  O131  1  0.57355104  0.46931304  0.58070138  1
  O  O132  1  0.15945359  0.82288178  0.25326480  1
  O  O133  1  0.66241387  0.83349719  0.24792247  1
  O  O134  1  0.26215300  0.66919714  0.24982491  1
  O  O135  1  0.77241611  0.68846354  0.24931750  1
  O  O136  1  0.07842931  0.46772681  0.25151406  1
  O  O137  1  0.57237454  0.46072125  0.24769686  1
  O  O138  1  0.16199655  0.49279768  0.74740803  1
  O  O139  1  0.66561710  0.49690175  0.75416200  1
  O  O140  1  0.07332498  0.68625076  0.74767774  1
  O  O141  1  0.58714234  0.68617128  0.75388956  1
  O  O142  1  0.27123672  0.84836464  0.74880075  1
  O  O143  1  0.76543989  0.86032754  0.75022229  1
loop_
_geom_bond_atom_site_label_1
_geom_bond_atom_site_label_2
_geom_bond_distance
_geom_bond_site_symmetry_2
Na0 O133 2.366865 1_555
Na0 O107 2.378508 1_565
Na0 O135 2.618097 1_555
Na0 O33 2.650886 1_565
Na0 O63 2.809770 1_555
Na0 O105 2.821249 1_565
Na1 O106 2.507601 1_555
Na1 O134 2.543198 1_555
Na1 O102 2.574666 1_555
Na1 O34 2.631915 1_555
Na1 O64 2.675872 1_555
Na1 O136 2.699070 1_555
Na1 O0 2.871020 1_555
Na2 O107 2.545871 1_555
Na2 O35 2.650216 1_555
Na2 O65 2.698375 1_555
Na2 O137 2.706593 1_555
Na2 O135 2.775868 1_555
Na2 O103 2.849096 1_555
Na2 O1 2.984309 1_555
Na3 O132 2.473384 1_555
Na3 O103 2.554866 1_455
Na3 O105 2.606724 1_455
Na3 O31 2.645831 1_455
Na3 O136 2.661931 1_555
Na3 O22 2.672577 1_555
Na3 O60 2.765647 1_555
Na4 O30 2.386415 1_555
Na4 O133 2.541644 1_555
Na4 O137 2.630514 1_555
Na4 O104 2.655123 1_555
Na4 O102 2.724379 1_555
Na4 O23 2.763857 1_555
Na5 O98 2.401939 1_555
Na5 O138 2.584085 1_555
Na5 O100 2.649303 1_555
Na5 O142 2.733378 1_555
Na5 O28 2.789515 1_555
Na5 O70 2.901414 1_555
Na5 O8 2.997678 1_555
Na6 O25 2.464438 1_455
Na6 O138 2.538514 1_555
Na6 O101 2.637343 1_455
Na6 O97 2.649562 1_455
Na6 O140 2.660308 1_555
Na6 O14 2.705427 1_555
Na7 O100 2.368246 1_555
Na7 O141 2.508965 1_555
Na7 O139 2.616398 1_555
Na7 O96 2.696952 1_555
Na7 O24 2.716594 1_555
Na7 O67 2.819979 1_555
Na7 O15 2.871156 1_555
Na8 O98 2.458463 1_555
Na8 O96 2.634888 1_555
Na8 O26 2.714858 1_555
Na8 O140 2.762303 1_545
Na8 O142 2.787152 1_545
Na8 O68 2.833680 1_545
Na9 O141 2.521366 1_555
Na9 O99 2.608999 1_565
Na9 O143 2.623018 1_555
Na9 O27 2.788803 1_565
Na9 O69 2.840210 1_555
Na9 O7 2.845907 1_565
Na9 O97 2.853424 1_565
Na9 O17 2.864547 1_555
Na10 O130 2.364634 1_555
Na10 O86 2.604181 1_555
Na10 O85 2.661845 1_455
Na10 O14 2.691561 1_555
Na10 O128 2.805678 1_555
Na10 O56 2.970709 1_555
Na10 O42 3.038086 1_555
Na11 O131 2.475011 1_555
Na11 O87 2.500678 1_555
Na11 O84 2.647221 1_555
Na11 O15 2.653150 1_555
Na11 O129 2.707714 1_555
Na11 O57 2.797510 1_555
Na11 O29 2.976054 1_555
Na11 O43 2.994623 1_555
Na12 O126 2.454089 1_555
Na12 O88 2.509197 1_555
Na12 O128 2.573706 1_555
Na12 O26 2.666536 1_565
Na12 O12 2.686353 1_555
Na12 O84 2.702398 1_565
Na12 O54 2.976579 1_555
Na13 O85 2.445015 1_565
Na13 O127 2.595540 1_555
Na13 O89 2.602542 1_555
Na13 O27 2.726006 1_565
Na13 O129 2.744409 1_555
Na13 O13 2.756170 1_555
Na13 O55 2.946830 1_555
Na13 O47 3.010453 1_565
Na14 O52 2.499288 1_554
Na14 O122 2.555660 1_555
Na14 O94 2.601553 1_565
Na14 O124 2.695427 1_555
Na14 O36 2.739550 1_565
Na14 O91 2.755200 1_455
Na14 O22 2.969645 1_555
Na14 O32 3.018319 1_565
Na15 O123 2.366419 1_555
Na15 O53 2.624439 1_554
Na15 O95 2.629158 1_565
Na15 O90 2.630588 1_555
Na15 O125 2.848705 1_555
Na15 O23 2.874163 1_555
Na15 O37 2.954451 1_565
Na16 O90 2.419931 1_555
Na16 O92 2.607594 1_555
Na16 O120 2.633153 1_555
Na16 O48 2.747296 1_554
Na16 O124 2.762196 1_555
Na16 O38 2.830147 1_555
Na16 O18 2.881217 1_555
Na16 O34 2.891709 1_555
Na17 O121 2.401271 1_555
Na17 O125 2.496835 1_555
Na17 O93 2.560943 1_555
Na17 O49 2.718483 1_554
Na17 O91 2.722703 1_555
Na17 O35 2.771402 1_555
Na17 O19 2.890911 1_555
Na18 O81 2.442665 1_555
Na18 O8 2.453130 1_555
Na18 O108 2.541633 1_555
Na18 O82 2.643529 1_555
Na18 O110 2.663269 1_555
Na18 O38 2.764903 1_556
Na19 O80 2.422020 1_655
Na19 O111 2.603588 1_555
Na19 O109 2.640691 1_555
Na19 O9 2.662060 1_555
Na19 O83 2.759178 1_555
Na19 O39 2.866112 1_556
Na20 O112 2.396705 1_555
Na20 O82 2.617883 1_545
Na20 O79 2.637023 1_555
Na20 O110 2.663275 1_555
Na20 O10 2.785202 1_555
Na20 O40 2.800108 1_556
Na20 O68 2.955645 1_545
Na21 O113 2.403800 1_555
Na21 O83 2.526312 1_545
Na21 O78 2.592992 1_655
Na21 O11 2.687732 1_555
Na21 O69 2.796413 1_545
Na21 O111 2.809966 1_555
Na21 O41 2.922573 1_556
Na22 O112 2.384223 1_555
Na22 O80 2.446641 1_545
Na22 O6 2.513577 1_555
Na22 O36 2.718542 1_556
Na22 O108 2.740065 1_555
Na22 O78 2.900701 1_555
Na23 O81 2.415286 1_545
Na23 O113 2.465301 1_555
Na23 O7 2.582504 1_555
Na23 O37 2.702274 1_556
Na23 O79 2.766175 1_555
Na23 O109 2.806010 1_555
Na24 O77 2.412028 1_555
Na24 O118 2.617100 1_555
Na24 O114 2.626745 1_555
Na24 O46 2.647053 1_555
Na24 O74 2.757333 1_545
Na24 O4 2.791014 1_555
Na24 O57 2.963393 1_555
Na25 O47 2.284406 1_555
Na25 O76 2.438298 1_655
Na25 O115 2.613000 1_555
Na25 O119 2.639304 1_555
Na25 O75 2.691375 1_545
Na25 O56 2.929177 1_655
Na26 O42 2.395814 1_555
Na26 O116 2.460423 1_555
Na26 O76 2.462080 1_555
Na26 O0 2.767014 1_555
Na26 O114 2.790934 1_555
Na26 O72 2.816109 1_545
Na27 O117 2.407700 1_555
Na27 O77 2.429675 1_555
Na27 O43 2.445504 1_555
Na27 O1 2.645344 1_555
Na27 O115 2.751153 1_555
Na27 O73 2.877812 1_545
Na28 O116 2.397240 1_555
Na28 O73 2.510401 1_555
Na28 O74 2.564670 1_555
Na28 O44 2.628801 1_555
Na28 O118 2.697125 1_555
Na28 O2 2.812311 1_555
Na29 O117 2.389196 1_555
Na29 O45 2.594947 1_555
Na29 O75 2.662498 1_555
Na29 O72 2.696103 1_655
Na29 O119 2.719302 1_555
Na30 O86 2.321185 1_555
Na30 O85 2.402231 1_455
Na30 O76 2.605474 1_555
Na30 O89 2.774471 1_445
Na30 O75 2.959474 1_445
Na30 O72 2.960120 1_545
Na31 O87 2.302467 1_555
Na31 O77 2.445590 1_555
Na31 O84 2.552057 1_555
Na31 O88 2.675512 1_545
Na31 O73 2.738216 1_545
Na32 O80 2.363401 1_544
Na32 O94 2.410448 1_555
Na32 O78 2.611733 1_554
Na32 O91 2.688969 1_445
Na32 O93 2.771186 1_445
Na32 O83 2.955349 1_444
Na33 O95 2.390488 1_555
Na33 O81 2.455668 1_544
Na33 O90 2.508984 1_545
Na33 O79 2.832375 1_554
Na33 O82 2.840487 1_544
Na33 O92 2.912434 1_545
Na34 O98 2.374885 1_555
Na34 O100 2.465692 1_555
Na34 O96 2.671705 1_555
Na34 O112 2.743871 1_555
Na34 O108 2.803609 1_555
Na34 O110 2.921292 1_555
Na35 O99 2.345614 1_555
Na35 O113 2.519948 1_555
Na35 O97 2.643738 1_555
Na35 O101 2.750427 1_555
Na35 O109 2.792291 1_555
Na36 O106 2.457786 1_555
Na36 O116 2.511330 1_555
Na36 O102 2.652082 1_555
Na36 O104 2.719270 1_555
Na36 O114 2.728316 1_555
Na36 O118 2.986608 1_555
Na37 O117 2.365813 1_555
Na37 O107 2.397089 1_555
Na37 O115 2.660723 1_555
Na37 O103 2.836923 1_555
Na37 O119 2.901055 1_555
Na37 O105 3.030200 1_555
Na38 O120 2.461774 1_555
Na38 O124 2.490337 1_555
Na38 O132 2.563491 1_555
Na38 O134 2.600078 1_555
Na38 O122 2.645691 1_555
Na38 O136 2.713544 1_555
Na39 O123 2.314817 1_555
Na39 O121 2.459351 1_555
Na39 O137 2.568848 1_555
Na39 O133 2.578586 1_555
Na39 O125 2.712849 1_555
Na39 O135 2.911298 1_555
Na40 O130 2.363349 1_555
Na40 O138 2.475708 1_555
Na40 O126 2.537412 1_555
Na40 O140 2.554599 1_555
Na40 O128 2.730202 1_555
Na40 O142 2.818098 1_555
Na41 O141 2.389037 1_555
Na41 O139 2.539581 1_555
Na41 O127 2.560887 1_555
Na41 O143 2.616727 1_555
Na41 O131 2.733414 1_555
Na41 O129 2.779222 1_555
Ca0 O0 2.173759 1_555
Ca0 O76 2.217109 1_555
Ca0 O5 2.301323 1_455
Ca0 O3 2.335148 1_445
Ca0 O72 2.345136 1_545
Ca0 O75 2.428580 1_445
Ca1 O1 2.132190 1_555
Ca1 O77 2.285136 1_555
Ca1 O4 2.314585 1_555
Ca1 O2 2.383113 1_545
Ca1 O73 2.401138 1_545
Ca1 O74 2.408056 1_545
Ca2 O6 2.119315 1_555
Ca2 O80 2.293804 1_545
Ca2 O9 2.317736 1_445
Ca2 O11 2.342289 1_455
Ca2 O83 2.421255 1_445
Ca2 O78 2.421685 1_555
Ca3 O8 2.155837 1_545
Ca3 O7 2.205561 1_555
Ca3 O81 2.279255 1_545
Ca3 O10 2.348041 1_555
Ca3 O79 2.435118 1_555
Ca3 O82 2.497244 1_545
Ca4 O26 2.220268 1_555
Ca4 O98 2.229848 1_555
Ca4 O100 2.257141 1_555
Ca4 O28 2.310363 1_555
Ca4 O24 2.344861 1_555
Ca4 O96 2.398028 1_555
Ca5 O35 2.149108 1_555
Ca5 O107 2.209496 1_555
Ca5 O33 2.316802 1_555
Ca5 O31 2.356908 1_555
Ca5 O103 2.418699 1_555
Ca5 O105 2.464617 1_555
Ca6 O38 2.183985 1_556
Ca6 O36 2.207105 1_556
Ca6 O112 2.275695 1_555
Ca6 O40 2.363967 1_556
Ca6 O108 2.410292 1_555
Ca6 O110 2.417905 1_555
Ca7 O37 2.136248 1_556
Ca7 O113 2.237576 1_555
Ca7 O111 2.359393 1_555
Ca7 O41 2.361452 1_556
Ca7 O39 2.414562 1_556
Ca7 O109 2.428518 1_555
Ca8 O42 2.148339 1_555
Ca8 O116 2.307004 1_555
Ca8 O44 2.326554 1_555
Ca8 O118 2.380435 1_555
Ca8 O46 2.400113 1_555
Ca8 O114 2.426482 1_555
Ca9 O43 2.181690 1_555
Ca9 O47 2.202676 1_555
Ca9 O117 2.287722 1_555
Ca9 O45 2.351721 1_555
Ca9 O115 2.451180 1_555
Ca9 O119 2.471642 1_555
Ca10 O65 2.150894 1_555
Ca10 O133 2.241892 1_555
Ca10 O61 2.291521 1_555
Ca10 O63 2.303206 1_555
Ca10 O137 2.396676 1_555
Ca10 O135 2.447539 1_555
Ca11 O68 2.148538 1_555
Ca11 O138 2.223965 1_555
Ca11 O70 2.284902 1_555
Ca11 O66 2.305105 1_555
Ca11 O142 2.397811 1_555
Ca11 O140 2.400283 1_555
In0 O14 2.041877 1_555
In0 O86 2.084379 1_555
In0 O85 2.114040 1_455
In0 O16 2.194709 1_545
In0 O13 2.312314 1_445
In0 O89 2.343276 1_445
In1 O17 2.002731 1_545
In1 O87 2.085511 1_555
In1 O15 2.087246 1_555
In1 O12 2.288603 1_545
In1 O88 2.477447 1_545
In1 O84 2.487558 1_555
In2 O94 2.042184 1_555
In2 O22 2.068332 1_545
In2 O20 2.202121 1_555
In2 O19 2.223160 1_445
In2 O93 2.312216 1_445
In2 O91 2.312979 1_445
In3 O23 2.047068 1_545
In3 O95 2.073704 1_555
In3 O90 2.093206 1_545
In3 O21 2.215424 1_555
In3 O92 2.324979 1_545
In3 O18 2.373185 1_545
In4 O25 2.057348 1_555
In4 O99 2.070152 1_555
In4 O27 2.095160 1_555
In4 O29 2.231376 1_555
In4 O97 2.378839 1_555
In4 O101 2.419945 1_555
In5 O30 2.058542 1_555
In5 O106 2.105547 1_555
In5 O34 2.106700 1_555
In5 O32 2.206687 1_555
In5 O104 2.406952 1_555
In5 O102 2.425996 1_555
In6 O52 2.034399 1_554
In6 O120 2.065475 1_555
In6 O50 2.192353 1_554
In6 O48 2.219234 1_554
In6 O122 2.345965 1_555
In6 O124 2.361208 1_555
In7 O53 2.028488 1_554
In7 O121 2.038471 1_555
In7 O123 2.117572 1_555
In7 O51 2.183281 1_554
In7 O49 2.461522 1_554
In7 O125 2.463648 1_555
In8 O126 2.025551 1_555
In8 O56 2.026861 1_555
In8 O130 2.106526 1_555
In8 O58 2.230037 1_555
In8 O128 2.330894 1_555
In8 O54 2.472025 1_555
In9 O57 2.030244 1_555
In9 O127 2.044881 1_555
In9 O59 2.216540 1_555
In9 O55 2.276280 1_555
In9 O131 2.295089 1_555
In9 O129 2.323352 1_555
In10 O64 2.032700 1_555
In10 O132 2.068212 1_555
In10 O62 2.170054 1_555
In10 O60 2.261430 1_555
In10 O134 2.308131 1_555
In10 O136 2.412978 1_555
In11 O69 2.054851 1_555
In11 O139 2.085563 1_555
In11 O141 2.107444 1_555
In11 O71 2.253992 1_555
In11 O67 2.264407 1_555
In11 O143 2.341335 1_555
O0 Si0 1.618189 1_545
O1 Si1 1.625914 1_555
O2 S0 1.472678 1_555
O3 S1 1.474967 1_555
O4 S3 1.478054 1_555
O5 S2 1.468189 1_655
O6 Si2 1.628047 1_555
O7 Si3 1.621578 1_555
O8 Si4 1.616530 1_555
O9 S4 1.480168 1_555
O10 S5 1.472568 1_545
O11 S6 1.478860 1_555
O12 S5 1.500392 1_555
O13 S6 1.481109 1_565
O14 Si2 1.661073 1_555
O15 Si3 1.675291 1_555
O16 S4 1.477039 1_455
O17 Si4 1.645897 1_555
O18 S0 1.471404 1_555
O19 S1 1.506049 1_555
O20 S2 1.490737 1_555
O21 S3 1.476451 1_555
O22 Si0 1.670926 1_555
O23 Si1 1.653567 1_565
O24 S7 1.460431 1_555
O25 Si5 1.651040 1_555
O26 Si6 1.628680 1_555
O27 Si7 1.655898 1_555
O28 S8 1.472376 1_555
O29 S9 1.478772 1_555
O30 Si8 1.663211 1_555
O31 S10 1.472274 1_555
O32 S11 1.484521 1_555
O33 S12 1.478464 1_555
O34 Si9 1.660851 1_555
O35 Si10 1.639145 1_555
O36 Si9 1.609088 1_555
O37 Si10 1.629319 1_555
O38 Si8 1.602937 1_555
O39 S10 1.471045 1_555
O40 S11 1.462804 1_555
O41 S12 1.469290 1_555
O42 Si6 1.638479 1_555
O43 Si7 1.613328 1_555
O44 S8 1.477349 1_555
O45 S9 1.472733 1_555
O46 S7 1.485985 1_555
O47 Si5 1.610327 1_555
O48 S13 1.501530 1_555
O49 S14 1.485090 1_555
O50 S15 1.495697 1_555
O51 S16 1.481848 1_555
O52 Si11 1.691436 1_555
O53 Si12 1.655159 1_555
O54 S17 1.472993 1_555
O55 S18 1.491886 1_555
O56 Si13 1.638473 1_555
O57 Si14 1.677837 1_555
O58 S19 1.471153 1_555
O59 S20 1.485593 1_555
O60 S19 1.501353 1_555
O61 S20 1.475475 1_555
O62 S17 1.500132 1_555
O63 S18 1.476286 1_555
O64 Si13 1.670387 1_555
O65 Si14 1.623933 1_555
O66 S15 1.468224 1_555
O67 S16 1.482945 1_555
O68 Si11 1.617754 1_555
O69 Si12 1.651971 1_555
O70 S13 1.474250 1_555
O71 S14 1.478122 1_555
O72 S19 1.490450 1_555
O73 S20 1.489828 1_555
O74 S17 1.486750 1_555
O75 S18 1.494178 1_555
O76 Si13 1.644745 1_555
O77 Si14 1.658991 1_555
O78 S15 1.488086 1_555
O79 S16 1.486652 1_555
O80 Si11 1.661095 1_555
O81 Si12 1.639607 1_555
O82 S13 1.484609 1_555
O83 S14 1.496338 1_555
O84 S7 1.509821 1_555
O85 Si5 1.666278 1_555
O86 Si6 1.653387 1_555
O87 Si7 1.655605 1_555
O88 S8 1.496105 1_555
O89 S9 1.482097 1_555
O90 Si8 1.667961 1_555
O91 S10 1.520150 1_555
O92 S11 1.478283 1_565
O93 S12 1.507979 1_565
O94 Si9 1.664468 1_555
O95 Si10 1.648912 1_555
O96 S5 1.482935 1_545
O97 S6 1.507341 1_555
O98 Si2 1.639533 1_555
O99 Si3 1.667532 1_555
O100 Si4 1.629036 1_555
O101 S4 1.488341 1_555
O102 S0 1.512105 1_555
O103 S1 1.487104 1_555
O104 S3 1.492830 1_555
O105 S2 1.480526 1_655
O106 Si0 1.656462 1_545
O107 Si1 1.657632 1_555
O108 S13 1.484516 1_555
O109 S14 1.497618 1_555
O110 S16 1.487008 1_555
O111 S15 1.486216 1_655
O112 Si11 1.642029 1_545
O113 Si12 1.654427 1_545
O114 S17 1.490571 1_545
O115 S18 1.485457 1_545
O116 Si13 1.648880 1_555
O117 Si14 1.648018 1_555
O118 S20 1.487326 1_555
O119 S19 1.481801 1_655
O120 Si9 1.672905 1_555
O121 Si10 1.663661 1_555
O122 S10 1.492105 1_455
O123 Si8 1.652139 1_555
O124 S11 1.516852 1_565
O125 S12 1.496752 1_565
O126 Si6 1.664265 1_565
O127 Si7 1.674408 1_565
O128 S8 1.502971 1_555
O129 S9 1.510147 1_555
O130 Si5 1.654304 1_455
O131 S7 1.498349 1_555
O132 Si0 1.682320 1_555
O133 Si1 1.648969 1_565
O134 S0 1.507510 1_555
O135 S1 1.480661 1_555
O136 S2 1.505146 1_555
O137 S3 1.503112 1_555
O138 Si2 1.643373 1_555
O139 Si3 1.652841 1_555
O140 S4 1.502303 1_455
O141 Si4 1.670717 1_555
O142 S5 1.490883 1_555
O143 S6 1.485202 1_565
