# generated using pymatgen
data_KTlBr4
_symmetry_space_group_name_H-M   'P 1'
_cell_length_a   8.00537316
_cell_length_b   10.49574493
_cell_length_c   10.54191042
_cell_angle_alpha   90.00000000
_cell_angle_beta   90.00000000
_cell_angle_gamma   90.00000000
_symmetry_Int_Tables_number   1
_chemical_formula_structural   KTlBr4
_chemical_formula_sum   'K4 Tl4 Br16'
_cell_volume   885.75613712
_cell_formula_units_Z   4
loop_
 _symmetry_equiv_pos_site_id
 _symmetry_equiv_pos_as_xyz
  1  'x, y, z'
loop_
 _atom_site_type_symbol
 _atom_site_label
 _atom_site_symmetry_multiplicity
 _atom_site_fract_x
 _atom_site_fract_y
 _atom_site_fract_z
 _atom_site_occupancy
  K  K0  1  0.18099712  0.25000000  0.75000000  1
  K  K1  1  0.31900288  0.75000000  0.75000000  1
  K  K2  1  0.81900288  0.75000000  0.25000000  1
  K  K3  1  0.68099712  0.25000000  0.25000000  1
  Tl  Tl0  1  0.75000000  0.50000000  0.67703111  1
  Tl  Tl1  1  0.75000000  0.00000000  0.82296889  1
  Tl  Tl2  1  0.25000000  0.50000000  0.32296889  1
  Tl  Tl3  1  0.25000000  0.00000000  0.17703111  1
  Br  Br0  1  0.35287289  0.19365645  0.04502703  1
  Br  Br1  1  0.35287289  0.30634355  0.45497297  1
  Br  Br2  1  0.14712711  0.69365645  0.45497297  1
  Br  Br3  1  0.14712711  0.80634355  0.04502703  1
  Br  Br4  1  0.64712711  0.80634355  0.95497297  1
  Br  Br5  1  0.64712711  0.69365645  0.54502703  1
  Br  Br6  1  0.85287289  0.30634355  0.54502703  1
  Br  Br7  1  0.85287289  0.19365645  0.95497297  1
  Br  Br8  1  0.99080555  0.04163959  0.32066119  1
  Br  Br9  1  0.99080555  0.45836041  0.17933881  1
  Br  Br10  1  0.50919445  0.54163959  0.17933881  1
  Br  Br11  1  0.50919445  0.95836041  0.32066119  1
  Br  Br12  1  0.00919445  0.95836041  0.67933881  1
  Br  Br13  1  0.00919445  0.54163959  0.82066119  1
  Br  Br14  1  0.49080555  0.45836041  0.82066119  1
  Br  Br15  1  0.49080555  0.04163959  0.67933881  1
loop_
_geom_bond_atom_site_label_1
_geom_bond_atom_site_label_2
_geom_bond_distance
_geom_bond_site_symmetry_2
Br0 Tl3 2.597312 1_555
Br0 K0 3.451945 1_554
Br0 K3 3.452340 1_555
Br1 Tl2 2.597312 1_555
Br1 K0 3.451945 1_555
Br1 K3 3.452340 1_555
Br2 Tl2 2.597312 1_555
Br2 K1 3.451945 1_555
Br2 K2 3.452340 1_455
Br3 Tl3 2.597312 1_565
Br3 K1 3.451945 1_554
Br3 K2 3.452340 1_455
Br4 Tl1 2.597312 1_565
Br4 K2 3.451945 1_556
Br4 K1 3.452340 1_555
Br5 Tl0 2.597312 1_555
Br5 K2 3.451945 1_555
Br5 K1 3.452340 1_555
Br6 Tl0 2.597312 1_555
Br6 K3 3.451945 1_555
Br6 K0 3.452340 1_655
Br7 Tl1 2.597312 1_555
Br7 K3 3.451945 1_556
Br7 K0 3.452340 1_655
Br8 Tl3 2.605575 1_655
Br8 K3 3.389463 1_555
Br8 K2 3.437444 1_545
Br9 Tl2 2.605575 1_655
Br9 K3 3.389463 1_555
Br9 K2 3.437444 1_555
Br10 Tl2 2.605575 1_555
Br10 K2 3.389463 1_555
Br10 K3 3.437444 1_555
Br11 Tl3 2.605575 1_565
Br11 K2 3.389463 1_555
Br11 K3 3.437444 1_565
Br12 Tl1 2.605575 1_465
Br12 K1 3.389463 1_555
Br12 K0 3.437444 1_565
Br13 Tl0 2.605575 1_455
Br13 K1 3.389463 1_555
Br13 K0 3.437444 1_555
Br14 Tl0 2.605575 1_555
Br14 K0 3.389463 1_555
Br14 K1 3.437444 1_555
Br15 Tl1 2.605575 1_555
Br15 K0 3.389463 1_555
Br15 K1 3.437444 1_545
