# generated using pymatgen
data_LaAl2
_symmetry_space_group_name_H-M   'P 1'
_cell_length_a   5.74801998
_cell_length_b   5.74802021
_cell_length_c   5.74802000
_cell_angle_alpha   60.00000706
_cell_angle_beta   60.00000574
_cell_angle_gamma   60.00001198
_symmetry_Int_Tables_number   1
_chemical_formula_structural   LaAl2
_chemical_formula_sum   'La2 Al4'
_cell_volume   134.28883591
_cell_formula_units_Z   2
loop_
 _symmetry_equiv_pos_site_id
 _symmetry_equiv_pos_as_xyz
  1  'x, y, z'
loop_
 _atom_site_type_symbol
 _atom_site_label
 _atom_site_symmetry_multiplicity
 _atom_site_fract_x
 _atom_site_fract_y
 _atom_site_fract_z
 _atom_site_occupancy
  La  La0  1  0.87500000  0.87500000  0.87500000  1
  La  La1  1  0.12500000  0.12500000  0.12500000  1
  Al  Al0  1  0.50000000  0.50000000  0.50000000  1
  Al  Al1  1  0.50000000  0.50000000  -0.00000000  1
  Al  Al2  1  -0.00000000  0.50000000  0.50000000  1
  Al  Al3  1  0.50000000  0.00000000  0.50000000  1
loop_
_geom_bond_atom_site_label_1
_geom_bond_atom_site_label_2
_geom_bond_distance
_geom_bond_site_symmetry_2
Al0 Al2 2.874010 1_555
Al0 Al2 2.874010 1_655
Al0 Al1 2.874010 1_556
Al0 Al1 2.874010 1_555
Al0 Al3 2.874010 1_555
Al0 Al3 2.874010 1_565
Al0 La1 3.370076 1_556
Al0 La0 3.370076 1_554
Al0 La1 3.370076 1_655
Al0 La0 3.370076 1_455
Al0 La1 3.370076 1_565
Al0 La0 3.370076 1_545
Al1 Al2 2.874010 1_654
Al1 Al2 2.874010 1_555
Al1 Al3 2.874010 1_555
Al1 Al3 2.874010 1_564
Al1 La1 3.370075 1_555
Al1 La0 3.370075 1_554
Al1 La1 3.370076 1_655
Al1 La0 3.370076 1_454
Al1 La1 3.370076 1_565
Al1 La0 3.370076 1_544
Al2 Al3 2.874011 1_555
Al2 Al3 2.874011 1_465
Al2 La0 3.370075 1_455
Al2 La1 3.370075 1_555
Al2 La1 3.370076 1_565
Al2 La0 3.370076 1_445
Al2 La1 3.370076 1_556
Al2 La0 3.370076 1_454
Al3 La1 3.370075 1_555
Al3 La0 3.370075 1_545
Al3 La1 3.370076 1_655
Al3 La0 3.370076 1_445
Al3 La1 3.370076 1_556
Al3 La0 3.370076 1_544
