# generated using pymatgen
data_MgTi8(NiO3)8
_symmetry_space_group_name_H-M   'P 1'
_cell_length_a   5.69637025
_cell_length_b   10.99452550
_cell_length_c   11.27768210
_cell_angle_alpha   55.16181205
_cell_angle_beta   53.77925322
_cell_angle_gamma   54.30238598
_symmetry_Int_Tables_number   1
_chemical_formula_structural   MgTi8(NiO3)8
_chemical_formula_sum   'Mg1 Ti8 Ni8 O24'
_cell_volume   434.22404882
_cell_formula_units_Z   1
loop_
 _symmetry_equiv_pos_site_id
 _symmetry_equiv_pos_as_xyz
  1  'x, y, z'
loop_
 _atom_site_type_symbol
 _atom_site_label
 _atom_site_symmetry_multiplicity
 _atom_site_fract_x
 _atom_site_fract_y
 _atom_site_fract_z
 _atom_site_occupancy
  Mg  Mg0  1  0.09589800  0.64481100  0.84768900  1
  Ti  Ti0  1  0.34009000  0.18282000  0.17123600  1
  Ti  Ti1  1  0.15378600  0.06110300  0.57368500  1
  Ti  Ti2  1  0.14887700  0.57541600  0.10229200  1
  Ti  Ti3  1  0.14059500  0.56494900  0.58429900  1
  Ti  Ti4  1  0.85042900  0.41348700  0.44506000  1
  Ti  Ti5  1  0.83396700  0.41014500  0.94138900  1
  Ti  Ti6  1  0.88927100  0.92637400  0.40659500  1
  Ti  Ti7  1  0.81121200  0.93576400  0.92545300  1
  Ni  Ni0  1  0.14405900  0.07452000  0.06936700  1
  Ni  Ni1  1  0.36952700  0.67253300  0.18791500  1
  Ni  Ni2  1  0.35205000  0.17138300  0.67384500  1
  Ni  Ni3  1  0.64209300  0.32501800  0.33389500  1
  Ni  Ni4  1  0.44382200  0.70545100  0.58444300  1
  Ni  Ni5  1  0.64676800  0.32228600  0.82652100  1
  Ni  Ni6  1  0.66272300  0.83886300  0.29994000  1
  Ni  Ni7  1  0.56216900  0.84314500  0.81340300  1
  O  O0  1  0.05707200  0.37643200  0.22989500  1
  O  O1  1  0.42955700  0.03881000  0.36848000  1
  O  O2  1  0.73321500  0.21541300  0.03537200  1
  O  O3  1  0.22111800  0.28373000  0.47737800  1
  O  O4  1  0.56056500  0.47253800  0.12514200  1
  O  O5  1  0.04646000  0.37662700  0.72710200  1
  O  O6  1  0.04677400  0.87650900  0.22469100  1
  O  O7  1  0.95333900  0.12382600  0.27923000  1
  O  O8  1  0.46138500  0.01668800  0.87106000  1
  O  O9  1  0.44283400  0.51902700  0.39471600  1
  O  O10  1  0.77433300  0.21496600  0.53242900  1
  O  O11  1  0.78379300  0.70771100  0.03560700  1
  O  O12  1  0.21226700  0.29534600  0.97539200  1
  O  O13  1  0.23968700  0.79194400  0.44930300  1
  O  O14  1  0.54652500  0.47387600  0.62413100  1
  O  O15  1  0.55600300  0.98549800  0.10734700  1
  O  O16  1  0.07639400  0.87144400  0.70998000  1
  O  O17  1  0.94665300  0.11037800  0.77802000  1
  O  O18  1  0.93878900  0.61065200  0.29595600  1
  O  O19  1  0.42714300  0.50667200  0.91802700  1
  O  O20  1  0.81628900  0.71703100  0.52415600  1
  O  O21  1  0.19721200  0.78386800  0.97634100  1
  O  O22  1  0.55287800  0.97838400  0.60047200  1
  O  O23  1  0.88050100  0.61552100  0.79204600  1
loop_
_geom_bond_atom_site_label_1
_geom_bond_atom_site_label_2
_geom_bond_distance
_geom_bond_site_symmetry_2
Mg0 O19 1.882634 1_555
Mg0 O23 1.898659 1_455
Mg0 O11 1.979212 1_456
Mg0 O16 2.023001 1_555
Ni0 O6 2.004682 1_545
Ni0 O2 2.043214 1_455
Ni0 O8 2.044321 1_554
Ni0 O15 2.162503 1_545
Ni0 O7 2.194445 1_455
Ni0 O12 2.200718 1_554
Ni1 O6 1.982759 1_555
Ni1 O11 2.045615 1_555
Ni1 O9 2.072061 1_555
Ni1 O4 2.143808 1_555
Ni1 O18 2.331467 1_455
Ni1 O21 2.486733 1_554
Ni2 O5 2.052255 1_555
Ni2 O8 2.075158 1_555
Ni2 O10 2.120778 1_555
Ni2 O22 2.133194 1_545
Ni2 O3 2.177672 1_555
Ni2 O17 2.205435 1_455
Ni3 O7 2.026317 1_555
Ni3 O9 2.057845 1_555
Ni3 O3 2.102463 1_555
Ni3 O4 2.106954 1_555
Ni3 O0 2.192811 1_655
Ni3 O10 2.208828 1_555
Ni4 O20 1.868602 1_555
Ni4 O13 1.930627 1_555
Ni4 O14 2.072236 1_555
Ni4 O16 2.169829 1_555
Ni5 O17 2.086268 1_555
Ni5 O14 2.096884 1_555
Ni5 O12 2.099760 1_555
Ni5 O5 2.145489 1_655
Ni5 O19 2.155105 1_555
Ni5 O2 2.168937 1_556
Ni6 O15 2.025399 1_555
Ni6 O6 2.034416 1_655
Ni6 O18 2.052086 1_555
Ni6 O1 2.124824 1_565
Ni6 O13 2.138066 1_555
Ni7 O21 1.954888 1_555
Ni7 O22 1.989753 1_555
Ni7 O8 2.022604 1_565
Ni7 O23 2.117973 1_555
O0 Ti0 1.977758 1_555
O0 Ti2 1.994835 1_555
O0 Ti4 2.152672 1_455
O1 Ti1 1.945734 1_555
O1 Ti0 2.022108 1_555
O1 Ti6 2.348583 1_545
O2 Ti0 1.935232 1_555
O2 Ti5 2.039370 1_554
O3 Ti4 1.851155 1_455
O3 Ti1 2.209936 1_555
O4 Ti5 1.937466 1_554
O4 Ti2 2.032486 1_555
O5 Ti3 1.906191 1_555
O5 Ti5 2.116870 1_455
O6 Ti6 1.962089 1_455
O7 Ti6 1.910915 1_545
O7 Ti0 2.086064 1_655
O8 Ti7 1.972534 1_545
O9 Ti3 1.912858 1_555
O9 Ti4 2.172714 1_555
O10 Ti1 1.942247 1_655
O10 Ti4 2.016173 1_555
O11 Ti2 2.018572 1_655
O11 Ti7 2.126819 1_554
O12 Ti5 1.906128 1_455
O12 Ti0 2.160166 1_556
O13 Ti6 1.811292 1_455
O13 Ti3 2.269872 1_555
O14 Ti4 1.890783 1_555
O14 Ti3 2.136090 1_555
O15 Ti7 1.857410 1_554
O15 Ti0 2.088815 1_565
O16 Ti1 1.874866 1_565
O16 Ti7 2.250697 1_455
O17 Ti7 1.900259 1_545
O17 Ti1 2.112611 1_655
O18 Ti2 1.920725 1_655
O18 Ti4 1.971911 1_555
O19 Ti2 1.976303 1_556
O19 Ti5 2.024373 1_555
O20 Ti3 1.802462 1_655
O20 Ti6 2.051085 1_555
O21 Ti2 1.975041 1_556
O21 Ti7 2.015936 1_455
O22 Ti6 1.994456 1_555
O22 Ti1 2.042424 1_565
O23 Ti5 1.957395 1_555
O23 Ti3 2.101943 1_655
