# generated using pymatgen
data_MgV4O5F7
_symmetry_space_group_name_H-M   'P 1'
_cell_length_a   5.22595840
_cell_length_b   5.45112452
_cell_length_c   8.95023316
_cell_angle_alpha   73.86997891
_cell_angle_beta   90.93941137
_cell_angle_gamma   61.92007667
_symmetry_Int_Tables_number   1
_chemical_formula_structural   MgV4O5F7
_chemical_formula_sum   'Mg1 V4 O5 F7'
_cell_volume   212.81835773
_cell_formula_units_Z   1
loop_
 _symmetry_equiv_pos_site_id
 _symmetry_equiv_pos_as_xyz
  1  'x, y, z'
loop_
 _atom_site_type_symbol
 _atom_site_label
 _atom_site_symmetry_multiplicity
 _atom_site_fract_x
 _atom_site_fract_y
 _atom_site_fract_z
 _atom_site_occupancy
  Mg  Mg0  1  0.78873200  0.40576300  0.59211100  1
  V  V0  1  0.77920400  0.46233700  0.24039600  1
  V  V1  1  0.45353700  0.03474300  0.51260100  1
  V  V2  1  0.27611500  0.49366700  0.74911900  1
  V  V3  1  0.04476500  0.96629600  0.01519000  1
  O  O0  1  0.95465500  0.25337900  0.12691700  1
  O  O1  1  0.40908100  0.76415000  0.08334000  1
  O  O2  1  0.44776200  0.73554200  0.66484700  1
  O  O3  1  0.50608500  0.24443400  0.62319900  1
  O  O4  1  0.04941400  0.25097300  0.44097700  1
  F  F0  1  0.92416500  0.71725300  0.57570500  1
  F  F1  1  0.93233800  0.73948700  0.18274000  1
  F  F2  1  0.54571000  0.73172400  0.38002400  1
  F  F3  1  0.55673400  0.25635900  0.32377100  1
  F  F4  1  0.60682200  0.21559200  0.92818800  1
  F  F5  1  0.03841500  0.73641100  0.87959400  1
  F  F6  1  0.06146900  0.24189300  0.80985100  1
loop_
_geom_bond_atom_site_label_1
_geom_bond_atom_site_label_2
_geom_bond_distance
_geom_bond_site_symmetry_2
Mg0 O4 2.002521 1_655
Mg0 O3 2.032987 1_555
Mg0 O2 2.122096 1_555
O0 V0 1.691116 1_555
O0 V3 1.965174 1_645
O1 V3 1.680643 1_555
O1 V0 2.013471 1_555
O2 V1 1.824997 1_565
O2 V2 1.922236 1_555
O3 V1 1.810282 1_555
O3 V2 1.979489 1_555
O4 V1 1.858177 1_555
O4 V0 1.944319 1_455
F0 V2 2.005581 1_655
F0 Mg0 2.098053 1_555
F0 V1 2.183452 1_565
F1 V3 1.950689 1_655
F1 V0 1.976798 1_555
F2 Mg0 2.072650 1_555
F2 V0 2.142406 1_555
F2 V1 2.174217 1_565
F3 V0 1.990239 1_555
F3 V1 2.028638 1_555
F4 V2 1.986541 1_555
F4 V3 2.028979 1_646
F5 V3 1.981705 1_556
F5 V2 2.004115 1_555
F6 V3 2.058349 1_546
F6 Mg0 2.090556 1_455
F6 V2 2.119472 1_555
