# generated using pymatgen
data_MgTi2(NiO3)2
_symmetry_space_group_name_H-M   'P 1'
_cell_length_a   5.16413692
_cell_length_b   5.69295517
_cell_length_c   5.10358697
_cell_angle_alpha   115.32589208
_cell_angle_beta   60.25665025
_cell_angle_gamma   114.45816066
_symmetry_Int_Tables_number   1
_chemical_formula_structural   MgTi2(NiO3)2
_chemical_formula_sum   'Mg1 Ti2 Ni2 O6'
_cell_volume   113.79399889
_cell_formula_units_Z   1
loop_
 _symmetry_equiv_pos_site_id
 _symmetry_equiv_pos_as_xyz
  1  'x, y, z'
loop_
 _atom_site_type_symbol
 _atom_site_label
 _atom_site_symmetry_multiplicity
 _atom_site_fract_x
 _atom_site_fract_y
 _atom_site_fract_z
 _atom_site_occupancy
  Mg  Mg0  1  0.99205600  0.97269600  0.99263200  1
  Ti  Ti0  1  0.17457300  0.51078500  0.16449900  1
  Ti  Ti1  1  0.65665900  0.97082900  0.65623600  1
  Ni  Ni0  1  0.36564700  0.08059800  0.35598600  1
  Ni  Ni1  1  0.81498900  0.48166800  0.82477600  1
  O  O0  1  0.05127200  0.23496600  0.40037600  1
  O  O1  1  0.56524500  0.77353700  0.27805500  1
  O  O2  1  0.29338000  0.78478300  0.94386800  1
  O  O3  1  0.78708100  0.24569900  0.05168200  1
  O  O4  1  0.38800700  0.23619400  0.78664800  1
  O  O5  1  0.93368900  0.76414000  0.56784100  1
loop_
_geom_bond_atom_site_label_1
_geom_bond_atom_site_label_2
_geom_bond_distance
_geom_bond_site_symmetry_2
Mg0 O4 2.052506 1_665
Mg0 O0 2.061155 1_666
Mg0 O3 2.066842 1_566
Mg0 O5 2.085776 1_555
Mg0 O2 2.096223 1_655
Mg0 O1 2.103198 1_556
Ni0 O0 2.026190 1_555
Ni0 O4 2.032315 1_555
Ni0 O3 2.057459 1_555
Ni0 O2 2.151093 1_544
Ni0 O1 2.183316 1_545
Ni0 O5 2.310045 1_445
Ni1 O3 2.042409 1_556
Ni1 O0 2.084932 1_655
Ni1 O4 2.119974 1_555
Ni1 O5 2.207140 1_555
Ni1 O1 2.302485 1_556
O0 Ti0 2.085408 1_555
O0 Ti1 2.149693 1_445
O1 Ti1 1.954470 1_555
O1 Ti0 2.136159 1_555
O2 Ti1 1.936094 1_555
O2 Ti0 2.025388 1_556
O3 Ti0 2.124248 1_655
O3 Ti1 2.179343 1_544
O4 Ti0 2.028793 1_556
O4 Ti1 2.146876 1_545
O5 Ti1 1.983469 1_555
O5 Ti0 2.066390 1_655
