# generated using pymatgen
data_Li9Mn3P8O29
_symmetry_space_group_name_H-M   'P 1'
_cell_length_a   9.93520853
_cell_length_b   9.93520853
_cell_length_c   13.80554234
_cell_angle_alpha   88.35143534
_cell_angle_beta   88.35143534
_cell_angle_gamma   58.70947738
_symmetry_Int_Tables_number   1
_chemical_formula_structural   Li9Mn3P8O29
_chemical_formula_sum   'Li18 Mn6 P16 O58'
_cell_volume   1163.87289978
_cell_formula_units_Z   2
loop_
 _symmetry_equiv_pos_site_id
 _symmetry_equiv_pos_as_xyz
  1  'x, y, z'
loop_
 _atom_site_type_symbol
 _atom_site_label
 _atom_site_symmetry_multiplicity
 _atom_site_fract_x
 _atom_site_fract_y
 _atom_site_fract_z
 _atom_site_occupancy
  Li  Li0  1  0.34023900  0.89626000  0.93669100  1
  Li  Li1  1  0.33120400  0.76549400  0.43569700  1
  Li  Li2  1  0.76674500  0.90089600  0.43805300  1
  Li  Li3  1  0.67141600  0.66630100  0.11987900  1
  Li  Li4  1  0.66630100  0.67141600  0.61987900  1
  Li  Li5  1  0.90089600  0.76674500  0.93805300  1
  Li  Li6  1  0.76549400  0.33120400  0.93569700  1
  Li  Li7  1  0.10374000  0.65976100  0.56330900  1
  Li  Li8  1  0.89626000  0.34023900  0.43669100  1
  Li  Li9  1  0.23450600  0.66879600  0.06430300  1
  Li  Li10  1  0.09910400  0.23325500  0.06194700  1
  Li  Li11  1  0.33369900  0.32858400  0.38012100  1
  Li  Li12  1  0.00000000  0.00000000  0.00000000  1
  Li  Li13  1  0.32858400  0.33369900  0.88012100  1
  Li  Li14  1  0.23325500  0.09910400  0.56194700  1
  Li  Li15  1  0.66879600  0.23450600  0.56430300  1
  Li  Li16  1  0.65976100  0.10374000  0.06330900  1
  Li  Li17  1  0.00000000  0.00000000  0.50000000  1
  Mn  Mn0  1  0.43648300  0.99842800  0.74979900  1
  Mn  Mn1  1  0.00157200  0.56351700  0.75020100  1
  Mn  Mn2  1  0.99842800  0.43648300  0.24979900  1
  Mn  Mn3  1  0.43213400  0.56786600  0.25000000  1
  Mn  Mn4  1  0.56786600  0.43213400  0.75000000  1
  Mn  Mn5  1  0.56351700  0.00157200  0.25020100  1
  P  P0  1  0.68075500  0.09449700  0.84499000  1
  P  P1  1  0.68262100  0.23099800  0.34639500  1
  P  P2  1  0.22302500  0.08810700  0.34185700  1
  P  P3  1  0.33234300  0.32493300  0.62320200  1
  P  P4  1  0.32493300  0.33234300  0.12320200  1
  P  P5  1  0.08810700  0.22302500  0.84185700  1
  P  P6  1  0.31924500  0.90550300  0.15501000  1
  P  P7  1  0.31737900  0.76900200  0.65360500  1
  P  P8  1  0.77697500  0.91189300  0.65814300  1
  P  P9  1  0.66765700  0.67506700  0.37679800  1
  P  P10  1  0.67506700  0.66765700  0.87679800  1
  P  P11  1  0.90550300  0.31924500  0.65501000  1
  P  P12  1  0.09449700  0.68075500  0.34499000  1
  P  P13  1  0.76900200  0.31737900  0.15360500  1
  P  P14  1  0.23099800  0.68262100  0.84639500  1
  P  P15  1  0.91189300  0.77697500  0.15814300  1
  O  O0  1  0.91233300  0.33441800  0.14699500  1
  O  O1  1  0.66558200  0.08766700  0.35300500  1
  O  O2  1  0.78618200  0.21381800  0.25000000  1
  O  O3  1  0.76078100  0.22988400  0.06742800  1
  O  O4  1  0.67466100  0.25350300  0.84146400  1
  O  O5  1  0.51679700  0.11963600  0.83675000  1
  O  O6  1  0.21879100  0.99811700  0.43188800  1
  O  O7  1  0.33441800  0.91233300  0.64699500  1
  O  O8  1  0.21381800  0.78618200  0.75000000  1
  O  O9  1  0.23921900  0.77011600  0.93257200  1
  O  O10  1  0.32533900  0.74649700  0.15853600  1
  O  O11  1  0.48320300  0.88036400  0.16325000  1
  O  O12  1  0.51867000  0.81197100  0.83414300  1
  O  O13  1  0.63086200  0.89694400  0.66611300  1
  O  O14  1  0.77328100  0.00206700  0.93401000  1
  O  O15  1  0.78647000  0.99955100  0.75151900  1
  O  O16  1  0.74714500  0.92701300  0.15845500  1
  O  O17  1  0.51450600  0.68647200  0.34558800  1
  O  O18  1  0.48386400  0.62061300  0.66685700  1
  O  O19  1  0.67933900  0.81841800  0.33485700  1
  O  O20  1  0.67030100  0.68338300  0.98559900  1
  O  O21  1  0.68338300  0.67030100  0.48559900  1
  O  O22  1  0.81841800  0.67933900  0.83485700  1
  O  O23  1  0.62061300  0.48386400  0.16685700  1
  O  O24  1  0.68647200  0.51450600  0.84558800  1
  O  O25  1  0.92701300  0.74714500  0.65845500  1
  O  O26  1  0.99955100  0.78647000  0.25151900  1
  O  O27  1  0.00206700  0.77328100  0.43401000  1
  O  O28  1  0.00188300  0.78120900  0.06811200  1
  O  O29  1  0.89694400  0.63086200  0.16611300  1
  O  O30  1  0.81197100  0.51867000  0.33414300  1
  O  O31  1  0.88036400  0.48320300  0.66325000  1
  O  O32  1  0.08766700  0.66558200  0.85300500  1
  O  O33  1  0.74649700  0.32533900  0.65853600  1
  O  O34  1  0.22988400  0.76078100  0.56742800  1
  O  O35  1  0.77011600  0.23921900  0.43257200  1
  O  O36  1  0.25350300  0.67466100  0.34146400  1
  O  O37  1  0.78120900  0.00188300  0.56811200  1
  O  O38  1  0.11963600  0.51679700  0.33675000  1
  O  O39  1  0.18802900  0.48133000  0.66585700  1
  O  O40  1  0.10305600  0.36913800  0.83388700  1
  O  O41  1  0.99811700  0.21879100  0.93188800  1
  O  O42  1  0.99793300  0.22671900  0.56599000  1
  O  O43  1  0.00044900  0.21353000  0.74848100  1
  O  O44  1  0.07298700  0.25285500  0.34154500  1
  O  O45  1  0.31352800  0.48549400  0.15441200  1
  O  O46  1  0.37938700  0.51613600  0.83314300  1
  O  O47  1  0.18158200  0.32066100  0.16514300  1
  O  O48  1  0.31661700  0.32969900  0.51440100  1
  O  O49  1  0.32969900  0.31661700  0.01440100  1
  O  O50  1  0.32066100  0.18158200  0.66514300  1
  O  O51  1  0.51613600  0.37938700  0.33314300  1
  O  O52  1  0.25285500  0.07298700  0.84154500  1
  O  O53  1  0.48549400  0.31352800  0.65441200  1
  O  O54  1  0.21353000  0.00044900  0.24848100  1
  O  O55  1  0.48133000  0.18802900  0.16585700  1
  O  O56  1  0.36913800  0.10305600  0.33388700  1
  O  O57  1  0.22671900  0.99793300  0.06599000  1
loop_
_geom_bond_atom_site_label_1
_geom_bond_atom_site_label_2
_geom_bond_distance
_geom_bond_site_symmetry_2
Li0 O9 1.973630 1_555
Li0 O52 1.977751 1_565
Li0 O12 2.056683 1_555
Li0 O57 2.069607 1_556
Li1 O6 1.976538 1_555
Li1 O17 1.980187 1_555
Li1 O36 1.987912 1_555
Li1 O34 2.064366 1_555
Li2 O1 1.958899 1_565
Li2 O27 1.998541 1_655
Li2 O19 2.081543 1_555
Li2 O37 2.125919 1_565
Li3 O20 1.856517 1_554
Li3 O11 2.063031 1_555
Li3 O29 2.191307 1_555
Li3 O23 2.196490 1_555
Li4 O21 1.856517 1_555
Li4 O31 2.063031 1_555
Li4 O13 2.191307 1_555
Li4 O18 2.196490 1_555
Li5 O32 1.958899 1_655
Li5 O14 1.998541 1_565
Li5 O22 2.081543 1_555
Li5 O28 2.125919 1_656
Li6 O41 1.976538 1_555
Li6 O24 1.980187 1_555
Li6 O4 1.987912 1_555
Li6 O3 2.064366 1_556
Li7 O34 1.973630 1_555
Li7 O25 1.977751 1_455
Li7 O39 2.056683 1_555
Li7 O27 2.069607 1_555
Li8 O35 1.973630 1_555
Li8 O44 1.977751 1_655
Li8 O30 2.056683 1_555
Li8 O42 2.069607 1_555
Li9 O28 1.976538 1_555
Li9 O45 1.980187 1_555
Li9 O10 1.987912 1_555
Li9 O9 2.064366 1_554
Li10 O0 1.958899 1_455
Li10 O57 1.998541 1_545
Li10 O47 2.081543 1_555
Li10 O41 2.125919 1_454
Li11 O48 1.856517 1_555
Li11 O38 2.063031 1_555
Li11 O56 2.191307 1_555
Li11 O51 2.196490 1_555
Li12 O41 2.334703 1_454
Li12 O28 2.334703 1_545
Li12 O57 2.443992 1_545
Li12 O14 2.443992 1_454
Li12 O3 2.467393 1_455
Li12 O9 2.467393 1_544
Li13 O49 1.856517 1_556
Li13 O5 2.063031 1_555
Li13 O40 2.191307 1_555
Li13 O46 2.196490 1_555
Li14 O7 1.958899 1_545
Li14 O42 1.998541 1_455
Li14 O50 2.081543 1_555
Li14 O6 2.125919 1_545
Li15 O37 1.976538 1_555
Li15 O53 1.980187 1_555
Li15 O33 1.987912 1_555
Li15 O35 2.064366 1_555
Li16 O3 1.973630 1_555
Li16 O16 1.977751 1_545
Li16 O55 2.056683 1_555
Li16 O14 2.069607 1_554
Li17 O6 2.334703 1_545
Li17 O37 2.334703 1_455
Li17 O42 2.443992 1_455
Li17 O27 2.443992 1_545
Li17 O34 2.467393 1_545
Li17 O35 2.467393 1_455
Mn0 O50 1.944532 1_565
Mn0 O12 1.952858 1_555
Mn0 O13 1.999233 1_555
Mn0 O52 1.999651 1_565
Mn0 O5 2.159690 1_565
Mn0 O7 2.197248 1_555
Mn1 O22 1.944532 1_455
Mn1 O39 1.952858 1_555
Mn1 O40 1.999233 1_555
Mn1 O25 1.999651 1_455
Mn1 O31 2.159690 1_455
Mn1 O32 2.197248 1_555
Mn2 O47 1.944532 1_655
Mn2 O30 1.952858 1_555
Mn2 O29 1.999233 1_555
Mn2 O44 1.999651 1_655
Mn2 O38 2.159690 1_655
Mn2 O0 2.197248 1_555
Mn3 O51 1.956696 1_555
Mn3 O23 1.956696 1_555
Mn3 O36 1.965205 1_555
Mn3 O10 1.965205 1_555
Mn3 O45 2.225563 1_555
Mn3 O17 2.225563 1_555
Mn4 O46 1.956696 1_555
Mn4 O18 1.956696 1_555
Mn4 O4 1.965205 1_555
Mn4 O33 1.965205 1_555
Mn4 O53 2.225563 1_555
Mn4 O24 2.225563 1_555
Mn5 O19 1.944532 1_545
Mn5 O55 1.952858 1_555
Mn5 O56 1.999233 1_555
Mn5 O16 1.999651 1_545
Mn5 O11 2.159690 1_545
Mn5 O1 2.197248 1_555
O0 P13 1.518839 1_555
O1 P1 1.518839 1_555
O2 P1 1.615741 1_555
O2 P13 1.615741 1_555
O3 P13 1.522039 1_555
O4 P0 1.548567 1_555
O5 P0 1.521588 1_555
O6 P2 1.522536 1_565
O7 P7 1.518839 1_555
O8 P14 1.615741 1_555
O8 P7 1.615741 1_555
O9 P14 1.522039 1_555
O10 P6 1.548567 1_555
O11 P6 1.521588 1_555
O12 P10 1.583283 1_555
O13 P8 1.534705 1_555
O14 P0 1.523775 1_555
O15 P8 1.608134 1_555
O15 P0 1.618963 1_565
O16 P15 1.538408 1_555
O17 P9 1.539329 1_555
O18 P7 1.552973 1_555
O19 P9 1.580358 1_555
O20 P10 1.511474 1_555
O21 P9 1.511474 1_555
O22 P10 1.580358 1_555
O23 P13 1.552973 1_555
O24 P10 1.539329 1_555
O25 P8 1.538408 1_555
O26 P15 1.608134 1_555
O26 P12 1.618963 1_655
O27 P12 1.523775 1_555
O28 P15 1.522536 1_455
O29 P15 1.534705 1_555
O30 P9 1.583283 1_555
O31 P11 1.521588 1_555
O32 P14 1.518839 1_555
O33 P11 1.548567 1_555
O34 P7 1.522039 1_555
O35 P1 1.522039 1_555
O36 P12 1.548567 1_555
O37 P8 1.522536 1_545
O38 P12 1.521588 1_555
O39 P3 1.583283 1_555
O40 P5 1.534705 1_555
O41 P5 1.522536 1_655
O42 P11 1.523775 1_555
O43 P5 1.608134 1_555
O43 P11 1.618963 1_455
O44 P2 1.538408 1_555
O45 P4 1.539329 1_555
O46 P14 1.552973 1_555
O47 P4 1.580358 1_555
O48 P3 1.511474 1_555
O49 P4 1.511474 1_555
O50 P3 1.580358 1_555
O51 P1 1.552973 1_555
O52 P5 1.538408 1_555
O53 P3 1.539329 1_555
O54 P2 1.608134 1_555
O54 P6 1.618963 1_545
O55 P4 1.583283 1_555
O56 P2 1.534705 1_555
O57 P6 1.523775 1_555
