# generated using pymatgen
data_MnAsH2O5
_symmetry_space_group_name_H-M   'P 1'
_cell_length_a   5.35412993
_cell_length_b   8.19463635
_cell_length_c   10.32202648
_cell_angle_alpha   69.73571939
_cell_angle_beta   96.18795435
_cell_angle_gamma   108.10674410
_symmetry_Int_Tables_number   1
_chemical_formula_structural   MnAsH2O5
_chemical_formula_sum   'Mn4 As4 H8 O20'
_cell_volume   403.81051281
_cell_formula_units_Z   4
loop_
 _symmetry_equiv_pos_site_id
 _symmetry_equiv_pos_as_xyz
  1  'x, y, z'
loop_
 _atom_site_type_symbol
 _atom_site_label
 _atom_site_symmetry_multiplicity
 _atom_site_fract_x
 _atom_site_fract_y
 _atom_site_fract_z
 _atom_site_occupancy
  Mn  Mn0  1  0.50004500  0.50011600  0.49990100  1
  Mn  Mn1  1  0.99987200  0.49989600  0.99989400  1
  Mn  Mn2  1  0.50009300  0.99994600  0.99998800  1
  Mn  Mn3  1  0.00004400  0.00006100  0.50001900  1
  As  As0  1  0.56730600  0.59078600  0.15889100  1
  As  As1  1  0.56741800  0.09094400  0.65889600  1
  As  As2  1  0.43256200  0.40906300  0.84108500  1
  As  As3  1  0.43251600  0.90913200  0.34111300  1
  H  H0  1  0.88097500  0.62437100  0.67394700  1
  H  H1  1  0.88099300  0.12435700  0.17397200  1
  H  H2  1  0.04979900  0.16068300  0.04132200  1
  H  H3  1  0.04977500  0.66071200  0.54130700  1
  H  H4  1  0.11898900  0.37567500  0.32605500  1
  H  H5  1  0.11898500  0.87568700  0.82607900  1
  H  H6  1  0.95029700  0.83930100  0.95874600  1
  H  H7  1  0.95028700  0.33933500  0.45873500  1
  O  O0  1  0.10866100  0.82038400  0.92926900  1
  O  O1  1  0.10865300  0.32039900  0.42925900  1
  O  O2  1  0.89136600  0.17959000  0.07075600  1
  O  O3  1  0.89134100  0.67961800  0.57075600  1
  O  O4  1  0.33681100  0.39834200  0.67965600  1
  O  O5  1  0.33667200  0.89827600  0.17971800  1
  O  O6  1  0.28419500  0.54370500  0.88019700  1
  O  O7  1  0.28427300  0.04387900  0.38021000  1
  O  O8  1  0.66332700  0.60172800  0.32025300  1
  O  O9  1  0.66331800  0.10172400  0.82029900  1
  O  O10  1  0.71568800  0.45608400  0.11980200  1
  O  O11  1  0.71576100  0.95626800  0.61981600  1
  O  O12  1  0.76960700  0.50575400  0.83860100  1
  O  O13  1  0.76961200  0.00560200  0.33870600  1
  O  O14  1  0.33131800  0.19313800  0.96105600  1
  O  O15  1  0.33125500  0.69315600  0.46104500  1
  O  O16  1  0.23023100  0.49421400  0.16129400  1
  O  O17  1  0.23040000  0.99441200  0.66134700  1
  O  O18  1  0.66878000  0.80679500  0.03902200  1
  O  O19  1  0.66877600  0.30686400  0.53898800  1
loop_
_geom_bond_atom_site_label_1
_geom_bond_atom_site_label_2
_geom_bond_distance
_geom_bond_site_symmetry_2
Mn0 O8 1.929666 1_555
Mn0 O4 1.930452 1_555
Mn0 O15 1.962380 1_555
Mn0 O19 1.963393 1_555
Mn0 O3 2.363726 1_555
Mn0 O1 2.363922 1_555
Mn1 O6 1.931660 1_655
Mn1 O10 1.932498 1_556
Mn1 O12 1.957804 1_555
Mn1 O16 1.959041 1_656
Mn1 O2 2.361337 1_556
Mn1 O0 2.362742 1_655
Mn2 O9 1.929844 1_565
Mn2 O5 1.930688 1_556
Mn2 O18 1.962571 1_556
Mn2 O14 1.963321 1_565
Mn2 O2 2.363788 1_566
Mn2 O0 2.363827 1_555
Mn3 O7 1.932001 1_555
Mn3 O11 1.932208 1_445
Mn3 O17 1.958477 1_545
Mn3 O13 1.958646 1_455
Mn3 O1 2.361596 1_555
Mn3 O3 2.362373 1_445
As0 O10 1.713216 1_555
As0 O8 1.713684 1_555
As0 O18 1.728988 1_555
As0 O16 1.729823 1_555
As1 O11 1.712839 1_545
As1 O9 1.713581 1_555
As1 O19 1.728607 1_555
As1 O17 1.729490 1_545
As2 O6 1.712854 1_555
As2 O4 1.713553 1_555
As2 O14 1.728847 1_555
As2 O12 1.729777 1_555
As3 O7 1.713066 1_565
As3 O5 1.713633 1_555
As3 O15 1.728978 1_555
As3 O13 1.729816 1_565
H0 O3 1.002826 1_555
H0 O12 1.703745 1_555
H1 O2 1.003054 1_555
H1 O13 1.704588 1_555
H2 O2 1.002863 1_455
H2 O14 1.701907 1_554
H3 O3 1.002933 1_455
H3 O15 1.701725 1_555
H4 O1 1.002959 1_555
H4 O16 1.704407 1_555
H5 O0 1.002840 1_555
H5 O17 1.704593 1_555
H6 O0 1.002762 1_655
H6 O18 1.701832 1_556
H7 O1 1.002849 1_655
H7 O19 1.701760 1_555
