# generated using pymatgen
data_LiCr2(PO4)3
_symmetry_space_group_name_H-M   'P 1'
_cell_length_a   8.23837900
_cell_length_b   8.31666575
_cell_length_c   8.81540434
_cell_angle_alpha   62.12696627
_cell_angle_beta   62.44946380
_cell_angle_gamma   60.59386689
_symmetry_Int_Tables_number   1
_chemical_formula_structural   LiCr2(PO4)3
_chemical_formula_sum   'Li2 Cr4 P6 O24'
_cell_volume   443.33551272
_cell_formula_units_Z   2
loop_
 _symmetry_equiv_pos_site_id
 _symmetry_equiv_pos_as_xyz
  1  'x, y, z'
loop_
 _atom_site_type_symbol
 _atom_site_label
 _atom_site_symmetry_multiplicity
 _atom_site_fract_x
 _atom_site_fract_y
 _atom_site_fract_z
 _atom_site_occupancy
  Li  Li0  1  0.25595400  0.92339200  0.13595700  1
  Li  Li1  1  0.74404600  0.07660800  0.86404300  1
  Cr  Cr0  1  0.85665500  0.85288200  0.43071100  1
  Cr  Cr1  1  0.34929500  0.35663400  0.94333200  1
  Cr  Cr2  1  0.65070500  0.64336600  0.05666800  1
  Cr  Cr3  1  0.14334500  0.14711800  0.56928900  1
  P  P0  1  0.74910000  0.46658400  0.75169100  1
  P  P1  1  0.46262200  0.03210700  0.75185000  1
  P  P2  1  0.03524000  0.75097500  0.74868800  1
  P  P3  1  0.96476000  0.24902500  0.25131200  1
  P  P4  1  0.53737800  0.96789300  0.24815000  1
  P  P5  1  0.25090000  0.53341600  0.24830900  1
  O  O0  1  0.98923200  0.20154700  0.43394700  1
  O  O1  1  0.53440100  0.49045000  0.79774400  1
  O  O2  1  0.17457200  0.54140200  0.79699900  1
  O  O3  1  0.82542800  0.45859800  0.20300100  1
  O  O4  1  0.11735200  0.74035300  0.26057300  1
  O  O5  1  0.83033300  0.79019300  0.89620800  1
  O  O6  1  0.16966700  0.20980700  0.10379200  1
  O  O7  1  0.78010500  0.49177500  0.89924200  1
  O  O8  1  0.88264800  0.25964700  0.73942700  1
  O  O9  1  0.01076800  0.79845300  0.56605300  1
  O  O10  1  0.21989500  0.50822500  0.10075800  1
  O  O11  1  0.19187800  0.38365500  0.42902300  1
  O  O12  1  0.53978600  0.15456600  0.08215700  1
  O  O13  1  0.48843700  0.17660100  0.79798400  1
  O  O14  1  0.51156300  0.82339900  0.20201600  1
  O  O15  1  0.25869300  0.11773700  0.72791700  1
  O  O16  1  0.62415400  0.99547600  0.58031800  1
  O  O17  1  0.74130700  0.88226300  0.27208300  1
  O  O18  1  0.89232000  0.09823900  0.27331600  1
  O  O19  1  0.46559900  0.50955000  0.20225600  1
  O  O20  1  0.80812200  0.61634500  0.57097700  1
  O  O21  1  0.46021400  0.84543400  0.91784300  1
  O  O22  1  0.10768000  0.90176100  0.72668400  1
  O  O23  1  0.37584600  0.00452400  0.41968200  1
loop_
_geom_bond_atom_site_label_1
_geom_bond_atom_site_label_2
_geom_bond_distance
_geom_bond_site_symmetry_2
Li0 O4 1.952143 1_555
Li0 O21 2.012521 1_554
Li0 O6 2.037612 1_565
Li0 O14 2.104045 1_555
Li1 O8 1.952143 1_555
Li1 O12 2.012521 1_556
Li1 O5 2.037612 1_545
Li1 O13 2.104045 1_555
Cr0 O9 1.890051 1_655
Cr0 O20 1.897186 1_555
Cr0 O17 1.897347 1_555
Cr0 O16 1.926017 1_555
Cr0 O18 1.933821 1_565
Cr0 O4 2.024075 1_655
Cr1 O10 1.897205 1_556
Cr1 O1 1.931791 1_555
Cr1 O2 1.946659 1_555
Cr1 O6 1.976099 1_556
Cr1 O13 1.986773 1_555
Cr1 O12 2.012083 1_556
Cr2 O7 1.897205 1_554
Cr2 O19 1.931791 1_555
Cr2 O3 1.946659 1_555
Cr2 O5 1.976099 1_554
Cr2 O14 1.986773 1_555
Cr2 O21 2.012083 1_554
Cr3 O0 1.890051 1_455
Cr3 O11 1.897186 1_555
Cr3 O15 1.897347 1_555
Cr3 O23 1.926017 1_555
Cr3 O22 1.933821 1_545
Cr3 O8 2.024075 1_455
O0 P3 1.554458 1_555
O1 P0 1.548900 1_555
O2 P2 1.526551 1_555
O3 P3 1.526551 1_555
O4 P5 1.545520 1_555
O5 P2 1.572379 1_655
O6 P3 1.572379 1_455
O7 P0 1.554257 1_555
O8 P0 1.545520 1_555
O9 P2 1.554458 1_555
O10 P5 1.554257 1_555
O11 P5 1.532474 1_555
O12 P4 1.559200 1_545
O13 P1 1.562907 1_555
O14 P4 1.562907 1_555
O15 P1 1.544902 1_555
O16 P1 1.523613 1_565
O17 P4 1.544902 1_555
O18 P3 1.538433 1_555
O19 P5 1.548900 1_555
O20 P0 1.532474 1_555
O21 P1 1.559200 1_565
O22 P2 1.538433 1_555
O23 P4 1.523613 1_545
