# generated using pymatgen
data_LaZnSn
_symmetry_space_group_name_H-M   'P 1'
_cell_length_a   4.58667902
_cell_length_b   4.58667721
_cell_length_c   17.30837707
_cell_angle_alpha   90.00000000
_cell_angle_beta   90.00000000
_cell_angle_gamma   119.99999821
_symmetry_Int_Tables_number   1
_chemical_formula_structural   LaZnSn
_chemical_formula_sum   'La4 Zn4 Sn4'
_cell_volume   315.34323156
_cell_formula_units_Z   4
loop_
 _symmetry_equiv_pos_site_id
 _symmetry_equiv_pos_as_xyz
  1  'x, y, z'
loop_
 _atom_site_type_symbol
 _atom_site_label
 _atom_site_symmetry_multiplicity
 _atom_site_fract_x
 _atom_site_fract_y
 _atom_site_fract_z
 _atom_site_occupancy
  La  La0  1  0.00000000  0.00000000  0.75000000  1
  La  La1  1  0.00000000  0.00000000  0.25000000  1
  La  La2  1  0.00000000  0.00000000  0.50000000  1
  La  La3  1  0.00000000  0.00000000  0.00000000  1
  Zn  Zn0  1  0.66666700  0.33333300  0.84407467  1
  Zn  Zn1  1  0.66666700  0.33333300  0.65592533  1
  Zn  Zn2  1  0.33333300  0.66666700  0.15592533  1
  Zn  Zn3  1  0.33333300  0.66666700  0.34407467  1
  Sn  Sn0  1  0.66666700  0.33333300  0.11679379  1
  Sn  Sn1  1  0.66666700  0.33333300  0.38320621  1
  Sn  Sn2  1  0.33333300  0.66666700  0.88320621  1
  Sn  Sn3  1  0.33333300  0.66666700  0.61679379  1
loop_
_geom_bond_atom_site_label_1
_geom_bond_atom_site_label_2
_geom_bond_distance
_geom_bond_site_symmetry_2
La0 Zn0 3.108669 1_455
La0 Zn1 3.108669 1_455
La0 Zn0 3.108672 1_445
La0 Zn1 3.108672 1_445
La0 Zn0 3.108672 1_555
La0 Zn1 3.108672 1_555
La0 Sn3 3.511159 1_545
La0 Sn2 3.511159 1_545
La0 Sn3 3.511162 1_555
La0 Sn2 3.511162 1_555
La0 Sn3 3.511163 1_445
La0 Sn2 3.511163 1_445
La1 Zn3 3.108669 1_545
La1 Zn2 3.108669 1_545
La1 Zn3 3.108672 1_555
La1 Zn2 3.108672 1_555
La1 Zn2 3.108672 1_445
La1 Zn3 3.108672 1_445
La1 Sn1 3.511159 1_455
La1 Sn0 3.511159 1_455
La1 Sn1 3.511162 1_445
La1 Sn0 3.511162 1_445
La1 Sn0 3.511163 1_555
La1 Sn1 3.511163 1_555
La2 Sn1 3.331521 1_455
La2 Sn3 3.331521 1_545
La2 Sn3 3.331524 1_555
La2 Sn1 3.331524 1_445
La2 Sn1 3.331524 1_555
La2 Sn3 3.331524 1_445
La3 Sn2 3.331521 1_544
La3 Sn0 3.331521 1_455
La3 Sn0 3.331524 1_445
La3 Sn2 3.331524 1_554
La3 Sn0 3.331524 1_555
La3 Sn2 3.331524 1_444
Sn0 Zn2 2.733361 1_545
Sn0 Zn2 2.733362 1_655
Sn0 Zn2 2.733369 1_555
Sn1 Zn3 2.733361 1_545
Sn1 Zn3 2.733362 1_655
Sn1 Zn3 2.733369 1_555
Sn2 Zn0 2.733361 1_565
Sn2 Zn0 2.733362 1_455
Sn2 Zn0 2.733369 1_555
Sn3 Zn1 2.733361 1_565
Sn3 Zn1 2.733362 1_455
Sn3 Zn1 2.733369 1_555
