# generated using pymatgen
data_ErAu2
_symmetry_space_group_name_H-M   'P 1'
_cell_length_a   3.68125818
_cell_length_b   3.68125814
_cell_length_c   5.18346837
_cell_angle_alpha   110.79930792
_cell_angle_beta   110.79932457
_cell_angle_gamma   90.00001566
_symmetry_Int_Tables_number   1
_chemical_formula_structural   ErAu2
_chemical_formula_sum   'Er1 Au2'
_cell_volume   60.74489148
_cell_formula_units_Z   1
loop_
 _symmetry_equiv_pos_site_id
 _symmetry_equiv_pos_as_xyz
  1  'x, y, z'
loop_
 _atom_site_type_symbol
 _atom_site_label
 _atom_site_symmetry_multiplicity
 _atom_site_fract_x
 _atom_site_fract_y
 _atom_site_fract_z
 _atom_site_occupancy
  Er  Er0  1  0.00000000  0.00000000  0.00000000  1
  Au  Au0  1  0.66503352  0.66503352  0.33006903  1
  Au  Au1  1  0.33496648  0.33496648  0.66993097  1
loop_
_geom_bond_atom_site_label_1
_geom_bond_atom_site_label_2
_geom_bond_distance
_geom_bond_site_symmetry_2
Au0 Er0 2.994127 1_555
Au0 Er0 2.994131 1_565
Au0 Er0 2.994132 1_655
Au0 Er0 2.994135 1_665
Au0 Er0 3.002944 1_666
Au1 Er0 2.994127 1_666
Au1 Er0 2.994131 1_656
Au1 Er0 2.994132 1_566
Au1 Er0 2.994135 1_556
Au1 Er0 3.002944 1_555
