# generated using pymatgen
data_Co2P
_symmetry_space_group_name_H-M   'P 1'
_cell_length_a   3.44718675
_cell_length_b   5.73452173
_cell_length_c   6.43602357
_cell_angle_alpha   90.00057421
_cell_angle_beta   90.00000000
_cell_angle_gamma   90.00000000
_symmetry_Int_Tables_number   1
_chemical_formula_structural   Co2P
_chemical_formula_sum   'Co8 P4'
_cell_volume   127.22710369
_cell_formula_units_Z   4
loop_
 _symmetry_equiv_pos_site_id
 _symmetry_equiv_pos_as_xyz
  1  'x, y, z'
loop_
 _atom_site_type_symbol
 _atom_site_label
 _atom_site_symmetry_multiplicity
 _atom_site_fract_x
 _atom_site_fract_y
 _atom_site_fract_z
 _atom_site_occupancy
  Co  Co0  1  0.75000000  0.03709848  0.33167148  1
  Co  Co1  1  0.25000000  0.96293217  0.66831039  1
  Co  Co2  1  0.75000000  0.53704687  0.16832187  1
  Co  Co3  1  0.25000000  0.46295218  0.83170367  1
  Co  Co4  1  0.25000000  0.35936752  0.43497064  1
  Co  Co5  1  0.75000000  0.64062860  0.56504925  1
  Co  Co6  1  0.25000000  0.85934537  0.06502899  1
  Co  Co7  1  0.75000000  0.14065441  0.93495989  1
  P  P0  1  0.25000000  0.74039113  0.37791672  1
  P  P1  1  0.75000000  0.25960322  0.62205077  1
  P  P2  1  0.25000000  0.24039724  0.12206898  1
  P  P3  1  0.75000000  0.75958481  0.87794535  1
loop_
_geom_bond_atom_site_label_1
_geom_bond_atom_site_label_2
_geom_bond_distance
_geom_bond_site_symmetry_2
Co0 P1 2.262910 1_555
Co0 P0 2.440161 1_645
Co0 P0 2.440161 1_545
Co0 P2 2.479872 1_555
Co0 P2 2.479872 1_655
Co1 P0 2.263104 1_555
Co1 P1 2.440028 1_565
Co1 P1 2.440028 1_465
Co1 P3 2.480116 1_455
Co1 P3 2.480116 1_555
Co2 P3 2.263024 1_554
Co2 P2 2.439932 1_555
Co2 P2 2.439932 1_655
Co2 P0 2.479955 1_655
Co2 P0 2.479955 1_555
Co3 P2 2.263020 1_556
Co3 P3 2.439856 1_555
Co3 P3 2.439856 1_455
Co3 P1 2.480171 1_555
Co3 P1 2.480171 1_455
Co4 P2 2.126260 1_555
Co4 P1 2.178951 1_455
Co4 P1 2.178951 1_555
Co4 P0 2.215632 1_555
Co5 P3 2.126200 1_555
Co5 P0 2.179135 1_555
Co5 P0 2.179135 1_655
Co5 P1 2.215586 1_555
Co6 P0 2.126159 1_555
Co6 P3 2.178952 1_454
Co6 P3 2.178952 1_554
Co6 P2 2.215770 1_565
Co7 P1 2.126279 1_555
Co7 P2 2.179016 1_556
Co7 P2 2.179016 1_656
Co7 P3 2.215843 1_545
