# generated using pymatgen
data_Na2NbIn3P4(SO12)2
_symmetry_space_group_name_H-M   'P 1'
_cell_length_a   8.87545009
_cell_length_b   8.86584577
_cell_length_c   23.20851385
_cell_angle_alpha   90.13848507
_cell_angle_beta   89.83505439
_cell_angle_gamma   120.03493178
_symmetry_Int_Tables_number   1
_chemical_formula_structural   Na2NbIn3P4(SO12)2
_chemical_formula_sum   'Na6 Nb3 In9 P12 S6 O72'
_cell_volume   1581.00581787
_cell_formula_units_Z   3
loop_
 _symmetry_equiv_pos_site_id
 _symmetry_equiv_pos_as_xyz
  1  'x, y, z'
loop_
 _atom_site_type_symbol
 _atom_site_label
 _atom_site_symmetry_multiplicity
 _atom_site_fract_x
 _atom_site_fract_y
 _atom_site_fract_z
 _atom_site_occupancy
  Na  Na0  1  0.99269040  0.99150400  0.49838806  1
  Na  Na1  1  0.00565967  0.00036528  0.99737510  1
  Na  Na2  1  0.66681212  0.33143424  0.82891106  1
  Na  Na3  1  0.68097633  0.34065559  0.33116020  1
  Na  Na4  1  0.32803452  0.65380441  0.15876886  1
  Na  Na5  1  0.33388891  0.66665944  0.66950209  1
  Nb  Nb0  1  0.66482753  0.34225273  0.97774442  1
  Nb  Nb1  1  0.33217254  0.66767000  0.31329656  1
  Nb  Nb2  1  0.33160651  0.66700938  0.81511841  1
  In  In0  1  0.98833526  0.99353026  0.35028792  1
  In  In1  1  0.00080507  0.00029625  0.85081974  1
  In  In2  1  0.99998654  0.99949774  0.65660409  1
  In  In3  1  0.99680800  0.00044587  0.14576335  1
  In  In4  1  0.66721497  0.33378676  0.68768480  1
  In  In5  1  0.67533833  0.34500512  0.18391650  1
  In  In6  1  0.67387145  0.33237404  0.47814494  1
  In  In7  1  0.32891592  0.66095065  0.01717302  1
  In  In8  1  0.33285953  0.67175444  0.51681921  1
  P  P0  1  0.70472456  0.70373515  0.25045258  1
  P  P1  1  0.99796266  0.29123371  0.25091078  1
  P  P2  1  0.29527739  0.29720372  0.75102270  1
  P  P3  1  0.00177189  0.70506399  0.75098711  1
  P  P4  1  0.70300942  0.99790921  0.75111308  1
  P  P5  1  0.96141903  0.62814840  0.08255350  1
  P  P6  1  0.37434444  0.33256126  0.08384902  1
  P  P7  1  0.62438337  0.67100848  0.91763084  1
  P  P8  1  0.03915649  0.37279671  0.91748461  1
  P  P9  1  0.33392177  0.95857196  0.91849372  1
  P  P10  1  0.62477190  0.95847611  0.41730594  1
  P  P11  1  0.04162588  0.67036582  0.41656332  1
  S  S0  1  0.29569392  0.00042425  0.25112758  1
  S  S1  1  0.96442928  0.33126056  0.58312899  1
  S  S2  1  0.37019314  0.04047817  0.58294291  1
  S  S3  1  0.66703700  0.62892884  0.58232150  1
  S  S4  1  0.66499980  0.04463056  0.08216280  1
  S  S5  1  0.33261957  0.37418441  0.41594023  1
  O  O0  1  0.21891024  0.02713595  0.30342627  1
  O  O1  1  0.81371348  0.77901677  0.30458211  1
  O  O2  1  0.97524385  0.18788285  0.30577613  1
  O  O3  1  0.21410365  0.18557958  0.80368332  1
  O  O4  1  0.97107356  0.78578142  0.80380554  1
  O  O5  1  0.81490009  0.02842804  0.80358446  1
  O  O6  1  0.76782273  0.95577041  0.69488605  1
  O  O7  1  0.18823886  0.23181659  0.69506026  1
  O  O8  1  0.04414986  0.81207597  0.69498904  1
  O  O9  1  0.77585159  0.81607274  0.19635820  1
  O  O10  1  0.04218138  0.22269386  0.19662500  1
  O  O11  1  0.18882629  0.96426390  0.19930136  1
  O  O12  1  0.88283869  0.35734408  0.63458555  1
  O  O13  1  0.47593357  0.12363797  0.63450025  1
  O  O14  1  0.64378558  0.52391572  0.63415744  1
  O  O15  1  0.88740288  0.52285477  0.13758212  1
  O  O16  1  0.64253121  0.11960921  0.13604487  1
  O  O17  1  0.47688310  0.35160901  0.13854332  1
  O  O18  1  0.47735533  0.31822400  0.02891566  1
  O  O19  1  0.84181647  0.52283163  0.02859191  1
  O  O20  1  0.68130389  0.15295971  0.03061170  1
  O  O21  1  0.45168744  0.14262758  0.52968902  1
  O  O22  1  0.68861281  0.54706654  0.52911504  1
  O  O23  1  0.86173077  0.30778654  0.52995452  1
  O  O24  1  0.54737183  0.69667104  0.97225775  1
  O  O25  1  0.14455985  0.44846236  0.97161853  1
  O  O26  1  0.30790186  0.85320466  0.97240814  1
  O  O27  1  0.54806595  0.85281131  0.47232837  1
  O  O28  1  0.30640401  0.44888086  0.46924187  1
  O  O29  1  0.14184151  0.69072882  0.47212758  1
  O  O30  1  0.14287672  0.65035720  0.36325379  1
  O  O31  1  0.50745981  0.85434389  0.36378876  1
  O  O32  1  0.35183865  0.48466302  0.36447532  1
  O  O33  1  0.13081828  0.49374348  0.86392432  1
  O  O34  1  0.36229984  0.86764391  0.86441713  1
  O  O35  1  0.50534516  0.63956163  0.86418719  1
  O  O36  1  0.03014421  0.83592089  0.40976797  1
  O  O37  1  0.80770853  0.98300946  0.41225059  1
  O  O38  1  0.17931587  0.19975656  0.40952064  1
  O  O39  1  0.00920751  0.18982816  0.90941588  1
  O  O40  1  0.18083604  0.98819930  0.91042202  1
  O  O41  1  0.80833530  0.82126705  0.91015438  1
  O  O42  1  0.98171727  0.17363757  0.58777339  1
  O  O43  1  0.19468994  0.02202269  0.58732975  1
  O  O44  1  0.82445291  0.80473540  0.58672466  1
  O  O45  1  0.96284227  0.80293776  0.08322994  1
  O  O46  1  0.82746540  0.03515070  0.08320328  1
  O  O47  1  0.19603386  0.16280057  0.08331438  1
  O  O48  1  0.67288091  0.15362934  0.74503069  1
  O  O49  1  0.48105784  0.32771191  0.74495219  1
  O  O50  1  0.84636899  0.51916144  0.74494841  1
  O  O51  1  0.66760555  0.51563812  0.24619359  1
  O  O52  1  0.84036752  0.31784077  0.24589290  1
  O  O53  1  0.47376308  0.14842495  0.24546810  1
  O  O54  1  0.63372333  0.49593355  0.92386531  1
  O  O55  1  0.85732892  0.36394252  0.92423141  1
  O  O56  1  0.50707427  0.14141467  0.92503416  1
  O  O57  1  0.62598180  0.13359042  0.41701960  1
  O  O58  1  0.49542221  0.36621996  0.41807898  1
  O  O59  1  0.86198229  0.50126211  0.41646140  1
  O  O60  1  0.36073737  0.49753414  0.07826978  1
  O  O61  1  0.14324733  0.65073317  0.07670777  1
  O  O62  1  0.51065217  0.86915501  0.07766320  1
  O  O63  1  0.35301323  0.86405442  0.57989157  1
  O  O64  1  0.50731139  0.64472062  0.57837784  1
  O  O65  1  0.14089416  0.48990810  0.57860920  1
  O  O66  1  0.31261695  0.83793644  0.25898387  1
  O  O67  1  0.51863919  0.68723022  0.26241519  1
  O  O68  1  0.16514809  0.48028120  0.26250673  1
  O  O69  1  0.31304953  0.48228963  0.76160506  1
  O  O70  1  0.16882335  0.68719001  0.76119299  1
  O  O71  1  0.51773553  0.83089666  0.76162576  1
loop_
_geom_bond_atom_site_label_1
_geom_bond_atom_site_label_2
_geom_bond_distance
_geom_bond_site_symmetry_2
Na0 O37 2.567500 1_555
Na0 O36 2.585484 1_655
Na0 O44 2.588108 1_555
Na0 O42 2.657177 1_565
Na0 O43 2.661093 1_665
Na0 O38 2.709919 1_665
Na1 O47 2.544927 1_556
Na1 O45 2.554430 1_446
Na1 O40 2.578805 1_545
Na1 O41 2.628153 1_445
Na1 O39 2.636879 1_555
Na1 O46 2.651684 1_456
Na2 O48 2.519377 1_555
Na2 O50 2.539613 1_555
Na2 O49 2.545536 1_555
Na2 O55 2.714204 1_555
Na2 O56 2.726526 1_555
Na2 O54 2.734822 1_555
Na3 O52 2.495346 1_555
Na3 O59 2.498481 1_555
Na3 O51 2.551439 1_555
Na3 O57 2.587323 1_555
Na3 O53 2.666306 1_555
Na3 O58 2.680525 1_555
Na4 O60 2.425099 1_555
Na4 O61 2.508143 1_555
Na4 O62 2.591817 1_555
Na4 O68 2.832800 1_555
Na4 O67 2.872999 1_555
Na4 O66 2.880401 1_555
Na5 O70 2.637233 1_555
Na5 O71 2.642082 1_555
Na5 O69 2.643348 1_555
Na5 O63 2.671147 1_555
Na5 O65 2.675338 1_555
Na5 O64 2.675551 1_555
Nb0 O18 1.964526 1_556
Nb0 O54 1.970544 1_555
Nb0 O19 1.976698 1_556
Nb0 O56 2.032500 1_555
Nb0 O55 2.039259 1_555
Nb0 O20 2.144762 1_556
Nb1 O67 1.966197 1_555
Nb1 O68 1.970358 1_555
Nb1 O30 1.980410 1_555
Nb1 O31 1.989043 1_555
Nb1 O66 2.042187 1_555
Nb1 O32 2.089940 1_555
Nb2 O70 1.988962 1_555
Nb2 O69 1.993235 1_555
Nb2 O71 1.993885 1_555
Nb2 O34 2.013522 1_555
Nb2 O33 2.018656 1_555
Nb2 O35 2.030024 1_555
In0 O1 2.047752 1_555
In0 O2 2.063853 1_565
In0 O37 2.117657 1_555
In0 O36 2.127726 1_655
In0 O0 2.199542 1_665
In0 O38 2.237128 1_665
In1 O3 2.088725 1_555
In1 O4 2.089614 1_445
In1 O5 2.100038 1_455
In1 O39 2.131355 1_555
In1 O41 2.148614 1_445
In1 O40 2.159422 1_545
In2 O8 2.090341 1_655
In2 O6 2.092132 1_555
In2 O7 2.094104 1_665
In2 O42 2.286001 1_565
In2 O43 2.291529 1_665
In2 O44 2.312366 1_555
In3 O10 2.152967 1_655
In3 O9 2.164180 1_545
In3 O45 2.173761 1_545
In3 O47 2.178660 1_655
In3 O46 2.222478 1_555
In3 O11 2.261119 1_645
In4 O50 2.093142 1_555
In4 O49 2.097108 1_555
In4 O48 2.101458 1_555
In4 O13 2.170631 1_555
In4 O14 2.188713 1_555
In4 O12 2.193703 1_555
In5 O15 2.052030 1_555
In5 O17 2.080625 1_555
In5 O51 2.115455 1_555
In5 O52 2.153889 1_555
In5 O16 2.172814 1_555
In5 O53 2.270445 1_555
In6 O57 2.130886 1_555
In6 O59 2.138448 1_555
In6 O23 2.156387 1_555
In6 O22 2.186371 1_555
In6 O21 2.196592 1_555
In6 O58 2.243294 1_555
In7 O25 2.063659 1_554
In7 O24 2.078826 1_554
In7 O26 2.085035 1_554
In7 O61 2.114461 1_555
In7 O60 2.147405 1_555
In7 O62 2.236057 1_555
In8 O27 2.053922 1_555
In8 O29 2.067581 1_555
In8 O28 2.169172 1_555
In8 O63 2.183026 1_555
In8 O65 2.192252 1_555
In8 O64 2.209485 1_555
O0 S0 1.466006 1_555
O1 P0 1.521850 1_555
O2 P1 1.523437 1_555
O3 P2 1.509698 1_555
O4 P3 1.509324 1_655
O5 P4 1.509569 1_545
O6 P4 1.543316 1_555
O7 P2 1.541959 1_555
O8 P3 1.541611 1_555
O9 P0 1.529283 1_555
O10 P1 1.530620 1_455
O11 S0 1.466111 1_565
O12 S1 1.471525 1_555
O13 S2 1.471621 1_555
O14 S3 1.472531 1_555
O15 P5 1.523518 1_555
O16 S4 1.474013 1_555
O17 P6 1.523099 1_555
O18 P6 1.608201 1_555
O19 P5 1.605268 1_555
O20 S4 1.496739 1_555
O21 S2 1.488431 1_555
O22 S3 1.490536 1_555
O23 S1 1.487440 1_555
O24 P7 1.508505 1_555
O25 P8 1.509341 1_555
O26 P9 1.509873 1_555
O27 P10 1.527784 1_555
O28 S5 1.473648 1_555
O29 P11 1.526904 1_555
O30 P11 1.588051 1_555
O31 P10 1.587060 1_555
O32 S5 1.500789 1_555
O33 P8 1.576133 1_555
O34 P9 1.576385 1_555
O35 P7 1.563146 1_555
O36 P11 1.529901 1_555
O37 P10 1.530619 1_555
O38 S5 1.469257 1_555
O39 P8 1.518003 1_555
O40 P9 1.519586 1_555
O41 P7 1.514122 1_555
O42 S1 1.484431 1_555
O43 S2 1.485766 1_555
O44 S3 1.487270 1_555
O45 P5 1.543414 1_555
O46 S4 1.486073 1_555
O47 P6 1.544531 1_555
O48 P4 1.538892 1_545
O49 P2 1.537600 1_555
O50 P3 1.537154 1_655
O51 P0 1.532559 1_555
O52 P1 1.535258 1_555
O53 S0 1.469851 1_555
O54 P7 1.602203 1_555
O55 P8 1.583295 1_655
O56 P9 1.587108 1_545
O57 P10 1.547220 1_545
O58 S5 1.482528 1_555
O59 P11 1.548215 1_655
O60 P6 1.532466 1_555
O61 P5 1.529140 1_455
O62 S4 1.474599 1_565
O63 S2 1.495190 1_565
O64 S3 1.495718 1_555
O65 S1 1.495618 1_455
O66 S0 1.532691 1_565
O67 P0 1.606820 1_555
O68 P1 1.610557 1_455
O69 P2 1.586525 1_555
O70 P3 1.586472 1_555
O71 P4 1.586835 1_555
