# generated using pymatgen
data_SrGe
_symmetry_space_group_name_H-M   'P 1'
_cell_length_a   4.20167515
_cell_length_b   4.82321012
_cell_length_c   6.18128072
_cell_angle_alpha   112.96360783
_cell_angle_beta   90.00000000
_cell_angle_gamma   90.00000000
_symmetry_Int_Tables_number   1
_chemical_formula_structural   SrGe
_chemical_formula_sum   'Sr2 Ge2'
_cell_volume   115.34006487
_cell_formula_units_Z   2
loop_
 _symmetry_equiv_pos_site_id
 _symmetry_equiv_pos_as_xyz
  1  'x, y, z'
loop_
 _atom_site_type_symbol
 _atom_site_label
 _atom_site_symmetry_multiplicity
 _atom_site_fract_x
 _atom_site_fract_y
 _atom_site_fract_z
 _atom_site_occupancy
  Sr  Sr0  1  0.75000000  0.13655297  0.27310695  1
  Sr  Sr1  1  0.25000000  0.86344703  0.72689305  1
  Ge  Ge0  1  0.75000000  0.43011494  0.86022888  1
  Ge  Ge1  1  0.25000000  0.56988506  0.13977112  1
loop_
_geom_bond_atom_site_label_1
_geom_bond_atom_site_label_2
_geom_bond_distance
_geom_bond_site_symmetry_2
Ge0 Ge1 2.635296 1_656
Ge0 Ge1 2.635296 1_556
Ge0 Sr1 3.287133 1_555
Ge0 Sr1 3.287133 1_655
Ge0 Sr1 3.287133 1_545
Ge0 Sr1 3.287133 1_645
Ge0 Sr0 3.341564 1_555
Ge0 Sr0 3.367149 1_566
Ge0 Sr0 3.367156 1_556
Ge1 Sr0 3.287133 1_455
Ge1 Sr0 3.287133 1_555
Ge1 Sr0 3.287133 1_565
Ge1 Sr0 3.287133 1_465
Ge1 Sr1 3.341564 1_555
Ge1 Sr1 3.367149 1_544
Ge1 Sr1 3.367156 1_554
