# generated using pymatgen
data_Na6Ca2Hf2Si3(SO8)3
_symmetry_space_group_name_H-M   'P 1'
_cell_length_a   9.29002626
_cell_length_b   9.31411327
_cell_length_c   23.01789040
_cell_angle_alpha   90.11174269
_cell_angle_beta   90.67060655
_cell_angle_gamma   119.69853487
_symmetry_Int_Tables_number   1
_chemical_formula_structural   Na6Ca2Hf2Si3(SO8)3
_chemical_formula_sum   'Na18 Ca6 Hf6 Si9 S9 O72'
_cell_volume   1729.89147968
_cell_formula_units_Z   3
loop_
 _symmetry_equiv_pos_site_id
 _symmetry_equiv_pos_as_xyz
  1  'x, y, z'
loop_
 _atom_site_type_symbol
 _atom_site_label
 _atom_site_symmetry_multiplicity
 _atom_site_fract_x
 _atom_site_fract_y
 _atom_site_fract_z
 _atom_site_occupancy
  Na  Na0  1  0.37065002  0.33988992  0.24275288  1
  Na  Na1  1  0.00342860  0.64687313  0.23416542  1
  Na  Na2  1  0.98104149  0.33691478  0.74084704  1
  Na  Na3  1  0.38692498  0.03864078  0.74228085  1
  Na  Na4  1  0.30137483  0.33112649  0.58033404  1
  Na  Na5  1  0.65117315  0.98817851  0.59766821  1
  Na  Na6  1  0.30738576  0.96555064  0.06821466  1
  Na  Na7  1  0.65343560  0.67063742  0.08112048  1
  Na  Na8  1  0.00219287  0.69263762  0.91790156  1
  Na  Na9  1  0.32023408  0.27929142  0.90384867  1
  Na  Na10  1  0.00167436  0.30706596  0.43220729  1
  Na  Na11  1  0.32167546  0.04221988  0.41265519  1
  Na  Na12  1  0.01508862  0.00392890  0.50802323  1
  Na  Na13  1  0.01561351  0.01354424  0.99247142  1
  Na  Na14  1  0.64372530  0.30339411  0.82219630  1
  Na  Na15  1  0.63498996  0.31432504  0.33185732  1
  Na  Na16  1  0.30793019  0.64584817  0.15266467  1
  Na  Na17  1  0.31141494  0.66281121  0.65929582  1
  Ca  Ca0  1  0.00389953  0.00254654  0.34965091  1
  Ca  Ca1  1  -0.00010373  0.00276528  0.84739306  1
  Ca  Ca2  1  0.66593757  0.33853296  0.68365923  1
  Ca  Ca3  1  0.66476298  0.32531173  0.18228957  1
  Ca  Ca4  1  0.32075844  0.66139785  0.01698983  1
  Ca  Ca5  1  0.32181946  0.65833838  0.51975960  1
  Hf  Hf0  1  0.00368637  0.02020722  0.65030289  1
  Hf  Hf1  1  0.01991835  0.00061821  0.14397472  1
  Hf  Hf2  1  0.65729115  0.32624724  0.98534280  1
  Hf  Hf3  1  0.65042123  0.32866470  0.48842050  1
  Hf  Hf4  1  0.34133574  0.66625690  0.31517043  1
  Hf  Hf5  1  0.35578034  0.68980567  0.81032216  1
  Si  Si0  1  0.30240984  0.99149147  0.25424711  1
  Si  Si1  1  0.30030756  0.31084705  0.75557029  1
  Si  Si2  1  0.70147608  0.99786992  0.74880024  1
  Si  Si3  1  0.96144193  0.32701964  0.58481774  1
  Si  Si4  1  0.35746491  0.03216257  0.58703476  1
  Si  Si5  1  0.96144307  0.63225778  0.08754340  1
  Si  Si6  1  0.36864806  0.33288140  0.08802689  1
  Si  Si7  1  0.34031853  0.97100605  0.91991185  1
  Si  Si8  1  0.34395721  0.37098618  0.41675384  1
  S  S0  1  0.69608958  0.70788705  0.24943935  1
  S  S1  1  0.00967877  0.30350219  0.25231870  1
  S  S2  1  0.01133891  0.70949804  0.75273722  1
  S  S3  1  0.67932131  0.63800550  0.58269392  1
  S  S4  1  0.67884643  0.03969876  0.08289542  1
  S  S5  1  0.62687435  0.65617337  0.91949663  1
  S  S6  1  0.02706435  0.37218618  0.91601677  1
  S  S7  1  0.62315034  0.96577227  0.41764900  1
  S  S8  1  0.03452321  0.65541777  0.41213648  1
  O  O0  1  0.21569363  0.00888473  0.31164740  1
  O  O1  1  0.79251252  0.79412527  0.30107242  1
  O  O2  1  0.99110020  0.21635551  0.30703747  1
  O  O3  1  0.22510123  0.20268024  0.81283926  1
  O  O4  1  0.99342596  0.77381596  0.80840832  1
  O  O5  1  0.80434833  0.00896120  0.80500995  1
  O  O6  1  0.79187291  0.97476978  0.68897058  1
  O  O7  1  0.16798833  0.20597202  0.69788606  1
  O  O8  1  0.02854553  0.82198388  0.70346498  1
  O  O9  1  0.77167672  0.80458258  0.19594124  1
  O  O10  1  0.02354447  0.20877472  0.20220127  1
  O  O11  1  0.17121236  0.96942855  0.19667271  1
  O  O12  1  0.88092454  0.34506573  0.64256952  1
  O  O13  1  0.46263109  0.11834430  0.64410723  1
  O  O14  1  0.65358443  0.54170138  0.63403196  1
  O  O15  1  0.88386433  0.54269531  0.14758331  1
  O  O16  1  0.64850151  0.10881529  0.13534414  1
  O  O17  1  0.45810200  0.34702793  0.14916423  1
  O  O18  1  0.47023157  0.29995418  0.03317446  1
  O  O19  1  0.83626231  0.52717564  0.03078770  1
  O  O20  1  0.69708096  0.14721578  0.03152485  1
  O  O21  1  0.45753143  0.16440042  0.52865799  1
  O  O22  1  0.69024567  0.54186374  0.52992016  1
  O  O23  1  0.84074201  0.31106087  0.52452152  1
  O  O24  1  0.55767141  0.67720190  0.97325159  1
  O  O25  1  0.13157424  0.44941674  0.96742712  1
  O  O26  1  0.32424162  0.87354318  0.97868005  1
  O  O27  1  0.55378744  0.87768960  0.47010190  1
  O  O28  1  0.31993543  0.45521708  0.47293602  1
  O  O29  1  0.13712178  0.68690797  0.46377170  1
  O  O30  1  0.12956518  0.64217718  0.36002481  1
  O  O31  1  0.51252683  0.86987978  0.36554793  1
  O  O32  1  0.35686810  0.48796491  0.35776034  1
  O  O33  1  0.10573357  0.47429851  0.86350269  1
  O  O34  1  0.35017213  0.86161515  0.86305088  1
  O  O35  1  0.51580492  0.63851371  0.86851587  1
  O  O36  1  0.00293961  0.79358833  0.40479350  1
  O  O37  1  0.79391323  0.99919073  0.40873081  1
  O  O38  1  0.17801327  0.18614319  0.41351351  1
  O  O39  1  0.00098758  0.20379991  0.91194858  1
  O  O40  1  0.17446110  0.99136388  0.91744905  1
  O  O41  1  0.79810394  0.78845581  0.91258258  1
  O  O42  1  0.95572541  0.14106033  0.58514098  1
  O  O43  1  0.17532791  0.02510665  0.58876607  1
  O  O44  1  0.83615818  0.79890372  0.58405366  1
  O  O45  1  0.95484818  0.81444731  0.08909071  1
  O  O46  1  0.83564800  0.03239452  0.08879619  1
  O  O47  1  0.18362410  0.15528397  0.08852189  1
  O  O48  1  0.67722998  0.15838277  0.74678457  1
  O  O49  1  0.48245989  0.33734937  0.74707019  1
  O  O50  1  0.87798459  0.54074534  0.74438770  1
  O  O51  1  0.67842587  0.54119590  0.24762637  1
  O  O52  1  0.87730535  0.34348309  0.24628049  1
  O  O53  1  0.48191776  0.15478248  0.24955632  1
  O  O54  1  0.62788208  0.49239737  0.92173132  1
  O  O55  1  0.86340283  0.37000596  0.92306544  1
  O  O56  1  0.50883288  0.16132991  0.92260118  1
  O  O57  1  0.62552995  0.13019127  0.41728777  1
  O  O58  1  0.51319523  0.34837817  0.41900574  1
  O  O59  1  0.87695452  0.49357170  0.41416818  1
  O  O60  1  0.36089508  0.49918679  0.07861455  1
  O  O61  1  0.15436808  0.68611781  0.08282597  1
  O  O62  1  0.54059020  0.87131733  0.07434479  1
  O  O63  1  0.35871371  0.86261579  0.57665396  1
  O  O64  1  0.53777836  0.66559909  0.57402927  1
  O  O65  1  0.15423579  0.46615047  0.58028629  1
  O  O66  1  0.30032178  0.80950744  0.25662056  1
  O  O67  1  0.52260505  0.68584662  0.25390685  1
  O  O68  1  0.17423597  0.46769792  0.25395078  1
  O  O69  1  0.28896417  0.48447586  0.76095865  1
  O  O70  1  0.17478908  0.70668187  0.75396789  1
  O  O71  1  0.50948898  0.82963646  0.75190772  1
loop_
_geom_bond_atom_site_label_1
_geom_bond_atom_site_label_2
_geom_bond_distance
_geom_bond_site_symmetry_2
Na0 O17 2.300675 1_555
Na0 O53 2.414282 1_555
Na0 O51 2.526460 1_555
Na0 O68 2.641054 1_555
Na0 O67 2.814752 1_555
Na0 O10 2.963761 1_555
Na0 O32 3.015798 1_555
Na1 O15 2.240489 1_455
Na1 O66 2.448021 1_555
Na1 O52 2.483101 1_455
Na1 O51 2.694303 1_455
Na1 O11 2.757129 1_555
Na1 O68 2.849644 1_555
Na2 O12 2.451428 1_555
Na2 O48 2.471698 1_555
Na2 O50 2.515914 1_555
Na2 O69 2.521338 1_655
Na2 O7 2.759695 1_655
Na3 O48 2.353868 1_555
Na3 O13 2.382986 1_555
Na3 O49 2.467853 1_555
Na3 O71 2.706891 1_545
Na3 O70 2.737514 1_545
Na4 O65 2.270128 1_555
Na4 O43 2.496675 1_555
Na4 O28 2.701925 1_555
Na4 O64 2.789149 1_555
Na4 O42 2.798872 1_455
Na4 O21 2.862921 1_555
Na4 O7 2.979130 1_555
Na5 O63 2.408755 1_555
Na5 O42 2.478790 1_565
Na5 O6 2.497853 1_555
Na5 O64 2.697602 1_555
Na5 O13 2.797031 1_565
Na6 O26 2.267124 1_554
Na6 O61 2.292673 1_555
Na6 O47 2.585739 1_565
Na6 O62 2.713184 1_555
Na6 O18 2.830152 1_565
Na6 O45 2.900008 1_455
Na7 O60 2.373823 1_555
Na7 O45 2.437033 1_555
Na7 O62 2.560470 1_555
Na7 O24 2.638724 1_554
Na7 O19 2.881205 1_555
Na7 O9 2.882609 1_555
Na7 O46 2.930681 1_565
Na8 O40 2.427180 1_555
Na8 O41 2.465342 1_455
Na8 O55 2.621555 1_455
Na8 O4 2.644599 1_455
Na9 O3 2.237091 1_555
Na9 O40 2.353407 1_545
Na9 O56 2.520891 1_555
Na9 O54 2.574071 1_555
Na9 O39 2.696720 1_555
Na10 O38 2.445445 1_555
Na10 O59 2.553123 1_455
Na10 O37 2.593391 1_445
Na10 O23 2.623146 1_455
Na10 O28 2.722542 1_555
Na11 O38 2.313413 1_555
Na11 O0 2.472254 1_555
Na11 O58 2.506703 1_555
Na11 O57 2.520281 1_555
Na11 O36 2.711960 1_545
Na11 O21 2.916110 1_555
Na12 O43 2.313419 1_555
Na12 O42 2.408006 1_455
Na12 O44 2.531465 1_445
Na12 O38 2.729439 1_555
Na13 O40 2.358546 1_545
Na13 O39 2.615244 1_555
Na13 O47 2.633080 1_556
Na13 O41 2.749579 1_445
Na13 O45 2.777005 1_446
Na13 O46 2.849225 1_456
Na14 O48 2.313932 1_555
Na14 O49 2.397034 1_555
Na14 O56 2.664425 1_555
Na14 O50 2.858417 1_555
Na14 O55 2.927356 1_555
Na14 O54 2.935752 1_555
Na15 O53 2.377231 1_555
Na15 O58 2.410604 1_555
Na15 O57 2.585302 1_555
Na15 O51 2.752533 1_555
Na15 O59 2.756653 1_555
Na15 O52 2.919159 1_555
Na16 O61 2.288866 1_555
Na16 O60 2.385356 1_555
Na16 O68 2.787850 1_555
Na16 O62 2.817833 1_555
Na16 O66 2.854963 1_555
Na16 O67 2.949315 1_555
Na17 O65 2.463612 1_555
Na17 O63 2.549124 1_555
Na17 O70 2.664932 1_555
Na17 O71 2.721546 1_555
Na17 O69 2.821657 1_555
Na17 O64 2.884039 1_555
Ca0 O0 2.136687 1_555
Ca0 O38 2.212514 1_555
Ca0 O1 2.244544 1_445
Ca0 O2 2.276314 1_455
Ca0 O36 2.322014 1_545
Ca0 O37 2.378586 1_445
Ca1 O5 2.077952 1_455
Ca1 O3 2.159051 1_555
Ca1 O4 2.284840 1_445
Ca1 O40 2.313355 1_545
Ca1 O39 2.384153 1_555
Ca1 O41 2.473866 1_445
Ca2 O13 2.171740 1_555
Ca2 O12 2.193447 1_555
Ca2 O49 2.252900 1_555
Ca2 O48 2.262320 1_555
Ca2 O14 2.262637 1_555
Ca2 O50 2.372928 1_555
Ca3 O17 2.158556 1_555
Ca3 O15 2.200352 1_555
Ca3 O16 2.223169 1_555
Ca3 O53 2.281074 1_555
Ca3 O52 2.386785 1_555
Ca3 O51 2.460063 1_555
Ca4 O26 2.151071 1_554
Ca4 O25 2.189651 1_554
Ca4 O60 2.233373 1_555
Ca4 O61 2.268262 1_555
Ca4 O24 2.368701 1_554
Ca4 O62 2.388883 1_555
Ca5 O28 2.167943 1_555
Ca5 O63 2.187742 1_555
Ca5 O65 2.206396 1_555
Ca5 O29 2.253385 1_555
Ca5 O64 2.323073 1_555
Ca5 O27 2.414278 1_555
Hf0 O7 1.964617 1_555
Hf0 O6 2.015103 1_445
Hf0 O42 2.050161 1_455
Hf0 O43 2.128857 1_555
Hf0 O8 2.320376 1_545
Hf0 O44 2.397868 1_445
Hf1 O11 1.974159 1_545
Hf1 O47 1.974623 1_555
Hf1 O45 1.975634 1_445
Hf1 O46 2.254742 1_455
Hf1 O10 2.341030 1_555
Hf1 O9 2.446184 1_445
Hf2 O18 1.978937 1_556
Hf2 O56 2.047640 1_555
Hf2 O19 2.056566 1_556
Hf2 O20 2.157717 1_556
Hf2 O54 2.243175 1_555
Hf2 O55 2.276104 1_555
Hf3 O21 1.933258 1_555
Hf3 O23 2.024084 1_555
Hf3 O22 2.061300 1_555
Hf3 O58 2.096956 1_555
Hf3 O57 2.389017 1_555
Hf3 O59 2.569190 1_555
Hf4 O32 1.995004 1_555
Hf4 O66 2.059227 1_555
Hf4 O31 2.104855 1_555
Hf4 O30 2.144290 1_555
Hf4 O67 2.147048 1_555
Hf4 O68 2.215784 1_555
Hf5 O71 1.937052 1_555
Hf5 O34 2.028082 1_555
Hf5 O69 2.032882 1_555
Hf5 O70 2.178554 1_555
Hf5 O35 2.211828 1_555
Hf5 O33 2.525773 1_555
O0 Si0 1.604458 1_545
O1 S0 1.455505 1_555
O2 S1 1.464672 1_655
O3 Si1 1.603153 1_555
O4 S2 1.459252 1_655
O5 Si2 1.571849 1_545
O6 Si2 1.689095 1_555
O7 Si1 1.730647 1_555
O8 S2 1.500817 1_555
O9 S0 1.489470 1_555
O10 S1 1.495981 1_555
O11 Si0 1.731180 1_555
O12 Si3 1.581726 1_555
O13 Si4 1.585369 1_555
O14 S3 1.434013 1_555
O15 Si5 1.599153 1_555
O16 S4 1.461550 1_555
O17 Si6 1.597415 1_555
O18 Si6 1.700572 1_555
O19 Si5 1.687795 1_555
O20 S4 1.506962 1_555
O21 Si4 1.757252 1_555
O22 S3 1.541578 1_555
O23 Si3 1.732997 1_555
O24 S5 1.457772 1_555
O25 S6 1.462252 1_555
O26 Si7 1.597310 1_555
O27 S7 1.429774 1_555
O28 Si8 1.585538 1_555
O29 S8 1.449909 1_555
O30 S8 1.538085 1_555
O31 S7 1.532827 1_555
O32 Si8 1.710413 1_555
O33 S6 1.495398 1_555
O34 Si7 1.688053 1_555
O35 S5 1.507152 1_555
O36 S8 1.464482 1_555
O37 S7 1.474536 1_555
O38 Si8 1.647161 1_555
O39 S6 1.466171 1_555
O40 Si7 1.643407 1_555
O41 S5 1.462344 1_555
O42 Si3 1.706392 1_555
O43 Si4 1.661436 1_555
O44 S3 1.484895 1_555
O45 Si5 1.728421 1_555
O46 S4 1.496204 1_555
O47 Si6 1.695318 1_555
O48 Si2 1.619173 1_545
O49 Si1 1.598997 1_555
O50 S2 1.451212 1_655
O51 S0 1.478619 1_555
O52 S1 1.456106 1_655
O53 Si0 1.611680 1_545
O54 S5 1.531049 1_555
O55 S6 1.521054 1_655
O56 Si7 1.686582 1_545
O57 S7 1.520626 1_545
O58 Si8 1.686744 1_555
O59 S8 1.494237 1_655
O60 Si6 1.600931 1_555
O61 Si5 1.609216 1_455
O62 S4 1.464573 1_565
O63 Si4 1.602429 1_565
O64 S3 1.470993 1_555
O65 Si3 1.613433 1_455
O66 Si0 1.686493 1_555
O67 S0 1.525235 1_555
O68 S1 1.535950 1_555
O69 Si1 1.676367 1_555
O70 S2 1.531555 1_555
O71 Si2 1.695795 1_555
