# generated using pymatgen
data_Na4ScSi2GePO12
_symmetry_space_group_name_H-M   'P 1'
_cell_length_a   9.01960414
_cell_length_b   9.01960384
_cell_length_c   21.90698030
_cell_angle_alpha   91.19743956
_cell_angle_beta   88.80256039
_cell_angle_gamma   120.32203020
_symmetry_Int_Tables_number   1
_chemical_formula_structural   Na4ScSi2GePO12
_chemical_formula_sum   'Na24 Sc6 Si12 Ge6 P6 O72'
_cell_volume   1537.95479930
_cell_formula_units_Z   6
loop_
 _symmetry_equiv_pos_site_id
 _symmetry_equiv_pos_as_xyz
  1  'x, y, z'
loop_
 _atom_site_type_symbol
 _atom_site_label
 _atom_site_symmetry_multiplicity
 _atom_site_fract_x
 _atom_site_fract_y
 _atom_site_fract_z
 _atom_site_occupancy
  Na  Na0  1  0.63785082  0.00507264  0.25083827  1
  Na  Na1  1  0.36922864  0.36680832  0.24698317  1
  Na  Na2  1  0.99256878  0.62676055  0.25059580  1
  Na  Na3  1  0.63319168  0.63077136  0.74698317  1
  Na  Na4  1  0.99492736  0.36214918  0.75083827  1
  Na  Na5  1  0.37323945  0.00743122  0.75059580  1
  Na  Na6  1  0.30451782  0.33840564  0.58417127  1
  Na  Na7  1  0.03589564  0.70014132  0.58031617  1
  Na  Na8  1  0.65923578  0.96009355  0.58392880  1
  Na  Na9  1  0.29985868  0.96410436  0.08031617  1
  Na  Na10  1  0.66159436  0.69548218  0.08417127  1
  Na  Na11  1  0.03990645  0.34076422  0.08392880  1
  Na  Na12  1  0.97118382  0.67173964  0.91750527  1
  Na  Na13  1  0.70256164  0.03347532  0.91365017  1
  Na  Na14  1  0.32590178  0.29342755  0.91726280  1
  Na  Na15  1  0.96652468  0.29743836  0.41365017  1
  Na  Na16  1  0.32826036  0.02881618  0.41750527  1
  Na  Na17  1  0.70657245  0.67409822  0.41726280  1
  Na  Na18  1  0.99620426  0.99475743  0.49927830  1
  Na  Na19  1  0.00524257  0.00379574  0.99927830  1
  Na  Na20  1  0.66287126  0.32809043  0.83261130  1
  Na  Na21  1  0.67190957  0.33712874  0.33261130  1
  Na  Na22  1  0.32953726  0.66142443  0.16594530  1
  Na  Na23  1  0.33857557  0.67046274  0.66594530  1
  Sc  Sc0  1  0.99400428  0.99668968  0.35229473  1
  Sc  Sc1  1  0.00331032  0.00599572  0.85229473  1
  Sc  Sc2  1  0.66067128  0.33002268  0.68562773  1
  Sc  Sc3  1  0.66997732  0.33932872  0.18562773  1
  Sc  Sc4  1  0.32733728  0.66335668  0.01896173  1
  Sc  Sc5  1  0.33664332  0.67266272  0.51896173  1
  Si  Si0  1  0.70329008  0.71144513  0.25046132  1
  Si  Si1  1  0.00616390  0.29512314  0.25120105  1
  Si  Si2  1  0.28855487  0.29670992  0.75046132  1
  Si  Si3  1  0.70487686  0.99383610  0.75120105  1
  Si  Si4  1  0.36995708  0.04477813  0.58379432  1
  Si  Si5  1  0.67283090  0.62845614  0.58453405  1
  Si  Si6  1  0.95522187  0.63004292  0.08379432  1
  Si  Si7  1  0.37154386  0.32716910  0.08453405  1
  Si  Si8  1  0.03662308  0.37811213  0.91712832  1
  Si  Si9  1  0.33949690  0.96179014  0.91786805  1
  Si  Si10  1  0.62188787  0.96337692  0.41712832  1
  Si  Si11  1  0.03820986  0.66050310  0.41786805  1
  Ge  Ge0  1  0.99872880  0.99680484  0.64878808  1
  Ge  Ge1  1  0.00319516  0.00127120  0.14878808  1
  Ge  Ge2  1  0.66539580  0.33013784  0.98212108  1
  Ge  Ge3  1  0.66986216  0.33460420  0.48212108  1
  Ge  Ge4  1  0.33206180  0.66347184  0.31545508  1
  Ge  Ge5  1  0.33652816  0.66793820  0.81545508  1
  P  P0  1  0.28782942  0.99188344  0.24926965  1
  P  P1  1  0.00811656  0.71217058  0.74926965  1
  P  P2  1  0.95449642  0.32521644  0.58260265  1
  P  P3  1  0.67478356  0.04550358  0.08260265  1
  P  P4  1  0.62116242  0.65855044  0.91593665  1
  P  P5  1  0.34144956  0.37883758  0.41593665  1
  O  O0  1  0.21078522  0.02606574  0.30678206  1
  O  O1  1  0.82170535  0.78964335  0.30978636  1
  O  O2  1  0.97533997  0.18107895  0.31057048  1
  O  O3  1  0.21035665  0.17829465  0.80978636  1
  O  O4  1  0.97393426  0.78921478  0.80678206  1
  O  O5  1  0.81892105  0.02466003  0.81057048  1
  O  O6  1  0.79704724  0.95692011  0.68958662  1
  O  O7  1  0.15929279  0.20341513  0.69032328  1
  O  O8  1  0.03817430  0.82814081  0.69196733  1
  O  O9  1  0.79658487  0.84070721  0.19032328  1
  O  O10  1  0.04307989  0.20295276  0.18958662  1
  O  O11  1  0.17185919  0.96182570  0.19196733  1
  O  O12  1  0.87745222  0.35939874  0.64011506  1
  O  O13  1  0.48837235  0.12297635  0.64311936  1
  O  O14  1  0.64200697  0.51441195  0.64390348  1
  O  O15  1  0.87702365  0.51162765  0.14311936  1
  O  O16  1  0.64060126  0.12254778  0.14011506  1
  O  O17  1  0.48558805  0.35799303  0.14390348  1
  O  O18  1  0.46371424  0.29025311  0.02291962  1
  O  O19  1  0.82595979  0.53674813  0.02365628  1
  O  O20  1  0.70484130  0.16147381  0.02530033  1
  O  O21  1  0.46325187  0.17404021  0.52365628  1
  O  O22  1  0.70974689  0.53628576  0.52291962  1
  O  O23  1  0.83852619  0.29515870  0.52530033  1
  O  O24  1  0.54411822  0.69273274  0.97344906  1
  O  O25  1  0.15503835  0.45631035  0.97645336  1
  O  O26  1  0.30867297  0.84774595  0.97723748  1
  O  O27  1  0.54368965  0.84496165  0.47645336  1
  O  O28  1  0.30726726  0.45588178  0.47344906  1
  O  O29  1  0.15225405  0.69132703  0.47723748  1
  O  O30  1  0.13038024  0.62358711  0.35625362  1
  O  O31  1  0.49262579  0.87008213  0.35699028  1
  O  O32  1  0.37150730  0.49480781  0.35863433  1
  O  O33  1  0.12991787  0.50737421  0.85699028  1
  O  O34  1  0.37641289  0.86961976  0.85625362  1
  O  O35  1  0.50519219  0.62849270  0.85863433  1
  O  O36  1  0.01817051  0.82884521  0.41289565  1
  O  O37  1  0.81457887  0.99270341  0.41266824  1
  O  O38  1  0.18440703  0.19694726  0.41026108  1
  O  O39  1  0.00729659  0.18542113  0.91266824  1
  O  O40  1  0.17115479  0.98182949  0.91289565  1
  O  O41  1  0.80305274  0.81559297  0.91026108  1
  O  O42  1  0.96579840  0.15929565  0.58594134  1
  O  O43  1  0.17920383  0.03291193  0.59037604  1
  O  O44  1  0.85210555  0.82116528  0.58913115  1
  O  O45  1  0.96708807  0.82079617  0.09037604  1
  O  O46  1  0.84070435  0.03420160  0.08594134  1
  O  O47  1  0.17883472  0.14789445  0.08913115  1
  O  O48  1  0.68483751  0.16217821  0.74622865  1
  O  O49  1  0.48124587  0.32603641  0.74600124  1
  O  O50  1  0.85107403  0.53028026  0.74359408  1
  O  O51  1  0.67396359  0.51875413  0.24600124  1
  O  O52  1  0.83782179  0.31516249  0.24622865  1
  O  O53  1  0.46971974  0.14892597  0.24359408  1
  O  O54  1  0.63246540  0.49262865  0.91927434  1
  O  O55  1  0.84587083  0.36624493  0.92370904  1
  O  O56  1  0.51877255  0.15449828  0.92246415  1
  O  O57  1  0.63375507  0.15412917  0.42370904  1
  O  O58  1  0.50737135  0.36753460  0.41927434  1
  O  O59  1  0.84550172  0.48122745  0.42246415  1
  O  O60  1  0.35150351  0.49551221  0.07956265  1
  O  O61  1  0.14791187  0.65937041  0.07933524  1
  O  O62  1  0.51774003  0.86361426  0.07692808  1
  O  O63  1  0.34062959  0.85208813  0.57933524  1
  O  O64  1  0.50448779  0.64849649  0.57956265  1
  O  O65  1  0.13638574  0.48225997  0.57692808  1
  O  O66  1  0.29913140  0.82596265  0.25260834  1
  O  O67  1  0.51253683  0.69957893  0.25704304  1
  O  O68  1  0.18543855  0.48783228  0.25579815  1
  O  O69  1  0.30042107  0.48746317  0.75704304  1
  O  O70  1  0.17403735  0.70086860  0.75260834  1
  O  O71  1  0.51216772  0.81456145  0.75579815  1
loop_
_geom_bond_atom_site_label_1
_geom_bond_atom_site_label_2
_geom_bond_distance
_geom_bond_site_symmetry_2
Na0 O67 2.398535 1_545
Na0 O52 2.448774 1_555
Na0 O53 2.452306 1_555
Na0 O66 2.638036 1_545
Na0 O31 2.643238 1_545
Na0 O16 2.661818 1_555
Na0 O9 2.826099 1_545
Na0 O2 2.949378 1_555
Na1 O51 2.372484 1_555
Na1 O68 2.404539 1_555
Na1 O17 2.486928 1_555
Na1 O53 2.545342 1_555
Na1 O67 2.606725 1_555
Na1 O32 2.678814 1_555
Na1 O10 2.847118 1_555
Na1 O0 2.976444 1_555
Na2 O66 2.420995 1_655
Na2 O52 2.426851 1_555
Na2 O51 2.529538 1_555
Na2 O15 2.572101 1_555
Na2 O68 2.612420 1_655
Na2 O30 2.657518 1_655
Na2 O1 2.887524 1_555
Na2 O11 2.922131 1_655
Na3 O49 2.372484 1_555
Na3 O71 2.404539 1_555
Na3 O14 2.486928 1_555
Na3 O50 2.545342 1_555
Na3 O69 2.606725 1_555
Na3 O35 2.678814 1_555
Na3 O6 2.847118 1_555
Na3 O4 2.976444 1_555
Na4 O69 2.398535 1_655
Na4 O48 2.448774 1_555
Na4 O50 2.452306 1_555
Na4 O70 2.638035 1_655
Na4 O33 2.643238 1_655
Na4 O12 2.661818 1_555
Na4 O7 2.826099 1_655
Na4 O5 2.949377 1_555
Na5 O70 2.420995 1_545
Na5 O48 2.426851 1_555
Na5 O49 2.529537 1_555
Na5 O13 2.572101 1_555
Na5 O71 2.612420 1_545
Na5 O34 2.657518 1_545
Na5 O3 2.887524 1_555
Na5 O8 2.922131 1_545
Na6 O43 2.398535 1_555
Na6 O64 2.448779 1_555
Na6 O65 2.452320 1_555
Na6 O42 2.638036 1_455
Na6 O7 2.643238 1_555
Na6 O28 2.661804 1_555
Na6 O21 2.826099 1_555
Na6 O14 2.949378 1_555
Na7 O63 2.372476 1_555
Na7 O44 2.404539 1_455
Na7 O29 2.486903 1_555
Na7 O65 2.545326 1_555
Na7 O43 2.606725 1_565
Na7 O8 2.678814 1_555
Na7 O22 2.847118 1_455
Na7 O12 2.976444 1_455
Na8 O42 2.420995 1_565
Na8 O64 2.426842 1_555
Na8 O63 2.529547 1_555
Na8 O27 2.572081 1_555
Na8 O44 2.612420 1_555
Na8 O6 2.657518 1_555
Na8 O13 2.887524 1_565
Na8 O23 2.922131 1_565
Na9 O61 2.372476 1_555
Na9 O47 2.404539 1_565
Na9 O26 2.486903 1_554
Na9 O62 2.545326 1_555
Na9 O45 2.606725 1_455
Na9 O11 2.678814 1_555
Na9 O18 2.847118 1_565
Na9 O16 2.976444 1_565
Na10 O45 2.398535 1_555
Na10 O60 2.448779 1_555
Na10 O62 2.452320 1_555
Na10 O46 2.638035 1_565
Na10 O9 2.643238 1_555
Na10 O24 2.661804 1_554
Na10 O19 2.826099 1_555
Na10 O17 2.949377 1_555
Na11 O46 2.420995 1_455
Na11 O60 2.426842 1_555
Na11 O61 2.529546 1_555
Na11 O25 2.572081 1_554
Na11 O47 2.612420 1_555
Na11 O10 2.657518 1_555
Na11 O15 2.887524 1_455
Na11 O20 2.922131 1_455
Na12 O55 2.398542 1_555
Na12 O40 2.448774 1_655
Na12 O41 2.452306 1_555
Na12 O54 2.638028 1_555
Na12 O19 2.643219 1_556
Na12 O4 2.661818 1_555
Na12 O33 2.826099 1_655
Na12 O26 2.949378 1_655
Na13 O39 2.372484 1_655
Na13 O56 2.404523 1_555
Na13 O5 2.486928 1_555
Na13 O41 2.545342 1_545
Na13 O55 2.606714 1_555
Na13 O20 2.678789 1_556
Na13 O34 2.847118 1_545
Na13 O24 2.976444 1_545
Na14 O54 2.421000 1_555
Na14 O40 2.426851 1_545
Na14 O39 2.529538 1_555
Na14 O3 2.572101 1_555
Na14 O56 2.612434 1_555
Na14 O18 2.657505 1_556
Na14 O25 2.887524 1_555
Na14 O35 2.922131 1_555
Na15 O37 2.372484 1_545
Na15 O59 2.404523 1_555
Na15 O2 2.486928 1_555
Na15 O38 2.545342 1_655
Na15 O57 2.606714 1_555
Na15 O23 2.678789 1_555
Na15 O30 2.847118 1_655
Na15 O28 2.976444 1_655
Na16 O57 2.398542 1_555
Na16 O36 2.448774 1_545
Na16 O38 2.452306 1_555
Na16 O58 2.638028 1_555
Na16 O21 2.643219 1_555
Na16 O0 2.661818 1_555
Na16 O31 2.826099 1_545
Na16 O29 2.949377 1_545
Na17 O58 2.421000 1_555
Na17 O36 2.426851 1_655
Na17 O37 2.529537 1_555
Na17 O1 2.572101 1_555
Na17 O59 2.612434 1_555
Na17 O22 2.657505 1_555
Na17 O27 2.887524 1_555
Na17 O32 2.922131 1_555
Na18 O44 2.445914 1_555
Na18 O36 2.454610 1_655
Na18 O42 2.480627 1_565
Na18 O43 2.522103 1_665
Na18 O37 2.526222 1_555
Na18 O38 2.625777 1_665
Na19 O47 2.445914 1_556
Na19 O40 2.454610 1_545
Na19 O46 2.480627 1_456
Na19 O45 2.522103 1_446
Na19 O39 2.526222 1_555
Na19 O41 2.625777 1_445
Na20 O56 2.445914 1_555
Na20 O48 2.454610 1_555
Na20 O54 2.480627 1_555
Na20 O55 2.522103 1_555
Na20 O49 2.526222 1_555
Na20 O50 2.625777 1_555
Na21 O59 2.445914 1_555
Na21 O52 2.454610 1_555
Na21 O58 2.480627 1_555
Na21 O57 2.522103 1_555
Na21 O51 2.526222 1_555
Na21 O53 2.625777 1_555
Na22 O68 2.445914 1_555
Na22 O60 2.454610 1_555
Na22 O66 2.480627 1_555
Na22 O67 2.522103 1_555
Na22 O61 2.526222 1_555
Na22 O62 2.625777 1_555
Na23 O71 2.445914 1_555
Na23 O64 2.454610 1_555
Na23 O70 2.480627 1_555
Na23 O69 2.522103 1_555
Na23 O63 2.526222 1_555
Na23 O65 2.625777 1_555
Ge0 O6 1.876711 1_555
Ge0 O7 1.912389 1_665
Ge0 O43 1.946373 1_665
Ge0 O44 1.958803 1_555
Ge0 O8 1.989065 1_655
Ge0 O42 2.161645 1_565
Ge1 O10 1.876711 1_555
Ge1 O9 1.912389 1_445
Ge1 O45 1.946373 1_445
Ge1 O47 1.958803 1_555
Ge1 O11 1.989065 1_545
Ge1 O46 2.161646 1_455
Ge2 O18 1.876711 1_556
Ge2 O19 1.912389 1_556
Ge2 O55 1.946373 1_555
Ge2 O56 1.958803 1_555
Ge2 O20 1.989065 1_556
Ge2 O54 2.161645 1_555
Ge3 O22 1.876711 1_555
Ge3 O21 1.912389 1_555
Ge3 O57 1.946373 1_555
Ge3 O59 1.958803 1_555
Ge3 O23 1.989065 1_555
Ge3 O58 2.161646 1_555
Ge4 O30 1.876711 1_555
Ge4 O31 1.912389 1_555
Ge4 O67 1.946373 1_555
Ge4 O68 1.958803 1_555
Ge4 O32 1.989065 1_555
Ge4 O66 2.161645 1_555
Ge5 O34 1.876711 1_555
Ge5 O33 1.912389 1_555
Ge5 O69 1.946373 1_555
Ge5 O71 1.958803 1_555
Ge5 O35 1.989065 1_555
Ge5 O70 2.161646 1_555
O0 P0 1.526061 1_545
O0 Sc0 2.072166 1_445
O1 Si0 1.608207 1_555
O1 Sc0 1.956321 1_555
O2 Si1 1.605926 1_655
O2 Sc0 1.995610 1_545
O3 Si2 1.608207 1_555
O3 Sc1 1.956321 1_555
O4 P1 1.526061 1_655
O4 Sc1 2.072166 1_665
O5 Si3 1.605926 1_545
O5 Sc1 1.995610 1_655
O6 Si3 1.684557 1_555
O7 Si2 1.682351 1_555
O8 P1 1.580436 1_555
O9 Si0 1.682351 1_555
O10 Si1 1.684557 1_555
O11 P0 1.580436 1_555
O12 P2 1.526061 1_555
O12 Sc2 2.072166 1_555
O13 Si4 1.608207 1_555
O13 Sc2 1.956321 1_555
O14 Si5 1.605926 1_555
O14 Sc2 1.995610 1_555
O15 Si6 1.608207 1_555
O15 Sc3 1.956321 1_555
O16 P3 1.526061 1_555
O16 Sc3 2.072166 1_555
O17 Si7 1.605926 1_555
O17 Sc3 1.995610 1_555
O18 Si7 1.684557 1_555
O19 Si6 1.682351 1_555
O20 P3 1.580436 1_555
O21 Si4 1.682351 1_555
O22 Si5 1.684557 1_555
O23 P2 1.580436 1_555
O24 P4 1.526061 1_555
O24 Sc4 2.072166 1_556
O25 Si8 1.608207 1_555
O25 Sc4 1.956321 1_556
O26 Si9 1.605926 1_555
O26 Sc4 1.995610 1_556
O27 Si10 1.608207 1_555
O27 Sc5 1.956321 1_555
O28 P5 1.526061 1_555
O28 Sc5 2.072166 1_555
O29 Si11 1.605926 1_555
O29 Sc5 1.995610 1_555
O30 Si11 1.684557 1_555
O31 Si10 1.682351 1_555
O32 P5 1.580436 1_555
O33 Si8 1.682351 1_555
O34 Si9 1.684557 1_555
O35 P4 1.580436 1_555
O36 Si11 1.623224 1_555
O36 Sc0 2.128647 1_455
O37 Si10 1.621708 1_555
O37 Sc0 2.055088 1_555
O38 P5 1.538101 1_555
O38 Sc0 2.165079 1_445
O39 Si8 1.621708 1_555
O39 Sc1 2.055088 1_555
O40 Si9 1.623224 1_555
O40 Sc1 2.128647 1_565
O41 P4 1.538101 1_555
O41 Sc1 2.165079 1_665
O42 P2 1.553801 1_555
O43 Si4 1.672355 1_555
O44 Si5 1.675583 1_555
O45 Si6 1.672355 1_555
O46 P3 1.553801 1_555
O47 Si7 1.675584 1_555
O48 Si3 1.623224 1_545
O48 Sc2 2.128647 1_555
O49 Si2 1.621708 1_555
O49 Sc2 2.055088 1_555
O50 P1 1.538101 1_655
O50 Sc2 2.165079 1_555
O51 Si0 1.621708 1_555
O51 Sc3 2.055088 1_555
O52 Si1 1.623224 1_655
O52 Sc3 2.128647 1_555
O53 P0 1.538101 1_545
O53 Sc3 2.165079 1_555
O54 P4 1.553814 1_555
O55 Si8 1.672341 1_655
O56 Si9 1.675581 1_545
O57 Si10 1.672341 1_545
O58 P5 1.553814 1_555
O59 Si11 1.675581 1_655
O60 Si7 1.623236 1_555
O60 Sc4 2.128647 1_555
O61 Si6 1.621695 1_455
O61 Sc4 2.055088 1_555
O62 P3 1.538097 1_565
O62 Sc4 2.165079 1_555
O63 Si4 1.621695 1_565
O63 Sc5 2.055088 1_555
O64 Si5 1.623236 1_555
O64 Sc5 2.128647 1_555
O65 P2 1.538097 1_455
O65 Sc5 2.165079 1_555
O66 P0 1.553801 1_555
O67 Si0 1.672355 1_555
O68 Si1 1.675583 1_555
O69 Si2 1.672355 1_555
O70 P1 1.553801 1_555
O71 Si3 1.675584 1_555
