# generated using pymatgen
data_MgAg2(BrO4)2
_symmetry_space_group_name_H-M   'P 1'
_cell_length_a   8.24068110
_cell_length_b   8.24068110
_cell_length_c   8.60704270
_cell_angle_alpha   136.63780169
_cell_angle_beta   142.50969541
_cell_angle_gamma   53.97902531
_symmetry_Int_Tables_number   1
_chemical_formula_structural   MgAg2(BrO4)2
_chemical_formula_sum   'Mg1 Ag2 Br2 O8'
_cell_volume   244.16525741
_cell_formula_units_Z   1
loop_
 _symmetry_equiv_pos_site_id
 _symmetry_equiv_pos_as_xyz
  1  'x, y, z'
loop_
 _atom_site_type_symbol
 _atom_site_label
 _atom_site_symmetry_multiplicity
 _atom_site_fract_x
 _atom_site_fract_y
 _atom_site_fract_z
 _atom_site_occupancy
  Mg  Mg0  1  0.69709757  0.69709757  -0.00000000  1
  Ag  Ag0  1  0.91859067  0.91859067  -0.00000000  1
  Ag  Ag1  1  0.79199240  0.29199240  0.50000000  1
  Br  Br0  1  0.49978575  0.49978575  0.00000000  1
  Br  Br1  1  0.28002093  0.78002093  0.50000000  1
  O  O0  1  0.65351805  0.28651082  0.07264087  1
  O  O1  1  0.63265547  0.62057313  0.67236647  1
  O  O2  1  0.33146216  0.89033608  0.79648851  1
  O  O3  1  0.68869004  0.73589445  0.28027467  1
  O  O4  1  0.45561978  0.40841637  0.71972533  1
  O  O5  1  0.09384857  0.53497365  0.20351149  1
  O  O6  1  0.94820666  0.96028800  0.32763353  1
  O  O7  1  0.21386894  0.58087718  0.92735913  1
loop_
_geom_bond_atom_site_label_1
_geom_bond_atom_site_label_2
_geom_bond_distance
_geom_bond_site_symmetry_2
Mg0 O6 2.015811 1_555
Mg0 O1 2.015817 1_554
Mg0 O2 2.172501 1_554
Mg0 O5 2.172505 1_655
Mg0 O4 2.245903 1_554
Mg0 O3 2.245910 1_555
Ag0 O1 2.393176 1_554
Ag0 O6 2.393181 1_555
Ag0 O7 2.444645 1_654
Ag0 O0 2.444649 1_565
Ag1 O1 2.079751 1_555
Ag1 O6 2.079755 1_545
Br0 O3 1.675316 1_555
Br0 O4 1.675320 1_554
Br0 O0 1.675355 1_555
Br0 O7 1.675362 1_554
Br1 O5 1.697533 1_555
Br1 O2 1.697537 1_555
Br1 O6 1.968260 1_455
Br1 O1 1.968265 1_555
