# generated using pymatgen
data_Na15Ta5Zn7Si9(SO8)9
_symmetry_space_group_name_H-M   'P 1'
_cell_length_a   9.07576162
_cell_length_b   8.99499185
_cell_length_c   22.50116435
_cell_angle_alpha   90.35141940
_cell_angle_beta   90.71288769
_cell_angle_gamma   120.31200035
_symmetry_Int_Tables_number   1
_chemical_formula_structural   Na15Ta5Zn7Si9(SO8)9
_chemical_formula_sum   'Na15 Ta5 Zn7 Si9 S9 O72'
_cell_volume   1585.50261830
_cell_formula_units_Z   1
loop_
 _symmetry_equiv_pos_site_id
 _symmetry_equiv_pos_as_xyz
  1  'x, y, z'
loop_
 _atom_site_type_symbol
 _atom_site_label
 _atom_site_symmetry_multiplicity
 _atom_site_fract_x
 _atom_site_fract_y
 _atom_site_fract_z
 _atom_site_occupancy
  Na  Na0  1  0.63234028  0.00738906  0.23918094  1
  Na  Na1  1  0.99126767  0.64275531  0.24926435  1
  Na  Na2  1  0.65160658  0.63893394  0.75344098  1
  Na  Na3  1  0.35063490  0.99964939  0.74494091  1
  Na  Na4  1  0.97675649  0.68968860  0.91335572  1
  Na  Na5  1  0.70614277  0.01388035  0.91845368  1
  Na  Na6  1  0.31413079  0.29788619  0.91832319  1
  Na  Na7  1  0.30347713  0.02035764  0.41220732  1
  Na  Na8  1  0.70872571  0.68028545  0.40815849  1
  Na  Na9  1  0.01560903  0.01413543  0.49806072  1
  Na  Na10  1  0.99794765  0.00228787  0.99268594  1
  Na  Na11  1  0.68870280  0.34972181  0.82772495  1
  Na  Na12  1  0.65012928  0.33648637  0.32213110  1
  Na  Na13  1  0.34894652  0.67506322  0.15339292  1
  Na  Na14  1  0.31296906  0.65895471  0.66043780  1
  Ta  Ta0  1  0.98902625  0.98659125  0.14589294  1
  Ta  Ta1  1  0.66875111  0.32569366  0.97936636  1
  Ta  Ta2  1  0.66863851  0.33951359  0.48006542  1
  Ta  Ta3  1  0.33015378  0.65798857  0.31272945  1
  Ta  Ta4  1  0.32020337  0.66229920  0.81887422  1
  Zn  Zn0  1  0.01598500  0.98987589  0.34974665  1
  Zn  Zn1  1  0.99421249  0.98442842  0.85291611  1
  Zn  Zn2  1  0.00564259  0.98934303  0.65295615  1
  Zn  Zn3  1  0.69019547  0.34531915  0.68180563  1
  Zn  Zn4  1  0.63586981  0.31653425  0.18468461  1
  Zn  Zn5  1  0.35104260  0.68380808  0.01380852  1
  Zn  Zn6  1  0.30961429  0.64766522  0.51379345  1
  Si  Si0  1  0.29731639  0.00437653  0.25275356  1
  Si  Si1  1  0.70506471  0.70202487  0.25288450  1
  Si  Si2  1  0.99889570  0.70247588  0.74932451  1
  Si  Si3  1  0.66173363  0.03624032  0.08825521  1
  Si  Si4  1  0.62492495  0.66583755  0.91790116  1
  Si  Si5  1  0.04404354  0.37354220  0.92231667  1
  Si  Si6  1  0.32810361  0.95736102  0.91971494  1
  Si  Si7  1  0.32205546  0.36936074  0.42008065  1
  Si  Si8  1  0.04424414  0.66619193  0.41942094  1
  S  S0  1  0.00524346  0.28826938  0.25076854  1
  S  S1  1  0.29214409  0.29788641  0.74921136  1
  S  S2  1  0.70198762  0.99870341  0.74936264  1
  S  S3  1  0.95754750  0.32799177  0.58463575  1
  S  S4  1  0.37983238  0.04388323  0.58439795  1
  S  S5  1  0.66462125  0.62959422  0.58447639  1
  S  S6  1  0.95828559  0.62325604  0.08596237  1
  S  S7  1  0.37069930  0.33016497  0.08377029  1
  S  S8  1  0.62249369  0.95877498  0.41884467  1
  O  O0  1  0.22332815  0.02865345  0.31342239  1
  O  O1  1  0.81171947  0.79080023  0.31274839  1
  O  O2  1  0.97843526  0.18547895  0.30365685  1
  O  O3  1  0.21761377  0.20081565  0.80368646  1
  O  O4  1  0.96665233  0.78018293  0.80973241  1
  O  O5  1  0.80086890  0.02661437  0.80464451  1
  O  O6  1  0.78205140  0.97194539  0.69690218  1
  O  O7  1  0.18515886  0.22236079  0.69542763  1
  O  O8  1  0.05588357  0.83266161  0.69327532  1
  O  O9  1  0.80566959  0.83848602  0.19482014  1
  O  O10  1  0.03085100  0.20667713  0.19659781  1
  O  O11  1  0.16260240  0.97197208  0.19534188  1
  O  O12  1  0.87807755  0.34957475  0.63760262  1
  O  O13  1  0.48048968  0.13167568  0.63893517  1
  O  O14  1  0.64344294  0.52510116  0.63709555  1
  O  O15  1  0.87475733  0.52916573  0.13943154  1
  O  O16  1  0.65902602  0.13458793  0.14715387  1
  O  O17  1  0.47612982  0.35740116  0.13668217  1
  O  O18  1  0.45625517  0.30578188  0.02905457  1
  O  O19  1  0.84593437  0.54133673  0.03096718  1
  O  O20  1  0.68881656  0.16491691  0.02844146  1
  O  O21  1  0.47985112  0.15532764  0.53024357  1
  O  O22  1  0.68154994  0.52761549  0.52964069  1
  O  O23  1  0.84427138  0.31448383  0.53042782  1
  O  O24  1  0.54473859  0.70728235  0.97241929  1
  O  O25  1  0.16633093  0.45733082  0.97780915  1
  O  O26  1  0.28058490  0.83127892  0.97341831  1
  O  O27  1  0.54660185  0.85378991  0.47070958  1
  O  O28  1  0.32511089  0.46738362  0.47844084  1
  O  O29  1  0.17503071  0.72125760  0.47377435  1
  O  O30  1  0.13588886  0.63387104  0.35863209  1
  O  O31  1  0.50834372  0.87943157  0.36312178  1
  O  O32  1  0.36994035  0.50416960  0.36132222  1
  O  O33  1  0.13206746  0.50670377  0.86261796  1
  O  O34  1  0.37338752  0.87188652  0.85896562  1
  O  O35  1  0.49898433  0.62653707  0.85594851  1
  O  O36  1  0.99641388  0.81548827  0.41376769  1
  O  O37  1  0.79270214  0.98839118  0.40914052  1
  O  O38  1  0.16549388  0.17782747  0.41220915  1
  O  O39  1  0.00505920  0.18292231  0.90651784  1
  O  O40  1  0.18172201  0.00449270  0.90905015  1
  O  O41  1  0.81560376  0.82628198  0.91091974  1
  O  O42  1  0.96413340  0.16756640  0.58490802  1
  O  O43  1  0.21481956  0.03820788  0.58198201  1
  O  O44  1  0.82580233  0.79576356  0.58403305  1
  O  O45  1  0.96833686  0.80150171  0.08824158  1
  O  O46  1  0.84871925  0.03013248  0.09185579  1
  O  O47  1  0.20024037  0.16293092  0.08815130  1
  O  O48  1  0.66318887  0.14047251  0.74326027  1
  O  O49  1  0.46459615  0.31526935  0.74350784  1
  O  O50  1  0.82426979  0.51369674  0.74341902  1
  O  O51  1  0.69985864  0.52306953  0.24113260  1
  O  O52  1  0.86591248  0.32443989  0.24357938  1
  O  O53  1  0.49336073  0.15342732  0.24804097  1
  O  O54  1  0.63516296  0.48581607  0.92570166  1
  O  O55  1  0.85499907  0.36852463  0.92684097  1
  O  O56  1  0.51279657  0.14669913  0.92497177  1
  O  O57  1  0.62726252  0.13079943  0.42421702  1
  O  O58  1  0.50605369  0.35215550  0.42707544  1
  O  O59  1  0.85095090  0.48413874  0.42833996  1
  O  O60  1  0.34356587  0.47474035  0.07745910  1
  O  O61  1  0.12631099  0.64759637  0.07955464  1
  O  O62  1  0.50129001  0.84680522  0.08126742  1
  O  O63  1  0.36704269  0.87523580  0.57860566  1
  O  O64  1  0.51446034  0.64695531  0.57623255  1
  O  O65  1  0.12672951  0.48393451  0.57954098  1
  O  O66  1  0.30045837  0.81510726  0.25707624  1
  O  O67  1  0.51798847  0.69720508  0.25723666  1
  O  O68  1  0.16928429  0.46458589  0.25494994  1
  O  O69  1  0.32130179  0.48037051  0.75421618  1
  O  O70  1  0.17929545  0.68709377  0.75726536  1
  O  O71  1  0.52707260  0.83137786  0.75347403  1
loop_
_geom_bond_atom_site_label_1
_geom_bond_atom_site_label_2
_geom_bond_distance
_geom_bond_site_symmetry_2
Na0 O53 2.243186 1_555
Na0 O16 2.327538 1_555
Na0 O67 2.475540 1_545
Na0 O52 2.554518 1_555
Na0 O66 2.646931 1_545
Na0 O9 2.865683 1_545
Na1 O51 2.301889 1_555
Na1 O66 2.429365 1_655
Na1 O52 2.492508 1_555
Na1 O15 2.661419 1_555
Na1 O68 2.793941 1_655
Na1 O30 2.795196 1_655
Na1 O11 2.846456 1_655
Na1 O1 2.948600 1_555
Na2 O50 2.358625 1_555
Na2 O71 2.499765 1_555
Na2 O49 2.530094 1_555
Na2 O69 2.589764 1_555
Na2 O35 2.679175 1_555
Na2 O4 2.759926 1_555
Na2 O14 2.791606 1_555
Na2 O6 2.915006 1_555
Na3 O70 2.450806 1_555
Na3 O48 2.455371 1_565
Na3 O49 2.483680 1_565
Na3 O8 2.570797 1_555
Na3 O13 2.679669 1_565
Na3 O71 2.708231 1_555
Na3 O34 2.865075 1_555
Na3 O3 2.948643 1_565
Na4 O41 2.337631 1_555
Na4 O40 2.485727 1_665
Na4 O4 2.490156 1_555
Na4 O55 2.540760 1_555
Na4 O54 2.709306 1_555
Na4 O26 2.719076 1_655
Na4 O33 2.891075 1_655
Na4 O19 2.952289 1_556
Na5 O41 2.357114 1_545
Na5 O39 2.367107 1_655
Na5 O56 2.578458 1_555
Na5 O24 2.689511 1_545
Na5 O5 2.696127 1_555
Na5 O55 2.770024 1_555
Na5 O20 2.859970 1_556
Na5 O34 2.920333 1_545
Na6 O40 2.288687 1_555
Na6 O39 2.461371 1_555
Na6 O54 2.527278 1_555
Na6 O3 2.706920 1_555
Na6 O56 2.755653 1_555
Na6 O25 2.758796 1_555
Na6 O18 2.775289 1_556
Na6 O35 2.937146 1_555
Na7 O38 2.316264 1_555
Na7 O0 2.343506 1_555
Na7 O36 2.445991 1_445
Na7 O57 2.593350 1_555
Na7 O58 2.614024 1_555
Na7 O29 2.726979 1_545
Na7 O31 2.949048 1_545
Na7 O21 2.997220 1_555
Na8 O36 2.257626 1_555
Na8 O1 2.368335 1_555
Na8 O37 2.475637 1_555
Na8 O58 2.613583 1_555
Na8 O59 2.698031 1_555
Na8 O32 2.838371 1_555
Na9 O38 2.414255 1_555
Na9 O43 2.529098 1_555
Na9 O36 2.540972 1_445
Na9 O42 2.565578 1_455
Na9 O44 2.698509 1_445
Na9 O37 2.751417 1_445
Na10 O41 2.423629 1_545
Na10 O39 2.517802 1_655
Na10 O40 2.523686 1_655
Na10 O47 2.694226 1_656
Na10 O46 2.699462 1_556
Na10 O45 2.743934 1_546
Na11 O50 2.355507 1_555
Na11 O48 2.591063 1_555
Na11 O55 2.633314 1_555
Na11 O49 2.661680 1_555
Na11 O54 2.681214 1_555
Na11 O56 2.804426 1_555
Na12 O53 2.248866 1_555
Na12 O51 2.373931 1_555
Na12 O52 2.696132 1_555
Na12 O58 2.750368 1_555
Na12 O59 2.864666 1_555
Na12 O57 2.901550 1_555
Na13 O62 2.205114 1_555
Na13 O60 2.457618 1_555
Na13 O61 2.512316 1_555
Na13 O67 2.729426 1_555
Na13 O66 2.787907 1_555
Na13 O68 2.914566 1_555
Na14 O65 2.418897 1_555
Na14 O63 2.553185 1_555
Na14 O70 2.579097 1_555
Na14 O69 2.683091 1_555
Na14 O64 2.688613 1_555
Na14 O71 2.716715 1_555
O0 Si0 1.590383 1_555
O0 Zn0 1.926156 1_545
O1 Si1 1.600993 1_555
O1 Zn0 1.982117 1_655
O2 S0 1.457368 1_655
O2 Zn0 2.214985 1_645
O3 S1 1.469690 1_555
O3 Zn1 2.285872 1_445
O4 Si2 1.620638 1_555
O4 Zn1 1.972354 1_555
O5 S2 1.468559 1_545
O5 Zn1 2.243350 1_545
O6 S2 1.474358 1_555
O6 Zn2 2.202604 1_655
O7 S1 1.470957 1_555
O7 Zn2 2.109633 1_545
O8 Si2 1.628597 1_455
O8 Zn2 1.916066 1_555
O9 Si1 1.722032 1_555
O9 Ta0 1.892566 1_555
O10 S0 1.498877 1_555
O10 Ta0 2.137254 1_445
O11 Si0 1.686702 1_565
O11 Ta0 1.975922 1_455
O12 S3 1.462262 1_555
O12 Zn3 1.968535 1_555
O13 S4 1.481917 1_555
O13 Zn3 2.117898 1_555
O14 S5 1.469413 1_555
O14 Zn3 2.123498 1_555
O15 S6 1.458090 1_555
O15 Zn4 2.299693 1_555
O16 Si3 1.596229 1_555
O16 Zn4 1.941765 1_555
O17 S7 1.457576 1_555
O17 Zn4 1.976722 1_555
O18 S7 1.535965 1_555
O18 Ta1 2.169998 1_554
O19 S6 1.520848 1_555
O19 Ta1 2.115140 1_554
O20 Si3 1.718037 1_555
O20 Ta1 1.903788 1_554
O21 S4 1.561314 1_555
O21 Ta2 2.039856 1_555
O22 S5 1.587628 1_555
O22 Ta2 1.973402 1_555
O23 S3 1.549304 1_555
O23 Ta2 2.048448 1_555
O24 Si4 1.569684 1_555
O24 Zn5 1.915915 1_556
O25 Si5 1.571159 1_555
O25 Zn5 2.028595 1_556
O26 Si6 1.571134 1_555
O26 Zn5 1.962403 1_556
O27 S8 1.450891 1_555
O27 Zn6 2.247689 1_555
O28 Si7 1.569338 1_555
O28 Zn6 1.870676 1_555
O29 Si8 1.585250 1_555
O29 Zn6 1.880718 1_555
O30 Si8 1.707271 1_555
O30 Ta3 1.970882 1_555
O31 S8 1.537885 1_555
O31 Ta3 2.131593 1_555
O32 Si7 1.705676 1_555
O32 Ta3 1.937342 1_555
O33 Si5 1.719848 1_555
O33 Ta4 1.868042 1_555
O34 Si6 1.717141 1_555
O34 Ta4 1.910667 1_555
O35 Si4 1.709131 1_555
O35 Ta4 1.982072 1_555
O36 Si8 1.611589 1_655
O36 Zn0 2.078490 1_655
O37 S8 1.448680 1_555
O37 Zn0 2.435789 1_655
O38 Si7 1.592947 1_555
O38 Zn0 2.069432 1_545
O39 Si5 1.602660 1_555
O39 Zn1 2.108416 1_445
O40 Si6 1.601294 1_545
O40 Zn1 2.039051 1_445
O41 Si4 1.609600 1_555
O41 Zn1 2.025449 1_555
O42 S3 1.474142 1_555
O42 Zn2 2.383642 1_645
O43 S4 1.472815 1_555
O43 Zn2 2.364199 1_545
O44 S5 1.472266 1_555
O44 Zn2 2.266317 1_655
O45 S6 1.559750 1_555
O45 Ta0 2.035129 1_555
O46 Si3 1.726344 1_555
O46 Ta0 1.929785 1_545
O47 S7 1.523948 1_555
O47 Ta0 2.212841 1_445
O48 S2 1.491048 1_545
O48 Zn3 2.225123 1_555
O49 S1 1.499593 1_555
O49 Zn3 2.389463 1_555
O50 Si2 1.639611 1_555
O50 Zn3 1.941271 1_555
O51 Si1 1.606546 1_555
O51 Zn4 2.065317 1_555
O52 S0 1.463530 1_655
O52 Zn4 2.429055 1_555
O53 Si0 1.604057 1_555
O53 Zn4 2.003435 1_555
O54 Si4 1.678245 1_555
O54 Ta1 2.020113 1_555
O55 Si5 1.697746 1_655
O55 Ta1 1.949479 1_555
O56 Si6 1.683806 1_545
O56 Ta1 1.930301 1_555
O57 S8 1.529960 1_545
O57 Ta2 2.119539 1_555
O58 Si7 1.758409 1_555
O58 Ta2 1.933699 1_555
O59 Si8 1.706574 1_655
O59 Ta2 1.917934 1_555
O60 S7 1.447980 1_555
O60 Zn5 2.344994 1_555
O61 S6 1.436336 1_455
O61 Zn5 2.421779 1_555
O62 Si3 1.592173 1_565
O62 Zn5 2.053335 1_555
O63 S4 1.466680 1_565
O63 Zn6 2.335839 1_555
O64 S5 1.457730 1_555
O64 Zn6 2.318924 1_555
O65 S3 1.473304 1_455
O65 Zn6 2.175528 1_555
O66 Si0 1.720367 1_565
O66 Ta3 2.008967 1_555
O67 Si1 1.680501 1_555
O67 Ta3 2.010242 1_555
O68 S0 1.533598 1_555
O68 Ta3 2.051707 1_555
O69 S1 1.528258 1_555
O69 Ta4 2.186861 1_555
O70 Si2 1.718546 1_455
O70 Ta4 1.963293 1_555
O71 S2 1.545161 1_555
O71 Ta4 2.284177 1_555
