# generated using pymatgen
data_Cd7P10
_symmetry_space_group_name_H-M   'P 1'
_cell_length_a   4.64728252
_cell_length_b   11.79109882
_cell_length_c   14.04326505
_cell_angle_alpha   88.13140466
_cell_angle_beta   80.47585635
_cell_angle_gamma   78.63447686
_symmetry_Int_Tables_number   1
_chemical_formula_structural   Cd7P10
_chemical_formula_sum   'Cd14 P20'
_cell_volume   744.03320772
_cell_formula_units_Z   2
loop_
 _symmetry_equiv_pos_site_id
 _symmetry_equiv_pos_as_xyz
  1  'x, y, z'
loop_
 _atom_site_type_symbol
 _atom_site_label
 _atom_site_symmetry_multiplicity
 _atom_site_fract_x
 _atom_site_fract_y
 _atom_site_fract_z
 _atom_site_occupancy
  Cd  Cd0  1  0.41985960  0.50547493  0.09713462  1
  Cd  Cd1  1  0.02246815  0.49452507  0.90286538  1
  Cd  Cd2  1  0.67533453  0.99452507  0.59713462  1
  Cd  Cd3  1  0.26699522  0.00547493  0.40286538  1
  Cd  Cd4  1  0.81076167  0.76135726  0.16407381  1
  Cd  Cd5  1  0.73619274  0.23864274  0.83592619  1
  Cd  Cd6  1  0.32211993  0.73864274  0.66407381  1
  Cd  Cd7  1  0.72483548  0.26135726  0.33592619  1
  Cd  Cd8  1  0.05866565  0.76524301  0.42429297  1
  Cd  Cd9  1  0.24820262  0.23475699  0.57570703  1
  Cd  Cd10  1  0.57390865  0.73475699  0.92429297  1
  Cd  Cd11  1  0.23295961  0.26524301  0.07570703  1
  Cd  Cd12  1  0.74336224  0.50000000  0.50000000  1
  Cd  Cd13  1  0.99336224  -0.00000000  0.00000000  1
  P  P0  1  0.33548294  0.91668974  0.12759823  1
  P  P1  1  0.37977091  0.08331026  0.87240177  1
  P  P2  1  0.00217368  0.58331026  0.62759823  1
  P  P3  1  0.21308218  0.41668974  0.37240177  1
  P  P4  1  0.01796138  0.91133195  0.26004640  1
  P  P5  1  0.18934173  0.08866805  0.73995360  1
  P  P6  1  0.67929533  0.58866805  0.76004640  1
  P  P7  1  0.02800878  0.41133195  0.23995360  1
  P  P8  1  0.11028557  0.66504734  0.00328547  1
  P  P9  1  0.77861838  0.33495266  0.99671453  1
  P  P10  1  0.52533291  0.83495266  0.50328547  1
  P  P11  1  0.86357205  0.16504734  0.49671453  1
  P  P12  1  0.68096239  0.56714342  0.23216380  1
  P  P13  1  0.48026862  0.43285658  0.76783620  1
  P  P14  1  0.52470101  0.07253997  0.12905141  1
  P  P15  1  0.72629339  0.92746003  0.87094859  1
  P  P16  1  0.34724098  0.42746003  0.62905141  1
  P  P17  1  0.40375242  0.57253997  0.37094859  1
  P  P18  1  0.66312520  0.06714342  0.26783620  1
  P  P19  1  0.99810382  0.93285658  0.73216380  1
loop_
_geom_bond_atom_site_label_1
_geom_bond_atom_site_label_2
_geom_bond_distance
_geom_bond_site_symmetry_2
Cd0 P8 2.597271 1_555
Cd0 P12 2.606914 1_555
Cd0 P9 2.626169 1_554
Cd0 P7 2.830880 1_555
Cd1 P9 2.597268 1_455
Cd1 P13 2.606914 1_555
Cd1 P8 2.626171 1_556
Cd1 P6 2.830874 1_455
Cd2 P10 2.597271 1_555
Cd2 P19 2.606908 1_555
Cd2 P11 2.626171 1_565
Cd2 P5 2.830877 1_565
Cd3 P11 2.597270 1_455
Cd3 P18 2.606908 1_555
Cd3 P10 2.626167 1_545
Cd3 P4 2.830886 1_545
Cd4 P12 2.594809 1_555
Cd4 P8 2.613386 1_655
Cd4 P4 2.669613 1_655
Cd4 P0 2.685947 1_555
Cd5 P13 2.594811 1_555
Cd5 P9 2.613387 1_555
Cd5 P5 2.669618 1_655
Cd5 P1 2.685947 1_555
Cd6 P19 2.594814 1_455
Cd6 P10 2.613385 1_555
Cd6 P6 2.669616 1_555
Cd6 P2 2.685947 1_555
Cd7 P18 2.594811 1_555
Cd7 P11 2.613388 1_555
Cd7 P7 2.669616 1_655
Cd7 P3 2.685943 1_555
Cd8 P10 2.529035 1_455
Cd8 P17 2.563813 1_555
Cd8 P4 2.842538 1_555
Cd8 P10 2.857933 1_555
Cd9 P11 2.529035 1_455
Cd9 P16 2.563811 1_555
Cd9 P5 2.842538 1_555
Cd9 P11 2.857933 1_555
Cd10 P8 2.529035 1_556
Cd10 P15 2.563815 1_555
Cd10 P6 2.842537 1_555
Cd10 P8 2.857933 1_656
Cd11 P9 2.529039 1_454
Cd11 P14 2.563811 1_555
Cd11 P7 2.842538 1_555
Cd11 P9 2.857929 1_554
Cd12 P16 2.611578 1_555
Cd12 P17 2.611578 1_555
Cd12 P3 2.629864 1_655
Cd12 P2 2.629864 1_655
Cd13 P15 2.611575 1_544
Cd13 P14 2.611578 1_555
Cd13 P1 2.629861 1_654
Cd13 P0 2.629861 1_645
P0 P4 2.182165 1_555
P0 P14 2.189953 1_565
P1 P5 2.182160 1_555
P1 P15 2.189955 1_545
P2 P6 2.182162 1_455
P3 P7 2.182165 1_555
P12 P17 2.146425 1_555
P12 P7 2.205869 1_655
P13 P16 2.146424 1_555
P13 P6 2.205875 1_555
P14 P18 2.146424 1_555
P15 P19 2.146419 1_555
P16 P2 2.189950 1_555
P17 P3 2.189950 1_555
P18 P4 2.205869 1_645
P19 P5 2.205878 1_665
