# generated using pymatgen
data_Ba2Mg(CoO3)2
_symmetry_space_group_name_H-M   'P 1'
_cell_length_a   5.74474369
_cell_length_b   6.05989428
_cell_length_c   5.59804545
_cell_angle_alpha   103.96903108
_cell_angle_beta   70.04843208
_cell_angle_gamma   120.91658953
_symmetry_Int_Tables_number   1
_chemical_formula_structural   Ba2Mg(CoO3)2
_chemical_formula_sum   'Ba2 Mg1 Co2 O6'
_cell_volume   156.62941695
_cell_formula_units_Z   1
loop_
 _symmetry_equiv_pos_site_id
 _symmetry_equiv_pos_as_xyz
  1  'x, y, z'
loop_
 _atom_site_type_symbol
 _atom_site_label
 _atom_site_symmetry_multiplicity
 _atom_site_fract_x
 _atom_site_fract_y
 _atom_site_fract_z
 _atom_site_occupancy
  Ba  Ba0  1  0.61486426  0.40686546  0.91789309  1
  Ba  Ba1  1  0.38014457  0.65458150  0.57293722  1
  Mg  Mg0  1  0.78547967  0.21761424  0.29178520  1
  Co  Co0  1  0.19885201  0.84673883  0.20566529  1
  Co  Co1  1  0.01757720  0.05372893  0.73647488  1
  O  O0  1  0.55231625  0.87049063  0.08592935  1
  O  O1  1  0.82237689  0.11292732  0.57860442  1
  O  O2  1  0.10339050  0.87871939  0.92045056  1
  O  O3  1  0.09385966  0.35425904  -0.02399765  1
  O  O4  1  0.90016761  0.61910311  0.43716763  1
  O  O5  1  0.36430238  0.16205854  0.44375302  1
loop_
_geom_bond_atom_site_label_1
_geom_bond_atom_site_label_2
_geom_bond_distance
_geom_bond_site_symmetry_2
Ba0 O1 2.684180 1_555
Ba0 O3 2.751521 1_556
Ba0 O2 2.795369 1_655
Ba0 O4 2.842077 1_555
Ba0 O0 2.904845 1_556
Ba0 O2 3.034309 1_545
Ba0 O3 3.056417 1_656
Ba0 O5 3.135254 1_555
Ba0 O5 3.156100 1_556
Ba1 O1 2.632750 1_565
Ba1 O2 2.643796 1_555
Ba1 O3 2.735428 1_556
Ba1 O5 2.857105 1_555
Ba1 O4 2.929163 1_555
Ba1 O0 2.945325 1_555
Ba1 O4 2.994829 1_455
Ba1 O0 3.119573 1_556
Ba1 O1 3.196156 1_455
Mg0 O1 1.971708 1_555
Mg0 O3 2.002793 1_655
Mg0 O0 2.129504 1_545
Mg0 O5 2.141920 1_555
Mg0 O4 2.186004 1_555
Co0 O0 1.846775 1_555
Co0 O4 1.854695 1_455
Co0 O2 1.934874 1_554
Co0 O5 2.024774 1_565
Co1 O1 1.846615 1_455
Co1 O3 1.925785 1_556
Co1 O2 1.959474 1_545
Co1 O5 2.007947 1_555
