# generated using pymatgen
data_Na5HfTa3(SiO4)6
_symmetry_space_group_name_H-M   'P 1'
_cell_length_a   9.04383328
_cell_length_b   9.03423137
_cell_length_c   22.71271079
_cell_angle_alpha   90.21577239
_cell_angle_beta   89.83702958
_cell_angle_gamma   120.15360065
_symmetry_Int_Tables_number   1
_chemical_formula_structural   Na5HfTa3(SiO4)6
_chemical_formula_sum   'Na15 Hf3 Ta9 Si18 O72'
_cell_volume   1604.59612718
_cell_formula_units_Z   3
loop_
 _symmetry_equiv_pos_site_id
 _symmetry_equiv_pos_as_xyz
  1  'x, y, z'
loop_
 _atom_site_type_symbol
 _atom_site_label
 _atom_site_symmetry_multiplicity
 _atom_site_fract_x
 _atom_site_fract_y
 _atom_site_fract_z
 _atom_site_occupancy
  Na  Na0  1  0.36627946  0.36249036  0.24840739  1
  Na  Na1  1  0.99348598  0.63212202  0.24824136  1
  Na  Na2  1  0.63627310  0.63066449  0.74895001  1
  Na  Na3  1  0.99820929  0.36749301  0.74931094  1
  Na  Na4  1  0.03060309  0.69611709  0.58420299  1
  Na  Na5  1  0.30482779  0.97021280  0.08397460  1
  Na  Na6  1  0.69901576  0.03275786  0.91782346  1
  Na  Na7  1  0.96918535  0.29727083  0.41512329  1
  Na  Na8  1  0.33116047  0.03396130  0.41557927  1
  Na  Na9  1  0.99244043  0.99871763  0.49936346  1
  Na  Na10  1  0.00024344  -0.00000302  0.00103479  1
  Na  Na11  1  0.65904650  0.33226044  0.83358258  1
  Na  Na12  1  0.66688881  0.33288579  0.33014441  1
  Na  Na13  1  0.34072079  0.66741405  0.16476982  1
  Na  Na14  1  0.34112160  0.67450902  0.66551328  1
  Hf  Hf0  1  0.99510246  0.99512811  0.35392141  1
  Hf  Hf1  1  0.66096192  0.32678714  0.68685349  1
  Hf  Hf2  1  0.66689282  0.32905473  0.18500977  1
  Ta  Ta0  1  0.00504668  0.00005038  0.85562587  1
  Ta  Ta1  1  0.00063415  0.00369412  0.64484705  1
  Ta  Ta2  1  0.99441742  0.99977492  0.14509918  1
  Ta  Ta3  1  0.66797027  0.33862006  0.97966805  1
  Ta  Ta4  1  0.66647293  0.33635701  0.48024735  1
  Ta  Ta5  1  0.33184736  0.66163764  0.02056338  1
  Ta  Ta6  1  0.33792629  0.66649301  0.52119965  1
  Ta  Ta7  1  0.33698525  0.66986744  0.31201304  1
  Ta  Ta8  1  0.33307232  0.66956333  0.81328768  1
  Si  Si0  1  0.29031627  0.00028445  0.25034103  1
  Si  Si1  1  0.70872284  0.71057335  0.24968803  1
  Si  Si2  1  0.99713564  0.28829205  0.25139764  1
  Si  Si3  1  0.28910096  0.28747707  0.75082884  1
  Si  Si4  1  0.00387594  0.71490618  0.74955868  1
  Si  Si5  1  0.71221038  0.99941069  0.75110719  1
  Si  Si6  1  0.95552931  0.33067224  0.58338980  1
  Si  Si7  1  0.37582376  0.04301838  0.58286222  1
  Si  Si8  1  0.66394139  0.62337057  0.58490518  1
  Si  Si9  1  0.95777502  0.62410125  0.08392111  1
  Si  Si10  1  0.66888165  0.04301416  0.08153772  1
  Si  Si11  1  0.37744942  0.33597552  0.08409541  1
  Si  Si12  1  0.62040496  0.66339653  0.91609985  1
  Si  Si13  1  0.04360252  0.37802894  0.91634458  1
  Si  Si14  1  0.33128371  0.95561149  0.91802129  1
  Si  Si15  1  0.62332001  0.95537841  0.41752798  1
  Si  Si16  1  0.33748124  0.38039706  0.41640914  1
  Si  Si17  1  0.04394135  0.66611414  0.41741865  1
  O  O0  1  0.20578928  0.03151714  0.30902375  1
  O  O1  1  0.83098163  0.79601207  0.30614977  1
  O  O2  1  0.97363287  0.17919130  0.31043658  1
  O  O3  1  0.19025479  0.16740291  0.80759793  1
  O  O4  1  0.97245275  0.80998697  0.80586250  1
  O  O5  1  0.83082163  0.02718382  0.80924203  1
  O  O6  1  0.80474761  0.96481960  0.69416143  1
  O  O7  1  0.16290092  0.19621916  0.69389455  1
  O  O8  1  0.03093802  0.83104666  0.69087398  1
  O  O9  1  0.80416639  0.83383779  0.19232949  1
  O  O10  1  0.03388615  0.19538342  0.19469997  1
  O  O11  1  0.16627667  0.96536872  0.19225674  1
  O  O12  1  0.87692217  0.37240022  0.64139535  1
  O  O13  1  0.49529328  0.12889520  0.63959278  1
  O  O14  1  0.63583091  0.51196411  0.64367746  1
  O  O15  1  0.87866670  0.51338046  0.14271790  1
  O  O16  1  0.62559472  0.12473144  0.13764168  1
  O  O17  1  0.48764159  0.36585901  0.14306028  1
  O  O18  1  0.47251713  0.30072997  0.02748667  1
  O  O19  1  0.83291994  0.52588717  0.02687407  1
  O  O20  1  0.69511720  0.16101669  0.02275697  1
  O  O21  1  0.46718351  0.16167074  0.52400909  1
  O  O22  1  0.69806386  0.52790072  0.52806342  1
  O  O23  1  0.83584869  0.30513443  0.52489725  1
  O  O24  1  0.52836318  0.70012229  0.97149956  1
  O  O25  1  0.16670559  0.47334185  0.97218338  1
  O  O26  1  0.30508940  0.83912446  0.97553315  1
  O  O27  1  0.52407742  0.83480172  0.47397394  1
  O  O28  1  0.30564071  0.47564712  0.47226499  1
  O  O29  1  0.16421949  0.69267847  0.47477950  1
  O  O30  1  0.13328644  0.63145291  0.35908796  1
  O  O31  1  0.49570648  0.86286265  0.36061334  1
  O  O32  1  0.36377939  0.49835863  0.35788190  1
  O  O33  1  0.13529509  0.49594138  0.85752081  1
  O  O34  1  0.36464908  0.86033013  0.86094578  1
  O  O35  1  0.50281496  0.63747427  0.85702766  1
  O  O36  1  0.03410344  0.83903157  0.41287926  1
  O  O37  1  0.81396847  0.98576385  0.41366763  1
  O  O38  1  0.16792066  0.19179379  0.41280748  1
  O  O39  1  0.01729380  0.18491372  0.90969403  1
  O  O40  1  0.16240882  0.97496239  0.90928902  1
  O  O41  1  0.80713216  0.83937839  0.90886423  1
  O  O42  1  0.97514979  0.16127351  0.59019283  1
  O  O43  1  0.18271121  0.01764746  0.58960760  1
  O  O44  1  0.84129972  0.81031995  0.58955759  1
  O  O45  1  0.98416673  0.81822776  0.08903210  1
  O  O46  1  0.83921646  0.02458333  0.08951664  1
  O  O47  1  0.19018944  0.15855061  0.08972464  1
  O  O48  1  0.70199323  0.17248115  0.74543909  1
  O  O49  1  0.48061678  0.31839680  0.74654902  1
  O  O50  1  0.83402519  0.52545722  0.74549965  1
  O  O51  1  0.68490436  0.52078446  0.24348603  1
  O  O52  1  0.83928675  0.32269324  0.24473764  1
  O  O53  1  0.47537644  0.17066674  0.24430771  1
  O  O54  1  0.64035016  0.49503662  0.92397558  1
  O  O55  1  0.85135349  0.35226833  0.92330900  1
  O  O56  1  0.50747834  0.14180371  0.92356240  1
  O  O57  1  0.63603758  0.14428255  0.42389044  1
  O  O58  1  0.50577263  0.35790151  0.42410655  1
  O  O59  1  0.85800151  0.48865930  0.42404202  1
  O  O60  1  0.35412735  0.50214220  0.07363842  1
  O  O61  1  0.15138695  0.65323713  0.07424147  1
  O  O62  1  0.49558213  0.85454661  0.07317712  1
  O  O63  1  0.34459700  0.84827259  0.57488016  1
  O  O64  1  0.49785226  0.64612636  0.57498869  1
  O  O65  1  0.14298832  0.50422293  0.57407437  1
  O  O66  1  0.29852068  0.82184365  0.25725561  1
  O  O67  1  0.51684846  0.68890827  0.25645154  1
  O  O68  1  0.17542507  0.47959294  0.25649667  1
  O  O69  1  0.30239230  0.47704690  0.75714761  1
  O  O70  1  0.17182149  0.69081675  0.75748901  1
  O  O71  1  0.52533002  0.82273311  0.75726264  1
loop_
_geom_bond_atom_site_label_1
_geom_bond_atom_site_label_2
_geom_bond_distance
_geom_bond_site_symmetry_2
Na0 O53 2.387765 1_555
Na0 O68 2.442027 1_555
Na0 O51 2.494100 1_555
Na0 O67 2.558707 1_555
Na0 O17 2.623501 1_555
Na0 O32 2.773852 1_555
Na0 O10 2.872544 1_555
Na0 O0 2.932976 1_555
Na1 O66 2.416669 1_655
Na1 O52 2.418289 1_555
Na1 O51 2.447965 1_555
Na1 O15 2.617065 1_555
Na1 O68 2.631162 1_655
Na1 O30 2.821864 1_655
Na1 O1 2.870974 1_555
Na1 O11 2.900651 1_655
Na2 O71 2.408068 1_555
Na2 O50 2.411310 1_555
Na2 O49 2.439832 1_555
Na2 O14 2.615993 1_555
Na2 O69 2.620527 1_555
Na2 O35 2.746435 1_555
Na2 O6 2.894808 1_555
Na2 O4 2.932136 1_555
Na3 O48 2.355176 1_555
Na3 O69 2.417692 1_655
Na3 O50 2.525740 1_555
Na3 O70 2.534149 1_655
Na3 O12 2.697739 1_555
Na3 O33 2.733979 1_655
Na3 O7 2.913228 1_655
Na3 O5 2.990102 1_555
Na4 O44 2.404732 1_455
Na4 O65 2.420182 1_555
Na4 O63 2.464854 1_555
Na4 O43 2.515751 1_565
Na4 O8 2.707383 1_555
Na4 O29 2.767307 1_555
Na4 O12 2.847241 1_455
Na4 O22 2.897512 1_455
Na5 O47 2.399333 1_565
Na5 O62 2.436175 1_555
Na5 O61 2.485889 1_555
Na5 O45 2.511465 1_455
Na5 O26 2.729415 1_554
Na5 O11 2.747499 1_555
Na5 O16 2.790869 1_565
Na5 O18 2.886245 1_565
Na6 O56 2.387530 1_555
Na6 O41 2.400406 1_545
Na6 O39 2.496581 1_655
Na6 O55 2.499737 1_555
Na6 O20 2.654030 1_556
Na6 O5 2.747391 1_555
Na6 O24 2.873380 1_545
Na6 O34 2.917946 1_545
Na7 O59 2.405120 1_555
Na7 O38 2.420929 1_655
Na7 O37 2.433565 1_545
Na7 O2 2.610861 1_555
Na7 O57 2.615869 1_555
Na7 O23 2.782656 1_555
Na7 O30 2.907573 1_655
Na7 O28 2.936095 1_655
Na8 O36 2.359993 1_545
Na8 O57 2.423257 1_555
Na8 O38 2.516482 1_555
Na8 O58 2.539782 1_555
Na8 O0 2.670828 1_555
Na8 O21 2.734862 1_555
Na8 O31 2.906587 1_545
Na8 O29 2.989441 1_545
Na9 O37 2.496742 1_555
Na9 O36 2.569469 1_655
Na9 O44 2.575832 1_555
Na9 O42 2.577420 1_565
Na9 O38 2.579348 1_665
Na9 O43 2.629320 1_665
Na10 O45 2.548649 1_445
Na10 O46 2.552226 1_455
Na10 O47 2.566401 1_555
Na10 O40 2.618504 1_544
Na10 O39 2.623748 1_554
Na10 O41 2.643892 1_444
Na11 O49 2.518040 1_555
Na11 O54 2.575134 1_555
Na11 O56 2.580162 1_555
Na11 O48 2.603743 1_555
Na11 O50 2.605082 1_555
Na11 O55 2.629103 1_555
Na12 O52 2.515546 1_555
Na12 O53 2.529051 1_555
Na12 O51 2.554916 1_555
Na12 O58 2.652975 1_555
Na12 O57 2.657256 1_555
Na12 O59 2.659100 1_555
Na13 O67 2.572190 1_555
Na13 O60 2.585628 1_555
Na13 O62 2.603563 1_555
Na13 O68 2.629621 1_555
Na13 O61 2.640802 1_555
Na13 O66 2.648195 1_555
Na14 O64 2.578153 1_555
Na14 O71 2.582367 1_555
Na14 O63 2.584037 1_555
Na14 O70 2.633656 1_555
Na14 O69 2.651941 1_555
Na14 O65 2.668036 1_555
Hf0 O1 1.982000 1_555
Hf0 O2 2.028827 1_565
Hf0 O0 2.034880 1_665
Hf0 O37 2.093111 1_555
Hf0 O36 2.103070 1_655
Hf0 O38 2.143019 1_665
Hf1 O13 1.974068 1_555
Hf1 O14 2.051252 1_555
Hf1 O12 2.057575 1_555
Hf1 O49 2.090037 1_555
Hf1 O48 2.094782 1_555
Hf1 O50 2.148725 1_555
Hf2 O16 1.999756 1_555
Hf2 O15 2.039931 1_555
Hf2 O17 2.049164 1_555
Hf2 O53 2.091110 1_555
Hf2 O52 2.092141 1_555
Hf2 O51 2.119256 1_555
O0 Si0 1.627434 1_555
O1 Si1 1.614336 1_555
O2 Si2 1.616364 1_555
O3 Si3 1.633441 1_555
O3 Ta0 1.933711 1_555
O4 Si4 1.639779 1_655
O4 Ta0 1.947181 1_665
O5 Si5 1.640811 1_545
O5 Ta0 2.012980 1_655
O6 Si5 1.650592 1_555
O6 Ta1 1.970518 1_665
O7 Si3 1.646078 1_555
O7 Ta1 1.962195 1_555
O8 Si4 1.639539 1_555
O8 Ta1 2.010996 1_565
O9 Si1 1.649612 1_555
O9 Ta2 1.941345 1_555
O10 Si2 1.656201 1_455
O10 Ta2 1.968005 1_445
O11 Si0 1.657750 1_565
O11 Ta2 2.038848 1_455
O12 Si6 1.625851 1_555
O13 Si7 1.608665 1_555
O14 Si8 1.615749 1_555
O15 Si9 1.606693 1_555
O16 Si10 1.613219 1_555
O17 Si11 1.610648 1_555
O18 Si11 1.661142 1_555
O18 Ta3 1.950726 1_554
O19 Si9 1.653554 1_555
O19 Ta3 1.922788 1_554
O20 Si10 1.652270 1_555
O20 Ta3 2.000366 1_554
O21 Si7 1.653253 1_555
O21 Ta4 1.967484 1_555
O22 Si8 1.662119 1_555
O22 Ta4 1.935581 1_555
O23 Si6 1.656722 1_555
O23 Ta4 1.974718 1_555
O24 Si12 1.629300 1_555
O24 Ta5 1.972870 1_556
O25 Si13 1.620526 1_555
O25 Ta5 1.942845 1_556
O26 Si14 1.621119 1_555
O26 Ta5 2.019718 1_556
O27 Si15 1.630198 1_555
O27 Ta6 1.930564 1_555
O28 Si16 1.634468 1_555
O28 Ta6 1.942906 1_555
O29 Si17 1.637569 1_555
O29 Ta6 2.005043 1_555
O30 Si17 1.658662 1_555
O30 Ta7 2.001670 1_555
O31 Si15 1.653133 1_555
O31 Ta7 1.949130 1_555
O32 Si16 1.647292 1_555
O32 Ta7 1.983854 1_555
O33 Si13 1.650574 1_555
O33 Ta8 1.962653 1_555
O34 Si14 1.662178 1_555
O34 Ta8 1.927877 1_555
O35 Si12 1.655740 1_555
O35 Ta8 1.971177 1_555
O36 Si17 1.612402 1_555
O37 Si15 1.606145 1_555
O38 Si16 1.623620 1_555
O39 Si13 1.644509 1_555
O39 Ta0 2.027079 1_555
O40 Si14 1.634838 1_555
O40 Ta0 1.974414 1_565
O41 Si12 1.646074 1_555
O41 Ta0 2.040492 1_665
O42 Si6 1.634687 1_555
O42 Ta1 1.991303 1_655
O43 Si7 1.650083 1_555
O43 Ta1 2.020506 1_555
O44 Si8 1.647573 1_555
O44 Ta1 2.042079 1_665
O45 Si9 1.650542 1_555
O45 Ta2 2.037762 1_555
O46 Si10 1.641083 1_555
O46 Ta2 1.985533 1_545
O47 Si11 1.651322 1_555
O47 Ta2 2.055142 1_445
O48 Si5 1.617578 1_545
O49 Si3 1.612641 1_555
O50 Si4 1.629653 1_655
O51 Si1 1.622771 1_555
O52 Si2 1.613910 1_555
O53 Si0 1.612878 1_555
O54 Si12 1.629678 1_555
O54 Ta3 2.007281 1_555
O55 Si13 1.641448 1_655
O55 Ta3 2.046466 1_555
O56 Si14 1.640486 1_545
O56 Ta3 2.071921 1_555
O57 Si15 1.657603 1_545
O57 Ta4 2.056870 1_555
O58 Si16 1.643436 1_555
O58 Ta4 2.018070 1_555
O59 Si17 1.646983 1_655
O59 Ta4 2.032106 1_555
O60 Si11 1.635706 1_555
O60 Ta5 1.968801 1_555
O61 Si9 1.648881 1_455
O61 Ta5 2.005166 1_555
O62 Si10 1.646154 1_565
O62 Ta5 2.014888 1_555
O63 Si7 1.645221 1_565
O63 Ta6 2.018146 1_555
O64 Si8 1.631487 1_555
O64 Ta6 1.974185 1_555
O65 Si6 1.645377 1_455
O65 Ta6 2.025876 1_555
O66 Si0 1.658644 1_565
O66 Ta7 2.011971 1_555
O67 Si1 1.652452 1_555
O67 Ta7 1.994231 1_555
O68 Si2 1.673359 1_455
O68 Ta7 2.037297 1_555
O69 Si3 1.661184 1_555
O69 Ta8 2.056281 1_555
O70 Si4 1.649458 1_555
O70 Ta8 2.015784 1_555
O71 Si5 1.647382 1_555
O71 Ta8 2.034884 1_555
