# generated using pymatgen
data_Na3LaZnSi(SO6)2
_symmetry_space_group_name_H-M   'P 1'
_cell_length_a   9.46617698
_cell_length_b   9.50705009
_cell_length_c   23.24394909
_cell_angle_alpha   89.02516285
_cell_angle_beta   90.00000000
_cell_angle_gamma   119.85788382
_symmetry_Int_Tables_number   1
_chemical_formula_structural   Na3LaZnSi(SO6)2
_chemical_formula_sum   'Na18 La6 Zn6 Si6 S12 O72'
_cell_volume   1813.83393130
_cell_formula_units_Z   6
loop_
 _symmetry_equiv_pos_site_id
 _symmetry_equiv_pos_as_xyz
  1  'x, y, z'
loop_
 _atom_site_type_symbol
 _atom_site_label
 _atom_site_symmetry_multiplicity
 _atom_site_fract_x
 _atom_site_fract_y
 _atom_site_fract_z
 _atom_site_occupancy
  Na  Na0  1  0.62511531  0.01656595  0.25220225  1
  Na  Na1  1  0.00277918  0.64137074  0.23731433  1
  Na  Na2  1  0.63859156  0.64137074  0.73731433  1
  Na  Na3  1  0.39145065  0.01656595  0.75220225  1
  Na  Na4  1  0.31599098  0.35123257  0.58463256  1
  Na  Na5  1  0.64597602  0.94137763  0.57989199  1
  Na  Na6  1  0.29540261  0.94137763  0.07989199  1
  Na  Na7  1  0.03524259  0.35123257  0.08463256  1
  Na  Na8  1  0.98383674  0.69025593  0.92414929  1
  Na  Na9  1  0.69095807  0.02739421  0.90322016  1
  Na  Na10  1  0.33643515  0.02739421  0.40322016  1
  Na  Na11  1  0.70641820  0.69025593  0.42414929  1
  Na  Na12  1  0.97044219  0.98154489  0.48978322  1
  Na  Na13  1  0.01110270  0.98154489  0.98978322  1
  Na  Na14  1  0.65577094  0.30426819  0.82406626  1
  Na  Na15  1  0.64849825  0.30426819  0.32406626  1
  Na  Na16  1  0.33505570  0.66644482  0.15727770  1
  Na  Na17  1  0.33138812  0.66644482  0.65727770  1
  La  La0  1  0.98411299  0.98454499  0.65061540  1
  La  La1  1  0.00043199  0.98454499  0.15061540  1
  La  La2  1  0.65265154  0.33599357  0.98495450  1
  La  La3  1  0.68334303  0.33599357  0.48495450  1
  La  La4  1  0.33442821  0.67149923  0.31929106  1
  La  La5  1  0.33707002  0.67149923  0.81929106  1
  Zn  Zn0  1  0.01465692  0.01944333  0.34702027  1
  Zn  Zn1  1  0.00478641  0.01944333  0.84702027  1
  Zn  Zn2  1  0.68515195  0.34008339  0.68128967  1
  Zn  Zn3  1  0.65493245  0.34008339  0.18128967  1
  Zn  Zn4  1  0.27472064  0.67284957  0.01201969  1
  Zn  Zn5  1  0.39812793  0.67284957  0.51201969  1
  Si  Si0  1  0.31258454  0.01871186  0.25220900  1
  Si  Si1  1  0.70612733  0.01871186  0.75220900  1
  Si  Si2  1  0.65454850  0.62252278  0.58484522  1
  Si  Si3  1  0.96797528  0.62252278  0.08484522  1
  Si  Si4  1  0.31736157  0.97352539  0.91297729  1
  Si  Si5  1  0.65616283  0.97352539  0.41297729  1
  S  S0  1  0.70177595  0.68765481  0.25501115  1
  S  S1  1  0.98710725  0.29530761  0.24921534  1
  S  S2  1  0.30820037  0.29530761  0.74921534  1
  S  S3  1  0.98587886  0.68765481  0.75501115  1
  S  S4  1  0.98425264  0.34833210  0.58714686  1
  S  S5  1  0.37099708  0.02664436  0.58533400  1
  S  S6  1  0.65564828  0.02664436  0.08533400  1
  S  S7  1  0.36408046  0.34833210  0.08714686  1
  S  S8  1  0.64284344  0.68210346  0.91803642  1
  S  S9  1  0.03208010  0.35399871  0.92206679  1
  S  S10  1  0.32191761  0.35399871  0.42206679  1
  S  S11  1  0.03925901  0.68210346  0.41803642  1
  O  O0  1  0.21416459  0.02720639  0.31025664  1
  O  O1  1  0.79686781  0.77208770  0.30651891  1
  O  O2  1  0.97901747  0.19065402  0.29867547  1
  O  O3  1  0.21163655  0.19065402  0.79867547  1
  O  O4  1  0.97521988  0.77208770  0.80651891  1
  O  O5  1  0.81304180  0.02720639  0.81025664  1
  O  O6  1  0.78183972  0.98570849  0.69389097  1
  O  O7  1  0.22446198  0.22693787  0.69390094  1
  O  O8  1  0.01690273  0.79240007  0.70256777  1
  O  O9  1  0.77549734  0.79240007  0.20256777  1
  O  O10  1  0.00247590  0.22693787  0.19390094  1
  O  O11  1  0.20386877  0.98570849  0.19389097  1
  O  O12  1  0.89142444  0.35324675  0.63750330  1
  O  O13  1  0.47298810  0.11170704  0.63598332  1
  O  O14  1  0.64321008  0.50964595  0.64182711  1
  O  O15  1  0.86643687  0.50964595  0.14182711  1
  O  O16  1  0.63871994  0.11170704  0.13598332  1
  O  O17  1  0.46182331  0.35324675  0.13750330  1
  O  O18  1  0.42942200  0.31349275  0.03414047  1
  O  O19  1  0.88053767  0.54166636  0.02396460  1
  O  O20  1  0.67252387  0.12114864  0.03104537  1
  O  O21  1  0.44862577  0.12114864  0.53104537  1
  O  O22  1  0.66112969  0.54166636  0.52396460  1
  O  O23  1  0.88407175  0.31349275  0.53414047  1
  O  O24  1  0.53682831  0.67467450  0.96567991  1
  O  O25  1  0.12640620  0.43652183  0.97478547  1
  O  O26  1  0.28767501  0.85757393  0.97214284  1
  O  O27  1  0.56989792  0.85757393  0.47214284  1
  O  O28  1  0.31011463  0.43652183  0.47478547  1
  O  O29  1  0.13784519  0.67467450  0.46567991  1
  O  O30  1  0.10224746  0.66413789  0.36129854  1
  O  O31  1  0.54119553  0.88838299  0.35661252  1
  O  O32  1  0.33680067  0.45230413  0.37000021  1
  O  O33  1  0.11550246  0.45230413  0.87000021  1
  O  O34  1  0.34718646  0.88838299  0.85661252  1
  O  O35  1  0.56188943  0.66413789  0.86129854  1
  O  O36  1  0.03919337  0.84002445  0.41873540  1
  O  O37  1  0.83283516  0.97782810  0.40578816  1
  O  O38  1  0.17847232  0.18814912  0.41991530  1
  O  O39  1  0.00967680  0.18814912  0.91991530  1
  O  O40  1  0.14499294  0.97782810  0.90578816  1
  O  O41  1  0.80083108  0.84002445  0.91873540  1
  O  O42  1  0.01551821  0.20679421  0.59120647  1
  O  O43  1  0.20907743  0.01800278  0.58828975  1
  O  O44  1  0.80329653  0.81439713  0.58413463  1
  O  O45  1  0.01110060  0.81439713  0.08413463  1
  O  O46  1  0.80892534  0.01800278  0.08828975  1
  O  O47  1  0.19127599  0.20679421  0.09120647  1
  O  O48  1  0.67614836  0.17604449  0.74395006  1
  O  O49  1  0.47122286  0.30501431  0.75015016  1
  O  O50  1  0.82885067  0.53218638  0.74938640  1
  O  O51  1  0.70333671  0.53218638  0.24938640  1
  O  O52  1  0.83379245  0.30501431  0.25015016  1
  O  O53  1  0.49989714  0.17604449  0.24395006  1
  O  O54  1  0.68509357  0.54898539  0.92032509  1
  O  O55  1  0.86574786  0.33937949  0.92233937  1
  O  O56  1  0.49173312  0.14611085  0.91758746  1
  O  O57  1  0.65437873  0.14611085  0.41758746  1
  O  O58  1  0.47363263  0.33937949  0.42233937  1
  O  O59  1  0.86389282  0.54898539  0.42032509  1
  O  O60  1  0.35380504  0.49778550  0.08153534  1
  O  O61  1  0.15196547  0.63305682  0.08502902  1
  O  O62  1  0.50827236  0.86305992  0.08243859  1
  O  O63  1  0.35478656  0.86305992  0.58243859  1
  O  O64  1  0.48109035  0.63305682  0.58502902  1
  O  O65  1  0.14397946  0.49778550  0.58153534  1
  O  O66  1  0.33078576  0.85085079  0.25435599  1
  O  O67  1  0.53154887  0.65861578  0.25678638  1
  O  O68  1  0.12867017  0.46524710  0.25268166  1
  O  O69  1  0.33657592  0.46524710  0.75268166  1
  O  O70  1  0.12706590  0.65861578  0.75678638  1
  O  O71  1  0.52006403  0.85085079  0.75435599  1
loop_
_geom_bond_atom_site_label_1
_geom_bond_atom_site_label_2
_geom_bond_distance
_geom_bond_site_symmetry_2
Na0 O53 2.349498 1_555
Na0 O66 2.423641 1_545
Na0 O52 2.454859 1_555
Na0 O31 2.634668 1_545
Na0 O16 2.816574 1_555
Na1 O51 2.500287 1_455
Na1 O68 2.513545 1_555
Na1 O15 2.577880 1_455
Na1 O66 2.762920 1_555
Na1 O52 2.783484 1_455
Na1 O11 3.006954 1_555
Na1 O30 3.009481 1_555
Na2 O50 2.500295 1_555
Na2 O69 2.513552 1_555
Na2 O14 2.577882 1_555
Na2 O71 2.762927 1_555
Na2 O49 2.783484 1_555
Na2 O6 3.006954 1_555
Na2 O35 3.009484 1_555
Na3 O48 2.349506 1_555
Na3 O71 2.423633 1_545
Na3 O49 2.454857 1_555
Na3 O34 2.634667 1_545
Na3 O13 2.816575 1_555
Na4 O64 2.335124 1_555
Na4 O42 2.470436 1_555
Na4 O65 2.617875 1_555
Na4 O28 2.674748 1_555
Na4 O7 2.734269 1_555
Na4 O43 2.804692 1_555
Na5 O44 2.338994 1_555
Na5 O63 2.472016 1_555
Na5 O64 2.544628 1_555
Na5 O27 2.631084 1_555
Na5 O6 2.889873 1_555
Na6 O45 2.339003 1_555
Na6 O62 2.471998 1_555
Na6 O61 2.544627 1_555
Na6 O26 2.631081 1_554
Na6 O11 2.889876 1_555
Na7 O61 2.335125 1_555
Na7 O47 2.470428 1_555
Na7 O60 2.617859 1_555
Na7 O25 2.674744 1_554
Na7 O10 2.734268 1_555
Na7 O46 2.804694 1_455
Na8 O40 2.406539 1_655
Na8 O54 2.455875 1_555
Na8 O19 2.616810 1_556
Na8 O41 2.737558 1_555
Na8 O26 2.748118 1_655
Na8 O4 2.842276 1_555
Na8 O55 2.944623 1_555
Na9 O5 2.450914 1_555
Na9 O41 2.491560 1_545
Na9 O55 2.625074 1_555
Na9 O39 2.649136 1_655
Na9 O56 2.659730 1_555
Na10 O0 2.450910 1_555
Na10 O36 2.491552 1_545
Na10 O58 2.625073 1_555
Na10 O38 2.649128 1_555
Na10 O57 2.659747 1_555
Na11 O37 2.406538 1_555
Na11 O59 2.455891 1_555
Na11 O22 2.616812 1_555
Na11 O36 2.737567 1_655
Na11 O27 2.748118 1_555
Na11 O1 2.842277 1_555
Na11 O58 2.944619 1_555
Na12 O37 2.338021 1_555
Na12 O36 2.430733 1_655
Na12 O38 2.532490 1_665
Na12 O44 2.686308 1_555
Na13 O40 2.338021 1_555
Na13 O41 2.430733 1_455
Na13 O39 2.532490 1_565
Na13 O45 2.686308 1_556
Na14 O48 2.302710 1_555
Na14 O49 2.452700 1_555
Na14 O50 2.594195 1_555
Na14 O56 2.638461 1_555
Na14 O55 2.940309 1_555
Na15 O53 2.302710 1_555
Na15 O52 2.452700 1_555
Na15 O51 2.594195 1_555
Na15 O57 2.638461 1_555
Na15 O58 2.940309 1_555
Na16 O61 2.322751 1_555
Na16 O62 2.458913 1_555
Na16 O60 2.466074 1_555
Na16 O66 2.893454 1_555
Na16 O68 2.920273 1_555
Na16 O67 2.991175 1_555
Na17 O64 2.322751 1_555
Na17 O63 2.458913 1_555
Na17 O65 2.466074 1_555
Na17 O71 2.893454 1_555
Na17 O69 2.920273 1_555
Na17 O70 2.991175 1_555
La0 O6 2.167879 1_555
La0 O44 2.294000 1_555
La0 O8 2.319708 1_655
La0 O42 2.394791 1_665
La0 O43 2.458606 1_665
La0 O7 2.521431 1_665
La1 O11 2.167879 1_555
La1 O45 2.294000 1_555
La1 O9 2.319708 1_455
La1 O47 2.394791 1_565
La1 O46 2.458606 1_465
La1 O10 2.521431 1_565
La2 O19 2.271451 1_556
La2 O18 2.315113 1_556
La2 O56 2.321494 1_555
La2 O20 2.379757 1_556
La2 O54 2.393464 1_555
La2 O55 2.474302 1_555
La3 O22 2.271451 1_555
La3 O23 2.315113 1_555
La3 O57 2.321494 1_555
La3 O21 2.379757 1_555
La3 O59 2.393464 1_555
La3 O58 2.474302 1_555
La4 O31 2.208509 1_555
La4 O66 2.271050 1_555
La4 O30 2.373483 1_555
La4 O32 2.386514 1_555
La4 O67 2.416877 1_555
La4 O68 2.517191 1_555
La5 O34 2.208509 1_555
La5 O71 2.271050 1_555
La5 O35 2.373483 1_555
La5 O33 2.386514 1_555
La5 O70 2.416877 1_555
La5 O69 2.517190 1_555
O0 Si0 1.665422 1_555
O0 Zn0 2.039965 1_555
O1 S0 1.483664 1_555
O1 Zn0 2.432016 1_665
O2 S1 1.484146 1_555
O2 Zn0 2.123805 1_655
O3 S2 1.484146 1_555
O3 Zn1 2.123805 1_555
O4 S3 1.483664 1_555
O4 Zn1 2.432016 1_665
O5 Si1 1.665422 1_555
O5 Zn1 2.039965 1_655
O6 Si1 1.639510 1_565
O7 S2 1.489745 1_555
O8 S3 1.493768 1_455
O9 S0 1.493768 1_555
O10 S1 1.489745 1_455
O11 Si0 1.639510 1_565
O12 S4 1.478891 1_555
O12 Zn2 2.148619 1_555
O13 S5 1.492350 1_555
O13 Zn2 2.364876 1_555
O14 Si2 1.659617 1_555
O14 Zn2 2.045640 1_555
O15 Si3 1.659617 1_555
O15 Zn3 2.045640 1_555
O16 S6 1.492350 1_555
O16 Zn3 2.364876 1_555
O17 S7 1.478891 1_555
O17 Zn3 2.148619 1_555
O18 S7 1.492710 1_555
O19 Si3 1.637685 1_555
O20 S6 1.497866 1_555
O21 S5 1.497866 1_555
O22 Si2 1.637685 1_555
O23 S4 1.492710 1_555
O24 S8 1.471485 1_555
O25 S9 1.499860 1_555
O25 Zn4 2.166450 1_556
O26 Si4 1.680897 1_555
O26 Zn4 1.920556 1_556
O27 Si5 1.680897 1_555
O27 Zn5 1.920556 1_555
O28 S10 1.499860 1_555
O28 Zn5 2.166450 1_555
O29 S11 1.471485 1_555
O30 S11 1.494333 1_555
O31 Si5 1.647733 1_555
O32 S10 1.479320 1_555
O33 S9 1.479320 1_555
O34 Si4 1.647733 1_555
O35 S8 1.494333 1_555
O36 S11 1.502036 1_555
O36 Zn0 2.457630 1_565
O37 Si5 1.660785 1_555
O37 Zn0 2.070856 1_665
O38 S10 1.484355 1_555
O38 Zn0 2.337530 1_555
O39 S9 1.484359 1_555
O39 Zn1 2.337530 1_555
O40 Si4 1.660776 1_555
O40 Zn1 2.070856 1_565
O41 S8 1.502041 1_555
O41 Zn1 2.457630 1_665
O42 S4 1.516371 1_455
O43 S5 1.495074 1_555
O44 Si2 1.658906 1_555
O45 Si3 1.658909 1_455
O46 S6 1.495065 1_555
O47 S7 1.516377 1_555
O48 Si1 1.663609 1_555
O48 Zn2 2.085922 1_555
O49 S2 1.499575 1_555
O49 Zn2 2.466497 1_555
O50 S3 1.493398 1_555
O50 Zn2 2.305633 1_555
O51 S0 1.493402 1_555
O51 Zn3 2.305633 1_555
O52 S1 1.499565 1_555
O52 Zn3 2.466497 1_555
O53 Si0 1.663615 1_555
O53 Zn3 2.085922 1_555
O54 S8 1.505364 1_555
O55 S9 1.510158 1_655
O56 Si4 1.654548 1_545
O57 Si5 1.654538 1_545
O58 S10 1.510177 1_555
O59 S11 1.505351 1_655
O60 S7 1.475339 1_555
O61 Si3 1.694063 1_455
O61 Zn4 1.978319 1_555
O62 S6 1.487516 1_565
O63 S5 1.487508 1_565
O64 Si2 1.694082 1_555
O64 Zn5 1.978319 1_555
O65 S4 1.475329 1_455
O66 Si0 1.688202 1_565
O67 S0 1.493716 1_555
O68 S1 1.503727 1_455
O69 S2 1.503731 1_555
O70 S3 1.493706 1_455
O71 Si1 1.688207 1_565
