# generated using pymatgen
data_LiMnFeF6
_symmetry_space_group_name_H-M   'P 1'
_cell_length_a   8.88236051
_cell_length_b   8.88236051
_cell_length_c   4.81908900
_cell_angle_alpha   90.00000000
_cell_angle_beta   90.00000000
_cell_angle_gamma   120.00000383
_symmetry_Int_Tables_number   1
_chemical_formula_structural   LiMnFeF6
_chemical_formula_sum   'Li3 Mn3 Fe3 F18'
_cell_volume   329.27014459
_cell_formula_units_Z   3
loop_
 _symmetry_equiv_pos_site_id
 _symmetry_equiv_pos_as_xyz
  1  'x, y, z'
loop_
 _atom_site_type_symbol
 _atom_site_label
 _atom_site_symmetry_multiplicity
 _atom_site_fract_x
 _atom_site_fract_y
 _atom_site_fract_z
 _atom_site_occupancy
  Li  Li0  1  0.70247900  0.00000000  0.50000000  1
  Li  Li1  1  0.29752100  0.29752100  0.50000000  1
  Li  Li2  1  0.00000000  0.70247900  0.50000000  1
  Mn  Mn0  1  0.63864600  0.63864600  0.00000000  1
  Mn  Mn1  1  0.00000000  0.36135400  0.00000000  1
  Mn  Mn2  1  0.36135400  0.00000000  0.00000000  1
  Fe  Fe0  1  0.66666700  0.33333300  0.49795500  1
  Fe  Fe1  1  0.33333300  0.66666700  0.50204500  1
  Fe  Fe2  1  0.00000000  0.00000000  0.00000000  1
  F  F0  1  0.88637600  0.78736800  0.22477700  1
  F  F1  1  0.90099200  0.11362400  0.22477700  1
  F  F2  1  0.21263200  0.09900800  0.22477700  1
  F  F3  1  0.09900800  0.21263200  0.77522300  1
  F  F4  1  0.11362400  0.90099200  0.77522300  1
  F  F5  1  0.78736800  0.88637600  0.77522300  1
  F  F6  1  0.54315400  0.42035700  0.27056200  1
  F  F7  1  0.57964300  0.12279700  0.27056200  1
  F  F8  1  0.87720300  0.45684600  0.27056200  1
  F  F9  1  0.12279700  0.57964300  0.72943800  1
  F  F10  1  0.45684600  0.87720300  0.72943800  1
  F  F11  1  0.42035700  0.54315400  0.72943800  1
  F  F12  1  0.22191000  0.45409500  0.27828400  1
  F  F13  1  0.54590500  0.76781500  0.27828400  1
  F  F14  1  0.23218500  0.77809000  0.27828400  1
  F  F15  1  0.76781500  0.54590500  0.72171600  1
  F  F16  1  0.77809000  0.23218500  0.72171600  1
  F  F17  1  0.45409500  0.22191000  0.72171600  1
loop_
_geom_bond_atom_site_label_1
_geom_bond_atom_site_label_2
_geom_bond_distance
_geom_bond_site_symmetry_2
F0 Fe2 1.962880 1_665
F0 Li2 2.026634 1_655
F0 Mn0 2.203071 1_555
F1 Fe2 1.962880 1_655
F1 Li0 2.026634 1_555
F1 Mn1 2.203071 1_655
F2 Fe2 1.962880 1_555
F2 Li1 2.026634 1_555
F2 Mn2 2.203071 1_555
F3 Fe2 1.962880 1_556
F3 Li1 2.026634 1_555
F3 Mn1 2.203071 1_556
F4 Fe2 1.962880 1_566
F4 Li2 2.026634 1_555
F4 Mn2 2.203071 1_566
F5 Fe2 1.962880 1_666
F5 Li0 2.026634 1_565
F5 Mn0 2.203071 1_556
F6 Fe0 1.962131 1_555
F6 Mn0 2.129395 1_555
F6 Li1 2.189229 1_555
F7 Fe0 1.962124 1_555
F7 Mn2 2.129395 1_555
F7 Li0 2.189229 1_555
F8 Fe0 1.962125 1_555
F8 Mn1 2.129396 1_655
F8 Li2 2.189229 1_655
F9 Fe1 1.962124 1_555
F9 Mn1 2.129395 1_556
F9 Li2 2.189229 1_555
F10 Fe1 1.962125 1_555
F10 Mn2 2.129396 1_566
F10 Li0 2.189229 1_565
F11 Fe1 1.962131 1_555
F11 Mn0 2.129395 1_556
F11 Li1 2.189229 1_555
F12 Fe1 1.959253 1_555
F12 Li1 2.112081 1_555
F12 Mn1 2.176818 1_555
F13 Fe1 1.959253 1_555
F13 Li0 2.112081 1_565
F13 Mn0 2.176818 1_555
F14 Fe1 1.959247 1_555
F14 Li2 2.112081 1_555
F14 Mn2 2.176818 1_565
F15 Fe0 1.959253 1_555
F15 Li2 2.112081 1_655
F15 Mn0 2.176818 1_556
F16 Fe0 1.959247 1_555
F16 Li0 2.112081 1_555
F16 Mn1 2.176818 1_656
F17 Fe0 1.959253 1_555
F17 Li1 2.112081 1_555
F17 Mn2 2.176818 1_556
