# generated using pymatgen
data_MgCu2(WO4)2
_symmetry_space_group_name_H-M   'P 1'
_cell_length_a   5.44512702
_cell_length_b   5.26226773
_cell_length_c   6.36514755
_cell_angle_alpha   87.27124240
_cell_angle_beta   87.97321764
_cell_angle_gamma   72.83711054
_symmetry_Int_Tables_number   1
_chemical_formula_structural   MgCu2(WO4)2
_chemical_formula_sum   'Mg1 Cu2 W2 O8'
_cell_volume   174.02243964
_cell_formula_units_Z   1
loop_
 _symmetry_equiv_pos_site_id
 _symmetry_equiv_pos_as_xyz
  1  'x, y, z'
loop_
 _atom_site_type_symbol
 _atom_site_label
 _atom_site_symmetry_multiplicity
 _atom_site_fract_x
 _atom_site_fract_y
 _atom_site_fract_z
 _atom_site_occupancy
  Mg  Mg0  1  0.38253145  0.44977900  0.62970328  1
  Cu  Cu0  1  0.70161635  0.87057718  0.64431128  1
  Cu  Cu1  1  0.40089748  0.12687812  0.27723846  1
  W  W0  1  0.99583870  0.72594438  0.15443394  1
  W  W1  1  0.97851159  0.25237369  0.86446862  1
  O  O0  1  0.17609608  0.99988143  0.10044156  1
  O  O1  1  0.79160577  0.98654249  0.90625580  1
  O  O2  1  0.24582650  0.11883135  0.67067648  1
  O  O3  1  0.74402279  0.90909348  0.34450498  1
  O  O4  1  0.24097681  0.52177348  0.34089372  1
  O  O5  1  0.72989801  0.46385791  0.68056684  1
  O  O6  1  0.17828061  0.52412531  0.89561171  1
  O  O7  1  0.80889785  0.47534219  0.10547632  1
loop_
_geom_bond_atom_site_label_1
_geom_bond_atom_site_label_2
_geom_bond_distance
_geom_bond_site_symmetry_2
Mg0 O5 1.953512 1_555
Mg0 O6 1.981869 1_555
Mg0 O4 1.994646 1_555
Mg0 O2 2.088818 1_555
Cu0 O3 1.922414 1_555
Cu0 O1 1.929658 1_555
Cu0 O5 2.102064 1_555
Cu0 O2 2.443812 1_565
Cu1 O3 1.932270 1_545
Cu1 O0 1.965498 1_545
Cu1 O4 2.056204 1_555
Cu1 O2 2.616807 1_555
O0 W0 1.980787 1_455
O0 W1 2.063864 1_464
O1 W1 1.961889 1_565
O1 W0 2.151895 1_556
O2 W1 1.867062 1_455
O3 W0 1.867197 1_555
O4 W0 1.867861 1_455
O5 W1 1.881552 1_555
O6 W1 2.056164 1_455
O6 W0 2.063253 1_456
O7 W0 1.930318 1_555
O7 W1 2.003644 1_554
