# generated using pymatgen
data_Tl6Si2O7
_symmetry_space_group_name_H-M   'P 1'
_cell_length_a   9.70743981
_cell_length_b   9.70732423
_cell_length_c   7.93140043
_cell_angle_alpha   89.99982047
_cell_angle_beta   90.00015924
_cell_angle_gamma   120.00162704
_symmetry_Int_Tables_number   1
_chemical_formula_structural   Tl6Si2O7
_chemical_formula_sum   'Tl12 Si4 O14'
_cell_volume   647.25830230
_cell_formula_units_Z   2
loop_
 _symmetry_equiv_pos_site_id
 _symmetry_equiv_pos_as_xyz
  1  'x, y, z'
loop_
 _atom_site_type_symbol
 _atom_site_label
 _atom_site_symmetry_multiplicity
 _atom_site_fract_x
 _atom_site_fract_y
 _atom_site_fract_z
 _atom_site_occupancy
  Tl  Tl0  1  0.03571394  0.35055591  0.36870714  1
  Tl  Tl1  1  0.31483960  0.96428701  0.36870787  1
  Tl  Tl2  1  0.64944936  0.68516138  0.36870418  1
  Tl  Tl3  1  0.96428780  0.64944366  0.63129252  1
  Tl  Tl4  1  0.68515944  0.03571144  0.63129275  1
  Tl  Tl5  1  0.35055194  0.31483970  0.63129345  1
  Tl  Tl6  1  0.05039401  0.35763655  0.87952061  1
  Tl  Tl7  1  0.30724214  0.94960482  0.87952303  1
  Tl  Tl8  1  0.64236167  0.69276015  0.87952743  1
  Tl  Tl9  1  0.94960709  0.64236304  0.12047843  1
  Tl  Tl10  1  0.69275779  0.05040218  0.12048685  1
  Tl  Tl11  1  0.35763843  0.30724006  0.12047228  1
  Si  Si0  1  0.33332150  0.66667376  0.16723727  1
  Si  Si1  1  0.66667791  0.33332298  0.41541068  1
  Si  Si2  1  0.33332168  0.66667723  0.58458882  1
  Si  Si3  1  0.66667893  0.33332512  0.83276100  1
  O  O0  1  0.85149229  0.44716834  0.88807401  1
  O  O1  1  0.55281975  0.40433427  0.88807757  1
  O  O2  1  0.59567922  0.14851289  0.88806860  1
  O  O3  1  0.40432135  0.85148706  0.11193016  1
  O  O4  1  0.66666858  0.33333367  0.62391601  1
  O  O5  1  0.33333160  0.66666520  0.37608321  1
  O  O6  1  0.59785965  0.14900586  0.35925662  1
  O  O7  1  0.55113279  0.40215059  0.35924897  1
  O  O8  1  0.85099497  0.44885493  0.35925349  1
  O  O9  1  0.40213620  0.85099274  0.64074442  1
  O  O10  1  0.44886749  0.59784989  0.64075049  1
  O  O11  1  0.14900535  0.55114149  0.64074570  1
  O  O12  1  0.14850870  0.55283100  0.11192495  1
  O  O13  1  0.44717983  0.59566509  0.11192149  1
loop_
_geom_bond_atom_site_label_1
_geom_bond_atom_site_label_2
_geom_bond_distance
_geom_bond_site_symmetry_2
O0 Si3 1.627779 1_555
O0 Tl9 2.467879 1_556
O0 Tl6 2.483192 1_655
O0 Tl3 2.655604 1_555
O1 Si3 1.628252 1_555
O1 Tl11 2.467759 1_556
O1 Tl8 2.483035 1_555
O1 Tl5 2.655589 1_555
O2 Si3 1.627715 1_555
O2 Tl10 2.467958 1_556
O2 Tl7 2.483162 1_545
O2 Tl4 2.655646 1_555
O3 Si0 1.627723 1_555
O3 Tl7 2.467935 1_554
O3 Tl10 2.483174 1_565
O3 Tl1 2.655657 1_555
O4 Si1 1.653739 1_555
O4 Si3 1.656433 1_555
O5 Si2 1.653741 1_555
O5 Si0 1.656441 1_555
O6 Si1 1.628078 1_555
O6 Tl1 2.417116 1_545
O6 Tl10 2.496610 1_555
O6 Tl4 2.741370 1_555
O7 Si1 1.628604 1_555
O7 Tl2 2.417003 1_555
O7 Tl11 2.496585 1_555
O7 Tl5 2.741337 1_555
O8 Si1 1.628133 1_555
O8 Tl0 2.417164 1_655
O8 Tl9 2.496638 1_555
O8 Tl3 2.741335 1_555
O9 Si2 1.628072 1_555
O9 Tl4 2.417140 1_565
O9 Tl7 2.496688 1_555
O9 Tl1 2.741356 1_555
O10 Si2 1.628608 1_555
O10 Tl5 2.417000 1_555
O10 Tl8 2.496585 1_555
O10 Tl2 2.741353 1_555
O11 Si2 1.628132 1_555
O11 Tl3 2.417174 1_455
O11 Tl6 2.496620 1_555
O11 Tl0 2.741316 1_555
O12 Si0 1.627773 1_555
O12 Tl6 2.467877 1_554
O12 Tl9 2.483193 1_455
O12 Tl0 2.655607 1_555
O13 Si0 1.628240 1_555
O13 Tl8 2.467758 1_554
O13 Tl11 2.483028 1_555
O13 Tl2 2.655590 1_555
