# generated using pymatgen
data_Gd(MnSi)2
_symmetry_space_group_name_H-M   'P 1'
_cell_length_a   5.75356036
_cell_length_b   5.75356036
_cell_length_c   5.75356036
_cell_angle_alpha   140.12471838
_cell_angle_beta   140.12471838
_cell_angle_gamma   57.66398047
_symmetry_Int_Tables_number   1
_chemical_formula_structural   Gd(MnSi)2
_chemical_formula_sum   'Gd1 Mn2 Si2'
_cell_volume   77.60583547
_cell_formula_units_Z   1
loop_
 _symmetry_equiv_pos_site_id
 _symmetry_equiv_pos_as_xyz
  1  'x, y, z'
loop_
 _atom_site_type_symbol
 _atom_site_label
 _atom_site_symmetry_multiplicity
 _atom_site_fract_x
 _atom_site_fract_y
 _atom_site_fract_z
 _atom_site_occupancy
  Gd  Gd0  1  0.00000000  0.00000000  0.00000000  1
  Mn  Mn0  1  0.75000000  0.25000000  0.50000000  1
  Mn  Mn1  1  0.25000000  0.75000000  0.50000000  1
  Si  Si0  1  0.62671200  0.62671200  0.00000000  1
  Si  Si1  1  0.37328800  0.37328800  0.00000000  1
loop_
_geom_bond_atom_site_label_1
_geom_bond_atom_site_label_2
_geom_bond_distance
_geom_bond_site_symmetry_2
Gd0 Si1 3.054518 1_545
Gd0 Si1 3.054518 1_444
Gd0 Si1 3.054518 1_455
Gd0 Si1 3.054518 1_556
Gd0 Si0 3.054518 1_545
Gd0 Si0 3.054518 1_556
Gd0 Si0 3.054518 1_444
Gd0 Si0 3.054518 1_455
Gd0 Mn1 3.193820 1_544
Gd0 Mn0 3.193820 1_555
Gd0 Mn1 3.193820 1_555
Gd0 Mn1 3.193820 1_545
Gd0 Mn0 3.193820 1_444
Gd0 Mn0 3.193820 1_455
Gd0 Mn0 3.193820 1_454
Gd0 Mn1 3.193820 1_444
Mn0 Si0 2.322468 1_545
Mn0 Si0 2.322468 1_556
Mn0 Si1 2.322468 1_555
Mn0 Si1 2.322468 1_656
Mn1 Si0 2.322468 1_556
Mn1 Si1 2.322468 1_555
Mn1 Si1 2.322468 1_566
Mn1 Si0 2.322468 1_455
Si0 Si1 2.554684 1_555
