# generated using pymatgen
data_Na10Ti5Zn3Si6(SO8)6
_symmetry_space_group_name_H-M   'P 1'
_cell_length_a   17.86424586
_cell_length_b   8.93642797
_cell_length_c   22.17879606
_cell_angle_alpha   89.93738193
_cell_angle_beta   89.53021940
_cell_angle_gamma   119.96579004
_symmetry_Int_Tables_number   1
_chemical_formula_structural   Na10Ti5Zn3Si6(SO8)6
_chemical_formula_sum   'Na30 Ti15 Zn9 Si18 S18 O144'
_cell_volume   3067.21674100
_cell_formula_units_Z   3
loop_
 _symmetry_equiv_pos_site_id
 _symmetry_equiv_pos_as_xyz
  1  'x, y, z'
loop_
 _atom_site_type_symbol
 _atom_site_label
 _atom_site_symmetry_multiplicity
 _atom_site_fract_x
 _atom_site_fract_y
 _atom_site_fract_z
 _atom_site_occupancy
  Na  Na0  1  0.31794390  0.00536013  0.24609216  1
  Na  Na1  1  0.19400898  0.36924601  0.24310080  1
  Na  Na2  1  0.68911879  0.36737687  0.24235135  1
  Na  Na3  1  0.99755560  0.63129483  0.25009001  1
  Na  Na4  1  0.31582057  0.61887037  0.75203125  1
  Na  Na5  1  0.81714083  0.62286464  0.74963238  1
  Na  Na6  1  0.99390210  0.36556840  0.74732874  1
  Na  Na7  1  0.49305631  0.37071337  0.74100732  1
  Na  Na8  1  0.18726097  0.00905026  0.74843231  1
  Na  Na9  1  0.68959150  0.01274699  0.75062334  1
  Na  Na10  1  0.65016485  0.34628510  0.57510921  1
  Na  Na11  1  0.32383035  0.68583871  0.07831704  1
  Na  Na12  1  0.82628446  0.69139869  0.08619387  1
  Na  Na13  1  0.16128521  0.31046212  0.92242085  1
  Na  Na14  1  0.99533302  0.30587940  0.42072133  1
  Na  Na15  1  0.16519535  0.02895101  0.42088439  1
  Na  Na16  1  0.66028584  0.02062560  0.41445799  1
  Na  Na17  1  0.84418205  0.67337359  0.41993708  1
  Na  Na18  1  0.00259945  0.00574226  0.50371839  1
  Na  Na19  1  0.48852881  0.99892589  0.49518545  1
  Na  Na20  1  0.00172895  0.01352309  0.99868064  1
  Na  Na21  1  0.50262156  0.02196696  0.99635415  1
  Na  Na22  1  0.34226291  0.34730989  0.83351531  1
  Na  Na23  1  0.83604311  0.33610954  0.83155213  1
  Na  Na24  1  0.34295560  0.36766492  0.32861301  1
  Na  Na25  1  0.83210398  0.32564708  0.32597608  1
  Na  Na26  1  0.16423842  0.66052371  0.15740595  1
  Na  Na27  1  0.65963288  0.66740463  0.15968656  1
  Na  Na28  1  0.16333408  0.66362236  0.65806769  1
  Na  Na29  1  0.66169159  0.67171224  0.65796412  1
  Ti  Ti0  1  0.00138421  0.99105737  0.35502543  1
  Ti  Ti1  1  0.99795561  0.00688123  0.84917208  1
  Ti  Ti2  1  0.50240442  0.99792641  0.85725739  1
  Ti  Ti3  1  0.00151566  0.00071373  0.65332131  1
  Ti  Ti4  1  0.50513251  0.01343184  0.64650505  1
  Ti  Ti5  1  0.00744954  0.99444366  0.14741789  1
  Ti  Ti6  1  0.49827419  0.00232079  0.14499316  1
  Ti  Ti7  1  0.33220660  0.34359987  0.97621605  1
  Ti  Ti8  1  0.82663091  0.32158117  0.98090940  1
  Ti  Ti9  1  0.33767783  0.33821485  0.48433482  1
  Ti  Ti10  1  0.83386966  0.33740627  0.47328456  1
  Ti  Ti11  1  0.17245000  0.66237777  0.31465649  1
  Ti  Ti12  1  0.67754551  0.67446243  0.31657199  1
  Ti  Ti13  1  0.15605716  0.63953354  0.81758112  1
  Ti  Ti14  1  0.65582390  0.65317939  0.80933625  1
  Zn  Zn0  1  0.49957109  0.00247005  0.35026627  1
  Zn  Zn1  1  0.33780113  0.35094105  0.68282589  1
  Zn  Zn2  1  0.83664959  0.33694623  0.69065978  1
  Zn  Zn3  1  0.32946542  0.34395637  0.18565014  1
  Zn  Zn4  1  0.83056115  0.33906400  0.18026215  1
  Zn  Zn5  1  0.16628114  0.63760667  0.01202421  1
  Zn  Zn6  1  0.65722791  0.63479804  0.01559886  1
  Zn  Zn7  1  0.15844341  0.65178109  0.51106829  1
  Zn  Zn8  1  0.66163001  0.64997676  0.51416390  1
  Si  Si0  1  0.14758592  0.99353832  0.25237890  1
  Si  Si1  1  0.35896555  0.71310437  0.25281726  1
  Si  Si2  1  0.85531033  0.71352895  0.24905551  1
  Si  Si3  1  0.14622894  0.29119209  0.74988865  1
  Si  Si4  1  0.64328641  0.28751033  0.75071263  1
  Si  Si5  1  0.00508986  0.71706911  0.75253299  1
  Si  Si6  1  0.49948732  0.71727272  0.75020665  1
  Si  Si7  1  0.85284006  0.99344339  0.75000164  1
  Si  Si8  1  0.48097361  0.33475395  0.58796245  1
  Si  Si9  1  0.18335247  0.32998247  0.08520756  1
  Si  Si10  1  0.68414928  0.33390923  0.08701414  1
  Si  Si11  1  0.31471816  0.67513423  0.91841728  1
  Si  Si12  1  0.01146039  0.35916239  0.91910349  1
  Si  Si13  1  0.51707592  0.36830205  0.91693651  1
  Si  Si14  1  0.81195582  0.95599163  0.42019655  1
  Si  Si15  1  0.17080979  0.37387663  0.41752513  1
  Si  Si16  1  0.65950062  0.36205496  0.41869894  1
  Si  Si17  1  0.02514770  0.66995161  0.41661438  1
  S  S0  1  0.64535436  0.99137555  0.24984533  1
  S  S1  1  0.99954905  0.28535200  0.25004422  1
  S  S2  1  0.50323315  0.29733574  0.24935511  1
  S  S3  1  0.35589279  0.99360946  0.75124146  1
  S  S4  1  0.97859438  0.32874856  0.58344381  1
  S  S5  1  0.18566787  0.03937060  0.58434871  1
  S  S6  1  0.68774860  0.04196741  0.58374298  1
  S  S7  1  0.33239019  0.63106529  0.58352636  1
  S  S8  1  0.83898313  0.63087876  0.58424350  1
  S  S9  1  0.47896223  0.62657070  0.08414199  1
  S  S10  1  0.97993159  0.62575045  0.08349933  1
  S  S11  1  0.33529028  0.04779172  0.08599486  1
  S  S12  1  0.83449100  0.04584837  0.08339521  1
  S  S13  1  0.81446555  0.66641380  0.91733903  1
  S  S14  1  0.16604358  0.95506040  0.91728217  1
  S  S15  1  0.66811984  0.95708803  0.91778047  1
  S  S16  1  0.31353790  0.96126138  0.41878917  1
  S  S17  1  0.51914378  0.65839644  0.41716846  1
  O  O0  1  0.09583406  0.02083654  0.30881019  1
  O  O1  1  0.61214951  0.02431593  0.30668116  1
  O  O2  1  0.41204240  0.81289030  0.31019499  1
  O  O3  1  0.91461519  0.81797083  0.30707813  1
  O  O4  1  0.49072380  0.19805207  0.30463641  1
  O  O5  1  0.99003444  0.19170119  0.30712261  1
  O  O6  1  0.10032047  0.17377297  0.81018016  1
  O  O7  1  0.59273558  0.15708032  0.80553460  1
  O  O8  1  0.48739229  0.81486353  0.80734160  1
  O  O9  1  0.98982918  0.81535477  0.80883103  1
  O  O10  1  0.40964615  0.02084081  0.80453222  1
  O  O11  1  0.91869361  0.03074793  0.80637468  1
  O  O12  1  0.39744958  0.97079950  0.69573728  1
  O  O13  1  0.90071221  0.95624203  0.69178758  1
  O  O14  1  0.07856293  0.19880742  0.69303445  1
  O  O15  1  0.58263348  0.20571605  0.68902187  1
  O  O16  1  0.02275022  0.84638549  0.69295209  1
  O  O17  1  0.51382273  0.84294184  0.69087653  1
  O  O18  1  0.40543210  0.84086253  0.19129980  1
  O  O19  1  0.90013488  0.82568238  0.18725539  1
  O  O20  1  0.01049696  0.19605247  0.19714037  1
  O  O21  1  0.51871524  0.20883924  0.19592578  1
  O  O22  1  0.08209973  0.96876886  0.19429082  1
  O  O23  1  0.59001049  0.98014859  0.19763264  1
  O  O24  1  0.43681848  0.34784020  0.64948850  1
  O  O25  1  0.93586568  0.34050481  0.63918048  1
  O  O26  1  0.23291605  0.12285108  0.63990500  1
  O  O27  1  0.73523397  0.12356602  0.63942990  1
  O  O28  1  0.31873758  0.53643403  0.64123196  1
  O  O29  1  0.82927684  0.52603081  0.63872475  1
  O  O30  1  0.44185433  0.52370074  0.13876181  1
  O  O31  1  0.94576128  0.53373903  0.14188036  1
  O  O32  1  0.33170155  0.12718162  0.14341814  1
  O  O33  1  0.82796072  0.12884686  0.13843454  1
  O  O34  1  0.23847097  0.35809669  0.14524632  1
  O  O35  1  0.73971033  0.36833813  0.14786275  1
  O  O36  1  0.23607298  0.31098409  0.02444359  1
  O  O37  1  0.73965100  0.30924622  0.02890070  1
  O  O38  1  0.42320348  0.54144160  0.03009731  1
  O  O39  1  0.92084989  0.52970604  0.03296716  1
  O  O40  1  0.34708229  0.15695519  0.03280093  1
  O  O41  1  0.84488629  0.15693745  0.02856763  1
  O  O42  1  0.23192537  0.14897596  0.52899594  1
  O  O43  1  0.73250457  0.15430772  0.52933618  1
  O  O44  1  0.34035305  0.52855019  0.53178242  1
  O  O45  1  0.84326630  0.53743029  0.52834696  1
  O  O46  1  0.41553723  0.31748693  0.52974265  1
  O  O47  1  0.92721302  0.31817255  0.52832018  1
  O  O48  1  0.28213330  0.71152288  0.98068290  1
  O  O49  1  0.77865609  0.69578233  0.97310069  1
  O  O50  1  0.07856787  0.43920912  0.97227064  1
  O  O51  1  0.57529114  0.44122473  0.97431160  1
  O  O52  1  0.15624227  0.85456973  0.97092518  1
  O  O53  1  0.65954617  0.85564196  0.97108558  1
  O  O54  1  0.27213604  0.85796939  0.47270584  1
  O  O55  1  0.77079404  0.82644431  0.47548931  1
  O  O56  1  0.14009528  0.44455914  0.47289870  1
  O  O57  1  0.64820239  0.43520000  0.48102325  1
  O  O58  1  0.08722149  0.73137771  0.47320752  1
  O  O59  1  0.57165165  0.68863595  0.47135194  1
  O  O60  1  0.06681618  0.62628083  0.35729475  1
  O  O61  1  0.56109802  0.63347778  0.36244342  1
  O  O62  1  0.25835912  0.87770440  0.36300281  1
  O  O63  1  0.74647551  0.86660248  0.36053123  1
  O  O64  1  0.18510521  0.49768099  0.35634181  1
  O  O65  1  0.68178158  0.50113800  0.36066575  1
  O  O66  1  0.05891861  0.48123844  0.85590138  1
  O  O67  1  0.56534704  0.49856989  0.85637881  1
  O  O68  1  0.17541850  0.87251192  0.86065836  1
  O  O69  1  0.67968774  0.88053509  0.86089089  1
  O  O70  1  0.24601558  0.63561994  0.86111033  1
  O  O71  1  0.76077876  0.64417611  0.86309737  1
  O  O72  1  0.00312498  0.82745860  0.40771197  1
  O  O73  1  0.50786212  0.81020287  0.41115550  1
  O  O74  1  0.40139007  0.99230261  0.41224326  1
  O  O75  1  0.91004165  0.99412585  0.40756612  1
  O  O76  1  0.08523069  0.18018301  0.40585458  1
  O  O77  1  0.58566531  0.16497814  0.40790876  1
  O  O78  1  0.00470087  0.16935808  0.90899727  1
  O  O79  1  0.50493173  0.17724576  0.90318765  1
  O  O80  1  0.09072287  0.98530735  0.91232511  1
  O  O81  1  0.59166301  0.98234545  0.91315998  1
  O  O82  1  0.41195505  0.83301404  0.90591364  1
  O  O83  1  0.90324731  0.81704540  0.90975321  1
  O  O84  1  0.48725400  0.15147882  0.58806834  1
  O  O85  1  0.98399574  0.16627608  0.58416877  1
  O  O86  1  0.09871672  0.02837639  0.58446429  1
  O  O87  1  0.60128492  0.03789844  0.58526640  1
  O  O88  1  0.41486940  0.79904896  0.58405527  1
  O  O89  1  0.92048195  0.80121069  0.58497223  1
  O  O90  1  0.47942375  0.79840967  0.08841978  1
  O  O91  1  0.97858794  0.79598167  0.08529976  1
  O  O92  1  0.41643800  0.02609188  0.08742463  1
  O  O93  1  0.91306434  0.02583226  0.08331002  1
  O  O94  1  0.08620402  0.14834619  0.09074160  1
  O  O95  1  0.58859057  0.15277172  0.09210130  1
  O  O96  1  0.34257564  0.14365306  0.74728405  1
  O  O97  1  0.84303170  0.16237947  0.74603985  1
  O  O98  1  0.24033937  0.30857555  0.74408378  1
  O  O99  1  0.73905541  0.31403920  0.74572109  1
  O  O100  1  0.41728339  0.52404298  0.74964346  1
  O  O101  1  0.92147196  0.52715761  0.74762067  1
  O  O102  1  0.34156175  0.51945980  0.24806345  1
  O  O103  1  0.84615413  0.52162295  0.25107006  1
  O  O104  1  0.42589577  0.31195484  0.24000787  1
  O  O105  1  0.92548230  0.31430158  0.24453513  1
  O  O106  1  0.24361888  0.15700628  0.25036401  1
  O  O107  1  0.73438658  0.14120301  0.24285792  1
  O  O108  1  0.31768265  0.48896026  0.92191760  1
  O  O109  1  0.82186948  0.50541041  0.92232221  1
  O  O110  1  0.42028233  0.34986422  0.92548886  1
  O  O111  1  0.91723609  0.34696493  0.92601842  1
  O  O112  1  0.24558725  0.13422999  0.91842752  1
  O  O113  1  0.74738155  0.13603111  0.92124604  1
  O  O114  1  0.31607494  0.13367851  0.42184714  1
  O  O115  1  0.81982538  0.14923948  0.42581742  1
  O  O116  1  0.25467242  0.34631424  0.42597852  1
  O  O117  1  0.75508685  0.35892455  0.42404730  1
  O  O118  1  0.43095404  0.49827398  0.42317700  1
  O  O119  1  0.92756189  0.49406323  0.42555554  1
  O  O120  1  0.17449269  0.50167619  0.08127881  1
  O  O121  1  0.67978965  0.51016164  0.08048123  1
  O  O122  1  0.06864573  0.66301177  0.07493139  1
  O  O123  1  0.56854767  0.66600313  0.07614419  1
  O  O124  1  0.25988585  0.87310300  0.08222305  1
  O  O125  1  0.75742321  0.87309192  0.07690037  1
  O  O126  1  0.17737787  0.86768464  0.57952657  1
  O  O127  1  0.67463373  0.86866101  0.57750000  1
  O  O128  1  0.25779233  0.65641070  0.57496235  1
  O  O129  1  0.76208789  0.65060685  0.58223946  1
  O  O130  1  0.06564141  0.48372280  0.58098732  1
  O  O131  1  0.57836691  0.49729584  0.58207502  1
  O  O132  1  0.14827900  0.81129499  0.25646738  1
  O  O133  1  0.64707219  0.82615668  0.25251421  1
  O  O134  1  0.25961338  0.69951720  0.25599442  1
  O  O135  1  0.75656816  0.68972867  0.25750393  1
  O  O136  1  0.08170746  0.45947912  0.25145789  1
  O  O137  1  0.58364645  0.47061130  0.25218645  1
  O  O138  1  0.15408028  0.48386294  0.75547343  1
  O  O139  1  0.64957640  0.47850474  0.75694523  1
  O  O140  1  0.09477142  0.70703444  0.75749589  1
  O  O141  1  0.59062665  0.70869491  0.75573635  1
  O  O142  1  0.26954569  0.83330133  0.75547886  1
  O  O143  1  0.75956512  0.81791367  0.75911106  1
loop_
_geom_bond_atom_site_label_1
_geom_bond_atom_site_label_2
_geom_bond_distance
_geom_bond_site_symmetry_2
Na0 O106 2.324678 1_555
Na0 O134 2.398749 1_545
Na0 O104 2.441456 1_555
Na0 O32 2.479770 1_555
Na0 O132 2.642701 1_545
Na0 O62 2.809445 1_545
Na0 O18 2.889347 1_545
Na0 O4 2.989854 1_555
Na1 O102 2.287466 1_555
Na1 O34 2.324274 1_555
Na1 O106 2.467703 1_555
Na1 O136 2.513882 1_555
Na1 O134 2.591954 1_555
Na1 O64 2.798684 1_555
Na2 O35 2.273711 1_555
Na2 O103 2.440044 1_555
Na2 O137 2.485754 1_555
Na2 O107 2.524315 1_555
Na2 O135 2.530694 1_555
Na3 O132 2.353174 1_655
Na3 O103 2.372177 1_555
Na3 O105 2.461185 1_555
Na3 O31 2.571213 1_555
Na3 O136 2.631509 1_655
Na3 O60 2.699927 1_655
Na3 O22 2.884234 1_655
Na3 O3 3.003146 1_555
Na4 O100 2.353553 1_555
Na4 O98 2.410020 1_555
Na4 O142 2.437820 1_555
Na4 O138 2.514695 1_555
Na4 O28 2.573794 1_555
Na4 O70 2.750993 1_555
Na5 O99 2.393031 1_555
Na5 O101 2.407980 1_555
Na5 O143 2.434851 1_555
Na5 O139 2.604798 1_555
Na5 O29 2.651369 1_555
Na5 O71 2.744806 1_555
Na5 O13 2.875325 1_555
Na5 O9 2.994987 1_555
Na6 O101 2.371890 1_555
Na6 O97 2.382116 1_555
Na6 O138 2.514996 1_655
Na6 O25 2.586179 1_555
Na6 O66 2.658567 1_655
Na6 O140 2.669208 1_655
Na6 O14 2.860740 1_655
Na6 O11 2.901631 1_555
Na7 O24 2.236134 1_555
Na7 O100 2.365514 1_555
Na7 O96 2.430514 1_555
Na7 O139 2.489461 1_555
Na7 O141 2.649480 1_555
Na7 O67 2.847327 1_555
Na7 O15 2.897366 1_555
Na8 O98 2.352776 1_555
Na8 O140 2.365013 1_545
Na8 O96 2.410520 1_555
Na8 O26 2.574292 1_555
Na8 O142 2.638443 1_545
Na8 O68 2.730519 1_545
Na8 O16 2.838951 1_545
Na8 O6 2.950933 1_555
Na9 O97 2.376040 1_555
Na9 O99 2.379735 1_555
Na9 O141 2.391355 1_545
Na9 O143 2.608986 1_545
Na9 O27 2.623441 1_555
Na9 O69 2.680669 1_545
Na9 O7 2.887722 1_555
Na10 O57 2.238831 1_555
Na10 O131 2.283947 1_555
Na10 O129 2.448033 1_555
Na10 O87 2.449397 1_555
Na10 O84 2.550878 1_555
Na10 O15 2.800985 1_555
Na10 O43 2.939007 1_555
Na11 O120 2.332570 1_555
Na11 O48 2.343648 1_554
Na11 O90 2.450625 1_555
Na11 O124 2.453829 1_555
Na11 O92 2.646687 1_565
Na11 O38 2.867148 1_555
Na11 O18 2.893695 1_555
Na11 O34 2.932357 1_555
Na12 O121 2.293404 1_555
Na12 O91 2.394872 1_555
Na12 O125 2.488147 1_555
Na12 O19 2.584060 1_555
Na12 O93 2.590164 1_565
Na12 O49 2.661761 1_554
Na12 O35 2.844952 1_555
Na12 O39 2.957174 1_555
Na13 O108 2.428571 1_555
Na13 O78 2.448309 1_555
Na13 O50 2.530616 1_555
Na13 O80 2.535622 1_545
Na13 O36 2.635974 1_556
Na13 O112 2.668998 1_555
Na13 O6 2.756317 1_555
Na13 O70 2.854370 1_555
Na14 O76 2.396612 1_655
Na14 O75 2.436567 1_545
Na14 O119 2.517435 1_555
Na14 O56 2.532471 1_655
Na14 O47 2.697112 1_555
Na14 O5 2.703869 1_555
Na14 O115 2.722493 1_555
Na14 O60 2.849023 1_655
Na15 O114 2.371140 1_555
Na15 O76 2.431801 1_555
Na15 O116 2.467028 1_555
Na15 O72 2.552897 1_545
Na15 O58 2.573896 1_545
Na15 O42 2.663847 1_555
Na15 O0 2.771335 1_555
Na15 O62 2.908717 1_545
Na16 O77 2.276573 1_555
Na16 O73 2.417505 1_545
Na16 O115 2.499474 1_555
Na16 O1 2.552692 1_555
Na16 O117 2.635466 1_555
Na16 O63 2.790381 1_545
Na16 O43 2.846771 1_555
Na16 O59 2.857898 1_545
Na17 O117 2.442766 1_555
Na17 O72 2.472361 1_655
Na17 O75 2.509926 1_555
Na17 O55 2.622339 1_555
Na17 O119 2.681192 1_555
Na17 O45 2.688937 1_555
Na17 O3 2.799174 1_555
Na17 O65 2.849574 1_555
Na18 O85 2.413375 1_455
Na18 O86 2.429119 1_555
Na18 O89 2.451798 1_445
Na18 O76 2.638464 1_555
Na18 O72 2.663534 1_545
Na18 O75 2.679427 1_445
Na19 O74 2.401218 1_555
Na19 O84 2.477732 1_565
Na19 O77 2.515229 1_565
Na19 O88 2.531547 1_555
Na19 O73 2.648604 1_555
Na19 O87 2.745354 1_565
Na20 O78 2.411831 1_555
Na20 O94 2.477398 1_556
Na20 O93 2.483892 1_456
Na20 O80 2.571162 1_545
Na20 O91 2.610908 1_446
Na20 O83 2.654553 1_445
Na21 O79 2.476298 1_555
Na21 O92 2.541128 1_556
Na21 O95 2.549517 1_556
Na21 O81 2.564382 1_545
Na21 O82 2.612792 1_545
Na21 O90 2.735413 1_546
Na22 O100 2.364104 1_555
Na22 O110 2.473674 1_555
Na22 O108 2.487154 1_555
Na22 O98 2.607759 1_555
Na22 O112 2.609371 1_555
Na22 O96 2.643401 1_555
Na23 O101 2.460222 1_555
Na23 O97 2.493801 1_555
Na23 O99 2.525507 1_555
Na23 O111 2.532308 1_555
Na23 O113 2.602771 1_555
Na23 O109 2.605178 1_555
Na24 O102 2.249767 1_555
Na24 O106 2.534819 1_555
Na24 O118 2.541413 1_555
Na24 O116 2.613343 1_555
Na24 O104 2.645050 1_555
Na24 O114 2.801780 1_555
Na25 O103 2.331913 1_555
Na25 O105 2.485051 1_555
Na25 O107 2.519428 1_555
Na25 O117 2.659614 1_555
Na25 O115 2.660016 1_555
Na25 O119 2.748818 1_555
Na26 O120 2.271404 1_555
Na26 O124 2.452062 1_555
Na26 O122 2.520256 1_555
Na26 O136 2.654816 1_555
Na26 O132 2.665273 1_555
Na26 O134 2.697245 1_555
Na27 O121 2.385504 1_555
Na27 O123 2.471860 1_555
Na27 O125 2.556169 1_555
Na27 O133 2.572642 1_555
Na27 O137 2.589576 1_555
Na27 O135 2.731767 1_555
Na28 O130 2.409359 1_555
Na28 O126 2.439601 1_555
Na28 O128 2.511324 1_555
Na28 O140 2.635496 1_555
Na28 O138 2.645038 1_555
Na28 O142 2.786974 1_555
Na29 O131 2.281923 1_555
Na29 O127 2.432237 1_555
Na29 O129 2.522321 1_555
Na29 O141 2.607438 1_555
Na29 O139 2.730902 1_555
Na29 O143 2.754127 1_555
O0 Si0 1.639410 1_545
O0 Ti0 1.868377 1_545
O1 S0 1.480029 1_545
O1 Zn0 2.143055 1_555
O2 Si1 1.578378 1_555
O2 Zn0 1.866751 1_565
O3 Si2 1.639133 1_555
O3 Ti0 1.887211 1_655
O4 S2 1.461319 1_555
O4 Zn0 2.092531 1_555
O5 S1 1.477813 1_555
O5 Ti0 2.178851 1_645
O6 Si3 1.637379 1_555
O6 Ti1 1.887588 1_455
O7 Si4 1.606195 1_555
O7 Ti2 1.901620 1_545
O8 Si6 1.612201 1_555
O8 Ti2 1.882644 1_555
O9 Si5 1.625069 1_655
O9 Ti1 1.873046 1_565
O10 S3 1.471079 1_545
O10 Ti2 2.127308 1_545
O11 Si7 1.640603 1_545
O11 Ti1 1.809606 1_555
O12 S3 1.498270 1_555
O12 Ti4 2.066510 1_565
O13 Si7 1.666049 1_555
O13 Ti3 1.840578 1_665
O14 Si3 1.662271 1_555
O14 Ti3 1.842086 1_555
O15 Si4 1.677994 1_555
O15 Ti4 1.845828 1_555
O16 Si5 1.675352 1_555
O16 Ti3 1.828647 1_565
O17 Si6 1.662000 1_555
O17 Ti4 1.883971 1_565
O18 Si1 1.698635 1_555
O18 Ti6 1.861631 1_565
O19 Si2 1.643678 1_555
O19 Ti5 1.952289 1_655
O20 S1 1.485266 1_455
O20 Ti5 2.091036 1_545
O21 S2 1.523589 1_555
O21 Ti6 2.038013 1_555
O22 Si0 1.686418 1_555
O22 Ti5 1.799905 1_555
O23 S0 1.499494 1_555
O23 Ti6 2.107885 1_565
O24 Si8 1.603991 1_555
O24 Zn1 1.924557 1_555
O25 S4 1.478760 1_555
O25 Zn2 2.087225 1_555
O26 S5 1.475551 1_555
O26 Zn1 2.188580 1_555
O27 S6 1.475784 1_555
O27 Zn2 2.190156 1_555
O28 S7 1.482937 1_555
O28 Zn1 2.068942 1_555
O29 S8 1.483179 1_555
O29 Zn2 2.102356 1_555
O30 S9 1.458649 1_555
O30 Zn3 2.105482 1_555
O31 S10 1.486132 1_555
O31 Zn4 2.092347 1_555
O32 S11 1.474965 1_555
O32 Zn3 2.170780 1_555
O33 S12 1.462856 1_555
O33 Zn4 2.075861 1_555
O34 Si9 1.606514 1_555
O34 Zn3 1.920994 1_555
O35 Si10 1.618308 1_555
O35 Zn4 1.913562 1_555
O36 Si9 1.694542 1_555
O36 Ti7 1.909850 1_554
O37 Si10 1.700245 1_555
O37 Ti8 1.833299 1_554
O38 S9 1.507404 1_555
O38 Ti7 2.088503 1_554
O39 S10 1.491059 1_555
O39 Ti8 2.129453 1_554
O40 S11 1.475138 1_555
O40 Ti7 2.207101 1_554
O41 S12 1.519273 1_555
O41 Ti8 1.967230 1_554
O42 S5 1.523668 1_555
O42 Ti9 2.045527 1_555
O43 S6 1.510918 1_555
O43 Ti10 2.121450 1_555
O44 S7 1.518664 1_555
O44 Ti9 1.981499 1_555
O45 S8 1.518117 1_555
O45 Ti10 2.103116 1_555
O46 Si8 1.703706 1_555
O46 Ti9 1.806400 1_555
O47 S4 1.509350 1_555
O47 Ti10 2.149252 1_555
O48 Si11 1.590151 1_555
O48 Zn5 1.952573 1_556
O49 S13 1.470732 1_555
O49 Zn6 2.162252 1_556
O50 Si12 1.583574 1_555
O50 Zn5 1.904437 1_556
O51 Si13 1.572257 1_555
O51 Zn6 1.862644 1_556
O52 S14 1.445600 1_555
O52 Zn5 2.229002 1_556
O53 S15 1.448792 1_555
O53 Zn6 2.187401 1_556
O54 S16 1.459488 1_555
O54 Zn7 2.115157 1_555
O55 Si14 1.586360 1_555
O55 Zn8 1.980685 1_555
O56 Si15 1.595364 1_555
O56 Zn7 1.911797 1_555
O57 Si16 1.583632 1_555
O57 Zn8 1.956451 1_555
O58 Si17 1.588296 1_555
O58 Zn7 1.936537 1_555
O59 S17 1.470718 1_555
O59 Zn8 2.045412 1_555
O60 Si17 1.646987 1_555
O60 Ti11 1.980237 1_555
O61 S17 1.495614 1_555
O61 Ti12 2.167944 1_555
O62 S16 1.531929 1_555
O62 Ti11 2.071038 1_555
O63 Si14 1.688732 1_555
O63 Ti12 1.823813 1_555
O64 Si15 1.685061 1_555
O64 Ti11 1.845240 1_555
O65 Si16 1.689315 1_555
O65 Ti12 1.864456 1_555
O66 Si12 1.710853 1_555
O66 Ti13 1.804345 1_555
O67 Si13 1.696314 1_555
O67 Ti14 1.829839 1_555
O68 S14 1.507110 1_555
O68 Ti13 2.158130 1_555
O69 S15 1.497178 1_555
O69 Ti14 2.182879 1_555
O70 Si11 1.685250 1_555
O70 Ti13 1.896670 1_555
O71 S13 1.495194 1_555
O71 Ti14 2.265112 1_555
O72 Si17 1.651911 1_555
O72 Ti0 1.883111 1_555
O73 S17 1.473756 1_555
O73 Zn0 2.247272 1_565
O74 S16 1.456831 1_555
O74 Zn0 2.185172 1_565
O75 Si14 1.630994 1_555
O75 Ti0 2.008706 1_655
O76 Si15 1.662622 1_555
O76 Ti0 1.968207 1_545
O77 Si16 1.607564 1_555
O77 Zn0 1.978368 1_555
O78 Si12 1.654839 1_555
O78 Ti1 1.927512 1_455
O79 Si13 1.639308 1_555
O79 Ti2 1.881413 1_545
O80 S14 1.503773 1_555
O80 Ti1 2.258766 1_465
O81 S15 1.495723 1_555
O81 Ti2 2.086385 1_555
O82 Si11 1.621071 1_555
O82 Ti2 1.880527 1_555
O83 S13 1.489347 1_555
O83 Ti1 2.153196 1_565
O84 Si8 1.696651 1_555
O84 Ti4 1.923681 1_555
O85 S4 1.502524 1_555
O85 Ti3 2.259376 1_655
O86 S5 1.506630 1_555
O86 Ti3 2.221575 1_555
O87 S6 1.526864 1_555
O87 Ti4 2.104493 1_555
O88 S7 1.488419 1_555
O88 Ti4 2.268314 1_565
O89 S8 1.491146 1_555
O89 Ti3 2.244049 1_665
O90 S9 1.534569 1_555
O90 Ti6 2.099338 1_565
O91 S10 1.533947 1_555
O91 Ti5 2.100683 1_655
O92 S11 1.556161 1_555
O92 Ti6 2.037860 1_555
O93 S12 1.501005 1_555
O93 Ti5 2.335425 1_645
O94 Si9 1.686317 1_555
O94 Ti5 1.866882 1_545
O95 Si10 1.668273 1_555
O95 Ti6 1.893529 1_555
O96 S3 1.476799 1_545
O96 Zn1 2.374137 1_555
O97 Si7 1.606794 1_545
O97 Zn2 2.032492 1_555
O98 Si3 1.613285 1_555
O98 Zn1 2.078981 1_555
O99 Si4 1.608446 1_555
O99 Zn2 2.044710 1_555
O100 Si6 1.614197 1_555
O100 Zn1 2.109620 1_555
O101 Si5 1.610604 1_655
O101 Zn2 2.060215 1_555
O102 Si1 1.601827 1_555
O102 Zn3 2.023298 1_555
O103 Si2 1.639911 1_555
O103 Zn4 2.182706 1_555
O104 S2 1.467561 1_555
O104 Zn3 2.242367 1_555
O105 S1 1.475503 1_555
O105 Zn4 2.317367 1_555
O106 Si0 1.604431 1_545
O106 Zn3 2.145281 1_555
O107 S0 1.488139 1_545
O107 Zn4 2.219553 1_555
O108 Si11 1.692522 1_555
O108 Ti7 1.882392 1_555
O109 S13 1.513221 1_555
O109 Ti8 2.128640 1_555
O110 Si13 1.662230 1_555
O110 Ti7 1.904564 1_555
O111 Si12 1.637426 1_655
O111 Ti8 1.937448 1_555
O112 S14 1.520305 1_545
O112 Ti7 2.164115 1_555
O113 S15 1.519248 1_545
O113 Ti8 2.048227 1_555
O114 S16 1.520269 1_545
O114 Ti9 2.172612 1_555
O115 Si14 1.666096 1_545
O115 Ti10 1.893564 1_555
O116 Si15 1.647234 1_555
O116 Ti9 2.004406 1_555
O117 Si16 1.726761 1_555
O117 Ti10 1.872259 1_555
O118 S17 1.513755 1_555
O118 Ti9 2.059148 1_555
O119 Si17 1.674919 1_655
O119 Ti10 1.873186 1_555
O120 Si9 1.621522 1_555
O120 Zn5 2.008474 1_555
O121 Si10 1.621765 1_555
O121 Zn6 1.981975 1_555
O122 S10 1.458207 1_455
O122 Zn5 2.323075 1_555
O123 S9 1.465840 1_555
O123 Zn6 2.190410 1_555
O124 S11 1.469688 1_565
O124 Zn5 2.486665 1_555
O125 S12 1.476507 1_565
O125 Zn6 2.413628 1_555
O126 S5 1.470020 1_565
O126 Zn7 2.346317 1_555
O127 S6 1.452991 1_565
O127 Zn8 2.324685 1_555
O128 S7 1.472710 1_555
O128 Zn7 2.264459 1_555
O129 S8 1.470698 1_555
O129 Zn8 2.352571 1_555
O130 S4 1.478569 1_455
O130 Zn7 2.207760 1_555
O131 Si8 1.620276 1_555
O131 Zn8 2.067386 1_555
O132 Si0 1.637244 1_555
O132 Ti11 2.049981 1_555
O133 S0 1.493151 1_555
O133 Ti12 2.213177 1_555
O134 Si1 1.718271 1_555
O134 Ti11 1.917565 1_555
O135 Si2 1.676779 1_555
O135 Ti12 1.872057 1_555
O136 S1 1.515211 1_455
O136 Ti11 2.233095 1_555
O137 S2 1.498290 1_555
O137 Ti12 2.272420 1_555
O138 Si3 1.661047 1_555
O138 Ti13 1.946756 1_555
O139 Si4 1.659551 1_555
O139 Ti14 1.905599 1_555
O140 Si5 1.653254 1_555
O140 Ti13 2.005064 1_555
O141 Si6 1.673222 1_555
O141 Ti14 1.901181 1_555
O142 S3 1.493429 1_555
O142 Ti13 2.334059 1_555
O143 Si7 1.631135 1_555
O143 Ti14 2.019836 1_555
