# generated using pymatgen
data_Na2NbSi2GePO12
_symmetry_space_group_name_H-M   'P 1'
_cell_length_a   8.78404479
_cell_length_b   8.78404451
_cell_length_c   22.24251730
_cell_angle_alpha   89.47162825
_cell_angle_beta   90.52837180
_cell_angle_gamma   120.06996912
_symmetry_Int_Tables_number   1
_chemical_formula_structural   Na2NbSi2GePO12
_chemical_formula_sum   'Na12 Nb6 Si12 Ge6 P6 O72'
_cell_volume   1485.15711212
_cell_formula_units_Z   6
loop_
 _symmetry_equiv_pos_site_id
 _symmetry_equiv_pos_as_xyz
  1  'x, y, z'
loop_
 _atom_site_type_symbol
 _atom_site_label
 _atom_site_symmetry_multiplicity
 _atom_site_fract_x
 _atom_site_fract_y
 _atom_site_fract_z
 _atom_site_occupancy
  Na  Na0  1  0.99603188  0.63061209  0.24982521  1
  Na  Na1  1  0.36938791  0.00396812  0.74982521  1
  Na  Na2  1  0.66269888  0.96394509  0.58315821  1
  Na  Na3  1  0.03605491  0.33730112  0.08315821  1
  Na  Na4  1  0.32936488  0.29727909  0.91649221  1
  Na  Na5  1  0.70272091  0.67063512  0.41649221  1
  Na  Na6  1  0.01530821  0.00574936  0.49677478  1
  Na  Na7  1  0.99425064  0.98469179  0.99677478  1
  Na  Na8  1  0.68197521  0.33908236  0.83010778  1
  Na  Na9  1  0.66091764  0.31802479  0.33010778  1
  Na  Na10  1  0.34864121  0.67241636  0.16344178  1
  Na  Na11  1  0.32758364  0.65135879  0.66344178  1
  Nb  Nb0  1  0.00068216  0.99981239  0.64432426  1
  Nb  Nb1  1  0.00018761  0.99931784  0.14432426  1
  Nb  Nb2  1  0.66734916  0.33314539  0.97765726  1
  Nb  Nb3  1  0.66685461  0.33265084  0.47765726  1
  Nb  Nb4  1  0.33401516  0.66647939  0.31099126  1
  Nb  Nb5  1  0.33352061  0.66598484  0.81099126  1
  Si  Si0  1  0.71106471  0.70701212  0.25092814  1
  Si  Si1  1  0.98814372  0.27829591  0.25054175  1
  Si  Si2  1  0.29298788  0.28893529  0.75092814  1
  Si  Si3  1  0.72170409  0.01185628  0.75054175  1
  Si  Si4  1  0.37773171  0.04034512  0.58426114  1
  Si  Si5  1  0.65481072  0.61162891  0.58387475  1
  Si  Si6  1  0.95965488  0.62226829  0.08426114  1
  Si  Si7  1  0.38837109  0.34518928  0.08387475  1
  Si  Si8  1  0.04439771  0.37367912  0.91759514  1
  Si  Si9  1  0.32147672  0.94496291  0.91720875  1
  Si  Si10  1  0.62632088  0.95560229  0.41759514  1
  Si  Si11  1  0.05503709  0.67852328  0.41720875  1
  Ge  Ge0  1  0.99371883  0.99715369  0.35343428  1
  Ge  Ge1  1  0.00284631  0.00628117  0.85343428  1
  Ge  Ge2  1  0.66038583  0.33048669  0.68676728  1
  Ge  Ge3  1  0.66951331  0.33961417  0.18676728  1
  Ge  Ge4  1  0.32705183  0.66382069  0.02010128  1
  Ge  Ge5  1  0.33617931  0.67294817  0.52010128  1
  P  P0  1  0.29354113  0.01266210  0.25169946  1
  P  P1  1  0.98733790  0.70645887  0.75169946  1
  P  P2  1  0.96020813  0.34599510  0.58503246  1
  P  P3  1  0.65400490  0.03979187  0.08503246  1
  P  P4  1  0.62687413  0.67932910  0.91836646  1
  P  P5  1  0.32067090  0.37312587  0.41836646  1
  O  O0  1  0.20659336  0.03647808  0.30771243  1
  O  O1  1  0.83662594  0.79109477  0.31068971  1
  O  O2  1  0.96533866  0.15771957  0.30915850  1
  O  O3  1  0.20890523  0.16337406  0.81068971  1
  O  O4  1  0.96352192  0.79340664  0.80771243  1
  O  O5  1  0.84228043  0.03466134  0.80915850  1
  O  O6  1  0.79829062  0.97140640  0.68966765  1
  O  O7  1  0.16650994  0.19300433  0.69282681  1
  O  O8  1  0.02782811  0.82730784  0.69528373  1
  O  O9  1  0.80699567  0.83349006  0.19282681  1
  O  O10  1  0.02859360  0.20170938  0.18966765  1
  O  O11  1  0.17269216  0.97217189  0.19528373  1
  O  O12  1  0.87326036  0.36981108  0.64104543  1
  O  O13  1  0.50329294  0.12442777  0.64402271  1
  O  O14  1  0.63200566  0.49105257  0.64249150  1
  O  O15  1  0.87557223  0.49670706  0.14402271  1
  O  O16  1  0.63018892  0.12673964  0.14104543  1
  O  O17  1  0.50894743  0.36799434  0.14249150  1
  O  O18  1  0.46495762  0.30473940  0.02300065  1
  O  O19  1  0.83317694  0.52633733  0.02615981  1
  O  O20  1  0.69449511  0.16064084  0.02861673  1
  O  O21  1  0.47366267  0.16682306  0.52615981  1
  O  O22  1  0.69526060  0.53504238  0.52300065  1
  O  O23  1  0.83935916  0.30550489  0.52861673  1
  O  O24  1  0.53992636  0.70314508  0.97437943  1
  O  O25  1  0.16995894  0.45776177  0.97735671  1
  O  O26  1  0.29867166  0.82438657  0.97582550  1
  O  O27  1  0.54223823  0.83004106  0.47735671  1
  O  O28  1  0.29685492  0.46007364  0.47437943  1
  O  O29  1  0.17561343  0.70132834  0.47582550  1
  O  O30  1  0.13162362  0.63807340  0.35633465  1
  O  O31  1  0.49984294  0.85967133  0.35949381  1
  O  O32  1  0.36116111  0.49397484  0.36195073  1
  O  O33  1  0.14032867  0.50015706  0.85949381  1
  O  O34  1  0.36192660  0.86837638  0.85633465  1
  O  O35  1  0.50602516  0.63883889  0.86195073  1
  O  O36  1  0.02942781  0.85042388  0.40952882  1
  O  O37  1  0.81779565  0.96911217  0.41001855  1
  O  O38  1  0.16190915  0.18946923  0.40991516  1
  O  O39  1  0.03088783  0.18220435  0.91001855  1
  O  O40  1  0.14957612  0.97057219  0.90952882  1
  O  O41  1  0.81053077  0.83809085  0.90991516  1
  O  O42  1  0.97003042  0.17283738  0.58914496  1
  O  O43  1  0.18468522  0.02213243  0.58873242  1
  O  O44  1  0.82667890  0.81262069  0.58979337  1
  O  O45  1  0.97786757  0.81531478  0.08873242  1
  O  O46  1  0.82716262  0.02996958  0.08914496  1
  O  O47  1  0.18737931  0.17332110  0.08979337  1
  O  O48  1  0.69609481  0.18375688  0.74286182  1
  O  O49  1  0.48446265  0.30244517  0.74335155  1
  O  O50  1  0.82857615  0.52280223  0.74324816  1
  O  O51  1  0.69755483  0.51553735  0.24335155  1
  O  O52  1  0.81624312  0.30390519  0.24286182  1
  O  O53  1  0.47719777  0.17142385  0.24324816  1
  O  O54  1  0.63669742  0.50617038  0.92247796  1
  O  O55  1  0.85135222  0.35546543  0.92206542  1
  O  O56  1  0.49334590  0.14595369  0.92312637  1
  O  O57  1  0.64453457  0.14864778  0.42206542  1
  O  O58  1  0.49382962  0.36330258  0.42247796  1
  O  O59  1  0.85404631  0.50665410  0.42312637  1
  O  O60  1  0.36276081  0.51709088  0.07619582  1
  O  O61  1  0.15112865  0.63577917  0.07668555  1
  O  O62  1  0.49524215  0.85613623  0.07658216  1
  O  O63  1  0.36422083  0.84887135  0.57668555  1
  O  O64  1  0.48290912  0.63723919  0.57619582  1
  O  O65  1  0.14386377  0.50475785  0.57658216  1
  O  O66  1  0.30336342  0.83950438  0.25581196  1
  O  O67  1  0.51801822  0.68879943  0.25539942  1
  O  O68  1  0.16001190  0.47928769  0.25646037  1
  O  O69  1  0.31120057  0.48198178  0.75539942  1
  O  O70  1  0.16049562  0.69663658  0.75581196  1
  O  O71  1  0.52071231  0.83998810  0.75646037  1
loop_
_geom_bond_atom_site_label_1
_geom_bond_atom_site_label_2
_geom_bond_distance
_geom_bond_site_symmetry_2
Na0 O51 2.292690 1_555
Na0 O66 2.388808 1_655
Na0 O68 2.403038 1_655
Na0 O52 2.493147 1_555
Na0 O15 2.607513 1_555
Na0 O30 2.628273 1_655
Na0 O1 2.797998 1_555
Na0 O11 2.860659 1_655
Na1 O49 2.292690 1_555
Na1 O70 2.388808 1_545
Na1 O71 2.403038 1_545
Na1 O48 2.493147 1_555
Na1 O13 2.607513 1_555
Na1 O34 2.628273 1_545
Na1 O3 2.797998 1_555
Na1 O8 2.860659 1_545
Na2 O63 2.292698 1_555
Na2 O42 2.388808 1_565
Na2 O44 2.403038 1_555
Na2 O64 2.493139 1_555
Na2 O27 2.607492 1_555
Na2 O6 2.628273 1_555
Na2 O13 2.797998 1_565
Na2 O23 2.860659 1_565
Na3 O61 2.292698 1_555
Na3 O46 2.388808 1_455
Na3 O47 2.403038 1_555
Na3 O60 2.493139 1_555
Na3 O25 2.607492 1_554
Na3 O10 2.628273 1_555
Na3 O15 2.797998 1_455
Na3 O20 2.860659 1_455
Na4 O39 2.292690 1_555
Na4 O54 2.388812 1_555
Na4 O56 2.403052 1_555
Na4 O40 2.493147 1_545
Na4 O3 2.607513 1_555
Na4 O18 2.628259 1_556
Na4 O25 2.797998 1_555
Na4 O35 2.860659 1_555
Na5 O37 2.292690 1_555
Na5 O58 2.388812 1_555
Na5 O59 2.403052 1_555
Na5 O36 2.493147 1_655
Na5 O1 2.607513 1_555
Na5 O22 2.628259 1_555
Na5 O27 2.797998 1_555
Na5 O32 2.860659 1_555
Na6 O36 2.421899 1_545
Na6 O38 2.429199 1_555
Na6 O43 2.480439 1_555
Na6 O37 2.495493 1_445
Na6 O44 2.661886 1_445
Na6 O42 2.681263 1_455
Na7 O40 2.421899 1_655
Na7 O41 2.429199 1_555
Na7 O45 2.480439 1_556
Na7 O39 2.495493 1_665
Na7 O47 2.661886 1_666
Na7 O46 2.681263 1_566
Na8 O48 2.421899 1_555
Na8 O50 2.429199 1_555
Na8 O55 2.480439 1_555
Na8 O49 2.495493 1_555
Na8 O56 2.661886 1_555
Na8 O54 2.681263 1_555
Na9 O52 2.421899 1_555
Na9 O53 2.429199 1_555
Na9 O57 2.480439 1_555
Na9 O51 2.495493 1_555
Na9 O59 2.661886 1_555
Na9 O58 2.681263 1_555
Na10 O60 2.421899 1_555
Na10 O62 2.429199 1_555
Na10 O67 2.480439 1_555
Na10 O61 2.495493 1_555
Na10 O68 2.661886 1_555
Na10 O66 2.681263 1_555
Na11 O64 2.421899 1_555
Na11 O65 2.429199 1_555
Na11 O69 2.480439 1_555
Na11 O63 2.495493 1_555
Na11 O71 2.661886 1_555
Na11 O70 2.681263 1_555
Nb0 O7 1.921746 1_565
Nb0 O6 1.955494 1_455
Nb0 O43 1.973475 1_565
Nb0 O8 1.990760 1_555
Nb0 O44 1.998767 1_455
Nb0 O42 2.063584 1_465
Nb1 O9 1.921746 1_455
Nb1 O10 1.955494 1_565
Nb1 O45 1.973475 1_455
Nb1 O11 1.990760 1_555
Nb1 O47 1.998767 1_565
Nb1 O46 2.063584 1_465
Nb2 O19 1.921746 1_556
Nb2 O18 1.955494 1_556
Nb2 O55 1.973475 1_555
Nb2 O20 1.990760 1_556
Nb2 O56 1.998767 1_555
Nb2 O54 2.063584 1_555
Nb3 O21 1.921746 1_555
Nb3 O22 1.955494 1_555
Nb3 O57 1.973475 1_555
Nb3 O23 1.990760 1_555
Nb3 O59 1.998767 1_555
Nb3 O58 2.063584 1_555
Nb4 O31 1.921746 1_555
Nb4 O30 1.955494 1_555
Nb4 O67 1.973475 1_555
Nb4 O32 1.990760 1_555
Nb4 O68 1.998767 1_555
Nb4 O66 2.063584 1_555
Nb5 O33 1.921746 1_555
Nb5 O34 1.955494 1_555
Nb5 O69 1.973475 1_555
Nb5 O35 1.990760 1_555
Nb5 O71 1.998767 1_555
Nb5 O70 2.063584 1_555
Ge0 O2 1.828516 1_565
Ge0 O1 1.894430 1_555
Ge0 O37 1.918698 1_555
Ge0 O36 1.919525 1_655
Ge0 O0 2.007831 1_665
Ge0 O38 2.029419 1_665
Ge1 O5 1.828516 1_455
Ge1 O3 1.894430 1_555
Ge1 O39 1.918698 1_555
Ge1 O40 1.919526 1_545
Ge1 O4 2.007830 1_445
Ge1 O41 2.029419 1_445
Ge2 O14 1.828516 1_555
Ge2 O13 1.894430 1_555
Ge2 O49 1.918698 1_555
Ge2 O48 1.919525 1_555
Ge2 O12 2.007831 1_555
Ge2 O50 2.029419 1_555
Ge3 O17 1.828516 1_555
Ge3 O15 1.894430 1_555
Ge3 O51 1.918698 1_555
Ge3 O52 1.919526 1_555
Ge3 O16 2.007830 1_555
Ge3 O53 2.029419 1_555
Ge4 O26 1.828516 1_554
Ge4 O25 1.894430 1_554
Ge4 O61 1.918698 1_555
Ge4 O60 1.919525 1_555
Ge4 O24 2.007831 1_554
Ge4 O62 2.029419 1_555
Ge5 O29 1.828516 1_555
Ge5 O27 1.894430 1_555
Ge5 O63 1.918698 1_555
Ge5 O64 1.919526 1_555
Ge5 O28 2.007830 1_555
Ge5 O65 2.029419 1_555
O0 P0 1.536797 1_555
O1 Si0 1.644265 1_555
O2 Si1 1.621267 1_555
O3 Si2 1.644265 1_555
O4 P1 1.536797 1_555
O5 Si3 1.621267 1_555
O6 Si3 1.636257 1_565
O7 Si2 1.633983 1_555
O8 P1 1.559896 1_455
O9 Si0 1.633983 1_555
O10 Si1 1.636257 1_455
O11 P0 1.559896 1_565
O12 P2 1.536797 1_555
O13 Si4 1.644265 1_555
O14 Si5 1.621267 1_555
O15 Si6 1.644265 1_555
O16 P3 1.536797 1_555
O17 Si7 1.621267 1_555
O18 Si7 1.636257 1_555
O19 Si6 1.633983 1_555
O20 P3 1.559896 1_555
O21 Si4 1.633983 1_555
O22 Si5 1.636257 1_555
O23 P2 1.559896 1_555
O24 P4 1.536797 1_555
O25 Si8 1.644265 1_555
O26 Si9 1.621267 1_555
O27 Si10 1.644265 1_555
O28 P5 1.536797 1_555
O29 Si11 1.621267 1_555
O30 Si11 1.636257 1_555
O31 Si10 1.633983 1_555
O32 P5 1.559896 1_555
O33 Si8 1.633983 1_555
O34 Si9 1.636257 1_555
O35 P4 1.559896 1_555
O36 Si11 1.641572 1_555
O37 Si10 1.635906 1_555
O38 P5 1.526088 1_555
O39 Si8 1.635906 1_555
O40 Si9 1.641572 1_555
O41 P4 1.526088 1_555
O42 P2 1.567842 1_555
O43 Si4 1.625405 1_555
O44 Si5 1.656250 1_555
O45 Si6 1.625405 1_555
O46 P3 1.567842 1_555
O47 Si7 1.656250 1_555
O48 Si3 1.641572 1_555
O49 Si2 1.635906 1_555
O50 P1 1.526088 1_555
O51 Si0 1.635906 1_555
O52 Si1 1.641572 1_555
O53 P0 1.526088 1_555
O54 P4 1.567854 1_555
O55 Si8 1.625391 1_655
O56 Si9 1.656246 1_545
O57 Si10 1.625391 1_545
O58 P5 1.567854 1_555
O59 Si11 1.656246 1_655
O60 Si7 1.641584 1_555
O61 Si6 1.635891 1_455
O62 P3 1.526083 1_565
O63 Si4 1.635891 1_565
O64 Si5 1.641584 1_555
O65 P2 1.526083 1_455
O66 P0 1.567842 1_565
O67 Si0 1.625405 1_555
O68 Si1 1.656250 1_455
O69 Si2 1.625405 1_555
O70 P1 1.567842 1_455
O71 Si3 1.656250 1_565
