# generated using pymatgen
data_Li2MnP2O7
_symmetry_space_group_name_H-M   'P 1'
_cell_length_a   13.87842400
_cell_length_b   5.13231700
_cell_length_c   8.03367352
_cell_angle_alpha   87.43682710
_cell_angle_beta   90.00000000
_cell_angle_gamma   90.00000000
_symmetry_Int_Tables_number   1
_chemical_formula_structural   Li2MnP2O7
_chemical_formula_sum   'Li8 Mn4 P8 O28'
_cell_volume   571.65378452
_cell_formula_units_Z   4
loop_
 _symmetry_equiv_pos_site_id
 _symmetry_equiv_pos_as_xyz
  1  'x, y, z'
loop_
 _atom_site_type_symbol
 _atom_site_label
 _atom_site_symmetry_multiplicity
 _atom_site_fract_x
 _atom_site_fract_y
 _atom_site_fract_z
 _atom_site_occupancy
  Li  Li0  1  0.09213500  0.18083000  0.86121200  1
  Li  Li1  1  0.69079600  0.74391900  0.83113200  1
  Li  Li2  1  0.19079600  0.75608100  0.66886800  1
  Li  Li3  1  0.59213500  0.31917000  0.63878800  1
  Li  Li4  1  0.40786500  0.68083000  0.36121200  1
  Li  Li5  1  0.80920400  0.24391900  0.33113200  1
  Li  Li6  1  0.30920400  0.25608100  0.16886800  1
  Li  Li7  1  0.90786500  0.81917000  0.13878800  1
  Mn  Mn0  1  0.83639000  0.21038200  0.77061100  1
  Mn  Mn1  1  0.33639000  0.28961800  0.72938900  1
  Mn  Mn2  1  0.66361000  0.71038200  0.27061100  1
  Mn  Mn3  1  0.16361000  0.78961800  0.22938900  1
  P  P0  1  0.67470900  0.23959700  0.03585900  1
  P  P1  1  0.02722200  0.29799100  0.22094800  1
  P  P2  1  0.52722200  0.20200900  0.27905200  1
  P  P3  1  0.17470900  0.26040300  0.46414100  1
  P  P4  1  0.32529100  0.76040300  0.96414100  1
  P  P5  1  0.97277800  0.70200900  0.77905200  1
  P  P6  1  0.47277800  0.79799100  0.72094800  1
  P  P7  1  0.82529100  0.73959700  0.53585900  1
  O  O0  1  0.70343700  0.52859000  0.04476700  1
  O  O1  1  0.56148700  0.22614400  0.08098100  1
  O  O2  1  0.10154200  0.14191500  0.12133200  1
  O  O3  1  0.72749200  0.06258800  0.16541200  1
  O  O4  1  0.29656300  0.47141000  0.95523300  1
  O  O5  1  0.43851300  0.77385600  0.91901900  1
  O  O6  1  0.89845800  0.85808500  0.87866800  1
  O  O7  1  0.27250800  0.93741200  0.83458800  1
  O  O8  1  0.68764300  0.14117900  0.85867200  1
  O  O9  1  0.96841500  0.40651600  0.82263800  1
  O  O10  1  0.07214400  0.82189900  0.78109500  1
  O  O11  1  0.57214400  0.67810100  0.71890500  1
  O  O12  1  0.46841500  0.09348400  0.67736200  1
  O  O13  1  0.77250800  0.56258800  0.66541200  1
  O  O14  1  0.18764300  0.35882100  0.64132800  1
  O  O15  1  0.39845800  0.64191500  0.62133200  1
  O  O16  1  0.93851300  0.72614400  0.58098100  1
  O  O17  1  0.79656300  0.02859000  0.54476700  1
  O  O18  1  0.20343700  0.97141000  0.45523300  1
  O  O19  1  0.06148700  0.27385600  0.41901900  1
  O  O20  1  0.60154200  0.35808500  0.37866800  1
  O  O21  1  0.81235700  0.64117900  0.35867200  1
  O  O22  1  0.22749200  0.43741200  0.33458800  1
  O  O23  1  0.53158500  0.90651600  0.32263800  1
  O  O24  1  0.42785600  0.32189900  0.28109500  1
  O  O25  1  0.92785600  0.17810100  0.21890500  1
  O  O26  1  0.03158500  0.59348400  0.17736200  1
  O  O27  1  0.31235700  0.85882100  0.14132800  1
loop_
_geom_bond_atom_site_label_1
_geom_bond_atom_site_label_2
_geom_bond_distance
_geom_bond_site_symmetry_2
Li0 O10 1.997698 1_545
Li0 O9 2.086574 1_455
Li0 O2 2.094405 1_556
Li0 O14 2.359566 1_555
Li1 O11 1.914641 1_555
Li1 O0 2.007002 1_556
Li1 O13 2.008837 1_555
Li1 O8 2.061111 1_565
Li2 O10 1.914641 1_555
Li2 O18 2.007002 1_555
Li2 O7 2.008837 1_555
Li2 O14 2.061111 1_555
Li3 O11 1.997698 1_555
Li3 O12 2.086574 1_555
Li3 O20 2.094405 1_555
Li3 O8 2.359566 1_555
Li4 O24 1.997698 1_555
Li4 O23 2.086574 1_555
Li4 O15 2.094405 1_555
Li4 O27 2.359566 1_555
Li5 O25 1.914641 1_555
Li5 O17 2.007002 1_555
Li5 O3 2.008837 1_555
Li5 O21 2.061111 1_555
Li6 O24 1.914641 1_555
Li6 O4 2.007002 1_554
Li6 O22 2.008837 1_555
Li6 O27 2.061111 1_545
Li7 O25 1.997698 1_565
Li7 O26 2.086574 1_655
Li7 O6 2.094405 1_554
Li7 O21 2.359566 1_555
Mn0 O9 2.140779 1_555
Mn0 O17 2.149263 1_555
Mn0 O6 2.150452 1_545
Mn0 O13 2.152017 1_555
Mn0 O8 2.205857 1_555
Mn1 O12 2.140779 1_555
Mn1 O4 2.149263 1_555
Mn1 O15 2.150452 1_555
Mn1 O7 2.152017 1_545
Mn1 O14 2.205857 1_555
Mn2 O23 2.140779 1_555
Mn2 O0 2.149263 1_555
Mn2 O20 2.150452 1_555
Mn2 O3 2.152017 1_565
Mn2 O21 2.205857 1_555
Mn3 O26 2.140779 1_555
Mn3 O18 2.149263 1_555
Mn3 O2 2.150452 1_565
Mn3 O22 2.152017 1_555
Mn3 O27 2.205857 1_555
O0 P0 1.540607 1_555
O1 P0 1.613397 1_555
O1 P2 1.660089 1_555
O2 P1 1.550264 1_555
O3 P0 1.536425 1_555
O4 P4 1.540607 1_555
O5 P4 1.613397 1_555
O5 P6 1.660089 1_555
O6 P5 1.550264 1_555
O7 P4 1.536425 1_555
O8 P0 1.542049 1_556
O9 P5 1.542318 1_555
O10 P5 1.510478 1_455
O11 P6 1.510478 1_555
O12 P6 1.542318 1_545
O13 P7 1.536425 1_555
O14 P3 1.542049 1_555
O15 P6 1.550264 1_555
O16 P7 1.613397 1_555
O16 P5 1.660089 1_555
O17 P7 1.540607 1_545
O18 P3 1.540607 1_565
O19 P3 1.613397 1_555
O19 P1 1.660089 1_555
O20 P2 1.550264 1_555
O21 P7 1.542049 1_555
O22 P3 1.536425 1_555
O23 P2 1.542318 1_565
O24 P2 1.510478 1_555
O25 P1 1.510478 1_655
O26 P1 1.542318 1_555
O27 P4 1.542049 1_554
