# generated using pymatgen
data_Y3(Co2Sn)4
_symmetry_space_group_name_H-M   'P 1'
_cell_length_a   8.92467365
_cell_length_b   8.92467365
_cell_length_c   7.44837200
_cell_angle_alpha   90.00000000
_cell_angle_beta   90.00000000
_cell_angle_gamma   119.99999740
_symmetry_Int_Tables_number   1
_chemical_formula_structural   Y3(Co2Sn)4
_chemical_formula_sum   'Y6 Co16 Sn8'
_cell_volume   513.77940349
_cell_formula_units_Z   2
loop_
 _symmetry_equiv_pos_site_id
 _symmetry_equiv_pos_as_xyz
  1  'x, y, z'
loop_
 _atom_site_type_symbol
 _atom_site_label
 _atom_site_symmetry_multiplicity
 _atom_site_fract_x
 _atom_site_fract_y
 _atom_site_fract_z
 _atom_site_occupancy
  Y  Y0  1  0.52874400  0.47125600  0.00038000  1
  Y  Y1  1  0.47125600  0.52874400  0.50038000  1
  Y  Y2  1  0.94251200  0.47125600  0.00038000  1
  Y  Y3  1  0.52874400  0.05748800  0.00038000  1
  Y  Y4  1  0.47125600  0.94251200  0.50038000  1
  Y  Y5  1  0.05748800  0.52874400  0.50038000  1
  Co  Co0  1  0.09743200  0.19486300  0.47602000  1
  Co  Co1  1  0.00000000  0.00000000  0.22149600  1
  Co  Co2  1  0.00000000  0.00000000  0.72149600  1
  Co  Co3  1  0.66666700  0.33333300  0.29524400  1
  Co  Co4  1  0.33333300  0.66666700  0.79524400  1
  Co  Co5  1  0.90256800  0.09743200  0.97602000  1
  Co  Co6  1  0.15880700  0.84119300  0.16928500  1
  Co  Co7  1  0.31761500  0.15880700  0.66928500  1
  Co  Co8  1  0.84119300  0.68238500  0.66928500  1
  Co  Co9  1  0.15880700  0.31761500  0.16928500  1
  Co  Co10  1  0.68238500  0.84119300  0.16928500  1
  Co  Co11  1  0.84119300  0.15880700  0.66928500  1
  Co  Co12  1  0.09743200  0.90256800  0.47602000  1
  Co  Co13  1  0.19486300  0.09743200  0.97602000  1
  Co  Co14  1  0.90256800  0.80513700  0.97602000  1
  Co  Co15  1  0.80513700  0.90256800  0.47602000  1
  Sn  Sn0  1  0.17144700  0.82855300  0.79562900  1
  Sn  Sn1  1  0.34289300  0.17144700  0.29562900  1
  Sn  Sn2  1  0.82855300  0.65710700  0.29562900  1
  Sn  Sn3  1  0.17144700  0.34289300  0.79562900  1
  Sn  Sn4  1  0.65710700  0.82855300  0.79562900  1
  Sn  Sn5  1  0.82855300  0.17144700  0.29562900  1
  Sn  Sn6  1  0.33333300  0.66666700  0.16861900  1
  Sn  Sn7  1  0.66666700  0.33333300  0.66861900  1
loop_
_geom_bond_atom_site_label_1
_geom_bond_atom_site_label_2
_geom_bond_distance
_geom_bond_site_symmetry_2
Co0 Co2 2.368830 1_555
Co0 Co1 2.421227 1_555
Co0 Co9 2.473837 1_555
Co0 Co7 2.582544 1_555
Co0 Co11 2.582544 1_455
Co0 Co12 2.608637 1_545
Co0 Co15 2.608638 1_445
Co0 Sn3 2.641234 1_555
Co0 Sn1 2.665667 1_555
Co0 Sn5 2.665682 1_455
Co0 Y1 3.178255 1_555
Co0 Y5 3.178261 1_555
Co1 Co14 2.368830 1_444
Co1 Co13 2.368830 1_554
Co1 Co5 2.368835 1_454
Co1 Co15 2.421227 1_445
Co1 Co12 2.421232 1_545
Co1 Co6 2.485449 1_545
Co1 Co9 2.485457 1_555
Co1 Co10 2.485457 1_445
Co1 Sn1 2.707129 1_555
Co1 Sn2 2.707129 1_445
Co1 Sn5 2.707136 1_455
Co2 Co5 2.421232 1_455
Co2 Co8 2.485457 1_445
Co2 Co7 2.485457 1_555
Co2 Sn3 2.707129 1_555
Co2 Sn4 2.707129 1_445
Co2 Sn0 2.707136 1_545
Co3 Sn5 2.502433 1_555
Co3 Sn2 2.502449 1_555
Co3 Sn1 2.502449 1_555
Co3 Sn7 2.781036 1_555
Co3 Y2 3.060880 1_555
Co3 Y3 3.060880 1_555
Co3 Y0 3.060885 1_555
Co3 Y4 3.385102 1_545
Co3 Y5 3.385102 1_655
Co3 Y1 3.385109 1_555
Co4 Sn0 2.502433 1_555
Co4 Sn3 2.502449 1_555
Co4 Sn4 2.502449 1_555
Co4 Sn6 2.781036 1_556
Co4 Y5 3.060880 1_555
Co4 Y4 3.060880 1_555
Co4 Y1 3.060885 1_555
Co4 Y3 3.385102 1_566
Co4 Y2 3.385102 1_456
Co4 Y0 3.385109 1_556
Co5 Co9 2.582544 1_656
Co5 Sn5 2.641234 1_556
Co5 Sn3 2.665675 1_655
Co5 Sn4 2.665675 1_545
Co5 Y2 3.178252 1_556
Co5 Y3 3.178252 1_556
Co6 Sn6 2.697825 1_555
Co6 Sn1 2.725736 1_565
Co6 Sn2 2.725736 1_455
Co6 Sn0 2.789979 1_554
Co6 Y3 3.136265 1_565
Co6 Y2 3.136265 1_455
Co6 Y4 3.486212 1_555
Co6 Y5 3.486212 1_555
Co7 Sn7 2.697825 1_555
Co7 Sn3 2.725735 1_555
Co7 Sn0 2.725736 1_545
Co7 Sn1 2.789978 1_555
Co7 Y4 3.136258 1_545
Co7 Y1 3.136266 1_555
Co7 Y3 3.486206 1_556
Co7 Y0 3.486211 1_556
Co8 Sn7 2.697825 1_555
Co8 Sn4 2.725735 1_555
Co8 Sn0 2.725736 1_655
Co8 Sn2 2.789978 1_555
Co8 Y5 3.136258 1_655
Co8 Y1 3.136266 1_555
Co8 Y2 3.486206 1_556
Co8 Y0 3.486211 1_556
Co9 Sn6 2.697825 1_555
Co9 Sn1 2.725735 1_555
Co9 Sn5 2.725736 1_455
Co9 Sn3 2.789978 1_554
Co9 Y2 3.136258 1_455
Co9 Y0 3.136266 1_555
Co9 Y5 3.486206 1_555
Co9 Y1 3.486211 1_555
Co10 Co15 2.473837 1_555
Co10 Co14 2.582544 1_554
Co10 Co5 2.582544 1_564
Co10 Sn6 2.697825 1_555
Co10 Sn2 2.725735 1_555
Co10 Sn5 2.725736 1_565
Co10 Sn4 2.789978 1_554
Co10 Y3 3.136258 1_565
Co10 Y0 3.136266 1_555
Co10 Y4 3.486206 1_555
Co10 Y1 3.486211 1_555
Co11 Co5 2.473832 1_555
Co11 Co2 2.485449 1_655
Co11 Co15 2.582544 1_545
Co11 Sn7 2.697825 1_555
Co11 Sn3 2.725736 1_655
Co11 Sn4 2.725736 1_545
Co11 Sn5 2.789979 1_555
Co11 Y4 3.136265 1_545
Co11 Y5 3.136265 1_655
Co11 Y2 3.486212 1_556
Co11 Y3 3.486212 1_556
Co12 Co2 2.368835 1_565
Co12 Co6 2.473832 1_555
Co12 Co7 2.582544 1_565
Co12 Co8 2.582544 1_455
Co12 Co15 2.608637 1_455
Co12 Sn0 2.641234 1_555
Co12 Sn1 2.665675 1_565
Co12 Sn2 2.665675 1_455
Co12 Y5 3.178252 1_555
Co12 Y4 3.178252 1_555
Co13 Co2 2.421227 1_555
Co13 Co7 2.473837 1_555
Co13 Co9 2.582544 1_556
Co13 Co6 2.582544 1_546
Co13 Co5 2.608637 1_455
Co13 Co14 2.608638 1_445
Co13 Sn1 2.641234 1_556
Co13 Sn3 2.665667 1_555
Co13 Sn0 2.665682 1_545
Co13 Y0 3.178255 1_556
Co13 Y3 3.178261 1_556
Co14 Co2 2.421227 1_665
Co14 Co8 2.473837 1_555
Co14 Co6 2.582544 1_656
Co14 Co5 2.608637 1_565
Co14 Sn2 2.641234 1_556
Co14 Sn4 2.665667 1_555
Co14 Sn0 2.665682 1_655
Co14 Y0 3.178255 1_556
Co14 Y2 3.178261 1_556
Co15 Co2 2.368830 1_665
Co15 Co8 2.582544 1_555
Co15 Sn4 2.641234 1_555
Co15 Sn2 2.665667 1_555
Co15 Sn5 2.665682 1_565
Co15 Y1 3.178255 1_555
Co15 Y4 3.178261 1_555
Sn0 Y3 3.186435 1_566
Sn0 Y2 3.186435 1_456
Sn0 Y4 3.210698 1_555
Sn0 Y5 3.210698 1_555
Sn1 Y1 3.186433 1_555
Sn1 Y4 3.186440 1_545
Sn1 Y0 3.210699 1_555
Sn1 Y3 3.210704 1_555
Sn2 Y1 3.186433 1_555
Sn2 Y5 3.186440 1_655
Sn2 Y0 3.210699 1_555
Sn2 Y2 3.210704 1_555
Sn3 Y0 3.186433 1_556
Sn3 Y2 3.186440 1_456
Sn3 Y1 3.210699 1_555
Sn3 Y5 3.210704 1_555
Sn4 Y0 3.186433 1_556
Sn4 Y3 3.186440 1_566
Sn4 Y1 3.210699 1_555
Sn4 Y4 3.210704 1_555
Sn5 Y4 3.186435 1_545
Sn5 Y5 3.186435 1_655
Sn5 Y3 3.210698 1_555
Sn5 Y2 3.210698 1_555
Sn6 Y4 3.263691 1_555
Sn6 Y5 3.263691 1_555
Sn6 Y1 3.263696 1_555
Sn6 Y3 3.270263 1_565
Sn6 Y2 3.270263 1_455
Sn6 Y0 3.270270 1_555
Sn7 Y2 3.263691 1_556
Sn7 Y3 3.263691 1_556
Sn7 Y0 3.263696 1_556
Sn7 Y4 3.270263 1_545
Sn7 Y5 3.270263 1_655
Sn7 Y1 3.270270 1_555
