# generated using pymatgen
data_La4MgNiO8
_symmetry_space_group_name_H-M   'P 1'
_cell_length_a   5.13231700
_cell_length_b   8.74949870
_cell_length_c   8.74949903
_cell_angle_alpha   35.59335446
_cell_angle_beta   90.00000000
_cell_angle_gamma   90.00000000
_symmetry_Int_Tables_number   1
_chemical_formula_structural   La4MgNiO8
_chemical_formula_sum   'La4 Mg1 Ni1 O8'
_cell_volume   228.67790224
_cell_formula_units_Z   1
loop_
 _symmetry_equiv_pos_site_id
 _symmetry_equiv_pos_as_xyz
  1  'x, y, z'
loop_
 _atom_site_type_symbol
 _atom_site_label
 _atom_site_symmetry_multiplicity
 _atom_site_fract_x
 _atom_site_fract_y
 _atom_site_fract_z
 _atom_site_occupancy
  La  La0  1  0.00000000  0.17690400  0.17690400  1
  La  La1  1  0.00000000  0.82309600  0.82309600  1
  La  La2  1  0.50000000  0.40265400  0.40265400  1
  La  La3  1  0.50000000  0.59734600  0.59734600  1
  Mg  Mg0  1  0.00000000  0.00000000  0.00000000  1
  Ni  Ni0  1  0.50000000  0.00000000  0.00000000  1
  O  O0  1  0.00000000  0.30787100  0.30787100  1
  O  O1  1  0.00000000  0.69212900  0.69212900  1
  O  O2  1  0.25172400  0.26664600  0.73335400  1
  O  O3  1  0.25172400  0.73335400  0.26664600  1
  O  O4  1  0.50000000  0.84625400  0.84625400  1
  O  O5  1  0.50000000  0.15374600  0.15374600  1
  O  O6  1  0.74827600  0.73335400  0.26664600  1
  O  O7  1  0.74827600  0.26664600  0.73335400  1
loop_
_geom_bond_atom_site_label_1
_geom_bond_atom_site_label_2
_geom_bond_distance
_geom_bond_site_symmetry_2
La0 O0 2.182122 1_555
La0 O5 2.595005 1_455
La0 O5 2.595005 1_555
La0 O1 2.686202 1_554
La0 O1 2.686202 1_545
La1 O1 2.182122 1_555
La1 O4 2.595005 1_455
La1 O4 2.595005 1_555
La1 O0 2.686202 1_556
La1 O0 2.686202 1_565
La2 O6 2.410817 1_555
La2 O3 2.410817 1_555
La2 O7 2.410817 1_555
La2 O2 2.410817 1_555
La2 O4 2.834501 1_545
La2 O4 2.834501 1_554
La2 O0 3.013165 1_555
La2 O0 3.013165 1_655
La3 O2 2.410817 1_555
La3 O7 2.410817 1_555
La3 O6 2.410817 1_555
La3 O3 2.410817 1_555
La3 O5 2.834501 1_565
La3 O5 2.834501 1_556
La3 O1 3.013165 1_655
La3 O1 3.013165 1_555
Mg0 O2 1.924297 1_554
Mg0 O7 1.924297 1_454
Mg0 O6 1.924297 1_445
Mg0 O3 1.924297 1_545
Ni0 O2 1.912461 1_554
Ni0 O7 1.912461 1_554
Ni0 O3 1.912461 1_545
Ni0 O6 1.912461 1_545
Ni0 O5 2.561657 1_555
Ni0 O4 2.561657 1_544
