# generated using pymatgen
data_Ce8SbPd24
_symmetry_space_group_name_H-M   'P 1'
_cell_length_a   8.50164700
_cell_length_b   8.50164700
_cell_length_c   8.50164700
_cell_angle_alpha   90.00000000
_cell_angle_beta   90.00000000
_cell_angle_gamma   90.00000000
_symmetry_Int_Tables_number   1
_chemical_formula_structural   Ce8SbPd24
_chemical_formula_sum   'Ce8 Sb1 Pd24'
_cell_volume   614.48205643
_cell_formula_units_Z   1
loop_
 _symmetry_equiv_pos_site_id
 _symmetry_equiv_pos_as_xyz
  1  'x, y, z'
loop_
 _atom_site_type_symbol
 _atom_site_label
 _atom_site_symmetry_multiplicity
 _atom_site_fract_x
 _atom_site_fract_y
 _atom_site_fract_z
 _atom_site_occupancy
  Ce  Ce0  1  0.75259200  0.75259200  0.24740800  1
  Ce  Ce1  1  0.75259200  0.24740800  0.75259200  1
  Ce  Ce2  1  0.24740800  0.75259200  0.75259200  1
  Ce  Ce3  1  0.75259200  0.75259200  0.75259200  1
  Ce  Ce4  1  0.75259200  0.24740800  0.24740800  1
  Ce  Ce5  1  0.24740800  0.24740800  0.75259200  1
  Ce  Ce6  1  0.24740800  0.75259200  0.24740800  1
  Ce  Ce7  1  0.24740800  0.24740800  0.24740800  1
  Sb  Sb0  1  0.00000000  0.00000000  0.00000000  1
  Pd  Pd0  1  0.00000000  0.00000000  0.31685700  1
  Pd  Pd1  1  0.73184900  0.00000000  0.50000000  1
  Pd  Pd2  1  0.73184900  0.50000000  0.00000000  1
  Pd  Pd3  1  0.50000000  0.00000000  0.73184900  1
  Pd  Pd4  1  0.00000000  0.73184900  0.50000000  1
  Pd  Pd5  1  0.50000000  0.00000000  0.26815100  1
  Pd  Pd6  1  0.00000000  0.26815100  0.50000000  1
  Pd  Pd7  1  0.50000000  0.73184900  0.00000000  1
  Pd  Pd8  1  0.25533100  0.50000000  0.50000000  1
  Pd  Pd9  1  0.50000000  0.50000000  0.74466900  1
  Pd  Pd10  1  0.50000000  0.50000000  0.25533100  1
  Pd  Pd11  1  0.50000000  0.25533100  0.50000000  1
  Pd  Pd12  1  0.50000000  0.74466900  0.50000000  1
  Pd  Pd13  1  0.74466900  0.50000000  0.50000000  1
  Pd  Pd14  1  0.31685700  0.00000000  0.00000000  1
  Pd  Pd15  1  0.00000000  0.00000000  0.68314300  1
  Pd  Pd16  1  0.00000000  0.50000000  0.26815100  1
  Pd  Pd17  1  0.00000000  0.31685700  0.00000000  1
  Pd  Pd18  1  0.00000000  0.68314300  0.00000000  1
  Pd  Pd19  1  0.68314300  0.00000000  0.00000000  1
  Pd  Pd20  1  0.26815100  0.50000000  0.00000000  1
  Pd  Pd21  1  0.26815100  0.00000000  0.50000000  1
  Pd  Pd22  1  0.00000000  0.50000000  0.73184900  1
  Pd  Pd23  1  0.50000000  0.26815100  0.00000000  1
loop_
_geom_bond_atom_site_label_1
_geom_bond_atom_site_label_2
_geom_bond_distance
_geom_bond_site_symmetry_2
Ce0 Pd5 3.011116 1_565
Ce0 Pd16 3.011116 1_655
Ce0 Pd4 3.011116 1_655
Ce0 Pd1 3.011116 1_565
Ce0 Pd2 3.011116 1_555
Ce0 Pd7 3.011116 1_555
Ce0 Pd0 3.032653 1_665
Ce0 Pd18 3.032653 1_655
Ce0 Pd19 3.032653 1_565
Ce0 Pd10 3.037697 1_555
Ce0 Pd12 3.037697 1_555
Ce0 Pd13 3.037697 1_555
Ce1 Pd1 3.011116 1_555
Ce1 Pd23 3.011116 1_556
Ce1 Pd22 3.011116 1_655
Ce1 Pd6 3.011116 1_655
Ce1 Pd2 3.011116 1_556
Ce1 Pd3 3.011116 1_555
Ce1 Pd17 3.032653 1_656
Ce1 Pd19 3.032653 1_556
Ce1 Pd15 3.032653 1_655
Ce1 Pd11 3.037697 1_555
Ce1 Pd9 3.037697 1_555
Ce1 Pd13 3.037697 1_555
Ce2 Pd7 3.011116 1_556
Ce2 Pd3 3.011116 1_565
Ce2 Pd20 3.011116 1_556
Ce2 Pd21 3.011116 1_565
Ce2 Pd22 3.011116 1_555
Ce2 Pd4 3.011116 1_555
Ce2 Pd14 3.032653 1_566
Ce2 Pd18 3.032653 1_556
Ce2 Pd15 3.032653 1_565
Ce2 Pd9 3.037697 1_555
Ce2 Pd12 3.037697 1_555
Ce2 Pd8 3.037697 1_555
Ce3 Pd7 3.011116 1_556
Ce3 Pd22 3.011116 1_655
Ce3 Pd3 3.011116 1_565
Ce3 Pd2 3.011116 1_556
Ce3 Pd4 3.011116 1_655
Ce3 Pd1 3.011116 1_565
Ce3 Pd18 3.032653 1_656
Ce3 Pd15 3.032653 1_665
Ce3 Pd19 3.032653 1_566
Ce3 Pd9 3.037697 1_555
Ce3 Pd12 3.037697 1_555
Ce3 Pd13 3.037697 1_555
Ce4 Pd1 3.011116 1_555
Ce4 Pd6 3.011116 1_655
Ce4 Pd23 3.011116 1_555
Ce4 Pd16 3.011116 1_655
Ce4 Pd5 3.011116 1_555
Ce4 Pd2 3.011116 1_555
Ce4 Pd17 3.032653 1_655
Ce4 Pd0 3.032653 1_655
Ce4 Pd19 3.032653 1_555
Ce4 Pd11 3.037697 1_555
Ce4 Pd13 3.037697 1_555
Ce4 Pd10 3.037697 1_555
Ce5 Pd23 3.011116 1_556
Ce5 Pd6 3.011116 1_555
Ce5 Pd20 3.011116 1_556
Ce5 Pd21 3.011116 1_555
Ce5 Pd22 3.011116 1_555
Ce5 Pd3 3.011116 1_555
Ce5 Pd17 3.032653 1_556
Ce5 Pd14 3.032653 1_556
Ce5 Pd15 3.032653 1_555
Ce5 Pd11 3.037697 1_555
Ce5 Pd9 3.037697 1_555
Ce5 Pd8 3.037697 1_555
Ce6 Pd16 3.011116 1_555
Ce6 Pd20 3.011116 1_555
Ce6 Pd21 3.011116 1_565
Ce6 Pd5 3.011116 1_565
Ce6 Pd4 3.011116 1_555
Ce6 Pd7 3.011116 1_555
Ce6 Pd14 3.032653 1_565
Ce6 Pd18 3.032653 1_555
Ce6 Pd0 3.032653 1_565
Ce6 Pd10 3.037697 1_555
Ce6 Pd8 3.037697 1_555
Ce6 Pd12 3.037697 1_555
Ce7 Pd16 3.011116 1_555
Ce7 Pd6 3.011116 1_555
Ce7 Pd23 3.011116 1_555
Ce7 Pd20 3.011116 1_555
Ce7 Pd5 3.011116 1_555
Ce7 Pd21 3.011116 1_555
Ce7 Pd14 3.032653 1_555
Ce7 Pd17 3.032653 1_555
Ce7 Pd0 3.032653 1_555
Ce7 Pd11 3.037697 1_555
Ce7 Pd8 3.037697 1_555
Ce7 Pd10 3.037697 1_555
Pd0 Sb0 2.693806 1_555
Pd1 Pd11 2.932118 1_555
Pd1 Pd12 2.932118 1_545
Pd2 Pd9 2.932118 1_554
Pd4 Pd8 2.932118 1_555
Pd6 Pd8 2.932118 1_555
Pd7 Pd9 2.932118 1_554
Pd8 Pd9 2.941691 1_555
Pd10 Pd2 2.932118 1_555
Pd10 Pd7 2.932118 1_555
Pd10 Pd23 2.932118 1_555
Pd10 Pd20 2.932118 1_555
Pd10 Pd13 2.941691 1_555
Pd10 Pd11 2.941691 1_555
Pd10 Pd8 2.941691 1_555
Pd10 Pd12 2.941691 1_555
Pd11 Pd3 2.932118 1_555
Pd11 Pd21 2.932118 1_555
Pd11 Pd5 2.932118 1_555
Pd11 Pd13 2.941691 1_555
Pd11 Pd8 2.941691 1_555
Pd11 Pd9 2.941691 1_555
Pd12 Pd3 2.932118 1_565
Pd12 Pd21 2.932118 1_565
Pd12 Pd5 2.932118 1_565
Pd12 Pd9 2.941691 1_555
Pd12 Pd13 2.941691 1_555
Pd12 Pd8 2.941691 1_555
Pd13 Pd22 2.932118 1_655
Pd13 Pd4 2.932118 1_655
Pd13 Pd6 2.932118 1_655
Pd13 Pd16 2.932118 1_655
Pd13 Pd9 2.941691 1_555
Pd14 Sb0 2.693806 1_555
Pd15 Sb0 2.693806 1_556
Pd16 Pd8 2.932118 1_555
Pd17 Sb0 2.693806 1_555
Pd18 Sb0 2.693806 1_565
Pd19 Sb0 2.693806 1_655
Pd20 Pd9 2.932118 1_554
Pd22 Pd8 2.932118 1_555
Pd23 Pd9 2.932118 1_554
