# generated using pymatgen
data_Cd2AsCl2
_symmetry_space_group_name_H-M   'P 1'
_cell_length_a   9.37282500
_cell_length_b   8.00226500
_cell_length_c   8.48666544
_cell_angle_alpha   59.74722703
_cell_angle_beta   90.00000000
_cell_angle_gamma   90.00000000
_symmetry_Int_Tables_number   1
_chemical_formula_structural   Cd2AsCl2
_chemical_formula_sum   'Cd8 As4 Cl8'
_cell_volume   549.84377321
_cell_formula_units_Z   4
loop_
 _symmetry_equiv_pos_site_id
 _symmetry_equiv_pos_as_xyz
  1  'x, y, z'
loop_
 _atom_site_type_symbol
 _atom_site_label
 _atom_site_symmetry_multiplicity
 _atom_site_fract_x
 _atom_site_fract_y
 _atom_site_fract_z
 _atom_site_occupancy
  Cd  Cd0  1  0.91999900  0.56132800  0.74848900  1
  Cd  Cd1  1  0.41999900  0.43867200  0.75151100  1
  Cd  Cd2  1  0.08000100  0.43867200  0.25151100  1
  Cd  Cd3  1  0.58000100  0.56132800  0.24848900  1
  Cd  Cd4  1  0.70228500  0.04544000  0.28467500  1
  Cd  Cd5  1  0.29771500  0.95456000  0.71532500  1
  Cd  Cd6  1  0.79771500  0.04544000  0.78467500  1
  Cd  Cd7  1  0.20228500  0.95456000  0.21532500  1
  As  As0  1  0.11882400  0.06853400  0.44109300  1
  As  As1  1  0.38117600  0.06853400  0.94109300  1
  As  As2  1  0.61882400  0.93146600  0.05890700  1
  As  As3  1  0.88117600  0.93146600  0.55890700  1
  Cl  Cl0  1  0.02056600  0.24584100  0.80367500  1
  Cl  Cl1  1  0.52056600  0.75415900  0.69632500  1
  Cl  Cl2  1  0.97943400  0.75415900  0.19632500  1
  Cl  Cl3  1  0.47943400  0.24584100  0.30367500  1
  Cl  Cl4  1  0.68984100  0.42101400  0.58233300  1
  Cl  Cl5  1  0.18984100  0.57898600  0.91766700  1
  Cl  Cl6  1  0.31015900  0.57898600  0.41766700  1
  Cl  Cl7  1  0.81015900  0.42101400  0.08233300  1
loop_
_geom_bond_atom_site_label_1
_geom_bond_atom_site_label_2
_geom_bond_distance
_geom_bond_site_symmetry_2
Cd0 Cl0 2.508004 1_655
Cd0 Cl7 2.672505 1_556
Cd0 Cl5 2.946617 1_655
Cd0 Cl4 3.081915 1_555
Cd1 Cl1 2.508004 1_555
Cd1 Cl6 2.672505 1_555
Cd1 Cl4 2.946617 1_555
Cd1 Cl5 3.081915 1_555
Cd2 Cl2 2.508004 1_455
Cd2 Cl5 2.672505 1_554
Cd2 Cl7 2.946617 1_455
Cd2 Cl6 3.081915 1_555
Cd3 Cl3 2.508004 1_555
Cd3 Cl4 2.672505 1_555
Cd3 Cl6 2.946617 1_555
Cd3 Cl7 3.081915 1_555
Cd4 Cl3 2.687218 1_555
Cd4 Cl7 2.793461 1_555
Cd5 Cl1 2.687218 1_555
Cd5 Cl5 2.793461 1_555
Cd6 Cl0 2.687218 1_655
Cd6 Cl4 2.793461 1_555
Cd7 Cl2 2.687218 1_455
Cd7 Cl6 2.793461 1_555
As0 As3 2.461542 1_445
As0 Cd2 2.586936 1_555
As0 Cd7 2.622163 1_545
As0 Cd5 2.630736 1_545
As1 As2 2.461542 1_546
As1 Cd1 2.586936 1_555
As1 Cd5 2.622163 1_545
As1 Cd7 2.630736 1_546
As2 Cd3 2.586936 1_555
As2 Cd4 2.622163 1_565
As2 Cd6 2.630736 1_564
As3 Cd0 2.586936 1_555
As3 Cd6 2.622163 1_565
As3 Cd4 2.630736 1_565
