# generated using pymatgen
data_KTiH2S2O9
_symmetry_space_group_name_H-M   'P 1'
_cell_length_a   5.32422000
_cell_length_b   7.80046600
_cell_length_c   9.29958856
_cell_angle_alpha   78.83153098
_cell_angle_beta   90.00000000
_cell_angle_gamma   90.00000000
_symmetry_Int_Tables_number   1
_chemical_formula_structural   KTiH2S2O9
_chemical_formula_sum   'K2 Ti2 H4 S4 O18'
_cell_volume   378.91053844
_cell_formula_units_Z   2
loop_
 _symmetry_equiv_pos_site_id
 _symmetry_equiv_pos_as_xyz
  1  'x, y, z'
loop_
 _atom_site_type_symbol
 _atom_site_label
 _atom_site_symmetry_multiplicity
 _atom_site_fract_x
 _atom_site_fract_y
 _atom_site_fract_z
 _atom_site_occupancy
  K  K0  1  0.25000000  0.43097300  0.71546100  1
  K  K1  1  0.75000000  0.56902700  0.28453900  1
  Ti  Ti0  1  0.75000000  0.08422200  0.26737900  1
  Ti  Ti1  1  0.25000000  0.91577800  0.73262100  1
  H  H0  1  0.75000000  0.18186100  0.96979100  1
  H  H1  1  0.25000000  0.81813900  0.03020900  1
  H  H2  1  0.75000000  0.96857800  0.00440600  1
  H  H3  1  0.25000000  0.03142200  0.99559400  1
  S  S0  1  0.75000000  0.66977200  0.85680100  1
  S  S1  1  0.25000000  0.33022800  0.14319900  1
  S  S2  1  0.25000000  0.83489900  0.38823900  1
  S  S3  1  0.75000000  0.16510100  0.61176100  1
  O  O0  1  0.52205800  0.73153300  0.76104400  1
  O  O1  1  0.02205800  0.26846700  0.23895600  1
  O  O2  1  0.47794200  0.26846700  0.23895600  1
  O  O3  1  0.97794200  0.73153300  0.76104400  1
  O  O4  1  0.75000000  0.47974600  0.88884300  1
  O  O5  1  0.25000000  0.52025400  0.11115700  1
  O  O6  1  0.75000000  0.75099300  0.98695100  1
  O  O7  1  0.25000000  0.24900700  0.01304900  1
  O  O8  1  0.52225400  0.11061000  0.70655000  1
  O  O9  1  0.02225400  0.88939000  0.29345000  1
  O  O10  1  0.47774600  0.88939000  0.29345000  1
  O  O11  1  0.97774600  0.11061000  0.70655000  1
  O  O12  1  0.75000000  0.06708400  0.48962800  1
  O  O13  1  0.25000000  0.93291600  0.51037200  1
  O  O14  1  0.75000000  0.35418600  0.56347700  1
  O  O15  1  0.25000000  0.64581400  0.43652300  1
  O  O16  1  0.75000000  0.07697400  0.04666200  1
  O  O17  1  0.25000000  0.92302600  0.95333800  1
loop_
_geom_bond_atom_site_label_1
_geom_bond_atom_site_label_2
_geom_bond_distance
_geom_bond_site_symmetry_2
K0 O15 2.802380 1_555
K0 O7 2.855132 1_556
K0 O3 2.856494 1_455
K0 O0 2.856494 1_555
K0 O11 2.903991 1_455
K0 O8 2.903991 1_555
K0 O14 3.125896 1_555
K0 O14 3.125896 1_455
K0 O4 3.173166 1_455
K0 O4 3.173166 1_555
K1 O14 2.802380 1_555
K1 O6 2.855132 1_554
K1 O1 2.856494 1_655
K1 O2 2.856494 1_555
K1 O9 2.903991 1_655
K1 O10 2.903991 1_555
K1 O15 3.125896 1_655
K1 O15 3.125896 1_555
K1 O5 3.173166 1_555
K1 O5 3.173166 1_655
H0 O16 0.976657 1_556
H1 O17 0.976657 1_554
H2 O16 0.999036 1_565
H3 O17 0.999036 1_545
O0 S0 1.527007 1_555
O0 Ti1 2.021480 1_555
O1 S1 1.527007 1_555
O1 Ti0 2.021480 1_455
O2 S1 1.527007 1_555
O2 Ti0 2.021480 1_555
O3 S0 1.527007 1_555
O3 Ti1 2.021480 1_655
O4 S0 1.454260 1_555
O5 S1 1.454260 1_555
O6 S0 1.470846 1_555
O7 S1 1.470846 1_555
O8 S3 1.510923 1_555
O8 Ti1 2.080130 1_545
O9 S2 1.510923 1_555
O9 Ti0 2.080130 1_465
O10 S2 1.510923 1_555
O10 Ti0 2.080130 1_565
O11 S3 1.510923 1_555
O11 Ti1 2.080130 1_645
O12 S3 1.486943 1_555
O12 Ti0 2.045140 1_555
O13 S2 1.486943 1_555
O13 Ti1 2.045140 1_555
O14 S3 1.456207 1_555
O15 S2 1.456207 1_555
O16 Ti0 2.064274 1_555
O17 Ti1 2.064274 1_555
