# generated using pymatgen
data_CrPO4
_symmetry_space_group_name_H-M   'P 1'
_cell_length_a   6.28766100
_cell_length_b   6.34895388
_cell_length_c   8.95883622
_cell_angle_alpha   92.16610538
_cell_angle_beta   110.44358119
_cell_angle_gamma   97.57996416
_symmetry_Int_Tables_number   1
_chemical_formula_structural   CrPO4
_chemical_formula_sum   'Cr4 P4 O16'
_cell_volume   330.82682173
_cell_formula_units_Z   4
loop_
 _symmetry_equiv_pos_site_id
 _symmetry_equiv_pos_as_xyz
  1  'x, y, z'
loop_
 _atom_site_type_symbol
 _atom_site_label
 _atom_site_symmetry_multiplicity
 _atom_site_fract_x
 _atom_site_fract_y
 _atom_site_fract_z
 _atom_site_occupancy
  Cr  Cr0  1  0.82193200  0.94982200  0.70938100  1
  Cr  Cr1  1  0.69952700  0.17949100  0.01340600  1
  Cr  Cr2  1  0.30047300  0.82050900  0.98659400  1
  Cr  Cr3  1  0.17806800  0.05017800  0.29061900  1
  P  P0  1  0.37782000  0.89666500  0.65979600  1
  P  P1  1  0.82438500  0.71335200  0.03621300  1
  P  P2  1  0.17561500  0.28664800  0.96378700  1
  P  P3  1  0.62218000  0.10333500  0.34020400  1
  O  O0  1  0.79022000  0.17763400  0.25179700  1
  O  O1  1  0.27792400  0.51760100  0.01491300  1
  O  O2  1  0.46954800  0.26623600  0.35998400  1
  O  O3  1  0.95306600  0.80416900  0.92172600  1
  O  O4  1  0.58274400  0.08711700  0.76466200  1
  O  O5  1  0.72207600  0.48239900  0.98508700  1
  O  O6  1  0.53045200  0.73376400  0.64001600  1
  O  O7  1  0.04693400  0.19583100  0.07827400  1
  O  O8  1  0.37275900  0.14541600  0.99272900  1
  O  O9  1  0.62724100  0.85458400  0.00727100  1
  O  O10  1  0.98441700  0.76443900  0.20912800  1
  O  O11  1  0.20978000  0.82236600  0.74820300  1
  O  O12  1  0.41725600  0.91288300  0.23533800  1
  O  O13  1  0.01558300  0.23556100  0.79087200  1
  O  O14  1  0.76850300  0.02097000  0.49360100  1
  O  O15  1  0.23149700  0.97903000  0.50639900  1
loop_
_geom_bond_atom_site_label_1
_geom_bond_atom_site_label_2
_geom_bond_distance
_geom_bond_site_symmetry_2
Cr0 O14 1.925176 1_565
Cr0 O13 2.000708 1_665
Cr0 O4 2.024957 1_565
Cr0 O6 2.025696 1_555
Cr0 O3 2.095801 1_555
Cr0 O11 2.583066 1_655
Cr1 O5 1.942433 1_554
Cr1 O8 1.978978 1_554
Cr1 O0 2.009842 1_555
Cr1 O7 2.041779 1_655
Cr1 O9 2.047304 1_545
Cr1 O4 2.119824 1_554
Cr2 O1 1.942433 1_556
Cr2 O9 1.978978 1_556
Cr2 O11 2.009842 1_555
Cr2 O3 2.041779 1_455
Cr2 O8 2.047304 1_565
Cr2 O12 2.119824 1_556
Cr3 O15 1.925176 1_545
Cr3 O10 2.000708 1_445
Cr3 O12 2.024957 1_545
Cr3 O2 2.025696 1_555
Cr3 O7 2.095801 1_555
Cr3 O0 2.583066 1_455
O0 P3 1.564455 1_555
O1 P2 1.506062 1_554
O2 P3 1.545608 1_555
O3 P1 1.593881 1_556
O4 P0 1.631684 1_545
O5 P1 1.506062 1_556
O6 P0 1.545608 1_555
O7 P2 1.593881 1_554
O8 P2 1.579268 1_555
O9 P1 1.579268 1_555
O10 P1 1.518048 1_555
O11 P0 1.564455 1_555
O12 P3 1.631684 1_565
O13 P2 1.518048 1_555
O14 P3 1.518719 1_555
O15 P0 1.518719 1_555
