# generated using pymatgen
data_Na6MgSi2Sn3(PO6)4
_symmetry_space_group_name_H-M   'P 1'
_cell_length_a   9.01408298
_cell_length_b   9.00677827
_cell_length_c   22.24822433
_cell_angle_alpha   90.21593291
_cell_angle_beta   89.96340336
_cell_angle_gamma   120.02393622
_symmetry_Int_Tables_number   1
_chemical_formula_structural   Na6MgSi2Sn3(PO6)4
_chemical_formula_sum   'Na18 Mg3 Si6 Sn9 P12 O72'
_cell_volume   1563.89889976
_cell_formula_units_Z   3
loop_
 _symmetry_equiv_pos_site_id
 _symmetry_equiv_pos_as_xyz
  1  'x, y, z'
loop_
 _atom_site_type_symbol
 _atom_site_label
 _atom_site_symmetry_multiplicity
 _atom_site_fract_x
 _atom_site_fract_y
 _atom_site_fract_z
 _atom_site_occupancy
  Na  Na0  1  0.00110696  0.99456907  0.50032950  1
  Na  Na1  1  0.00091417  0.99652000  0.99796408  1
  Na  Na2  1  0.65061650  0.30270948  0.83307979  1
  Na  Na3  1  0.65068592  0.33171907  0.32351239  1
  Na  Na4  1  0.32836702  0.66709273  0.16302796  1
  Na  Na5  1  0.32629543  0.66588453  0.66523338  1
  Na  Na6  1  0.64064871  0.01241824  0.24334920  1
  Na  Na7  1  0.98882087  0.62563276  0.23841359  1
  Na  Na8  1  0.63268901  0.61692610  0.74243883  1
  Na  Na9  1  0.98984709  0.36557378  0.74784323  1
  Na  Na10  1  0.66597678  0.97038026  0.58675601  1
  Na  Na11  1  0.66785091  0.68849972  0.07917515  1
  Na  Na12  1  0.02418609  0.33689761  0.08390952  1
  Na  Na13  1  0.96870169  0.66881774  0.92082460  1
  Na  Na14  1  0.33516644  0.30409639  0.91868325  1
  Na  Na15  1  0.96293874  0.28320488  0.41202917  1
  Na  Na16  1  0.32837174  0.03143001  0.41024778  1
  Na  Na17  1  0.71346306  0.68474616  0.41709625  1
  Mg  Mg0  1  0.99928319  0.99950006  0.35090269  1
  Mg  Mg1  1  0.65888244  0.33055932  0.68353537  1
  Mg  Mg2  1  0.66316699  0.33503488  0.18321108  1
  Si  Si0  1  0.66786028  0.63061106  0.58663282  1
  Si  Si1  1  0.96522213  0.63078034  0.08669576  1
  Si  Si2  1  0.62581830  0.66723363  0.91690183  1
  Si  Si3  1  0.03913109  0.37346073  0.91623170  1
  Si  Si4  1  0.33623150  0.96294985  0.91541491  1
  Si  Si5  1  0.62919730  0.96594237  0.41821796  1
  Sn  Sn0  1  0.99645281  -0.00029456  0.85360837  1
  Sn  Sn1  1  0.00448175  0.99594535  0.64655615  1
  Sn  Sn2  1  0.00803838  0.00216815  0.15032158  1
  Sn  Sn3  1  0.66733699  0.33235936  0.98194581  1
  Sn  Sn4  1  0.66652229  0.33571937  0.48666192  1
  Sn  Sn5  1  0.33253341  0.67399294  0.01731153  1
  Sn  Sn6  1  0.33515005  0.66284997  0.52158081  1
  Sn  Sn7  1  0.33690310  0.66784659  0.31491938  1
  Sn  Sn8  1  0.33577319  0.67381338  0.81628141  1
  P  P0  1  0.29633281  0.99869185  0.25472518  1
  P  P1  1  0.70363003  0.70493798  0.25229669  1
  P  P2  1  0.00358984  0.29740977  0.25288728  1
  P  P3  1  0.29143596  0.29304244  0.75104385  1
  P  P4  1  0.00469248  0.70540883  0.75038788  1
  P  P5  1  0.70422131  0.99771192  0.74799307  1
  P  P6  1  0.96395869  0.33413079  0.58598208  1
  P  P7  1  0.37122084  0.03971086  0.58253839  1
  P  P8  1  0.66690460  0.03936100  0.08834765  1
  P  P9  1  0.37235338  0.33352616  0.08408581  1
  P  P10  1  0.33508043  0.37395976  0.41696509  1
  P  P11  1  0.04074539  0.66196138  0.41703886  1
  O  O0  1  0.21281285  0.01203236  0.31258450  1
  O  O1  1  0.80920976  0.79115184  0.30873610  1
  O  O2  1  0.98943932  0.19159476  0.30822211  1
  O  O3  1  0.20848599  0.19267759  0.80944063  1
  O  O4  1  0.97819447  0.78846745  0.80777735  1
  O  O5  1  0.82354715  0.02870508  0.80248680  1
  O  O6  1  0.78511095  0.96588094  0.69026872  1
  O  O7  1  0.16829621  0.20535386  0.69684178  1
  O  O8  1  0.03359206  0.82041641  0.69514618  1
  O  O9  1  0.78595591  0.82217336  0.19509290  1
  O  O10  1  0.02760920  0.21655695  0.19336271  1
  O  O11  1  0.17610569  0.96280105  0.19898719  1
  O  O12  1  0.87655586  0.35089267  0.64159034  1
  O  O13  1  0.49586014  0.12977009  0.63324567  1
  O  O14  1  0.64973385  0.52398942  0.64537124  1
  O  O15  1  0.88176842  0.51527166  0.14524043  1
  O  O16  1  0.64541072  0.11664217  0.14590016  1
  O  O17  1  0.48648688  0.35534067  0.13654313  1
  O  O18  1  0.44048022  0.30390998  0.02338505  1
  O  O19  1  0.84395349  0.54855604  0.02587454  1
  O  O20  1  0.69733834  0.15312351  0.03222976  1
  O  O21  1  0.44140385  0.13417228  0.52058340  1
  O  O22  1  0.69250880  0.55126323  0.52181970  1
  O  O23  1  0.85249778  0.29791372  0.52678860  1
  O  O24  1  0.54488633  0.69858862  0.97804406  1
  O  O25  1  0.16190643  0.45395414  0.97561480  1
  O  O26  1  0.28268054  0.83361880  0.97247757  1
  O  O27  1  0.54030971  0.84129026  0.47619367  1
  O  O28  1  0.29173146  0.45073560  0.47183889  1
  O  O29  1  0.15904230  0.69172451  0.47098184  1
  O  O30  1  0.11354363  0.62068931  0.35928324  1
  O  O31  1  0.50266639  0.88654624  0.35842058  1
  O  O32  1  0.37638928  0.49408040  0.36154640  1
  O  O33  1  0.11802343  0.49275393  0.85573945  1
  O  O34  1  0.37794062  0.88893566  0.85508288  1
  O  O35  1  0.50673009  0.62642765  0.85662236  1
  O  O36  1  0.02207777  0.82129118  0.41183077  1
  O  O37  1  0.81795374  0.98687085  0.41285289  1
  O  O38  1  0.18136841  0.19291994  0.40948984  1
  O  O39  1  0.02785018  0.18781013  0.91126176  1
  O  O40  1  0.16450227  0.98183572  0.91000803  1
  O  O41  1  0.82014420  0.82992244  0.91189858  1
  O  O42  1  0.98511345  0.17220060  0.58774517  1
  O  O43  1  0.19263730  0.02419042  0.58751307  1
  O  O44  1  0.83540021  0.83007013  0.58536062  1
  O  O45  1  0.97651971  0.82085833  0.08942641  1
  O  O46  1  0.83545326  0.02529233  0.09001407  1
  O  O47  1  0.18245489  0.18098018  0.08908310  1
  O  O48  1  0.68754322  0.15756795  0.74328509  1
  O  O49  1  0.47062998  0.31657146  0.74581742  1
  O  O50  1  0.84497575  0.52572167  0.74612059  1
  O  O51  1  0.68490180  0.52824499  0.24467006  1
  O  O52  1  0.84245241  0.31491507  0.24887702  1
  O  O53  1  0.47721969  0.14938689  0.24697527  1
  O  O54  1  0.64124486  0.49372944  0.92166227  1
  O  O55  1  0.85370318  0.36161702  0.92256549  1
  O  O56  1  0.49830498  0.15526528  0.92375680  1
  O  O57  1  0.64423540  0.15748583  0.42316140  1
  O  O58  1  0.50279335  0.36463734  0.42271208  1
  O  O59  1  0.86014104  0.49832864  0.42289620  1
  O  O60  1  0.35814172  0.50044871  0.08055005  1
  O  O61  1  0.15345338  0.64266021  0.08033417  1
  O  O62  1  0.51490347  0.85239515  0.08121229  1
  O  O63  1  0.34760351  0.85593211  0.57820462  1
  O  O64  1  0.49901124  0.65957371  0.58279418  1
  O  O65  1  0.14116214  0.49790845  0.57890104  1
  O  O66  1  0.30508583  0.82561896  0.25329391  1
  O  O67  1  0.52427175  0.69685671  0.25373145  1
  O  O68  1  0.16493284  0.48398368  0.25397493  1
  O  O69  1  0.30320085  0.47433708  0.75232000  1
  O  O70  1  0.16708460  0.68468261  0.75199457  1
  O  O71  1  0.53058744  0.82517657  0.75253749  1
loop_
_geom_bond_atom_site_label_1
_geom_bond_atom_site_label_2
_geom_bond_distance
_geom_bond_site_symmetry_2
Na0 O44 2.409980 1_455
Na0 O43 2.520649 1_565
Na0 O37 2.531145 1_455
Na0 O42 2.563171 1_465
Na0 O36 2.572889 1_555
Na0 O38 2.652251 1_565
Na1 O41 2.471580 1_455
Na1 O40 2.492144 1_555
Na1 O39 2.520738 1_565
Na1 O45 2.523448 1_456
Na1 O47 2.608819 1_566
Na1 O46 2.620047 1_466
Na2 O56 2.431161 1_555
Na2 O48 2.495141 1_555
Na2 O55 2.573156 1_555
Na2 O49 2.574011 1_555
Na2 O54 2.640248 1_555
Na2 O50 2.711152 1_555
Na3 O53 2.335395 1_555
Na3 O51 2.404478 1_555
Na3 O52 2.454483 1_555
Na3 O58 2.668871 1_555
Na3 O57 2.704795 1_555
Na3 O59 2.801897 1_555
Na4 O61 2.360642 1_555
Na4 O60 2.464494 1_555
Na4 O62 2.477246 1_555
Na4 O66 2.528534 1_555
Na4 O68 2.564059 1_555
Na4 O67 2.605628 1_555
Na5 O64 2.423887 1_555
Na5 O70 2.459967 1_555
Na5 O65 2.493730 1_555
Na5 O63 2.532068 1_555
Na5 O69 2.537519 1_555
Na5 O71 2.561626 1_555
Na6 O53 2.348696 1_555
Na6 O16 2.357638 1_555
Na6 O52 2.405253 1_555
Na6 O67 2.500563 1_545
Na6 O66 2.634040 1_545
Na6 O31 2.827238 1_545
Na6 O9 2.834543 1_545
Na7 O15 2.289854 1_555
Na7 O51 2.426851 1_555
Na7 O52 2.436473 1_555
Na7 O68 2.509675 1_655
Na7 O66 2.517795 1_655
Na7 O11 2.780171 1_655
Na7 O30 2.924423 1_655
Na8 O14 2.345788 1_555
Na8 O49 2.346185 1_555
Na8 O50 2.432492 1_555
Na8 O71 2.477848 1_555
Na8 O69 2.589013 1_555
Na8 O35 2.800342 1_555
Na9 O50 2.381771 1_555
Na9 O48 2.415737 1_555
Na9 O69 2.485664 1_655
Na9 O70 2.494934 1_655
Na9 O12 2.552287 1_555
Na9 O33 2.658540 1_655
Na9 O7 2.875008 1_655
Na9 O5 2.899107 1_555
Na10 O44 2.421025 1_555
Na10 O64 2.427234 1_555
Na10 O42 2.519340 1_565
Na10 O63 2.524595 1_555
Na10 O6 2.550681 1_555
Na10 O27 2.711032 1_555
Na10 O13 2.769828 1_565
Na10 O23 2.893570 1_565
Na11 O45 2.427792 1_555
Na11 O60 2.435548 1_555
Na11 O62 2.473449 1_555
Na11 O24 2.530770 1_554
Na11 O46 2.636481 1_565
Na11 O19 2.739232 1_555
Na11 O9 2.816276 1_555
Na11 O17 2.902219 1_555
Na12 O61 2.395516 1_555
Na12 O46 2.452334 1_455
Na12 O47 2.454997 1_555
Na12 O60 2.607757 1_555
Na12 O10 2.675652 1_555
Na12 O25 2.676428 1_554
Na12 O20 2.802112 1_455
Na12 O15 2.852403 1_455
Na13 O55 2.421205 1_555
Na13 O41 2.425936 1_555
Na13 O40 2.479195 1_655
Na13 O54 2.557706 1_555
Na13 O19 2.587847 1_556
Na13 O26 2.705797 1_655
Na13 O4 2.724385 1_555
Na13 O33 2.922216 1_655
Na14 O54 2.411926 1_555
Na14 O39 2.427736 1_555
Na14 O56 2.438479 1_555
Na14 O18 2.516322 1_556
Na14 O40 2.521166 1_545
Na14 O3 2.656412 1_555
Na14 O25 2.821238 1_555
Na14 O35 2.874192 1_555
Na15 O37 2.311199 1_545
Na15 O38 2.478498 1_655
Na15 O2 2.500789 1_555
Na15 O57 2.518427 1_555
Na15 O59 2.542472 1_555
Na15 O23 2.766514 1_555
Na15 O28 2.888941 1_655
Na15 O30 2.890484 1_655
Na16 O0 2.377960 1_555
Na16 O38 2.408470 1_555
Na16 O36 2.444863 1_545
Na16 O57 2.498376 1_555
Na16 O58 2.613039 1_555
Na16 O21 2.638728 1_555
Na16 O31 2.745689 1_545
Na17 O37 2.395363 1_555
Na17 O36 2.417025 1_655
Na17 O58 2.541202 1_555
Na17 O1 2.581170 1_555
Na17 O22 2.588990 1_555
Na17 O59 2.609079 1_555
Na17 O27 2.887656 1_555
Na17 O32 2.911293 1_555
Mg0 O2 2.017204 1_565
Mg0 O1 2.026905 1_555
Mg0 O0 2.055598 1_665
Mg0 O37 2.096782 1_555
Mg0 O38 2.133555 1_665
Mg0 O36 2.191532 1_655
Mg1 O14 1.979383 1_555
Mg1 O13 2.002298 1_555
Mg1 O12 2.096114 1_555
Mg1 O49 2.144728 1_555
Mg1 O48 2.163420 1_555
Mg1 O50 2.208228 1_555
Mg2 O17 1.985674 1_555
Mg2 O15 2.009691 1_555
Mg2 O16 2.063161 1_555
Mg2 O51 2.139523 1_555
Mg2 O53 2.197279 1_555
Mg2 O52 2.253233 1_555
O0 P0 1.525256 1_545
O1 P1 1.529728 1_555
O2 P2 1.525510 1_655
O3 P3 1.547718 1_555
O3 Sn0 2.079810 1_455
O4 P4 1.555047 1_655
O4 Sn0 2.087777 1_565
O5 P5 1.550289 1_545
O5 Sn0 2.050098 1_555
O6 P5 1.571116 1_555
O6 Sn1 2.095957 1_655
O7 P3 1.557974 1_555
O7 Sn1 2.046598 1_545
O8 P4 1.546126 1_555
O8 Sn1 2.040907 1_555
O9 P1 1.584344 1_555
O9 Sn2 2.095176 1_665
O10 P2 1.575166 1_555
O10 Sn2 2.078957 1_555
O11 P0 1.569991 1_555
O11 Sn2 2.033641 1_565
O12 P6 1.513444 1_555
O13 P7 1.508535 1_555
O14 Si0 1.583939 1_555
O15 Si1 1.603298 1_555
O16 P8 1.513103 1_555
O17 P9 1.502216 1_555
O18 P9 1.559562 1_555
O18 Sn3 2.138294 1_554
O19 Si1 1.660915 1_555
O19 Sn3 2.041279 1_554
O20 P8 1.553015 1_555
O20 Sn3 2.093242 1_554
O21 P7 1.578963 1_555
O21 Sn4 2.074775 1_555
O22 Si0 1.670371 1_555
O22 Sn4 1.992304 1_555
O23 P6 1.587671 1_555
O23 Sn4 2.073330 1_555
O24 Si2 1.632301 1_555
O24 Sn5 2.012788 1_556
O25 Si3 1.639394 1_555
O25 Sn5 2.022736 1_556
O26 Si4 1.627669 1_555
O26 Sn5 1.980366 1_556
O27 Si5 1.635721 1_555
O27 Sn6 2.014493 1_555
O28 P10 1.544265 1_555
O28 Sn6 2.064979 1_555
O29 P11 1.537015 1_555
O29 Sn6 2.067014 1_555
O30 P11 1.568230 1_555
O30 Sn7 2.086421 1_555
O31 Si5 1.661546 1_555
O31 Sn7 2.022735 1_555
O32 P10 1.560669 1_555
O32 Sn7 2.054859 1_555
O33 Si3 1.648180 1_555
O33 Sn8 2.021899 1_555
O34 Si4 1.622002 1_555
O34 Sn8 1.973486 1_555
O35 Si2 1.639909 1_555
O35 Sn8 2.006303 1_555
O36 P11 1.531024 1_555
O37 Si5 1.619790 1_555
O38 P10 1.530883 1_555
O39 Si3 1.626959 1_555
O39 Sn0 2.024845 1_455
O40 Si4 1.644247 1_555
O40 Sn0 2.035435 1_465
O41 Si2 1.631026 1_555
O41 Sn0 2.031326 1_565
O42 P6 1.563264 1_555
O42 Sn1 2.134463 1_645
O43 P7 1.548495 1_555
O43 Sn1 2.057850 1_545
O44 Si0 1.671585 1_555
O44 Sn1 2.029105 1_655
O45 Si1 1.664249 1_555
O45 Sn2 2.025461 1_665
O46 P8 1.586979 1_555
O46 Sn2 2.143092 1_655
O47 P9 1.574025 1_555
O47 Sn2 2.098039 1_555
O48 P5 1.524575 1_545
O49 P3 1.524768 1_555
O50 P4 1.538926 1_655
O51 P1 1.522859 1_555
O52 P2 1.540143 1_655
O53 P0 1.522261 1_545
O54 Si2 1.640536 1_555
O54 Sn3 2.079367 1_555
O55 Si3 1.626778 1_655
O55 Sn3 2.047847 1_555
O56 Si4 1.623160 1_545
O56 Sn3 2.024008 1_555
O57 Si5 1.664726 1_545
O57 Sn4 2.067328 1_555
O58 P10 1.560842 1_555
O58 Sn4 2.158807 1_555
O59 P11 1.561897 1_655
O59 Sn4 2.158290 1_555
O60 P9 1.573707 1_555
O60 Sn5 2.203190 1_555
O61 Si1 1.651819 1_455
O61 Sn5 2.048324 1_555
O62 P8 1.558060 1_565
O62 Sn5 2.155891 1_555
O63 P7 1.562264 1_565
O63 Sn6 2.100533 1_555
O64 Si0 1.670192 1_555
O64 Sn6 2.020842 1_555
O65 P6 1.547809 1_455
O65 Sn6 2.074319 1_555
O66 P0 1.599966 1_555
O66 Sn7 2.098664 1_555
O67 P1 1.581894 1_555
O67 Sn7 2.081386 1_555
O68 P2 1.579118 1_555
O68 Sn7 2.097776 1_555
O69 P3 1.582629 1_555
O69 Sn8 2.189177 1_555
O70 P4 1.566033 1_555
O70 Sn8 2.126075 1_555
O71 P5 1.562624 1_555
O71 Sn8 2.137577 1_555
