# generated using pymatgen
data_Na3YHf3Si3(SO8)3
_symmetry_space_group_name_H-M   'P 1'
_cell_length_a   9.04090554
_cell_length_b   9.10727729
_cell_length_c   23.43044317
_cell_angle_alpha   89.76363865
_cell_angle_beta   90.39258801
_cell_angle_gamma   120.33280589
_symmetry_Int_Tables_number   1
_chemical_formula_structural   Na3YHf3Si3(SO8)3
_chemical_formula_sum   'Na9 Y3 Hf9 Si9 S9 O72'
_cell_volume   1665.07988128
_cell_formula_units_Z   3
loop_
 _symmetry_equiv_pos_site_id
 _symmetry_equiv_pos_as_xyz
  1  'x, y, z'
loop_
 _atom_site_type_symbol
 _atom_site_label
 _atom_site_symmetry_multiplicity
 _atom_site_fract_x
 _atom_site_fract_y
 _atom_site_fract_z
 _atom_site_occupancy
  Na  Na0  1  0.35264993  0.35735987  0.24291165  1
  Na  Na1  1  0.63487558  0.62230601  0.75550220  1
  Na  Na2  1  0.96871535  0.28775784  0.41681562  1
  Na  Na3  1  0.99403675  0.00975175  0.49887193  1
  Na  Na4  1  0.99614329  0.98642952  0.00276421  1
  Na  Na5  1  0.66203002  0.34212937  0.83194727  1
  Na  Na6  1  0.67095160  0.32077357  0.33115189  1
  Na  Na7  1  0.30763167  0.65219192  0.16278532  1
  Na  Na8  1  0.29514936  0.64494366  0.66685078  1
  Y  Y0  1  0.99492174  0.00381171  0.35535888  1
  Y  Y1  1  0.68025987  0.33816836  0.68679289  1
  Y  Y2  1  0.68729222  0.34441801  0.17968023  1
  Hf  Hf0  1  0.00467217  0.99048686  0.85369807  1
  Hf  Hf1  1  0.01447327  0.01676760  0.64815801  1
  Hf  Hf2  1  0.01172273  0.01345519  0.14369790  1
  Hf  Hf3  1  0.66336310  0.35608909  0.98243272  1
  Hf  Hf4  1  0.66094235  0.31791942  0.48005195  1
  Hf  Hf5  1  0.33795090  0.65995410  0.02013814  1
  Hf  Hf6  1  0.33587826  0.65609432  0.51829181  1
  Hf  Hf7  1  0.33849045  0.66295960  0.31599419  1
  Hf  Hf8  1  0.32354577  0.65347156  0.81312960  1
  Si  Si0  1  -0.00002257  0.29900212  0.25176548  1
  Si  Si1  1  0.28932177  0.29075120  0.75321373  1
  Si  Si2  1  0.00851494  0.71876687  0.74938184  1
  Si  Si3  1  0.96587706  0.33193799  0.58153675  1
  Si  Si4  1  0.97054559  0.64000175  0.08144641  1
  Si  Si5  1  0.37236895  0.33493283  0.08527494  1
  Si  Si6  1  0.62643579  0.67239587  0.91521703  1
  Si  Si7  1  0.61744850  0.95484299  0.41857554  1
  Si  Si8  1  0.34415611  0.37856303  0.41714410  1
  S  S0  1  0.28885030  0.99296144  0.24934442  1
  S  S1  1  0.70342263  0.70817566  0.24942105  1
  S  S2  1  0.71306579  0.99417386  0.75225799  1
  S  S3  1  0.36883889  0.03473750  0.58210335  1
  S  S4  1  0.66917365  0.63013753  0.58242665  1
  S  S5  1  0.66690993  0.03822253  0.08021138  1
  S  S6  1  0.03979483  0.37372681  0.91726121  1
  S  S7  1  0.33815353  0.95707222  0.91661971  1
  S  S8  1  0.04570127  0.66099409  0.41885448  1
  O  O0  1  0.20841466  0.01271083  0.30072595  1
  O  O1  1  0.80365771  0.78142264  0.30157895  1
  O  O2  1  0.98876443  0.19938389  0.31065233  1
  O  O3  1  0.18535137  0.17812363  0.80800328  1
  O  O4  1  0.97759798  0.80947204  0.80508935  1
  O  O5  1  0.81697442  0.01576224  0.80324868  1
  O  O6  1  0.79083236  0.96922479  0.70007309  1
  O  O7  1  0.17313159  0.20423568  0.69528982  1
  O  O8  1  0.02321022  0.83184714  0.69284697  1
  O  O9  1  0.78781457  0.80940090  0.19866626  1
  O  O10  1  0.02827594  0.19540698  0.19773601  1
  O  O11  1  0.18139937  0.97072018  0.19781678  1
  O  O12  1  0.88148099  0.35922084  0.63770378  1
  O  O13  1  0.46972292  0.10998228  0.63404480  1
  O  O14  1  0.63676339  0.53133344  0.63562452  1
  O  O15  1  0.90483915  0.52515119  0.13793610  1
  O  O16  1  0.63431645  0.10463486  0.13270998  1
  O  O17  1  0.46748456  0.36182611  0.14579001  1
  O  O18  1  0.47033747  0.30740339  0.03070779  1
  O  O19  1  0.84249442  0.53643104  0.02680177  1
  O  O20  1  0.69332489  0.14671498  0.03025281  1
  O  O21  1  0.45461869  0.14674505  0.53159135  1
  O  O22  1  0.68668756  0.53955983  0.53308400  1
  O  O23  1  0.84713366  0.31271705  0.52438772  1
  O  O24  1  0.52555285  0.69107376  0.96902435  1
  O  O25  1  0.14754177  0.45957347  0.96744050  1
  O  O26  1  0.30966964  0.85202960  0.96749849  1
  O  O27  1  0.51584354  0.84583749  0.47392030  1
  O  O28  1  0.30999855  0.47493396  0.46967686  1
  O  O29  1  0.14878633  0.68223802  0.46969348  1
  O  O30  1  0.12436308  0.63444278  0.36668701  1
  O  O31  1  0.50175935  0.86542269  0.36104451  1
  O  O32  1  0.36278058  0.49120331  0.35879412  1
  O  O33  1  0.12127198  0.48229327  0.86534193  1
  O  O34  1  0.35362073  0.87175963  0.86488203  1
  O  O35  1  0.51141594  0.64882267  0.85718006  1
  O  O36  1  0.02448777  0.80870164  0.41331664  1
  O  O37  1  0.80897786  0.98157041  0.41839124  1
  O  O38  1  0.17291354  0.19256215  0.41601553  1
  O  O39  1  0.02732322  0.20689581  0.91063044  1
  O  O40  1  0.18443008  0.97841746  0.91043506  1
  O  O41  1  0.81758248  0.84271032  0.91031640  1
  O  O42  1  0.98021277  0.15783853  0.58735509  1
  O  O43  1  0.19673986  0.01957201  0.58638428  1
  O  O44  1  0.82358671  0.80120396  0.58746374  1
  O  O45  1  0.97630078  0.82141611  0.09094941  1
  O  O46  1  0.81997184  0.01864008  0.08811991  1
  O  O47  1  0.17897680  0.16472430  0.08732159  1
  O  O48  1  0.68893828  0.14109650  0.74762057  1
  O  O49  1  0.48088742  0.32046948  0.74902385  1
  O  O50  1  0.83457296  0.53296955  0.74852761  1
  O  O51  1  0.66674282  0.53018698  0.24554608  1
  O  O52  1  0.83311297  0.32025792  0.24915927  1
  O  O53  1  0.45793410  0.14907190  0.24384157  1
  O  O54  1  0.64254784  0.49905131  0.92189168  1
  O  O55  1  0.86772573  0.35295251  0.92292884  1
  O  O56  1  0.49344475  0.12712902  0.92213111  1
  O  O57  1  0.64567160  0.15070316  0.42341559  1
  O  O58  1  0.51864500  0.37187213  0.42654071  1
  O  O59  1  0.87493871  0.50162361  0.42403425  1
  O  O60  1  0.34918413  0.49971956  0.07266518  1
  O  O61  1  0.16077952  0.67045373  0.06733107  1
  O  O62  1  0.51544534  0.86494379  0.07190777  1
  O  O63  1  0.34677785  0.86482263  0.57354855  1
  O  O64  1  0.51727736  0.65255778  0.57466474  1
  O  O65  1  0.15619804  0.50259512  0.57453604  1
  O  O66  1  0.30653673  0.83920942  0.25414664  1
  O  O67  1  0.53025654  0.69657970  0.25451193  1
  O  O68  1  0.18345564  0.48787061  0.25487903  1
  O  O69  1  0.31193092  0.48429591  0.75800531  1
  O  O70  1  0.18016251  0.70433712  0.75883908  1
  O  O71  1  0.54187610  0.83464752  0.75764410  1
loop_
_geom_bond_atom_site_label_1
_geom_bond_atom_site_label_2
_geom_bond_distance
_geom_bond_site_symmetry_2
Na0 O68 2.382505 1_555
Na0 O51 2.455388 1_555
Na0 O17 2.499372 1_555
Na0 O53 2.515556 1_555
Na0 O67 2.680835 1_555
Na0 O10 2.738179 1_555
Na0 O32 2.962693 1_555
Na1 O50 2.331765 1_555
Na1 O49 2.377570 1_555
Na1 O71 2.468389 1_555
Na1 O69 2.530425 1_555
Na1 O35 2.700605 1_555
Na1 O4 2.913520 1_555
Na1 O14 2.934306 1_555
Na1 O6 3.024693 1_555
Na2 O38 2.403633 1_655
Na2 O37 2.407328 1_545
Na2 O59 2.492728 1_555
Na2 O57 2.536602 1_555
Na2 O2 2.652943 1_555
Na2 O23 2.812067 1_555
Na2 O28 2.934748 1_655
Na2 O30 2.972043 1_655
Na3 O37 2.438858 1_545
Na3 O42 2.515860 1_555
Na3 O38 2.540270 1_655
Na3 O44 2.710325 1_545
Na3 O43 2.712070 1_655
Na3 O36 2.827337 1_645
Na4 O45 2.503412 1_555
Na4 O47 2.562197 1_665
Na4 O41 2.617733 1_554
Na4 O46 2.672641 1_565
Na4 O40 2.785721 1_654
Na4 O39 2.858661 1_664
Na5 O49 2.475721 1_555
Na5 O50 2.559254 1_555
Na5 O54 2.607474 1_555
Na5 O56 2.760015 1_555
Na5 O55 2.788311 1_555
Na5 O48 2.793095 1_555
Na6 O52 2.426061 1_555
Na6 O57 2.597333 1_555
Na6 O53 2.696260 1_555
Na6 O51 2.775367 1_555
Na6 O59 2.785077 1_555
Na6 O58 2.793905 1_555
Na7 O68 2.542759 1_555
Na7 O61 2.640406 1_555
Na7 O60 2.662703 1_555
Na7 O66 2.744227 1_555
Na7 O67 2.821278 1_555
Na7 O62 2.856919 1_555
Na8 O65 2.505638 1_555
Na8 O70 2.574306 1_555
Na8 O69 2.630430 1_555
Na8 O63 2.835619 1_555
Na8 O71 2.925560 1_555
Na8 O64 2.936121 1_555
Hf0 O4 1.918041 1_455
Hf0 O3 1.980968 1_565
Hf0 O41 2.036883 1_455
Hf0 O40 2.137785 1_555
Hf0 O5 2.166728 1_465
Hf0 O39 2.305662 1_565
Hf1 O7 1.926723 1_555
Hf1 O8 2.014341 1_545
Hf1 O42 2.038867 1_455
Hf1 O43 2.191090 1_555
Hf1 O6 2.213671 1_445
Hf1 O44 2.328551 1_445
Hf2 O47 1.958963 1_555
Hf2 O45 2.033613 1_445
Hf2 O10 2.033633 1_555
Hf2 O11 2.164471 1_545
Hf2 O46 2.180507 1_455
Hf2 O9 2.329482 1_445
Hf3 O19 1.924964 1_556
Hf3 O18 1.939801 1_556
Hf3 O54 1.992824 1_555
Hf3 O55 2.333938 1_555
Hf3 O56 2.337384 1_555
Hf3 O20 2.337669 1_556
Hf4 O57 1.975097 1_555
Hf4 O23 1.992782 1_555
Hf4 O58 2.019852 1_555
Hf4 O21 2.108615 1_555
Hf4 O59 2.238801 1_555
Hf4 O22 2.283599 1_555
Hf5 O60 1.946210 1_555
Hf5 O24 1.982637 1_554
Hf5 O61 1.994345 1_555
Hf5 O62 2.120808 1_555
Hf5 O25 2.152839 1_554
Hf5 O26 2.253046 1_554
Hf6 O28 1.922567 1_555
Hf6 O27 1.970480 1_555
Hf6 O65 2.012523 1_555
Hf6 O64 2.111544 1_555
Hf6 O29 2.143022 1_555
Hf6 O63 2.264704 1_555
Hf7 O32 1.957473 1_555
Hf7 O31 1.984586 1_555
Hf7 O68 2.071632 1_555
Hf7 O67 2.160836 1_555
Hf7 O30 2.178780 1_555
Hf7 O66 2.281088 1_555
Hf8 O69 1.975909 1_555
Hf8 O35 2.000069 1_555
Hf8 O70 2.022926 1_555
Hf8 O33 2.099194 1_555
Hf8 O34 2.228422 1_555
Hf8 O71 2.244274 1_555
O0 S0 1.468482 1_545
O0 Y0 2.290351 1_455
O1 S1 1.463102 1_555
O1 Y0 2.265790 1_565
O2 Si0 1.623505 1_655
O2 Y0 2.087276 1_555
O3 Si1 1.617254 1_555
O4 Si2 1.646613 1_655
O5 S2 1.465801 1_545
O6 S2 1.488762 1_555
O7 Si1 1.649100 1_555
O8 Si2 1.638862 1_555
O9 S1 1.462590 1_555
O10 Si0 1.678177 1_555
O11 S0 1.493170 1_555
O12 Si3 1.607417 1_555
O12 Y1 2.084176 1_555
O13 S3 1.463891 1_555
O13 Y1 2.337279 1_555
O14 S4 1.476020 1_555
O14 Y1 2.315535 1_555
O15 Si4 1.603300 1_555
O15 Y2 2.068214 1_555
O16 S5 1.468620 1_555
O16 Y2 2.272798 1_555
O17 Si5 1.607270 1_555
O17 Y2 2.213693 1_555
O18 Si5 1.650598 1_555
O19 Si4 1.660109 1_555
O20 S5 1.469510 1_555
O21 S3 1.498766 1_555
O22 S4 1.477999 1_555
O23 Si3 1.663900 1_555
O24 Si6 1.620026 1_555
O25 S6 1.471444 1_555
O26 S7 1.465810 1_555
O27 Si7 1.611069 1_555
O28 Si8 1.633585 1_555
O29 S8 1.459279 1_555
O30 S8 1.498774 1_555
O31 Si7 1.644271 1_555
O32 Si8 1.663421 1_555
O33 S6 1.505587 1_555
O34 S7 1.487475 1_555
O35 Si6 1.653520 1_555
O36 S8 1.456718 1_555
O36 Y0 2.351141 1_465
O37 Si7 1.622365 1_555
O37 Y0 2.176214 1_565
O38 Si8 1.618020 1_555
O38 Y0 2.181550 1_455
O39 S6 1.474458 1_555
O40 S7 1.503404 1_555
O41 Si6 1.642977 1_555
O42 Si3 1.659808 1_555
O43 S3 1.495000 1_555
O44 S4 1.480713 1_555
O45 Si4 1.642579 1_555
O46 S5 1.492173 1_555
O47 Si5 1.650836 1_555
O48 S2 1.463931 1_545
O48 Y1 2.319109 1_555
O49 Si1 1.615894 1_555
O49 Y1 2.267528 1_555
O50 Si2 1.627514 1_655
O50 Y1 2.163256 1_555
O51 S1 1.484480 1_555
O51 Y2 2.370968 1_555
O52 Si0 1.615768 1_655
O52 Y2 2.167310 1_555
O53 S0 1.476750 1_545
O53 Y2 2.453454 1_555
O54 Si6 1.663697 1_555
O55 S6 1.476093 1_655
O56 S7 1.479653 1_545
O57 Si7 1.673708 1_545
O58 Si8 1.622663 1_555
O59 S8 1.497554 1_655
O60 Si5 1.642174 1_555
O61 Si4 1.633882 1_455
O62 S5 1.489834 1_565
O63 S3 1.471348 1_565
O64 S4 1.496716 1_555
O65 Si3 1.644331 1_455
O66 S0 1.491164 1_555
O67 S1 1.520485 1_555
O68 Si0 1.683174 1_555
O69 Si1 1.672954 1_555
O70 Si2 1.635739 1_555
O71 S2 1.500698 1_555
