# generated using pymatgen
data_Na5La3Hf(PO4)6
_symmetry_space_group_name_H-M   'P 1'
_cell_length_a   9.44409080
_cell_length_b   9.45280502
_cell_length_c   23.38794191
_cell_angle_alpha   89.70182183
_cell_angle_beta   89.99193877
_cell_angle_gamma   120.00693128
_symmetry_Int_Tables_number   1
_chemical_formula_structural   Na5La3Hf(PO4)6
_chemical_formula_sum   'Na15 La9 Hf3 P18 O72'
_cell_volume   1808.02776013
_cell_formula_units_Z   3
loop_
 _symmetry_equiv_pos_site_id
 _symmetry_equiv_pos_as_xyz
  1  'x, y, z'
loop_
 _atom_site_type_symbol
 _atom_site_label
 _atom_site_symmetry_multiplicity
 _atom_site_fract_x
 _atom_site_fract_y
 _atom_site_fract_z
 _atom_site_occupancy
  Na  Na0  1  0.64516464  0.00306816  0.26175515  1
  Na  Na1  1  0.36271477  0.36010694  0.26006336  1
  Na  Na2  1  0.99231642  0.63274815  0.26118370  1
  Na  Na3  1  0.66563418  0.66270971  0.75368591  1
  Na  Na4  1  0.99231709  0.34951976  0.75356372  1
  Na  Na5  1  0.03692419  0.70172430  0.57270426  1
  Na  Na6  1  0.66661767  0.96834620  0.57238953  1
  Na  Na7  1  0.66210998  0.69497202  0.07111485  1
  Na  Na8  1  0.04040974  0.33605540  0.07072344  1
  Na  Na9  1  0.02203433  0.01872159  0.49714370  1
  Na  Na10  1  0.02774529  0.00330970  0.99677641  1
  Na  Na11  1  0.64844485  0.31837689  0.83897028  1
  Na  Na12  1  0.66633533  0.33127146  0.34733926  1
  Na  Na13  1  0.33731261  0.68578439  0.17274374  1
  Na  Na14  1  0.33543148  0.67279796  0.66963268  1
  La  La0  1  0.99341344  0.99562042  0.35488978  1
  La  La1  1  0.00191281  0.99872089  0.85370407  1
  La  La2  1  0.01675288  0.00816297  0.65336048  1
  La  La3  1  0.01164835  0.00079458  0.14530381  1
  La  La4  1  0.64639899  0.32355750  0.68397709  1
  La  La5  1  0.65740644  0.32348724  0.17672732  1
  La  La6  1  0.33267749  0.67839216  0.00848285  1
  La  La7  1  0.33237887  0.64824897  0.51468672  1
  La  La8  1  0.33382256  0.66172510  0.33260042  1
  Hf  Hf0  1  0.66319696  0.32975893  0.97901249  1
  Hf  Hf1  1  0.66100037  0.33304735  0.48593766  1
  Hf  Hf2  1  0.33240208  0.67472917  0.82505737  1
  P  P0  1  0.30448133  0.98860411  0.25179857  1
  P  P1  1  0.68774948  0.69621580  0.24350607  1
  P  P2  1  0.00997603  0.31251649  0.24425301  1
  P  P3  1  0.30470698  0.33154160  0.75554427  1
  P  P4  1  0.01314165  0.69302534  0.74830601  1
  P  P5  1  0.68372032  0.98311048  0.74902946  1
  P  P6  1  0.94990789  0.32324114  0.58669221  1
  P  P7  1  0.36109608  0.03104673  0.57942584  1
  P  P8  1  0.67977172  0.63923595  0.58529813  1
  P  P9  1  0.95255885  0.62702720  0.07856553  1
  P  P10  1  0.67882831  0.03976938  0.07788440  1
  P  P11  1  0.36517391  0.32955138  0.07684832  1
  P  P12  1  0.62275351  0.64318917  0.91896901  1
  P  P13  1  0.02003159  0.37495287  0.92000004  1
  P  P14  1  0.35656286  0.98572787  0.91861032  1
  P  P15  1  0.64797327  0.99532018  0.42175493  1
  P  P16  1  0.34693679  0.34736091  0.41280272  1
  P  P17  1  0.00602991  0.65322682  0.42167491  1
  O  O0  1  0.21012406  0.00377121  0.30250909  1
  O  O1  1  0.80846958  0.79420070  0.29178792  1
  O  O2  1  0.99088803  0.19264289  0.29269989  1
  O  O3  1  0.21753181  0.21620423  0.80518646  1
  O  O4  1  0.96876881  0.78781088  0.79126506  1
  O  O5  1  0.81586656  0.01571531  0.79379728  1
  O  O6  1  0.74245469  0.94903096  0.69078491  1
  O  O7  1  0.20846465  0.25647520  0.69919237  1
  O  O8  1  0.04213518  0.77670613  0.68856667  1
  O  O9  1  0.76140497  0.78162630  0.18517231  1
  O  O10  1  0.02479071  0.24119875  0.18614195  1
  O  O11  1  0.21265215  0.97789020  0.19538159  1
  O  O12  1  0.87933678  0.32508683  0.64614090  1
  O  O13  1  0.43927535  0.10856799  0.63720590  1
  O  O14  1  0.67082693  0.56413327  0.64498242  1
  O  O15  1  0.87848092  0.55647812  0.13833252  1
  O  O16  1  0.67297522  0.10725123  0.13771013  1
  O  O17  1  0.43192821  0.32180464  0.13678823  1
  O  O18  1  0.48234522  0.32902856  0.02980668  1
  O  O19  1  0.83510175  0.50794488  0.03166113  1
  O  O20  1  0.66964777  0.15319931  0.03063095  1
  O  O21  1  0.47148631  0.14374546  0.53033362  1
  O  O22  1  0.66837314  0.51689276  0.53795436  1
  O  O23  1  0.83073212  0.32127491  0.53948838  1
  O  O24  1  0.56132028  0.66501882  0.97731252  1
  O  O25  1  0.10373925  0.43391893  0.97847031  1
  O  O26  1  0.33492731  0.90511827  0.97719905  1
  O  O27  1  0.54800102  0.88219026  0.47194065  1
  O  O28  1  0.33043055  0.46368192  0.45487682  1
  O  O29  1  0.11830294  0.66746435  0.47215104  1
  O  O30  1  0.08098415  0.63953265  0.36357313  1
  O  O31  1  0.56333467  0.91834597  0.36330717  1
  O  O32  1  0.35927337  0.42075409  0.35202306  1
  O  O33  1  0.13426437  0.50197638  0.87275980  1
  O  O34  1  0.36307529  0.87075672  0.87111556  1
  O  O35  1  0.50165315  0.63777954  0.87092193  1
  O  O36  1  0.97869003  0.80059887  0.42206935  1
  O  O37  1  0.82353533  0.02367033  0.42342337  1
  O  O38  1  0.20111345  0.17390653  0.41950891  1
  O  O39  1  0.99177859  0.20370522  0.90799406  1
  O  O40  1  0.21320134  0.01502529  0.90893936  1
  O  O41  1  0.79591430  0.78643518  0.90832191  1
  O  O42  1  0.95819565  0.16380844  0.58021632  1
  O  O43  1  0.18676365  0.00792865  0.57503109  1
  O  O44  1  0.84591224  0.80130201  0.57860774  1
  O  O45  1  0.95865073  0.79333273  0.07003409  1
  O  O46  1  0.84532602  0.04431467  0.07058035  1
  O  O47  1  0.19079932  0.18116571  0.06886887  1
  O  O48  1  0.65964492  0.13338299  0.74827484  1
  O  O49  1  0.48700092  0.37619501  0.75276385  1
  O  O50  1  0.86855468  0.51250822  0.74802374  1
  O  O51  1  0.65840836  0.51828190  0.24620301  1
  O  O52  1  0.85734966  0.33589159  0.24661126  1
  O  O53  1  0.48158279  0.13980685  0.25182931  1
  O  O54  1  0.62558418  0.47936789  0.91935921  1
  O  O55  1  0.85268811  0.37139358  0.92092472  1
  O  O56  1  0.52155851  0.15030666  0.91772158  1
  O  O57  1  0.65538250  0.16302189  0.42794907  1
  O  O58  1  0.50838583  0.34736589  0.42534225  1
  O  O59  1  0.83816852  0.49334392  0.42931382  1
  O  O60  1  0.35669153  0.48968153  0.07509832  1
  O  O61  1  0.12121029  0.63774436  0.07608449  1
  O  O62  1  0.53716577  0.86062716  0.07516043  1
  O  O63  1  0.34896082  0.86051609  0.57767176  1
  O  O64  1  0.53815867  0.67725562  0.58073602  1
  O  O65  1  0.11830576  0.48138652  0.58125146  1
  O  O66  1  0.31633731  0.83009204  0.25620899  1
  O  O67  1  0.52148909  0.69111332  0.25223523  1
  O  O68  1  0.16681125  0.48237295  0.25260478  1
  O  O69  1  0.30247669  0.49590793  0.76373424  1
  O  O70  1  0.17070651  0.68755421  0.76587562  1
  O  O71  1  0.52017313  0.82268033  0.76509297  1
loop_
_geom_bond_atom_site_label_1
_geom_bond_atom_site_label_2
_geom_bond_distance
_geom_bond_site_symmetry_2
Na0 O53 2.470937 1_555
Na0 O31 2.498064 1_545
Na0 O67 2.582912 1_545
Na0 O66 2.694040 1_545
Na0 O52 2.778755 1_555
Na0 O2 2.925328 1_555
Na0 O16 3.027690 1_555
Na1 O32 2.233132 1_555
Na1 O51 2.440794 1_555
Na1 O68 2.631716 1_555
Na1 O67 2.715403 1_555
Na1 O53 2.824234 1_555
Na2 O52 2.459215 1_555
Na2 O30 2.527501 1_655
Na2 O68 2.668786 1_655
Na2 O66 2.673118 1_655
Na2 O51 2.798080 1_555
Na2 O1 2.918493 1_555
Na2 O15 3.029560 1_555
Na3 O49 2.369040 1_555
Na3 O71 2.515331 1_555
Na3 O4 2.644251 1_555
Na3 O14 2.721135 1_555
Na3 O6 2.830223 1_555
Na3 O50 2.903349 1_555
Na4 O50 2.357082 1_555
Na4 O69 2.549693 1_655
Na4 O12 2.695233 1_555
Na4 O48 2.764559 1_555
Na4 O70 2.785119 1_655
Na4 O5 2.885866 1_555
Na4 O7 2.892109 1_655
Na5 O44 2.420522 1_455
Na5 O43 2.507659 1_565
Na5 O29 2.546088 1_555
Na5 O63 2.555077 1_555
Na5 O65 2.562344 1_555
Na5 O8 2.798726 1_555
Na6 O64 2.395155 1_555
Na6 O42 2.438212 1_565
Na6 O27 2.558415 1_555
Na6 O63 2.644652 1_555
Na6 O44 2.837898 1_555
Na6 O6 2.887886 1_555
Na6 O23 2.987548 1_565
Na7 O24 2.353009 1_554
Na7 O62 2.388099 1_555
Na7 O45 2.470534 1_555
Na7 O60 2.548283 1_555
Na7 O9 2.814502 1_555
Na7 O46 2.860686 1_565
Na8 O25 2.300922 1_554
Na8 O46 2.432662 1_455
Na8 O47 2.498683 1_555
Na8 O61 2.560848 1_555
Na8 O60 2.589305 1_555
Na8 O10 2.820449 1_555
Na9 O38 2.408106 1_555
Na9 O43 2.430351 1_555
Na9 O37 2.564568 1_455
Na9 O36 2.587570 1_445
Na9 O42 2.621780 1_455
Na9 O44 2.675778 1_445
Na10 O47 2.341264 1_556
Na10 O45 2.443336 1_446
Na10 O46 2.602262 1_456
Na10 O40 2.665101 1_555
Na10 O39 2.935672 1_455
Na10 O41 2.971902 1_445
Na11 O56 2.327468 1_555
Na11 O54 2.501145 1_555
Na11 O55 2.586475 1_555
Na11 O49 2.740675 1_555
Na11 O48 2.791440 1_555
Na11 O50 2.890624 1_555
Na12 O58 2.409476 1_555
Na12 O57 2.428725 1_555
Na12 O59 2.490199 1_555
Na12 O53 2.862592 1_555
Na12 O52 2.953809 1_555
Na12 O51 2.968921 1_555
Na13 O66 2.451233 1_555
Na13 O67 2.529553 1_555
Na13 O68 2.577521 1_555
Na13 O62 2.888283 1_555
Na13 O61 2.926949 1_555
Na13 O60 3.011388 1_555
Na14 O69 2.679085 1_555
Na14 O63 2.743047 1_555
Na14 O71 2.756365 1_555
Na14 O70 2.779492 1_555
Na14 O64 2.812000 1_555
Na14 O65 2.842613 1_555
La0 O0 2.352882 1_665
La0 O1 2.357463 1_555
La0 O36 2.366405 1_555
La0 O2 2.366633 1_565
La0 O37 2.375409 1_565
La0 O38 2.385958 1_665
La1 O5 2.314461 1_465
La1 O40 2.317225 1_565
La1 O3 2.334205 1_565
La1 O41 2.347608 1_455
La1 O39 2.363691 1_465
La1 O4 2.368874 1_455
La2 O7 2.390123 1_555
La2 O43 2.436557 1_555
La2 O8 2.455263 1_545
La2 O42 2.486940 1_455
La2 O6 2.516983 1_445
La2 O44 2.522737 1_445
La3 O11 2.330501 1_545
La3 O9 2.414318 1_445
La3 O10 2.415035 1_555
La3 O47 2.459156 1_555
La3 O45 2.499971 1_445
La3 O46 2.516020 1_455
La4 O13 2.280475 1_555
La4 O14 2.347378 1_555
La4 O12 2.364378 1_555
La4 O48 2.388629 1_555
La4 O49 2.420481 1_555
La4 O50 2.473134 1_555
La5 O16 2.313525 1_555
La5 O17 2.318215 1_555
La5 O15 2.322869 1_555
La5 O53 2.437399 1_555
La5 O52 2.456046 1_555
La5 O51 2.458593 1_555
La6 O26 2.251046 1_554
La6 O24 2.341721 1_554
La6 O25 2.351102 1_554
La6 O62 2.414593 1_555
La6 O61 2.420978 1_555
La6 O60 2.456972 1_555
La7 O28 2.234784 1_555
La7 O29 2.340115 1_555
La7 O27 2.347083 1_555
La7 O64 2.389675 1_555
La7 O65 2.404778 1_555
La7 O63 2.436633 1_555
La8 O30 2.401537 1_555
La8 O31 2.420310 1_555
La8 O66 2.446569 1_555
La8 O32 2.447368 1_555
La8 O68 2.494334 1_555
La8 O67 2.500467 1_555
Hf0 O19 2.067853 1_556
Hf0 O18 2.077515 1_556
Hf0 O20 2.080245 1_556
Hf0 O56 2.116115 1_555
Hf0 O55 2.119533 1_555
Hf0 O54 2.134191 1_555
Hf1 O21 2.064050 1_555
Hf1 O59 2.071720 1_555
Hf1 O58 2.073124 1_555
Hf1 O23 2.080388 1_555
Hf1 O57 2.088720 1_555
Hf1 O22 2.099051 1_555
Hf2 O34 2.040075 1_555
Hf2 O33 2.082542 1_555
Hf2 O35 2.093461 1_555
Hf2 O70 2.108671 1_555
Hf2 O69 2.131129 1_555
Hf2 O71 2.136764 1_555
O0 P0 1.533147 1_545
O1 P1 1.545275 1_555
O2 P2 1.543576 1_655
O3 P3 1.517640 1_555
O4 P4 1.540352 1_655
O5 P5 1.538755 1_545
O6 P5 1.565309 1_555
O7 P3 1.559370 1_555
O8 P4 1.557096 1_555
O9 P1 1.556787 1_555
O10 P2 1.557250 1_555
O11 P0 1.554751 1_555
O12 P6 1.545731 1_555
O13 P7 1.541984 1_555
O14 P8 1.545743 1_555
O15 P9 1.552890 1_555
O16 P10 1.553146 1_555
O17 P11 1.553514 1_555
O18 P11 1.562106 1_555
O19 P9 1.570119 1_555
O20 P10 1.568201 1_555
O21 P7 1.554393 1_555
O22 P8 1.569696 1_555
O23 P6 1.570213 1_555
O24 P12 1.537400 1_555
O25 P13 1.540520 1_555
O26 P14 1.527527 1_555
O27 P15 1.545779 1_555
O28 P16 1.544118 1_555
O29 P17 1.547681 1_555
O30 P17 1.567678 1_555
O31 P15 1.570321 1_555
O32 P16 1.557058 1_555
O33 P13 1.586354 1_555
O34 P14 1.580571 1_555
O35 P12 1.586140 1_555
O36 P17 1.538611 1_655
O37 P15 1.542105 1_545
O38 P16 1.532424 1_555
O39 P13 1.530750 1_655
O40 P14 1.528210 1_545
O41 P12 1.533433 1_555
O42 P6 1.555870 1_555
O43 P7 1.552226 1_555
O44 P8 1.557734 1_555
O45 P9 1.555874 1_555
O46 P10 1.560706 1_555
O47 P11 1.551347 1_555
O48 P5 1.546805 1_545
O49 P3 1.555361 1_555
O50 P4 1.563955 1_655
O51 P1 1.562856 1_555
O52 P2 1.564678 1_655
O53 P0 1.565014 1_545
O54 P12 1.562091 1_555
O55 P13 1.563996 1_655
O56 P14 1.556849 1_545
O57 P15 1.558958 1_545
O58 P16 1.552705 1_555
O59 P17 1.558821 1_655
O60 P11 1.555621 1_555
O61 P9 1.545650 1_455
O62 P10 1.548121 1_565
O63 P7 1.558603 1_565
O64 P8 1.552288 1_555
O65 P6 1.549268 1_455
O66 P0 1.560299 1_555
O67 P1 1.559976 1_555
O68 P2 1.560346 1_555
O69 P3 1.577028 1_555
O70 P4 1.569320 1_555
O71 P5 1.574067 1_555
