# generated using pymatgen
data_SrFeF5
_symmetry_space_group_name_H-M   'P 1'
_cell_length_a   7.25782243
_cell_length_b   7.03332501
_cell_length_c   14.67240953
_cell_angle_alpha   84.85629800
_cell_angle_beta   90.00000000
_cell_angle_gamma   90.00000000
_symmetry_Int_Tables_number   1
_chemical_formula_structural   SrFeF5
_chemical_formula_sum   'Sr8 Fe8 F40'
_cell_volume   745.96082181
_cell_formula_units_Z   8
loop_
 _symmetry_equiv_pos_site_id
 _symmetry_equiv_pos_as_xyz
  1  'x, y, z'
loop_
 _atom_site_type_symbol
 _atom_site_label
 _atom_site_symmetry_multiplicity
 _atom_site_fract_x
 _atom_site_fract_y
 _atom_site_fract_z
 _atom_site_occupancy
  Sr  Sr0  1  0.15226750  0.99932214  0.63853509  1
  Sr  Sr1  1  0.65226750  0.00067786  0.86146491  1
  Sr  Sr2  1  0.84773250  0.00067786  0.36146491  1
  Sr  Sr3  1  0.34773250  0.99932214  0.13853509  1
  Sr  Sr4  1  0.65706056  0.31104163  0.58715408  1
  Sr  Sr5  1  0.15706056  0.68895837  0.91284592  1
  Sr  Sr6  1  0.34293944  0.68895837  0.41284592  1
  Sr  Sr7  1  0.84293944  0.31104163  0.08715408  1
  Fe  Fe0  1  0.18274425  0.18879676  0.87519539  1
  Fe  Fe1  1  0.68274425  0.81120324  0.62480461  1
  Fe  Fe2  1  0.81725575  0.81120324  0.12480461  1
  Fe  Fe3  1  0.31725575  0.18879676  0.37519539  1
  Fe  Fe4  1  0.11953564  0.49287553  0.66128981  1
  Fe  Fe5  1  0.61953564  0.50712447  0.83871019  1
  Fe  Fe6  1  0.88046436  0.50712447  0.33871019  1
  Fe  Fe7  1  0.38046436  0.49287553  0.16128981  1
  F  F0  1  0.32458532  0.04076761  0.96576310  1
  F  F1  1  0.82458532  0.95923239  0.53423690  1
  F  F2  1  0.67541468  0.95923239  0.03423690  1
  F  F3  1  0.17541468  0.04076761  0.46576310  1
  F  F4  1  0.07709256  0.34728726  0.96028423  1
  F  F5  1  0.57709256  0.65271274  0.53971577  1
  F  F6  1  0.92290744  0.65271274  0.03971577  1
  F  F7  1  0.42290744  0.34728726  0.46028423  1
  F  F8  1  0.36205493  0.39632410  0.85363766  1
  F  F9  1  0.86205493  0.60367590  0.64636234  1
  F  F10  1  0.63794507  0.60367590  0.14636234  1
  F  F11  1  0.13794507  0.39632410  0.35363766  1
  F  F12  1  0.31091764  0.02941641  0.79335776  1
  F  F13  1  0.81091764  0.97058359  0.70664224  1
  F  F14  1  0.68908236  0.97058359  0.20664224  1
  F  F15  1  0.18908236  0.02941641  0.29335776  1
  F  F16  1  0.50072726  0.30381921  0.09387606  1
  F  F17  1  0.00072726  0.69618079  0.40612394  1
  F  F18  1  0.49927274  0.69618079  0.90612394  1
  F  F19  1  0.99927274  0.30381921  0.59387606  1
  F  F20  1  0.30371632  0.68249241  0.06823515  1
  F  F21  1  0.80371632  0.31750759  0.43176485  1
  F  F22  1  0.69628368  0.31750759  0.93176485  1
  F  F23  1  0.19628368  0.68249241  0.56823515  1
  F  F24  1  0.34045643  0.68731222  0.24269944  1
  F  F25  1  0.84045643  0.31268778  0.25730056  1
  F  F26  1  0.65954357  0.31268778  0.75730056  1
  F  F27  1  0.15954357  0.68731222  0.74269944  1
  F  F28  1  0.44996626  0.31450300  0.27033962  1
  F  F29  1  0.94996626  0.68549700  0.22966038  1
  F  F30  1  0.55003374  0.68549700  0.72966038  1
  F  F31  1  0.05003374  0.31450300  0.77033962  1
  F  F32  1  0.16751506  0.34359984  0.15095224  1
  F  F33  1  0.66751506  0.65640016  0.34904776  1
  F  F34  1  0.83248494  0.65640016  0.84904776  1
  F  F35  1  0.33248494  0.34359984  0.65095224  1
  F  F36  1  0.51101494  0.00277149  0.39125100  1
  F  F37  1  0.01101494  -0.00277149  0.10874900  1
  F  F38  1  0.48898506  -0.00277149  0.60874900  1
  F  F39  1  0.98898506  0.00277149  0.89125100  1
loop_
_geom_bond_atom_site_label_1
_geom_bond_atom_site_label_2
_geom_bond_distance
_geom_bond_site_symmetry_2
F0 Fe0 1.913507 1_555
F0 Sr3 2.531171 1_546
F0 Sr1 2.855666 1_555
F0 Sr5 2.923737 1_545
F1 Fe1 1.913507 1_555
F1 Sr2 2.531171 1_565
F1 Sr0 2.855666 1_655
F1 Sr4 2.923737 1_565
F2 Fe2 1.913507 1_555
F2 Sr1 2.531171 1_564
F2 Sr3 2.855666 1_555
F2 Sr7 2.923737 1_565
F3 Fe3 1.913507 1_555
F3 Sr0 2.531171 1_545
F3 Sr2 2.855666 1_455
F3 Sr6 2.923737 1_545
F4 Fe0 1.907554 1_555
F4 Sr5 2.509226 1_555
F4 Sr7 2.516572 1_456
F5 Fe1 1.907554 1_555
F5 Sr4 2.509226 1_555
F5 Sr6 2.516572 1_555
F6 Fe2 1.907554 1_555
F6 Sr7 2.509226 1_555
F6 Sr5 2.516572 1_654
F7 Fe3 1.907554 1_555
F7 Sr6 2.509226 1_555
F7 Sr4 2.516572 1_555
F8 Fe0 1.959942 1_555
F8 Fe5 2.029012 1_555
F8 Sr5 2.743179 1_555
F9 Fe1 1.959942 1_555
F9 Fe4 2.029012 1_655
F9 Sr4 2.743179 1_555
F10 Fe2 1.959942 1_555
F10 Fe7 2.029012 1_555
F10 Sr7 2.743179 1_555
F11 Fe3 1.959942 1_555
F11 Fe6 2.029012 1_455
F11 Sr6 2.743179 1_555
F12 Fe0 1.950674 1_555
F12 Sr0 2.572378 1_545
F12 Sr1 2.672269 1_555
F12 Sr5 3.049871 1_545
F13 Fe1 1.950674 1_555
F13 Sr1 2.572378 1_565
F13 Sr0 2.672269 1_655
F13 Sr4 3.049871 1_565
F14 Fe2 1.950674 1_555
F14 Sr2 2.572378 1_565
F14 Sr3 2.672269 1_555
F14 Sr7 3.049871 1_565
F15 Fe3 1.950674 1_555
F15 Sr3 2.572378 1_545
F15 Sr2 2.672269 1_455
F15 Sr6 3.049871 1_545
F16 Fe7 1.934979 1_555
F16 Sr3 2.448940 1_545
F16 Sr7 2.486011 1_555
F17 Fe6 1.934979 1_455
F17 Sr2 2.448940 1_465
F17 Sr6 2.486011 1_555
F18 Fe5 1.934979 1_555
F18 Sr1 2.448940 1_565
F18 Sr5 2.486011 1_555
F19 Fe4 1.934979 1_655
F19 Sr0 2.448940 1_645
F19 Sr4 2.486011 1_555
F20 Fe7 1.904340 1_555
F20 Sr5 2.512872 1_554
F20 Sr3 2.558074 1_555
F21 Fe6 1.904340 1_555
F21 Sr4 2.512872 1_555
F21 Sr2 2.558074 1_555
F22 Fe5 1.904340 1_555
F22 Sr7 2.512872 1_556
F22 Sr1 2.558074 1_555
F23 Fe4 1.904340 1_555
F23 Sr6 2.512872 1_555
F23 Sr0 2.558074 1_555
F24 Fe7 1.916805 1_555
F24 Sr6 2.497588 1_555
F24 Sr3 2.559868 1_555
F25 Fe6 1.916805 1_555
F25 Sr7 2.497588 1_555
F25 Sr2 2.559868 1_555
F26 Fe5 1.916805 1_555
F26 Sr4 2.497588 1_555
F26 Sr1 2.559868 1_555
F27 Fe4 1.916805 1_555
F27 Sr5 2.497588 1_555
F27 Sr0 2.559868 1_555
F28 Fe3 1.957669 1_555
F28 Fe7 2.007113 1_555
F29 Fe2 1.957669 1_555
F29 Fe6 2.007113 1_555
F30 Fe1 1.957669 1_555
F30 Fe5 2.007113 1_555
F31 Fe0 1.957669 1_555
F31 Fe4 2.007113 1_555
F32 Fe7 1.882174 1_555
F32 Sr7 2.552741 1_455
F32 Sr3 2.772433 1_545
F33 Fe6 1.882174 1_555
F33 Sr6 2.552741 1_555
F33 Sr2 2.772433 1_565
F34 Fe5 1.882174 1_555
F34 Sr5 2.552741 1_655
F34 Sr1 2.772433 1_565
F35 Fe4 1.882174 1_555
F35 Sr4 2.552741 1_555
F35 Sr0 2.772433 1_545
F36 Fe3 1.920852 1_555
F36 Sr2 2.482882 1_555
F36 Sr6 2.516857 1_545
F37 Fe2 1.920852 1_445
F37 Sr3 2.482882 1_545
F37 Sr7 2.516857 1_455
F38 Fe1 1.920852 1_545
F38 Sr0 2.482882 1_545
F38 Sr4 2.516857 1_555
F39 Fe0 1.920852 1_655
F39 Sr1 2.482882 1_555
F39 Sr5 2.516857 1_645
