# generated using pymatgen
data_KMnAs
_symmetry_space_group_name_H-M   'P 1'
_cell_length_a   4.37186700
_cell_length_b   4.37186700
_cell_length_c   7.97463100
_cell_angle_alpha   90.00000000
_cell_angle_beta   90.00000000
_cell_angle_gamma   90.00000000
_symmetry_Int_Tables_number   1
_chemical_formula_structural   KMnAs
_chemical_formula_sum   'K2 Mn2 As2'
_cell_volume   152.42088522
_cell_formula_units_Z   2
loop_
 _symmetry_equiv_pos_site_id
 _symmetry_equiv_pos_as_xyz
  1  'x, y, z'
loop_
 _atom_site_type_symbol
 _atom_site_label
 _atom_site_symmetry_multiplicity
 _atom_site_fract_x
 _atom_site_fract_y
 _atom_site_fract_z
 _atom_site_occupancy
  K  K0  1  0.50000000  0.00000000  0.65285800  1
  K  K1  1  0.00000000  0.50000000  0.34714200  1
  Mn  Mn0  1  0.50000000  0.50000000  0.00000000  1
  Mn  Mn1  1  0.00000000  0.00000000  0.00000000  1
  As  As0  1  0.50000000  0.00000000  0.17073500  1
  As  As1  1  0.00000000  0.50000000  0.82926500  1
loop_
_geom_bond_atom_site_label_1
_geom_bond_atom_site_label_2
_geom_bond_distance
_geom_bond_site_symmetry_2
K0 Mn0 3.527315 1_556
K0 Mn1 3.527315 1_656
K0 Mn0 3.527315 1_546
K0 Mn1 3.527315 1_556
K1 Mn1 3.527315 1_555
K1 Mn0 3.527315 1_555
K1 Mn0 3.527315 1_455
K1 Mn1 3.527315 1_565
As0 Mn1 2.575290 1_655
As0 Mn0 2.575290 1_555
As0 Mn1 2.575290 1_555
As0 Mn0 2.575290 1_545
As0 K1 3.396416 1_655
As0 K1 3.396416 1_645
As0 K1 3.396416 1_555
As0 K1 3.396416 1_545
As0 K0 3.844753 1_555
As1 Mn1 2.575290 1_556
As1 Mn0 2.575290 1_456
As1 Mn1 2.575290 1_566
As1 Mn0 2.575290 1_556
As1 K0 3.396416 1_455
As1 K0 3.396416 1_555
As1 K0 3.396416 1_465
As1 K0 3.396416 1_565
As1 K1 3.844753 1_555
