# generated using pymatgen
data_TiFeO3
_symmetry_space_group_name_H-M   'P 1'
_cell_length_a   5.23280200
_cell_length_b   5.29105900
_cell_length_c   7.54040100
_cell_angle_alpha   90.00000000
_cell_angle_beta   90.00000000
_cell_angle_gamma   90.00000000
_symmetry_Int_Tables_number   1
_chemical_formula_structural   TiFeO3
_chemical_formula_sum   'Ti4 Fe4 O12'
_cell_volume   208.77156596
_cell_formula_units_Z   4
loop_
 _symmetry_equiv_pos_site_id
 _symmetry_equiv_pos_as_xyz
  1  'x, y, z'
loop_
 _atom_site_type_symbol
 _atom_site_label
 _atom_site_symmetry_multiplicity
 _atom_site_fract_x
 _atom_site_fract_y
 _atom_site_fract_z
 _atom_site_occupancy
  Ti  Ti0  1  0.50000000  0.00000000  0.00000000  1
  Ti  Ti1  1  0.00000000  0.50000000  0.00000000  1
  Ti  Ti2  1  0.00000000  0.50000000  0.50000000  1
  Ti  Ti3  1  0.50000000  0.00000000  0.50000000  1
  Fe  Fe0  1  0.50799000  0.46044700  0.75000000  1
  Fe  Fe1  1  0.00799000  0.03955300  0.25000000  1
  Fe  Fe2  1  0.99201000  0.96044700  0.75000000  1
  Fe  Fe3  1  0.49201000  0.53955300  0.25000000  1
  O  O0  1  0.10524600  0.44323500  0.25000000  1
  O  O1  1  0.60524600  0.05676500  0.75000000  1
  O  O2  1  0.39475400  0.94323500  0.25000000  1
  O  O3  1  0.89475400  0.55676500  0.75000000  1
  O  O4  1  0.82319000  0.81809700  0.44328300  1
  O  O5  1  0.17681000  0.18190300  0.55671700  1
  O  O6  1  0.82319000  0.81809700  0.05671700  1
  O  O7  1  0.32319000  0.68190300  0.94328300  1
  O  O8  1  0.32319000  0.68190300  0.55671700  1
  O  O9  1  0.67681000  0.31809700  0.05671700  1
  O  O10  1  0.17681000  0.18190300  0.94328300  1
  O  O11  1  0.67681000  0.31809700  0.44328300  1
loop_
_geom_bond_atom_site_label_1
_geom_bond_atom_site_label_2
_geom_bond_distance
_geom_bond_site_symmetry_2
Fe0 O3 2.087037 1_555
Fe0 O7 2.105280 1_555
Fe0 O8 2.105280 1_555
Fe0 O1 2.195699 1_555
Fe1 O2 2.087037 1_545
Fe1 O6 2.105280 1_445
Fe1 O4 2.105280 1_445
Fe1 O0 2.195699 1_555
Fe2 O1 2.087037 1_565
Fe2 O5 2.105280 1_665
Fe2 O10 2.105280 1_665
Fe2 O3 2.195699 1_555
Fe3 O0 2.087037 1_555
Fe3 O9 2.105280 1_555
Fe3 O11 2.105280 1_555
Fe3 O2 2.195699 1_555
O0 Ti2 1.986735 1_555
O0 Ti1 1.986735 1_555
O1 Ti0 1.986735 1_556
O1 Ti3 1.986735 1_555
O2 Ti0 1.986735 1_565
O2 Ti3 1.986735 1_565
O3 Ti2 1.986735 1_655
O3 Ti1 1.986735 1_656
O4 Ti2 1.967649 1_655
O4 Ti3 1.992323 1_565
O5 Ti2 1.967649 1_555
O5 Ti3 1.992323 1_555
O6 Ti1 1.967649 1_655
O6 Ti0 1.992323 1_565
O7 Ti0 1.967649 1_566
O7 Ti1 1.992323 1_556
O8 Ti3 1.967649 1_565
O8 Ti2 1.992323 1_555
O9 Ti0 1.967649 1_555
O9 Ti1 1.992323 1_655
O10 Ti1 1.967649 1_556
O10 Ti0 1.992323 1_556
O11 Ti3 1.967649 1_555
O11 Ti2 1.992323 1_655
