# generated using pymatgen
data_MgTe4MoW3(SeS)2
_symmetry_space_group_name_H-M   'P 1'
_cell_length_a   3.39168803
_cell_length_b   3.39241506
_cell_length_c   46.60498302
_cell_angle_alpha   90.00335275
_cell_angle_beta   89.99931401
_cell_angle_gamma   120.00753837
_symmetry_Int_Tables_number   1
_chemical_formula_structural   MgTe4MoW3(SeS)2
_chemical_formula_sum   'Mg1 Te4 Mo1 W3 Se2 S2'
_cell_volume   464.36007369
_cell_formula_units_Z   1
loop_
 _symmetry_equiv_pos_site_id
 _symmetry_equiv_pos_as_xyz
  1  'x, y, z'
loop_
 _atom_site_type_symbol
 _atom_site_label
 _atom_site_symmetry_multiplicity
 _atom_site_fract_x
 _atom_site_fract_y
 _atom_site_fract_z
 _atom_site_occupancy
  Mg  Mg0  1  0.00016600  0.00008700  0.55886100  1
  Te  Te0  1  0.33333700  0.66675800  0.32232300  1
  Te  Te1  1  0.33336900  0.66672700  0.70471900  1
  Te  Te2  1  0.33328100  0.66660900  0.24134000  1
  Te  Te3  1  0.33335300  0.66668200  0.62341300  1
  Mo  Mo0  1  0.33337900  0.66667600  0.09395400  1
  W  W0  1  0.33336000  0.66663200  0.46064800  1
  W  W1  1  0.66656100  0.33331000  0.28182000  1
  W  W2  1  0.66661500  0.33333200  0.66427900  1
  Se  Se0  1  0.66666300  0.33329400  0.05852000  1
  Se  Se1  1  0.66668300  0.33336700  0.12939300  1
  S  S0  1  0.66664000  0.33326000  0.42846100  1
  S  S1  1  0.66659300  0.33326800  0.49309900  1
loop_
_geom_bond_atom_site_label_1
_geom_bond_atom_site_label_2
_geom_bond_distance
_geom_bond_site_symmetry_2
Te0 W1 2.719908 1_565
Te0 W1 2.719970 1_455
Te0 W1 2.720033 1_555
Te1 W2 2.717886 1_455
Te1 W2 2.717931 1_555
Te1 W2 2.717983 1_565
Te2 W1 2.719162 1_455
Te2 W1 2.719203 1_555
Te2 W1 2.719314 1_565
Te3 W2 2.731712 1_455
Te3 W2 2.731717 1_565
Te3 W2 2.731785 1_555
Mo0 Se0 2.561542 1_455
Mo0 Se1 2.561698 1_455
Mo0 Se0 2.561734 1_555
Mo0 Se0 2.561745 1_565
Mo0 Se1 2.561868 1_555
Mo0 Se1 2.561906 1_565
S0 W0 2.466709 1_655
S0 W0 2.466870 1_555
S0 W0 2.466924 1_545
S1 W0 2.474299 1_545
S1 W0 2.474340 1_555
S1 W0 2.474367 1_655
