# generated using pymatgen
data_PrNi2
_symmetry_space_group_name_H-M   'P 1'
_cell_length_a   5.15384031
_cell_length_b   5.15395558
_cell_length_c   5.15395547
_cell_angle_alpha   60.00138697
_cell_angle_beta   60.00065048
_cell_angle_gamma   60.00064924
_symmetry_Int_Tables_number   1
_chemical_formula_structural   PrNi2
_chemical_formula_sum   'Pr2 Ni4'
_cell_volume   96.80685512
_cell_formula_units_Z   2
loop_
 _symmetry_equiv_pos_site_id
 _symmetry_equiv_pos_as_xyz
  1  'x, y, z'
loop_
 _atom_site_type_symbol
 _atom_site_label
 _atom_site_symmetry_multiplicity
 _atom_site_fract_x
 _atom_site_fract_y
 _atom_site_fract_z
 _atom_site_occupancy
  Pr  Pr0  1  0.87499918  0.87499996  0.87499996  1
  Pr  Pr1  1  0.12500082  0.12500004  0.12500004  1
  Ni  Ni0  1  0.50000000  0.50000000  0.50000000  1
  Ni  Ni1  1  0.50000000  0.50000000  0.00000000  1
  Ni  Ni2  1  -0.00000000  0.50000000  0.50000000  1
  Ni  Ni3  1  0.50000000  -0.00000000  0.50000000  1
loop_
_geom_bond_atom_site_label_1
_geom_bond_atom_site_label_2
_geom_bond_distance
_geom_bond_site_symmetry_2
Ni0 Ni2 2.576920 1_555
Ni0 Ni2 2.576920 1_655
Ni0 Ni1 2.576978 1_555
Ni0 Ni1 2.576978 1_556
Ni0 Ni3 2.576978 1_565
Ni0 Ni3 2.576978 1_555
Ni0 Pr1 3.021760 1_655
Ni0 Pr0 3.021760 1_455
Ni0 Pr1 3.021805 1_565
Ni0 Pr0 3.021805 1_545
Ni0 Pr1 3.021805 1_556
Ni0 Pr0 3.021805 1_554
Ni1 Ni2 2.576974 1_555
Ni1 Ni2 2.576974 1_654
Ni1 Ni3 2.577032 1_555
Ni1 Ni3 2.577032 1_564
Ni1 Pr1 3.021734 1_555
Ni1 Pr0 3.021734 1_554
Ni1 Pr1 3.021739 1_655
Ni1 Pr0 3.021739 1_454
Ni1 Pr0 3.021784 1_544
Ni1 Pr1 3.021784 1_565
Ni2 Ni3 2.576974 1_555
Ni2 Ni3 2.576974 1_465
Ni2 Pr0 3.021760 1_455
Ni2 Pr1 3.021760 1_555
Ni2 Pr0 3.021811 1_454
Ni2 Pr1 3.021811 1_556
Ni2 Pr1 3.021811 1_565
Ni2 Pr0 3.021811 1_445
Ni3 Pr0 3.021734 1_545
Ni3 Pr1 3.021734 1_555
Ni3 Pr1 3.021739 1_655
Ni3 Pr0 3.021739 1_445
Ni3 Pr0 3.021784 1_544
Ni3 Pr1 3.021784 1_556
