# generated using pymatgen
data_Na2ZrTiSi(PO6)2
_symmetry_space_group_name_H-M   'P 1'
_cell_length_a   8.92333851
_cell_length_b   8.93799609
_cell_length_c   22.62387586
_cell_angle_alpha   90.01738058
_cell_angle_beta   90.02165461
_cell_angle_gamma   119.81073811
_symmetry_Int_Tables_number   1
_chemical_formula_structural   Na2ZrTiSi(PO6)2
_chemical_formula_sum   'Na12 Zr6 Ti6 Si6 P12 O72'
_cell_volume   1565.63373028
_cell_formula_units_Z   6
loop_
 _symmetry_equiv_pos_site_id
 _symmetry_equiv_pos_as_xyz
  1  'x, y, z'
loop_
 _atom_site_type_symbol
 _atom_site_label
 _atom_site_symmetry_multiplicity
 _atom_site_fract_x
 _atom_site_fract_y
 _atom_site_fract_z
 _atom_site_occupancy
  Na  Na0  1  0.00094714  0.64305526  0.24980093  1
  Na  Na1  1  0.36255987  0.99472011  0.75299725  1
  Na  Na2  1  0.66375055  0.96945177  0.58766471  1
  Na  Na3  1  0.04051526  0.33561189  0.08307720  1
  Na  Na4  1  0.96378708  0.66677344  0.91649842  1
  Na  Na5  1  0.32802052  0.02595787  0.41819880  1
  Na  Na6  1  0.00505487  0.99376394  0.50020746  1
  Na  Na7  1  0.00247607  0.99765090  0.99679990  1
  Na  Na8  1  0.66808093  0.32893375  0.83902694  1
  Na  Na9  1  0.66812588  0.33127715  0.32827369  1
  Na  Na10  1  0.36421648  0.68040601  0.16632540  1
  Na  Na11  1  0.32130962  0.64200285  0.67131671  1
  Zr  Zr0  1  0.99139153  0.00305859  0.34928378  1
  Zr  Zr1  1  0.00511236  0.99904664  0.64999975  1
  Zr  Zr2  1  0.00076754  0.99511699  0.14501657  1
  Zr  Zr3  1  0.66860881  0.33365726  0.69183861  1
  Zr  Zr4  1  0.67229094  0.34215571  0.47659600  1
  Zr  Zr5  1  0.32442962  0.66424705  0.52066943  1
  Ti  Ti0  1  0.99838391  0.00913492  0.85615046  1
  Ti  Ti1  1  0.67194869  0.33247707  0.18297725  1
  Ti  Ti2  1  0.65721739  0.32914756  0.97968227  1
  Ti  Ti3  1  0.33099050  0.67494998  0.01894315  1
  Ti  Ti4  1  0.32452663  0.65758176  0.31179232  1
  Ti  Ti5  1  0.34501539  0.67577635  0.81814482  1
  Si  Si0  1  0.00066671  0.30138422  0.24477822  1
  Si  Si1  1  0.70521195  0.99214909  0.75262773  1
  Si  Si2  1  0.37225552  0.04241227  0.58232621  1
  Si  Si3  1  0.95350134  0.61927109  0.07857206  1
  Si  Si4  1  0.33512397  0.96126659  0.91691980  1
  Si  Si5  1  0.03903172  0.66590021  0.41186739  1
  P  P0  1  0.30477830  0.00395510  0.25076808  1
  P  P1  1  0.69779310  0.69884801  0.24793487  1
  P  P2  1  0.28413622  0.29510224  0.75609725  1
  P  P3  1  0.00490321  0.71086486  0.75838724  1
  P  P4  1  0.95768258  0.33192796  0.58479170  1
  P  P5  1  0.66867401  0.62587157  0.58469852  1
  P  P6  1  0.65781580  0.04577162  0.08101572  1
  P  P7  1  0.38792477  0.34126318  0.08221581  1
  P  P8  1  0.61946846  0.66781296  0.91868192  1
  P  P9  1  0.04896467  0.38054125  0.91796222  1
  P  P10  1  0.61832796  0.94990418  0.41552247  1
  P  P11  1  0.33265367  0.37899623  0.41309968  1
  O  O0  1  0.22153121  0.02856615  0.30746883  1
  O  O1  1  0.82209075  0.78029733  0.30165601  1
  O  O2  1  0.96807967  0.17705724  0.30137172  1
  O  O3  1  0.19291920  0.17122196  0.80889564  1
  O  O4  1  0.98855484  0.80334356  0.81356617  1
  O  O5  1  0.83663775  0.01091072  0.80717267  1
  O  O6  1  0.78334767  0.97113315  0.69001156  1
  O  O7  1  0.18020711  0.21209254  0.69868646  1
  O  O8  1  0.03794355  0.82742639  0.70284461  1
  O  O9  1  0.78975761  0.81696326  0.19400768  1
  O  O10  1  0.02832960  0.21443122  0.18562157  1
  O  O11  1  0.17239577  0.96433031  0.19927678  1
  O  O12  1  0.87033128  0.35235529  0.64063359  1
  O  O13  1  0.48890011  0.13987446  0.64150900  1
  O  O14  1  0.65732189  0.52217346  0.64027410  1
  O  O15  1  0.85976124  0.49700586  0.13761139  1
  O  O16  1  0.63715946  0.13167043  0.13774539  1
  O  O17  1  0.49478227  0.35476325  0.13746560  1
  O  O18  1  0.47467654  0.31698931  0.02592451  1
  O  O19  1  0.83794623  0.52017792  0.02004648  1
  O  O20  1  0.68305851  0.16227843  0.02684956  1
  O  O21  1  0.46608206  0.14835982  0.52178229  1
  O  O22  1  0.68881049  0.53887774  0.52850330  1
  O  O23  1  0.84943841  0.31507889  0.52927703  1
  O  O24  1  0.52672702  0.68776279  0.97294633  1
  O  O25  1  0.15489147  0.45807671  0.97565443  1
  O  O26  1  0.30164403  0.82462786  0.97259661  1
  O  O27  1  0.54400199  0.85669199  0.47530453  1
  O  O28  1  0.31902002  0.46293749  0.47060462  1
  O  O29  1  0.15804078  0.69215295  0.47037635  1
  O  O30  1  0.14442480  0.65448109  0.35331312  1
  O  O31  1  0.50121415  0.84763753  0.36344013  1
  O  O32  1  0.34439474  0.48737562  0.35832288  1
  O  O33  1  0.14384133  0.50363745  0.86589513  1
  O  O34  1  0.36294988  0.86770936  0.85797302  1
  O  O35  1  0.50957161  0.64438441  0.86252655  1
  O  O36  1  0.02966112  0.84305406  0.40890292  1
  O  O37  1  0.80160301  0.97461370  0.41038289  1
  O  O38  1  0.17300570  0.19523386  0.40944644  1
  O  O39  1  0.02884005  0.19810795  0.90999079  1
  O  O40  1  0.15534195  0.96900509  0.91184628  1
  O  O41  1  0.80357509  0.82939847  0.91340094  1
  O  O42  1  0.96457518  0.16277842  0.58853212  1
  O  O43  1  0.17951802  0.01690587  0.58662798  1
  O  O44  1  0.82742261  0.81034209  0.58757366  1
  O  O45  1  0.97612033  0.81107184  0.08393767  1
  O  O46  1  0.82773008  0.03715608  0.08522429  1
  O  O47  1  0.20348269  0.17849239  0.08569079  1
  O  O48  1  0.67629203  0.16071291  0.75324594  1
  O  O49  1  0.46366240  0.30620026  0.75121972  1
  O  O50  1  0.84135786  0.53364785  0.75221577  1
  O  O51  1  0.68296382  0.52025306  0.23903458  1
  O  O52  1  0.83124071  0.32980488  0.23926701  1
  O  O53  1  0.48119932  0.16437471  0.24008916  1
  O  O54  1  0.64392361  0.50690180  0.92259594  1
  O  O55  1  0.86803157  0.36664814  0.92122942  1
  O  O56  1  0.50683789  0.15079901  0.92493954  1
  O  O57  1  0.62765527  0.12869766  0.41664156  1
  O  O58  1  0.49409804  0.35559477  0.41432712  1
  O  O59  1  0.85232498  0.49197100  0.41353433  1
  O  O60  1  0.36739222  0.50246904  0.07730649  1
  O  O61  1  0.14445824  0.62887295  0.07323104  1
  O  O62  1  0.49787504  0.86471996  0.07478592  1
  O  O63  1  0.36413448  0.85383010  0.58197500  1
  O  O64  1  0.50655565  0.64551940  0.58133261  1
  O  O65  1  0.14138149  0.48687836  0.58115183  1
  O  O66  1  0.32281125  0.84042845  0.25570725  1
  O  O67  1  0.52082670  0.68334614  0.25689255  1
  O  O68  1  0.16910847  0.49656409  0.25444961  1
  O  O69  1  0.30172939  0.47300960  0.76338279  1
  O  O70  1  0.16805428  0.69199338  0.76212758  1
  O  O71  1  0.51128292  0.82125125  0.76105613  1
loop_
_geom_bond_atom_site_label_1
_geom_bond_atom_site_label_2
_geom_bond_distance
_geom_bond_site_symmetry_2
Na0 O68 2.435274 1_555
Na0 O52 2.443928 1_455
Na0 O51 2.493601 1_455
Na0 O66 2.518094 1_555
Na0 O30 2.646022 1_555
Na0 O1 2.715754 1_455
Na0 O11 2.743769 1_555
Na0 O15 2.844983 1_455
Na1 O70 2.389052 1_555
Na1 O48 2.430822 1_565
Na1 O49 2.463546 1_565
Na1 O71 2.498845 1_555
Na1 O34 2.633387 1_555
Na1 O8 2.757518 1_555
Na1 O13 2.804646 1_565
Na1 O3 2.958741 1_565
Na2 O63 2.342026 1_555
Na2 O42 2.362213 1_565
Na2 O44 2.494116 1_555
Na2 O64 2.516445 1_555
Na2 O6 2.546130 1_555
Na2 O27 2.746828 1_555
Na3 O61 2.315961 1_555
Na3 O46 2.384899 1_455
Na3 O47 2.474041 1_555
Na3 O60 2.534638 1_555
Na3 O10 2.540028 1_555
Na3 O25 2.653106 1_554
Na4 O40 2.374742 1_655
Na4 O55 2.378809 1_555
Na4 O54 2.480497 1_555
Na4 O41 2.495522 1_555
Na4 O4 2.587607 1_555
Na4 O19 2.647027 1_556
Na4 O33 2.889267 1_655
Na4 O26 2.908140 1_655
Na5 O36 2.340263 1_545
Na5 O57 2.356327 1_555
Na5 O38 2.514468 1_555
Na5 O58 2.558025 1_555
Na5 O21 2.619661 1_555
Na5 O0 2.683187 1_555
Na5 O29 2.845993 1_545
Na5 O31 2.985440 1_545
Na6 O43 2.442613 1_565
Na6 O36 2.534252 1_555
Na6 O44 2.554912 1_455
Na6 O42 2.635676 1_465
Na6 O38 2.650718 1_565
Na6 O37 2.672643 1_455
Na7 O40 2.443194 1_555
Na7 O41 2.512695 1_455
Na7 O45 2.516969 1_456
Na7 O39 2.589596 1_565
Na7 O47 2.643269 1_566
Na7 O46 2.665994 1_466
Na8 O56 2.471711 1_555
Na8 O48 2.477950 1_555
Na8 O55 2.480894 1_555
Na8 O54 2.547687 1_555
Na8 O50 2.605289 1_555
Na8 O49 2.635043 1_555
Na9 O59 2.476688 1_555
Na9 O52 2.488950 1_555
Na9 O53 2.551393 1_555
Na9 O58 2.566449 1_555
Na9 O51 2.593547 1_555
Na9 O57 2.599689 1_555
Na10 O67 2.472502 1_555
Na10 O62 2.544744 1_555
Na10 O60 2.574702 1_555
Na10 O66 2.606835 1_555
Na10 O68 2.620353 1_555
Na10 O61 2.755305 1_555
Na11 O69 2.527893 1_555
Na11 O65 2.538457 1_555
Na11 O64 2.613198 1_555
Na11 O71 2.618679 1_555
Na11 O70 2.626764 1_555
Na11 O63 2.664521 1_555
O0 P0 1.552022 1_555
O0 Zr0 2.168027 1_455
O1 P1 1.559792 1_555
O1 Zr0 2.101041 1_565
O2 Si0 1.624375 1_655
O2 Zr0 1.989822 1_555
O3 P2 1.555893 1_555
O3 Ti0 1.938304 1_455
O4 P3 1.543475 1_655
O4 Ti0 2.039016 1_565
O5 Si1 1.652127 1_545
O5 Ti0 1.825597 1_555
O6 Si1 1.630654 1_555
O6 Zr1 2.075633 1_655
O7 P2 1.553040 1_555
O7 Zr1 2.078394 1_545
O8 P3 1.564294 1_555
O8 Zr1 2.077455 1_555
O9 P1 1.554547 1_555
O9 Zr2 2.081098 1_655
O10 Si0 1.626807 1_555
O10 Zr2 2.065498 1_545
O11 P0 1.568658 1_565
O11 Zr2 2.084692 1_555
O12 P4 1.542428 1_555
O12 Zr3 2.076698 1_555
O13 Si2 1.652793 1_555
O13 Zr3 2.025792 1_555
O14 P5 1.535468 1_555
O14 Zr3 2.092843 1_555
O15 Si3 1.664592 1_555
O15 Ti1 1.891145 1_555
O16 P6 1.552725 1_555
O16 Ti1 1.951809 1_555
O17 P7 1.539738 1_555
O17 Ti1 1.977663 1_555
O18 P7 1.560694 1_555
O18 Ti2 1.893380 1_554
O19 Si3 1.640454 1_555
O19 Ti2 1.900049 1_554
O20 P6 1.550681 1_555
O20 Ti2 1.938844 1_554
O21 Si2 1.639284 1_555
O21 Zr4 2.065126 1_555
O22 P5 1.546512 1_555
O22 Zr4 2.057510 1_555
O23 P4 1.545124 1_555
O23 Zr4 2.087332 1_555
O24 P8 1.539866 1_555
O24 Ti3 1.987279 1_556
O25 P9 1.557091 1_555
O25 Ti3 2.038377 1_556
O26 Si4 1.675074 1_555
O26 Ti3 1.818445 1_556
O27 P10 1.554096 1_555
O27 Zr5 2.121945 1_555
O28 P11 1.536406 1_555
O28 Zr5 2.105970 1_555
O29 Si5 1.638898 1_555
O29 Zr5 1.982025 1_555
O30 Si5 1.657127 1_555
O30 Ti4 1.850092 1_555
O31 P10 1.537751 1_555
O31 Ti4 2.017733 1_555
O32 P11 1.544357 1_555
O32 Ti4 1.929500 1_555
O33 P9 1.546047 1_555
O33 Ti5 2.003279 1_555
O34 Si4 1.656932 1_555
O34 Ti5 1.872551 1_555
O35 P8 1.553798 1_555
O35 Ti5 1.910965 1_555
O36 Si5 1.627989 1_555
O36 Zr0 2.113662 1_465
O37 P10 1.542061 1_555
O37 Zr0 2.101754 1_565
O38 P11 1.551572 1_555
O38 Zr0 2.158368 1_455
O39 P9 1.559566 1_555
O39 Ti0 1.988096 1_455
O40 Si4 1.643711 1_555
O40 Ti0 2.043641 1_465
O41 P8 1.562126 1_555
O41 Ti0 2.122871 1_565
O42 P4 1.545699 1_555
O42 Zr1 2.175670 1_645
O43 Si2 1.621625 1_555
O43 Zr1 2.063457 1_545
O44 P5 1.551462 1_555
O44 Zr1 2.165953 1_655
O45 Si3 1.627935 1_555
O45 Zr2 2.074256 1_655
O46 P6 1.558797 1_555
O46 Zr2 2.220544 1_645
O47 P7 1.565560 1_555
O47 Zr2 2.194368 1_545
O48 Si1 1.650233 1_545
O48 Zr3 2.104947 1_555
O49 P2 1.558999 1_555
O49 Zr3 2.182976 1_555
O50 P3 1.536086 1_655
O50 Zr3 2.166690 1_555
O51 P1 1.547880 1_555
O51 Ti1 2.066277 1_555
O52 Si0 1.657550 1_655
O52 Ti1 1.917077 1_555
O53 P0 1.532561 1_555
O53 Ti1 2.069849 1_555
O54 P8 1.560790 1_555
O54 Ti2 2.096372 1_555
O55 P9 1.558313 1_655
O55 Ti2 2.185220 1_555
O56 Si4 1.633791 1_545
O56 Ti2 1.935545 1_555
O57 P10 1.558550 1_545
O57 Zr4 2.209291 1_555
O58 P11 1.555469 1_555
O58 Zr4 2.171565 1_555
O59 Si5 1.618260 1_655
O59 Zr4 2.067221 1_555
O60 P7 1.544195 1_555
O60 Ti3 2.173573 1_555
O61 Si3 1.667409 1_455
O61 Ti3 1.941365 1_555
O62 P6 1.542353 1_565
O62 Ti3 2.043671 1_555
O63 Si2 1.650735 1_565
O63 Zr5 2.078894 1_555
O64 P5 1.543345 1_555
O64 Zr5 2.195840 1_555
O65 P4 1.534541 1_455
O65 Zr5 2.117069 1_555
O66 P0 1.551962 1_565
O66 Ti4 2.075389 1_555
O67 P1 1.528606 1_555
O67 Ti4 2.065126 1_555
O68 Si0 1.656149 1_555
O68 Ti4 1.921098 1_555
O69 P2 1.527076 1_555
O69 Ti5 2.066624 1_555
O70 P3 1.548932 1_555
O70 Ti5 2.084900 1_555
O71 Si1 1.654219 1_555
O71 Ti5 1.909041 1_555
