# generated using pymatgen
data_NaY2Al2PS5O24
_symmetry_space_group_name_H-M   'P 1'
_cell_length_a   8.66654092
_cell_length_b   8.66679205
_cell_length_c   23.06715020
_cell_angle_alpha   89.96771581
_cell_angle_beta   90.07815086
_cell_angle_gamma   119.80978299
_symmetry_Int_Tables_number   1
_chemical_formula_structural   NaY2Al2PS5O24
_chemical_formula_sum   'Na3 Y6 Al6 P3 S15 O72'
_cell_volume   1503.34128382
_cell_formula_units_Z   3
loop_
 _symmetry_equiv_pos_site_id
 _symmetry_equiv_pos_as_xyz
  1  'x, y, z'
loop_
 _atom_site_type_symbol
 _atom_site_label
 _atom_site_symmetry_multiplicity
 _atom_site_fract_x
 _atom_site_fract_y
 _atom_site_fract_z
 _atom_site_occupancy
  Na  Na0  1  0.99951067  0.98548773  0.99618036  1
  Na  Na1  1  0.65308384  0.33112829  0.83166298  1
  Na  Na2  1  0.67822633  0.33166394  0.34278470  1
  Y  Y0  1  0.00003625  0.99177475  0.84577712  1
  Y  Y1  1  0.00027257  0.00661970  0.15958924  1
  Y  Y2  1  0.67225500  0.33406572  0.19697259  1
  Y  Y3  1  0.65994128  0.33504206  0.97627784  1
  Y  Y4  1  0.33921230  0.67172859  0.01977628  1
  Y  Y5  1  0.33938386  0.67359227  0.80181861  1
  Al  Al0  1  0.99680649  0.00455157  0.35818005  1
  Al  Al1  1  0.00082639  0.00016450  0.63947200  1
  Al  Al2  1  0.66546619  0.33270942  0.67177298  1
  Al  Al3  1  0.66634251  0.33377988  0.48485607  1
  Al  Al4  1  0.33294080  0.66666280  0.51845638  1
  Al  Al5  1  0.32839482  0.66001888  0.32449971  1
  P  P0  1  0.01592341  0.30309471  0.26717943  1
  P  P1  1  0.63390650  0.66893730  0.91184019  1
  P  P2  1  0.33202707  0.96534373  0.91171898  1
  S  S0  1  0.28392912  0.98235001  0.26726677  1
  S  S1  1  0.69694548  0.71451145  0.26726877  1
  S  S2  1  0.30181363  0.27885938  0.73393745  1
  S  S3  1  0.97551515  0.69521845  0.73317057  1
  S  S4  1  0.72382500  0.02577912  0.73401528  1
  S  S5  1  0.95643736  0.33584752  0.57779154  1
  S  S6  1  0.37926841  0.04325553  0.57797964  1
  S  S7  1  0.66365794  0.62084381  0.57806412  1
  S  S8  1  0.96442454  0.63691938  0.08690177  1
  S  S9  1  0.67422024  0.03761514  0.08636014  1
  S  S10  1  0.36175719  0.32665286  0.08823070  1
  S  S11  1  0.03808359  0.36903366  0.91152976  1
  S  S12  1  0.61796056  0.95355177  0.42188767  1
  S  S13  1  0.33877149  0.38123369  0.42245635  1
  S  S14  1  0.04401628  0.66561200  0.42231521  1
  O  O0  1  0.18856813  0.01013794  0.31605683  1
  O  O1  1  0.82499061  0.80362361  0.31558107  1
  O  O2  1  0.98109354  0.16868230  0.31684628  1
  O  O3  1  0.23702131  0.17925344  0.78860043  1
  O  O4  1  0.93994901  0.75958299  0.78792953  1
  O  O5  1  0.82346744  0.06012839  0.78864607  1
  O  O6  1  0.81863366  0.99861816  0.68493780  1
  O  O7  1  0.18133170  0.18277094  0.68474916  1
  O  O8  1  0.00376175  0.81904214  0.68465989  1
  O  O9  1  0.76735054  0.80702349  0.21182868  1
  O  O10  1  0.03807804  0.22957607  0.20885414  1
  O  O11  1  0.18791761  0.95396845  0.21204690  1
  O  O12  1  0.87659664  0.37843730  0.62799857  1
  O  O13  1  0.50106477  0.12240753  0.62842873  1
  O  O14  1  0.61981648  0.49799605  0.62825135  1
  O  O15  1  0.86335912  0.54117734  0.13940453  1
  O  O16  1  0.67838561  0.13721455  0.13903355  1
  O  O17  1  0.45803260  0.32432185  0.14093772  1
  O  O18  1  0.45121745  0.31693014  0.03504486  1
  O  O19  1  0.86573733  0.54905170  0.03338323  1
  O  O20  1  0.68490575  0.13587681  0.03299871  1
  O  O21  1  0.45743046  0.16593661  0.52739736  1
  O  O22  1  0.70858450  0.54267079  0.52749441  1
  O  O23  1  0.83362830  0.29160880  0.52700211  1
  O  O24  1  0.53867074  0.65810702  0.96912468  1
  O  O25  1  0.12702744  0.45526779  0.96623259  1
  O  O26  1  0.32512338  0.86876408  0.96836351  1
  O  O27  1  0.53803732  0.83874514  0.47348874  1
  O  O28  1  0.30129636  0.46127589  0.47365818  1
  O  O29  1  0.15993360  0.70115217  0.47387029  1
  O  O30  1  0.12305138  0.62375720  0.37172604  1
  O  O31  1  0.49666359  0.87549745  0.37138518  1
  O  O32  1  0.38397215  0.50346779  0.37204791  1
  O  O33  1  0.13474100  0.46574858  0.85923816  1
  O  O34  1  0.31807924  0.86056131  0.85608935  1
  O  O35  1  0.53139886  0.66606410  0.85692449  1
  O  O36  1  0.01956903  0.82035137  0.41133024  1
  O  O37  1  0.79549300  0.97414693  0.41128078  1
  O  O38  1  0.18518594  0.20295646  0.41139996  1
  O  O39  1  0.01978831  0.19171510  0.91152555  1
  O  O40  1  0.17442060  0.99994235  0.91334752  1
  O  O41  1  0.81387201  0.84246902  0.91316750  1
  O  O42  1  0.98150099  0.18090971  0.58959092  1
  O  O43  1  0.19941651  0.01861020  0.58969080  1
  O  O44  1  0.81837716  0.80000466  0.59013942  1
  O  O45  1  0.98685679  0.81704498  0.08764643  1
  O  O46  1  0.83062137  0.01264984  0.08667560  1
  O  O47  1  0.18381151  0.16602829  0.08766325  1
  O  O48  1  0.70590616  0.18647521  0.72359138  1
  O  O49  1  0.48044918  0.29616000  0.72397499  1
  O  O50  1  0.81327925  0.51882066  0.72266941  1
  O  O51  1  0.66864527  0.53197313  0.26344897  1
  O  O52  1  0.84941357  0.32677923  0.26345895  1
  O  O53  1  0.46105827  0.14384389  0.26312693  1
  O  O54  1  0.66482883  0.50951757  0.90767331  1
  O  O55  1  0.86154693  0.35392655  0.90927559  1
  O  O56  1  0.50695847  0.14322977  0.90874158  1
  O  O57  1  0.63786470  0.13624927  0.43154015  1
  O  O58  1  0.50250832  0.36321768  0.43277199  1
  O  O59  1  0.86311953  0.50142430  0.43198033  1
  O  O60  1  0.34640435  0.48665705  0.08881062  1
  O  O61  1  0.13651167  0.64491584  0.08815091  1
  O  O62  1  0.51106639  0.86495147  0.08832267  1
  O  O63  1  0.36275067  0.86694434  0.56589649  1
  O  O64  1  0.50444928  0.63853634  0.56570908  1
  O  O65  1  0.13249193  0.49509676  0.56559075  1
  O  O66  1  0.30263309  0.82537250  0.27760110  1
  O  O67  1  0.52810554  0.71029527  0.27802437  1
  O  O68  1  0.18295113  0.48101437  0.27880928  1
  O  O69  1  0.31902337  0.45476968  0.73874818  1
  O  O70  1  0.13139842  0.67321969  0.73840914  1
  O  O71  1  0.54695678  0.86835097  0.73862958  1
loop_
_geom_bond_atom_site_label_1
_geom_bond_atom_site_label_2
_geom_bond_distance
_geom_bond_site_symmetry_2
Na0 O40 2.404829 1_655
Na0 O41 2.408956 1_555
Na0 O45 2.536280 1_556
Na0 O39 2.592943 1_665
Na0 O46 2.628076 1_566
Na0 O47 2.638627 1_666
Na1 O54 2.306725 1_555
Na1 O56 2.317192 1_555
Na1 O55 2.478886 1_555
Na1 O49 2.835617 1_555
Na1 O48 2.927985 1_555
Na1 O50 2.941799 1_555
Na2 O52 2.370874 1_555
Na2 O51 2.551300 1_555
Na2 O53 2.552691 1_555
Na2 O57 2.567356 1_555
Na2 O59 2.572157 1_555
Na2 O58 2.669452 1_555
Al0 O2 1.772511 1_555
Al0 O0 1.905983 1_655
Al0 O1 1.906607 1_545
Al0 O37 2.040120 1_545
Al0 O38 2.082070 1_655
Al0 O36 2.097826 1_645
Al1 O6 1.891225 1_445
Al1 O7 1.891709 1_555
Al1 O8 1.894480 1_545
Al1 O43 2.009465 1_555
Al1 O42 2.015967 1_455
Al1 O44 2.018569 1_445
Al2 O50 1.888058 1_555
Al2 O48 1.896475 1_555
Al2 O49 1.902955 1_555
Al2 O13 1.941119 1_555
Al2 O14 1.943505 1_555
Al2 O12 1.951492 1_555
Al3 O23 1.924372 1_555
Al3 O22 1.929001 1_555
Al3 O21 1.934359 1_555
Al3 O58 1.969707 1_555
Al3 O59 2.011746 1_555
Al3 O57 2.021309 1_555
Al4 O64 1.952526 1_555
Al4 O27 1.956338 1_555
Al4 O28 1.956414 1_555
Al4 O63 1.957744 1_555
Al4 O29 1.958642 1_555
Al4 O65 1.961134 1_555
Al5 O68 1.777759 1_555
Al5 O67 1.894609 1_555
Al5 O66 1.894629 1_555
Al5 O30 1.975192 1_555
Al5 O32 1.980532 1_555
Al5 O31 2.018457 1_555
O0 S0 1.486064 1_545
O1 S1 1.488407 1_555
O2 P0 1.552597 1_655
O3 S2 1.472821 1_555
O3 Y0 2.298889 1_545
O4 S3 1.474620 1_555
O4 Y0 2.249569 1_655
O5 S4 1.471140 1_555
O5 Y0 2.307431 1_645
O6 S4 1.485693 1_565
O7 S2 1.484746 1_555
O8 S3 1.483898 1_455
O9 S1 1.471452 1_555
O9 Y1 2.247616 1_665
O10 P0 1.541510 1_555
O10 Y1 2.122404 1_555
O11 S0 1.472860 1_555
O11 Y1 2.246975 1_565
O12 S5 1.487585 1_555
O13 S6 1.488835 1_555
O14 S7 1.488543 1_555
O15 S8 1.483778 1_555
O15 Y2 2.185400 1_555
O16 S9 1.480810 1_555
O16 Y2 2.189196 1_555
O17 S10 1.479434 1_555
O17 Y2 2.227643 1_555
O18 S10 1.476829 1_555
O18 Y3 2.204214 1_554
O19 S8 1.478538 1_555
O19 Y3 2.250266 1_554
O20 S9 1.472972 1_555
O20 Y3 2.259687 1_554
O21 S6 1.495134 1_555
O22 S7 1.495240 1_555
O23 S5 1.497915 1_555
O24 P1 1.536853 1_555
O24 Y4 2.139098 1_556
O25 S11 1.473300 1_555
O25 Y4 2.234492 1_556
O26 P2 1.536448 1_555
O26 Y4 2.131228 1_556
O27 S12 1.484009 1_555
O28 S13 1.485813 1_555
O29 S14 1.485888 1_555
O30 S14 1.487353 1_555
O31 S12 1.486712 1_555
O32 S13 1.488301 1_555
O33 S11 1.470638 1_555
O33 Y5 2.229787 1_555
O34 P2 1.541980 1_555
O34 Y5 2.127775 1_555
O35 P1 1.539310 1_555
O35 Y5 2.119287 1_555
O36 S14 1.479732 1_555
O37 S12 1.478823 1_555
O38 S13 1.476081 1_555
O39 S11 1.464438 1_555
O39 Y0 2.244891 1_545
O40 P2 1.537658 1_555
O40 Y0 2.146115 1_555
O41 P1 1.537259 1_555
O41 Y0 2.150077 1_655
O42 S5 1.487898 1_555
O43 S6 1.489361 1_555
O44 S7 1.488616 1_555
O45 S8 1.474256 1_555
O45 Y1 2.297736 1_665
O46 S9 1.475023 1_555
O46 Y1 2.250079 1_655
O47 S10 1.477117 1_555
O47 Y1 2.238585 1_555
O48 S4 1.495379 1_555
O49 S2 1.497399 1_555
O50 S3 1.495040 1_555
O51 S1 1.478184 1_555
O51 Y2 2.313177 1_555
O52 P0 1.557591 1_655
O52 Y2 2.191631 1_555
O53 S0 1.479412 1_545
O53 Y2 2.324083 1_555
O54 P1 1.535706 1_555
O54 Y3 2.174055 1_555
O55 S11 1.470121 1_655
O55 Y3 2.278392 1_555
O56 P2 1.535021 1_545
O56 Y3 2.180427 1_555
O57 S12 1.521584 1_545
O58 S13 1.521178 1_555
O59 S14 1.521505 1_655
O60 S10 1.457518 1_555
O60 Y4 2.282257 1_555
O61 S8 1.458433 1_455
O61 Y4 2.286678 1_555
O62 S9 1.461869 1_565
O62 Y4 2.244878 1_555
O63 S6 1.488627 1_565
O64 S7 1.489223 1_555
O65 S5 1.489671 1_455
O66 S0 1.467254 1_555
O67 S1 1.466913 1_555
O68 P0 1.524879 1_555
O69 S2 1.460467 1_555
O69 Y5 2.326823 1_555
O70 S3 1.460031 1_455
O70 Y5 2.318516 1_555
O71 S4 1.464041 1_565
O71 Y5 2.279307 1_555
