# generated using pymatgen
data_Cr2(PO4)3
_symmetry_space_group_name_H-M   'P 1'
_cell_length_a   8.69816876
_cell_length_b   8.69816876
_cell_length_c   8.69816821
_cell_angle_alpha   59.03037774
_cell_angle_beta   59.03037774
_cell_angle_gamma   59.03037795
_symmetry_Int_Tables_number   1
_chemical_formula_structural   Cr2(PO4)3
_chemical_formula_sum   'Cr4 P6 O24'
_cell_volume   455.04763843
_cell_formula_units_Z   2
loop_
 _symmetry_equiv_pos_site_id
 _symmetry_equiv_pos_as_xyz
  1  'x, y, z'
loop_
 _atom_site_type_symbol
 _atom_site_label
 _atom_site_symmetry_multiplicity
 _atom_site_fract_x
 _atom_site_fract_y
 _atom_site_fract_z
 _atom_site_occupancy
  Cr  Cr0  1  0.63932600  0.63932600  0.63932600  1
  Cr  Cr1  1  0.13932600  0.13932600  0.13932600  1
  Cr  Cr2  1  0.36067400  0.36067400  0.36067400  1
  Cr  Cr3  1  0.86067400  0.86067400  0.86067400  1
  P  P0  1  0.25000000  0.96477000  0.53523000  1
  P  P1  1  0.46477000  0.75000000  0.03523000  1
  P  P2  1  0.96477000  0.53523000  0.25000000  1
  P  P3  1  0.53523000  0.25000000  0.96477000  1
  P  P4  1  0.03523000  0.46477000  0.75000000  1
  P  P5  1  0.75000000  0.03523000  0.46477000  1
  O  O0  1  0.86552600  0.49499500  0.71008100  1
  O  O1  1  0.36552600  0.21008100  0.99499500  1
  O  O2  1  0.58156200  0.22166700  0.43523200  1
  O  O3  1  0.08156200  0.93523200  0.72166700  1
  O  O4  1  0.71008100  0.86552600  0.49499500  1
  O  O5  1  0.21008100  0.99499500  0.36552600  1
  O  O6  1  0.43523200  0.58156200  0.22166700  1
  O  O7  1  0.93523200  0.72166700  0.08156200  1
  O  O8  1  0.49499500  0.71008100  0.86552600  1
  O  O9  1  0.72166700  0.08156200  0.93523200  1
  O  O10  1  0.27833300  0.91843800  0.06476800  1
  O  O11  1  0.99499500  0.36552600  0.21008100  1
  O  O12  1  0.22166700  0.43523200  0.58156200  1
  O  O13  1  0.77833300  0.56476800  0.41843800  1
  O  O14  1  0.50500500  0.28991900  0.13447400  1
  O  O15  1  0.00500500  0.63447400  0.78991900  1
  O  O16  1  0.56476800  0.41843800  0.77833300  1
  O  O17  1  0.06476800  0.27833300  0.91843800  1
  O  O18  1  0.28991900  0.13447400  0.50500500  1
  O  O19  1  0.78991900  0.00500500  0.63447400  1
  O  O20  1  0.41843800  0.77833300  0.56476800  1
  O  O21  1  0.91843800  0.06476800  0.27833300  1
  O  O22  1  0.13447400  0.50500500  0.28991900  1
  O  O23  1  0.63447400  0.78991900  0.00500500  1
loop_
_geom_bond_atom_site_label_1
_geom_bond_atom_site_label_2
_geom_bond_distance
_geom_bond_site_symmetry_2
Cr0 O13 1.912722 1_555
Cr0 O20 1.912722 1_555
Cr0 O16 1.912722 1_555
Cr0 O8 1.932596 1_555
Cr0 O0 1.932596 1_555
Cr0 O4 1.932596 1_555
Cr1 O17 1.912722 1_554
Cr1 O10 1.912722 1_545
Cr1 O21 1.912722 1_455
Cr1 O5 1.932596 1_545
Cr1 O11 1.932596 1_455
Cr1 O1 1.932596 1_554
Cr2 O12 1.912722 1_555
Cr2 O2 1.912722 1_555
Cr2 O6 1.912722 1_555
Cr2 O14 1.932596 1_555
Cr2 O22 1.932596 1_555
Cr2 O18 1.932596 1_555
Cr3 O7 1.912722 1_556
Cr3 O9 1.912722 1_565
Cr3 O3 1.912722 1_655
Cr3 O19 1.932596 1_565
Cr3 O15 1.932596 1_655
Cr3 O23 1.932596 1_556
O0 P4 1.550078 1_655
O1 P3 1.550078 1_555
O2 P5 1.534837 1_555
O3 P0 1.534837 1_555
O4 P5 1.550078 1_565
O5 P0 1.550078 1_555
O6 P1 1.534837 1_555
O7 P2 1.534837 1_555
O8 P1 1.550078 1_556
O9 P3 1.534837 1_555
O10 P1 1.534837 1_555
O11 P2 1.550078 1_555
O12 P4 1.534837 1_555
O13 P2 1.534837 1_555
O14 P3 1.550078 1_554
O15 P4 1.550078 1_555
O16 P3 1.534837 1_555
O17 P4 1.534837 1_555
O18 P0 1.550078 1_545
O19 P5 1.550078 1_555
O20 P0 1.534837 1_555
O21 P5 1.534837 1_555
O22 P2 1.550078 1_455
O23 P1 1.550078 1_555
