# generated using pymatgen
data_MgMn4Zn2O8
_symmetry_space_group_name_H-M   'P 1'
_cell_length_a   6.25788954
_cell_length_b   6.25788714
_cell_length_c   6.54901451
_cell_angle_alpha   58.44901027
_cell_angle_beta   58.44894365
_cell_angle_gamma   58.64563703
_symmetry_Int_Tables_number   1
_chemical_formula_structural   MgMn4Zn2O8
_chemical_formula_sum   'Mg1 Mn4 Zn2 O8'
_cell_volume   175.18613717
_cell_formula_units_Z   1
loop_
 _symmetry_equiv_pos_site_id
 _symmetry_equiv_pos_as_xyz
  1  'x, y, z'
loop_
 _atom_site_type_symbol
 _atom_site_label
 _atom_site_symmetry_multiplicity
 _atom_site_fract_x
 _atom_site_fract_y
 _atom_site_fract_z
 _atom_site_occupancy
  Mg  Mg0  1  0.01492191  0.01491935  0.48507807  1
  Mn  Mn0  1  0.93456096  0.93455959  0.06543930  1
  Mn  Mn1  1  0.32678983  0.32679592  0.17321548  1
  Mn  Mn2  1  0.61247880  0.61247884  0.15162954  1
  Mn  Mn3  1  0.61247459  0.61248063  0.62340464  1
  Zn  Zn0  1  0.08025401  0.51146551  0.70414126  1
  Zn  Zn1  1  0.51146703  0.08025341  0.70414062  1
  O  O0  1  0.39013259  0.39013316  0.40666861  1
  O  O1  1  0.40671126  0.89098550  0.35114995  1
  O  O2  1  0.39013370  0.39013186  0.81305490  1
  O  O3  1  0.89098699  0.40670946  0.35114948  1
  O  O4  1  0.35106365  0.80128028  0.92383827  1
  O  O5  1  0.80128046  0.35106337  0.92383834  1
  O  O6  1  0.83836907  0.83836921  0.45739684  1
  O  O7  1  0.83837515  0.83837393  0.86585471  1
loop_
_geom_bond_atom_site_label_1
_geom_bond_atom_site_label_2
_geom_bond_distance
_geom_bond_site_symmetry_2
Mg0 O1 1.965855 1_545
Mg0 O3 1.965859 1_455
Mg0 O7 2.040484 1_445
Mg0 O6 2.040520 1_445
Mn0 O4 2.089673 1_654
Mn0 O5 2.089679 1_564
Mn0 O7 2.111120 1_554
Mn0 O6 2.111122 1_555
Mn1 O0 2.020799 1_555
Mn1 O2 2.020977 1_554
Mn1 O3 2.215939 1_455
Mn1 O1 2.215972 1_545
Mn1 O4 2.577160 1_554
Mn1 O5 2.577179 1_554
Mn2 O0 1.952522 1_555
Mn2 O7 2.010350 1_554
Mn2 O1 2.165640 1_555
Mn2 O3 2.165646 1_555
Mn2 O5 2.235092 1_554
Mn2 O4 2.235093 1_554
Mn3 O2 1.952511 1_555
Mn3 O6 2.010317 1_555
Mn3 O1 2.165605 1_555
Mn3 O3 2.165638 1_555
Mn3 O4 2.235231 1_555
Mn3 O5 2.235258 1_555
O0 Zn0 2.048033 1_555
O0 Zn1 2.048039 1_555
O2 Zn1 2.047974 1_555
O2 Zn0 2.047980 1_555
O4 Zn1 1.951675 1_565
O5 Zn0 1.951672 1_655
O6 Zn1 2.228279 1_565
O6 Zn0 2.228289 1_655
O7 Zn0 2.228262 1_655
O7 Zn1 2.228265 1_565
