# generated using pymatgen
data_Na10Zn3Sn5(PO4)12
_symmetry_space_group_name_H-M   'P 1'
_cell_length_a   17.80952453
_cell_length_b   8.91356186
_cell_length_c   22.38012137
_cell_angle_alpha   89.98740575
_cell_angle_beta   89.95029275
_cell_angle_gamma   120.02520091
_symmetry_Int_Tables_number   1
_chemical_formula_structural   Na10Zn3Sn5(PO4)12
_chemical_formula_sum   'Na30 Zn9 Sn15 P36 O144'
_cell_volume   3075.99799861
_cell_formula_units_Z   3
loop_
 _symmetry_equiv_pos_site_id
 _symmetry_equiv_pos_as_xyz
  1  'x, y, z'
loop_
 _atom_site_type_symbol
 _atom_site_label
 _atom_site_symmetry_multiplicity
 _atom_site_fract_x
 _atom_site_fract_y
 _atom_site_fract_z
 _atom_site_occupancy
  Na  Na0  1  0.32026667  0.00987975  0.24895442  1
  Na  Na1  1  0.68574683  0.35936062  0.24873971  1
  Na  Na2  1  0.31790070  0.62572680  0.74914334  1
  Na  Na3  1  0.81786055  0.62555491  0.74899920  1
  Na  Na4  1  0.15345574  0.34545018  0.57950458  1
  Na  Na5  1  0.65345949  0.34571320  0.57909524  1
  Na  Na6  1  0.01868560  0.69317134  0.57987718  1
  Na  Na7  1  0.51914104  0.69327802  0.58003425  1
  Na  Na8  1  0.32716327  0.96140497  0.57959654  1
  Na  Na9  1  0.82753159  0.96287865  0.57961614  1
  Na  Na10  1  0.15333921  0.96165234  0.07952255  1
  Na  Na11  1  0.65390895  0.96283875  0.08033299  1
  Na  Na12  1  0.32732650  0.69216056  0.08026958  1
  Na  Na13  1  0.82750471  0.69307936  0.07963300  1
  Na  Na14  1  0.01850334  0.34490768  0.07992854  1
  Na  Na15  1  0.51869856  0.34474364  0.08043235  1
  Na  Na16  1  0.66145658  0.02896572  0.41128093  1
  Na  Na17  1  0.35243367  0.67649329  0.41077699  1
  Na  Na18  1  0.00021109  0.99882181  0.49481001  1
  Na  Na19  1  0.49942791  0.01267935  0.49059355  1
  Na  Na20  1  0.00010351  0.00019431  0.99581048  1
  Na  Na21  1  0.50011101  0.99980504  0.99603275  1
  Na  Na22  1  0.33378490  0.32194846  0.83050282  1
  Na  Na23  1  0.83378603  0.32203859  0.83049559  1
  Na  Na24  1  0.33460473  0.33683221  0.32635045  1
  Na  Na25  1  0.84283828  0.34082984  0.32676069  1
  Na  Na26  1  0.16245693  0.65522527  0.16579713  1
  Na  Na27  1  0.66576924  0.67675960  0.16556016  1
  Na  Na28  1  0.16193182  0.66762107  0.66630737  1
  Na  Na29  1  0.66207360  0.66729468  0.66635695  1
  Zn  Zn0  1  0.49938720  0.00600645  0.34919286  1
  Zn  Zn1  1  0.33361504  0.32568696  0.68686280  1
  Zn  Zn2  1  0.83383950  0.32626467  0.68675607  1
  Zn  Zn3  1  0.33384702  0.34296409  0.18555480  1
  Zn  Zn4  1  0.83686000  0.32983921  0.18622224  1
  Zn  Zn5  1  0.16618594  0.66656236  0.01104000  1
  Zn  Zn6  1  0.66622669  0.66684427  0.01103610  1
  Zn  Zn7  1  0.16389732  0.66497062  0.51079644  1
  Zn  Zn8  1  0.66790408  0.66538656  0.51123358  1
  Sn  Sn0  1  0.00025638  0.99950231  0.35168619  1
  Sn  Sn1  1  0.00097080  0.00219151  0.85365550  1
  Sn  Sn2  1  0.50097756  0.00227641  0.85363495  1
  Sn  Sn3  1  0.00119140  0.00275299  0.65223317  1
  Sn  Sn4  1  0.50131657  0.00219880  0.65171768  1
  Sn  Sn5  1  0.99988127  0.00033159  0.15196567  1
  Sn  Sn6  1  0.50019087  0.99775738  0.15284033  1
  Sn  Sn7  1  0.33320772  0.33396809  0.98018154  1
  Sn  Sn8  1  0.83351596  0.33397144  0.98024222  1
  Sn  Sn9  1  0.33251855  0.32531849  0.48111931  1
  Sn  Sn10  1  0.83611596  0.33968053  0.48057031  1
  Sn  Sn11  1  0.16396463  0.66152059  0.31572868  1
  Sn  Sn12  1  0.66560160  0.66817012  0.31646780  1
  Sn  Sn13  1  0.16450918  0.66735122  0.81790981  1
  Sn  Sn14  1  0.66448440  0.66726924  0.81794707  1
  P  P0  1  0.14796634  0.99929383  0.25066708  1
  P  P1  1  0.64874936  0.99828815  0.25228354  1
  P  P2  1  0.35105559  0.70121607  0.25326927  1
  P  P3  1  0.85166655  0.70399647  0.25094396  1
  P  P4  1  0.99988647  0.29540053  0.25094270  1
  P  P5  1  0.50022050  0.29754794  0.25085934  1
  P  P6  1  0.14806303  0.29760227  0.75100035  1
  P  P7  1  0.64802649  0.29737688  0.75096200  1
  P  P8  1  0.00142128  0.70561778  0.75050431  1
  P  P9  1  0.50139762  0.70568212  0.75042945  1
  P  P10  1  0.35185506  -0.00022384  0.75140078  1
  P  P11  1  0.85172547  -0.00014649  0.75148641  1
  P  P12  1  0.47955256  0.33310828  0.58568639  1
  P  P13  1  0.97939143  0.33357326  0.58513714  1
  P  P14  1  0.18659288  0.04088415  0.58544280  1
  P  P15  1  0.68712087  0.04167095  0.58417590  1
  P  P16  1  0.33376498  0.62688430  0.58539442  1
  P  P17  1  0.83400698  0.62818431  0.58677004  1
  P  P18  1  0.47937972  0.62548210  0.08452148  1
  P  P19  1  0.97908186  0.62576014  0.08501267  1
  P  P20  1  0.33364407  0.04059229  0.08606325  1
  P  P21  1  0.83348737  0.04106431  0.08451379  1
  P  P22  1  0.18678257  0.33225746  0.08456477  1
  P  P23  1  0.68673944  0.33246434  0.08603545  1
  P  P24  1  0.31468313  0.66611174  0.91741829  1
  P  P25  1  0.81465787  0.66591865  0.91745391  1
  P  P26  1  0.01813293  0.37069107  0.91863376  1
  P  P27  1  0.51818520  0.37070102  0.91872733  1
  P  P28  1  0.16721923  0.96357182  0.91857594  1
  P  P29  1  0.66718107  0.96372834  0.91856075  1
  P  P30  1  0.31357497  0.96134127  0.41780367  1
  P  P31  1  0.81547171  0.96273328  0.41905877  1
  P  P32  1  0.16579317  0.36950137  0.41921214  1
  P  P33  1  0.66672548  0.37085492  0.41836792  1
  P  P34  1  0.01889865  0.66816100  0.41823028  1
  P  P35  1  0.51844932  0.66414845  0.41952161  1
  O  O0  1  0.10235235  0.02367852  0.30495187  1
  O  O1  1  0.60494783  0.02307638  0.30708463  1
  O  O2  1  0.40403981  0.78925715  0.30876439  1
  O  O3  1  0.90953644  0.79578648  0.30509698  1
  O  O4  1  0.48609446  0.17867373  0.30318022  1
  O  O5  1  0.98878316  0.17986989  0.30537147  1
  O  O6  1  0.10145155  0.17960606  0.80422535  1
  O  O7  1  0.60142455  0.17966563  0.80425841  1
  O  O8  1  0.48606656  0.79933544  0.80303453  1
  O  O9  1  0.98608125  0.79928649  0.80311885  1
  O  O10  1  0.41040509  0.02187528  0.80475032  1
  O  O11  1  0.91040172  0.02218542  0.80477817  1
  O  O12  1  0.38912658  0.95775651  0.69278657  1
  O  O13  1  0.88899123  0.95797837  0.69287820  1
  O  O14  1  0.09377541  0.22382755  0.69169941  1
  O  O15  1  0.59369834  0.22343532  0.69168897  1
  O  O16  1  0.01804530  0.81468442  0.69109456  1
  O  O17  1  0.51814192  0.81465696  0.69091554  1
  O  O18  1  0.38926182  0.81977612  0.19458235  1
  O  O19  1  0.88961616  0.81374201  0.19226081  1
  O  O20  1  0.01682138  0.21971877  0.19188813  1
  O  O21  1  0.52108845  0.22438917  0.19136585  1
  O  O22  1  0.09297727  0.96611244  0.19215524  1
  O  O23  1  0.59352146  0.96518040  0.19271516  1
  O  O24  1  0.43817283  0.36606278  0.63936431  1
  O  O25  1  0.93841089  0.36662192  0.63907635  1
  O  O26  1  0.24393848  0.12418858  0.63924422  1
  O  O27  1  0.74511161  0.12794258  0.63743784  1
  O  O28  1  0.31995917  0.51742106  0.64092265  1
  O  O29  1  0.81951148  0.52009128  0.64281016  1
  O  O30  1  0.43864629  0.51068784  0.13849547  1
  O  O31  1  0.93770062  0.51187148  0.13916411  1
  O  O32  1  0.31896190  0.11843322  0.14240656  1
  O  O33  1  0.81685836  0.12224118  0.13862419  1
  O  O34  1  0.24344974  0.36306732  0.13872754  1
  O  O35  1  0.74051263  0.36219950  0.14233551  1
  O  O36  1  0.22423434  0.28923669  0.02766505  1
  O  O37  1  0.72651661  0.29114755  0.03020122  1
  O  O38  1  0.42021189  0.55188252  0.02769020  1
  O  O39  1  0.92012590  0.55187959  0.02803983  1
  O  O40  1  0.35422377  0.16144034  0.03024007  1
  O  O41  1  0.85523079  0.15925059  0.02767553  1
  O  O42  1  0.22332118  0.15852092  0.52831669  1
  O  O43  1  0.72376880  0.15456834  0.52551134  1
  O  O44  1  0.35257341  0.54833839  0.52785328  1
  O  O45  1  0.85478569  0.54947476  0.53075675  1
  O  O46  1  0.42062780  0.28778509  0.52856640  1
  O  O47  1  0.92035095  0.28912297  0.52812911  1
  O  O48  1  0.27521512  0.69243578  0.97403932  1
  O  O49  1  0.77516513  0.69220276  0.97404227  1
  O  O50  1  0.06928237  0.44578572  0.97603814  1
  O  O51  1  0.56938934  0.44584327  0.97610676  1
  O  O52  1  0.15366925  0.86150775  0.97607198  1
  O  O53  1  0.65361224  0.86165194  0.97601739  1
  O  O54  1  0.27240628  0.85295450  0.47444508  1
  O  O55  1  0.77872896  0.86306144  0.47713393  1
  O  O56  1  0.15241542  0.44331893  0.47709644  1
  O  O57  1  0.65715250  0.45223436  0.47575151  1
  O  O58  1  0.06791469  0.69443541  0.47667501  1
  O  O59  1  0.57186886  0.69228918  0.47638635  1
  O  O60  1  0.06127648  0.63828811  0.36264906  1
  O  O61  1  0.56017976  0.63221155  0.36354659  1
  O  O62  1  0.25738894  0.87781544  0.36025954  1
  O  O63  1  0.75472709  0.87901684  0.36426747  1
  O  O64  1  0.18449197  0.49011388  0.36418602  1
  O  O65  1  0.68197738  0.48317765  0.36074154  1
  O  O66  1  0.06005813  0.48289859  0.86197312  1
  O  O67  1  0.55989016  0.48302800  0.86205517  1
  O  O68  1  0.18161990  0.87996853  0.86194970  1
  O  O69  1  0.68169621  0.88020912  0.86192513  1
  O  O70  1  0.26052852  0.63961937  0.85912274  1
  O  O71  1  0.76049930  0.63929445  0.85914587  1
  O  O72  1  0.00858033  0.83097654  0.41087926  1
  O  O73  1  0.50784099  0.82456657  0.41293065  1
  O  O74  1  0.40279521  0.97649718  0.41193279  1
  O  O75  1  0.90675985  0.98489892  0.41074867  1
  O  O76  1  0.08586972  0.18671352  0.41096154  1
  O  O77  1  0.58917684  0.18725226  0.41235103  1
  O  O78  1  0.00864886  0.18770871  0.91149990  1
  O  O79  1  0.50861471  0.18770904  0.91156391  1
  O  O80  1  0.08499098  0.98203450  0.91129526  1
  O  O81  1  0.58490945  0.98204540  0.91125306  1
  O  O82  1  0.40644829  0.83001083  0.91100537  1
  O  O83  1  0.90645857  0.82972474  0.91100751  1
  O  O84  1  0.48707195  0.16260827  0.58978705  1
  O  O85  1  0.98709055  0.16325673  0.58948258  1
  O  O86  1  0.09379770  0.02614401  0.58911553  1
  O  O87  1  0.59460346  0.02798092  0.58827665  1
  O  O88  1  0.41932111  0.81256209  0.58841791  1
  O  O89  1  0.91924352  0.81412798  0.58933497  1
  O  O90  1  0.48687056  0.81124853  0.08926660  1
  O  O91  1  0.98723409  0.81212003  0.08924610  1
  O  O92  1  0.41897294  0.02479768  0.08925785  1
  O  O93  1  0.91889847  0.02587408  0.08884270  1
  O  O94  1  0.09371922  0.16176951  0.08863843  1
  O  O95  1  0.59374807  0.16132326  0.08893599  1
  O  O96  1  0.34195836  0.15751604  0.74636093  1
  O  O97  1  0.84177627  0.15749988  0.74618180  1
  O  O98  1  0.23884047  0.32250476  0.74662999  1
  O  O99  1  0.73876332  0.32200077  0.74671480  1
  O  O100  1  0.41884316  0.53034346  0.74603782  1
  O  O101  1  0.91894730  0.53011636  0.74617527  1
  O  O102  1  0.33938645  0.52249573  0.24579504  1
  O  O103  1  0.83912214  0.52271947  0.24687217  1
  O  O104  1  0.41984914  0.31402668  0.24373778  1
  O  O105  1  0.92021951  0.31360157  0.24713711  1
  O  O106  1  0.23893657  0.15471038  0.24677836  1
  O  O107  1  0.73693993  0.16277225  0.24541932  1
  O  O108  1  0.32367240  0.50114509  0.91985557  1
  O  O109  1  0.82357582  0.50085638  0.92004544  1
  O  O110  1  0.42629636  0.35134945  0.92077411  1
  O  O111  1  0.92641457  0.35194310  0.92048556  1
  O  O112  1  0.24965677  0.14687239  0.92056869  1
  O  O113  1  0.74936230  0.14737705  0.92066514  1
  O  O114  1  0.32058721  0.14346922  0.42038946  1
  O  O115  1  0.82061844  0.14412334  0.42143957  1
  O  O116  1  0.25194198  0.36113337  0.42182184  1
  O  O117  1  0.75078487  0.35164878  0.42039179  1
  O  O118  1  0.42472091  0.50039694  0.42221618  1
  O  O119  1  0.92710273  0.50193755  0.42009681  1
  O  O120  1  0.17341588  0.48900114  0.07715810  1
  O  O121  1  0.67379530  0.48943018  0.07763504  1
  O  O122  1  0.07088185  0.65252707  0.07748648  1
  O  O123  1  0.57142409  0.65367992  0.07693101  1
  O  O124  1  0.25517756  0.85740599  0.07777578  1
  O  O125  1  0.75546683  0.85708961  0.07706155  1
  O  O126  1  0.17309040  0.85752208  0.57802607  1
  O  O127  1  0.67325457  0.85777654  0.57773070  1
  O  O128  1  0.25522490  0.65301789  0.57812106  1
  O  O129  1  0.75526393  0.65342748  0.57878428  1
  O  O130  1  0.07126605  0.48995229  0.57742168  1
  O  O131  1  0.57137704  0.48909021  0.57799505  1
  O  O132  1  0.15553795  0.83158253  0.25532067  1
  O  O133  1  0.65624221  0.83097682  0.25533885  1
  O  O134  1  0.26085399  0.69772627  0.25515389  1
  O  O135  1  0.75995001  0.68754154  0.25607776  1
  O  O136  1  0.08513911  0.47449921  0.25576490  1
  O  O137  1  0.58712213  0.47649140  0.25517679  1
  O  O138  1  0.15647375  0.48120744  0.75605100  1
  O  O139  1  0.65649536  0.48110517  0.75608749  1
  O  O140  1  0.08499457  0.69386734  0.75602569  1
  O  O141  1  0.58494441  0.69381758  0.75600578  1
  O  O142  1  0.26292965  0.82525313  0.75632498  1
  O  O143  1  0.76286798  0.82529981  0.75638480  1
loop_
_geom_bond_atom_site_label_1
_geom_bond_atom_site_label_2
_geom_bond_distance
_geom_bond_site_symmetry_2
Na0 O106 2.374522 1_555
Na0 O104 2.386727 1_555
Na0 O134 2.435948 1_545
Na0 O132 2.546768 1_545
Na0 O32 2.577686 1_555
Na0 O62 2.742182 1_545
Na0 O18 2.818509 1_545
Na0 O4 2.831738 1_555
Na1 O107 2.346509 1_555
Na1 O103 2.366990 1_555
Na1 O137 2.455770 1_555
Na1 O135 2.542123 1_555
Na1 O35 2.567873 1_555
Na1 O65 2.753314 1_555
Na1 O21 2.858695 1_555
Na1 O1 2.905003 1_555
Na2 O98 2.341469 1_555
Na2 O100 2.342852 1_555
Na2 O142 2.426861 1_555
Na2 O138 2.498290 1_555
Na2 O28 2.614510 1_555
Na2 O70 2.690725 1_555
Na2 O8 2.861473 1_555
Na2 O12 2.863119 1_555
Na3 O99 2.343889 1_555
Na3 O101 2.345484 1_555
Na3 O143 2.429282 1_555
Na3 O139 2.497595 1_555
Na3 O29 2.561437 1_555
Na3 O71 2.693749 1_555
Na3 O13 2.863782 1_555
Na3 O9 2.864413 1_555
Na4 O130 2.385513 1_555
Na4 O128 2.414353 1_555
Na4 O56 2.455516 1_555
Na4 O86 2.499755 1_555
Na4 O85 2.578610 1_455
Na4 O14 2.729614 1_555
Na4 O42 2.776686 1_555
Na4 O28 2.913999 1_555
Na5 O131 2.374997 1_555
Na5 O129 2.415294 1_555
Na5 O87 2.488044 1_555
Na5 O57 2.488247 1_555
Na5 O84 2.580813 1_555
Na5 O15 2.739278 1_555
Na5 O43 2.835891 1_555
Na5 O29 2.933103 1_555
Na6 O126 2.382832 1_555
Na6 O130 2.420459 1_555
Na6 O58 2.467794 1_555
Na6 O89 2.500810 1_455
Na6 O86 2.582347 1_565
Na6 O16 2.717016 1_555
Na6 O45 2.762986 1_455
Na6 O25 2.846408 1_455
Na7 O127 2.378681 1_555
Na7 O131 2.423741 1_555
Na7 O88 2.493432 1_555
Na7 O59 2.503439 1_555
Na7 O87 2.594024 1_565
Na7 O17 2.710952 1_555
Na7 O44 2.829170 1_555
Na7 O24 2.852241 1_555
Na8 O128 2.382069 1_555
Na8 O126 2.417730 1_555
Na8 O84 2.503766 1_565
Na8 O54 2.546580 1_555
Na8 O88 2.583142 1_555
Na8 O12 2.770689 1_555
Na8 O46 2.772645 1_565
Na8 O26 2.869487 1_565
Na9 O129 2.390064 1_555
Na9 O127 2.419289 1_555
Na9 O55 2.457221 1_555
Na9 O85 2.497173 1_565
Na9 O89 2.576999 1_555
Na9 O13 2.770903 1_555
Na9 O47 2.775121 1_565
Na9 O27 2.855312 1_565
Na10 O122 2.387806 1_555
Na10 O124 2.416796 1_555
Na10 O52 2.482600 1_554
Na10 O94 2.499213 1_565
Na10 O91 2.574480 1_455
Na10 O22 2.747627 1_555
Na10 O36 2.788118 1_565
Na10 O32 2.918377 1_565
Na11 O123 2.388880 1_555
Na11 O125 2.423061 1_555
Na11 O95 2.492379 1_565
Na11 O53 2.502005 1_554
Na11 O90 2.586837 1_555
Na11 O23 2.738747 1_555
Na11 O37 2.775561 1_565
Na11 O33 2.832573 1_565
Na12 O124 2.391200 1_555
Na12 O120 2.414637 1_555
Na12 O90 2.494703 1_555
Na12 O48 2.553369 1_554
Na12 O92 2.579410 1_565
Na12 O38 2.784231 1_555
Na12 O18 2.793957 1_555
Na12 O34 2.856143 1_555
Na13 O125 2.379831 1_555
Na13 O121 2.412097 1_555
Na13 O91 2.498985 1_555
Na13 O49 2.539664 1_554
Na13 O93 2.580720 1_565
Na13 O19 2.747606 1_555
Na13 O39 2.777282 1_555
Na13 O35 2.913688 1_555
Na14 O120 2.391355 1_555
Na14 O122 2.414896 1_555
Na14 O50 2.492792 1_554
Na14 O93 2.494818 1_455
Na14 O94 2.585707 1_555
Na14 O20 2.736723 1_555
Na14 O41 2.784338 1_455
Na14 O31 2.860784 1_455
Na15 O121 2.394063 1_555
Na15 O123 2.425468 1_555
Na15 O92 2.501343 1_555
Na15 O51 2.501945 1_554
Na15 O95 2.585132 1_555
Na15 O21 2.713156 1_555
Na15 O40 2.780034 1_555
Na15 O30 2.831457 1_555
Na16 O77 2.337907 1_555
Na16 O73 2.411851 1_545
Na16 O115 2.495927 1_555
Na16 O117 2.503374 1_555
Na16 O1 2.530754 1_555
Na16 O43 2.789877 1_555
Na16 O63 2.805750 1_545
Na17 O74 2.357065 1_555
Na17 O73 2.397738 1_555
Na17 O116 2.475889 1_555
Na17 O2 2.477535 1_555
Na17 O118 2.491873 1_555
Na17 O64 2.797592 1_555
Na17 O44 2.858634 1_555
Na17 O54 2.962537 1_555
Na18 O72 2.452093 1_555
Na18 O76 2.467859 1_565
Na18 O75 2.474571 1_455
Na18 O89 2.623410 1_455
Na18 O86 2.625246 1_565
Na18 O85 2.652430 1_465
Na19 O77 2.355272 1_555
Na19 O74 2.369595 1_545
Na19 O73 2.471279 1_545
Na19 O84 2.656574 1_555
Na19 O87 2.728777 1_555
Na19 O88 2.730639 1_545
Na20 O78 2.474001 1_555
Na20 O80 2.475774 1_545
Na20 O83 2.482541 1_445
Na20 O94 2.602738 1_556
Na20 O93 2.608689 1_456
Na20 O91 2.617001 1_446
Na21 O81 2.477960 1_555
Na21 O79 2.479146 1_565
Na21 O82 2.484850 1_555
Na21 O95 2.604105 1_566
Na21 O92 2.609194 1_566
Na21 O90 2.614423 1_556
Na22 O96 2.435106 1_555
Na22 O98 2.529142 1_555
Na22 O112 2.529151 1_555
Na22 O110 2.537451 1_555
Na22 O100 2.548735 1_555
Na22 O108 2.621318 1_555
Na23 O97 2.437508 1_555
Na23 O99 2.526769 1_555
Na23 O113 2.531317 1_555
Na23 O111 2.532695 1_555
Na23 O101 2.545540 1_555
Na23 O109 2.623163 1_555
Na24 O102 2.419429 1_555
Na24 O106 2.438882 1_555
Na24 O104 2.463461 1_555
Na24 O118 2.640109 1_555
Na24 O114 2.651265 1_555
Na24 O116 2.663352 1_555
Na25 O105 2.337574 1_555
Na25 O103 2.436370 1_555
Na25 O107 2.530130 1_555
Na25 O119 2.554951 1_555
Na25 O115 2.650138 1_555
Na25 O117 2.690797 1_555
Na26 O136 2.513792 1_555
Na26 O120 2.541391 1_555
Na26 O122 2.555968 1_555
Na26 O134 2.560417 1_555
Na26 O132 2.587526 1_555
Na26 O124 2.621032 1_555
Na27 O133 2.487878 1_555
Na27 O123 2.541647 1_555
Na27 O125 2.545941 1_555
Na27 O137 2.581149 1_555
Na27 O135 2.602139 1_555
Na27 O121 2.630689 1_555
Na28 O140 2.506023 1_555
Na28 O126 2.543518 1_555
Na28 O130 2.553496 1_555
Na28 O138 2.576997 1_555
Na28 O142 2.597408 1_555
Na28 O128 2.623658 1_555
Na29 O141 2.507714 1_555
Na29 O131 2.546004 1_555
Na29 O127 2.552654 1_555
Na29 O139 2.574909 1_555
Na29 O143 2.596709 1_555
Na29 O129 2.609736 1_555
O0 P0 1.535666 1_545
O0 Sn0 2.012710 1_545
O1 P1 1.527251 1_545
O1 Zn0 2.038672 1_555
O2 P2 1.519930 1_555
O2 Zn0 2.038390 1_565
O3 P3 1.535958 1_555
O3 Sn0 2.015577 1_655
O4 P5 1.513049 1_555
O4 Zn0 1.962039 1_555
O5 P4 1.542281 1_555
O5 Sn0 2.007310 1_645
O6 P6 1.529120 1_555
O6 Sn1 2.022543 1_555
O7 P7 1.529276 1_555
O7 Sn2 2.021515 1_555
O8 P9 1.544489 1_555
O8 Sn2 2.036135 1_565
O9 P8 1.544808 1_655
O9 Sn1 2.035198 1_665
O10 P10 1.532447 1_555
O10 Sn2 2.028392 1_555
O11 P11 1.532388 1_555
O11 Sn1 2.029960 1_655
O12 P10 1.596625 1_565
O12 Sn4 2.049017 1_565
O13 P11 1.595890 1_565
O13 Sn3 2.044074 1_665
O14 P6 1.579526 1_555
O14 Sn3 2.033140 1_555
O15 P7 1.579458 1_555
O15 Sn4 2.037730 1_555
O16 P8 1.584710 1_555
O16 Sn3 2.039625 1_565
O17 P9 1.585984 1_555
O17 Sn4 2.038367 1_565
O18 P2 1.607199 1_555
O18 Sn6 2.037666 1_555
O19 P3 1.573153 1_555
O19 Sn5 2.040464 1_565
O20 P4 1.579908 1_455
O20 Sn5 2.030809 1_455
O21 P5 1.605690 1_555
O21 Sn6 2.052224 1_545
O22 P0 1.572858 1_555
O22 Sn5 2.039498 1_465
O23 P1 1.594920 1_555
O23 Sn6 2.031996 1_555
O24 P12 1.512550 1_555
O24 Zn1 2.013149 1_555
O25 P13 1.513436 1_555
O25 Zn2 2.015539 1_555
O26 P14 1.512555 1_555
O26 Zn1 2.011326 1_555
O27 P15 1.512154 1_555
O27 Zn2 2.012114 1_555
O28 P16 1.521738 1_555
O28 Zn1 2.110131 1_555
O29 P17 1.522475 1_555
O29 Zn2 2.111445 1_555
O30 P18 1.512437 1_555
O30 Zn3 2.007802 1_555
O31 P19 1.513806 1_555
O31 Zn4 2.011703 1_555
O32 P20 1.523552 1_555
O32 Zn3 2.116269 1_555
O33 P21 1.513935 1_555
O33 Zn4 2.006896 1_555
O34 P22 1.512677 1_555
O34 Zn3 2.003459 1_555
O35 P23 1.524210 1_555
O35 Zn4 2.119041 1_555
O36 P22 1.571066 1_555
O36 Sn7 2.068012 1_554
O37 P23 1.568018 1_555
O37 Sn8 2.072518 1_554
O38 P18 1.571416 1_555
O38 Sn7 2.072699 1_554
O39 P19 1.572456 1_555
O39 Sn8 2.074052 1_554
O40 P20 1.568119 1_555
O40 Sn7 2.082340 1_554
O41 P21 1.571032 1_555
O41 Sn8 2.074767 1_554
O42 P14 1.572718 1_555
O42 Sn9 2.051930 1_555
O43 P15 1.582105 1_555
O43 Sn10 2.104609 1_555
O44 P16 1.579587 1_555
O44 Sn9 2.112880 1_555
O45 P17 1.568452 1_555
O45 Sn10 2.061154 1_555
O46 P12 1.573834 1_555
O46 Sn9 2.056685 1_555
O47 P13 1.573534 1_555
O47 Sn10 2.065346 1_555
O48 P24 1.522673 1_555
O48 Zn5 2.014521 1_556
O49 P25 1.522165 1_555
O49 Zn6 2.014686 1_556
O50 P26 1.523338 1_555
O50 Zn5 2.017153 1_556
O51 P27 1.523296 1_555
O51 Zn6 2.017185 1_556
O52 P28 1.523450 1_555
O52 Zn5 2.017162 1_556
O53 P29 1.522715 1_555
O53 Zn6 2.017421 1_556
O54 P30 1.538448 1_555
O54 Zn7 1.990014 1_555
O55 P31 1.524145 1_555
O55 Zn8 2.024621 1_555
O56 P32 1.524674 1_555
O56 Zn7 2.027479 1_555
O57 P33 1.525890 1_555
O57 Zn8 1.978355 1_555
O58 P34 1.524885 1_555
O58 Zn7 2.006405 1_555
O59 P35 1.533320 1_555
O59 Zn8 2.000918 1_555
O60 P34 1.545146 1_555
O60 Sn11 2.026754 1_555
O61 P35 1.553377 1_555
O61 Sn12 2.032758 1_555
O62 P30 1.572015 1_555
O62 Sn11 2.066900 1_555
O63 P31 1.557454 1_555
O63 Sn12 2.052903 1_555
O64 P32 1.556822 1_555
O64 Sn11 2.050121 1_555
O65 P33 1.570391 1_555
O65 Sn12 2.065649 1_555
O66 P26 1.554443 1_555
O66 Sn13 2.017770 1_555
O67 P27 1.554471 1_555
O67 Sn14 2.018907 1_555
O68 P28 1.555081 1_555
O68 Sn13 2.019748 1_555
O69 P29 1.555656 1_555
O69 Sn14 2.020982 1_555
O70 P24 1.569235 1_555
O70 Sn13 2.064413 1_555
O71 P25 1.569321 1_555
O71 Sn14 2.065359 1_555
O72 P34 1.560080 1_555
O72 Sn0 2.062949 1_555
O73 P35 1.540249 1_555
O73 Zn0 2.217222 1_565
O74 P30 1.531387 1_555
O74 Zn0 2.131399 1_565
O75 P31 1.547528 1_555
O75 Sn0 2.077502 1_655
O76 P32 1.547398 1_555
O76 Sn0 2.080256 1_545
O77 P33 1.530469 1_555
O77 Zn0 2.141171 1_555
O78 P26 1.561641 1_555
O78 Sn1 2.050368 1_555
O79 P27 1.561156 1_555
O79 Sn2 2.051226 1_555
O80 P28 1.561993 1_555
O80 Sn1 2.051277 1_565
O81 P29 1.562076 1_555
O81 Sn2 2.050054 1_565
O82 P24 1.560743 1_555
O82 Sn2 2.061290 1_565
O83 P25 1.560836 1_555
O83 Sn1 2.061503 1_665
O84 P12 1.593634 1_555
O84 Sn4 2.095836 1_555
O85 P13 1.594129 1_555
O85 Sn3 2.107458 1_655
O86 P14 1.593013 1_555
O86 Sn3 2.100156 1_555
O87 P15 1.592707 1_555
O87 Sn4 2.107747 1_555
O88 P16 1.594352 1_555
O88 Sn4 2.128614 1_565
O89 P17 1.592798 1_555
O89 Sn3 2.118325 1_665
O90 P18 1.596845 1_555
O90 Sn6 2.109813 1_555
O91 P19 1.596291 1_555
O91 Sn5 2.111614 1_565
O92 P20 1.596438 1_555
O92 Sn6 2.127797 1_545
O93 P21 1.596222 1_555
O93 Sn5 2.111799 1_555
O94 P22 1.594912 1_555
O94 Sn5 2.112012 1_455
O95 P23 1.595469 1_555
O95 Sn6 2.123949 1_545
O96 P10 1.506209 1_555
O96 Zn1 2.065079 1_555
O97 P11 1.506383 1_555
O97 Zn2 2.064923 1_555
O98 P6 1.520904 1_555
O98 Zn1 2.141751 1_555
O99 P7 1.520976 1_555
O99 Zn2 2.144962 1_555
O100 P9 1.521401 1_555
O100 Zn1 2.149211 1_555
O101 P8 1.521452 1_655
O101 Zn2 2.148440 1_555
O102 P2 1.509234 1_555
O102 Zn3 2.057029 1_555
O103 P3 1.519189 1_555
O103 Zn4 2.175237 1_555
O104 P5 1.518751 1_555
O104 Zn3 2.122913 1_555
O105 P4 1.509046 1_555
O105 Zn4 2.074118 1_555
O106 P0 1.518258 1_545
O106 Zn3 2.169503 1_555
O107 P1 1.528075 1_545
O107 Zn4 2.117201 1_555
O108 P24 1.557681 1_555
O108 Sn7 2.079640 1_555
O109 P25 1.557923 1_555
O109 Sn8 2.078981 1_555
O110 P27 1.557993 1_555
O110 Sn7 2.068634 1_555
O111 P26 1.557093 1_655
O111 Sn8 2.069380 1_555
O112 P28 1.557739 1_545
O112 Sn7 2.072748 1_555
O113 P29 1.557714 1_545
O113 Sn8 2.073675 1_555
O114 P30 1.565746 1_545
O114 Sn9 2.043671 1_555
O115 P31 1.573886 1_545
O115 Sn10 2.094291 1_555
O116 P32 1.574051 1_555
O116 Sn9 2.093791 1_555
O117 P33 1.590327 1_555
O117 Sn10 2.073764 1_555
O118 P35 1.575432 1_555
O118 Sn9 2.073746 1_555
O119 P34 1.563802 1_655
O119 Sn10 2.049192 1_555
O120 P22 1.539148 1_555
O120 Zn5 2.216840 1_555
O121 P23 1.539085 1_555
O121 Zn6 2.225572 1_555
O122 P19 1.538628 1_455
O122 Zn5 2.211558 1_555
O123 P18 1.538308 1_555
O123 Zn6 2.199229 1_555
O124 P20 1.539634 1_565
O124 Zn5 2.223386 1_555
O125 P21 1.538797 1_565
O125 Zn6 2.212022 1_555
O126 P14 1.537378 1_565
O126 Zn7 2.226375 1_555
O127 P15 1.537427 1_565
O127 Zn8 2.236628 1_555
O128 P16 1.537450 1_555
O128 Zn7 2.259359 1_555
O129 P17 1.537996 1_555
O129 Zn8 2.210768 1_555
O130 P13 1.538495 1_455
O130 Zn7 2.190374 1_555
O131 P12 1.536569 1_555
O131 Zn8 2.224439 1_555
O132 P0 1.570180 1_555
O132 Sn11 2.091698 1_555
O133 P1 1.563877 1_555
O133 Sn12 2.060814 1_555
O134 P2 1.591632 1_555
O134 Sn11 2.087577 1_555
O135 P3 1.569301 1_555
O135 Sn12 2.094153 1_555
O136 P4 1.562082 1_455
O136 Sn11 2.052544 1_555
O137 P5 1.574359 1_555
O137 Sn12 2.090150 1_555
O138 P6 1.571106 1_555
O138 Sn13 2.110391 1_555
O139 P7 1.571878 1_555
O139 Sn14 2.110807 1_555
O140 P8 1.548516 1_555
O140 Sn13 2.077889 1_555
O141 P9 1.548704 1_555
O141 Sn14 2.079207 1_555
O142 P10 1.573006 1_565
O142 Sn13 2.116372 1_555
O143 P11 1.572480 1_565
O143 Sn14 2.116007 1_555
