# generated using pymatgen
data_Na3Zr3GaSi3(SO8)3
_symmetry_space_group_name_H-M   'P 1'
_cell_length_a   8.94064846
_cell_length_b   9.00544931
_cell_length_c   23.12778888
_cell_angle_alpha   90.05893291
_cell_angle_beta   89.99650858
_cell_angle_gamma   120.01988526
_symmetry_Int_Tables_number   1
_chemical_formula_structural   Na3Zr3GaSi3(SO8)3
_chemical_formula_sum   'Na9 Zr9 Ga3 Si9 S9 O72'
_cell_volume   1612.32209041
_cell_formula_units_Z   3
loop_
 _symmetry_equiv_pos_site_id
 _symmetry_equiv_pos_as_xyz
  1  'x, y, z'
loop_
 _atom_site_type_symbol
 _atom_site_label
 _atom_site_symmetry_multiplicity
 _atom_site_fract_x
 _atom_site_fract_y
 _atom_site_fract_z
 _atom_site_occupancy
  Na  Na0  1  0.35945192  0.36028207  0.24385877  1
  Na  Na1  1  0.63943322  0.62781472  0.75199960  1
  Na  Na2  1  0.97064275  0.29437682  0.41625072  1
  Na  Na3  1  0.99521129  0.00368009  0.49559731  1
  Na  Na4  1  0.99676455  0.98632718  0.00239248  1
  Na  Na5  1  0.66410049  0.33792984  0.83006303  1
  Na  Na6  1  0.66545469  0.32203634  0.32820100  1
  Na  Na7  1  0.30952545  0.65707892  0.16438276  1
  Na  Na8  1  0.30153096  0.65032408  0.66600030  1
  Zr  Zr0  1  0.00582187  0.99071857  0.85030881  1
  Zr  Zr1  1  0.01283211  0.01511690  0.64661381  1
  Zr  Zr2  1  0.00924345  0.00900241  0.14497641  1
  Zr  Zr3  1  0.66474899  0.35339850  0.98168478  1
  Zr  Zr4  1  0.66110547  0.31936921  0.47886949  1
  Zr  Zr5  1  0.34085521  0.65720157  0.02549298  1
  Zr  Zr6  1  0.33087875  0.65217393  0.51803343  1
  Zr  Zr7  1  0.33683222  0.66552985  0.31429676  1
  Zr  Zr8  1  0.32659005  0.65322089  0.81184293  1
  Ga  Ga0  1  0.98912215  0.02637593  0.35211116  1
  Ga  Ga1  1  0.68613316  0.34989902  0.68840619  1
  Ga  Ga2  1  0.69545144  0.34817991  0.17923928  1
  Si  Si0  1  0.98417101  0.29201315  0.24964227  1
  Si  Si1  1  0.30531377  0.28980294  0.74832620  1
  Si  Si2  1  0.99970723  0.70445778  0.74626258  1
  Si  Si3  1  0.95243228  0.33542128  0.58593364  1
  Si  Si4  1  0.95969035  0.62774906  0.08508191  1
  Si  Si5  1  0.38905590  0.33417090  0.09019833  1
  Si  Si6  1  0.63090643  0.67325235  0.91529696  1
  Si  Si7  1  0.62811484  0.95198397  0.41608870  1
  Si  Si8  1  0.33086804  0.36500645  0.41339668  1
  S  S0  1  0.28669432  0.00055172  0.25250704  1
  S  S1  1  0.71635815  0.71205790  0.25231928  1
  S  S2  1  0.70939647  0.00555618  0.74977713  1
  S  S3  1  0.37958132  0.04229441  0.58535112  1
  S  S4  1  0.66711181  0.62251759  0.58496712  1
  S  S5  1  0.66609278  0.04828234  0.08391642  1
  S  S6  1  0.03996261  0.37134206  0.91737521  1
  S  S7  1  0.33712975  0.95612895  0.91722876  1
  S  S8  1  0.04245759  0.67421158  0.41626355  1
  O  O0  1  0.19858040  0.02148613  0.30350826  1
  O  O1  1  0.82013011  0.79559783  0.30433782  1
  O  O2  1  0.96293942  0.18684917  0.30998002  1
  O  O3  1  0.20930276  0.17650397  0.80557887  1
  O  O4  1  0.96197639  0.79291802  0.80329218  1
  O  O5  1  0.81589684  0.02959082  0.80190131  1
  O  O6  1  0.78673948  0.97189030  0.69841952  1
  O  O7  1  0.17749490  0.20748846  0.69313126  1
  O  O8  1  0.01949742  0.82452574  0.69138674  1
  O  O9  1  0.79424846  0.81171238  0.19942301  1
  O  O10  1  0.02706643  0.19678249  0.19715124  1
  O  O11  1  0.18324081  0.97328975  0.19881592  1
  O  O12  1  0.85246527  0.35519080  0.64128044  1
  O  O13  1  0.48083468  0.12520671  0.63693787  1
  O  O14  1  0.63960924  0.52294019  0.63857488  1
  O  O15  1  0.88282664  0.50929552  0.14139333  1
  O  O16  1  0.63865804  0.12442189  0.13614333  1
  O  O17  1  0.49976458  0.35350296  0.14890292  1
  O  O18  1  0.46844565  0.30462538  0.03078734  1
  O  O19  1  0.84451528  0.53608059  0.02711861  1
  O  O20  1  0.69152985  0.14823843  0.03097645  1
  O  O21  1  0.45754768  0.14669480  0.53206254  1
  O  O22  1  0.68521991  0.53645316  0.53337638  1
  O  O23  1  0.84722351  0.31596849  0.52545397  1
  O  O24  1  0.52828627  0.68963989  0.97080529  1
  O  O25  1  0.14517098  0.45703595  0.96893271  1
  O  O26  1  0.31070455  0.85228880  0.96913742  1
  O  O27  1  0.53021718  0.83892145  0.47322510  1
  O  O28  1  0.28917291  0.45565185  0.46881857  1
  O  O29  1  0.14774910  0.69721956  0.46869070  1
  O  O30  1  0.12063196  0.63724089  0.36525609  1
  O  O31  1  0.50494969  0.86758928  0.35999333  1
  O  O32  1  0.35674778  0.48423850  0.35663541  1
  O  O33  1  0.12021035  0.47900764  0.86496266  1
  O  O34  1  0.35128468  0.87078327  0.86450930  1
  O  O35  1  0.51778004  0.65094910  0.85664609  1
  O  O36  1  0.02344683  0.82375569  0.40829149  1
  O  O37  1  0.82026079  0.97381446  0.41036643  1
  O  O38  1  0.15733662  0.17689978  0.40726737  1
  O  O39  1  0.02932357  0.20389744  0.91082855  1
  O  O40  1  0.18270240  0.97878062  0.91203846  1
  O  O41  1  0.82149410  0.84572777  0.91116735  1
  O  O42  1  0.97044921  0.16232604  0.58952480  1
  O  O43  1  0.20329746  0.02307052  0.58746079  1
  O  O44  1  0.82090310  0.79556330  0.58849520  1
  O  O45  1  0.97012931  0.81295823  0.09117104  1
  O  O46  1  0.81861161  0.02474492  0.08992723  1
  O  O47  1  0.19270001  0.16895309  0.09182188  1
  O  O48  1  0.68713890  0.15491456  0.74391277  1
  O  O49  1  0.49712094  0.31482582  0.73796375  1
  O  O50  1  0.82456657  0.51737772  0.74386591  1
  O  O51  1  0.68549603  0.53439230  0.24864397  1
  O  O52  1  0.80989481  0.30607444  0.24074770  1
  O  O53  1  0.45716628  0.15755987  0.24724869  1
  O  O54  1  0.64593425  0.49860475  0.91890925  1
  O  O55  1  0.86557500  0.34841046  0.92180757  1
  O  O56  1  0.49404024  0.12673111  0.92109342  1
  O  O57  1  0.66065457  0.15002514  0.42212603  1
  O  O58  1  0.50509727  0.35696940  0.42351131  1
  O  O59  1  0.87115522  0.51374907  0.42288332  1
  O  O60  1  0.36722028  0.50461926  0.08215160  1
  O  O61  1  0.15290825  0.65451098  0.07510279  1
  O  O62  1  0.51049988  0.87414492  0.07844801  1
  O  O63  1  0.36009973  0.87041785  0.57827231  1
  O  O64  1  0.51051957  0.64151515  0.57886385  1
  O  O65  1  0.14586903  0.50766249  0.57966427  1
  O  O66  1  0.30682813  0.84670342  0.25675433  1
  O  O67  1  0.53746445  0.69347867  0.25547659  1
  O  O68  1  0.16551781  0.48127936  0.25527845  1
  O  O69  1  0.33131286  0.48540634  0.75541478  1
  O  O70  1  0.17209609  0.69063637  0.75579227  1
  O  O71  1  0.53776770  0.84620814  0.75627169  1
loop_
_geom_bond_atom_site_label_1
_geom_bond_atom_site_label_2
_geom_bond_distance
_geom_bond_site_symmetry_2
Na0 O53 2.387126 1_555
Na0 O68 2.480576 1_555
Na0 O51 2.528734 1_555
Na0 O17 2.544881 1_555
Na0 O67 2.613174 1_555
Na0 O10 2.790167 1_555
Na0 O32 2.840911 1_555
Na1 O50 2.326144 1_555
Na1 O69 2.388511 1_555
Na1 O49 2.465471 1_555
Na1 O71 2.548005 1_555
Na1 O35 2.703581 1_555
Na1 O4 2.764144 1_555
Na1 O14 2.787449 1_555
Na1 O6 2.965732 1_555
Na2 O38 2.390592 1_655
Na2 O57 2.405175 1_555
Na2 O37 2.505080 1_545
Na2 O59 2.544626 1_555
Na2 O2 2.628996 1_555
Na2 O28 2.748815 1_655
Na2 O23 2.801347 1_555
Na2 O30 2.930372 1_655
Na3 O37 2.446006 1_545
Na3 O38 2.539977 1_655
Na3 O42 2.668186 1_555
Na3 O36 2.677446 1_645
Na3 O44 2.764553 1_545
Na3 O43 2.771327 1_655
Na4 O45 2.518853 1_555
Na4 O41 2.553382 1_554
Na4 O47 2.676214 1_665
Na4 O40 2.692088 1_654
Na4 O46 2.702742 1_565
Na4 O39 2.801064 1_664
Na5 O50 2.516038 1_555
Na5 O49 2.549089 1_555
Na5 O54 2.563457 1_555
Na5 O48 2.657362 1_555
Na5 O56 2.734203 1_555
Na5 O55 2.754236 1_555
Na6 O52 2.442148 1_555
Na6 O53 2.530194 1_555
Na6 O51 2.595974 1_555
Na6 O57 2.657169 1_555
Na6 O58 2.731841 1_555
Na6 O59 2.823793 1_555
Na7 O61 2.488516 1_555
Na7 O60 2.543857 1_555
Na7 O68 2.559365 1_555
Na7 O62 2.737315 1_555
Na7 O66 2.741232 1_555
Na7 O67 2.833700 1_555
Na8 O65 2.404262 1_555
Na8 O70 2.490409 1_555
Na8 O69 2.637257 1_555
Na8 O63 2.699813 1_555
Na8 O64 2.776043 1_555
Na8 O71 2.862955 1_555
Ga0 O2 1.853129 1_555
Ga0 O37 1.898582 1_545
Ga0 O38 1.919216 1_655
Ga0 O1 2.162480 1_545
Ga0 O0 2.203321 1_655
Ga0 O36 2.382675 1_645
Ga1 O12 1.825020 1_555
Ga1 O50 1.892142 1_555
Ga1 O49 1.932772 1_555
Ga1 O14 2.140541 1_555
Ga1 O48 2.179858 1_555
Ga1 O13 2.271429 1_555
Ga2 O15 1.802248 1_555
Ga2 O52 1.898385 1_555
Ga2 O17 1.907795 1_555
Ga2 O16 2.069734 1_555
Ga2 O51 2.353804 1_555
Ga2 O53 2.511045 1_555
O0 S0 1.481731 1_555
O1 S1 1.474456 1_555
O2 Si0 1.644111 1_555
O3 Si1 1.630177 1_555
O3 Zr0 2.033918 1_545
O4 Si2 1.659748 1_555
O4 Zr0 1.951007 1_655
O5 S2 1.483292 1_555
O5 Zr0 2.203442 1_645
O6 S2 1.479816 1_565
O6 Zr1 2.210549 1_665
O7 Si1 1.623452 1_555
O7 Zr1 1.941749 1_555
O8 Si2 1.619434 1_455
O8 Zr1 2.031675 1_565
O9 S1 1.470988 1_555
O9 Zr2 2.241478 1_665
O10 Si0 1.638062 1_455
O10 Zr2 2.016759 1_555
O11 S0 1.493334 1_565
O11 Zr2 2.139075 1_565
O12 Si3 1.621004 1_555
O13 S3 1.456859 1_555
O14 S4 1.477632 1_555
O15 Si4 1.604851 1_555
O16 S5 1.468285 1_555
O17 Si5 1.637269 1_555
O18 Si5 1.628097 1_555
O18 Zr3 1.947391 1_554
O19 Si4 1.638983 1_555
O19 Zr3 1.935135 1_554
O20 S5 1.469184 1_555
O20 Zr3 2.284169 1_554
O21 S3 1.495084 1_555
O21 Zr4 2.101346 1_555
O22 S4 1.474523 1_555
O22 Zr4 2.242915 1_555
O23 Si3 1.645233 1_555
O23 Zr4 1.995482 1_555
O24 Si6 1.626844 1_555
O24 Zr5 2.000976 1_556
O25 S6 1.474477 1_555
O25 Zr5 2.204814 1_556
O26 S7 1.467232 1_555
O26 Zr5 2.310109 1_556
O27 Si7 1.630918 1_555
O27 Zr6 2.020603 1_555
O28 Si8 1.658483 1_555
O28 Zr6 1.975423 1_555
O29 S8 1.484515 1_555
O29 Zr6 2.193940 1_555
O30 S8 1.490956 1_555
O30 Zr7 2.167471 1_555
O31 Si7 1.622988 1_555
O31 Zr7 1.986659 1_555
O32 Si8 1.638312 1_555
O32 Zr7 1.987495 1_555
O33 S6 1.493482 1_555
O33 Zr8 2.117176 1_555
O34 S7 1.479445 1_555
O34 Zr8 2.221114 1_555
O35 Si6 1.643063 1_555
O35 Zr8 2.007809 1_555
O36 S8 1.451230 1_555
O37 Si7 1.633851 1_555
O38 Si8 1.632956 1_555
O39 S6 1.470303 1_555
O39 Zr0 2.297756 1_545
O40 S7 1.498060 1_555
O40 Zr0 2.172882 1_555
O41 Si6 1.636213 1_555
O41 Zr0 2.062115 1_655
O42 Si3 1.647489 1_555
O42 Zr1 2.037312 1_655
O43 S3 1.497801 1_555
O43 Zr1 2.157419 1_555
O44 S4 1.476980 1_555
O44 Zr1 2.293586 1_665
O45 Si4 1.629161 1_555
O45 Zr2 2.040946 1_665
O46 S5 1.487617 1_555
O46 Zr2 2.188228 1_655
O47 Si5 1.638175 1_555
O47 Zr2 1.978840 1_555
O48 S2 1.461275 1_555
O49 Si1 1.631694 1_555
O50 Si2 1.628963 1_555
O51 S1 1.483649 1_555
O52 Si0 1.638193 1_555
O53 S0 1.476815 1_555
O54 Si6 1.646324 1_555
O54 Zr3 2.017466 1_555
O55 S6 1.470347 1_655
O55 Zr3 2.285587 1_555
O56 S7 1.476332 1_545
O56 Zr3 2.310179 1_555
O57 Si7 1.662876 1_545
O57 Zr4 2.009402 1_555
O58 Si8 1.612250 1_555
O58 Zr4 2.042804 1_555
O59 S8 1.497723 1_655
O59 Zr4 2.232177 1_555
O60 Si5 1.652058 1_555
O60 Zr5 1.997146 1_555
O61 Si4 1.636785 1_455
O61 Zr5 2.024784 1_555
O62 S5 1.492368 1_565
O62 Zr5 2.155831 1_555
O63 S3 1.477372 1_565
O63 Zr6 2.313571 1_555
O64 S4 1.499678 1_555
O64 Zr6 2.173221 1_555
O65 Si3 1.653546 1_455
O65 Zr6 2.076296 1_555
O66 S0 1.487084 1_565
O66 Zr7 2.224290 1_555
O67 S1 1.524379 1_555
O67 Zr7 2.163399 1_555
O68 Si0 1.668918 1_455
O68 Zr7 2.101165 1_555
O69 Si1 1.665379 1_555
O69 Zr8 2.012116 1_555
O70 Si2 1.622229 1_455
O70 Zr8 2.041746 1_555
O71 S2 1.494496 1_565
O71 Zr8 2.226667 1_555
