# generated using pymatgen
data_Na8Mg3ZrSi3(SO8)3
_symmetry_space_group_name_H-M   'P 1'
_cell_length_a   9.16227482
_cell_length_b   9.16419818
_cell_length_c   22.38296332
_cell_angle_alpha   89.43343479
_cell_angle_beta   90.17364686
_cell_angle_gamma   119.59865079
_symmetry_Int_Tables_number   1
_chemical_formula_structural   Na8Mg3ZrSi3(SO8)3
_chemical_formula_sum   'Na24 Mg9 Zr3 Si9 S9 O72'
_cell_volume   1634.05252616
_cell_formula_units_Z   3
loop_
 _symmetry_equiv_pos_site_id
 _symmetry_equiv_pos_as_xyz
  1  'x, y, z'
loop_
 _atom_site_type_symbol
 _atom_site_label
 _atom_site_symmetry_multiplicity
 _atom_site_fract_x
 _atom_site_fract_y
 _atom_site_fract_z
 _atom_site_occupancy
  Na  Na0  1  0.62894241  0.99478080  0.26021600  1
  Na  Na1  1  0.37096689  0.36832336  0.24336349  1
  Na  Na2  1  0.00209229  0.62604054  0.25271409  1
  Na  Na3  1  0.64604113  0.65043650  0.73187329  1
  Na  Na4  1  0.98109811  0.34351519  0.75132509  1
  Na  Na5  1  0.38974525  0.01549422  0.73836448  1
  Na  Na6  1  0.31651438  0.33334812  0.58404061  1
  Na  Na7  1  0.04068551  0.71711374  0.57286111  1
  Na  Na8  1  0.65176222  0.94630842  0.58380120  1
  Na  Na9  1  0.28202634  0.95816792  0.07558016  1
  Na  Na10  1  0.66418887  0.68230316  0.08612631  1
  Na  Na11  1  0.05357174  0.35182842  0.07989499  1
  Na  Na12  1  0.99170842  0.67571718  0.92168332  1
  Na  Na13  1  0.71083060  0.04355609  0.90530523  1
  Na  Na14  1  0.30762855  0.28312052  0.92273200  1
  Na  Na15  1  0.96411579  0.30201134  0.41340887  1
  Na  Na16  1  0.32635655  0.00143319  0.42369019  1
  Na  Na17  1  0.71490710  0.69301514  0.42631893  1
  Na  Na18  1  0.98890966  0.97621551  0.50142688  1
  Na  Na19  1  0.02227449  0.01206246  0.00082752  1
  Na  Na20  1  0.66881009  0.31129216  0.83032573  1
  Na  Na21  1  0.68023528  0.33330951  0.33863458  1
  Na  Na22  1  0.32024784  0.65280396  0.15880554  1
  Na  Na23  1  0.35620848  0.68603584  0.65550851  1
  Mg  Mg0  1  0.99486606  0.99156263  0.35449720  1
  Mg  Mg1  1  0.00131860  0.01230600  0.85193689  1
  Mg  Mg2  1  0.98273155  0.98447439  0.64430931  1
  Mg  Mg3  1  0.00905325  0.00087741  0.14471369  1
  Mg  Mg4  1  0.65854988  0.32075101  0.67834445  1
  Mg  Mg5  1  0.66841204  0.34292954  0.17669544  1
  Mg  Mg6  1  0.30952219  0.65545152  0.01872316  1
  Mg  Mg7  1  0.34713944  0.69288357  0.51630840  1
  Mg  Mg8  1  0.33160062  0.68076539  0.32949795  1
  Zr  Zr0  1  0.66611132  0.33532168  0.98464761  1
  Zr  Zr1  1  0.66199758  0.33193131  0.48410433  1
  Zr  Zr2  1  0.33354184  0.67915567  0.81711350  1
  Si  Si0  1  0.70939407  0.00350487  0.74993908  1
  Si  Si1  1  0.36003029  0.03170320  0.58733843  1
  Si  Si2  1  0.66171325  0.62812765  0.58667158  1
  Si  Si3  1  0.96621930  0.63427193  0.08802434  1
  Si  Si4  1  0.36683716  0.33814836  0.08697413  1
  Si  Si5  1  0.03646840  0.36576210  0.91830385  1
  Si  Si6  1  0.33059274  0.96627236  0.91996571  1
  Si  Si7  1  0.63592821  0.96616972  0.41413582  1
  Si  Si8  1  0.03663416  0.66426672  0.41486987  1
  S  S0  1  0.29543626  0.00047689  0.24916865  1
  S  S1  1  0.70485224  0.70495913  0.24955707  1
  S  S2  1  0.99967731  0.28888337  0.24868986  1
  S  S3  1  0.29442680  0.29347871  0.75074813  1
  S  S4  1  0.99864659  0.70848812  0.75085647  1
  S  S5  1  0.96513212  0.33428498  0.58598532  1
  S  S6  1  0.66783551  0.03761408  0.08728830  1
  S  S7  1  0.62638484  0.66708102  0.91802202  1
  S  S8  1  0.33119206  0.37432144  0.41416610  1
  O  O0  1  0.21566357  0.02520670  0.30290142  1
  O  O1  1  0.80785676  0.79000653  0.30296265  1
  O  O2  1  0.98597536  0.18925047  0.30327921  1
  O  O3  1  0.21396135  0.19245499  0.80540596  1
  O  O4  1  0.98278998  0.78724910  0.80598821  1
  O  O5  1  0.81252224  0.02051993  0.81132324  1
  O  O6  1  0.79320974  0.96985229  0.69228959  1
  O  O7  1  0.19399452  0.21842770  0.69759545  1
  O  O8  1  0.02546517  0.81177172  0.69804816  1
  O  O9  1  0.78406225  0.80792112  0.19531143  1
  O  O10  1  0.01342335  0.20348539  0.19497114  1
  O  O11  1  0.19356160  0.98422508  0.19548924  1
  O  O12  1  0.88459376  0.36087225  0.63915897  1
  O  O13  1  0.48164942  0.11680109  0.64430167  1
  O  O14  1  0.64503572  0.51560181  0.64591022  1
  O  O15  1  0.88083168  0.51162865  0.14527774  1
  O  O16  1  0.64016479  0.11879765  0.13967657  1
  O  O17  1  0.47914703  0.35901966  0.14602584  1
  O  O18  1  0.46088734  0.30474906  0.02785275  1
  O  O19  1  0.84504497  0.53618924  0.02769267  1
  O  O20  1  0.69491926  0.14595083  0.03198619  1
  O  O21  1  0.45787315  0.15211209  0.52693457  1
  O  O22  1  0.68827859  0.53262720  0.52760132  1
  O  O23  1  0.85532834  0.30801468  0.53149822  1
  O  O24  1  0.55010364  0.69221435  0.97073674  1
  O  O25  1  0.15394516  0.45319749  0.97483078  1
  O  O26  1  0.31271385  0.85302626  0.97725928  1
  O  O27  1  0.55144711  0.84456246  0.47158640  1
  O  O28  1  0.30564437  0.44803025  0.46777889  1
  O  O29  1  0.15089969  0.68422414  0.47293034  1
  O  O30  1  0.10657898  0.62068117  0.35372608  1
  O  O31  1  0.52271664  0.89033933  0.35352799  1
  O  O32  1  0.35756206  0.47911075  0.35962525  1
  O  O33  1  0.12716670  0.48641109  0.85718701  1
  O  O34  1  0.36546914  0.87806916  0.86003124  1
  O  O35  1  0.52179299  0.64315486  0.86381702  1
  O  O36  1  0.02209056  0.83680275  0.40989701  1
  O  O37  1  0.83007574  0.00264732  0.40874025  1
  O  O38  1  0.18528754  0.20278104  0.40653041  1
  O  O39  1  0.00905912  0.17713439  0.91332456  1
  O  O40  1  0.16092246  0.97863242  0.91027772  1
  O  O41  1  0.79794243  0.81076177  0.91034999  1
  O  O42  1  0.97896596  0.18103387  0.59055207  1
  O  O43  1  0.17971374  0.02860125  0.58994053  1
  O  O44  1  0.82932469  0.81450906  0.58484410  1
  O  O45  1  0.96900822  0.81494975  0.08855478  1
  O  O46  1  0.82247689  0.02552589  0.09241538  1
  O  O47  1  0.17832767  0.17240822  0.08789862  1
  O  O48  1  0.68630539  0.17255108  0.74663117  1
  O  O49  1  0.46707365  0.31737992  0.74827630  1
  O  O50  1  0.85197763  0.53678437  0.74712303  1
  O  O51  1  0.69116586  0.53459265  0.24728301  1
  O  O52  1  0.84337729  0.30491536  0.24703381  1
  O  O53  1  0.46965970  0.15055767  0.24482178  1
  O  O54  1  0.63825146  0.50978260  0.92081317  1
  O  O55  1  0.84923088  0.35620132  0.92055467  1
  O  O56  1  0.50103786  0.15499180  0.92025291  1
  O  O57  1  0.64753298  0.15437926  0.42124276  1
  O  O58  1  0.48794920  0.35758528  0.41852405  1
  O  O59  1  0.84094483  0.49905955  0.42136985  1
  O  O60  1  0.36401569  0.51404365  0.07884646  1
  O  O61  1  0.15453843  0.66061383  0.08198569  1
  O  O62  1  0.52064012  0.87079240  0.07963945  1
  O  O63  1  0.33684689  0.84427591  0.58045465  1
  O  O64  1  0.48660910  0.63394370  0.57912917  1
  O  O65  1  0.13146683  0.48272901  0.57785848  1
  O  O66  1  0.31020680  0.84499943  0.25280859  1
  O  O67  1  0.53097733  0.68173962  0.25394770  1
  O  O68  1  0.15282616  0.45922461  0.25035373  1
  O  O69  1  0.31149030  0.46796357  0.75626073  1
  O  O70  1  0.15561814  0.68781582  0.75445485  1
  O  O71  1  0.51266853  0.82707525  0.75406427  1
loop_
_geom_bond_atom_site_label_1
_geom_bond_atom_site_label_2
_geom_bond_distance
_geom_bond_site_symmetry_2
Na0 O31 2.297424 1_555
Na0 O53 2.516305 1_565
Na0 O66 2.545929 1_555
Na0 O52 2.548670 1_565
Na0 O67 2.553180 1_555
Na0 O16 2.899518 1_565
Na1 O17 2.415926 1_555
Na1 O67 2.511325 1_555
Na1 O68 2.522358 1_555
Na1 O51 2.553728 1_555
Na1 O53 2.565639 1_555
Na1 O32 2.827563 1_555
Na2 O30 2.462097 1_555
Na2 O68 2.516906 1_555
Na2 O66 2.529851 1_555
Na2 O51 2.544453 1_455
Na2 O52 2.563213 1_455
Na2 O15 2.645644 1_455
Na3 O14 2.294511 1_555
Na3 O71 2.516741 1_555
Na3 O50 2.586865 1_555
Na3 O49 2.678988 1_555
Na3 O6 2.688593 1_555
Na3 O69 2.723722 1_555
Na4 O48 2.362674 1_555
Na4 O50 2.571249 1_555
Na4 O69 2.658298 1_655
Na4 O12 2.688467 1_555
Na4 O33 2.726058 1_655
Na4 O70 2.745368 1_655
Na4 O5 2.892810 1_555
Na4 O7 2.969111 1_655
Na5 O13 2.281126 1_555
Na5 O48 2.372290 1_555
Na5 O49 2.505964 1_555
Na5 O71 2.506021 1_545
Na5 O70 2.714543 1_545
Na6 O64 2.404885 1_555
Na6 O43 2.433882 1_555
Na6 O65 2.656197 1_555
Na6 O42 2.696059 1_455
Na6 O7 2.761518 1_555
Na6 O28 2.816748 1_555
Na6 O21 2.871721 1_555
Na6 O14 2.970137 1_555
Na7 O63 2.372225 1_555
Na7 O44 2.516769 1_455
Na7 O43 2.518689 1_565
Na7 O29 2.537970 1_555
Na7 O65 2.660371 1_555
Na7 O8 2.965368 1_555
Na7 O22 2.988577 1_455
Na8 O44 2.458955 1_555
Na8 O64 2.494194 1_555
Na8 O63 2.557354 1_555
Na8 O27 2.684875 1_555
Na8 O42 2.696451 1_565
Na8 O6 2.708834 1_555
Na9 O61 2.380648 1_555
Na9 O26 2.482722 1_554
Na9 O45 2.512222 1_455
Na9 O47 2.586207 1_565
Na9 O62 2.675022 1_555
Na9 O11 2.852101 1_555
Na9 O18 2.952367 1_565
Na10 O60 2.404408 1_555
Na10 O45 2.434599 1_555
Na10 O62 2.640606 1_555
Na10 O9 2.700830 1_555
Na10 O46 2.741851 1_565
Na10 O24 2.800767 1_554
Na10 O17 2.902167 1_555
Na10 O19 2.913599 1_555
Na11 O47 2.427286 1_555
Na11 O60 2.474603 1_555
Na11 O61 2.506387 1_555
Na11 O25 2.522885 1_554
Na11 O46 2.689999 1_455
Na11 O10 2.839079 1_555
Na12 O40 2.431416 1_655
Na12 O55 2.550273 1_555
Na12 O41 2.628541 1_555
Na12 O19 2.707929 1_556
Na12 O4 2.790388 1_555
Na12 O54 2.817079 1_555
Na12 O26 2.852169 1_655
Na12 O33 2.970080 1_655
Na13 O5 2.356430 1_555
Na13 O39 2.386245 1_655
Na13 O55 2.522149 1_555
Na13 O56 2.607557 1_555
Na13 O41 2.622554 1_545
Na13 O34 2.934295 1_545
Na13 O20 3.021933 1_556
Na14 O39 2.418045 1_555
Na14 O40 2.445144 1_545
Na14 O56 2.565033 1_555
Na14 O18 2.694721 1_556
Na14 O54 2.697430 1_555
Na14 O3 2.765573 1_555
Na14 O25 2.825907 1_555
Na15 O37 2.392113 1_555
Na15 O57 2.529134 1_555
Na15 O59 2.566493 1_555
Na15 O38 2.604251 1_655
Na15 O2 2.728028 1_555
Na15 O23 2.838307 1_555
Na15 O30 2.860886 1_655
Na15 O28 2.989335 1_655
Na16 O36 2.447931 1_545
Na16 O57 2.559708 1_555
Na16 O21 2.664888 1_555
Na16 O38 2.749865 1_555
Na16 O29 2.753269 1_545
Na16 O58 2.842206 1_555
Na16 O0 2.928409 1_555
Na16 O31 2.932179 1_545
Na17 O36 2.475068 1_655
Na17 O37 2.518434 1_565
Na17 O59 2.556841 1_555
Na17 O22 2.634846 1_555
Na17 O27 2.700022 1_555
Na17 O58 2.738192 1_555
Na17 O1 2.890819 1_555
Na18 O44 2.375185 1_555
Na18 O36 2.522130 1_655
Na18 O43 2.525979 1_665
Na18 O37 2.607771 1_565
Na18 O42 2.784792 1_565
Na18 O38 2.881937 1_665
Na19 O47 2.442563 1_555
Na19 O40 2.495543 1_544
Na19 O39 2.502001 1_554
Na19 O45 2.534106 1_445
Na19 O46 2.796376 1_455
Na19 O41 2.834091 1_444
Na20 O48 2.324201 1_555
Na20 O56 2.500560 1_555
Na20 O55 2.510955 1_555
Na20 O49 2.621373 1_555
Na20 O50 2.659314 1_555
Na20 O54 2.840551 1_555
Na21 O57 2.378125 1_555
Na21 O59 2.394675 1_555
Na21 O58 2.600965 1_555
Na21 O52 2.630410 1_555
Na21 O51 2.708802 1_555
Na21 O53 2.790969 1_555
Na22 O61 2.314281 1_555
Na22 O60 2.352456 1_555
Na22 O62 2.613077 1_555
Na22 O68 2.637803 1_555
Na22 O66 2.787890 1_555
Na22 O67 2.795296 1_555
Na23 O63 2.271713 1_555
Na23 O64 2.273769 1_555
Na23 O71 2.607449 1_555
Na23 O65 2.642851 1_555
Na23 O70 2.887553 1_555
Na23 O69 2.890492 1_555
Mg0 O36 1.980932 1_655
Mg0 O37 1.982203 1_565
Mg0 O1 2.140544 1_555
Mg0 O2 2.169588 1_565
Mg0 O38 2.200756 1_665
Mg0 O0 2.216372 1_665
Mg1 O5 1.985449 1_455
Mg1 O39 2.027144 1_555
Mg1 O40 2.089283 1_545
Mg1 O3 2.099292 1_555
Mg1 O4 2.243958 1_445
Mg1 O41 2.271614 1_445
Mg2 O6 1.991273 1_555
Mg2 O44 2.010040 1_555
Mg2 O43 2.045579 1_665
Mg2 O8 2.162553 1_655
Mg2 O42 2.170711 1_565
Mg2 O7 2.388095 1_665
Mg3 O45 2.009945 1_445
Mg3 O47 2.014369 1_555
Mg3 O11 2.100607 1_545
Mg3 O10 2.163817 1_555
Mg3 O46 2.169714 1_455
Mg3 O9 2.243349 1_445
Mg4 O13 1.931085 1_555
Mg4 O14 1.980695 1_555
Mg4 O12 2.108607 1_555
Mg4 O48 2.131468 1_555
Mg4 O49 2.343285 1_555
Mg4 O50 2.451133 1_555
Mg5 O15 1.920152 1_555
Mg5 O17 1.934802 1_555
Mg5 O16 2.116518 1_555
Mg5 O51 2.305639 1_555
Mg5 O53 2.354069 1_555
Mg5 O52 2.386510 1_555
Mg6 O25 1.962171 1_554
Mg6 O26 2.013740 1_554
Mg6 O61 2.025731 1_555
Mg6 O60 2.083318 1_555
Mg6 O24 2.323697 1_554
Mg6 O62 2.400312 1_555
Mg7 O27 1.962583 1_555
Mg7 O29 2.007936 1_555
Mg7 O63 2.040754 1_555
Mg7 O64 2.134888 1_555
Mg7 O28 2.358482 1_555
Mg7 O65 2.390914 1_555
Mg8 O30 1.930639 1_555
Mg8 O31 1.933050 1_555
Mg8 O32 2.082077 1_555
Mg8 O66 2.342746 1_555
Mg8 O67 2.489779 1_555
Mg8 O68 2.590654 1_555
O0 S0 1.485398 1_555
O1 S1 1.487287 1_555
O2 S2 1.485946 1_555
O3 S3 1.485322 1_555
O4 S4 1.478901 1_555
O5 Si0 1.629637 1_555
O6 Si0 1.611745 1_565
O7 S3 1.455872 1_555
O8 S4 1.450271 1_455
O9 S1 1.482386 1_555
O10 S2 1.480187 1_455
O11 S0 1.482043 1_565
O12 S5 1.486300 1_555
O13 Si1 1.621146 1_555
O14 Si2 1.631986 1_555
O15 Si3 1.620649 1_555
O16 S6 1.482622 1_555
O17 Si4 1.626288 1_555
O18 Si4 1.691997 1_555
O18 Zr0 2.008619 1_554
O19 Si3 1.700955 1_555
O19 Zr0 2.012183 1_554
O20 S6 1.521074 1_555
O20 Zr0 2.149076 1_554
O21 Si1 1.688155 1_555
O21 Zr1 2.016816 1_555
O22 Si2 1.675883 1_555
O22 Zr1 1.996268 1_555
O23 S5 1.522036 1_555
O23 Zr1 2.163002 1_555
O24 S7 1.450210 1_555
O25 Si5 1.600387 1_555
O26 Si6 1.598577 1_555
O27 Si7 1.618715 1_555
O28 S8 1.457746 1_555
O29 Si8 1.620399 1_555
O30 Si8 1.646886 1_555
O31 Si7 1.642324 1_555
O32 S8 1.490065 1_555
O33 Si5 1.689301 1_555
O33 Zr2 2.044390 1_555
O34 Si6 1.683546 1_555
O34 Zr2 1.958940 1_555
O35 S7 1.493011 1_555
O35 Zr2 2.172780 1_555
O36 Si8 1.653710 1_555
O37 Si7 1.644284 1_545
O38 S8 1.488465 1_555
O39 Si5 1.624324 1_555
O40 Si6 1.627250 1_555
O41 S7 1.478718 1_555
O42 S5 1.473719 1_555
O43 Si1 1.639458 1_555
O44 Si2 1.638687 1_555
O45 Si3 1.643457 1_555
O46 S6 1.478772 1_555
O47 Si4 1.642763 1_555
O48 Si0 1.664795 1_555
O49 S3 1.487035 1_555
O50 S4 1.483885 1_555
O51 S1 1.504666 1_555
O52 S2 1.510357 1_555
O53 S0 1.509548 1_555
O54 S7 1.498896 1_555
O54 Zr0 2.240210 1_555
O55 Si5 1.674869 1_655
O55 Zr0 2.145151 1_555
O56 Si6 1.661936 1_545
O56 Zr0 2.158895 1_555
O57 Si7 1.683945 1_545
O57 Zr1 2.115643 1_555
O58 S8 1.520631 1_555
O58 Zr1 2.258823 1_555
O59 Si8 1.686340 1_655
O59 Zr1 2.120493 1_555
O60 Si4 1.633232 1_555
O61 Si3 1.625721 1_455
O62 S6 1.467104 1_565
O63 Si1 1.632087 1_565
O64 Si2 1.639494 1_555
O65 S5 1.468014 1_455
O66 S0 1.497732 1_565
O67 S1 1.502843 1_555
O68 S2 1.498067 1_455
O69 S3 1.534062 1_555
O69 Zr2 2.303481 1_555
O70 S4 1.542397 1_455
O70 Zr2 2.177732 1_555
O71 Si0 1.729375 1_565
O71 Zr2 2.073927 1_555
