# generated using pymatgen
data_TlAgCl3
_symmetry_space_group_name_H-M   'P 1'
_cell_length_a   7.14034809
_cell_length_b   7.14034809
_cell_length_c   7.14034760
_cell_angle_alpha   60.07314017
_cell_angle_beta   60.07314017
_cell_angle_gamma   60.07314017
_symmetry_Int_Tables_number   1
_chemical_formula_structural   TlAgCl3
_chemical_formula_sum   'Tl2 Ag2 Cl6'
_cell_volume   257.84717204
_cell_formula_units_Z   2
loop_
 _symmetry_equiv_pos_site_id
 _symmetry_equiv_pos_as_xyz
  1  'x, y, z'
loop_
 _atom_site_type_symbol
 _atom_site_label
 _atom_site_symmetry_multiplicity
 _atom_site_fract_x
 _atom_site_fract_y
 _atom_site_fract_z
 _atom_site_occupancy
  Tl  Tl0  1  0.25687080  0.25687080  0.25687080  1
  Tl  Tl1  1  0.75687080  0.75687080  0.75687080  1
  Ag  Ag0  1  0.00551074  0.00551074  0.00551074  1
  Ag  Ag1  1  0.50551074  0.50551074  0.50551074  1
  Cl  Cl0  1  0.78198560  0.25510321  0.72902866  1
  Cl  Cl1  1  0.72902866  0.78198560  0.25510321  1
  Cl  Cl2  1  0.25510321  0.72902866  0.78198560  1
  Cl  Cl3  1  0.28198560  0.22902866  0.75510321  1
  Cl  Cl4  1  0.22902866  0.75510321  0.28198560  1
  Cl  Cl5  1  0.75510321  0.28198560  0.22902866  1
loop_
_geom_bond_atom_site_label_1
_geom_bond_atom_site_label_2
_geom_bond_distance
_geom_bond_site_symmetry_2
Ag0 Cl4 2.532941 1_545
Ag0 Cl5 2.532941 1_455
Ag0 Cl3 2.532941 1_554
Ag0 Cl0 2.533005 1_454
Ag0 Cl2 2.533005 1_544
Ag0 Cl1 2.533005 1_445
Ag1 Cl2 2.532941 1_555
Ag1 Cl0 2.532941 1_555
Ag1 Cl1 2.532941 1_555
Ag1 Cl5 2.533005 1_555
Ag1 Cl4 2.533005 1_555
Ag1 Cl3 2.533005 1_555
