# generated using pymatgen
data_Na2MgMn4O8
_symmetry_space_group_name_H-M   'P 1'
_cell_length_a   2.93492986
_cell_length_b   6.06694125
_cell_length_c   10.14553303
_cell_angle_alpha   84.20579089
_cell_angle_beta   90.20778397
_cell_angle_gamma   92.78078833
_symmetry_Int_Tables_number   1
_chemical_formula_structural   Na2MgMn4O8
_chemical_formula_sum   'Na2 Mg1 Mn4 O8'
_cell_volume   179.51708842
_cell_formula_units_Z   1
loop_
 _symmetry_equiv_pos_site_id
 _symmetry_equiv_pos_as_xyz
  1  'x, y, z'
loop_
 _atom_site_type_symbol
 _atom_site_label
 _atom_site_symmetry_multiplicity
 _atom_site_fract_x
 _atom_site_fract_y
 _atom_site_fract_z
 _atom_site_occupancy
  Na  Na0  1  0.75891280  0.64403382  0.96992006  1
  Na  Na1  1  0.75493442  0.78290568  0.37118137  1
  Mg  Mg0  1  0.23546750  0.95759516  0.65744990  1
  Mn  Mn0  1  0.24189489  0.04823214  0.12351344  1
  Mn  Mn1  1  0.75428459  0.20737425  0.86084017  1
  Mn  Mn2  1  0.75610470  0.28165983  0.39597087  1
  Mn  Mn3  1  0.25233293  0.48144659  0.62665131  1
  O  O0  1  0.72037761  0.83995226  0.14890870  1
  O  O1  1  0.26675298  0.42845734  0.82116620  1
  O  O2  1  0.24150245  0.09289132  0.35475913  1
  O  O3  1  0.70094570  0.73390694  0.62011910  1
  O  O4  1  0.76124769  0.25400599  0.06644549  1
  O  O5  1  0.23857949  0.99029281  0.85789590  1
  O  O6  1  0.79857147  0.21748260  0.62038209  1
  O  O7  1  0.26819678  0.48767425  0.42845129  1
loop_
_geom_bond_atom_site_label_1
_geom_bond_atom_site_label_2
_geom_bond_distance
_geom_bond_site_symmetry_2
Na0 O0 2.274554 1_556
Na0 O4 2.468193 1_556
Na0 O1 2.504814 1_555
Na0 O1 2.610315 1_655
Na0 O5 2.632347 1_655
Na0 O5 2.802426 1_555
Na1 O0 2.249354 1_555
Na1 O7 2.265870 1_555
Na1 O2 2.298224 1_665
Na1 O7 2.420817 1_655
Na1 O2 2.458710 1_565
Na1 O3 2.517718 1_555
Mg0 O3 2.034442 1_555
Mg0 O5 2.063065 1_555
Mg0 O3 2.083063 1_455
Mg0 O6 2.084375 1_465
Mg0 O6 2.233997 1_565
Mn0 O0 1.933659 1_545
Mn0 O0 1.937877 1_445
Mn0 O4 1.973061 1_555
Mn0 O4 1.975540 1_455
Mn0 O2 2.388733 1_555
Mn0 O5 2.752547 1_544
Mn1 O5 1.959717 1_545
Mn1 O1 1.980637 1_655
Mn1 O5 1.986359 1_645
Mn1 O1 2.020278 1_555
Mn1 O4 2.133082 1_556
Mn1 O6 2.437930 1_555
Mn2 O2 1.921394 1_555
Mn2 O2 1.942996 1_655
Mn2 O7 1.956260 1_655
Mn2 O7 1.995391 1_555
Mn2 O6 2.274749 1_555
Mn3 O3 1.966825 1_555
Mn3 O1 1.967814 1_555
Mn3 O7 2.008049 1_555
Mn3 O6 2.038453 1_455
Mn3 O3 2.277817 1_455
Mn3 O6 2.325786 1_555
