# generated using pymatgen
data_Li3Co2(PO4)3
_symmetry_space_group_name_H-M   'P 1'
_cell_length_a   8.71746100
_cell_length_b   8.71630100
_cell_length_c   12.13800348
_cell_angle_alpha   88.66625906
_cell_angle_beta   90.00000000
_cell_angle_gamma   90.00000000
_symmetry_Int_Tables_number   1
_chemical_formula_structural   Li3Co2(PO4)3
_chemical_formula_sum   'Li12 Co8 P12 O48'
_cell_volume   922.04435483
_cell_formula_units_Z   4
loop_
 _symmetry_equiv_pos_site_id
 _symmetry_equiv_pos_as_xyz
  1  'x, y, z'
loop_
 _atom_site_type_symbol
 _atom_site_label
 _atom_site_symmetry_multiplicity
 _atom_site_fract_x
 _atom_site_fract_y
 _atom_site_fract_z
 _atom_site_occupancy
  Li  Li0  1  0.07108500  0.92289300  0.70429600  1
  Li  Li1  1  0.92891500  0.07710700  0.29570400  1
  Li  Li2  1  0.30204400  0.08457500  0.24188200  1
  Li  Li3  1  0.22501200  0.20889100  0.82102000  1
  Li  Li4  1  0.72501200  0.29110900  0.67898000  1
  Li  Li5  1  0.80204400  0.41542500  0.25811800  1
  Li  Li6  1  0.42891500  0.42289300  0.20429600  1
  Li  Li7  1  0.57108500  0.57710700  0.79570400  1
  Li  Li8  1  0.19795600  0.58457500  0.74188200  1
  Li  Li9  1  0.69795600  0.91542500  0.75811800  1
  Li  Li10  1  0.77498800  0.79110900  0.17898000  1
  Li  Li11  1  0.27498800  0.70889100  0.32102000  1
  Co  Co0  1  0.47317800  0.24542400  0.39702700  1
  Co  Co1  1  0.97317800  0.25457600  0.10297300  1
  Co  Co2  1  0.54097200  0.24439500  0.89326200  1
  Co  Co3  1  0.04097200  0.25560500  0.60673800  1
  Co  Co4  1  0.95902800  0.74439500  0.39326200  1
  Co  Co5  1  0.45902800  0.75560500  0.10673800  1
  Co  Co6  1  0.02682200  0.74542400  0.89702700  1
  Co  Co7  1  0.52682200  0.75457600  0.60297300  1
  P  P0  1  0.88191300  0.60472100  0.64786600  1
  P  P1  1  0.60199600  0.60314500  0.34948700  1
  P  P2  1  0.74499400  0.53713100  0.00647900  1
  P  P3  1  0.25500600  0.46286900  0.99352100  1
  P  P4  1  0.39800400  0.39685500  0.65051300  1
  P  P5  1  0.11808700  0.39527900  0.35213400  1
  P  P6  1  0.89800400  0.10314500  0.84948700  1
  P  P7  1  0.61808700  0.10472100  0.14786600  1
  P  P8  1  0.24499400  0.96286900  0.49352100  1
  P  P9  1  0.38191300  0.89527900  0.85213400  1
  P  P10  1  0.10199600  0.89685500  0.15051300  1
  P  P11  1  0.75500600  0.03713100  0.50647900  1
  O  O0  1  0.16893400  0.82581100  0.43550100  1
  O  O1  1  0.78431200  0.14627100  0.18109800  1
  O  O2  1  0.59428600  0.14954900  0.02325900  1
  O  O3  1  0.62291900  0.10463100  0.43255900  1
  O  O4  1  0.40278500  0.06948500  0.83509600  1
  O  O5  1  0.31061700  0.07143300  0.40345700  1
  O  O6  1  0.10602500  0.07655600  0.15470500  1
  O  O7  1  0.13409000  0.04141000  0.57312100  1
  O  O8  1  0.86591000  0.95859000  0.42687900  1
  O  O9  1  0.89397500  0.92344400  0.84529500  1
  O  O10  1  0.68938300  0.92856700  0.59654300  1
  O  O11  1  0.59721500  0.93051500  0.16490400  1
  O  O12  1  0.37708100  0.89536900  0.56744100  1
  O  O13  1  0.40571400  0.85045100  0.97674100  1
  O  O14  1  0.21568800  0.85372900  0.81890200  1
  O  O15  1  0.97899100  0.84730000  0.23833900  1
  O  O16  1  0.26439700  0.84634300  0.18895700  1
  O  O17  1  0.02100900  0.15270000  0.76166100  1
  O  O18  1  0.05367000  0.83655000  0.03940000  1
  O  O19  1  0.50458300  0.80548400  0.78717800  1
  O  O20  1  0.00458300  0.69451600  0.71282200  1
  O  O21  1  0.55367000  0.66345000  0.46060000  1
  O  O22  1  0.66893400  0.67418900  0.06449900  1
  O  O23  1  0.76439700  0.65365700  0.31104300  1
  O  O24  1  0.71568800  0.64627100  0.68109800  1
  O  O25  1  0.90571400  0.64954900  0.52325900  1
  O  O26  1  0.47899100  0.65270000  0.26166100  1
  O  O27  1  0.87708100  0.60463100  0.93255900  1
  O  O28  1  0.18938300  0.57143300  0.90345700  1
  O  O29  1  0.39397500  0.57655600  0.65470500  1
  O  O30  1  0.09721500  0.56948500  0.33509600  1
  O  O31  1  0.36591000  0.54141000  0.07312100  1
  O  O32  1  0.63409000  0.45859000  0.92687900  1
  O  O33  1  0.90278500  0.43051500  0.66490400  1
  O  O34  1  0.60602500  0.42344400  0.34529500  1
  O  O35  1  0.81061700  0.42856700  0.09654300  1
  O  O36  1  0.12291900  0.39536900  0.06744100  1
  O  O37  1  0.52100900  0.34730000  0.73833900  1
  O  O38  1  0.09428600  0.35045100  0.47674100  1
  O  O39  1  0.28431200  0.35372900  0.31890200  1
  O  O40  1  0.73560300  0.15365700  0.81104300  1
  O  O41  1  0.33106600  0.32581100  0.93550100  1
  O  O42  1  0.44633000  0.33655000  0.53940000  1
  O  O43  1  0.99541700  0.30548400  0.28717800  1
  O  O44  1  0.49541700  0.19451600  0.21282200  1
  O  O45  1  0.94633000  0.16345000  0.96060000  1
  O  O46  1  0.83106600  0.17418900  0.56449900  1
  O  O47  1  0.23560300  0.34634300  0.68895700  1
loop_
_geom_bond_atom_site_label_1
_geom_bond_atom_site_label_2
_geom_bond_distance
_geom_bond_site_symmetry_2
Li0 O7 1.956364 1_565
Li0 O14 1.961774 1_555
Li0 O20 2.073573 1_555
Li0 O17 2.180045 1_565
Li0 O9 2.305045 1_455
Li1 O8 1.956364 1_545
Li1 O1 1.961774 1_555
Li1 O43 2.073573 1_555
Li1 O15 2.180045 1_545
Li1 O6 2.305045 1_655
Li2 O5 1.963300 1_555
Li2 O44 1.966886 1_555
Li2 O6 2.011958 1_555
Li2 O16 2.212317 1_545
Li2 O39 2.550258 1_555
Li3 O41 1.972348 1_555
Li3 O4 1.974251 1_555
Li3 O47 1.980921 1_555
Li3 O17 1.984463 1_555
Li4 O46 1.972348 1_555
Li4 O33 1.974251 1_555
Li4 O40 1.980921 1_555
Li4 O37 1.984463 1_555
Li5 O35 1.963300 1_555
Li5 O43 1.966886 1_555
Li5 O34 2.011958 1_555
Li5 O23 2.212317 1_555
Li5 O1 2.550258 1_555
Li6 O31 1.956364 1_555
Li6 O39 1.961774 1_555
Li6 O44 2.073573 1_555
Li6 O26 2.180045 1_555
Li6 O34 2.305045 1_555
Li7 O32 1.956364 1_555
Li7 O24 1.961774 1_555
Li7 O19 2.073573 1_555
Li7 O37 2.180045 1_555
Li7 O29 2.305045 1_555
Li8 O28 1.963300 1_555
Li8 O20 1.966886 1_555
Li8 O29 2.011958 1_555
Li8 O47 2.212317 1_555
Li8 O14 2.550258 1_555
Li9 O10 1.963300 1_555
Li9 O19 1.966886 1_555
Li9 O9 2.011958 1_555
Li9 O40 2.212317 1_565
Li9 O24 2.550258 1_555
Li10 O22 1.972348 1_555
Li10 O11 1.974251 1_555
Li10 O23 1.980921 1_555
Li10 O15 1.984463 1_555
Li11 O0 1.972348 1_555
Li11 O30 1.974251 1_555
Li11 O16 1.980921 1_555
Li11 O26 1.984463 1_555
Co0 O3 1.836122 1_555
Co0 O42 1.932866 1_555
Co0 O34 2.024302 1_555
Co0 O5 2.075754 1_555
Co0 O39 2.111747 1_555
Co0 O44 2.297788 1_555
Co1 O36 1.836122 1_655
Co1 O45 1.932866 1_554
Co1 O6 2.024302 1_655
Co1 O35 2.075754 1_555
Co1 O1 2.111747 1_555
Co1 O43 2.297788 1_555
Co2 O2 1.824419 1_556
Co2 O41 2.032667 1_555
Co2 O37 2.071811 1_555
Co2 O4 2.079432 1_555
Co2 O32 2.084838 1_555
Co2 O40 2.130016 1_555
Co3 O38 1.824419 1_555
Co3 O46 2.032667 1_455
Co3 O17 2.071811 1_555
Co3 O33 2.079432 1_455
Co3 O7 2.084838 1_555
Co3 O47 2.130016 1_555
Co4 O25 1.824419 1_555
Co4 O0 2.032667 1_655
Co4 O15 2.071811 1_555
Co4 O30 2.079432 1_655
Co4 O8 2.084838 1_555
Co4 O23 2.130016 1_555
Co5 O13 1.824419 1_554
Co5 O22 2.032667 1_555
Co5 O26 2.071811 1_555
Co5 O11 2.079432 1_555
Co5 O31 2.084838 1_555
Co5 O16 2.130016 1_555
Co6 O27 1.836122 1_455
Co6 O18 1.932866 1_556
Co6 O9 2.024302 1_455
Co6 O28 2.075754 1_555
Co6 O14 2.111747 1_555
Co6 O20 2.297788 1_555
Co7 O12 1.836122 1_555
Co7 O21 1.932866 1_555
Co7 O29 2.024302 1_555
Co7 O10 2.075754 1_555
Co7 O24 2.111747 1_555
Co7 O19 2.297788 1_555
O0 P8 1.549815 1_555
O1 P7 1.549337 1_555
O2 P7 1.567102 1_555
O3 P11 1.566043 1_555
O4 P9 1.538471 1_545
O5 P8 1.539358 1_545
O6 P10 1.568731 1_545
O7 P8 1.538723 1_545
O8 P11 1.538723 1_565
O9 P6 1.568731 1_565
O10 P11 1.539358 1_565
O11 P7 1.538471 1_565
O12 P8 1.566043 1_555
O13 P9 1.567102 1_555
O14 P9 1.549337 1_555
O15 P10 1.565684 1_655
O16 P10 1.551226 1_555
O17 P6 1.565684 1_455
O18 P10 1.518465 1_555
O19 P9 1.551290 1_555
O20 P0 1.551290 1_455
O21 P1 1.518465 1_555
O22 P2 1.549815 1_555
O23 P1 1.551226 1_555
O24 P0 1.549337 1_555
O25 P0 1.567102 1_555
O26 P1 1.565684 1_555
O27 P2 1.566043 1_556
O28 P3 1.539358 1_555
O29 P4 1.568731 1_555
O30 P5 1.538471 1_555
O31 P3 1.538723 1_554
O32 P2 1.538723 1_556
O33 P0 1.538471 1_555
O34 P1 1.568731 1_555
O35 P2 1.539358 1_555
O36 P3 1.566043 1_554
O37 P4 1.565684 1_555
O38 P5 1.567102 1_555
O39 P5 1.549337 1_555
O40 P6 1.551226 1_555
O41 P3 1.549815 1_555
O42 P4 1.518465 1_555
O43 P5 1.551290 1_655
O44 P7 1.551290 1_555
O45 P6 1.518465 1_555
O46 P11 1.549815 1_555
O47 P4 1.551226 1_555
