# generated using pymatgen
data_Na7Ca2Al2P5SO24
_symmetry_space_group_name_H-M   'P 1'
_cell_length_a   9.04640502
_cell_length_b   8.99196512
_cell_length_c   21.88225437
_cell_angle_alpha   90.13634516
_cell_angle_beta   90.10731199
_cell_angle_gamma   119.86195204
_symmetry_Int_Tables_number   1
_chemical_formula_structural   Na7Ca2Al2P5SO24
_chemical_formula_sum   'Na21 Ca6 Al6 P15 S3 O72'
_cell_volume   1543.66073435
_cell_formula_units_Z   3
loop_
 _symmetry_equiv_pos_site_id
 _symmetry_equiv_pos_as_xyz
  1  'x, y, z'
loop_
 _atom_site_type_symbol
 _atom_site_label
 _atom_site_symmetry_multiplicity
 _atom_site_fract_x
 _atom_site_fract_y
 _atom_site_fract_z
 _atom_site_occupancy
  Na  Na0  1  0.63791407  0.99274946  0.25162957  1
  Na  Na1  1  0.99549039  0.63502655  0.25654743  1
  Na  Na2  1  0.63879584  0.64521804  0.74750683  1
  Na  Na3  1  0.00728357  0.36452722  0.75277731  1
  Na  Na4  1  0.36127168  0.99542983  0.75207112  1
  Na  Na5  1  0.28567155  0.33467052  0.58680301  1
  Na  Na6  1  0.04779433  0.71583181  0.58352333  1
  Na  Na7  1  0.67006613  0.95190814  0.58283389  1
  Na  Na8  1  0.28615900  0.95146950  0.07932802  1
  Na  Na9  1  0.66896239  0.71513102  0.08724472  1
  Na  Na10  1  0.04807413  0.33174231  0.08370833  1
  Na  Na11  1  0.99296263  0.66640510  0.91601783  1
  Na  Na12  1  0.32370177  0.31882377  0.92216489  1
  Na  Na13  1  0.98403736  0.32755111  0.41296723  1
  Na  Na14  1  0.67684537  0.67115602  0.42142803  1
  Na  Na15  1  0.01476949  0.99490304  0.49603466  1
  Na  Na16  1  0.99058285  0.00738725  0.99528268  1
  Na  Na17  1  0.66585371  0.30767140  0.83671515  1
  Na  Na18  1  0.64956242  0.32368252  0.33528319  1
  Na  Na19  1  0.33228403  0.63284257  0.17138150  1
  Na  Na20  1  0.33470901  0.66888639  0.66860843  1
  Ca  Ca0  1  0.00087420  0.00222793  0.64689028  1
  Ca  Ca1  1  0.00157207  0.00406667  0.14700334  1
  Ca  Ca2  1  0.33216604  0.66675927  0.01498486  1
  Ca  Ca3  1  0.33242405  0.67598274  0.51427009  1
  Ca  Ca4  1  0.33242161  0.66464066  0.32337705  1
  Ca  Ca5  1  0.33257795  0.67274194  0.82532717  1
  Al  Al0  1  0.98215408  0.98988217  0.34569146  1
  Al  Al1  1  0.00937853  0.01297080  0.84354359  1
  Al  Al2  1  0.66866371  0.33372927  0.68648156  1
  Al  Al3  1  0.67622103  0.34325638  0.18452622  1
  Al  Al4  1  0.66354998  0.31941919  0.98466833  1
  Al  Al5  1  0.67301547  0.33196340  0.48493312  1
  P  P0  1  0.69993606  0.69147952  0.24690361  1
  P  P1  1  0.98968775  0.29607438  0.24822685  1
  P  P2  1  0.30934277  0.30072986  0.74855718  1
  P  P3  1  0.99134970  0.69746121  0.74938698  1
  P  P4  1  0.70818116  0.00773185  0.74656984  1
  P  P5  1  0.94996968  0.34164142  0.58442728  1
  P  P6  1  0.39789192  0.05736152  0.58494053  1
  P  P7  1  0.66069354  0.60586068  0.58340644  1
  P  P8  1  0.94703805  0.60735160  0.08214584  1
  P  P9  1  0.65867244  0.05108248  0.08713473  1
  P  P10  1  0.39880689  0.33911050  0.08334322  1
  P  P11  1  0.00330860  0.33637809  0.91647850  1
  P  P12  1  0.32832358  0.99207194  0.91524279  1
  P  P13  1  0.65908557  0.99152732  0.41516842  1
  P  P14  1  0.00558548  0.66904677  0.41763467  1
  S  S0  1  0.29904292  0.01086607  0.25073199  1
  S  S1  1  0.66106373  0.66866969  0.91732583  1
  S  S2  1  0.32985176  0.33620756  0.41866346  1
  O  O0  1  0.18892023  0.01594355  0.30009512  1
  O  O1  1  0.82486858  0.79826693  0.30076745  1
  O  O2  1  0.97490866  0.17010502  0.30093367  1
  O  O3  1  0.20379757  0.17855379  0.80208633  1
  O  O4  1  0.97722495  0.80569018  0.80347602  1
  O  O5  1  0.84144411  0.02697213  0.79601209  1
  O  O6  1  0.76158755  0.97349514  0.68418387  1
  O  O7  1  0.21126106  0.23683280  0.68835525  1
  O  O8  1  0.01911708  0.79130395  0.68870966  1
  O  O9  1  0.77214338  0.78640605  0.18672042  1
  O  O10  1  0.01094509  0.23114197  0.18635428  1
  O  O11  1  0.21779616  0.98904512  0.19023806  1
  O  O12  1  0.85229124  0.34272869  0.64267798  1
  O  O13  1  0.49101616  0.14862911  0.64526095  1
  O  O14  1  0.65828611  0.50782017  0.64232621  1
  O  O15  1  0.85623367  0.51108599  0.14179595  1
  O  O16  1  0.65705633  0.14440014  0.14723227  1
  O  O17  1  0.50074703  0.33884961  0.14005235  1
  O  O18  1  0.49763692  0.35085563  0.02410965  1
  O  O19  1  0.84683516  0.50488220  0.02511711  1
  O  O20  1  0.64768241  0.14866573  0.03159493  1
  O  O21  1  0.50687505  0.15545374  0.52957689  1
  O  O22  1  0.65086961  0.50228200  0.52537018  1
  O  O23  1  0.85955059  0.35440705  0.52631011  1
  O  O24  1  0.58249743  0.69099974  0.97343297  1
  O  O25  1  0.12448348  0.40891592  0.97281610  1
  O  O26  1  0.28711934  0.87031719  0.97040737  1
  O  O27  1  0.58510860  0.86892068  0.47030258  1
  O  O28  1  0.29181034  0.40473699  0.47516626  1
  O  O29  1  0.11020003  0.70195828  0.47640861  1
  O  O30  1  0.08321611  0.62212858  0.36359162  1
  O  O31  1  0.55364251  0.91664855  0.35709620  1
  O  O32  1  0.37290107  0.46180842  0.36867726  1
  O  O33  1  0.07860244  0.46000786  0.86184773  1
  O  O34  1  0.36275211  0.92151733  0.85698028  1
  O  O35  1  0.54972282  0.63715679  0.86399659  1
  O  O36  1  0.98737241  0.82997121  0.40385790  1
  O  O37  1  0.84283616  0.01428129  0.40568573  1
  O  O38  1  0.17307875  0.17147516  0.40425689  1
  O  O39  1  0.99198905  0.16143113  0.90209374  1
  O  O40  1  0.16403632  0.00913848  0.90627738  1
  O  O41  1  0.83179363  0.82285181  0.90919678  1
  O  O42  1  0.96378971  0.17723467  0.57786654  1
  O  O43  1  0.22025176  0.04327579  0.57873852  1
  O  O44  1  0.82442534  0.78354937  0.57784495  1
  O  O45  1  0.96402069  0.78732655  0.07800630  1
  O  O46  1  0.82175758  0.03633657  0.07972162  1
  O  O47  1  0.22037044  0.17495854  0.07849981  1
  O  O48  1  0.70017641  0.17898430  0.74698076  1
  O  O49  1  0.48523187  0.30523655  0.74808210  1
  O  O50  1  0.82123911  0.51890955  0.74904130  1
  O  O51  1  0.69431155  0.51363943  0.24680234  1
  O  O52  1  0.81647302  0.30204101  0.24945769  1
  O  O53  1  0.47022231  0.16800325  0.25276014  1
  O  O54  1  0.68428964  0.51475614  0.92218918  1
  O  O55  1  0.82413759  0.31538808  0.92787813  1
  O  O56  1  0.48271579  0.17555374  0.92684615  1
  O  O57  1  0.68620350  0.17494275  0.42652866  1
  O  O58  1  0.47918724  0.31172476  0.42617540  1
  O  O59  1  0.81871100  0.51116245  0.42477625  1
  O  O60  1  0.37566866  0.49884157  0.08746121  1
  O  O61  1  0.12708540  0.62642218  0.08486831  1
  O  O62  1  0.50014037  0.86878107  0.08945844  1
  O  O63  1  0.37504219  0.87428968  0.58803212  1
  O  O64  1  0.50155203  0.62866181  0.58642401  1
  O  O65  1  0.13153271  0.50104371  0.58865862  1
  O  O66  1  0.32035920  0.85775938  0.25795433  1
  O  O67  1  0.52542285  0.67624705  0.25557562  1
  O  O68  1  0.13737396  0.47894669  0.25715716  1
  O  O69  1  0.33879859  0.48301071  0.75834717  1
  O  O70  1  0.14519063  0.66968441  0.75686294  1
  O  O71  1  0.52915345  0.85466565  0.75837907  1
loop_
_geom_bond_atom_site_label_1
_geom_bond_atom_site_label_2
_geom_bond_distance
_geom_bond_site_symmetry_2
Na0 O31 2.422853 1_555
Na0 O52 2.423530 1_565
Na0 O67 2.502010 1_555
Na0 O66 2.504987 1_555
Na0 O16 2.624758 1_565
Na0 O53 2.676919 1_565
Na0 O2 2.852924 1_565
Na1 O68 2.326211 1_655
Na1 O51 2.386516 1_555
Na1 O30 2.493177 1_655
Na1 O52 2.603851 1_555
Na1 O66 2.605224 1_655
Na1 O15 2.776871 1_555
Na1 O1 2.779993 1_555
Na2 O69 2.368778 1_555
Na2 O50 2.425233 1_555
Na2 O71 2.538972 1_555
Na2 O49 2.654612 1_555
Na2 O14 2.657012 1_555
Na2 O35 2.665082 1_555
Na2 O4 2.921227 1_555
Na2 O6 2.937234 1_555
Na3 O70 2.383943 1_555
Na3 O48 2.428988 1_455
Na3 O33 2.506515 1_555
Na3 O69 2.638228 1_555
Na3 O50 2.663277 1_455
Na3 O12 2.742286 1_455
Na3 O5 2.800548 1_455
Na3 O7 2.970292 1_555
Na4 O34 2.393306 1_555
Na4 O71 2.417031 1_555
Na4 O49 2.432342 1_565
Na4 O70 2.590777 1_555
Na4 O48 2.664430 1_565
Na4 O13 2.674603 1_565
Na4 O3 2.876090 1_565
Na5 O7 2.364404 1_555
Na5 O64 2.379383 1_555
Na5 O43 2.387488 1_555
Na5 O65 2.502270 1_555
Na5 O28 2.518055 1_555
Na5 O42 2.532367 1_455
Na6 O44 2.386230 1_455
Na6 O65 2.402985 1_555
Na6 O29 2.429382 1_555
Na6 O8 2.448647 1_555
Na6 O43 2.557718 1_565
Na6 O63 2.569378 1_555
Na7 O6 2.339376 1_555
Na7 O63 2.402014 1_555
Na7 O42 2.412119 1_565
Na7 O44 2.521624 1_555
Na7 O64 2.523410 1_555
Na7 O27 2.573748 1_555
Na8 O47 2.363092 1_565
Na8 O62 2.404500 1_555
Na8 O26 2.492271 1_554
Na8 O45 2.527455 1_455
Na8 O61 2.538156 1_555
Na8 O11 2.568380 1_555
Na9 O9 2.326004 1_555
Na9 O60 2.384051 1_555
Na9 O45 2.421591 1_555
Na9 O46 2.511432 1_565
Na9 O62 2.518897 1_555
Na9 O24 2.585035 1_554
Na10 O61 2.376191 1_555
Na10 O10 2.384557 1_555
Na10 O46 2.416128 1_455
Na10 O25 2.526704 1_554
Na10 O60 2.571236 1_555
Na10 O47 2.572558 1_555
Na11 O54 2.426011 1_555
Na11 O41 2.483889 1_555
Na11 O33 2.621932 1_655
Na11 O26 2.641705 1_655
Na11 O40 2.681993 1_665
Na11 O55 2.750871 1_555
Na11 O19 2.769969 1_556
Na11 O4 2.800814 1_555
Na12 O56 2.363258 1_555
Na12 O40 2.439203 1_555
Na12 O25 2.567058 1_555
Na12 O39 2.638867 1_455
Na12 O18 2.658512 1_556
Na12 O54 2.832261 1_555
Na12 O35 2.862375 1_555
Na12 O3 2.877988 1_555
Na13 O57 2.356610 1_555
Na13 O37 2.450703 1_555
Na13 O30 2.576680 1_655
Na13 O38 2.705648 1_655
Na13 O59 2.736404 1_555
Na13 O23 2.785024 1_555
Na13 O2 2.808477 1_555
Na13 O28 2.853618 1_655
Na14 O59 2.358161 1_555
Na14 O36 2.467851 1_555
Na14 O27 2.541404 1_555
Na14 O22 2.682813 1_555
Na14 O32 2.694392 1_555
Na14 O37 2.699320 1_565
Na14 O58 2.810903 1_555
Na14 O1 2.928192 1_555
Na15 O36 2.438685 1_455
Na15 O43 2.469469 1_565
Na15 O38 2.523248 1_565
Na15 O44 2.559411 1_455
Na15 O37 2.572597 1_465
Na15 O42 2.617113 1_465
Na16 O41 2.442688 1_545
Na16 O39 2.464363 1_555
Na16 O46 2.493697 1_556
Na16 O40 2.498538 1_655
Na16 O47 2.600229 1_656
Na16 O45 2.606766 1_546
Na17 O48 2.374943 1_555
Na17 O55 2.433985 1_555
Na17 O56 2.471716 1_555
Na17 O49 2.526716 1_555
Na17 O50 2.575473 1_555
Na17 O54 2.581954 1_555
Na18 O53 2.359658 1_555
Na18 O52 2.479188 1_555
Na18 O51 2.481985 1_555
Na18 O58 2.488054 1_555
Na18 O57 2.517345 1_555
Na18 O59 2.534293 1_555
Na19 O60 2.332645 1_555
Na19 O67 2.429980 1_555
Na19 O68 2.478287 1_555
Na19 O62 2.615459 1_555
Na19 O61 2.629193 1_555
Na19 O66 2.809003 1_555
Na20 O65 2.435109 1_555
Na20 O63 2.449515 1_555
Na20 O64 2.488732 1_555
Na20 O70 2.587195 1_555
Na20 O69 2.593818 1_555
Na20 O71 2.605539 1_555
Ca0 O8 2.186598 1_545
Ca0 O6 2.206639 1_445
Ca0 O7 2.209534 1_555
Ca0 O42 2.324945 1_455
Ca0 O44 2.355502 1_445
Ca0 O43 2.362850 1_555
Ca1 O10 2.176413 1_555
Ca1 O9 2.205293 1_445
Ca1 O11 2.235222 1_545
Ca1 O46 2.315376 1_455
Ca1 O45 2.349042 1_445
Ca1 O47 2.349328 1_555
Ca2 O26 2.284226 1_554
Ca2 O61 2.292405 1_555
Ca2 O25 2.324292 1_554
Ca2 O62 2.343615 1_555
Ca2 O24 2.349417 1_554
Ca2 O60 2.355997 1_555
Ca3 O27 2.286429 1_555
Ca3 O63 2.287563 1_555
Ca3 O29 2.290121 1_555
Ca3 O65 2.367140 1_555
Ca3 O64 2.378510 1_555
Ca3 O28 2.431577 1_555
Ca4 O68 2.246364 1_555
Ca4 O67 2.255990 1_555
Ca4 O32 2.261752 1_555
Ca4 O30 2.270182 1_555
Ca4 O31 2.270445 1_555
Ca4 O66 2.297132 1_555
Ca5 O34 2.223103 1_555
Ca5 O70 2.250052 1_555
Ca5 O71 2.260264 1_555
Ca5 O69 2.268482 1_555
Ca5 O33 2.283446 1_555
Ca5 O35 2.301780 1_555
Al0 O1 1.872159 1_555
Al0 O37 1.907933 1_565
Al0 O2 1.924271 1_565
Al0 O36 1.940608 1_555
Al0 O0 2.029964 1_665
Al0 O38 2.113067 1_665
Al1 O3 1.880916 1_555
Al1 O5 1.894941 1_455
Al1 O39 1.910518 1_455
Al1 O4 1.943885 1_445
Al1 O40 1.970828 1_555
Al1 O41 2.202894 1_445
Al2 O13 1.868240 1_555
Al2 O14 1.883119 1_555
Al2 O12 1.886071 1_555
Al2 O48 2.042647 1_555
Al2 O49 2.054967 1_555
Al2 O50 2.060379 1_555
Al3 O15 1.835420 1_555
Al3 O17 1.843888 1_555
Al3 O16 1.891344 1_555
Al3 O51 1.992651 1_555
Al3 O52 2.056686 1_555
Al3 O53 2.298420 1_555
Al4 O20 1.794743 1_556
Al4 O18 1.871825 1_556
Al4 O19 1.883525 1_556
Al4 O55 1.927447 1_555
Al4 O56 1.956432 1_555
Al4 O54 2.161892 1_555
Al5 O23 1.833673 1_555
Al5 O21 1.835688 1_555
Al5 O22 1.862350 1_555
Al5 O57 1.949572 1_555
Al5 O59 1.992016 1_555
Al5 O58 2.105595 1_555
O0 S0 1.486741 1_555
O1 P0 1.580357 1_555
O2 P1 1.577055 1_555
O3 P2 1.567277 1_555
O4 P3 1.575827 1_555
O5 P4 1.562157 1_555
O6 P4 1.529838 1_565
O7 P2 1.528780 1_555
O8 P3 1.527608 1_455
O9 P0 1.530672 1_555
O10 P1 1.523149 1_455
O11 S0 1.477334 1_565
O12 P5 1.555129 1_555
O13 P6 1.558098 1_555
O14 P7 1.557670 1_555
O15 P8 1.558567 1_555
O16 P9 1.562294 1_555
O17 P10 1.545385 1_555
O18 P10 1.549676 1_555
O19 P8 1.544839 1_555
O20 P9 1.532438 1_555
O21 P6 1.536644 1_555
O22 P7 1.549093 1_555
O23 P5 1.545916 1_555
O24 S1 1.482246 1_555
O25 P11 1.557550 1_555
O26 P12 1.547999 1_555
O27 P13 1.547091 1_555
O28 S2 1.495327 1_555
O29 P14 1.533630 1_555
O30 P14 1.538008 1_555
O31 P13 1.526386 1_555
O32 S2 1.480914 1_555
O33 P11 1.544082 1_555
O34 P12 1.522929 1_555
O35 S1 1.471878 1_555
O36 P14 1.565639 1_655
O37 P13 1.584585 1_545
O38 S2 1.486275 1_555
O39 P11 1.556075 1_655
O40 P12 1.580200 1_545
O41 S1 1.486292 1_555
O42 P5 1.550754 1_555
O43 P6 1.553491 1_555
O44 P7 1.551283 1_555
O45 P8 1.550470 1_555
O46 P9 1.554383 1_555
O47 P10 1.556128 1_555
O48 P4 1.577208 1_555
O49 P2 1.571434 1_555
O50 P3 1.576530 1_555
O51 P0 1.574412 1_555
O52 P1 1.594638 1_555
O53 S0 1.488961 1_555
O54 S1 1.503689 1_555
O55 P11 1.556312 1_655
O56 P12 1.561799 1_545
O57 P13 1.561078 1_545
O58 S2 1.481910 1_555
O59 P14 1.584265 1_655
O60 P10 1.553616 1_555
O61 P8 1.551558 1_455
O62 P9 1.551148 1_565
O63 P6 1.555289 1_565
O64 P7 1.553461 1_555
O65 P5 1.554091 1_455
O66 S0 1.490920 1_565
O67 P0 1.527426 1_555
O68 P1 1.528685 1_455
O69 P2 1.538378 1_555
O70 P3 1.539964 1_455
O71 P4 1.538698 1_565
