# generated using pymatgen
data_MgCr2(PO5)2
_symmetry_space_group_name_H-M   'P 1'
_cell_length_a   5.25644649
_cell_length_b   6.94691800
_cell_length_c   8.11107170
_cell_angle_alpha   90.66850871
_cell_angle_beta   40.58048840
_cell_angle_gamma   74.08257889
_symmetry_Int_Tables_number   1
_chemical_formula_structural   MgCr2(PO5)2
_chemical_formula_sum   'Mg1 Cr2 P2 O10'
_cell_volume   173.45403570
_cell_formula_units_Z   1
loop_
 _symmetry_equiv_pos_site_id
 _symmetry_equiv_pos_as_xyz
  1  'x, y, z'
loop_
 _atom_site_type_symbol
 _atom_site_label
 _atom_site_symmetry_multiplicity
 _atom_site_fract_x
 _atom_site_fract_y
 _atom_site_fract_z
 _atom_site_occupancy
  Mg  Mg0  1  0.58516200  0.24101600  0.62914900  1
  Cr  Cr0  1  0.49128000  0.49765100  0.00617200  1
  Cr  Cr1  1  0.51066800  0.99203200  0.98736600  1
  P  P0  1  0.48270600  0.24534700  0.33788000  1
  P  P1  1  0.51803300  0.74518800  0.64443900  1
  O  O0  1  0.27078100  0.13433900  0.32954500  1
  O  O1  1  0.64571000  0.37671000  0.14883900  1
  O  O2  1  0.66551900  0.89120300  0.67834500  1
  O  O3  1  0.43691300  0.57574200  0.78785000  1
  O  O4  1  0.87156600  0.61478700  0.34257100  1
  O  O5  1  0.11018400  0.89701000  0.75463100  1
  O  O6  1  0.15680400  0.37402900  0.63851800  1
  O  O7  1  0.86483200  0.09346000  0.25873600  1
  O  O8  1  0.50844900  0.73766100  0.04558500  1
  O  O9  1  0.49424900  0.25323200  0.91676200  1
loop_
_geom_bond_atom_site_label_1
_geom_bond_atom_site_label_2
_geom_bond_distance
_geom_bond_site_symmetry_2
Mg0 O9 1.989346 1_555
Mg0 O6 2.127613 1_555
Mg0 O7 2.152014 1_555
Mg0 O0 2.152383 1_655
Mg0 O3 2.254745 1_555
Mg0 O2 2.441059 1_545
Cr0 O8 1.733277 1_555
Cr0 O9 1.829967 1_554
Cr0 O4 1.926543 1_455
Cr0 O1 1.944055 1_555
Cr0 O3 2.053745 1_554
Cr0 O6 2.077111 1_654
Cr1 O8 1.835255 1_556
Cr1 O9 1.908237 1_565
Cr1 O5 1.929717 1_655
Cr1 O2 1.995732 1_555
Cr1 O7 2.041437 1_466
Cr1 O0 2.051004 1_566
O0 P0 1.557104 1_555
O1 P0 1.543994 1_555
O2 P1 1.566602 1_555
O3 P1 1.573013 1_555
O4 P1 1.543509 1_555
O5 P1 1.527906 1_555
O6 P0 1.563290 1_555
O7 P0 1.556626 1_555
