# generated using pymatgen
data_YbIn2Ni
_symmetry_space_group_name_H-M   'P 1'
_cell_length_a   5.51564185
_cell_length_b   5.51564185
_cell_length_c   7.71294200
_cell_angle_alpha   90.00000000
_cell_angle_beta   90.00000000
_cell_angle_gamma   133.45101181
_symmetry_Int_Tables_number   1
_chemical_formula_structural   YbIn2Ni
_chemical_formula_sum   'Yb2 In4 Ni2'
_cell_volume   170.34385077
_cell_formula_units_Z   2
loop_
 _symmetry_equiv_pos_site_id
 _symmetry_equiv_pos_as_xyz
  1  'x, y, z'
loop_
 _atom_site_type_symbol
 _atom_site_label
 _atom_site_symmetry_multiplicity
 _atom_site_fract_x
 _atom_site_fract_y
 _atom_site_fract_z
 _atom_site_occupancy
  Yb  Yb0  1  0.06182500  0.93817500  0.25000000  1
  Yb  Yb1  1  0.93817500  0.06182500  0.75000000  1
  In  In0  1  0.64866700  0.35133300  0.55244000  1
  In  In1  1  0.35133300  0.64866700  0.44756000  1
  In  In2  1  0.64866700  0.35133300  0.94756000  1
  In  In3  1  0.35133300  0.64866700  0.05244000  1
  Ni  Ni0  1  0.21837600  0.78162400  0.75000000  1
  Ni  Ni1  1  0.78162400  0.21837600  0.25000000  1
loop_
_geom_bond_atom_site_label_1
_geom_bond_atom_site_label_2
_geom_bond_distance
_geom_bond_site_symmetry_2
In0 Ni1 2.693845 1_555
In0 Ni0 2.751509 1_655
In0 Ni0 2.751509 1_545
In0 In2 3.047538 1_555
In0 In1 3.101954 1_655
In0 In1 3.101954 1_545
In0 In1 3.119759 1_555
In0 Yb1 3.305871 1_555
In0 Yb0 3.311474 1_545
In0 Yb0 3.311474 1_655
In0 Yb1 3.409054 1_565
In0 Yb1 3.409054 1_455
In1 Ni0 2.693845 1_555
In1 Ni1 2.751509 1_565
In1 Ni1 2.751509 1_455
In1 In3 3.047538 1_555
In1 Yb0 3.305871 1_555
In1 Yb1 3.311474 1_455
In1 Yb1 3.311474 1_565
In1 Yb0 3.409054 1_545
In1 Yb0 3.409054 1_655
In2 Ni1 2.693845 1_556
In2 Ni0 2.751509 1_655
In2 Ni0 2.751509 1_545
In2 In3 3.101954 1_656
In2 In3 3.101954 1_546
In2 In3 3.119759 1_556
In2 Yb1 3.305871 1_555
In2 Yb0 3.311474 1_546
In2 Yb0 3.311474 1_656
In2 Yb1 3.409054 1_565
In2 Yb1 3.409054 1_455
In3 Ni0 2.693845 1_554
In3 Ni1 2.751509 1_565
In3 Ni1 2.751509 1_455
In3 Yb0 3.305871 1_555
In3 Yb1 3.311474 1_454
In3 Yb1 3.311474 1_564
In3 Yb0 3.409054 1_545
In3 Yb0 3.409054 1_655
Ni0 Yb1 2.839440 1_465
Ni0 Yb1 3.116251 1_455
Ni0 Yb1 3.116251 1_565
Ni1 Yb0 2.839440 1_645
Ni1 Yb0 3.116251 1_545
Ni1 Yb0 3.116251 1_655
