# generated using pymatgen
data_Na9Mg2Nb4Si6(PO12)3
_symmetry_space_group_name_H-M   'P 1'
_cell_length_a   9.06367187
_cell_length_b   27.14102804
_cell_length_c   22.39488464
_cell_angle_alpha   89.93468175
_cell_angle_beta   90.05350970
_cell_angle_gamma   119.97288660
_symmetry_Int_Tables_number   1
_chemical_formula_structural   Na9Mg2Nb4Si6(PO12)3
_chemical_formula_sum   'Na54 Mg12 Nb24 Si36 P18 O216'
_cell_volume   4772.30507708
_cell_formula_units_Z   6
loop_
 _symmetry_equiv_pos_site_id
 _symmetry_equiv_pos_as_xyz
  1  'x, y, z'
loop_
 _atom_site_type_symbol
 _atom_site_label
 _atom_site_symmetry_multiplicity
 _atom_site_fract_x
 _atom_site_fract_y
 _atom_site_fract_z
 _atom_site_occupancy
  Na  Na0  1  0.01379603  0.99913318  0.49445496  1
  Na  Na1  1  0.00411149  0.33033794  0.50196191  1
  Na  Na2  1  0.99757458  0.66671543  0.49932336  1
  Na  Na3  1  0.99065190  0.00524573  0.00065548  1
  Na  Na4  1  0.01382972  0.33800956  0.99996617  1
  Na  Na5  1  0.00215572  0.66664584  0.00769155  1
  Na  Na6  1  0.67950345  0.11108938  0.83163318  1
  Na  Na7  1  0.65044797  0.44414480  0.84126959  1
  Na  Na8  1  0.67901602  0.77597878  0.82521474  1
  Na  Na9  1  0.66221646  0.10746409  0.32627562  1
  Na  Na10  1  0.66943531  0.44231100  0.33739506  1
  Na  Na11  1  0.66756669  0.77918091  0.33346150  1
  Na  Na12  1  0.32738972  0.22043673  0.16509794  1
  Na  Na13  1  0.31978843  0.55661273  0.17102891  1
  Na  Na14  1  0.33621561  0.89265300  0.16392995  1
  Na  Na15  1  0.32437744  0.21891590  0.66867315  1
  Na  Na16  1  0.34092548  0.55590377  0.67139344  1
  Na  Na17  1  0.30357111  0.88546379  0.66126730  1
  Na  Na18  1  0.62025790  0.66108718  0.25582133  1
  Na  Na19  1  0.37533272  0.11997038  0.24478654  1
  Na  Na20  1  0.36681838  0.46037588  0.25523873  1
  Na  Na21  1  0.35538990  0.78664388  0.24396396  1
  Na  Na22  1  0.98720271  0.20585543  0.24167449  1
  Na  Na23  1  0.01979849  0.54895531  0.25066947  1
  Na  Na24  1  0.61429056  0.20609390  0.74793556  1
  Na  Na25  1  0.62297119  0.54361728  0.75720639  1
  Na  Na26  1  0.62605336  0.87165296  0.74493501  1
  Na  Na27  1  0.99543058  0.12658845  0.75008769  1
  Na  Na28  1  0.01477537  0.46084519  0.75508695  1
  Na  Na29  1  0.38052939  0.00375589  0.74530907  1
  Na  Na30  1  0.36945851  0.32923189  0.75588803  1
  Na  Na31  1  0.38385042  0.66715906  0.74936176  1
  Na  Na32  1  0.30740169  0.78308207  0.57716289  1
  Na  Na33  1  0.02186372  0.56472347  0.57717716  1
  Na  Na34  1  0.66855208  0.32448563  0.57765862  1
  Na  Na35  1  0.65661900  0.98678667  0.57873523  1
  Na  Na36  1  0.30825125  0.32644668  0.07580014  1
  Na  Na37  1  0.30723433  0.98595221  0.07703619  1
  Na  Na38  1  0.66493196  0.22861338  0.08690472  1
  Na  Na39  1  0.67973619  0.57013995  0.08601858  1
  Na  Na40  1  0.65523913  0.90009311  0.07476128  1
  Na  Na41  1  0.05181409  0.77799197  0.08423896  1
  Na  Na42  1  0.95883591  0.55135272  0.92198082  1
  Na  Na43  1  0.98138492  0.89129021  0.91998775  1
  Na  Na44  1  0.69607727  0.34707096  0.92375918  1
  Na  Na45  1  0.34011098  0.10320888  0.91286520  1
  Na  Na46  1  0.33098509  0.76988204  0.92189556  1
  Na  Na47  1  0.96633958  0.09479188  0.41130667  1
  Na  Na48  1  0.95650824  0.43539596  0.42262072  1
  Na  Na49  1  0.98423239  0.77222051  0.42325380  1
  Na  Na50  1  0.31437930  0.00720000  0.41573722  1
  Na  Na51  1  0.34688511  0.34925736  0.42617078  1
  Na  Na52  1  0.69939286  0.55195865  0.42241473  1
  Na  Na53  1  0.71406069  0.89495687  0.40954084  1
  Mg  Mg0  1  0.99771897  0.99790046  0.35121460  1
  Mg  Mg1  1  0.00762949  0.66790459  0.14664398  1
  Mg  Mg2  1  0.67011110  0.11234785  0.68420967  1
  Mg  Mg3  1  0.67023565  0.77659800  0.68755376  1
  Mg  Mg4  1  0.66996643  0.11162789  0.18502086  1
  Mg  Mg5  1  0.65698977  0.44220522  0.98253226  1
  Mg  Mg6  1  0.66494817  0.44365926  0.48323756  1
  Mg  Mg7  1  0.33139597  0.88876973  0.01733808  1
  Mg  Mg8  1  0.32506816  0.88830211  0.51836088  1
  Mg  Mg9  1  0.33532374  0.55807746  0.31480494  1
  Mg  Mg10  1  0.33206437  0.22067253  0.81570372  1
  Mg  Mg11  1  0.33694272  0.55727512  0.81390931  1
  Nb  Nb0  1  0.99128620  0.33219066  0.35368487  1
  Nb  Nb1  1  0.01111591  0.66842252  0.35251516  1
  Nb  Nb2  1  0.99409831  0.99958904  0.85535522  1
  Nb  Nb3  1  0.00592583  0.33420538  0.85519981  1
  Nb  Nb4  1  0.99287446  0.66516727  0.85578505  1
  Nb  Nb5  1  0.00324978  0.99927233  0.64376717  1
  Nb  Nb6  1  0.00216927  0.33307624  0.64412664  1
  Nb  Nb7  1  0.99882454  0.66897662  0.64457605  1
  Nb  Nb8  1  0.99750917  0.00046662  0.14832402  1
  Nb  Nb9  1  0.99596610  0.33341716  0.14548424  1
  Nb  Nb10  1  0.66741332  0.44441476  0.68561995  1
  Nb  Nb11  1  0.66640895  0.44256323  0.18499239  1
  Nb  Nb12  1  0.66861111  0.77719078  0.18896363  1
  Nb  Nb13  1  0.67192196  0.11102817  0.97991398  1
  Nb  Nb14  1  0.66840969  0.77779170  0.97752067  1
  Nb  Nb15  1  0.66783408  0.11371241  0.48237193  1
  Nb  Nb16  1  0.66684075  0.77728807  0.47989732  1
  Nb  Nb17  1  0.33006053  0.22059326  0.01842736  1
  Nb  Nb18  1  0.32833967  0.55522222  0.02052166  1
  Nb  Nb19  1  0.33263583  0.22121832  0.52320708  1
  Nb  Nb20  1  0.34021114  0.55661343  0.52196556  1
  Nb  Nb21  1  0.34005086  0.22249385  0.31337324  1
  Nb  Nb22  1  0.32750377  0.88926214  0.31295341  1
  Nb  Nb23  1  0.32921655  0.88809510  0.81291689  1
  Si  Si0  1  0.28986278  0.33324261  0.25016994  1
  Si  Si1  1  0.29079786  0.66415607  0.24544255  1
  Si  Si2  1  0.70371220  0.23371917  0.24904866  1
  Si  Si3  1  0.70443567  0.90375081  0.25276759  1
  Si  Si4  1  -0.00014053  0.43160715  0.25084132  1
  Si  Si5  1  0.99915792  0.76337540  0.24720462  1
  Si  Si6  1  0.29323462  0.43102624  0.74990188  1
  Si  Si7  1  0.29003542  0.76301116  0.75088356  1
  Si  Si8  1  0.00299645  0.57032469  0.74908613  1
  Si  Si9  1  0.99805776  0.90153388  0.75003649  1
  Si  Si10  1  0.70902793  0.00111575  0.74853461  1
  Si  Si11  1  0.70675085  0.33181323  0.74969771  1
  Si  Si12  1  0.95661228  0.11092393  0.58683924  1
  Si  Si13  1  0.95791590  0.44395663  0.57977145  1
  Si  Si14  1  0.37505492  0.34726670  0.58001945  1
  Si  Si15  1  0.37833455  0.68183897  0.58749476  1
  Si  Si16  1  0.66552389  0.20758369  0.58963221  1
  Si  Si17  1  0.66496266  0.54088338  0.58076165  1
  Si  Si18  1  0.95928946  0.20737852  0.08705841  1
  Si  Si19  1  0.96186844  0.87520574  0.08335917  1
  Si  Si20  1  0.66849566  0.34745110  0.07746289  1
  Si  Si21  1  0.66742160  0.68047327  0.08379478  1
  Si  Si22  1  0.37611276  0.11057751  0.08560221  1
  Si  Si23  1  0.37680293  0.44485812  0.08264280  1
  Si  Si24  1  0.62750407  0.22292739  0.91449542  1
  Si  Si25  1  0.62205087  0.89004809  0.91967337  1
  Si  Si26  1  0.04069600  0.12614960  0.91073485  1
  Si  Si27  1  0.04280537  0.79158169  0.92054301  1
  Si  Si28  1  0.33313511  0.65175851  0.91226636  1
  Si  Si29  1  0.33786961  0.98628496  0.91882781  1
  Si  Si30  1  0.62675103  0.32086048  0.41839524  1
  Si  Si31  1  0.62631795  0.65209655  0.41355283  1
  Si  Si32  1  0.33421450  0.12420119  0.41678775  1
  Si  Si33  1  0.33789099  0.79321265  0.41905972  1
  Si  Si34  1  0.04494406  0.22209774  0.41634957  1
  Si  Si35  1  0.04368799  0.89168659  0.42009539  1
  P  P0  1  0.29322914  0.00089374  0.25225908  1
  P  P1  1  0.71156173  0.56994721  0.24771773  1
  P  P2  1  0.99654785  0.09623882  0.25401071  1
  P  P3  1  0.28820798  0.09697314  0.74957087  1
  P  P4  1  0.99685215  0.23622213  0.75104105  1
  P  P5  1  0.71079099  0.66757098  0.74995323  1
  P  P6  1  0.95895107  0.78035572  0.58646295  1
  P  P7  1  0.37704272  0.01322676  0.58600655  1
  P  P8  1  0.66706764  0.87445422  0.58559546  1
  P  P9  1  0.95595816  0.54110494  0.07986869  1
  P  P10  1  0.66571553  0.01503773  0.08658162  1
  P  P11  1  0.37414987  0.77670853  0.08337069  1
  P  P12  1  0.61944596  0.55339843  0.91474359  1
  P  P13  1  0.04363600  0.45917169  0.91319633  1
  P  P14  1  0.33728728  0.32057230  0.91346924  1
  P  P15  1  0.62160511  0.98558981  0.41974858  1
  P  P16  1  0.33281379  0.45951752  0.41401889  1
  P  P17  1  0.04081138  0.55470919  0.41394750  1
  O  O0  1  0.21226973  0.00949016  0.30793622  1
  O  O1  1  0.20012316  0.34457470  0.30865461  1
  O  O2  1  0.19137532  0.67366842  0.30606269  1
  O  O3  1  0.83207806  0.27223885  0.30532178  1
  O  O4  1  0.82643913  0.59950110  0.30459262  1
  O  O5  1  0.80977434  0.92807750  0.31243641  1
  O  O6  1  0.98834870  0.06428167  0.31071126  1
  O  O7  1  0.97443407  0.39260236  0.31127947  1
  O  O8  1  0.97003849  0.72209222  0.30719548  1
  O  O9  1  0.19720571  0.06121616  0.80648298  1
  O  O10  1  0.19772290  0.38953752  0.80858080  1
  O  O11  1  0.18076965  0.72117011  0.80804195  1
  O  O12  1  0.98398445  0.27014442  0.80667886  1
  O  O13  1  0.96888922  0.59928023  0.80886015  1
  O  O14  1  0.98719110  0.93758960  0.80842983  1
  O  O15  1  0.83474801  0.00773459  0.80559647  1
  O  O16  1  0.83501759  0.34221475  0.80798456  1
  O  O17  1  0.81931511  0.66963349  0.80568630  1
  O  O18  1  0.80383964  0.32475708  0.69131831  1
  O  O19  1  0.81145718  0.66315218  0.69496135  1
  O  O20  1  0.80560307  0.99139478  0.69014270  1
  O  O21  1  0.17161827  0.06293981  0.69480999  1
  O  O22  1  0.16641336  0.39501397  0.69453188  1
  O  O23  1  0.17300860  0.73291972  0.69041918  1
  O  O24  1  0.01262797  0.27391939  0.69623521  1
  O  O25  1  0.01866784  0.61143321  0.69171571  1
  O  O26  1  0.02758942  0.94475891  0.69261894  1
  O  O27  1  0.79883028  0.27192296  0.18967397  1
  O  O28  1  0.78827205  0.60557409  0.19181719  1
  O  O29  1  0.80591194  0.94383769  0.19302320  1
  O  O30  1  0.02230757  0.06448452  0.19841722  1
  O  O31  1  0.01436536  0.39364723  0.19593895  1
  O  O32  1  0.03929463  0.73953385  0.18831662  1
  O  O33  1  0.16887344  0.32268711  0.19161776  1
  O  O34  1  0.16494641  0.65386259  0.19219801  1
  O  O35  1  0.17419834  0.99268883  0.19546500  1
  O  O36  1  0.88136645  0.12003153  0.64716371  1
  O  O37  1  0.86559978  0.45455213  0.63961784  1
  O  O38  1  0.86862123  0.78480908  0.63980682  1
  O  O39  1  0.48098197  0.04173173  0.64196887  1
  O  O40  1  0.50158710  0.38013581  0.63939453  1
  O  O41  1  0.47653194  0.70448972  0.64851006  1
  O  O42  1  0.63595806  0.17356247  0.64981042  1
  O  O43  1  0.64059242  0.50174631  0.64141392  1
  O  O44  1  0.63997941  0.83842824  0.64084420  1
  O  O45  1  0.88878686  0.17485059  0.14842376  1
  O  O46  1  0.86702577  0.50289323  0.13759518  1
  O  O47  1  0.84840671  0.83185250  0.13849484  1
  O  O48  1  0.64056658  0.04376578  0.13962234  1
  O  O49  1  0.64168933  0.38209158  0.13579785  1
  O  O50  1  0.63919951  0.70919529  0.14449584  1
  O  O51  1  0.49152164  0.12691603  0.14438173  1
  O  O52  1  0.49799705  0.45665189  0.14415923  1
  O  O53  1  0.48402285  0.77986815  0.13905078  1
  O  O54  1  0.46311617  0.09853520  0.02659409  1
  O  O55  1  0.45609118  0.42837073  0.02884140  1
  O  O56  1  0.47537188  0.77556164  0.02673756  1
  O  O57  1  0.82735165  0.17308753  0.03127324  1
  O  O58  1  0.85080763  0.51255304  0.02442568  1
  O  O59  1  0.84225545  0.84685515  0.02321901  1
  O  O60  1  0.68867127  0.05079121  0.02845310  1
  O  O61  1  0.69775549  0.38174114  0.01758210  1
  O  O62  1  0.68680471  0.72424816  0.02844626  1
  O  O63  1  0.46656554  0.05151292  0.52869287  1
  O  O64  1  0.45007004  0.38272454  0.52032687  1
  O  O65  1  0.47994537  0.72488795  0.53007572  1
  O  O66  1  0.68767460  0.17326785  0.53050619  1
  O  O67  1  0.71178918  0.51754562  0.52265742  1
  O  O68  1  0.69091345  0.84543326  0.52803043  1
  O  O69  1  0.83094589  0.09987545  0.52708067  1
  O  O70  1  0.84124680  0.42925343  0.52169942  1
  O  O71  1  0.85318370  0.77354599  0.52718063  1
  O  O72  1  0.53709299  0.23474001  0.97366510  1
  O  O73  1  0.52619738  0.56028936  0.97125167  1
  O  O74  1  0.54593478  0.89879279  0.97975281  1
  O  O75  1  0.17288582  0.16097876  0.96766936  1
  O  O76  1  0.15630845  0.48939375  0.96975002  1
  O  O77  1  0.15637319  0.81427732  0.97948993  1
  O  O78  1  0.31570359  0.28389494  0.97111081  1
  O  O79  1  0.30410678  0.60846231  0.96966496  1
  O  O80  1  0.28505966  0.94650200  0.97689263  1
  O  O81  1  0.53687701  0.28347191  0.47787785  1
  O  O82  1  0.52211672  0.60916148  0.47079263  1
  O  O83  1  0.54657968  0.95060889  0.47619850  1
  O  O84  1  0.31829934  0.16194414  0.47104782  1
  O  O85  1  0.30551016  0.48985652  0.46946454  1
  O  O86  1  0.29547173  0.81593585  0.47838857  1
  O  O87  1  0.17339011  0.23428085  0.47244286  1
  O  O88  1  0.14882041  0.56158415  0.47136042  1
  O  O89  1  0.16642701  0.90174104  0.47435144  1
  O  O90  1  0.13069954  0.21083807  0.35636735  1
  O  O91  1  0.12286717  0.54724219  0.35810837  1
  O  O92  1  0.13946326  0.88044207  0.36035564  1
  O  O93  1  0.49983026  0.28316498  0.36127038  1
  O  O94  1  0.52634635  0.62828235  0.35286392  1
  O  O95  1  0.50138034  0.95435502  0.36456541  1
  O  O96  1  0.35905677  0.16318501  0.35574106  1
  O  O97  1  0.35007816  0.49308393  0.35744315  1
  O  O98  1  0.36522125  0.83326555  0.35930547  1
  O  O99  1  0.11137176  0.15921215  0.84967224  1
  O  O100  1  0.12701230  0.49352618  0.85703481  1
  O  O101  1  0.13933063  0.83430128  0.86245769  1
  O  O102  1  0.35447711  0.29155766  0.85773805  1
  O  O103  1  0.36231377  0.62816846  0.85140637  1
  O  O104  1  0.36006780  0.95458853  0.85867725  1
  O  O105  1  0.51172436  0.20867835  0.85603796  1
  O  O106  1  0.52220993  0.54782550  0.85761760  1
  O  O107  1  0.50155781  0.87984118  0.85991571  1
  O  O108  1  0.03242530  0.28024699  0.40973665  1
  O  O109  1  0.02081720  0.60946342  0.41128907  1
  O  O110  1  0.01192771  0.94455354  0.41233012  1
  O  O111  1  0.81766637  0.32667852  0.41225541  1
  O  O112  1  0.81766802  0.65737188  0.41433349  1
  O  O113  1  0.80210814  0.99567594  0.41043385  1
  O  O114  1  0.16531273  0.06285420  0.41504429  1
  O  O115  1  0.16680090  0.39874807  0.41394297  1
  O  O116  1  0.16703424  0.72946392  0.40702146  1
  O  O117  1  0.03330986  0.06358817  0.91277183  1
  O  O118  1  0.02594665  0.39804418  0.91232153  1
  O  O119  1  0.01653591  0.72797467  0.90731623  1
  O  O120  1  0.16959877  0.32496804  0.91192282  1
  O  O121  1  0.15493868  0.65658377  0.91325594  1
  O  O122  1  0.17288683  0.99637826  0.90673246  1
  O  O123  1  0.81665241  0.28174730  0.91158697  1
  O  O124  1  0.80132529  0.61008961  0.91391295  1
  O  O125  1  0.81982358  0.94337494  0.91004053  1
  O  O126  1  0.97116830  0.05172346  0.58778083  1
  O  O127  1  0.98000729  0.38826094  0.59202689  1
  O  O128  1  0.97094987  0.72310001  0.58707775  1
  O  O129  1  0.19672508  0.00875457  0.58787830  1
  O  O130  1  0.18392881  0.33739967  0.59316243  1
  O  O131  1  0.18378066  0.67560793  0.58551944  1
  O  O132  1  0.83457544  0.27238924  0.58690114  1
  O  O133  1  0.83125138  0.60508233  0.59281715  1
  O  O134  1  0.83375046  0.93513035  0.58780823  1
  O  O135  1  0.97932182  0.27212972  0.08566111  1
  O  O136  1  0.97240267  0.59942009  0.08771805  1
  O  O137  1  0.97110563  0.93774892  0.09067725  1
  O  O138  1  0.83319362  0.00964874  0.09017542  1
  O  O139  1  0.82820206  0.33631803  0.09039072  1
  O  O140  1  0.83384194  0.67370245  0.08418705  1
  O  O141  1  0.18553019  0.05289335  0.09088639  1
  O  O142  1  0.18599131  0.38914752  0.09409829  1
  O  O143  1  0.19816206  0.72400431  0.08239166  1
  O  O144  1  0.68708505  0.05630177  0.74833141  1
  O  O145  1  0.70118526  0.39187231  0.74488903  1
  O  O146  1  0.69453540  0.72029353  0.74931004  1
  O  O147  1  0.46249227  0.10077007  0.74771797  1
  O  O148  1  0.47751627  0.43260842  0.74535420  1
  O  O149  1  0.47400706  0.76817276  0.75061679  1
  O  O150  1  0.83323674  0.17856000  0.75158918  1
  O  O151  1  0.82543428  0.50803462  0.74441181  1
  O  O152  1  0.82622204  0.84197056  0.74767989  1
  O  O153  1  0.68768379  0.17231335  0.25249752  1
  O  O154  1  0.70558595  0.51058613  0.24545118  1
  O  O155  1  0.67222032  0.83849719  0.23924825  1
  O  O156  1  0.84540323  0.10526753  0.24726405  1
  O  O157  1  0.82904510  0.43811421  0.24326667  1
  O  O158  1  0.82347868  0.76765814  0.24690031  1
  O  O159  1  0.46876326  0.05285850  0.24268115  1
  O  O160  1  0.47632404  0.39170683  0.24316965  1
  O  O161  1  0.47645230  0.72499869  0.24602435  1
  O  O162  1  0.64691144  0.16667704  0.92812526  1
  O  O163  1  0.65670437  0.50444780  0.92207053  1
  O  O164  1  0.64208882  0.83216114  0.92049316  1
  O  O165  1  0.85131387  0.11615293  0.92694918  1
  O  O166  1  0.86397889  0.45136919  0.91905390  1
  O  O167  1  0.85516019  0.78795841  0.92204533  1
  O  O168  1  0.50322591  0.05088525  0.92145108  1
  O  O169  1  0.49517627  0.37972605  0.91862536  1
  O  O170  1  0.48882817  0.71697499  0.92670456  1
  O  O171  1  0.62931655  0.04504197  0.42151864  1
  O  O172  1  0.64436362  0.38272808  0.41451850  1
  O  O173  1  0.65977952  0.71690630  0.42830005  1
  O  O174  1  0.50457990  0.11737473  0.42358577  1
  O  O175  1  0.49062701  0.45285626  0.42065765  1
  O  O176  1  0.51252968  0.78823760  0.42215515  1
  O  O177  1  0.85982261  0.16367962  0.42461057  1
  O  O178  1  0.85928516  0.50292804  0.41949279  1
  O  O179  1  0.85455660  0.83125802  0.42312965  1
  O  O180  1  0.35337729  0.16688397  0.07186927  1
  O  O181  1  0.36331366  0.50307377  0.07668276  1
  O  O182  1  0.36735141  0.83228403  0.08468672  1
  O  O183  1  0.15394920  0.21978399  0.07272889  1
  O  O184  1  0.13624764  0.54519768  0.07690468  1
  O  O185  1  0.14709788  0.88117607  0.08396559  1
  O  O186  1  0.49340029  0.28409756  0.07981197  1
  O  O187  1  0.49485937  0.61714624  0.07371789  1
  O  O188  1  0.51254727  0.95435197  0.07983164  1
  O  O189  1  0.36440641  0.28474431  0.58100429  1
  O  O190  1  0.34110247  0.61674596  0.57166075  1
  O  O191  1  0.36161982  0.95473626  0.57923349  1
  O  O192  1  0.50385974  0.21787089  0.57617216  1
  O  O193  1  0.49274105  0.54718286  0.57692108  1
  O  O194  1  0.51431162  0.88421049  0.57819751  1
  O  O195  1  0.14717830  0.16543678  0.57368791  1
  O  O196  1  0.14333710  0.50277024  0.57592322  1
  O  O197  1  0.14405459  0.82896872  0.58120008  1
  O  O198  1  0.30068611  0.27506870  0.25629327  1
  O  O199  1  0.32203441  0.61116497  0.25317349  1
  O  O200  1  0.30416660  0.94513135  0.25501606  1
  O  O201  1  0.51528538  0.22914074  0.25359128  1
  O  O202  1  0.53001967  0.55912476  0.25621672  1
  O  O203  1  0.51005384  0.89525848  0.25319287  1
  O  O204  1  0.16833237  0.15635840  0.25197458  1
  O  O205  1  0.16899262  0.49286739  0.25166915  1
  O  O206  1  0.16751342  0.82619619  0.26030574  1
  O  O207  1  0.29836812  0.15501721  0.74896600  1
  O  O208  1  0.31558619  0.49338685  0.75246447  1
  O  O209  1  0.30694793  0.82612196  0.75652354  1
  O  O210  1  0.16003212  0.23273325  0.75246146  1
  O  O211  1  0.16890214  0.56353164  0.74955257  1
  O  O212  1  0.17990065  0.90170767  0.75440932  1
  O  O213  1  0.51875830  0.27719115  0.75311537  1
  O  O214  1  0.53906893  0.61177143  0.75033697  1
  O  O215  1  0.52536058  0.94159192  0.75461847  1
loop_
_geom_bond_atom_site_label_1
_geom_bond_atom_site_label_2
_geom_bond_distance
_geom_bond_site_symmetry_2
Na0 O110 2.357612 1_555
Na0 O114 2.379933 1_565
Na0 O129 2.599358 1_565
Na0 O113 2.654138 1_455
Na0 O126 2.667236 1_465
Na0 O134 2.686444 1_455
Na1 O132 2.457048 1_455
Na1 O108 2.556544 1_555
Na1 O130 2.558722 1_555
Na1 O111 2.593821 1_455
Na1 O115 2.601683 1_555
Na1 O127 2.634140 1_455
Na2 O112 2.434756 1_555
Na2 O131 2.494164 1_655
Na2 O128 2.576646 1_555
Na2 O109 2.584693 1_655
Na2 O116 2.629946 1_655
Na2 O133 2.633049 1_555
Na3 O117 2.431678 1_654
Na3 O138 2.499303 1_555
Na3 O141 2.567581 1_655
Na3 O125 2.596014 1_544
Na3 O137 2.668276 1_545
Na3 O122 2.759566 1_644
Na4 O118 2.516718 1_555
Na4 O135 2.532291 1_456
Na4 O120 2.551936 1_555
Na4 O142 2.577170 1_556
Na4 O123 2.591640 1_455
Na4 O139 2.619656 1_456
Na5 O140 2.365642 1_455
Na5 O143 2.369642 1_555
Na5 O136 2.472961 1_455
Na5 O121 2.617160 1_554
Na5 O124 2.699749 1_454
Na5 O119 2.759694 1_554
Na6 O144 2.409304 1_555
Na6 O150 2.440472 1_555
Na6 O168 2.580431 1_555
Na6 O165 2.604029 1_555
Na6 O147 2.631108 1_555
Na6 O162 2.736240 1_555
Na7 O169 2.361709 1_555
Na7 O163 2.422844 1_555
Na7 O166 2.536512 1_555
Na7 O148 2.583334 1_555
Na7 O151 2.734466 1_555
Na7 O145 2.746602 1_555
Na8 O146 2.326431 1_555
Na8 O152 2.369105 1_555
Na8 O149 2.426964 1_555
Na8 O167 2.614093 1_555
Na8 O164 2.740212 1_555
Na8 O170 2.818271 1_555
Na9 O153 2.338637 1_555
Na9 O156 2.448653 1_555
Na9 O159 2.485818 1_555
Na9 O171 2.645166 1_555
Na9 O174 2.693327 1_555
Na9 O177 2.766815 1_555
Na10 O172 2.297191 1_555
Na10 O178 2.494057 1_555
Na10 O175 2.579869 1_555
Na10 O157 2.592355 1_555
Na10 O160 2.645835 1_555
Na10 O154 2.677097 1_555
Na11 O158 2.510125 1_555
Na11 O176 2.516307 1_555
Na11 O161 2.540159 1_555
Na11 O179 2.551323 1_555
Na11 O155 2.640038 1_555
Na11 O173 2.691763 1_555
Na12 O186 2.509492 1_555
Na12 O204 2.525996 1_555
Na12 O201 2.544878 1_555
Na12 O183 2.591677 1_555
Na12 O198 2.606649 1_555
Na12 O180 2.622420 1_555
Na13 O199 2.356443 1_555
Na13 O205 2.399476 1_555
Na13 O184 2.605112 1_555
Na13 O202 2.671843 1_555
Na13 O181 2.704199 1_555
Na13 O187 2.712894 1_555
Na14 O185 2.388336 1_555
Na14 O188 2.495971 1_555
Na14 O203 2.523252 1_555
Na14 O182 2.526494 1_555
Na14 O200 2.587514 1_555
Na14 O206 2.737028 1_555
Na15 O207 2.425243 1_555
Na15 O213 2.529438 1_555
Na15 O210 2.538786 1_555
Na15 O189 2.554228 1_555
Na15 O195 2.623464 1_555
Na15 O192 2.644055 1_555
Na16 O208 2.415054 1_555
Na16 O211 2.421999 1_555
Na16 O214 2.435019 1_555
Na16 O193 2.599538 1_555
Na16 O196 2.697683 1_555
Na16 O190 2.775669 1_555
Na17 O197 2.333024 1_555
Na17 O191 2.488435 1_555
Na17 O212 2.510388 1_555
Na17 O194 2.679950 1_555
Na17 O209 2.680863 1_555
Na17 O215 2.769808 1_555
Na18 O94 2.341390 1_555
Na18 O199 2.342236 1_555
Na18 O202 2.462873 1_555
Na18 O158 2.544585 1_555
Na18 O161 2.648319 1_555
Na18 O50 2.778379 1_555
Na19 O159 2.361911 1_555
Na19 O51 2.450642 1_555
Na19 O153 2.458437 1_555
Na19 O204 2.524617 1_555
Na19 O201 2.583159 1_555
Na19 O96 2.784231 1_555
Na19 O0 2.956659 1_555
Na19 O30 2.960922 1_555
Na20 O202 2.326058 1_555
Na20 O205 2.361878 1_555
Na20 O97 2.487934 1_555
Na20 O160 2.526195 1_555
Na20 O154 2.674449 1_555
Na20 O52 2.781767 1_555
Na21 O161 2.416510 1_555
Na21 O206 2.452463 1_555
Na21 O155 2.490034 1_555
Na21 O203 2.563161 1_555
Na21 O53 2.670895 1_555
Na21 O32 2.780791 1_555
Na21 O98 2.859307 1_555
Na21 O2 2.997596 1_555
Na22 O45 2.261743 1_555
Na22 O156 2.369463 1_555
Na22 O153 2.405967 1_555
Na22 O198 2.525004 1_655
Na22 O204 2.599105 1_655
Na22 O90 2.850622 1_655
Na22 O33 2.966672 1_655
Na23 O199 2.395113 1_555
Na23 O205 2.490603 1_555
Na23 O154 2.499019 1_455
Na23 O91 2.589021 1_555
Na23 O157 2.621155 1_455
Na23 O34 2.793646 1_555
Na23 O46 2.857226 1_455
Na23 O4 2.970143 1_455
Na24 O42 2.413637 1_555
Na24 O150 2.446332 1_555
Na24 O147 2.476854 1_555
Na24 O207 2.480982 1_555
Na24 O213 2.481313 1_555
Na24 O105 2.607647 1_555
Na25 O214 2.329870 1_555
Na25 O208 2.415896 1_555
Na25 O106 2.452017 1_555
Na25 O151 2.480843 1_555
Na25 O148 2.630286 1_555
Na25 O43 2.868846 1_555
Na25 O13 2.952116 1_555
Na26 O152 2.324739 1_555
Na26 O149 2.436301 1_555
Na26 O215 2.493082 1_555
Na26 O44 2.526301 1_555
Na26 O209 2.527670 1_555
Na26 O107 2.865390 1_555
Na27 O99 2.435660 1_655
Na27 O207 2.453212 1_655
Na27 O144 2.474714 1_555
Na27 O150 2.494805 1_555
Na27 O36 2.495203 1_555
Na27 O210 2.496757 1_655
Na28 O208 2.410636 1_555
Na28 O211 2.417373 1_555
Na28 O100 2.476471 1_555
Na28 O145 2.513655 1_455
Na28 O151 2.614824 1_455
Na28 O37 2.882358 1_455
Na29 O147 2.352362 1_555
Na29 O144 2.408151 1_555
Na29 O212 2.446726 1_545
Na29 O39 2.511592 1_555
Na29 O215 2.612457 1_545
Na29 O104 2.829643 1_545
Na30 O210 2.345484 1_555
Na30 O213 2.395853 1_555
Na30 O102 2.474491 1_555
Na30 O148 2.477965 1_555
Na30 O145 2.623744 1_555
Na30 O40 2.914365 1_555
Na31 O149 2.438573 1_555
Na31 O146 2.439604 1_555
Na31 O41 2.445655 1_555
Na31 O103 2.483827 1_555
Na31 O211 2.496207 1_555
Na31 O214 2.520429 1_555
Na32 O197 2.365171 1_555
Na32 O86 2.406514 1_555
Na32 O194 2.430634 1_555
Na32 O131 2.555894 1_555
Na32 O128 2.653113 1_455
Na32 O23 2.848039 1_555
Na32 O65 2.920152 1_555
Na32 O44 2.974777 1_555
Na33 O196 2.426989 1_555
Na33 O133 2.490018 1_455
Na33 O190 2.509829 1_555
Na33 O131 2.614111 1_555
Na33 O88 2.655298 1_555
Na33 O67 2.725847 1_455
Na33 O25 2.869129 1_555
Na33 O37 2.943643 1_455
Na34 O189 2.407807 1_555
Na34 O127 2.487140 1_555
Na34 O192 2.507333 1_555
Na34 O81 2.515964 1_555
Na34 O132 2.535972 1_555
Na34 O70 2.766664 1_555
Na34 O18 2.822738 1_555
Na34 O40 2.962339 1_555
Na35 O191 2.362619 1_555
Na35 O194 2.413849 1_555
Na35 O83 2.500840 1_555
Na35 O126 2.500893 1_565
Na35 O134 2.613843 1_555
Na35 O20 2.808835 1_555
Na35 O69 2.899172 1_565
Na36 O186 2.464153 1_555
Na36 O142 2.485664 1_555
Na36 O183 2.509224 1_555
Na36 O135 2.592157 1_455
Na36 O55 2.616534 1_555
Na36 O78 2.630489 1_554
Na36 O33 2.865378 1_555
Na36 O49 2.942160 1_555
Na37 O188 2.407650 1_555
Na37 O80 2.450748 1_554
Na37 O185 2.468373 1_555
Na37 O141 2.572621 1_565
Na37 O137 2.665481 1_455
Na37 O54 2.879334 1_565
Na37 O35 2.957853 1_555
Na37 O48 2.968960 1_565
Na38 O135 2.480492 1_555
Na38 O180 2.483284 1_555
Na38 O139 2.533607 1_555
Na38 O27 2.593658 1_555
Na38 O186 2.654878 1_555
Na38 O51 2.721531 1_555
Na38 O72 2.826219 1_554
Na38 O57 2.866156 1_555
Na39 O136 2.358607 1_555
Na39 O140 2.435208 1_555
Na39 O181 2.523053 1_555
Na39 O28 2.561637 1_555
Na39 O187 2.577942 1_555
Na39 O73 2.870038 1_554
Na39 O52 2.970098 1_555
Na39 O58 3.029858 1_555
Na40 O182 2.333867 1_555
Na40 O74 2.339049 1_554
Na40 O188 2.399563 1_555
Na40 O137 2.538346 1_555
Na40 O138 2.602188 1_565
Na40 O29 2.944369 1_555
Na40 O59 2.957719 1_555
Na41 O143 2.418780 1_555
Na41 O182 2.477866 1_555
Na41 O185 2.484385 1_555
Na41 O140 2.515452 1_455
Na41 O32 2.532122 1_555
Na41 O77 2.537186 1_554
Na42 O163 2.374095 1_555
Na42 O166 2.403443 1_555
Na42 O121 2.506325 1_655
Na42 O58 2.509906 1_556
Na42 O124 2.623938 1_555
Na42 O13 2.827120 1_555
Na42 O79 2.913255 1_655
Na43 O167 2.443415 1_555
Na43 O125 2.501857 1_555
Na43 O122 2.507657 1_655
Na43 O59 2.620846 1_556
Na43 O164 2.664896 1_555
Na43 O80 2.705918 1_655
Na43 O14 2.783971 1_555
Na43 O101 2.884812 1_655
Na44 O61 2.300147 1_556
Na44 O169 2.392973 1_555
Na44 O166 2.456723 1_555
Na44 O123 2.519849 1_555
Na44 O118 2.605062 1_655
Na44 O72 2.868134 1_555
Na44 O16 2.915194 1_555
Na45 O117 2.429217 1_555
Na45 O162 2.455613 1_555
Na45 O122 2.516471 1_545
Na45 O168 2.517158 1_555
Na45 O9 2.679172 1_555
Na45 O105 2.789214 1_555
Na45 O54 2.807355 1_556
Na45 O75 2.940140 1_555
Na46 O164 2.459024 1_555
Na46 O170 2.484408 1_555
Na46 O119 2.506640 1_555
Na46 O56 2.653801 1_556
Na46 O121 2.671606 1_555
Na46 O77 2.744622 1_555
Na46 O11 2.881914 1_555
Na46 O107 2.933918 1_555
Na47 O113 2.334916 1_545
Na47 O114 2.360563 1_655
Na47 O6 2.443535 1_555
Na47 O177 2.514346 1_555
Na47 O171 2.661931 1_555
Na47 O69 2.902281 1_555
Na48 O178 2.398814 1_555
Na48 O70 2.423213 1_555
Na48 O172 2.457493 1_555
Na48 O115 2.560365 1_655
Na48 O111 2.575848 1_555
Na48 O7 2.790828 1_555
Na48 O85 2.935468 1_655
Na48 O91 2.999410 1_655
Na49 O179 2.414674 1_555
Na49 O116 2.479356 1_655
Na49 O173 2.550200 1_555
Na49 O71 2.622422 1_555
Na49 O112 2.708190 1_555
Na49 O86 2.746405 1_655
Na49 O8 2.907841 1_555
Na49 O92 2.907947 1_655
Na50 O110 2.398820 1_545
Na50 O114 2.479195 1_555
Na50 O171 2.507986 1_555
Na50 O0 2.596473 1_555
Na50 O174 2.606591 1_555
Na50 O89 2.805973 1_545
Na50 O63 2.844464 1_555
Na50 O95 2.946098 1_545
Na51 O64 2.301709 1_555
Na51 O172 2.390925 1_555
Na51 O175 2.440893 1_555
Na51 O108 2.536266 1_555
Na51 O115 2.594684 1_555
Na51 O87 2.894338 1_555
Na51 O1 2.921825 1_555
Na52 O175 2.394035 1_555
Na52 O178 2.408877 1_555
Na52 O67 2.454440 1_555
Na52 O112 2.510392 1_555
Na52 O109 2.538215 1_655
Na52 O4 2.909730 1_555
Na52 O82 2.943727 1_555
Na53 O110 2.339516 1_655
Na53 O5 2.347253 1_555
Na53 O113 2.435220 1_555
Na53 O176 2.553148 1_555
Na53 O179 2.626960 1_555
Mg0 O5 2.005669 1_555
Mg0 O110 2.041496 1_655
Mg0 O0 2.052193 1_665
Mg0 O6 2.055471 1_565
Mg0 O114 2.187375 1_665
Mg0 O113 2.191595 1_555
Mg1 O34 1.938680 1_555
Mg1 O32 2.044251 1_555
Mg1 O28 2.115982 1_455
Mg1 O140 2.169175 1_455
Mg1 O136 2.170283 1_455
Mg1 O143 2.177951 1_555
Mg2 O42 1.990011 1_555
Mg2 O36 2.000412 1_555
Mg2 O39 2.055497 1_555
Mg2 O144 2.151300 1_555
Mg2 O150 2.244907 1_555
Mg2 O147 2.252963 1_555
Mg3 O38 2.007204 1_555
Mg3 O41 2.060331 1_555
Mg3 O44 2.107335 1_555
Mg3 O152 2.110803 1_555
Mg3 O146 2.151150 1_555
Mg3 O149 2.192643 1_555
Mg4 O48 2.002609 1_555
Mg4 O45 2.036927 1_555
Mg4 O51 2.069609 1_555
Mg4 O159 2.151882 1_555
Mg4 O153 2.182448 1_555
Mg4 O156 2.184226 1_555
Mg5 O55 1.962557 1_556
Mg5 O61 2.011987 1_556
Mg5 O58 2.064304 1_556
Mg5 O169 2.142773 1_555
Mg5 O163 2.164806 1_555
Mg5 O166 2.267246 1_555
Mg6 O64 1.999928 1_555
Mg6 O70 2.017185 1_555
Mg6 O67 2.033145 1_555
Mg6 O172 2.198866 1_555
Mg6 O178 2.212798 1_555
Mg6 O175 2.216287 1_555
Mg7 O74 2.009378 1_554
Mg7 O80 2.026228 1_554
Mg7 O77 2.029620 1_554
Mg7 O185 2.172359 1_555
Mg7 O188 2.214514 1_555
Mg7 O182 2.285698 1_555
Mg8 O89 1.921576 1_555
Mg8 O86 2.051362 1_555
Mg8 O83 2.095154 1_555
Mg8 O197 2.150512 1_555
Mg8 O191 2.151093 1_555
Mg8 O194 2.221658 1_555
Mg9 O94 2.014798 1_555
Mg9 O199 2.040625 1_555
Mg9 O91 2.042556 1_555
Mg9 O97 2.067115 1_555
Mg9 O205 2.177172 1_555
Mg9 O202 2.188721 1_555
Mg10 O99 2.007088 1_555
Mg10 O105 2.024784 1_555
Mg10 O102 2.059625 1_555
Mg10 O213 2.141729 1_555
Mg10 O207 2.227970 1_555
Mg10 O210 2.247023 1_555
Mg11 O103 2.005368 1_555
Mg11 O100 2.063246 1_555
Mg11 O106 2.066470 1_555
Mg11 O208 2.146459 1_555
Mg11 O211 2.163228 1_555
Mg11 O214 2.205322 1_555
Nb0 O3 1.886268 1_555
Nb0 O7 1.964691 1_555
Nb0 O111 1.996844 1_555
Nb0 O1 2.019864 1_655
Nb0 O108 2.054903 1_655
Nb0 O115 2.178341 1_655
Nb1 O2 1.882084 1_555
Nb1 O8 1.956614 1_455
Nb1 O116 1.973298 1_555
Nb1 O4 2.079759 1_455
Nb1 O109 2.106289 1_555
Nb1 O112 2.135166 1_455
Nb2 O15 1.921485 1_565
Nb2 O14 1.959212 1_555
Nb2 O125 1.978386 1_555
Nb2 O122 2.023559 1_655
Nb2 O117 2.045551 1_665
Nb2 O9 2.075443 1_665
Nb3 O10 1.938709 1_555
Nb3 O16 1.974275 1_455
Nb3 O12 1.975277 1_455
Nb3 O123 2.030807 1_455
Nb3 O120 2.060245 1_555
Nb3 O118 2.088520 1_555
Nb4 O11 1.940892 1_655
Nb4 O119 1.980502 1_655
Nb4 O17 1.983683 1_555
Nb4 O13 1.991190 1_555
Nb4 O121 2.050889 1_655
Nb4 O124 2.085669 1_555
Nb5 O26 1.938202 1_555
Nb5 O20 1.988405 1_455
Nb5 O21 1.996963 1_565
Nb5 O126 2.022872 1_465
Nb5 O129 2.064057 1_565
Nb5 O134 2.071331 1_455
Nb6 O22 1.953714 1_555
Nb6 O130 1.959702 1_555
Nb6 O127 1.985244 1_455
Nb6 O18 1.999180 1_455
Nb6 O24 2.023924 1_555
Nb6 O132 2.040590 1_455
Nb7 O23 1.954929 1_655
Nb7 O25 1.965337 1_655
Nb7 O19 1.979180 1_555
Nb7 O133 2.006813 1_555
Nb7 O128 2.060505 1_555
Nb7 O131 2.072187 1_655
Nb8 O29 1.926887 1_545
Nb8 O30 1.985380 1_655
Nb8 O35 2.014415 1_645
Nb8 O141 2.039724 1_655
Nb8 O137 2.053996 1_545
Nb8 O138 2.083847 1_555
Nb9 O31 1.925690 1_655
Nb9 O139 1.989091 1_555
Nb9 O142 1.993820 1_655
Nb9 O27 1.994332 1_555
Nb9 O33 2.015087 1_655
Nb9 O135 2.082913 1_555
Nb10 O40 1.937916 1_555
Nb10 O43 1.958167 1_555
Nb10 O37 1.967919 1_555
Nb10 O151 2.072922 1_555
Nb10 O148 2.075305 1_555
Nb10 O145 2.078509 1_555
Nb11 O49 1.895768 1_555
Nb11 O52 1.972872 1_555
Nb11 O157 2.016070 1_555
Nb11 O46 2.034418 1_555
Nb11 O160 2.048155 1_555
Nb11 O154 2.172000 1_555
Nb12 O47 1.928217 1_555
Nb12 O50 1.995162 1_555
Nb12 O155 1.996912 1_555
Nb12 O158 2.019751 1_555
Nb12 O53 2.042456 1_555
Nb12 O161 2.051305 1_555
Nb13 O57 1.942954 1_556
Nb13 O165 1.961439 1_555
Nb13 O162 2.003835 1_555
Nb13 O60 2.030069 1_556
Nb13 O54 2.037464 1_556
Nb13 O168 2.055214 1_555
Nb14 O62 1.917890 1_556
Nb14 O170 1.996326 1_555
Nb14 O167 2.005274 1_555
Nb14 O59 2.023352 1_556
Nb14 O56 2.043862 1_556
Nb14 O164 2.052404 1_555
Nb15 O66 1.876233 1_555
Nb15 O69 1.969850 1_555
Nb15 O174 2.018801 1_555
Nb15 O63 2.043593 1_555
Nb15 O177 2.045176 1_555
Nb15 O171 2.192619 1_555
Nb16 O65 1.935890 1_555
Nb16 O173 1.981018 1_555
Nb16 O176 2.031675 1_555
Nb16 O71 2.037636 1_555
Nb16 O179 2.041136 1_555
Nb16 O68 2.056990 1_555
Nb17 O75 1.907241 1_554
Nb17 O180 1.976204 1_555
Nb17 O72 1.989024 1_554
Nb17 O183 1.998940 1_555
Nb17 O78 2.076183 1_554
Nb17 O186 2.122328 1_555
Nb18 O79 1.935535 1_554
Nb18 O187 1.997132 1_555
Nb18 O181 2.032016 1_555
Nb18 O76 2.033214 1_554
Nb18 O73 2.051659 1_554
Nb18 O184 2.056626 1_555
Nb19 O84 1.940254 1_555
Nb19 O195 1.962788 1_555
Nb19 O192 1.990186 1_555
Nb19 O87 2.002176 1_555
Nb19 O81 2.046111 1_555
Nb19 O189 2.058965 1_555
Nb20 O82 1.927700 1_555
Nb20 O193 1.959876 1_555
Nb20 O190 1.973124 1_555
Nb20 O196 2.043115 1_555
Nb20 O85 2.049121 1_555
Nb20 O88 2.131096 1_555
Nb21 O93 1.891496 1_555
Nb21 O96 1.947912 1_555
Nb21 O90 2.007627 1_555
Nb21 O201 2.016105 1_555
Nb21 O198 2.073929 1_555
Nb21 O204 2.178354 1_555
Nb22 O92 1.919411 1_555
Nb22 O206 1.985975 1_555
Nb22 O98 2.004768 1_555
Nb22 O95 2.039637 1_555
Nb22 O203 2.071186 1_555
Nb22 O200 2.083995 1_555
Nb23 O101 1.952887 1_555
Nb23 O104 1.970989 1_555
Nb23 O107 1.985958 1_555
Nb23 O209 2.032250 1_555
Nb23 O212 2.044516 1_555
Nb23 O215 2.096215 1_555
O0 P0 1.523495 1_555
O1 Si0 1.650606 1_555
O2 Si1 1.719670 1_555
O3 Si2 1.679205 1_555
O4 P1 1.585941 1_555
O5 Si3 1.582053 1_555
O6 P2 1.517721 1_555
O7 Si4 1.661125 1_655
O8 Si5 1.682800 1_555
O9 P3 1.563949 1_555
O10 Si6 1.664037 1_555
O11 Si7 1.668612 1_555
O12 P4 1.588699 1_555
O13 Si8 1.658624 1_655
O14 Si9 1.666407 1_555
O15 Si10 1.660416 1_555
O16 Si11 1.674877 1_555
O17 P5 1.572052 1_555
O18 Si11 1.640563 1_555
O19 P5 1.573315 1_555
O20 Si10 1.667186 1_565
O21 P3 1.580737 1_555
O22 Si6 1.640651 1_555
O23 Si7 1.661302 1_555
O24 P4 1.557239 1_455
O25 Si8 1.659659 1_555
O26 Si9 1.668788 1_455
O27 Si2 1.640814 1_555
O28 P1 1.520770 1_555
O29 Si3 1.678974 1_555
O30 P2 1.597305 1_455
O31 Si4 1.651978 1_555
O32 Si5 1.590067 1_455
O33 Si0 1.639608 1_555
O34 Si1 1.575064 1_555
O35 P0 1.609122 1_565
O36 Si12 1.588160 1_555
O37 Si13 1.680023 1_555
O38 P6 1.487644 1_555
O39 P7 1.525939 1_555
O40 Si14 1.690204 1_555
O41 Si15 1.578022 1_555
O42 Si16 1.578378 1_555
O43 Si17 1.668807 1_555
O44 P8 1.518277 1_555
O45 Si18 1.584788 1_555
O46 P9 1.600062 1_555
O47 Si19 1.660333 1_555
O48 P10 1.500356 1_555
O49 Si20 1.697438 1_555
O50 Si21 1.650266 1_555
O51 Si22 1.599658 1_555
O52 Si23 1.689339 1_555
O53 P11 1.570526 1_555
O54 Si22 1.653915 1_555
O55 Si23 1.578791 1_555
O56 P11 1.575447 1_555
O57 Si18 1.656742 1_555
O58 P9 1.520701 1_555
O59 Si19 1.657556 1_555
O60 P10 1.573361 1_555
O61 Si20 1.576713 1_555
O62 Si21 1.663535 1_555
O63 P7 1.594384 1_555
O64 Si14 1.587595 1_555
O65 Si15 1.670467 1_555
O66 Si16 1.688547 1_555
O67 Si17 1.595645 1_555
O68 P8 1.581768 1_555
O69 Si12 1.683760 1_555
O70 Si13 1.595546 1_555
O71 P6 1.592758 1_555
O72 Si24 1.672031 1_555
O73 P12 1.584691 1_555
O74 Si25 1.583869 1_555
O75 Si26 1.680197 1_555
O76 P13 1.575675 1_555
O77 Si27 1.596072 1_555
O78 P14 1.580676 1_555
O79 Si28 1.670539 1_555
O80 Si29 1.602327 1_555
O81 Si30 1.625058 1_555
O82 Si31 1.671021 1_555
O83 P15 1.521764 1_555
O84 Si32 1.642426 1_555
O85 P16 1.577216 1_555
O86 Si33 1.591624 1_555
O87 Si34 1.629817 1_555
O88 P17 1.569083 1_555
O89 Si35 1.575854 1_555
O90 Si34 1.655955 1_555
O91 P17 1.520163 1_555
O92 Si35 1.704226 1_555
O93 Si30 1.682544 1_555
O94 Si31 1.581306 1_555
O95 P15 1.584356 1_555
O96 Si32 1.672866 1_555
O97 P16 1.521533 1_555
O98 Si33 1.661953 1_555
O99 Si26 1.584328 1_555
O100 P13 1.522307 1_555
O101 Si27 1.669430 1_555
O102 P14 1.525564 1_555
O103 Si28 1.584097 1_555
O104 Si29 1.664700 1_555
O105 Si24 1.599292 1_555
O106 P12 1.517044 1_555
O107 Si25 1.660188 1_555
O108 Si34 1.644379 1_555
O109 P17 1.585467 1_555
O110 Si35 1.607478 1_555
O111 Si30 1.662974 1_555
O112 Si31 1.667500 1_555
O113 P15 1.532329 1_555
O114 Si32 1.603302 1_555
O115 P16 1.582628 1_555
O116 Si33 1.669588 1_555
O117 Si26 1.666119 1_555
O118 P13 1.585203 1_555
O119 Si27 1.647750 1_555
O120 P14 1.583200 1_555
O121 Si28 1.684534 1_555
O122 Si29 1.671187 1_555
O123 Si24 1.660500 1_555
O124 P12 1.597169 1_555
O125 Si25 1.662009 1_555
O126 Si12 1.676681 1_555
O127 Si13 1.643730 1_555
O128 P6 1.611111 1_555
O129 P7 1.577802 1_555
O130 Si14 1.642093 1_555
O131 Si15 1.685806 1_555
O132 Si16 1.658998 1_555
O133 Si17 1.660377 1_555
O134 P8 1.584610 1_555
O135 Si18 1.674368 1_555
O136 P9 1.524151 1_555
O137 Si19 1.665513 1_555
O138 P10 1.598023 1_555
O139 Si20 1.645145 1_555
O140 Si21 1.608102 1_555
O141 Si22 1.657331 1_555
O142 Si23 1.652325 1_555
O143 P11 1.520252 1_555
O144 Si10 1.606432 1_555
O145 Si11 1.659218 1_555
O146 P5 1.510007 1_555
O147 P3 1.531376 1_555
O148 Si6 1.652469 1_555
O149 Si7 1.602090 1_555
O150 P4 1.526308 1_555
O151 Si8 1.655506 1_655
O152 Si9 1.589402 1_555
O153 Si2 1.600778 1_555
O154 P1 1.585626 1_555
O155 Si3 1.672691 1_555
O156 P2 1.514769 1_555
O157 Si4 1.652135 1_655
O158 Si5 1.653447 1_555
O159 P0 1.524566 1_555
O160 Si0 1.648956 1_555
O161 Si1 1.667979 1_555
O162 Si24 1.649869 1_555
O163 P12 1.534194 1_555
O164 Si25 1.669356 1_555
O165 Si26 1.639340 1_655
O166 P13 1.539277 1_655
O167 Si27 1.654193 1_655
O168 Si29 1.642635 1_545
O169 P14 1.530787 1_555
O170 Si28 1.653375 1_555
O171 P15 1.580377 1_545
O172 Si30 1.607616 1_555
O173 Si31 1.662301 1_555
O174 Si32 1.651429 1_555
O175 P16 1.535797 1_555
O176 Si33 1.655850 1_555
O177 Si34 1.644741 1_655
O178 P17 1.545037 1_655
O179 Si35 1.680437 1_655
O180 Si22 1.669119 1_555
O181 Si23 1.649780 1_555
O182 P11 1.540402 1_555
O183 Si18 1.654227 1_455
O184 P9 1.582971 1_455
O185 Si19 1.604104 1_455
O186 Si20 1.658713 1_555
O187 Si21 1.662984 1_555
O188 P10 1.542226 1_565
O189 Si14 1.650945 1_555
O190 Si15 1.663227 1_555
O191 P7 1.530183 1_565
O192 Si16 1.650332 1_555
O193 Si17 1.655176 1_555
O194 P8 1.542815 1_555
O195 Si12 1.644883 1_455
O196 Si13 1.642975 1_455
O197 P6 1.535480 1_455
O198 Si0 1.635725 1_555
O199 Si1 1.607744 1_555
O200 P0 1.566478 1_565
O201 Si2 1.652499 1_555
O202 P1 1.532157 1_555
O203 Si3 1.658759 1_555
O204 P2 1.596957 1_455
O205 Si4 1.602524 1_555
O206 Si5 1.649946 1_455
O207 P3 1.531493 1_555
O208 Si6 1.602059 1_555
O209 Si7 1.646680 1_555
O210 P4 1.528819 1_455
O211 Si8 1.603820 1_555
O212 Si9 1.648633 1_455
O213 Si11 1.607161 1_555
O214 P5 1.536526 1_555
O215 Si10 1.646965 1_565
