# generated using pymatgen
data_MgTe2Mo3W(Se2S)2
_symmetry_space_group_name_H-M   'P 1'
_cell_length_a   6.67418400
_cell_length_b   6.67340037
_cell_length_c   90.41002005
_cell_angle_alpha   89.99500838
_cell_angle_beta   90.00000000
_cell_angle_gamma   120.00388452
_symmetry_Int_Tables_number   1
_chemical_formula_structural   MgTe2Mo3W(Se2S)2
_chemical_formula_sum   'Mg8 Te16 Mo24 W8 Se32 S16'
_cell_volume   3487.18951717
_cell_formula_units_Z   8
loop_
 _symmetry_equiv_pos_site_id
 _symmetry_equiv_pos_as_xyz
  1  'x, y, z'
loop_
 _atom_site_type_symbol
 _atom_site_label
 _atom_site_symmetry_multiplicity
 _atom_site_fract_x
 _atom_site_fract_y
 _atom_site_fract_z
 _atom_site_occupancy
  Mg  Mg0_0  1  0.00002000  0.00004000  0.18739150  1
  Mg  Mg0_1  1  0.00002000  0.00004000  0.68739150  1
  Mg  Mg0_2  1  0.00002000  0.50004000  0.18739150  1
  Mg  Mg0_3  1  0.00002000  0.50004000  0.68739150  1
  Mg  Mg0_4  1  0.50002000  0.00004000  0.18739150  1
  Mg  Mg0_5  1  0.50002000  0.00004000  0.68739150  1
  Mg  Mg0_6  1  0.50002000  0.50004000  0.18739150  1
  Mg  Mg0_7  1  0.50002000  0.50004000  0.68739150  1
  Te  Te0_0  1  0.16669150  0.33338400  0.34991450  1
  Te  Te0_1  1  0.16669150  0.33338400  0.84991450  1
  Te  Te0_2  1  0.16669150  0.83338400  0.34991450  1
  Te  Te0_3  1  0.16669150  0.83338400  0.84991450  1
  Te  Te0_4  1  0.66669150  0.33338400  0.34991450  1
  Te  Te0_5  1  0.66669150  0.33338400  0.84991450  1
  Te  Te0_6  1  0.66669150  0.83338400  0.34991450  1
  Te  Te0_7  1  0.66669150  0.83338400  0.84991450  1
  Te  Te1_0  1  0.16669150  0.33338400  0.30789850  1
  Te  Te1_1  1  0.16669150  0.33338400  0.80789850  1
  Te  Te1_2  1  0.16669150  0.83338400  0.30789850  1
  Te  Te1_3  1  0.16669150  0.83338400  0.80789850  1
  Te  Te1_4  1  0.66669150  0.33338400  0.30789850  1
  Te  Te1_5  1  0.66669150  0.33338400  0.80789850  1
  Te  Te1_6  1  0.66669150  0.83338400  0.30789850  1
  Te  Te1_7  1  0.66669150  0.83338400  0.80789850  1
  Mo  Mo0_0  1  0.16665850  0.33331700  0.04680700  1
  Mo  Mo0_1  1  0.16665850  0.33331700  0.54680700  1
  Mo  Mo0_2  1  0.16665850  0.83331700  0.04680700  1
  Mo  Mo0_3  1  0.16665850  0.83331700  0.54680700  1
  Mo  Mo0_4  1  0.66665850  0.33331700  0.04680700  1
  Mo  Mo0_5  1  0.66665850  0.33331700  0.54680700  1
  Mo  Mo0_6  1  0.66665850  0.83331700  0.04680700  1
  Mo  Mo0_7  1  0.66665850  0.83331700  0.54680700  1
  Mo  Mo1_0  1  0.33332700  0.16665350  0.13787450  1
  Mo  Mo1_1  1  0.33332700  0.16665350  0.63787450  1
  Mo  Mo1_2  1  0.33332700  0.66665350  0.13787450  1
  Mo  Mo1_3  1  0.33332700  0.66665350  0.63787450  1
  Mo  Mo1_4  1  0.83332700  0.16665350  0.13787450  1
  Mo  Mo1_5  1  0.83332700  0.16665350  0.63787450  1
  Mo  Mo1_6  1  0.83332700  0.66665350  0.13787450  1
  Mo  Mo1_7  1  0.83332700  0.66665350  0.63787450  1
  Mo  Mo2_0  1  0.33336300  0.16672600  0.32890550  1
  Mo  Mo2_1  1  0.33336300  0.16672600  0.82890550  1
  Mo  Mo2_2  1  0.33336300  0.66672600  0.32890550  1
  Mo  Mo2_3  1  0.33336300  0.66672600  0.82890550  1
  Mo  Mo2_4  1  0.83336300  0.16672600  0.32890550  1
  Mo  Mo2_5  1  0.83336300  0.16672600  0.82890550  1
  Mo  Mo2_6  1  0.83336300  0.66672600  0.32890550  1
  Mo  Mo2_7  1  0.83336300  0.66672600  0.82890550  1
  W  W0_0  1  0.16664400  0.33328750  0.23869650  1
  W  W0_1  1  0.16664400  0.33328750  0.73869650  1
  W  W0_2  1  0.16664400  0.83328750  0.23869650  1
  W  W0_3  1  0.16664400  0.83328750  0.73869650  1
  W  W0_4  1  0.66664400  0.33328750  0.23869650  1
  W  W0_5  1  0.66664400  0.33328750  0.73869650  1
  W  W0_6  1  0.66664400  0.83328750  0.23869650  1
  W  W0_7  1  0.66664400  0.83328750  0.73869650  1
  Se  Se0_0  1  0.16664100  0.33328250  0.15660500  1
  Se  Se0_1  1  0.16664100  0.33328250  0.65660500  1
  Se  Se0_2  1  0.16664100  0.83328250  0.15660500  1
  Se  Se0_3  1  0.16664100  0.83328250  0.65660500  1
  Se  Se0_4  1  0.66664100  0.33328250  0.15660500  1
  Se  Se0_5  1  0.66664100  0.33328250  0.65660500  1
  Se  Se0_6  1  0.66664100  0.83328250  0.15660500  1
  Se  Se0_7  1  0.66664100  0.83328250  0.65660500  1
  Se  Se1_0  1  0.33335350  0.16670700  0.02834950  1
  Se  Se1_1  1  0.33335350  0.16670700  0.52834950  1
  Se  Se1_2  1  0.33335350  0.66670700  0.02834950  1
  Se  Se1_3  1  0.33335350  0.66670700  0.52834950  1
  Se  Se1_4  1  0.83335350  0.16670700  0.02834950  1
  Se  Se1_5  1  0.83335350  0.16670700  0.52834950  1
  Se  Se1_6  1  0.83335350  0.66670700  0.02834950  1
  Se  Se1_7  1  0.83335350  0.66670700  0.52834950  1
  Se  Se2_0  1  0.33329550  0.16659100  0.06526750  1
  Se  Se2_1  1  0.33329550  0.16659100  0.56526750  1
  Se  Se2_2  1  0.33329550  0.66659100  0.06526750  1
  Se  Se2_3  1  0.33329550  0.66659100  0.56526750  1
  Se  Se2_4  1  0.83329550  0.16659100  0.06526750  1
  Se  Se2_5  1  0.83329550  0.16659100  0.56526750  1
  Se  Se2_6  1  0.83329550  0.66659100  0.06526750  1
  Se  Se2_7  1  0.83329550  0.66659100  0.56526750  1
  Se  Se3_0  1  0.16665900  0.33331800  0.11947450  1
  Se  Se3_1  1  0.16665900  0.33331800  0.61947450  1
  Se  Se3_2  1  0.16665900  0.83331800  0.11947450  1
  Se  Se3_3  1  0.16665900  0.83331800  0.61947450  1
  Se  Se3_4  1  0.66665900  0.33331800  0.11947450  1
  Se  Se3_5  1  0.66665900  0.33331800  0.61947450  1
  Se  Se3_6  1  0.66665900  0.83331800  0.11947450  1
  Se  Se3_7  1  0.66665900  0.83331800  0.61947450  1
  S  S0_0  1  0.33333650  0.16667250  0.22178500  1
  S  S0_1  1  0.33333650  0.16667250  0.72178500  1
  S  S0_2  1  0.33333650  0.66667250  0.22178500  1
  S  S0_3  1  0.33333650  0.66667250  0.72178500  1
  S  S0_4  1  0.83333650  0.16667250  0.22178500  1
  S  S0_5  1  0.83333650  0.16667250  0.72178500  1
  S  S0_6  1  0.83333650  0.66667250  0.22178500  1
  S  S0_7  1  0.83333650  0.66667250  0.72178500  1
  S  S1_0  1  0.33331850  0.16663700  0.25550850  1
  S  S1_1  1  0.33331850  0.16663700  0.75550850  1
  S  S1_2  1  0.33331850  0.66663700  0.25550850  1
  S  S1_3  1  0.33331850  0.66663700  0.75550850  1
  S  S1_4  1  0.83331850  0.16663700  0.25550850  1
  S  S1_5  1  0.83331850  0.16663700  0.75550850  1
  S  S1_6  1  0.83331850  0.66663700  0.25550850  1
  S  S1_7  1  0.83331850  0.66663700  0.75550850  1
loop_
_geom_bond_atom_site_label_1
_geom_bond_atom_site_label_2
_geom_bond_distance
_geom_bond_site_symmetry_2
Mg0_0 Mg0_6 3.336700 1_555
Mg0_0 Mg0_2 3.336700 1_545
Mg0_0 Mg0_2 3.336700 1_555
Mg0_0 Mg0_6 3.336700 1_445
Mg0_0 Mg0_4 3.337092 1_555
Mg0_0 Mg0_4 3.337092 1_455
Mg0_0 Se0_0 3.384547 1_555
Mg0_0 Se0_2 3.385362 1_545
Mg0_0 Se0_6 3.385364 1_445
Mg0_1 Mg0_7 3.336700 1_445
Mg0_1 Mg0_3 3.336700 1_545
Mg0_1 Mg0_3 3.336700 1_555
Mg0_1 Mg0_7 3.336700 1_555
Mg0_1 Mg0_5 3.337092 1_455
Mg0_1 Mg0_5 3.337092 1_555
Mg0_1 Se0_1 3.384547 1_555
Mg0_1 Se0_3 3.385362 1_545
Mg0_1 Se0_7 3.385364 1_445
Mg0_2 Mg0_4 3.336700 1_455
Mg0_2 Mg0_4 3.336700 1_565
Mg0_2 Mg0_6 3.337092 1_555
Mg0_2 Mg0_6 3.337092 1_455
Mg0_2 Se0_2 3.384547 1_555
Mg0_2 Se0_0 3.385362 1_555
Mg0_2 Se0_4 3.385364 1_455
Mg0_3 Mg0_5 3.336700 1_565
Mg0_3 Mg0_5 3.336700 1_455
Mg0_3 Mg0_7 3.337092 1_455
Mg0_3 Mg0_7 3.337092 1_555
Mg0_3 Se0_3 3.384547 1_555
Mg0_3 Se0_1 3.385362 1_555
Mg0_3 Se0_5 3.385364 1_455
Mg0_4 Mg0_6 3.336700 1_545
Mg0_4 Mg0_6 3.336700 1_555
Mg0_4 Se0_4 3.384547 1_555
Mg0_4 Se0_6 3.385362 1_545
Mg0_4 Se0_2 3.385364 1_545
Mg0_5 Mg0_7 3.336700 1_545
Mg0_5 Mg0_7 3.336700 1_555
Mg0_5 Se0_5 3.384547 1_555
Mg0_5 Se0_7 3.385362 1_545
Mg0_5 Se0_3 3.385364 1_545
Mg0_6 Se0_6 3.384547 1_555
Mg0_6 Se0_4 3.385362 1_555
Mg0_6 Se0_0 3.385364 1_555
Mg0_7 Se0_7 3.384547 1_555
Mg0_7 Se0_5 3.385362 1_555
Mg0_7 Se0_1 3.385364 1_555
Mo0_0 Se2_2 2.548692 1_555
Mo0_0 Se1_0 2.548758 1_555
Mo0_0 Se1_4 2.548758 1_455
Mo0_0 Se1_2 2.548768 1_555
Mo0_0 Se2_4 2.549062 1_455
Mo0_0 Se2_0 2.549062 1_555
Mo0_1 Se2_3 2.548692 1_555
Mo0_1 Se1_1 2.548758 1_555
Mo0_1 Se1_5 2.548758 1_455
Mo0_1 Se1_3 2.548768 1_555
Mo0_1 Se2_5 2.549062 1_455
Mo0_1 Se2_1 2.549062 1_555
Mo0_2 Se2_0 2.548692 1_565
Mo0_2 Se1_6 2.548758 1_455
Mo0_2 Se1_2 2.548758 1_555
Mo0_2 Se1_0 2.548768 1_565
Mo0_2 Se2_6 2.549062 1_455
Mo0_2 Se2_2 2.549062 1_555
Mo0_3 Se2_1 2.548692 1_565
Mo0_3 Se1_7 2.548758 1_455
Mo0_3 Se1_3 2.548758 1_555
Mo0_3 Se1_1 2.548768 1_565
Mo0_3 Se2_3 2.549062 1_555
Mo0_3 Se2_7 2.549062 1_455
Mo0_4 Se2_6 2.548692 1_555
Mo0_4 Se1_0 2.548758 1_555
Mo0_4 Se1_4 2.548758 1_555
Mo0_4 Se1_6 2.548768 1_555
Mo0_4 Se2_0 2.549062 1_555
Mo0_4 Se2_4 2.549062 1_555
Mo0_5 Se2_7 2.548692 1_555
Mo0_5 Se1_5 2.548758 1_555
Mo0_5 Se1_1 2.548758 1_555
Mo0_5 Se1_7 2.548768 1_555
Mo0_5 Se2_5 2.549062 1_555
Mo0_5 Se2_1 2.549062 1_555
Mo0_6 Se2_4 2.548692 1_565
Mo0_6 Se1_2 2.548758 1_555
Mo0_6 Se1_6 2.548758 1_555
Mo0_6 Se1_4 2.548768 1_565
Mo0_6 Se2_2 2.549062 1_555
Mo0_6 Se2_6 2.549062 1_555
Mo0_7 Se2_5 2.548692 1_565
Mo0_7 Se1_7 2.548758 1_555
Mo0_7 Se1_3 2.548758 1_555
Mo0_7 Se1_5 2.548768 1_565
Mo0_7 Se2_7 2.549062 1_555
Mo0_7 Se2_3 2.549062 1_555
Mo1_0 Se3_4 2.545348 1_555
Mo1_0 Se3_0 2.545351 1_555
Mo1_0 Se3_2 2.545382 1_545
Mo1_0 Se0_2 2.564911 1_545
Mo1_0 Se0_4 2.565026 1_555
Mo1_0 Se0_0 2.565030 1_555
Mo1_1 Se3_5 2.545348 1_555
Mo1_1 Se3_1 2.545351 1_555
Mo1_1 Se3_3 2.545382 1_545
Mo1_1 Se0_3 2.564911 1_545
Mo1_1 Se0_5 2.565026 1_555
Mo1_1 Se0_1 2.565030 1_555
Mo1_2 Se3_6 2.545348 1_555
Mo1_2 Se3_2 2.545351 1_555
Mo1_2 Se3_0 2.545382 1_555
Mo1_2 Se0_0 2.564911 1_555
Mo1_2 Se0_6 2.565026 1_555
Mo1_2 Se0_2 2.565030 1_555
Mo1_3 Se3_7 2.545348 1_555
Mo1_3 Se3_3 2.545351 1_555
Mo1_3 Se3_1 2.545382 1_555
Mo1_3 Se0_1 2.564911 1_555
Mo1_3 Se0_7 2.565026 1_555
Mo1_3 Se0_3 2.565030 1_555
Mo1_4 Se3_0 2.545348 1_655
Mo1_4 Se3_4 2.545351 1_555
Mo1_4 Se3_6 2.545382 1_545
Mo1_4 Se0_6 2.564911 1_545
Mo1_4 Se0_0 2.565026 1_655
Mo1_4 Se0_4 2.565030 1_555
Mo1_5 Se3_1 2.545348 1_655
Mo1_5 Se3_5 2.545351 1_555
Mo1_5 Se3_7 2.545382 1_545
Mo1_5 Se0_7 2.564911 1_545
Mo1_5 Se0_1 2.565026 1_655
Mo1_5 Se0_5 2.565030 1_555
Mo1_6 Se3_2 2.545348 1_655
Mo1_6 Se3_6 2.545351 1_555
Mo1_6 Se3_4 2.545382 1_555
Mo1_6 Se0_4 2.564911 1_555
Mo1_6 Se0_2 2.565026 1_655
Mo1_6 Se0_6 2.565030 1_555
Mo1_7 Se3_3 2.545348 1_655
Mo1_7 Se3_7 2.545351 1_555
Mo1_7 Se3_5 2.545382 1_555
Mo1_7 Se0_5 2.564911 1_555
Mo1_7 Se0_3 2.565026 1_655
Mo1_7 Se0_7 2.565030 1_555
Mo2_0 Te0_2 2.705211 1_545
Mo2_0 Te1_4 2.705258 1_555
Mo2_0 Te1_0 2.705262 1_555
Mo2_0 Te1_2 2.705356 1_545
Mo2_0 Te0_4 2.705521 1_555
Mo2_0 Te0_0 2.705525 1_555
Mo2_1 Te0_3 2.705211 1_545
Mo2_1 Te1_5 2.705258 1_555
Mo2_1 Te1_1 2.705262 1_555
Mo2_1 Te1_3 2.705356 1_545
Mo2_1 Te0_5 2.705521 1_555
Mo2_1 Te0_1 2.705525 1_555
Mo2_2 Te0_0 2.705211 1_555
Mo2_2 Te1_6 2.705258 1_555
Mo2_2 Te1_2 2.705262 1_555
Mo2_2 Te1_0 2.705356 1_555
Mo2_2 Te0_6 2.705521 1_555
Mo2_2 Te0_2 2.705525 1_555
Mo2_3 Te0_1 2.705211 1_555
Mo2_3 Te1_7 2.705258 1_555
Mo2_3 Te1_3 2.705262 1_555
Mo2_3 Te1_1 2.705356 1_555
Mo2_3 Te0_7 2.705521 1_555
Mo2_3 Te0_3 2.705525 1_555
Mo2_4 Te0_6 2.705211 1_545
Mo2_4 Te1_0 2.705258 1_655
Mo2_4 Te1_4 2.705262 1_555
Mo2_4 Te1_6 2.705356 1_545
Mo2_4 Te0_0 2.705521 1_655
Mo2_4 Te0_4 2.705525 1_555
Mo2_5 Te0_7 2.705211 1_545
Mo2_5 Te1_1 2.705258 1_655
Mo2_5 Te1_5 2.705262 1_555
Mo2_5 Te1_7 2.705356 1_545
Mo2_5 Te0_1 2.705521 1_655
Mo2_5 Te0_5 2.705525 1_555
Mo2_6 Te0_4 2.705211 1_555
Mo2_6 Te1_2 2.705258 1_655
Mo2_6 Te1_6 2.705262 1_555
Mo2_6 Te1_4 2.705356 1_555
Mo2_6 Te0_2 2.705521 1_655
Mo2_6 Te0_6 2.705525 1_555
Mo2_7 Te0_5 2.705211 1_555
Mo2_7 Te1_3 2.705258 1_655
Mo2_7 Te1_7 2.705262 1_555
Mo2_7 Te1_5 2.705356 1_555
Mo2_7 Te0_3 2.705521 1_655
Mo2_7 Te0_7 2.705525 1_555
S0_0 W0_2 2.459513 1_545
S0_0 W0_0 2.459520 1_555
S0_0 W0_4 2.459520 1_555
S0_1 W0_3 2.459513 1_545
S0_1 W0_1 2.459520 1_555
S0_1 W0_5 2.459520 1_555
S0_2 W0_0 2.459513 1_555
S0_2 W0_6 2.459520 1_555
S0_2 W0_2 2.459520 1_555
S0_3 W0_1 2.459513 1_555
S0_3 W0_3 2.459520 1_555
S0_3 W0_7 2.459520 1_555
S0_4 W0_6 2.459513 1_545
S0_4 W0_4 2.459520 1_555
S0_4 W0_0 2.459520 1_655
S0_5 W0_7 2.459513 1_545
S0_5 W0_5 2.459520 1_555
S0_5 W0_1 2.459520 1_655
S0_6 W0_4 2.459513 1_555
S0_6 W0_2 2.459520 1_655
S0_6 W0_6 2.459520 1_555
S0_7 W0_5 2.459513 1_555
S0_7 W0_7 2.459520 1_555
S0_7 W0_3 2.459520 1_655
S1_0 W0_0 2.453897 1_555
S1_0 W0_4 2.453899 1_555
S1_0 W0_2 2.454010 1_545
S1_1 W0_1 2.453897 1_555
S1_1 W0_5 2.453899 1_555
S1_1 W0_3 2.454010 1_545
S1_2 W0_2 2.453897 1_555
S1_2 W0_6 2.453899 1_555
S1_2 W0_0 2.454010 1_555
S1_3 W0_3 2.453897 1_555
S1_3 W0_7 2.453899 1_555
S1_3 W0_1 2.454010 1_555
S1_4 W0_4 2.453897 1_555
S1_4 W0_0 2.453899 1_655
S1_4 W0_6 2.454010 1_545
S1_5 W0_5 2.453897 1_555
S1_5 W0_1 2.453899 1_655
S1_5 W0_7 2.454010 1_545
S1_6 W0_6 2.453897 1_555
S1_6 W0_2 2.453899 1_655
S1_6 W0_4 2.454010 1_555
S1_7 W0_7 2.453897 1_555
S1_7 W0_3 2.453899 1_655
S1_7 W0_5 2.454010 1_555
