# generated using pymatgen
data_Na2CaTi3Si2(SO6)4
_symmetry_space_group_name_H-M   'P 1'
_cell_length_a   8.83498650
_cell_length_b   8.82438521
_cell_length_c   22.58564752
_cell_angle_alpha   89.31595726
_cell_angle_beta   90.20533996
_cell_angle_gamma   120.01574759
_symmetry_Int_Tables_number   1
_chemical_formula_structural   Na2CaTi3Si2(SO6)4
_chemical_formula_sum   'Na6 Ca3 Ti9 Si6 S12 O72'
_cell_volume   1524.58620144
_cell_formula_units_Z   3
loop_
 _symmetry_equiv_pos_site_id
 _symmetry_equiv_pos_as_xyz
  1  'x, y, z'
loop_
 _atom_site_type_symbol
 _atom_site_label
 _atom_site_symmetry_multiplicity
 _atom_site_fract_x
 _atom_site_fract_y
 _atom_site_fract_z
 _atom_site_occupancy
  Na  Na0  1  0.99550107  0.99040535  0.50321288  1
  Na  Na1  1  0.02608990  0.01685766  0.99554447  1
  Na  Na2  1  0.67272568  0.32331133  0.83382578  1
  Na  Na3  1  0.65791795  0.30161267  0.33554856  1
  Na  Na4  1  0.33725594  0.66618430  0.16433446  1
  Na  Na5  1  0.36530461  0.68613209  0.67478619  1
  Ca  Ca0  1  0.98690643  0.99361513  0.64630612  1
  Ca  Ca1  1  0.00699086  0.00859944  0.13718565  1
  Ca  Ca2  1  0.34102294  0.67786836  0.31851745  1
  Ti  Ti0  1  0.98464396  0.99630459  0.35449329  1
  Ti  Ti1  1  0.99792669  0.02083335  0.85529774  1
  Ti  Ti2  1  0.66883197  0.33761739  0.69113152  1
  Ti  Ti3  1  0.65078619  0.33528558  0.18204701  1
  Ti  Ti4  1  0.65041711  0.32393495  0.97168622  1
  Ti  Ti5  1  0.67032087  0.33761218  0.48253173  1
  Ti  Ti6  1  0.31303370  0.64872205  0.01771375  1
  Ti  Ti7  1  0.36025866  0.67642670  0.52212955  1
  Ti  Ti8  1  0.33020718  0.68436114  0.81920074  1
  Si  Si0  1  0.69857939  0.99342707  0.74869956  1
  Si  Si1  1  0.66393246  0.61532441  0.58321136  1
  Si  Si2  1  0.38572547  0.35387831  0.07539623  1
  Si  Si3  1  0.03817765  0.37910245  0.91701118  1
  Si  Si4  1  0.31423752  0.94936613  0.91964389  1
  Si  Si5  1  0.63219750  0.97457394  0.41656413  1
  S  S0  1  0.30301441  0.01633529  0.24881487  1
  S  S1  1  0.71729538  0.69706988  0.24948391  1
  S  S2  1  0.98534469  0.28620584  0.25074207  1
  S  S3  1  0.29971568  0.30070707  0.75242782  1
  S  S4  1  0.00010385  0.69843815  0.75147683  1
  S  S5  1  0.96517823  0.35737755  0.58245124  1
  S  S6  1  0.39143446  0.03963806  0.58244193  1
  S  S7  1  0.95353299  0.60241244  0.08014530  1
  S  S8  1  0.64470976  0.04592605  0.08123530  1
  S  S9  1  0.62199478  0.67207900  0.91642927  1
  S  S10  1  0.32824869  0.35796355  0.41968441  1
  S  S11  1  0.03352115  0.67252430  0.41809216  1
  O  O0  1  0.21535359  0.02772231  0.30365811  1
  O  O1  1  0.82269479  0.79412809  0.30409716  1
  O  O2  1  0.98189108  0.17430717  0.30489967  1
  O  O3  1  0.20996107  0.18544083  0.80531972  1
  O  O4  1  0.97529041  0.78356161  0.80283007  1
  O  O5  1  0.83821633  0.02542021  0.80446002  1
  O  O6  1  0.75158255  0.94373918  0.68855147  1
  O  O7  1  0.20252308  0.22930847  0.69798937  1
  O  O8  1  0.03295658  0.79337192  0.69561767  1
  O  O9  1  0.79840728  0.79801887  0.19618437  1
  O  O10  1  0.99937625  0.20579247  0.19696296  1
  O  O11  1  0.21015148  0.01253352  0.19515754  1
  O  O12  1  0.87225840  0.35807070  0.63717945  1
  O  O13  1  0.49068116  0.12180873  0.63713956  1
  O  O14  1  0.64519628  0.49704612  0.64330384  1
  O  O15  1  0.86484895  0.50530935  0.13705531  1
  O  O16  1  0.64796291  0.14861992  0.13584467  1
  O  O17  1  0.49868629  0.35841379  0.13872612  1
  O  O18  1  0.51059341  0.35524480  0.02223532  1
  O  O19  1  0.86156590  0.50503602  0.02766744  1
  O  O20  1  0.65823233  0.14548657  0.02655673  1
  O  O21  1  0.49142195  0.13166468  0.52829248  1
  O  O22  1  0.64651655  0.48884017  0.52781100  1
  O  O23  1  0.85953002  0.34586725  0.52919288  1
  O  O24  1  0.53812435  0.68927963  0.97082761  1
  O  O25  1  0.16017801  0.46069882  0.97738028  1
  O  O26  1  0.29822105  0.82573571  0.97691410  1
  O  O27  1  0.52794877  0.82924234  0.47248393  1
  O  O28  1  0.30454692  0.44945498  0.47094395  1
  O  O29  1  0.14762907  0.69503485  0.46891736  1
  O  O30  1  0.08962231  0.63147824  0.36306086  1
  O  O31  1  0.52621138  0.92089705  0.35724912  1
  O  O32  1  0.36396883  0.45722676  0.36467307  1
  O  O33  1  0.14743604  0.50247917  0.86214343  1
  O  O34  1  0.35407183  0.86381864  0.86223483  1
  O  O35  1  0.51392181  0.64650166  0.86360880  1
  O  O36  1  0.02818706  0.84040209  0.41083827  1
  O  O37  1  0.82265013  0.97515769  0.40638846  1
  O  O38  1  0.16401611  0.18330396  0.41503177  1
  O  O39  1  0.01689594  0.18379546  0.90865349  1
  O  O40  1  0.14259934  0.96611660  0.90757566  1
  O  O41  1  0.79632080  0.83163021  0.91127242  1
  O  O42  1  0.99437077  0.20840398  0.58101620  1
  O  O43  1  0.22157785  0.02958314  0.58106885  1
  O  O44  1  0.83121343  0.80204882  0.57607461  1
  O  O45  1  0.96888231  0.77505525  0.07962866  1
  O  O46  1  0.79569314  0.02071247  0.08284349  1
  O  O47  1  0.19995585  0.18284764  0.07208726  1
  O  O48  1  0.68589456  0.17576487  0.74110339  1
  O  O49  1  0.47452133  0.30693685  0.74898720  1
  O  O50  1  0.83665389  0.51842064  0.74693414  1
  O  O51  1  0.71960714  0.52680419  0.24856453  1
  O  O52  1  0.81714223  0.28588467  0.25259245  1
  O  O53  1  0.48296821  0.18405649  0.24671935  1
  O  O54  1  0.64964491  0.51824693  0.91931052  1
  O  O55  1  0.84573348  0.35800214  0.92362519  1
  O  O56  1  0.48750188  0.14782300  0.92553489  1
  O  O57  1  0.68709176  0.17397471  0.43324393  1
  O  O58  1  0.47465605  0.32058973  0.42905668  1
  O  O59  1  0.84792434  0.53180862  0.42908372  1
  O  O60  1  0.38610393  0.53981882  0.07638624  1
  O  O61  1  0.13131759  0.61836842  0.08279200  1
  O  O62  1  0.47837103  0.87996086  0.08405040  1
  O  O63  1  0.36758136  0.85764384  0.58008635  1
  O  O64  1  0.47745292  0.62403578  0.57578368  1
  O  O65  1  0.13324614  0.52521264  0.57827897  1
  O  O66  1  0.33005221  0.86548195  0.24958229  1
  O  O67  1  0.53673776  0.65953673  0.25472472  1
  O  O68  1  0.13495574  0.46232168  0.25672197  1
  O  O69  1  0.33090200  0.47904913  0.76136598  1
  O  O70  1  0.14839207  0.66340446  0.75977876  1
  O  O71  1  0.50231996  0.83316116  0.76659860  1
loop_
_geom_bond_atom_site_label_1
_geom_bond_atom_site_label_2
_geom_bond_distance
_geom_bond_site_symmetry_2
Na0 O44 2.261787 1_555
Na0 O38 2.546667 1_665
Na0 O43 2.549434 1_665
Na0 O36 2.577024 1_655
Na0 O42 2.624630 1_565
Na0 O37 2.628695 1_555
Na1 O47 2.298719 1_556
Na1 O40 2.388430 1_545
Na1 O39 2.465279 1_555
Na1 O41 2.672490 1_445
Na1 O45 2.691857 1_446
Na1 O46 2.851648 1_456
Na2 O55 2.463343 1_555
Na2 O48 2.512532 1_555
Na2 O50 2.521559 1_555
Na2 O49 2.547219 1_555
Na2 O56 2.603597 1_555
Na2 O54 2.676080 1_555
Na3 O52 2.393548 1_555
Na3 O53 2.431793 1_555
Na3 O57 2.535898 1_555
Na3 O51 2.633709 1_555
Na3 O58 2.722884 1_555
Na3 O59 2.841243 1_555
Na3 O31 2.989088 1_545
Na4 O60 2.432254 1_555
Na4 O62 2.445913 1_555
Na4 O61 2.471186 1_555
Na4 O66 2.645335 1_555
Na4 O67 2.711487 1_555
Na4 O68 2.739537 1_555
Na5 O71 2.433852 1_555
Na5 O69 2.572698 1_555
Na5 O63 2.599675 1_555
Na5 O64 2.621105 1_555
Na5 O70 2.651497 1_555
Na5 O65 2.846053 1_555
Na5 O6 3.026342 1_555
Ca0 O6 2.124942 1_555
Ca0 O44 2.233350 1_555
Ca0 O8 2.279764 1_655
Ca0 O7 2.322793 1_665
Ca0 O42 2.362247 1_565
Ca0 O43 2.433666 1_665
Ca1 O47 2.184919 1_555
Ca1 O11 2.204359 1_555
Ca1 O10 2.242579 1_455
Ca1 O9 2.270934 1_445
Ca1 O46 2.276597 1_455
Ca1 O45 2.327472 1_445
Ca2 O31 2.136690 1_555
Ca2 O30 2.282451 1_555
Ca2 O32 2.294264 1_555
Ca2 O66 2.296153 1_555
Ca2 O67 2.322770 1_555
Ca2 O68 2.336882 1_555
O0 S0 1.493965 1_555
O0 Ti0 2.234644 1_445
O1 S1 1.530102 1_555
O1 Ti0 2.002164 1_555
O2 S2 1.553521 1_555
O2 Ti0 1.928351 1_545
O3 S3 1.503760 1_555
O3 Ti1 2.036423 1_455
O4 S4 1.464557 1_655
O4 Ti1 2.338113 1_565
O5 Si0 1.684233 1_545
O5 Ti1 1.831791 1_555
O6 Si0 1.575190 1_555
O7 S3 1.454548 1_555
O8 S4 1.453215 1_555
O9 S1 1.448495 1_555
O10 S2 1.450485 1_555
O11 S0 1.452317 1_555
O12 S5 1.488066 1_555
O12 Ti2 2.105589 1_555
O13 S6 1.482672 1_555
O13 Ti2 2.152649 1_555
O14 Si1 1.659451 1_555
O14 Ti2 1.856274 1_555
O15 S7 1.519699 1_555
O15 Ti3 1.999736 1_555
O16 S8 1.530903 1_555
O16 Ti3 1.950021 1_555
O17 Si2 1.730516 1_555
O17 Ti3 1.750708 1_555
O18 Si2 1.629315 1_555
O18 Ti4 1.806920 1_554
O19 S7 1.456802 1_555
O19 Ti4 2.163635 1_554
O20 S8 1.476951 1_555
O20 Ti4 2.020356 1_554
O21 S6 1.483875 1_555
O21 Ti5 1.990534 1_555
O22 Si1 1.641717 1_555
O22 Ti5 1.784898 1_555
O23 S5 1.492809 1_555
O23 Ti5 1.943650 1_555
O24 S9 1.484967 1_555
O24 Ti6 2.120910 1_556
O25 Si3 1.666060 1_555
O25 Ti6 1.786631 1_556
O26 Si4 1.642100 1_555
O26 Ti6 1.864272 1_556
O27 Si5 1.695893 1_555
O27 Ti7 1.802132 1_555
O28 S10 1.493055 1_555
O28 Ti7 2.157589 1_555
O29 S11 1.473202 1_555
O29 Ti7 2.299598 1_555
O30 S11 1.454816 1_555
O31 Si5 1.567898 1_555
O32 S10 1.452874 1_555
O33 Si3 1.605525 1_555
O33 Ti8 1.872250 1_555
O34 Si4 1.633221 1_555
O34 Ti8 1.788344 1_555
O35 S9 1.472581 1_555
O35 Ti8 2.067595 1_555
O36 S11 1.512501 1_555
O36 Ti0 2.035765 1_455
O37 Si5 1.696531 1_555
O37 Ti0 1.787898 1_555
O38 S10 1.502419 1_555
O38 Ti0 2.127432 1_445
O39 Si3 1.650642 1_555
O39 Ti1 1.829498 1_455
O40 Si4 1.617406 1_555
O40 Ti1 1.963168 1_465
O41 S9 1.481841 1_555
O41 Ti1 2.132817 1_565
O42 S5 1.461520 1_555
O43 S6 1.458559 1_555
O44 Si1 1.576147 1_555
O45 S7 1.460263 1_555
O46 S8 1.458288 1_555
O47 Si2 1.581369 1_555
O48 Si0 1.674699 1_545
O48 Ti2 1.874077 1_555
O49 S3 1.519890 1_555
O49 Ti2 2.066538 1_555
O50 S4 1.525489 1_655
O50 Ti2 2.000071 1_555
O51 S1 1.513200 1_555
O51 Ti3 2.123426 1_555
O52 S2 1.485388 1_555
O52 Ti3 2.344464 1_555
O53 S0 1.537904 1_555
O53 Ti3 2.025381 1_555
O54 S9 1.495391 1_555
O54 Ti4 2.074306 1_555
O55 Si3 1.622415 1_655
O55 Ti4 1.932109 1_555
O56 Si4 1.658296 1_545
O56 Ti4 1.833958 1_555
O57 Si5 1.622966 1_545
O57 Ti5 1.897346 1_555
O58 S10 1.499970 1_555
O58 Ti5 2.049202 1_555
O59 S11 1.500251 1_655
O59 Ti5 2.032235 1_555
O60 Si2 1.639560 1_555
O60 Ti6 1.918460 1_555
O61 S7 1.506266 1_455
O61 Ti6 2.094503 1_555
O62 S8 1.467576 1_565
O62 Ti6 2.370136 1_555
O63 S6 1.513204 1_565
O63 Ti7 2.054441 1_555
O64 Si1 1.694956 1_555
O64 Ti7 1.791884 1_555
O65 S5 1.484818 1_455
O65 Ti7 2.170648 1_555
O66 S0 1.465260 1_565
O67 S1 1.462965 1_555
O68 S2 1.459180 1_455
O69 S3 1.471988 1_555
O69 Ti8 2.248650 1_555
O70 S4 1.499744 1_555
O70 Ti8 2.027060 1_555
O71 Si0 1.645624 1_555
O71 Ti8 1.850937 1_555
