# generated using pymatgen
data_MgTi2(CoO3)2
_symmetry_space_group_name_H-M   'P 1'
_cell_length_a   5.83166861
_cell_length_b   5.83166819
_cell_length_c   5.83166863
_cell_angle_alpha   52.95120664
_cell_angle_beta   52.95120686
_cell_angle_gamma   52.95120681
_symmetry_Int_Tables_number   1
_chemical_formula_structural   MgTi2(CoO3)2
_chemical_formula_sum   'Mg1 Ti2 Co2 O6'
_cell_volume   117.06429540
_cell_formula_units_Z   1
loop_
 _symmetry_equiv_pos_site_id
 _symmetry_equiv_pos_as_xyz
  1  'x, y, z'
loop_
 _atom_site_type_symbol
 _atom_site_label
 _atom_site_symmetry_multiplicity
 _atom_site_fract_x
 _atom_site_fract_y
 _atom_site_fract_z
 _atom_site_occupancy
  Mg  Mg0  1  0.50000000  0.50000000  0.50000000  1
  Ti  Ti0  1  0.84904500  0.84904500  0.84904500  1
  Ti  Ti1  1  0.15095500  0.15095500  0.15095500  1
  Co  Co0  1  0.67756300  0.67756300  0.67756300  1
  Co  Co1  1  0.32243700  0.32243700  0.32243700  1
  O  O0  1  0.56740800  0.91261000  0.23595500  1
  O  O1  1  0.23595500  0.56740800  0.91261000  1
  O  O2  1  0.91261000  0.23595500  0.56740800  1
  O  O3  1  0.43259200  0.08739000  0.76404500  1
  O  O4  1  0.76404500  0.43259200  0.08739000  1
  O  O5  1  0.08739000  0.76404500  0.43259200  1
loop_
_geom_bond_atom_site_label_1
_geom_bond_atom_site_label_2
_geom_bond_distance
_geom_bond_site_symmetry_2
Mg0 O3 2.064256 1_555
Mg0 O0 2.064256 1_555
Mg0 O4 2.064256 1_555
Mg0 O1 2.064256 1_555
Mg0 O2 2.064256 1_555
Mg0 O5 2.064256 1_555
Co0 O3 2.115955 1_565
Co0 O5 2.115955 1_655
Co0 O4 2.115955 1_556
Co0 O2 2.366972 1_555
Co0 O1 2.366972 1_555
Co0 O0 2.366972 1_555
Co1 O0 2.115955 1_545
Co1 O2 2.115955 1_455
Co1 O1 2.115955 1_554
Co1 O5 2.366972 1_555
Co1 O4 2.366972 1_555
Co1 O3 2.366972 1_555
O0 Ti0 1.932537 1_554
O0 Ti1 2.151422 1_565
O1 Ti0 1.932537 1_455
O1 Ti1 2.151422 1_556
O2 Ti0 1.932537 1_545
O2 Ti1 2.151422 1_655
O3 Ti1 1.932537 1_556
O3 Ti0 2.151422 1_545
O4 Ti1 1.932537 1_655
O4 Ti0 2.151422 1_554
O5 Ti1 1.932537 1_565
O5 Ti0 2.151422 1_455
