# generated using pymatgen
data_Li3TiF6
_symmetry_space_group_name_H-M   'P 1'
_cell_length_a   8.34527702
_cell_length_b   8.34546298
_cell_length_c   9.98422141
_cell_angle_alpha   83.34884512
_cell_angle_beta   83.34809615
_cell_angle_gamma   63.19497150
_symmetry_Int_Tables_number   1
_chemical_formula_structural   Li3TiF6
_chemical_formula_sum   'Li18 Ti6 F36'
_cell_volume   614.86912939
_cell_formula_units_Z   6
loop_
 _symmetry_equiv_pos_site_id
 _symmetry_equiv_pos_as_xyz
  1  'x, y, z'
loop_
 _atom_site_type_symbol
 _atom_site_label
 _atom_site_symmetry_multiplicity
 _atom_site_fract_x
 _atom_site_fract_y
 _atom_site_fract_z
 _atom_site_occupancy
  Li  Li0  1  0.70089987  0.01392362  0.78116116  1
  Li  Li1  1  0.98602023  0.29911974  0.71890163  1
  Li  Li2  1  0.29908974  0.98609063  0.21883468  1
  Li  Li3  1  0.01394378  0.70090252  0.28114956  1
  Li  Li4  1  0.05814999  0.34533281  0.07227739  1
  Li  Li5  1  0.65470161  0.94181474  0.42774251  1
  Li  Li6  1  0.33337187  0.63837359  0.01540690  1
  Li  Li7  1  0.36165769  0.66663910  0.48458962  1
  Li  Li8  1  0.66662889  0.36163320  0.98463557  1
  Li  Li9  1  0.63835713  0.33337503  0.51540310  1
  Li  Li10  1  0.86576302  0.47422517  0.45452549  1
  Li  Li11  1  0.52535267  0.13460585  0.04545594  1
  Li  Li12  1  0.13476390  0.52511404  0.54548475  1
  Li  Li13  1  0.47420524  0.86576872  0.95450816  1
  Li  Li14  1  0.19396866  0.80601349  0.74999942  1
  Li  Li15  1  0.80605768  0.19397875  0.25000259  1
  Li  Li16  1  0.94180584  0.65468335  0.92774225  1
  Li  Li17  1  0.34533168  0.05815897  0.57224544  1
  Ti  Ti0  1  0.66227461  0.65756393  0.21202356  1
  Ti  Ti1  1  0.34256504  0.33769410  0.28796253  1
  Ti  Ti2  1  0.33771876  0.34254544  0.78799656  1
  Ti  Ti3  1  0.65751352  0.66227045  0.71200235  1
  Ti  Ti4  1  0.00001257  -0.00005240  0.49999063  1
  Ti  Ti5  1  -0.00004476  0.00000844  0.00000014  1
  F  F0  1  0.24578396  0.56446747  0.18467512  1
  F  F1  1  0.90532944  0.24932001  0.56222440  1
  F  F2  1  0.24931127  0.90535577  0.06220920  1
  F  F3  1  0.09474295  0.75059600  0.43778414  1
  F  F4  1  0.59074166  0.57117604  0.56191235  1
  F  F5  1  0.42880400  0.40925746  0.93812317  1
  F  F6  1  0.40925142  0.42882862  0.43808019  1
  F  F7  1  0.57109758  0.59080049  0.06197132  1
  F  F8  1  0.75060045  0.09466695  0.93779310  1
  F  F9  1  0.07494679  0.07622323  0.32636444  1
  F  F10  1  0.07619774  0.07498438  0.82636437  1
  F  F11  1  0.92501582  0.92377742  0.67364160  1
  F  F12  1  0.43550667  0.75431416  0.31532391  1
  F  F13  1  0.22445484  0.27498058  0.64792041  1
  F  F14  1  0.27498880  0.22443461  0.14789542  1
  F  F15  1  0.77561680  0.72500317  0.35209881  1
  F  F16  1  0.90263088  0.24552994  0.07106203  1
  F  F17  1  0.75448081  0.09734929  0.42892531  1
  F  F18  1  0.09732324  0.75448242  0.92894173  1
  F  F19  1  0.24553145  0.90264299  0.57103495  1
  F  F20  1  0.58460938  0.89718425  0.61104623  1
  F  F21  1  0.10276792  0.41539652  0.88895195  1
  F  F22  1  0.41539805  0.10276396  0.38892593  1
  F  F23  1  0.89723549  0.58462012  0.11105004  1
  F  F24  1  0.75415923  0.43555832  0.81539510  1
  F  F25  1  0.56444874  0.24573757  0.68464920  1
  F  F26  1  0.09717719  0.43793177  0.38307230  1
  F  F27  1  0.72498702  0.77558516  0.85208350  1
  F  F28  1  0.90295549  0.56193571  0.61689583  1
  F  F29  1  0.43797226  0.09717344  0.88309822  1
  F  F30  1  0.24862816  0.58058126  0.68054289  1
  F  F31  1  0.41939974  0.75142766  0.81946014  1
  F  F32  1  0.75142135  0.41946526  0.31943143  1
  F  F33  1  0.58061182  0.24865015  0.18049422  1
  F  F34  1  0.92379536  0.92503223  0.17362304  1
  F  F35  1  0.56196499  0.90298033  0.11689008  1
loop_
_geom_bond_atom_site_label_1
_geom_bond_atom_site_label_2
_geom_bond_distance
_geom_bond_site_symmetry_2
F0 Li6 1.910445 1_555
F0 Ti1 1.913039 1_555
F0 Li3 1.950131 1_555
F1 Li1 1.928798 1_555
F1 Li10 1.960597 1_555
F1 Ti4 2.011022 1_655
F1 Li9 2.104795 1_555
F2 Li2 1.928462 1_555
F2 Li13 1.960445 1_554
F2 Ti5 2.010801 1_565
F2 Li6 2.104847 1_555
F3 Li3 1.928499 1_555
F3 Li12 1.963787 1_555
F3 Ti4 2.010719 1_565
F3 Li7 2.104437 1_555
F4 Li7 1.926483 1_555
F4 Li9 1.942032 1_555
F4 Ti3 1.993355 1_555
F4 Li10 2.242283 1_555
F5 Li6 1.926574 1_556
F5 Li8 1.942175 1_555
F5 Ti2 1.993342 1_555
F5 Li11 2.239796 1_556
F6 Li9 1.926645 1_555
F6 Li7 1.942160 1_555
F6 Ti1 1.993399 1_555
F6 Li12 2.239022 1_555
F7 Li8 1.927114 1_554
F7 Li6 1.941677 1_555
F7 Ti0 1.993414 1_555
F7 Li13 2.242316 1_554
F8 Li0 1.928253 1_555
F8 Li11 1.962101 1_556
F8 Ti5 2.010779 1_656
F8 Li8 2.104972 1_555
F9 Ti4 1.911444 1_555
F9 Li2 1.915761 1_545
F9 Li15 2.194598 1_455
F10 Ti5 1.911549 1_556
F10 Li1 1.915441 1_455
F10 Li14 2.195221 1_545
F11 Ti4 1.911513 1_665
F11 Li0 1.915547 1_565
F11 Li14 2.195035 1_655
F12 Li7 1.910550 1_555
F12 Ti0 1.913007 1_555
F12 Li2 1.949854 1_555
F13 Li17 1.832077 1_555
F13 Li1 1.961374 1_455
F13 Ti2 2.033949 1_555
F13 Li12 2.058494 1_555
F14 Li4 1.831921 1_555
F14 Li2 1.960718 1_545
F14 Ti1 2.033912 1_555
F14 Li11 2.059937 1_555
F15 Li5 1.831885 1_555
F15 Li3 1.960561 1_655
F15 Ti0 2.033786 1_555
F15 Li10 2.062584 1_555
F16 Li4 1.832819 1_655
F16 Li15 1.956419 1_555
F16 Li8 2.010294 1_554
F16 Ti5 2.015868 1_655
F17 Li5 1.832750 1_545
F17 Li15 1.956533 1_555
F17 Li9 2.010722 1_555
F17 Ti4 2.015866 1_655
F18 Li16 1.832759 1_455
F18 Li14 1.956628 1_555
F18 Li6 2.010798 1_556
F18 Ti5 2.015851 1_566
F19 Li17 1.832783 1_565
F19 Li14 1.956848 1_555
F19 Li7 2.010416 1_555
F19 Ti4 2.015761 1_565
F20 Li17 1.892460 1_565
F20 Li5 1.902864 1_555
F20 Ti3 1.959116 1_555
F21 Li16 1.892488 1_455
F21 Li4 1.902974 1_556
F21 Ti2 1.959343 1_555
F22 Li5 1.892617 1_545
F22 Li17 1.902898 1_555
F22 Ti1 1.959305 1_555
F23 Li4 1.892365 1_655
F23 Li16 1.902725 1_554
F23 Ti0 1.959426 1_555
F24 Li8 1.910080 1_555
F24 Ti3 1.913117 1_555
F24 Li1 1.950338 1_555
F25 Li9 1.910454 1_555
F25 Ti2 1.913015 1_555
F25 Li0 1.950221 1_555
F26 Li10 1.879783 1_455
F26 Li12 1.963210 1_555
F26 Ti1 1.995891 1_555
F26 Li3 2.146138 1_555
F27 Li16 1.831980 1_555
F27 Li0 1.960669 1_565
F27 Ti3 2.033843 1_555
F27 Li13 2.062534 1_555
F28 Li12 1.881528 1_655
F28 Li10 1.963824 1_555
F28 Ti3 1.996241 1_555
F28 Li1 2.145519 1_555
F29 Li13 1.879773 1_545
F29 Li11 1.963070 1_556
F29 Ti2 1.995810 1_555
F29 Li0 2.145828 1_555
F30 Li14 1.919203 1_555
F30 Li12 1.942599 1_555
F30 Ti2 2.002259 1_555
F30 Li7 2.256363 1_555
F31 Li14 1.919334 1_555
F31 Li13 1.942247 1_555
F31 Ti3 2.002713 1_555
F31 Li6 2.256310 1_556
F32 Li15 1.919541 1_555
F32 Li10 1.942400 1_555
F32 Ti0 2.002440 1_555
F32 Li9 2.256750 1_555
F33 Li15 1.919484 1_555
F33 Li11 1.942531 1_555
F33 Ti1 2.002349 1_555
F33 Li8 2.255313 1_554
F34 Ti5 1.911184 1_665
F34 Li3 1.915716 1_655
F34 Li15 2.195121 1_565
F35 Li11 1.880703 1_565
F35 Li13 1.964214 1_554
F35 Ti0 1.996234 1_555
F35 Li2 2.145594 1_555
