# generated using pymatgen
data_MgMn12O17F7
_symmetry_space_group_name_H-M   'P 1'
_cell_length_a   4.72056545
_cell_length_b   5.71514741
_cell_length_c   15.22233231
_cell_angle_alpha   90.19778874
_cell_angle_beta   90.03088959
_cell_angle_gamma   89.07563668
_symmetry_Int_Tables_number   1
_chemical_formula_structural   MgMn12O17F7
_chemical_formula_sum   'Mg1 Mn12 O17 F7'
_cell_volume   410.62321460
_cell_formula_units_Z   1
loop_
 _symmetry_equiv_pos_site_id
 _symmetry_equiv_pos_as_xyz
  1  'x, y, z'
loop_
 _atom_site_type_symbol
 _atom_site_label
 _atom_site_symmetry_multiplicity
 _atom_site_fract_x
 _atom_site_fract_y
 _atom_site_fract_z
 _atom_site_occupancy
  Mg  Mg0  1  0.93660200  0.64741900  0.62922700  1
  Mn  Mn0  1  0.02283500  0.15829400  0.40858900  1
  Mn  Mn1  1  0.00304100  0.82571100  0.24308000  1
  Mn  Mn2  1  0.98186800  0.15776700  0.08190400  1
  Mn  Mn3  1  0.01044400  0.15779100  0.75048800  1
  Mn  Mn4  1  0.45418100  0.90948100  0.56973600  1
  Mn  Mn5  1  0.95381000  0.83167500  0.91629500  1
  Mn  Mn6  1  0.45220500  0.32387700  0.92405600  1
  Mn  Mn7  1  0.48697200  0.38711700  0.58283200  1
  Mn  Mn8  1  0.47350000  0.35114300  0.25335400  1
  Mn  Mn9  1  0.46888400  0.62246500  0.09363100  1
  Mn  Mn10  1  0.48341400  0.62578600  0.41076200  1
  Mn  Mn11  1  0.47077900  0.63758100  0.76967300  1
  O  O0  1  0.21095400  0.11117000  0.29723000  1
  O  O1  1  0.26036500  0.15071800  0.62777400  1
  O  O2  1  0.16390800  0.09927800  0.97161100  1
  O  O3  1  0.19980700  0.87649000  0.13627800  1
  O  O4  1  0.26234800  0.89703200  0.45858000  1
  O  O5  1  0.17346700  0.86563600  0.80709100  1
  O  O6  1  0.25862500  0.41419700  0.47576500  1
  O  O7  1  0.25144500  0.39259500  0.14888400  1
  O  O8  1  0.26444900  0.59340800  0.30941400  1
  O  O9  1  0.32127700  0.66719500  0.65111100  1
  O  O10  1  0.24364900  0.36811700  0.81492700  1
  O  O11  1  0.67765500  0.36812600  0.03181300  1
  O  O12  1  0.70029100  0.60176000  0.19393800  1
  O  O13  1  0.70534900  0.37207400  0.35830000  1
  O  O14  1  0.69036900  0.64850500  0.52522100  1
  O  O15  1  0.68064400  0.59884600  0.87343700  1
  O  O16  1  0.74376900  0.40917400  0.69603000  1
  F  F0  1  0.21637800  0.60233700  0.98959700  1
  F  F1  1  0.73412400  0.11885000  0.19211600  1
  F  F2  1  0.76708400  0.14019900  0.51945900  1
  F  F3  1  0.76441300  0.85360200  0.35435700  1
  F  F4  1  0.70862200  0.85755300  0.02954500  1
  F  F5  1  0.70809600  0.09223500  0.85431700  1
  F  F6  1  0.76104800  0.91955600  0.68291300  1
loop_
_geom_bond_atom_site_label_1
_geom_bond_atom_site_label_2
_geom_bond_distance
_geom_bond_site_symmetry_2
Mg0 O9 1.851186 1_655
Mg0 O16 1.940930 1_555
Mg0 O14 1.963551 1_555
Mn0 O0 1.930128 1_555
Mn0 O4 2.009820 1_545
Mn0 O13 2.066653 1_455
Mn0 O6 2.112939 1_555
Mn1 O3 1.898343 1_555
Mn1 O8 2.063988 1_555
Mn1 O12 2.071592 1_455
Mn1 O0 2.084666 1_565
Mn2 O2 1.912424 1_654
Mn2 O11 2.009596 1_555
Mn2 O3 2.069443 1_645
Mn2 O7 2.122356 1_655
Mn3 O10 1.911120 1_555
Mn3 O5 2.022453 1_545
Mn3 O16 2.069963 1_455
Mn3 O1 2.209797 1_555
Mn4 O1 1.862846 1_565
Mn4 O4 1.920349 1_555
Mn4 O14 1.966486 1_555
Mn4 O9 1.971328 1_555
Mn5 O5 1.971496 1_655
Mn5 O15 1.976746 1_555
Mn5 O2 2.017633 1_665
Mn6 O10 1.945727 1_555
Mn6 O11 1.972599 1_556
Mn6 O2 2.021796 1_555
Mn6 O15 2.071256 1_555
Mn7 O1 1.868545 1_555
Mn7 O6 1.958730 1_555
Mn7 O14 1.994706 1_555
Mn7 O9 2.050188 1_555
Mn7 O16 2.110869 1_555
Mn8 O8 1.888864 1_555
Mn8 O7 1.917465 1_555
Mn8 O13 1.940425 1_555
Mn8 O0 1.981194 1_555
Mn8 O12 2.018702 1_555
Mn9 O12 1.879894 1_555
Mn9 O7 1.881214 1_555
Mn9 O11 1.978635 1_555
Mn9 O3 2.019262 1_555
Mn10 O8 1.866874 1_555
Mn10 O6 1.902161 1_555
Mn10 O13 1.944669 1_555
Mn10 O4 1.990688 1_555
Mn10 O14 2.001924 1_555
Mn11 O15 1.875906 1_555
Mn11 O9 1.944442 1_555
Mn11 O5 1.982340 1_555
Mn11 O10 2.014248 1_555
Mn11 O16 2.135074 1_555
F0 Mn9 1.985718 1_556
F0 Mn5 2.110801 1_455
F0 Mn6 2.168047 1_555
F1 Mn8 2.021157 1_555
F1 Mn2 2.060312 1_555
F1 Mn1 2.226963 1_645
F2 Mn0 2.079424 1_655
F2 Mn4 2.139439 1_545
F2 Mn7 2.145283 1_555
F3 Mn1 2.039118 1_655
F3 Mn10 2.063161 1_555
F3 Mn0 2.293366 1_665
F4 Mn9 2.024074 1_555
F4 Mn5 2.080459 1_554
F4 Mn2 2.302986 1_565
F5 Mn6 2.068533 1_555
F5 Mn5 2.099002 1_545
F5 Mn3 2.167773 1_655
F6 Mg0 1.929757 1_555
F6 Mn3 2.082952 1_665
F6 Mn4 2.251474 1_555
F6 Mn11 2.511310 1_555
