# generated using pymatgen
data_Na2ZrSiGe(PO6)2
_symmetry_space_group_name_H-M   'P 1'
_cell_length_a   8.78548806
_cell_length_b   8.80110517
_cell_length_c   22.37486385
_cell_angle_alpha   90.01222817
_cell_angle_beta   90.31433329
_cell_angle_gamma   119.83904863
_symmetry_Int_Tables_number   1
_chemical_formula_structural   Na2ZrSiGe(PO6)2
_chemical_formula_sum   'Na12 Zr6 Si6 Ge6 P12 O72'
_cell_volume   1500.67684108
_cell_formula_units_Z   6
loop_
 _symmetry_equiv_pos_site_id
 _symmetry_equiv_pos_as_xyz
  1  'x, y, z'
loop_
 _atom_site_type_symbol
 _atom_site_label
 _atom_site_symmetry_multiplicity
 _atom_site_fract_x
 _atom_site_fract_y
 _atom_site_fract_z
 _atom_site_occupancy
  Na  Na0  1  0.00216030  0.64747855  0.24904001  1
  Na  Na1  1  0.36500849  0.99760470  0.75687866  1
  Na  Na2  1  0.66057285  0.96619331  0.59133061  1
  Na  Na3  1  0.03914804  0.33434008  0.08450142  1
  Na  Na4  1  0.96718750  0.66852046  0.92076241  1
  Na  Na5  1  0.32711739  0.02846777  0.41900963  1
  Na  Na6  1  -0.00060910  0.98817759  0.49966283  1
  Na  Na7  1  0.00137522  0.99827427  0.99788959  1
  Na  Na8  1  0.66726995  0.32437433  0.84060946  1
  Na  Na9  1  0.66786713  0.32777425  0.32560977  1
  Na  Na10  1  0.36300882  0.68280124  0.16367889  1
  Na  Na11  1  0.32550891  0.63943667  0.67398817  1
  Zr  Zr0  1  0.99437958  0.00346372  0.34780184  1
  Zr  Zr1  1  0.00598616  -0.00009081  0.65210513  1
  Zr  Zr2  1  0.99704478  0.99204045  0.14310194  1
  Zr  Zr3  1  0.67001205  0.33297657  0.69475238  1
  Zr  Zr4  1  0.67300008  0.34110526  0.47494143  1
  Zr  Zr5  1  0.32418744  0.66372652  0.52172474  1
  Si  Si0  1  0.00075809  0.30647887  0.24202913  1
  Si  Si1  1  0.70660931  0.98476791  0.75814090  1
  Si  Si2  1  0.37094112  0.04427648  0.58277314  1
  Si  Si3  1  0.95204599  0.61311208  0.07625247  1
  Si  Si4  1  0.33675148  0.96255786  0.91792122  1
  Si  Si5  1  0.04216618  0.66281095  0.40760377  1
  Ge  Ge0  1  0.00628468  0.00916744  0.85872786  1
  Ge  Ge1  1  0.67011122  0.33171886  0.17995563  1
  Ge  Ge2  1  0.65551371  0.33001606  0.97930611  1
  Ge  Ge3  1  0.32766496  0.67297493  0.01818661  1
  Ge  Ge4  1  0.32625218  0.65861245  0.30881379  1
  Ge  Ge5  1  0.34460130  0.67640286  0.82065024  1
  P  P0  1  0.31197588  0.00696232  0.24877873  1
  P  P1  1  0.69188299  0.69384312  0.24618355  1
  P  P2  1  0.28404704  0.29882575  0.76085625  1
  P  P3  1  0.00836283  0.71151386  0.76362677  1
  P  P4  1  0.95955293  0.33248397  0.58607035  1
  P  P5  1  0.67028828  0.62550895  0.58566373  1
  P  P6  1  0.65126628  0.04495936  0.07850463  1
  P  P7  1  0.39169605  0.34567211  0.08012672  1
  P  P8  1  0.61706370  0.66821287  0.92070325  1
  P  P9  1  0.05057151  0.38006295  0.91876454  1
  P  P10  1  0.61428805  0.94495561  0.41314629  1
  P  P11  1  0.33370298  0.38378814  0.41002099  1
  O  O0  1  0.23330881  0.03234876  0.30711346  1
  O  O1  1  0.82014370  0.77565683  0.29985704  1
  O  O2  1  0.97106270  0.18034440  0.29896718  1
  O  O3  1  0.20405578  0.16707337  0.81326764  1
  O  O4  1  0.98833856  0.79772425  0.82103943  1
  O  O5  1  0.84082290  0.01511671  0.81342829  1
  O  O6  1  0.78342570  0.96643587  0.69368934  1
  O  O7  1  0.17841048  0.21671210  0.70263315  1
  O  O8  1  0.04164519  0.83275276  0.70883886  1
  O  O9  1  0.77937120  0.81155298  0.19121901  1
  O  O10  1  0.02606847  0.21666390  0.18236712  1
  O  O11  1  0.17215852  0.96096100  0.19818172  1
  O  O12  1  0.86996285  0.34733508  0.64288634  1
  O  O13  1  0.48499029  0.14211802  0.64320188  1
  O  O14  1  0.66712697  0.52684304  0.64238099  1
  O  O15  1  0.86214125  0.48919595  0.13528489  1
  O  O16  1  0.62356323  0.12570723  0.13627688  1
  O  O17  1  0.50297998  0.36607611  0.13644323  1
  O  O18  1  0.46797952  0.31187328  0.02311461  1
  O  O19  1  0.83694675  0.52300383  0.01534208  1
  O  O20  1  0.69003742  0.16606818  0.02386515  1
  O  O21  1  0.46445501  0.14511072  0.52076285  1
  O  O22  1  0.68364082  0.53520408  0.52828077  1
  O  O23  1  0.85514257  0.32300729  0.52915059  1
  O  O24  1  0.52750712  0.69500850  0.97602694  1
  O  O25  1  0.15653818  0.45208822  0.97848277  1
  O  O26  1  0.28294310  0.81848394  0.97217042  1
  O  O27  1  0.54282015  0.85735054  0.47418418  1
  O  O28  1  0.32761713  0.47322257  0.46764513  1
  O  O29  1  0.15804695  0.68481760  0.46754371  1
  O  O30  1  0.13982156  0.65512415  0.34613077  1
  O  O31  1  0.49507395  0.84316060  0.35964519  1
  O  O32  1  0.34510550  0.48647536  0.35278350  1
  O  O33  1  0.14411040  0.51283865  0.86750456  1
  O  O34  1  0.37027774  0.87931733  0.85680568  1
  O  O35  1  0.50630974  0.63843281  0.86357791  1
  O  O36  1  0.03159650  0.84271302  0.40811763  1
  O  O37  1  0.79865122  0.96694483  0.40821498  1
  O  O38  1  0.16855298  0.19852409  0.40905440  1
  O  O39  1  0.03221376  0.19602018  0.91136422  1
  O  O40  1  0.15458906  0.97906332  0.91336912  1
  O  O41  1  0.80612546  0.83092984  0.91680041  1
  O  O42  1  0.96131128  0.15832471  0.58750718  1
  O  O43  1  0.17763988  0.02184522  0.58639356  1
  O  O44  1  0.83133372  0.81186595  0.58682361  1
  O  O45  1  0.97665421  0.80806959  0.08189752  1
  O  O46  1  0.81874598  0.02766973  0.08368932  1
  O  O47  1  0.20385174  0.18298554  0.08540826  1
  O  O48  1  0.67328568  0.15395539  0.75516473  1
  O  O49  1  0.46920338  0.32017431  0.75410148  1
  O  O50  1  0.84445990  0.53182366  0.75640146  1
  O  O51  1  0.67754170  0.51287068  0.23682942  1
  O  O52  1  0.82595320  0.33090981  0.23681267  1
  O  O53  1  0.48594406  0.17516506  0.23610239  1
  O  O54  1  0.64061911  0.50220116  0.92361542  1
  O  O55  1  0.86501501  0.36285404  0.92097962  1
  O  O56  1  0.51207891  0.15768093  0.92571269  1
  O  O57  1  0.62681689  0.12717467  0.41295280  1
  O  O58  1  0.49343714  0.35394696  0.41127219  1
  O  O59  1  0.85131472  0.48852081  0.41062630  1
  O  O60  1  0.37235325  0.51246063  0.07610141  1
  O  O61  1  0.14827306  0.62646083  0.07351542  1
  O  O62  1  0.48591441  0.86106270  0.07232541  1
  O  O63  1  0.36339720  0.85439801  0.58388160  1
  O  O64  1  0.50511742  0.64325883  0.58415960  1
  O  O65  1  0.14538200  0.48894300  0.58512753  1
  O  O66  1  0.33657949  0.84408266  0.25270029  1
  O  O67  1  0.51364000  0.68218752  0.25603078  1
  O  O68  1  0.17428271  0.50466523  0.24990781  1
  O  O69  1  0.29021572  0.47480854  0.76881222  1
  O  O70  1  0.17565383  0.69326137  0.76513969  1
  O  O71  1  0.50898092  0.80932049  0.76279801  1
loop_
_geom_bond_atom_site_label_1
_geom_bond_atom_site_label_2
_geom_bond_distance
_geom_bond_site_symmetry_2
Na0 O68 2.399586 1_555
Na0 O52 2.436574 1_455
Na0 O30 2.465085 1_555
Na0 O51 2.498151 1_455
Na0 O66 2.563413 1_555
Na0 O1 2.633852 1_455
Na0 O11 2.656503 1_555
Na0 O15 2.861993 1_455
Na1 O48 2.350041 1_565
Na1 O70 2.354914 1_555
Na1 O34 2.476450 1_555
Na1 O49 2.513190 1_565
Na1 O71 2.539196 1_555
Na1 O8 2.682397 1_555
Na1 O13 2.809776 1_565
Na1 O3 2.816662 1_565
Na2 O63 2.291536 1_555
Na2 O42 2.324671 1_565
Na2 O64 2.470547 1_555
Na2 O44 2.476897 1_555
Na2 O6 2.526030 1_555
Na2 O27 2.800217 1_555
Na2 O13 2.918831 1_565
Na3 O61 2.267055 1_555
Na3 O10 2.401262 1_555
Na3 O47 2.405519 1_555
Na3 O46 2.415230 1_455
Na3 O60 2.549856 1_555
Na3 O25 2.594034 1_554
Na3 O15 2.773945 1_455
Na4 O55 2.374859 1_555
Na4 O40 2.394418 1_655
Na4 O19 2.448927 1_556
Na4 O41 2.462653 1_555
Na4 O4 2.470144 1_555
Na4 O54 2.490195 1_555
Na4 O26 2.661079 1_655
Na4 O33 2.802209 1_655
Na5 O36 2.289515 1_545
Na5 O57 2.330990 1_555
Na5 O58 2.491692 1_555
Na5 O38 2.510353 1_555
Na5 O21 2.535621 1_555
Na5 O0 2.637068 1_555
Na5 O29 2.842829 1_545
Na6 O43 2.410539 1_565
Na6 O44 2.478732 1_455
Na6 O36 2.506070 1_555
Na6 O42 2.592699 1_465
Na6 O37 2.638965 1_455
Na6 O38 2.653835 1_565
Na7 O40 2.381412 1_555
Na7 O41 2.419537 1_455
Na7 O45 2.454923 1_456
Na7 O39 2.527523 1_565
Na7 O47 2.593146 1_566
Na7 O46 2.602584 1_466
Na8 O56 2.382500 1_555
Na8 O55 2.397209 1_555
Na8 O48 2.446675 1_555
Na8 O54 2.514326 1_555
Na8 O50 2.551879 1_555
Na8 O49 2.583587 1_555
Na9 O52 2.422670 1_555
Na9 O59 2.431811 1_555
Na9 O53 2.489349 1_555
Na9 O57 2.538086 1_555
Na9 O58 2.541352 1_555
Na9 O51 2.544103 1_555
Na10 O67 2.449142 1_555
Na10 O62 2.478944 1_555
Na10 O60 2.493403 1_555
Na10 O66 2.523500 1_555
Na10 O68 2.525690 1_555
Na10 O61 2.627121 1_555
Na11 O65 2.467849 1_555
Na11 O69 2.501688 1_555
Na11 O71 2.519443 1_555
Na11 O64 2.552012 1_555
Na11 O70 2.601340 1_555
Na11 O63 2.671541 1_555
Ge0 O5 1.789638 1_455
Ge0 O40 1.894395 1_545
Ge0 O3 1.897902 1_555
Ge0 O39 1.940823 1_555
Ge0 O4 1.976092 1_445
Ge0 O41 2.126566 1_445
Ge1 O15 1.859675 1_555
Ge1 O52 1.866447 1_555
Ge1 O17 1.903041 1_555
Ge1 O16 1.914889 1_555
Ge1 O53 1.974627 1_555
Ge1 O51 2.014990 1_555
Ge2 O19 1.834918 1_556
Ge2 O56 1.845820 1_555
Ge2 O18 1.859251 1_556
Ge2 O20 1.897590 1_556
Ge2 O54 2.015606 1_555
Ge2 O55 2.161375 1_555
Ge3 O26 1.830667 1_554
Ge3 O61 1.887766 1_555
Ge3 O24 1.920785 1_554
Ge3 O62 1.957288 1_555
Ge3 O25 1.976088 1_554
Ge3 O60 2.091937 1_555
Ge4 O30 1.829138 1_555
Ge4 O68 1.880228 1_555
Ge4 O32 1.881252 1_555
Ge4 O31 1.927409 1_555
Ge4 O67 1.956947 1_555
Ge4 O66 2.025803 1_555
Ge5 O71 1.862689 1_555
Ge5 O34 1.868461 1_555
Ge5 O35 1.873554 1_555
Ge5 O33 1.942045 1_555
Ge5 O69 1.967483 1_555
Ge5 O70 1.991681 1_555
O0 P0 1.547465 1_555
O0 Zr0 2.188548 1_455
O1 P1 1.551719 1_555
O1 Zr0 2.107312 1_565
O2 Si0 1.624656 1_655
O2 Zr0 1.993731 1_555
O3 P2 1.553184 1_555
O4 P3 1.546525 1_655
O5 Si1 1.631693 1_545
O6 Si1 1.637086 1_555
O6 Zr1 2.054888 1_665
O7 P2 1.549065 1_555
O7 Zr1 2.077895 1_555
O8 P3 1.555903 1_555
O8 Zr1 2.080610 1_565
O9 P1 1.547584 1_555
O9 Zr2 2.083239 1_555
O10 Si0 1.622976 1_555
O10 Zr2 2.059200 1_445
O11 P0 1.563360 1_565
O11 Zr2 2.087728 1_455
O12 P4 1.538168 1_555
O12 Zr3 2.061580 1_555
O13 Si2 1.643056 1_555
O13 Zr3 2.013883 1_555
O14 P5 1.530411 1_555
O14 Zr3 2.080524 1_555
O15 Si3 1.647041 1_555
O16 P6 1.552549 1_555
O17 P7 1.545177 1_555
O18 P7 1.540291 1_555
O19 Si3 1.641719 1_555
O20 P6 1.546158 1_555
O21 Si2 1.635574 1_555
O21 Zr4 2.063932 1_555
O22 P5 1.545293 1_555
O22 Zr4 2.047024 1_555
O23 P4 1.543171 1_555
O23 Zr4 2.071148 1_555
O24 P8 1.549895 1_555
O25 P9 1.566094 1_555
O26 Si4 1.647763 1_555
O27 P10 1.543370 1_555
O27 Zr5 2.119153 1_555
O28 P11 1.525451 1_555
O28 Zr5 2.079907 1_555
O29 Si5 1.631362 1_555
O29 Zr5 1.971020 1_555
O30 Si5 1.644137 1_555
O31 P10 1.544223 1_555
O32 P11 1.542326 1_555
O33 P9 1.552942 1_555
O34 Si4 1.646853 1_555
O35 P8 1.543252 1_555
O36 Si5 1.631572 1_555
O36 Zr0 2.094311 1_465
O37 P10 1.537256 1_555
O37 Zr0 2.088806 1_565
O38 P11 1.552307 1_555
O38 Zr0 2.128112 1_455
O39 P9 1.554586 1_555
O40 Si4 1.679964 1_555
O41 P8 1.565872 1_555
O42 P4 1.540879 1_555
O42 Zr1 2.173987 1_655
O43 Si2 1.611663 1_555
O43 Zr1 2.051338 1_555
O44 P5 1.543661 1_555
O44 Zr1 2.162001 1_665
O45 Si3 1.623965 1_555
O45 Zr2 2.058352 1_555
O46 P6 1.556453 1_555
O46 Zr2 2.187551 1_545
O47 P7 1.561525 1_555
O47 Zr2 2.186291 1_445
O48 Si1 1.655602 1_545
O48 Zr3 2.087106 1_555
O49 P2 1.550103 1_555
O49 Zr3 2.171740 1_555
O50 P3 1.527041 1_655
O50 Zr3 2.149656 1_555
O51 P1 1.548038 1_555
O52 Si0 1.656811 1_655
O53 P0 1.536651 1_555
O54 P8 1.575637 1_555
O55 P9 1.561457 1_655
O56 Si4 1.648251 1_545
O57 P10 1.551910 1_545
O57 Zr4 2.205874 1_555
O58 P11 1.550960 1_555
O58 Zr4 2.164192 1_555
O59 Si5 1.615789 1_655
O59 Zr4 2.052129 1_555
O60 P7 1.562023 1_555
O61 Si3 1.670081 1_455
O62 P6 1.551430 1_565
O63 Si2 1.639370 1_565
O63 Zr5 2.070611 1_555
O64 P5 1.535024 1_555
O64 Zr5 2.184345 1_555
O65 P4 1.524866 1_455
O65 Zr5 2.113577 1_555
O66 P0 1.554864 1_565
O67 P1 1.534670 1_555
O68 Si0 1.657818 1_555
O69 P2 1.532901 1_555
O70 P3 1.556109 1_555
O71 Si1 1.656471 1_555
