# generated using pymatgen
data_Lu6MgWO12
_symmetry_space_group_name_H-M   'P 1'
_cell_length_a   6.53771569
_cell_length_b   6.29914245
_cell_length_c   6.54613782
_cell_angle_alpha   97.76882976
_cell_angle_beta   100.39311726
_cell_angle_gamma   98.99946361
_symmetry_Int_Tables_number   1
_chemical_formula_structural   Lu6MgWO12
_chemical_formula_sum   'Lu6 Mg1 W1 O12'
_cell_volume   258.16498777
_cell_formula_units_Z   1
loop_
 _symmetry_equiv_pos_site_id
 _symmetry_equiv_pos_as_xyz
  1  'x, y, z'
loop_
 _atom_site_type_symbol
 _atom_site_label
 _atom_site_symmetry_multiplicity
 _atom_site_fract_x
 _atom_site_fract_y
 _atom_site_fract_z
 _atom_site_occupancy
  Lu  Lu0  1  0.12594800  0.30596300  0.63521300  1
  Lu  Lu1  1  0.39563400  0.86213200  0.69115000  1
  Lu  Lu2  1  0.34597300  0.60855300  0.14900200  1
  Lu  Lu3  1  0.65465100  0.39556100  0.82527600  1
  Lu  Lu4  1  0.57512100  0.13868200  0.32457300  1
  Lu  Lu5  1  0.87003300  0.73930300  0.41371700  1
  Mg  Mg0  1  0.93836000  0.36901500  0.19320100  1
  W  W0  1  0.99884100  0.97359900  0.99235400  1
  O  O0  1  0.07094600  0.93833400  0.68857700  1
  O  O1  1  0.10864600  0.30455200  0.97911200  1
  O  O2  1  0.16353800  0.56979600  0.40974000  1
  O  O3  1  0.31488800  0.93935000  0.08027400  1
  O  O4  1  0.39655300  0.56804500  0.82165300  1
  O  O5  1  0.40947700  0.18369600  0.57504600  1
  O  O6  1  0.56730700  0.81633600  0.42657900  1
  O  O7  1  0.62070400  0.42322300  0.17228300  1
  O  O8  1  0.70452100  0.05675600  0.88954900  1
  O  O9  1  0.82158300  0.42728800  0.57772900  1
  O  O10  1  0.91296300  0.67111900  0.05739500  1
  O  O11  1  0.92097800  0.08369600  0.30591000  1
loop_
_geom_bond_atom_site_label_1
_geom_bond_atom_site_label_2
_geom_bond_distance
_geom_bond_site_symmetry_2
Lu0 O5 2.193693 1_555
Lu0 O9 2.229020 1_455
Lu0 O4 2.259943 1_555
Lu0 O1 2.275477 1_555
Lu0 O0 2.370133 1_545
Lu0 O2 2.380577 1_555
Lu0 O11 2.440835 1_455
Lu1 O4 2.142679 1_555
Lu1 O6 2.238298 1_555
Lu1 O0 2.246036 1_555
Lu1 O5 2.252217 1_565
Lu1 O8 2.261968 1_565
Lu1 O2 2.507418 1_555
Lu1 O3 2.689669 1_556
Lu2 O4 2.213728 1_554
Lu2 O6 2.219123 1_555
Lu2 O3 2.222300 1_555
Lu2 O2 2.269686 1_555
Lu2 O1 2.276697 1_554
Lu2 O7 2.284173 1_555
Lu3 O9 2.124698 1_555
Lu3 O4 2.143445 1_555
Lu3 O5 2.196794 1_555
Lu3 O8 2.291070 1_555
Lu3 O7 2.307936 1_556
Lu3 O10 2.370178 1_556
Lu4 O5 2.133671 1_555
Lu4 O7 2.172181 1_555
Lu4 O3 2.199031 1_545
Lu4 O6 2.217624 1_545
Lu4 O11 2.362367 1_555
Lu4 O9 2.439925 1_555
Lu5 O6 2.123454 1_555
Lu5 O0 2.134655 1_655
Lu5 O2 2.339712 1_655
Lu5 O11 2.363863 1_565
Lu5 O9 2.369467 1_555
Lu5 O10 2.388937 1_555
Lu5 O7 2.514661 1_555
Mg0 O1 1.979612 1_654
Mg0 O2 1.988974 1_655
Mg0 O11 2.027878 1_555
Mg0 O7 2.140119 1_555
Mg0 O10 2.223120 1_555
O0 W0 2.116014 1_455
O1 W0 2.114715 1_445
O3 W0 2.095480 1_454
O8 W0 2.091213 1_545
O10 W0 2.024305 1_554
O11 W0 2.248503 1_544
