# generated using pymatgen
data_KIn2F7
_symmetry_space_group_name_H-M   'P 1'
_cell_length_a   8.18827011
_cell_length_b   6.67405106
_cell_length_c   10.78746919
_cell_angle_alpha   90.00115090
_cell_angle_beta   90.00000000
_cell_angle_gamma   90.00000000
_symmetry_Int_Tables_number   1
_chemical_formula_structural   KIn2F7
_chemical_formula_sum   'K4 In8 F28'
_cell_volume   589.52367883
_cell_formula_units_Z   4
loop_
 _symmetry_equiv_pos_site_id
 _symmetry_equiv_pos_as_xyz
  1  'x, y, z'
loop_
 _atom_site_type_symbol
 _atom_site_label
 _atom_site_symmetry_multiplicity
 _atom_site_fract_x
 _atom_site_fract_y
 _atom_site_fract_z
 _atom_site_occupancy
  K  K0  1  0.75000000  0.75017731  0.25064154  1
  K  K1  1  0.25000000  0.24982269  0.74935846  1
  K  K2  1  0.75000000  0.24830957  0.74979986  1
  K  K3  1  0.25000000  0.75169043  0.25020014  1
  In  In0  1  0.50358460  0.25005159  0.05816753  1
  In  In1  1  0.00358460  0.74994841  0.94183247  1
  In  In2  1  0.49641540  0.74994841  0.94183247  1
  In  In3  1  0.99641540  0.25005159  0.05816753  1
  In  In4  1  0.99628690  0.25004527  0.44171022  1
  In  In5  1  0.49628690  0.74995473  0.55828978  1
  In  In6  1  0.00371310  0.74995473  0.55828978  1
  In  In7  1  0.50371310  0.25004527  0.44171022  1
  F  F0  1  0.52115360  0.93857871  0.10629024  1
  F  F1  1  0.02115360  0.06142129  0.89370976  1
  F  F2  1  0.47884640  0.06142129  0.89370976  1
  F  F3  1  0.97884640  0.93857871  0.10629024  1
  F  F4  1  0.52049211  0.56170002  0.10630498  1
  F  F5  1  0.02049211  0.43829998  0.89369502  1
  F  F6  1  0.47950789  0.43829998  0.89369502  1
  F  F7  1  0.97950789  0.56170002  0.10630498  1
  F  F8  1  0.51850797  0.93863984  0.39333740  1
  F  F9  1  0.01850797  0.06136016  0.60666260  1
  F  F10  1  0.48149203  0.06136016  0.60666260  1
  F  F11  1  0.98149203  0.93863984  0.39333740  1
  F  F12  1  0.75000000  0.25005420  0.00863818  1
  F  F13  1  0.25000000  0.74994580  0.99136182  1
  F  F14  1  0.75000000  0.75004808  0.91314954  1
  F  F15  1  0.25000000  0.24995192  0.08685046  1
  F  F16  1  0.75000000  0.24979481  0.49057104  1
  F  F17  1  0.25000000  0.75020519  0.50942896  1
  F  F18  1  0.75000000  0.75028876  0.58390807  1
  F  F19  1  0.25000000  0.24971124  0.41609193  1
  F  F20  1  0.94705536  0.25015749  0.24999976  1
  F  F21  1  0.44705536  0.74984251  0.75000024  1
  F  F22  1  0.05294464  0.74984251  0.75000024  1
  F  F23  1  0.55294464  0.25015749  0.24999976  1
  F  F24  1  0.98149828  0.56146764  0.39339684  1
  F  F25  1  0.48149828  0.43853236  0.60660316  1
  F  F26  1  0.01850172  0.43853236  0.60660316  1
  F  F27  1  0.51850172  0.56146764  0.39339684  1
loop_
_geom_bond_atom_site_label_1
_geom_bond_atom_site_label_2
_geom_bond_distance
_geom_bond_site_symmetry_2
F0 In0 2.147458 1_565
F0 In2 2.184768 1_554
F0 K0 2.741769 1_555
F0 K3 2.982532 1_555
F1 In1 2.147458 1_545
F1 In3 2.184768 1_456
F1 K1 2.741769 1_555
F1 K2 2.982532 1_455
F2 In2 2.147458 1_545
F2 In0 2.184768 1_556
F2 K1 2.741769 1_555
F2 K2 2.982532 1_555
F3 In3 2.147458 1_565
F3 In1 2.184768 1_654
F3 K0 2.741769 1_555
F3 K3 2.982532 1_655
F4 In0 2.148255 1_555
F4 In2 2.182975 1_554
F4 K0 2.745587 1_555
F4 K3 2.987122 1_555
F5 In1 2.148255 1_555
F5 In3 2.182975 1_456
F5 K1 2.745587 1_555
F5 K2 2.987122 1_455
F6 In2 2.148255 1_555
F6 In0 2.182975 1_556
F6 K1 2.745587 1_555
F6 K2 2.987122 1_555
F7 In3 2.148255 1_555
F7 In1 2.182975 1_654
F7 K0 2.745587 1_555
F7 K3 2.987122 1_655
F8 In7 2.146254 1_565
F8 In5 2.187544 1_555
F8 K0 2.746730 1_555
F8 K3 2.962233 1_555
F9 In6 2.146254 1_545
F9 In4 2.187544 1_455
F9 K1 2.746730 1_555
F9 K2 2.962233 1_455
F10 In5 2.146254 1_545
F10 In7 2.187544 1_555
F10 K1 2.746730 1_555
F10 K2 2.962233 1_555
F11 In4 2.146254 1_565
F11 In6 2.187544 1_655
F11 K0 2.746730 1_555
F11 K3 2.962233 1_655
F12 In3 2.087259 1_555
F12 In0 2.087259 1_555
F12 K2 2.792234 1_554
F13 In2 2.087259 1_555
F13 In1 2.087259 1_555
F13 K3 2.792234 1_556
F14 In1 2.099346 1_655
F14 In2 2.099346 1_555
F15 In0 2.099346 1_555
F15 In3 2.099346 1_455
F16 In7 2.084407 1_555
F16 In4 2.084407 1_555
F16 K2 2.796441 1_555
F17 In5 2.084407 1_555
F17 In6 2.084407 1_555
F17 K3 2.796441 1_555
F18 In6 2.095773 1_655
F18 In5 2.095773 1_555
F19 In7 2.095773 1_555
F19 In4 2.095773 1_455
F20 In4 2.106994 1_555
F20 In3 2.108485 1_555
F21 In5 2.106994 1_555
F21 In2 2.108485 1_555
F22 In6 2.106994 1_555
F22 In1 2.108485 1_555
F23 In7 2.106994 1_555
F23 In0 2.108485 1_555
F24 In4 2.146226 1_555
F24 In6 2.186216 1_655
F24 K0 2.747909 1_555
F24 K3 2.971823 1_655
F25 In5 2.146226 1_555
F25 In7 2.186216 1_555
F25 K1 2.747909 1_555
F25 K2 2.971823 1_555
F26 In6 2.146226 1_555
F26 In4 2.186216 1_455
F26 K1 2.747909 1_555
F26 K2 2.971823 1_455
F27 In7 2.146226 1_555
F27 In5 2.186216 1_555
F27 K0 2.747909 1_555
F27 K3 2.971823 1_555
