# generated using pymatgen
data_LiBiP2O7
_symmetry_space_group_name_H-M   'P 1'
_cell_length_a   9.07576100
_cell_length_b   5.03834600
_cell_length_c   7.45530745
_cell_angle_alpha   72.69459166
_cell_angle_beta   90.00000000
_cell_angle_gamma   90.00000000
_symmetry_Int_Tables_number   1
_chemical_formula_structural   LiBiP2O7
_chemical_formula_sum   'Li2 Bi2 P4 O14'
_cell_volume   325.47557770
_cell_formula_units_Z   2
loop_
 _symmetry_equiv_pos_site_id
 _symmetry_equiv_pos_as_xyz
  1  'x, y, z'
loop_
 _atom_site_type_symbol
 _atom_site_label
 _atom_site_symmetry_multiplicity
 _atom_site_fract_x
 _atom_site_fract_y
 _atom_site_fract_z
 _atom_site_occupancy
  Li  Li0  1  0.21207800  0.79976500  0.65118700  1
  Li  Li1  1  0.71207800  0.20023500  0.34881300  1
  Bi  Bi0  1  0.05804400  0.19705700  0.27060100  1
  Bi  Bi1  1  0.55804400  0.80294300  0.72939900  1
  P  P0  1  0.26153300  0.78550400  0.07747500  1
  P  P1  1  0.76153300  0.21449600  0.92252500  1
  P  P2  1  0.88196900  0.58778400  0.56060800  1
  P  P3  1  0.38196900  0.41221600  0.43939200  1
  O  O0  1  0.38259400  0.59232900  0.21902100  1
  O  O1  1  0.25372000  0.06705700  0.11500900  1
  O  O2  1  0.75372000  0.93294300  0.88499100  1
  O  O3  1  0.31788400  0.80321500  0.88138300  1
  O  O4  1  0.74330900  0.77671300  0.52234200  1
  O  O5  1  0.02445600  0.75722500  0.53597800  1
  O  O6  1  0.37734000  0.61550200  0.55686200  1
  O  O7  1  0.24330900  0.22328700  0.47765800  1
  O  O8  1  0.88259400  0.40767100  0.78097900  1
  O  O9  1  0.61041800  0.36122500  0.88104400  1
  O  O10  1  0.11041800  0.63877500  0.11895600  1
  O  O11  1  0.87734000  0.38449800  0.44313800  1
  O  O12  1  0.52445600  0.24277500  0.46402200  1
  O  O13  1  0.81788400  0.19678500  0.11861700  1
loop_
_geom_bond_atom_site_label_1
_geom_bond_atom_site_label_2
_geom_bond_distance
_geom_bond_site_symmetry_2
Li0 O5 1.947504 1_555
Li0 O3 1.971154 1_555
Li0 O6 1.998612 1_555
Li0 O7 2.159859 1_565
Li1 O12 1.947504 1_555
Li1 O13 1.971154 1_555
Li1 O11 1.998612 1_555
Li1 O4 2.159859 1_545
Bi0 O10 2.227147 1_555
Bi0 O7 2.312777 1_555
Bi0 O1 2.319577 1_555
Bi0 O11 2.441083 1_455
Bi0 O13 2.456750 1_455
Bi0 O5 2.511903 1_545
Bi1 O9 2.227147 1_555
Bi1 O4 2.312777 1_555
Bi1 O2 2.319577 1_555
Bi1 O6 2.441083 1_555
Bi1 O3 2.456750 1_555
Bi1 O12 2.511903 1_565
O0 P3 1.623508 1_555
O0 P0 1.630037 1_555
O1 P0 1.527026 1_545
O2 P1 1.527026 1_565
O3 P0 1.526152 1_556
O4 P2 1.552291 1_555
O5 P2 1.530220 1_455
O6 P3 1.533438 1_555
O7 P3 1.552291 1_555
O8 P2 1.623508 1_555
O8 P1 1.630037 1_555
O9 P1 1.545029 1_555
O10 P0 1.545029 1_555
O11 P2 1.533438 1_555
O12 P3 1.530220 1_555
O13 P1 1.526152 1_554
