# generated using pymatgen
data_BaBiO3
_symmetry_space_group_name_H-M   'P 1'
_cell_length_a   6.16836263
_cell_length_b   6.16813586
_cell_length_c   6.18935480
_cell_angle_alpha   60.52899098
_cell_angle_beta   60.11212974
_cell_angle_gamma   59.99878425
_symmetry_Int_Tables_number   1
_chemical_formula_structural   BaBiO3
_chemical_formula_sum   'Ba2 Bi2 O6'
_cell_volume   167.31160052
_cell_formula_units_Z   2
loop_
 _symmetry_equiv_pos_site_id
 _symmetry_equiv_pos_as_xyz
  1  'x, y, z'
loop_
 _atom_site_type_symbol
 _atom_site_label
 _atom_site_symmetry_multiplicity
 _atom_site_fract_x
 _atom_site_fract_y
 _atom_site_fract_z
 _atom_site_occupancy
  Ba  Ba0  1  0.75085487  0.75488683  0.74340442  1
  Ba  Ba1  1  0.24914513  0.24511317  0.25659558  1
  Bi  Bi0  1  -0.00000000  0.00000000  0.00000000  1
  Bi  Bi1  1  0.50000000  0.50000000  0.50000000  1
  O  O0  1  0.78051072  0.22266670  0.70270415  1
  O  O1  1  0.70588157  0.77733330  0.29729585  1
  O  O2  1  0.21948928  0.77733330  0.29729585  1
  O  O3  1  0.29411843  0.22266670  0.70270415  1
  O  O4  1  0.74087897  0.32756680  0.19067527  1
  O  O5  1  0.25912103  0.67243320  0.80932473  1
loop_
_geom_bond_atom_site_label_1
_geom_bond_atom_site_label_2
_geom_bond_distance
_geom_bond_site_symmetry_2
Ba0 O4 2.725329 1_556
Ba0 O2 2.840549 1_655
Ba0 O1 2.840552 1_555
Ba0 O0 2.861602 1_565
Ba0 O3 2.861605 1_565
Ba0 O5 3.119376 1_655
Ba0 O5 3.119382 1_555
Ba0 O3 3.322794 1_655
Ba0 O0 3.322797 1_555
Ba0 O1 3.365964 1_556
Ba0 O2 3.365967 1_556
Ba1 O5 2.725329 1_554
Ba1 O0 2.840549 1_455
Ba1 O3 2.840552 1_555
Ba1 O2 2.861602 1_545
Ba1 O1 2.861605 1_545
Ba1 O4 3.119376 1_455
Ba1 O4 3.119382 1_555
Ba1 O1 3.322794 1_455
Ba1 O2 3.322797 1_555
Ba1 O3 3.365964 1_554
Ba1 O0 3.365967 1_554
Bi0 O1 2.289488 1_445
Bi0 O3 2.289488 1_554
Bi0 O2 2.289488 1_545
Bi0 O0 2.289488 1_454
Bi0 O5 2.294910 1_544
Bi0 O4 2.294910 1_455
Bi1 O1 2.141477 1_555
Bi1 O3 2.141477 1_555
Bi1 O2 2.141477 1_555
Bi1 O0 2.141477 1_555
Bi1 O4 2.143023 1_555
Bi1 O5 2.143023 1_555
