# generated using pymatgen
data_NaSbO2
_symmetry_space_group_name_H-M   'P 1'
_cell_length_a   4.78875901
_cell_length_b   6.14013575
_cell_length_c   19.76420969
_cell_angle_alpha   90.00000000
_cell_angle_beta   90.00000000
_cell_angle_gamma   90.00000000
_symmetry_Int_Tables_number   1
_chemical_formula_structural   NaSbO2
_chemical_formula_sum   'Na8 Sb8 O16'
_cell_volume   581.13951678
_cell_formula_units_Z   8
loop_
 _symmetry_equiv_pos_site_id
 _symmetry_equiv_pos_as_xyz
  1  'x, y, z'
loop_
 _atom_site_type_symbol
 _atom_site_label
 _atom_site_symmetry_multiplicity
 _atom_site_fract_x
 _atom_site_fract_y
 _atom_site_fract_z
 _atom_site_occupancy
  Na  Na0  1  0.71975010  0.42361101  0.20613950  1
  Na  Na1  1  0.21975010  0.07638899  0.20613950  1
  Na  Na2  1  0.71975010  0.92361101  0.29386050  1
  Na  Na3  1  0.21975010  0.57638899  0.29386050  1
  Na  Na4  1  0.78024990  0.42361101  0.70613950  1
  Na  Na5  1  0.28024990  0.07638899  0.70613950  1
  Na  Na6  1  0.78024990  0.92361101  0.79386050  1
  Na  Na7  1  0.28024990  0.57638899  0.79386050  1
  Sb  Sb0  1  0.74445264  0.95219486  0.09527491  1
  Sb  Sb1  1  0.24445264  0.54780514  0.09527491  1
  Sb  Sb2  1  0.74445264  0.45219486  0.40472509  1
  Sb  Sb3  1  0.24445264  0.04780514  0.40472509  1
  Sb  Sb4  1  0.75554736  0.95219486  0.59527491  1
  Sb  Sb5  1  0.25554736  0.54780514  0.59527491  1
  Sb  Sb6  1  0.75554736  0.45219486  0.90472509  1
  Sb  Sb7  1  0.25554736  0.04780514  0.90472509  1
  O  O0  1  0.14629643  0.86244374  0.10786154  1
  O  O1  1  0.64629643  0.63755626  0.10786154  1
  O  O2  1  0.70936211  0.05241492  0.18613000  1
  O  O3  1  0.20936211  0.44758508  0.18613000  1
  O  O4  1  0.20936211  0.94758508  0.31387000  1
  O  O5  1  0.70936211  0.55241492  0.31387000  1
  O  O6  1  0.14629643  0.36244374  0.39213846  1
  O  O7  1  0.64629643  0.13755626  0.39213846  1
  O  O8  1  0.35370357  0.86244374  0.60786154  1
  O  O9  1  0.85370357  0.63755626  0.60786154  1
  O  O10  1  0.29063789  0.44758508  0.68613000  1
  O  O11  1  0.79063789  0.05241492  0.68613000  1
  O  O12  1  0.29063789  0.94758508  0.81387000  1
  O  O13  1  0.79063789  0.55241492  0.81387000  1
  O  O14  1  0.35370357  0.36244374  0.89213846  1
  O  O15  1  0.85370357  0.13755626  0.89213846  1
loop_
_geom_bond_atom_site_label_1
_geom_bond_atom_site_label_2
_geom_bond_distance
_geom_bond_site_symmetry_2
Na0 O5 2.271890 1_555
Na0 O2 2.313785 1_555
Na0 O1 2.371134 1_555
Na0 O3 2.382305 1_655
Na0 O3 2.480285 1_555
Na1 O4 2.271890 1_545
Na1 O3 2.313785 1_555
Na1 O0 2.371134 1_545
Na1 O2 2.382305 1_555
Na1 O2 2.480285 1_455
Na2 O2 2.271890 1_565
Na2 O5 2.313785 1_555
Na2 O7 2.371134 1_565
Na2 O4 2.382305 1_655
Na2 O4 2.480285 1_555
Na3 O3 2.271890 1_555
Na3 O4 2.313785 1_555
Na3 O6 2.371134 1_555
Na3 O5 2.382305 1_555
Na3 O5 2.480285 1_455
Na4 O13 2.271890 1_555
Na4 O11 2.313785 1_555
Na4 O9 2.371134 1_555
Na4 O10 2.382305 1_555
Na4 O10 2.480285 1_655
Na5 O12 2.271890 1_545
Na5 O10 2.313785 1_555
Na5 O8 2.371134 1_545
Na5 O11 2.382305 1_455
Na5 O11 2.480285 1_555
Na6 O11 2.271890 1_565
Na6 O13 2.313785 1_555
Na6 O15 2.371134 1_565
Na6 O12 2.382305 1_555
Na6 O12 2.480285 1_655
Na7 O10 2.271890 1_555
Na7 O12 2.313785 1_555
Na7 O14 2.371134 1_555
Na7 O13 2.382305 1_455
Na7 O13 2.480285 1_555
O0 Sb1 2.003786 1_555
O0 Sb0 2.017086 1_455
O1 Sb0 2.003786 1_555
O1 Sb1 2.017086 1_555
O2 Sb0 1.905617 1_545
O3 Sb1 1.905617 1_555
O4 Sb3 1.905617 1_565
O5 Sb2 1.905617 1_555
O6 Sb3 2.003786 1_555
O6 Sb2 2.017086 1_455
O7 Sb2 2.003786 1_555
O7 Sb3 2.017086 1_555
O8 Sb5 2.003786 1_555
O8 Sb4 2.017086 1_555
O9 Sb4 2.003786 1_555
O9 Sb5 2.017086 1_655
O10 Sb5 1.905617 1_555
O11 Sb4 1.905617 1_545
O12 Sb7 1.905617 1_565
O13 Sb6 1.905617 1_555
O14 Sb7 2.003786 1_555
O14 Sb6 2.017086 1_555
O15 Sb6 2.003786 1_555
O15 Sb7 2.017086 1_655
