# generated using pymatgen
data_MgMn2(GeO3)4
_symmetry_space_group_name_H-M   'P 1'
_cell_length_a   5.70259925
_cell_length_b   6.65123285
_cell_length_c   6.65125445
_cell_angle_alpha   82.41802872
_cell_angle_beta   75.96444230
_cell_angle_gamma   75.96501121
_symmetry_Int_Tables_number   1
_chemical_formula_structural   MgMn2(GeO3)4
_chemical_formula_sum   'Mg1 Mn2 Ge4 O12'
_cell_volume   236.72187443
_cell_formula_units_Z   1
loop_
 _symmetry_equiv_pos_site_id
 _symmetry_equiv_pos_as_xyz
  1  'x, y, z'
loop_
 _atom_site_type_symbol
 _atom_site_label
 _atom_site_symmetry_multiplicity
 _atom_site_fract_x
 _atom_site_fract_y
 _atom_site_fract_z
 _atom_site_occupancy
  Mg  Mg0  1  0.25006600  0.72336400  0.27661100  1
  Mn  Mn0  1  0.75001500  0.91438700  0.08560800  1
  Mn  Mn1  1  0.25000000  0.09099100  0.90903200  1
  Ge  Ge0  1  0.73909200  0.38569300  0.20438000  1
  Ge  Ge1  1  0.76088300  0.79566200  0.61423800  1
  Ge  Ge2  1  0.27286200  0.60938300  0.79186500  1
  Ge  Ge3  1  0.22714300  0.20808800  0.39067300  1
  O  O0  1  0.41752400  0.39541300  0.33692100  1
  O  O1  1  0.08254800  0.66316900  0.60446600  1
  O  O2  1  0.56709900  0.61958500  0.63407300  1
  O  O3  1  0.93292900  0.36588000  0.38040900  1
  O  O4  1  0.24545000  0.06899100  0.62754700  1
  O  O5  1  0.25448400  0.37250700  0.93095300  1
  O  O6  1  0.84576700  0.88647100  0.35152000  1
  O  O7  1  0.65416500  0.64848500  0.11373100  1
  O  O8  1  0.84062700  0.18681600  0.03386200  1
  O  O9  1  0.65934100  0.96602300  0.81321100  1
  O  O10  1  0.16881100  0.79865800  0.97957200  1
  O  O11  1  0.33119400  0.02043500  0.20132900  1
loop_
_geom_bond_atom_site_label_1
_geom_bond_atom_site_label_2
_geom_bond_distance
_geom_bond_site_symmetry_2
Mg0 O11 2.106851 1_565
Mg0 O10 2.106945 1_554
Mg0 O1 2.184670 1_555
Mg0 O0 2.185268 1_555
Mg0 O7 2.259829 1_555
Mg0 O6 2.261205 1_455
Mn0 O6 1.947651 1_555
Mn0 O7 1.947716 1_555
Mn0 O9 1.967726 1_554
Mn0 O8 1.967755 1_565
Mn0 O10 2.286518 1_654
Mn0 O11 2.286646 1_565
Mn1 O5 1.903937 1_555
Mn1 O4 1.903949 1_555
Mn1 O11 2.074795 1_556
Mn1 O10 2.074998 1_545
Mn1 O9 2.241240 1_545
Mn1 O8 2.241259 1_456
Ge0 O8 1.754193 1_555
Ge0 O7 1.762427 1_555
Ge0 O3 1.768163 1_555
Ge0 O0 1.821394 1_555
Ge1 O9 1.753983 1_555
Ge1 O6 1.762259 1_555
Ge1 O2 1.768152 1_555
Ge1 O1 1.821760 1_655
Ge2 O5 1.731329 1_555
Ge2 O2 1.761746 1_555
Ge2 O10 1.785717 1_555
Ge2 O1 1.791533 1_555
Ge3 O4 1.731285 1_555
Ge3 O3 1.761727 1_455
Ge3 O11 1.785790 1_555
Ge3 O0 1.791405 1_555
