# generated using pymatgen
data_MgMn4O7F
_symmetry_space_group_name_H-M   'P 1'
_cell_length_a   5.09439018
_cell_length_b   5.97341232
_cell_length_c   4.97831542
_cell_angle_alpha   94.91650142
_cell_angle_beta   96.38001950
_cell_angle_gamma   79.89210908
_symmetry_Int_Tables_number   1
_chemical_formula_structural   MgMn4O7F
_chemical_formula_sum   'Mg1 Mn4 O7 F1'
_cell_volume   147.87985627
_cell_formula_units_Z   1
loop_
 _symmetry_equiv_pos_site_id
 _symmetry_equiv_pos_as_xyz
  1  'x, y, z'
loop_
 _atom_site_type_symbol
 _atom_site_label
 _atom_site_symmetry_multiplicity
 _atom_site_fract_x
 _atom_site_fract_y
 _atom_site_fract_z
 _atom_site_occupancy
  Mg  Mg0  1  0.00878900  0.59866496  0.22160741  1
  Mn  Mn0  1  0.99683110  0.87277006  0.74269541  1
  Mn  Mn1  1  0.00019173  0.14952243  0.28066105  1
  Mn  Mn2  1  0.51235272  0.36701775  0.74305332  1
  Mn  Mn3  1  0.49550936  0.66408734  0.26202817  1
  O  O0  1  0.18490051  0.07111642  0.97038817  1
  O  O1  1  0.19599426  0.86124894  0.43081070  1
  O  O2  1  0.28276990  0.37747571  0.41886644  1
  O  O3  1  0.25489358  0.61170149  0.92744262  1
  O  O4  1  0.73858110  0.40032005  0.08741979  1
  O  O5  1  0.77352437  0.65744252  0.54460991  1
  O  O6  1  0.77518313  0.13173065  0.57437505  1
  F  F0  1  0.76659223  0.86785669  0.04604395  1
loop_
_geom_bond_atom_site_label_1
_geom_bond_atom_site_label_2
_geom_bond_distance
_geom_bond_site_symmetry_2
Mg0 O2 1.982095 1_555
Mg0 O4 1.994318 1_455
Mg0 O3 2.045588 1_554
Mg0 O5 2.080692 1_455
Mg0 O1 2.116315 1_555
Mn0 O0 1.879755 1_665
Mn0 O1 1.937066 1_655
Mn0 O6 1.941341 1_565
Mn0 O5 1.991959 1_555
Mn0 O3 2.064875 1_655
Mn1 O0 1.880167 1_554
Mn1 O6 1.976155 1_455
Mn1 O1 1.992726 1_545
Mn1 O4 2.051174 1_455
Mn1 O2 2.169601 1_555
Mn2 O2 1.883785 1_555
Mn2 O6 1.964777 1_555
Mn2 O4 1.972250 1_556
Mn2 O3 2.015912 1_555
Mn2 O5 2.674311 1_555
Mn3 O5 1.879784 1_555
Mn3 O1 1.976316 1_555
Mn3 O3 1.991600 1_554
Mn3 O4 2.022652 1_555
Mn3 O2 2.404953 1_555
F0 Mn0 2.017563 1_554
F0 Mg0 2.043708 1_655
F0 Mn1 2.380819 1_665
F0 Mn3 2.385213 1_555
