# generated using pymatgen
data_MgMn5FeO12
_symmetry_space_group_name_H-M   'P 1'
_cell_length_a   5.07764684
_cell_length_b   5.12158927
_cell_length_c   9.92063408
_cell_angle_alpha   93.53048536
_cell_angle_beta   97.13599918
_cell_angle_gamma   60.28341716
_symmetry_Int_Tables_number   1
_chemical_formula_structural   MgMn5FeO12
_chemical_formula_sum   'Mg1 Mn5 Fe1 O12'
_cell_volume   222.32762349
_cell_formula_units_Z   1
loop_
 _symmetry_equiv_pos_site_id
 _symmetry_equiv_pos_as_xyz
  1  'x, y, z'
loop_
 _atom_site_type_symbol
 _atom_site_label
 _atom_site_symmetry_multiplicity
 _atom_site_fract_x
 _atom_site_fract_y
 _atom_site_fract_z
 _atom_site_occupancy
  Mg  Mg0  1  0.92438766  1.00000000  0.75443588  1
  Mn  Mn0  1  0.17813516  0.66493455  0.49574662  1
  Mn  Mn1  1  0.64909471  0.66663098  0.98762604  1
  Mn  Mn2  1  0.31572669  0.33336902  0.98762604  1
  Mn  Mn3  1  0.84306971  0.33506545  0.49574662  1
  Mn  Mn4  1  0.51155774  1.00000000  0.49891099  1
  Fe  Fe0  1  0.99420372  1.00000000  0.04181377  1
  O  O0  1  0.00945473  0.63199048  0.09496788  1
  O  O1  1  0.28014162  0.67922337  0.89270476  1
  O  O2  1  0.15883868  0.32841199  0.40307203  1
  O  O3  1  0.48725167  0.67158801  0.40307203  1
  O  O4  1  0.56455406  0.30559788  0.60623676  1
  O  O5  1  0.19137133  0.00000000  0.60263757  1
  O  O6  1  0.87015294  0.69440212  0.60623676  1
  O  O7  1  0.64144521  0.36800952  0.09496788  1
  O  O8  1  0.37589688  1.00000000  0.09456155  1
  O  O9  1  0.95936499  0.32077663  0.89270476  1
  O  O10  1  0.63989499  0.00000000  0.89359035  1
  O  O11  1  0.80295750  1.00000000  0.39584172  1
loop_
_geom_bond_atom_site_label_1
_geom_bond_atom_site_label_2
_geom_bond_distance
_geom_bond_site_symmetry_2
Mg0 O10 2.118484 1_565
Mg0 O9 2.136217 1_565
Mg0 O1 2.136217 1_655
Mg0 O5 2.147752 1_665
Mg0 O6 2.174952 1_555
Mg0 O4 2.174955 1_565
Mn0 O3 1.930142 1_555
Mn0 O2 1.943019 1_555
Mn0 O6 1.959937 1_455
Mn0 O5 1.986561 1_565
Mn0 O11 2.013849 1_455
Mn0 O4 2.138318 1_555
Mn1 O0 1.931553 1_656
Mn1 O7 1.935043 1_556
Mn1 O8 1.938893 1_556
Mn1 O1 1.962139 1_555
Mn1 O10 1.973293 1_565
Mn1 O9 1.975563 1_555
Mn2 O7 1.931548 1_556
Mn2 O0 1.935045 1_556
Mn2 O8 1.938895 1_546
Mn2 O9 1.962143 1_455
Mn2 O10 1.973291 1_555
Mn2 O1 1.975561 1_555
Mn3 O2 1.930138 1_655
Mn3 O3 1.943017 1_555
Mn3 O4 1.959941 1_555
Mn3 O5 1.986561 1_655
Mn3 O11 2.013849 1_545
Mn3 O6 2.138320 1_555
Mn4 O11 1.900187 1_555
Mn4 O3 1.930806 1_555
Mn4 O2 1.930808 1_565
Mn4 O4 1.948564 1_565
Mn4 O6 1.948567 1_555
Mn4 O5 2.029229 1_565
Fe0 O8 1.943734 1_655
Fe0 O7 1.950402 1_565
Fe0 O0 1.950402 1_655
Fe0 O10 2.177525 1_564
Fe0 O1 2.205613 1_654
Fe0 O9 2.205613 1_564
