# generated using pymatgen
data_CsMgFe(MoO4)2
_symmetry_space_group_name_H-M   'P 1'
_cell_length_a   5.64219557
_cell_length_b   5.63430620
_cell_length_c   7.64834188
_cell_angle_alpha   90.91450137
_cell_angle_beta   90.55165320
_cell_angle_gamma   119.21288638
_symmetry_Int_Tables_number   1
_chemical_formula_structural   CsMgFe(MoO4)2
_chemical_formula_sum   'Cs1 Mg1 Fe1 Mo2 O8'
_cell_volume   212.14603104
_cell_formula_units_Z   1
loop_
 _symmetry_equiv_pos_site_id
 _symmetry_equiv_pos_as_xyz
  1  'x, y, z'
loop_
 _atom_site_type_symbol
 _atom_site_label
 _atom_site_symmetry_multiplicity
 _atom_site_fract_x
 _atom_site_fract_y
 _atom_site_fract_z
 _atom_site_occupancy
  Cs  Cs0  1  0.99726400  0.99769700  0.48794100  1
  Mg  Mg0  1  0.32577100  0.67078100  0.74965600  1
  Fe  Fe0  1  0.98983400  0.99288700  0.99250500  1
  Mo  Mo0  1  0.32994400  0.65768600  0.24131400  1
  Mo  Mo1  1  0.66662300  0.34081900  0.76549100  1
  O  O0  1  0.34015400  0.66624500  0.48203700  1
  O  O1  1  0.70829700  0.33900400  0.53642800  1
  O  O2  1  0.08021400  0.32829100  0.15784100  1
  O  O3  1  0.65527300  0.73735300  0.15984200  1
  O  O4  1  0.24680700  0.90475000  0.16347500  1
  O  O5  1  0.99124400  0.68010400  0.82920100  1
  O  O6  1  0.34127100  0.34029000  0.82994600  1
  O  O7  1  0.66063700  0.01075800  0.83088700  1
loop_
_geom_bond_atom_site_label_1
_geom_bond_atom_site_label_2
_geom_bond_distance
_geom_bond_site_symmetry_2
Cs0 O4 3.026654 1_655
Cs0 O3 3.032913 1_555
Cs0 O2 3.063446 1_665
Cs0 O1 3.089190 1_565
Cs0 O5 3.179168 1_555
Cs0 O6 3.227926 1_665
Cs0 O0 3.235910 1_555
Cs0 O1 3.273922 1_555
Cs0 O7 3.273985 1_565
Cs0 O0 3.279959 1_655
Cs0 O0 3.290512 1_665
Cs0 O1 3.513986 1_665
Mg0 O7 2.007912 1_565
Mg0 O6 2.011602 1_555
Mg0 O5 2.013280 1_455
Mg0 O0 2.049476 1_555
Fe0 O2 2.097855 1_666
Fe0 O5 2.146962 1_555
Fe0 O3 2.174090 1_556
Fe0 O4 2.178469 1_656
Fe0 O7 2.265024 1_565
Fe0 O6 2.376040 1_665
Mo0 O4 1.780637 1_555
Mo0 O3 1.784878 1_555
Mo0 O2 1.797123 1_555
Mo0 O0 1.840604 1_555
Mo1 O1 1.770434 1_555
Mo1 O6 1.903932 1_555
Mo1 O7 1.917908 1_555
Mo1 O5 1.944703 1_555
