# generated using pymatgen
data_MgZn2(FeO2)4
_symmetry_space_group_name_H-M   'P 1'
_cell_length_a   6.24991045
_cell_length_b   6.12269187
_cell_length_c   6.01060654
_cell_angle_alpha   90.00246609
_cell_angle_beta   117.63679322
_cell_angle_gamma   119.37193043
_symmetry_Int_Tables_number   1
_chemical_formula_structural   MgZn2(FeO2)4
_chemical_formula_sum   'Mg1 Zn2 Fe4 O8'
_cell_volume   169.67996145
_cell_formula_units_Z   1
loop_
 _symmetry_equiv_pos_site_id
 _symmetry_equiv_pos_as_xyz
  1  'x, y, z'
loop_
 _atom_site_type_symbol
 _atom_site_label
 _atom_site_symmetry_multiplicity
 _atom_site_fract_x
 _atom_site_fract_y
 _atom_site_fract_z
 _atom_site_occupancy
  Mg  Mg0  1  0.30392100  0.65261700  0.91000700  1
  Zn  Zn0  1  0.19191500  0.09651300  0.84598100  1
  Zn  Zn1  1  0.87850900  0.93894200  0.19592100  1
  Fe  Fe0  1  0.50343600  0.99712900  0.49792200  1
  Fe  Fe1  1  0.50174400  0.50475200  0.49638400  1
  Fe  Fe2  1  0.89004400  0.44537000  0.98460700  1
  Fe  Fe3  1  0.92563100  0.46297600  0.43944400  1
  O  O0  1  0.06115200  0.74882600  0.28106700  1
  O  O1  1  0.54640100  0.77273300  0.76000100  1
  O  O2  1  0.55541200  0.77750600  0.28977400  1
  O  O3  1  0.96742900  0.70185900  0.72987500  1
  O  O4  1  0.46514100  0.23254800  0.70374300  1
  O  O5  1  0.47337900  0.23637800  0.25281100  1
  O  O6  1  0.06086900  0.31193300  0.27925200  1
  O  O7  1  0.96668800  0.26575000  0.72904300  1
loop_
_geom_bond_atom_site_label_1
_geom_bond_atom_site_label_2
_geom_bond_distance
_geom_bond_site_symmetry_2
Mg0 O2 1.938547 1_556
Mg0 O1 1.955727 1_555
Mg0 O3 2.048300 1_455
Mg0 O7 2.052223 1_455
Fe0 O0 2.045981 1_555
Fe0 O4 2.068406 1_565
Fe0 O2 2.069863 1_555
Fe0 O5 2.089245 1_565
Fe0 O1 2.100194 1_555
Fe0 O7 2.148197 1_565
Fe1 O6 2.040110 1_555
Fe1 O4 2.067377 1_555
Fe1 O2 2.068986 1_555
Fe1 O5 2.085200 1_555
Fe1 O1 2.102599 1_555
Fe1 O3 2.159125 1_555
Fe2 O6 2.011315 1_656
Fe2 O4 2.011543 1_555
Fe2 O0 2.013362 1_656
Fe2 O3 2.233042 1_555
Fe2 O7 2.235571 1_555
Fe3 O0 1.995170 1_655
Fe3 O6 2.004601 1_655
Fe3 O5 2.093798 1_555
Fe3 O7 2.108011 1_555
Fe3 O3 2.111094 1_555
O0 Zn1 1.918695 1_455
O1 Zn1 2.256400 1_556
O2 Zn1 2.114664 1_555
O3 Zn0 2.014967 1_665
O4 Zn0 2.073630 1_555
O5 Zn0 2.082956 1_554
O6 Zn1 1.918917 1_445
O7 Zn0 2.015480 1_655
