# generated using pymatgen
data_Cd7(P2Cl3)2
_symmetry_space_group_name_H-M   'P 1'
_cell_length_a   12.00336537
_cell_length_b   12.00336537
_cell_length_c   12.00336537
_cell_angle_alpha   90.00000000
_cell_angle_beta   90.00000000
_cell_angle_gamma   90.00000000
_symmetry_Int_Tables_number   1
_chemical_formula_structural   Cd7(P2Cl3)2
_chemical_formula_sum   'Cd28 P16 Cl24'
_cell_volume   1729.45424760
_cell_formula_units_Z   4
loop_
 _symmetry_equiv_pos_site_id
 _symmetry_equiv_pos_as_xyz
  1  'x, y, z'
loop_
 _atom_site_type_symbol
 _atom_site_label
 _atom_site_symmetry_multiplicity
 _atom_site_fract_x
 _atom_site_fract_y
 _atom_site_fract_z
 _atom_site_occupancy
  Cd  Cd0  1  0.00000000  0.50000000  0.50000000  1
  Cd  Cd1  1  0.50000000  0.50000000  0.00000000  1
  Cd  Cd2  1  0.50000000  -0.00000000  0.50000000  1
  Cd  Cd3  1  0.00000000  -0.00000000  0.00000000  1
  Cd  Cd4  1  0.01505260  0.27482256  0.23266930  1
  Cd  Cd5  1  0.51505260  0.22517744  0.76733070  1
  Cd  Cd6  1  0.98494740  0.77482256  0.26733070  1
  Cd  Cd7  1  0.22517744  0.76733070  0.51505260  1
  Cd  Cd8  1  0.26733070  0.98494740  0.77482256  1
  Cd  Cd9  1  0.76733070  0.51505260  0.22517744  1
  Cd  Cd10  1  0.27482256  0.23266930  0.01505260  1
  Cd  Cd11  1  0.23266930  0.01505260  0.27482256  1
  Cd  Cd12  1  0.77482256  0.26733070  0.98494740  1
  Cd  Cd13  1  0.72517744  0.73266930  0.48494740  1
  Cd  Cd14  1  0.73266930  0.48494740  0.72517744  1
  Cd  Cd15  1  0.48494740  0.72517744  0.73266930  1
  Cd  Cd16  1  0.98494740  0.72517744  0.76733070  1
  Cd  Cd17  1  0.48494740  0.77482256  0.23266930  1
  Cd  Cd18  1  0.01505260  0.22517744  0.73266930  1
  Cd  Cd19  1  0.77482256  0.23266930  0.48494740  1
  Cd  Cd20  1  0.73266930  0.01505260  0.22517744  1
  Cd  Cd21  1  0.23266930  0.48494740  0.77482256  1
  Cd  Cd22  1  0.72517744  0.76733070  0.98494740  1
  Cd  Cd23  1  0.76733070  0.98494740  0.72517744  1
  Cd  Cd24  1  0.22517744  0.73266930  0.01505260  1
  Cd  Cd25  1  0.27482256  0.26733070  0.51505260  1
  Cd  Cd26  1  0.26733070  0.51505260  0.27482256  1
  Cd  Cd27  1  0.51505260  0.27482256  0.26733070  1
  P  P0  1  0.21301300  0.28698700  0.71301300  1
  P  P1  1  0.28698700  0.71301300  0.21301300  1
  P  P2  1  0.71301300  0.21301300  0.28698700  1
  P  P3  1  0.78698700  0.78698700  0.78698700  1
  P  P4  1  0.78698700  0.71301300  0.28698700  1
  P  P5  1  0.71301300  0.28698700  0.78698700  1
  P  P6  1  0.28698700  0.78698700  0.71301300  1
  P  P7  1  0.21301300  0.21301300  0.21301300  1
  P  P8  1  0.31772558  0.18227442  0.81772558  1
  P  P9  1  0.18227442  0.81772558  0.31772558  1
  P  P10  1  0.81772558  0.31772558  0.18227442  1
  P  P11  1  0.68227442  0.68227442  0.68227442  1
  P  P12  1  0.68227442  0.81772558  0.18227442  1
  P  P13  1  0.81772558  0.18227442  0.68227442  1
  P  P14  1  0.18227442  0.68227442  0.81772558  1
  P  P15  1  0.31772558  0.31772558  0.31772558  1
  Cl  Cl0  1  0.96228948  0.02125091  0.21827399  1
  Cl  Cl1  1  0.46228948  0.47874909  0.78172601  1
  Cl  Cl2  1  0.03771052  0.52125091  0.28172601  1
  Cl  Cl3  1  0.47874909  0.78172601  0.46228948  1
  Cl  Cl4  1  0.28172601  0.03771052  0.52125091  1
  Cl  Cl5  1  0.78172601  0.46228948  0.47874909  1
  Cl  Cl6  1  0.02125091  0.21827399  0.96228948  1
  Cl  Cl7  1  0.21827399  0.96228948  0.02125091  1
  Cl  Cl8  1  0.52125091  0.28172601  0.03771052  1
  Cl  Cl9  1  0.97874909  0.71827399  0.53771052  1
  Cl  Cl10  1  0.71827399  0.53771052  0.97874909  1
  Cl  Cl11  1  0.53771052  0.97874909  0.71827399  1
  Cl  Cl12  1  0.03771052  0.97874909  0.78172601  1
  Cl  Cl13  1  0.53771052  0.52125091  0.21827399  1
  Cl  Cl14  1  0.96228948  0.47874909  0.71827399  1
  Cl  Cl15  1  0.52125091  0.21827399  0.53771052  1
  Cl  Cl16  1  0.71827399  0.96228948  0.47874909  1
  Cl  Cl17  1  0.21827399  0.53771052  0.52125091  1
  Cl  Cl18  1  0.97874909  0.78172601  0.03771052  1
  Cl  Cl19  1  0.78172601  0.03771052  0.97874909  1
  Cl  Cl20  1  0.47874909  0.71827399  0.96228948  1
  Cl  Cl21  1  0.02125091  0.28172601  0.46228948  1
  Cl  Cl22  1  0.28172601  0.46228948  0.02125091  1
  Cl  Cl23  1  0.46228948  0.02125091  0.28172601  1
loop_
_geom_bond_atom_site_label_1
_geom_bond_atom_site_label_2
_geom_bond_distance
_geom_bond_site_symmetry_2
Cd0 Cl21 2.671045 1_555
Cd0 Cl2 2.671045 1_555
Cd0 Cl17 2.671045 1_555
Cd0 Cl5 2.671045 1_455
Cd0 Cl14 2.671045 1_455
Cd0 Cl9 2.671045 1_455
Cd1 Cl22 2.671045 1_555
Cd1 Cl8 2.671045 1_555
Cd1 Cl13 2.671045 1_555
Cd1 Cl10 2.671045 1_554
Cd1 Cl20 2.671045 1_554
Cd1 Cl1 2.671045 1_554
Cd2 Cl4 2.671045 1_555
Cd2 Cl23 2.671045 1_555
Cd2 Cl15 2.671045 1_555
Cd2 Cl11 2.671045 1_545
Cd2 Cl16 2.671045 1_545
Cd2 Cl3 2.671045 1_545
Cd3 Cl6 2.671045 1_554
Cd3 Cl7 2.671045 1_545
Cd3 Cl0 2.671045 1_455
Cd3 Cl18 2.671045 1_445
Cd3 Cl12 2.671045 1_544
Cd3 Cl19 2.671045 1_454
Cd4 P10 2.498265 1_455
Cd4 P7 2.500480 1_555
Cd4 Cl21 2.758464 1_555
Cd4 Cl2 3.028249 1_555
Cd4 Cl0 3.113705 1_455
Cd5 P8 2.498265 1_555
Cd5 P5 2.500480 1_555
Cd5 Cl15 2.758464 1_555
Cd5 Cl11 3.028249 1_545
Cd5 Cl1 3.113705 1_555
Cd6 P9 2.498265 1_655
Cd6 P4 2.500480 1_555
Cd6 Cl18 2.758464 1_555
Cd6 Cl0 3.028249 1_565
Cd6 Cl2 3.113705 1_655
Cd7 P9 2.498265 1_555
Cd7 P6 2.500480 1_555
Cd7 Cl17 2.758464 1_555
Cd7 Cl9 3.028249 1_455
Cd7 Cl3 3.113705 1_555
Cd8 P8 2.498265 1_565
Cd8 P6 2.500480 1_555
Cd8 Cl12 2.758464 1_555
Cd8 Cl7 3.028249 1_556
Cd8 Cl4 3.113705 1_565
Cd9 P10 2.498265 1_555
Cd9 P4 2.500480 1_555
Cd9 Cl13 2.758464 1_555
Cd9 Cl10 3.028249 1_554
Cd9 Cl5 3.113705 1_555
Cd10 P8 2.498265 1_554
Cd10 P7 2.500480 1_555
Cd10 Cl22 2.758464 1_555
Cd10 Cl8 3.028249 1_555
Cd10 Cl6 3.113705 1_554
Cd11 P9 2.498265 1_545
Cd11 P7 2.500480 1_555
Cd11 Cl23 2.758464 1_555
Cd11 Cl4 3.028249 1_555
Cd11 Cl7 3.113705 1_545
Cd12 P10 2.498265 1_556
Cd12 P5 2.500480 1_555
Cd12 Cl19 2.758464 1_555
Cd12 Cl6 3.028249 1_655
Cd12 Cl8 3.113705 1_556
Cd13 P11 2.498265 1_555
Cd13 P4 2.500480 1_555
Cd13 Cl16 2.758464 1_555
Cd13 Cl3 3.028249 1_555
Cd13 Cl9 3.113705 1_555
Cd14 P11 2.498265 1_555
Cd14 P5 2.500480 1_555
Cd14 Cl14 2.758464 1_555
Cd14 Cl5 3.028249 1_555
Cd14 Cl10 3.113705 1_555
Cd15 P11 2.498265 1_555
Cd15 P6 2.500480 1_555
Cd15 Cl20 2.758464 1_555
Cd15 Cl1 3.028249 1_555
Cd15 Cl11 3.113705 1_555
Cd16 P14 2.498265 1_655
Cd16 P3 2.500480 1_555
Cd16 Cl9 2.758464 1_555
Cd16 Cl14 3.028249 1_555
Cd16 Cl12 3.113705 1_655
Cd17 P12 2.498265 1_555
Cd17 P1 2.500480 1_555
Cd17 Cl3 2.758464 1_555
Cd17 Cl23 3.028249 1_565
Cd17 Cl13 3.113705 1_555
Cd18 P13 2.498265 1_455
Cd18 P0 2.500480 1_555
Cd18 Cl6 2.758464 1_555
Cd18 Cl12 3.028249 1_545
Cd18 Cl14 3.113705 1_455
Cd19 P13 2.498265 1_555
Cd19 P2 2.500480 1_555
Cd19 Cl5 2.758464 1_555
Cd19 Cl21 3.028249 1_655
Cd19 Cl15 3.113705 1_555
Cd20 P12 2.498265 1_545
Cd20 P2 2.500480 1_555
Cd20 Cl0 2.758464 1_555
Cd20 Cl19 3.028249 1_554
Cd20 Cl16 3.113705 1_545
Cd21 P14 2.498265 1_555
Cd21 P0 2.500480 1_555
Cd21 Cl1 2.758464 1_555
Cd21 Cl22 3.028249 1_556
Cd21 Cl17 3.113705 1_555
Cd22 P12 2.498265 1_556
Cd22 P3 2.500480 1_555
Cd22 Cl10 2.758464 1_555
Cd22 Cl20 3.028249 1_555
Cd22 Cl18 3.113705 1_556
Cd23 P13 2.498265 1_565
Cd23 P3 2.500480 1_555
Cd23 Cl11 2.758464 1_555
Cd23 Cl16 3.028249 1_555
Cd23 Cl19 3.113705 1_565
Cd24 P14 2.498265 1_554
Cd24 P1 2.500480 1_555
Cd24 Cl7 2.758464 1_555
Cd24 Cl18 3.028249 1_455
Cd24 Cl20 3.113705 1_554
Cd25 P15 2.498265 1_555
Cd25 P0 2.500480 1_555
Cd25 Cl4 2.758464 1_555
Cd25 Cl15 3.028249 1_555
Cd25 Cl21 3.113705 1_555
Cd26 P15 2.498265 1_555
Cd26 P1 2.500480 1_555
Cd26 Cl2 2.758464 1_555
Cd26 Cl17 3.028249 1_555
Cd26 Cl22 3.113705 1_555
Cd27 P15 2.498265 1_555
Cd27 P2 2.500480 1_555
Cd27 Cl8 2.758464 1_555
Cd27 Cl13 3.028249 1_555
Cd27 Cl23 3.113705 1_555
P0 P8 2.177020 1_555
P1 P9 2.177020 1_555
P10 P2 2.177020 1_555
P11 P3 2.177020 1_555
P12 P4 2.177020 1_555
P13 P5 2.177020 1_555
P14 P6 2.177020 1_555
P15 P7 2.177020 1_555
