# generated using pymatgen
data_MgFe4O5F3
_symmetry_space_group_name_H-M   'P 1'
_cell_length_a   5.25767614
_cell_length_b   5.80986455
_cell_length_c   5.81482206
_cell_angle_alpha   119.52749173
_cell_angle_beta   100.44971097
_cell_angle_gamma   79.42167805
_symmetry_Int_Tables_number   1
_chemical_formula_structural   MgFe4O5F3
_chemical_formula_sum   'Mg1 Fe4 O5 F3'
_cell_volume   151.06520425
_cell_formula_units_Z   1
loop_
 _symmetry_equiv_pos_site_id
 _symmetry_equiv_pos_as_xyz
  1  'x, y, z'
loop_
 _atom_site_type_symbol
 _atom_site_label
 _atom_site_symmetry_multiplicity
 _atom_site_fract_x
 _atom_site_fract_y
 _atom_site_fract_z
 _atom_site_occupancy
  Mg  Mg0  1  0.49160800  0.74526000  0.73239800  1
  Fe  Fe0  1  0.57902800  0.02970900  0.44938000  1
  Fe  Fe1  1  0.44618800  0.45896400  0.01854500  1
  Fe  Fe2  1  0.99522200  0.46752500  0.47663400  1
  Fe  Fe3  1  0.98982500  0.99874400  0.01999200  1
  O  O0  1  0.85357900  0.11737300  0.34438500  1
  O  O1  1  0.64720900  0.10246700  0.84575900  1
  O  O2  1  0.63603800  0.63807800  0.37450400  1
  O  O3  1  0.35314600  0.85029700  0.09750200  1
  O  O4  1  0.36531500  0.38181100  0.63373400  1
  F  F0  1  0.85034900  0.63606900  0.85936800  1
  F  F1  1  0.15398100  0.35008400  0.10799900  1
  F  F2  1  0.12462600  0.85456700  0.64694600  1
loop_
_geom_bond_atom_site_label_1
_geom_bond_atom_site_label_2
_geom_bond_distance
_geom_bond_site_symmetry_2
Mg0 O4 2.100326 1_555
Mg0 O2 2.101811 1_555
Mg0 O1 2.118988 1_565
Mg0 O3 2.128395 1_556
Fe0 O0 1.900515 1_555
Fe0 O4 2.006967 1_555
Fe0 O3 2.038211 1_545
Fe0 O2 2.068083 1_545
Fe0 O1 2.101238 1_555
Fe1 O2 1.967820 1_555
Fe1 O1 1.986619 1_554
Fe1 O4 2.030965 1_554
Fe1 O3 2.064829 1_555
Fe2 O0 2.022617 1_555
Fe2 O4 2.077637 1_655
Fe2 O2 2.094524 1_555
Fe3 O0 1.890415 1_565
Fe3 O3 2.015411 1_655
Fe3 O1 2.043455 1_564
F0 Mg0 2.005563 1_555
F0 Fe3 2.056448 1_556
F0 Fe2 2.164491 1_555
F1 Fe1 2.000516 1_555
F1 Fe3 2.151843 1_445
F1 Fe2 2.180680 1_455
F2 Mg0 1.971403 1_555
F2 Fe3 2.111417 1_456
F2 Fe2 2.149977 1_455
