# generated using pymatgen
data_Fe3(P2O7)2
_symmetry_space_group_name_H-M   'P 1'
_cell_length_a   7.89603000
_cell_length_b   7.30245800
_cell_length_c   9.52900826
_cell_angle_alpha   68.87811516
_cell_angle_beta   90.00000000
_cell_angle_gamma   90.00000000
_symmetry_Int_Tables_number   1
_chemical_formula_structural   Fe3(P2O7)2
_chemical_formula_sum   'Fe6 P8 O28'
_cell_volume   512.53264171
_cell_formula_units_Z   2
loop_
 _symmetry_equiv_pos_site_id
 _symmetry_equiv_pos_as_xyz
  1  'x, y, z'
loop_
 _atom_site_type_symbol
 _atom_site_label
 _atom_site_symmetry_multiplicity
 _atom_site_fract_x
 _atom_site_fract_y
 _atom_site_fract_z
 _atom_site_occupancy
  Fe  Fe0  1  0.63484100  0.19390600  0.47067800  1
  Fe  Fe1  1  0.86515900  0.19390600  0.97067800  1
  Fe  Fe2  1  0.13484100  0.80609400  0.02932200  1
  Fe  Fe3  1  0.50000000  0.00000000  0.00000000  1
  Fe  Fe4  1  0.36515900  0.80609400  0.52932200  1
  Fe  Fe5  1  0.00000000  0.00000000  0.50000000  1
  P  P0  1  0.71093100  0.88440000  0.30443800  1
  P  P1  1  0.05220900  0.59698500  0.79540400  1
  P  P2  1  0.44779100  0.59698500  0.29540400  1
  P  P3  1  0.55220900  0.40301500  0.70459600  1
  P  P4  1  0.94779100  0.40301500  0.20459600  1
  P  P5  1  0.28906900  0.11560000  0.69556200  1
  P  P6  1  0.78906900  0.88440000  0.80443800  1
  P  P7  1  0.21093100  0.11560000  0.19556200  1
  O  O0  1  0.62952800  0.28235800  0.86019600  1
  O  O1  1  0.71630400  0.00550300  0.13381300  1
  O  O2  1  0.07921900  0.03352800  0.10966400  1
  O  O3  1  0.37929900  0.14726800  0.11755000  1
  O  O4  1  0.78369600  0.00550300  0.63381300  1
  O  O5  1  0.42078100  0.03352800  0.60966400  1
  O  O6  1  0.28369600  0.99449700  0.86618700  1
  O  O7  1  0.92078100  0.96647200  0.89033600  1
  O  O8  1  0.62070100  0.85273200  0.88245000  1
  O  O9  1  0.21630400  0.99449700  0.36618700  1
  O  O10  1  0.57921900  0.96647200  0.39033600  1
  O  O11  1  0.86436500  0.68118800  0.80463300  1
  O  O12  1  0.15695000  0.62967300  0.91882600  1
  O  O13  1  0.87929900  0.85273200  0.38245000  1
  O  O14  1  0.12952800  0.71764200  0.63980400  1
  O  O15  1  0.51600200  0.61772600  0.67899000  1
  O  O16  1  0.63563500  0.68118800  0.30463300  1
  O  O17  1  0.84305000  0.37032700  0.08117400  1
  O  O18  1  0.37047200  0.71764200  0.13980400  1
  O  O19  1  0.01600200  0.38227400  0.82101000  1
  O  O20  1  0.98399800  0.61772600  0.17899000  1
  O  O21  1  0.13563500  0.31881200  0.19536700  1
  O  O22  1  0.65695000  0.37032700  0.58117400  1
  O  O23  1  0.36436500  0.31881200  0.69536700  1
  O  O24  1  0.48399800  0.38227400  0.32101000  1
  O  O25  1  0.87047200  0.28235800  0.36019600  1
  O  O26  1  0.12070100  0.14726800  0.61755000  1
  O  O27  1  0.34305000  0.62967300  0.41882600  1
loop_
_geom_bond_atom_site_label_1
_geom_bond_atom_site_label_2
_geom_bond_distance
_geom_bond_site_symmetry_2
Fe0 O22 1.943314 1_555
Fe0 O24 1.982649 1_555
Fe0 O4 2.037021 1_555
Fe0 O10 2.110385 1_545
Fe0 O25 2.120641 1_555
Fe0 O5 2.205589 1_555
Fe1 O17 1.943314 1_556
Fe1 O19 1.982649 1_655
Fe1 O1 2.037021 1_556
Fe1 O7 2.110385 1_545
Fe1 O0 2.120641 1_555
Fe1 O2 2.205589 1_656
Fe2 O12 1.943314 1_554
Fe2 O20 1.982649 1_455
Fe2 O6 2.037021 1_554
Fe2 O2 2.110385 1_565
Fe2 O18 2.120641 1_555
Fe2 O7 2.205589 1_454
Fe3 O8 2.046392 1_544
Fe3 O3 2.046392 1_555
Fe3 O6 2.140445 1_544
Fe3 O1 2.140445 1_555
Fe3 O0 2.256669 1_554
Fe3 O18 2.256669 1_545
Fe4 O27 1.943314 1_555
Fe4 O15 1.982649 1_555
Fe4 O9 2.037021 1_555
Fe4 O5 2.110385 1_565
Fe4 O14 2.120641 1_555
Fe4 O10 2.205589 1_555
Fe5 O13 2.046392 1_445
Fe5 O26 2.046392 1_555
Fe5 O9 2.140445 1_545
Fe5 O4 2.140445 1_455
Fe5 O14 2.256669 1_545
Fe5 O25 2.256669 1_455
O0 P3 1.551114 1_555
O1 P0 1.546323 1_545
O2 P7 1.569818 1_555
O3 P7 1.499866 1_555
O4 P6 1.546323 1_545
O5 P5 1.569818 1_555
O6 P5 1.546323 1_565
O7 P6 1.569818 1_555
O8 P6 1.499866 1_555
O9 P7 1.546323 1_565
O10 P0 1.569818 1_555
O11 P6 1.597996 1_555
O11 P1 1.620105 1_655
O12 P1 1.525282 1_555
O13 P0 1.499866 1_555
O14 P1 1.551114 1_555
O15 P3 1.524439 1_555
O16 P0 1.597996 1_555
O16 P2 1.620105 1_555
O17 P4 1.525282 1_555
O18 P2 1.551114 1_555
O19 P1 1.524439 1_555
O20 P4 1.524439 1_555
O21 P7 1.597996 1_555
O21 P4 1.620105 1_455
O22 P3 1.525282 1_555
O23 P5 1.597996 1_555
O23 P3 1.620105 1_555
O24 P2 1.524439 1_555
O25 P4 1.551114 1_555
O26 P5 1.499866 1_555
O27 P2 1.525282 1_555
