# generated using pymatgen
data_Na14Ca5Hf3Si6(SO8)6
_symmetry_space_group_name_H-M   'P 1'
_cell_length_a   18.80376032
_cell_length_b   9.39551820
_cell_length_c   22.97475905
_cell_angle_alpha   89.96883485
_cell_angle_beta   90.04805597
_cell_angle_gamma   119.92580209
_symmetry_Int_Tables_number   1
_chemical_formula_structural   Na14Ca5Hf3Si6(SO8)6
_chemical_formula_sum   'Na42 Ca15 Hf9 Si18 S18 O144'
_cell_volume   3517.79969887
_cell_formula_units_Z   3
loop_
 _symmetry_equiv_pos_site_id
 _symmetry_equiv_pos_as_xyz
  1  'x, y, z'
loop_
 _atom_site_type_symbol
 _atom_site_label
 _atom_site_symmetry_multiplicity
 _atom_site_fract_x
 _atom_site_fract_y
 _atom_site_fract_z
 _atom_site_occupancy
  Na  Na0  1  0.19572811  0.35579847  0.24477107  1
  Na  Na1  1  0.69080978  0.35271261  0.24393013  1
  Na  Na2  1  0.99348758  0.64997031  0.25365658  1
  Na  Na3  1  0.49216066  0.63849999  0.23956776  1
  Na  Na4  1  0.31615343  0.63336933  0.74792718  1
  Na  Na5  1  0.81390213  0.62500947  0.73400156  1
  Na  Na6  1  0.18965558  0.03306910  0.74507302  1
  Na  Na7  1  0.69194863  0.03272889  0.74500457  1
  Na  Na8  1  0.15415880  0.31965354  0.57527890  1
  Na  Na9  1  0.67243770  0.35244802  0.57632209  1
  Na  Na10  1  0.00937497  0.70281064  0.57962999  1
  Na  Na11  1  0.51879052  0.70329728  0.58232725  1
  Na  Na12  1  0.31970526  0.97480314  0.59525474  1
  Na  Na13  1  0.81941472  0.95549380  0.59262468  1
  Na  Na14  1  0.15814734  0.98322647  0.07621423  1
  Na  Na15  1  0.64627778  0.96292434  0.07132540  1
  Na  Na16  1  0.81550540  0.66018867  0.09383180  1
  Na  Na17  1  0.01879030  0.33264779  0.08031496  1
  Na  Na18  1  0.52293365  0.35728118  0.08926310  1
  Na  Na19  1  0.49754749  0.68684140  0.92437758  1
  Na  Na20  1  0.99587560  0.68852653  0.91719250  1
  Na  Na21  1  0.84359265  0.03253852  0.90236356  1
  Na  Na22  1  0.16356061  0.27775737  0.90470308  1
  Na  Na23  1  0.66239650  0.27072732  0.91316075  1
  Na  Na24  1  0.49755258  0.30918514  0.41757599  1
  Na  Na25  1  0.99200761  0.30043100  0.42119968  1
  Na  Na26  1  0.16329107  0.05670858  0.41338510  1
  Na  Na27  1  0.66588898  0.05847253  0.41355094  1
  Na  Na28  1  0.34731218  0.65360787  0.40195657  1
  Na  Na29  1  0.84645428  0.65291968  0.41538534  1
  Na  Na30  1  0.00768827  0.00077511  0.50310426  1
  Na  Na31  1  0.52323290  0.02903251  0.49790235  1
  Na  Na32  1  0.01489870  0.00986821  0.99668684  1
  Na  Na33  1  0.50714376  0.99783220  0.00177875  1
  Na  Na34  1  0.32951540  0.29103830  0.82803230  1
  Na  Na35  1  0.82229538  0.30128217  0.82419981  1
  Na  Na36  1  0.32022906  0.32643106  0.32336865  1
  Na  Na37  1  0.81438835  0.32223823  0.32686481  1
  Na  Na38  1  0.18947182  0.67508824  0.16465457  1
  Na  Na39  1  0.66151825  0.66452933  0.16126794  1
  Na  Na40  1  0.16241726  0.67091856  0.66683328  1
  Na  Na41  1  0.67560361  0.67404662  0.66061650  1
  Ca  Ca0  1  0.00156602  0.00039218  0.34687681  1
  Ca  Ca1  1  0.50171013  0.99915733  0.34469795  1
  Ca  Ca2  1  0.00351115  0.01096553  0.84473249  1
  Ca  Ca3  1  0.50016202  0.00893059  0.84975167  1
  Ca  Ca4  1  0.33089397  0.32227073  0.68442871  1
  Ca  Ca5  1  0.82958039  0.32581377  0.68173423  1
  Ca  Ca6  1  0.33067279  0.33586976  0.18251674  1
  Ca  Ca7  1  0.82725858  0.32385885  0.18355705  1
  Ca  Ca8  1  0.81954533  0.31456910  0.98409509  1
  Ca  Ca9  1  0.32160158  0.32460130  0.48355551  1
  Ca  Ca10  1  0.82273508  0.33737611  0.48809044  1
  Ca  Ca11  1  0.17209795  0.67092190  0.01641056  1
  Ca  Ca12  1  0.66433124  0.66717905  0.01626842  1
  Ca  Ca13  1  0.16662484  0.66605659  0.51573387  1
  Ca  Ca14  1  0.67013189  0.66643956  0.51676434  1
  Hf  Hf0  1  0.00017485  0.01000332  0.65411156  1
  Hf  Hf1  1  0.50543522  0.02194530  0.65683322  1
  Hf  Hf2  1  0.00495452  0.99415562  0.15512798  1
  Hf  Hf3  1  0.50032208  0.97410171  0.15012705  1
  Hf  Hf4  1  0.32489785  0.32823515  0.98643082  1
  Hf  Hf5  1  0.17619128  0.67227820  0.31096251  1
  Hf  Hf6  1  0.67502849  0.66885853  0.30953063  1
  Hf  Hf7  1  0.17257487  0.68165403  0.81224650  1
  Hf  Hf8  1  0.66993315  0.67615646  0.81082226  1
  Si  Si0  1  0.15182623  0.99184311  0.25469158  1
  Si  Si1  1  0.64956029  0.98986735  0.25340294  1
  Si  Si2  1  0.35119564  0.70325216  0.25432821  1
  Si  Si3  1  0.85148659  0.70153130  0.25191197  1
  Si  Si4  1  0.15125488  0.31139833  0.75242490  1
  Si  Si5  1  0.65183286  0.30831838  0.75627131  1
  Si  Si6  1  0.34981173  0.99669673  0.75038983  1
  Si  Si7  1  0.84992652  0.00055782  0.75547257  1
  Si  Si8  1  0.17604355  0.02160566  0.58509889  1
  Si  Si9  1  0.67283829  0.02223563  0.58523772  1
  Si  Si10  1  0.84006089  0.65173360  0.58554150  1
  Si  Si11  1  0.47999053  0.62872388  0.08370412  1
  Si  Si12  1  0.17675730  0.32602858  0.08761836  1
  Si  Si13  1  0.67516343  0.32618178  0.08568217  1
  Si  Si14  1  0.16798303  0.96736531  0.92040088  1
  Si  Si15  1  0.66673395  0.96574391  0.91609026  1
  Si  Si16  1  0.16543707  0.36960904  0.41719082  1
  Si  Si17  1  0.66438334  0.36714111  0.41597015  1
  S  S0  1  0.00528390  0.30331277  0.24963203  1
  S  S1  1  0.50340312  0.30414250  0.25150334  1
  S  S2  1  0.00448178  0.70723171  0.75171506  1
  S  S3  1  0.50369620  0.70989112  0.75057603  1
  S  S4  1  0.48211477  0.32469785  0.58276085  1
  S  S5  1  0.98429413  0.32837962  0.58335205  1
  S  S6  1  0.33951648  0.64670623  0.58490975  1
  S  S7  1  0.98382623  0.64015172  0.08454417  1
  S  S8  1  0.33619188  0.04464766  0.08351458  1
  S  S9  1  0.84245446  0.03510106  0.08326475  1
  S  S10  1  0.31322489  0.65506662  0.91507757  1
  S  S11  1  0.81434667  0.66639033  0.91547363  1
  S  S12  1  0.02046192  0.37915874  0.91685555  1
  S  S13  1  0.51562653  0.37607013  0.91702121  1
  S  S14  1  0.31400373  0.96237020  0.41584087  1
  S  S15  1  0.81364200  0.96378364  0.41437873  1
  S  S16  1  0.01902929  0.66132607  0.41428738  1
  S  S17  1  0.51897360  0.66260118  0.41612708  1
  O  O0  1  0.11136214  0.01880117  0.31205504  1
  O  O1  1  0.61292922  0.02159464  0.31185038  1
  O  O2  1  0.39305941  0.77674493  0.31592216  1
  O  O3  1  0.89902810  0.78092197  0.31131229  1
  O  O4  1  0.49462406  0.21563503  0.30623846  1
  O  O5  1  0.99152689  0.21094625  0.30350353  1
  O  O6  1  0.11860223  0.20036009  0.81030122  1
  O  O7  1  0.61431605  0.19548908  0.81261563  1
  O  O8  1  0.49152453  0.77639594  0.80484726  1
  O  O9  1  0.99229002  0.77440615  0.80608585  1
  O  O10  1  0.39740499  0.98858521  0.80563095  1
  O  O11  1  0.89197389  0.00272936  0.81623579  1
  O  O12  1  0.39380254  0.97079144  0.68987601  1
  O  O13  1  0.90063220  0.97456131  0.70010658  1
  O  O14  1  0.09060890  0.20763409  0.69613629  1
  O  O15  1  0.59056962  0.20635075  0.69826048  1
  O  O16  1  0.01714354  0.82112891  0.70149156  1
  O  O17  1  0.51557281  0.82444905  0.70010688  1
  O  O18  1  0.40343276  0.82946552  0.19991648  1
  O  O19  1  0.90200039  0.82316616  0.19402203  1
  O  O20  1  0.01507785  0.21036872  0.19873215  1
  O  O21  1  0.51345833  0.21758085  0.20045566  1
  O  O22  1  0.08645382  0.96779282  0.19760812  1
  O  O23  1  0.58538491  0.96266661  0.19631530  1
  O  O24  1  0.44063499  0.35089275  0.63213322  1
  O  O25  1  0.94225726  0.35071504  0.63249333  1
  O  O26  1  0.23875433  0.10771944  0.63891668  1
  O  O27  1  0.73157998  0.10403334  0.64095845  1
  O  O28  1  0.33039175  0.54634760  0.63673119  1
  O  O29  1  0.82947513  0.53946466  0.64169691  1
  O  O30  1  0.44516300  0.52012699  0.14128950  1
  O  O31  1  0.94450059  0.53729427  0.13569279  1
  O  O32  1  0.32290315  0.11515213  0.13542208  1
  O  O33  1  0.83242578  0.12010887  0.13290216  1
  O  O34  1  0.22336358  0.33926850  0.14662737  1
  O  O35  1  0.73655163  0.36123167  0.14006365  1
  O  O36  1  0.22901676  0.30108137  0.03057140  1
  O  O37  1  0.70876251  0.28283552  0.02590831  1
  O  O38  1  0.41938974  0.52570673  0.02532798  1
  O  O39  1  0.93605089  0.56622229  0.03066394  1
  O  O40  1  0.34311750  0.15105820  0.03101053  1
  O  O41  1  0.85664422  0.13223384  0.02892610  1
  O  O42  1  0.21095597  0.12867394  0.52475974  1
  O  O43  1  0.70654984  0.13359893  0.52589340  1
  O  O44  1  0.35130828  0.57034489  0.53189902  1
  O  O45  1  0.86173835  0.58330073  0.52607337  1
  O  O46  1  0.43501000  0.29771837  0.52813186  1
  O  O47  1  0.93903479  0.30427660  0.52779358  1
  O  O48  1  0.27489473  0.67571956  0.96698745  1
  O  O49  1  0.77684953  0.68181187  0.96952009  1
  O  O50  1  0.06491399  0.44854729  0.97206658  1
  O  O51  1  0.56155583  0.44654136  0.97128788  1
  O  O52  1  0.15448623  0.86396172  0.97937696  1
  O  O53  1  0.66404473  0.87344417  0.97576212  1
  O  O54  1  0.27667954  0.87310113  0.47009008  1
  O  O55  1  0.77643477  0.87573705  0.46890167  1
  O  O56  1  0.15967345  0.45040231  0.47793820  1
  O  O57  1  0.65423483  0.44606703  0.47564749  1
  O  O58  1  0.06604209  0.68076743  0.46808983  1
  O  O59  1  0.56493726  0.68081383  0.47041764  1
  O  O60  1  0.06660121  0.65723477  0.36240988  1
  O  O61  1  0.56563136  0.65500867  0.36463760  1
  O  O62  1  0.25859138  0.86665423  0.36534645  1
  O  O63  1  0.75886646  0.86714695  0.36399543  1
  O  O64  1  0.16908124  0.49403174  0.36180941  1
  O  O65  1  0.66843262  0.49075421  0.36025701  1
  O  O66  1  0.07022172  0.48556480  0.86716157  1
  O  O67  1  0.56169437  0.48470138  0.86660880  1
  O  O68  1  0.17463047  0.86048961  0.86312534  1
  O  O69  1  0.66944655  0.84979172  0.86011813  1
  O  O70  1  0.26159894  0.63799661  0.86216720  1
  O  O71  1  0.75999879  0.65194793  0.86441929  1
  O  O72  1  0.00495843  0.80323087  0.41190857  1
  O  O73  1  0.50500140  0.80495893  0.41323748  1
  O  O74  1  0.39604146  0.97953155  0.41045967  1
  O  O75  1  0.89579304  0.97989658  0.40954878  1
  O  O76  1  0.08181315  0.18783836  0.41536070  1
  O  O77  1  0.58168316  0.18383065  0.41378073  1
  O  O78  1  0.00799055  0.21034288  0.91229246  1
  O  O79  1  0.50472218  0.21030309  0.91138409  1
  O  O80  1  0.08588917  0.98764721  0.91521968  1
  O  O81  1  0.58256860  0.97836884  0.91627536  1
  O  O82  1  0.39830859  0.78718261  0.90956265  1
  O  O83  1  0.89751082  0.81272022  0.91069346  1
  O  O84  1  0.48686649  0.16845799  0.59147356  1
  O  O85  1  0.99088189  0.17439749  0.59096142  1
  O  O86  1  0.08557161  0.01338298  0.59559359  1
  O  O87  1  0.57829974  0.00649071  0.59500433  1
  O  O88  1  0.41436693  0.81377104  0.59016172  1
  O  O89  1  0.92169583  0.84110719  0.59454849  1
  O  O90  1  0.48606102  0.81448766  0.08687454  1
  O  O91  1  0.98770198  0.80604952  0.09070050  1
  O  O92  1  0.41420420  0.04011410  0.08527854  1
  O  O93  1  0.91889432  0.02086233  0.09077403  1
  O  O94  1  0.08440725  0.14588032  0.08771940  1
  O  O95  1  0.58097005  0.16183695  0.09648433  1
  O  O96  1  0.33168625  0.14708787  0.74873388  1
  O  O97  1  0.83228748  0.15002568  0.74892980  1
  O  O98  1  0.24564563  0.35134545  0.74357107  1
  O  O99  1  0.74451535  0.34166433  0.74799800  1
  O  O100  1  0.43270550  0.54855415  0.73934645  1
  O  O101  1  0.93521273  0.54338690  0.74191011  1
  O  O102  1  0.34098883  0.52187269  0.24878470  1
  O  O103  1  0.84447362  0.52251690  0.24580751  1
  O  O104  1  0.43544896  0.33685475  0.24566986  1
  O  O105  1  0.93907578  0.33864457  0.23892060  1
  O  O106  1  0.24116225  0.14776040  0.24620401  1
  O  O107  1  0.73942840  0.14769130  0.24485111  1
  O  O108  1  0.31335383  0.49273393  0.91903098  1
  O  O109  1  0.82193153  0.51621190  0.91541185  1
  O  O110  1  0.43381843  0.37033093  0.91966303  1
  O  O111  1  0.93998728  0.37395191  0.91702395  1
  O  O112  1  0.25222061  0.15667685  0.92326984  1
  O  O113  1  0.75218838  0.14454254  0.90908301  1
  O  O114  1  0.32077208  0.12664923  0.41506903  1
  O  O115  1  0.82148555  0.12898650  0.41371792  1
  O  O116  1  0.25083290  0.36135857  0.41038951  1
  O  O117  1  0.75007538  0.36011254  0.41066352  1
  O  O118  1  0.43809872  0.50609987  0.41736434  1
  O  O119  1  0.93955102  0.50352791  0.41469731  1
  O  O120  1  0.15686184  0.47419179  0.07922082  1
  O  O121  1  0.66696124  0.49209173  0.08219708  1
  O  O122  1  0.06898195  0.67076275  0.08091423  1
  O  O123  1  0.57442211  0.66864248  0.07755209  1
  O  O124  1  0.26401520  0.87823094  0.07604580  1
  O  O125  1  0.77060455  0.86723201  0.07917086  1
  O  O126  1  0.15965321  0.83193889  0.58319523  1
  O  O127  1  0.65611104  0.83383519  0.58134357  1
  O  O128  1  0.26541749  0.66544125  0.58088046  1
  O  O129  1  0.75760454  0.66996975  0.58297811  1
  O  O130  1  0.06925057  0.47015270  0.58089985  1
  O  O131  1  0.56642144  0.46505572  0.57962918  1
  O  O132  1  0.14535698  0.80708119  0.25655986  1
  O  O133  1  0.64631206  0.80855868  0.25675151  1
  O  O134  1  0.25547224  0.67960193  0.25361644  1
  O  O135  1  0.75630032  0.67700924  0.25281174  1
  O  O136  1  0.08510850  0.46458261  0.25229383  1
  O  O137  1  0.58300430  0.47082751  0.25394679  1
  O  O138  1  0.15484511  0.49242435  0.75976362  1
  O  O139  1  0.65462267  0.48785040  0.75929212  1
  O  O140  1  0.08402836  0.70294441  0.75518474  1
  O  O141  1  0.58153458  0.70098043  0.75286232  1
  O  O142  1  0.25460915  0.82109071  0.75304818  1
  O  O143  1  0.75604328  0.82143250  0.75462793  1
loop_
_geom_bond_atom_site_label_1
_geom_bond_atom_site_label_2
_geom_bond_distance
_geom_bond_site_symmetry_2
Na0 O34 2.336938 1_555
Na0 O102 2.377243 1_555
Na0 O106 2.493505 1_555
Na0 O134 2.673789 1_555
Na0 O136 2.742849 1_555
Na1 O103 2.509282 1_555
Na1 O107 2.510736 1_555
Na1 O35 2.524920 1_555
Na1 O135 2.664289 1_555
Na1 O137 2.763961 1_555
Na2 O103 2.443226 1_555
Na2 O132 2.476360 1_655
Na2 O105 2.594591 1_555
Na2 O60 2.835219 1_655
Na2 O31 2.887962 1_555
Na2 O22 2.902096 1_655
Na2 O3 2.934187 1_555
Na2 O136 2.999540 1_655
Na3 O30 2.476861 1_555
Na3 O104 2.484626 1_555
Na3 O102 2.493758 1_555
Na3 O133 2.547271 1_555
Na3 O23 2.830072 1_555
Na3 O137 2.862233 1_555
Na4 O98 2.298671 1_555
Na4 O142 2.549680 1_555
Na4 O138 2.649754 1_555
Na4 O100 2.687101 1_555
Na4 O28 2.736513 1_555
Na4 O70 2.827026 1_555
Na5 O99 2.329602 1_555
Na5 O29 2.338107 1_555
Na5 O143 2.611366 1_555
Na5 O139 2.668286 1_555
Na5 O101 2.751199 1_555
Na5 O13 2.950846 1_555
Na6 O96 2.330768 1_555
Na6 O26 2.578458 1_555
Na6 O98 2.628807 1_555
Na6 O140 2.733620 1_545
Na6 O142 2.813945 1_545
Na6 O6 2.933023 1_555
Na6 O16 3.007030 1_545
Na7 O97 2.298796 1_555
Na7 O27 2.494286 1_555
Na7 O99 2.558194 1_555
Na7 O141 2.757117 1_545
Na7 O143 2.798030 1_545
Na8 O56 2.528150 1_555
Na8 O86 2.541308 1_555
Na8 O130 2.611192 1_555
Na8 O85 2.690585 1_455
Na8 O42 2.761138 1_555
Na8 O128 2.857763 1_555
Na8 O14 2.998849 1_555
Na9 O57 2.556865 1_555
Na9 O129 2.592533 1_555
Na9 O131 2.684020 1_555
Na9 O43 2.702134 1_555
Na9 O87 2.853412 1_555
Na10 O126 2.458217 1_555
Na10 O86 2.555554 1_565
Na10 O89 2.581265 1_455
Na10 O45 2.714269 1_455
Na10 O58 2.823227 1_555
Na10 O130 2.915868 1_555
Na10 O16 2.989373 1_555
Na11 O127 2.238850 1_555
Na11 O87 2.504338 1_565
Na11 O59 2.755965 1_555
Na11 O131 2.795892 1_555
Na12 O128 2.576734 1_555
Na12 O12 2.591486 1_555
Na12 O26 2.604501 1_565
Na12 O126 2.627627 1_555
Na12 O84 2.737181 1_565
Na12 O88 2.856358 1_555
Na12 O54 3.010747 1_555
Na13 O129 2.342186 1_555
Na13 O89 2.630227 1_555
Na13 O127 2.701843 1_555
Na13 O85 2.830347 1_565
Na13 O13 2.860661 1_555
Na13 O27 2.865885 1_565
Na13 O55 2.947667 1_555
Na14 O52 2.477026 1_554
Na14 O94 2.538358 1_565
Na14 O122 2.555436 1_555
Na14 O124 2.625936 1_555
Na14 O36 2.796834 1_565
Na14 O91 2.798549 1_455
Na15 O123 2.400698 1_555
Na15 O53 2.433577 1_554
Na15 O90 2.637794 1_555
Na15 O95 2.761734 1_565
Na15 O37 2.824658 1_565
Na15 O125 2.898701 1_555
Na16 O121 2.442414 1_555
Na16 O125 2.499590 1_555
Na16 O35 2.657186 1_555
Na16 O19 2.793060 1_555
Na16 O91 2.817870 1_555
Na16 O93 2.948662 1_565
Na16 O49 2.978215 1_554
Na17 O120 2.250533 1_555
Na17 O93 2.584033 1_455
Na17 O94 2.605791 1_555
Na17 O50 2.679817 1_554
Na17 O122 2.826892 1_555
Na17 O41 2.916131 1_455
Na17 O20 2.939963 1_555
Na18 O121 2.354406 1_555
Na18 O95 2.566961 1_555
Na18 O123 2.596413 1_555
Na18 O92 2.643791 1_555
Na18 O51 2.823197 1_554
Na18 O21 2.836270 1_555
Na18 O30 2.854054 1_555
Na19 O81 2.392436 1_555
Na19 O82 2.498144 1_555
Na19 O110 2.595312 1_555
Na19 O38 2.759173 1_556
Na19 O8 2.890389 1_555
Na20 O80 2.453375 1_655
Na20 O111 2.596317 1_555
Na20 O83 2.637756 1_555
Na20 O9 2.687633 1_555
Na20 O109 2.835011 1_555
Na20 O39 2.845023 1_556
Na20 O52 2.956957 1_655
Na21 O11 2.253762 1_555
Na21 O113 2.427052 1_555
Na21 O78 2.691757 1_655
Na21 O83 2.723697 1_545
Na21 O111 2.808465 1_555
Na21 O69 2.999956 1_545
Na21 O41 3.027374 1_556
Na22 O6 2.309264 1_555
Na22 O80 2.376751 1_545
Na22 O112 2.479128 1_555
Na22 O108 2.538591 1_555
Na22 O78 2.672266 1_555
Na23 O81 2.385279 1_545
Na23 O7 2.452304 1_555
Na23 O113 2.502554 1_555
Na23 O37 2.716716 1_556
Na23 O109 2.723585 1_555
Na23 O79 2.726686 1_555
Na24 O77 2.399321 1_555
Na24 O118 2.595470 1_555
Na24 O4 2.696781 1_555
Na24 O74 2.713767 1_545
Na24 O46 2.779305 1_555
Na24 O114 2.882034 1_555
Na24 O57 2.885988 1_555
Na25 O76 2.402426 1_655
Na25 O119 2.552240 1_555
Na25 O75 2.641635 1_545
Na25 O47 2.651612 1_555
Na25 O115 2.784168 1_555
Na25 O5 2.830837 1_555
Na26 O76 2.398082 1_555
Na26 O0 2.479951 1_555
Na26 O116 2.491234 1_555
Na26 O42 2.683535 1_555
Na26 O114 2.694535 1_555
Na26 O72 2.731723 1_545
Na27 O77 2.398983 1_555
Na27 O117 2.462911 1_555
Na27 O1 2.494776 1_555
Na27 O115 2.658044 1_555
Na27 O43 2.684172 1_555
Na27 O73 2.763346 1_545
Na28 O2 2.234476 1_555
Na28 O116 2.428607 1_555
Na28 O73 2.583312 1_555
Na28 O118 2.705445 1_555
Na28 O74 2.730515 1_555
Na29 O117 2.426934 1_555
Na29 O72 2.585460 1_655
Na29 O3 2.637306 1_555
Na29 O45 2.676189 1_555
Na29 O75 2.733606 1_555
Na29 O119 2.736156 1_555
Na30 O86 2.548733 1_555
Na30 O76 2.579183 1_555
Na30 O89 2.619335 1_445
Na30 O85 2.711875 1_455
Na30 O72 2.783224 1_545
Na30 O75 2.943901 1_445
Na31 O77 2.337540 1_555
Na31 O87 2.511644 1_555
Na31 O73 2.759820 1_545
Na31 O84 2.775698 1_555
Na31 O88 2.940339 1_545
Na31 O74 2.975822 1_545
Na32 O80 2.368843 1_545
Na32 O94 2.459133 1_556
Na32 O78 2.750255 1_555
Na32 O91 2.759395 1_446
Na32 O83 2.850236 1_445
Na32 O93 2.852203 1_456
Na33 O81 2.483489 1_554
Na33 O90 2.502613 1_555
Na33 O95 2.626800 1_565
Na33 O92 2.755237 1_565
Na33 O79 2.895909 1_564
Na33 O82 2.924027 1_554
Na34 O96 2.282096 1_555
Na34 O112 2.581735 1_555
Na34 O110 2.714852 1_555
Na34 O98 2.731099 1_555
Na34 O108 2.938436 1_555
Na34 O100 3.014568 1_555
Na35 O97 2.305444 1_555
Na35 O113 2.402894 1_555
Na35 O99 2.428310 1_555
Na35 O111 2.897905 1_555
Na35 O101 2.905158 1_555
Na35 O109 2.913378 1_555
Na36 O106 2.383283 1_555
Na36 O102 2.396463 1_555
Na36 O116 2.497992 1_555
Na36 O104 2.772150 1_555
Na36 O114 2.824323 1_555
Na36 O118 2.947619 1_555
Na37 O117 2.393685 1_555
Na37 O107 2.432928 1_555
Na37 O103 2.502957 1_555
Na37 O115 2.744758 1_555
Na37 O119 2.916914 1_555
Na38 O134 2.379660 1_555
Na38 O120 2.576551 1_555
Na38 O124 2.661429 1_555
Na38 O132 2.777897 1_555
Na38 O136 2.818987 1_555
Na38 O122 2.955880 1_555
Na39 O121 2.470719 1_555
Na39 O123 2.537860 1_555
Na39 O133 2.667529 1_555
Na39 O137 2.710314 1_555
Na39 O135 2.720129 1_555
Na39 O125 2.738074 1_555
Na40 O126 2.461505 1_555
Na40 O142 2.544844 1_555
Na40 O140 2.613763 1_555
Na40 O138 2.673868 1_555
Na40 O130 2.688154 1_555
Na40 O128 2.785571 1_555
Na41 O129 2.371558 1_555
Na41 O127 2.500046 1_555
Na41 O143 2.603552 1_555
Na41 O131 2.740069 1_555
Na41 O139 2.768420 1_555
Na41 O141 2.852701 1_555
Ca0 O0 2.139806 1_555
Ca0 O3 2.160900 1_445
Ca0 O76 2.280720 1_555
Ca0 O5 2.304844 1_455
Ca0 O75 2.385062 1_445
Ca0 O72 2.404706 1_545
Ca1 O1 2.133129 1_565
Ca1 O2 2.171951 1_555
Ca1 O77 2.277425 1_565
Ca1 O4 2.281135 1_565
Ca1 O74 2.429796 1_555
Ca1 O73 2.433510 1_555
Ca2 O6 2.152843 1_555
Ca2 O11 2.160832 1_455
Ca2 O9 2.303637 1_445
Ca2 O80 2.324652 1_545
Ca2 O78 2.402276 1_555
Ca2 O83 2.456931 1_445
Ca3 O10 2.103787 1_545
Ca3 O7 2.157612 1_555
Ca3 O81 2.293243 1_545
Ca3 O79 2.330854 1_555
Ca3 O8 2.347790 1_545
Ca3 O82 2.432503 1_545
Ca4 O26 2.161761 1_555
Ca4 O96 2.216710 1_555
Ca4 O98 2.220687 1_555
Ca4 O24 2.285651 1_555
Ca4 O28 2.377105 1_555
Ca4 O100 2.390589 1_555
Ca5 O27 2.187098 1_555
Ca5 O29 2.208523 1_555
Ca5 O99 2.267246 1_555
Ca5 O97 2.279198 1_555
Ca5 O25 2.309288 1_555
Ca5 O101 2.445956 1_555
Ca6 O30 2.193614 1_555
Ca6 O34 2.194073 1_555
Ca6 O102 2.252521 1_555
Ca6 O106 2.265125 1_555
Ca6 O32 2.278682 1_555
Ca6 O104 2.442117 1_555
Ca7 O35 2.150652 1_555
Ca7 O107 2.173519 1_555
Ca7 O103 2.243506 1_555
Ca7 O33 2.284013 1_555
Ca7 O31 2.383592 1_555
Ca7 O105 2.400484 1_555
Ca8 O37 2.175898 1_556
Ca8 O113 2.259814 1_555
Ca8 O41 2.381514 1_556
Ca8 O109 2.448135 1_555
Ca8 O39 2.522920 1_556
Ca8 O111 2.561076 1_555
Ca9 O42 2.189427 1_555
Ca9 O116 2.273740 1_555
Ca9 O44 2.364638 1_555
Ca9 O114 2.430906 1_555
Ca9 O46 2.488712 1_555
Ca9 O118 2.508950 1_555
Ca10 O45 2.224532 1_555
Ca10 O43 2.240735 1_555
Ca10 O117 2.315906 1_555
Ca10 O47 2.527070 1_555
Ca10 O119 2.585957 1_555
Ca10 O115 2.590624 1_555
Ca11 O52 2.172620 1_554
Ca11 O48 2.223602 1_554
Ca11 O120 2.247313 1_555
Ca11 O50 2.294050 1_554
Ca11 O124 2.301808 1_555
Ca11 O122 2.440844 1_555
Ca12 O53 2.151802 1_554
Ca12 O123 2.206360 1_555
Ca12 O121 2.254157 1_555
Ca12 O51 2.258730 1_554
Ca12 O49 2.315672 1_554
Ca12 O125 2.421823 1_555
Ca13 O56 2.148023 1_555
Ca13 O58 2.247578 1_555
Ca13 O126 2.248401 1_555
Ca13 O54 2.269628 1_555
Ca13 O130 2.370856 1_555
Ca13 O128 2.386885 1_555
Ca14 O57 2.157050 1_555
Ca14 O129 2.227583 1_555
Ca14 O55 2.269613 1_555
Ca14 O127 2.271865 1_555
Ca14 O59 2.308160 1_555
Ca14 O131 2.406096 1_555
Hf0 O13 2.027841 1_445
Hf0 O14 2.029900 1_555
Hf0 O89 2.056933 1_445
Hf0 O86 2.083206 1_555
Hf0 O85 2.188070 1_455
Hf0 O16 2.235646 1_545
Hf1 O15 1.924138 1_555
Hf1 O87 2.029323 1_555
Hf1 O12 2.051646 1_545
Hf1 O84 2.179024 1_555
Hf1 O17 2.195120 1_545
Hf1 O88 2.400269 1_545
Hf2 O22 1.933486 1_555
Hf2 O19 2.006349 1_455
Hf2 O94 2.130532 1_565
Hf2 O20 2.186920 1_565
Hf2 O91 2.202219 1_455
Hf2 O93 2.295311 1_465
Hf3 O23 1.965835 1_555
Hf3 O18 2.001501 1_555
Hf3 O90 2.008276 1_555
Hf3 O95 2.064397 1_565
Hf3 O21 2.463694 1_565
Hf3 O92 2.494738 1_565
Hf4 O36 1.971779 1_556
Hf4 O38 2.026798 1_556
Hf4 O112 2.091133 1_555
Hf4 O40 2.122284 1_556
Hf4 O108 2.272721 1_555
Hf4 O110 2.429127 1_555
Hf5 O134 1.965666 1_555
Hf5 O64 1.990469 1_555
Hf5 O132 2.057251 1_555
Hf5 O62 2.114955 1_555
Hf5 O136 2.285273 1_555
Hf5 O60 2.318811 1_555
Hf6 O135 1.981376 1_555
Hf6 O65 1.991194 1_555
Hf6 O133 2.046723 1_555
Hf6 O63 2.142596 1_555
Hf6 O137 2.207587 1_555
Hf6 O61 2.364010 1_555
Hf7 O142 1.982627 1_555
Hf7 O68 2.031846 1_555
Hf7 O138 2.033785 1_555
Hf7 O140 2.204381 1_555
Hf7 O70 2.228737 1_555
Hf7 O66 2.270222 1_555
Hf8 O143 1.986986 1_555
Hf8 O69 1.990262 1_555
Hf8 O139 2.026861 1_555
Hf8 O71 2.194711 1_555
Hf8 O141 2.230103 1_555
Hf8 O67 2.317292 1_555
O0 Si0 1.604466 1_545
O1 Si1 1.604156 1_545
O2 Si2 1.598703 1_555
O3 Si3 1.597411 1_555
O4 S1 1.470504 1_555
O5 S0 1.458523 1_655
O6 Si4 1.610656 1_555
O7 Si5 1.597201 1_555
O8 S3 1.463391 1_555
O9 S2 1.468668 1_655
O10 Si6 1.575912 1_555
O11 Si7 1.598905 1_555
O12 Si6 1.696931 1_555
O13 Si7 1.679734 1_565
O14 Si4 1.677185 1_555
O15 Si5 1.708467 1_555
O16 S2 1.509363 1_555
O17 S3 1.520554 1_555
O18 Si2 1.664946 1_555
O19 Si3 1.701343 1_555
O20 S0 1.525108 1_555
O21 S1 1.492485 1_555
O22 Si0 1.732790 1_555
O23 Si1 1.712239 1_555
O24 S4 1.465924 1_555
O25 S5 1.452850 1_555
O26 Si8 1.618842 1_555
O27 Si9 1.612839 1_555
O28 S6 1.474358 1_555
O29 Si10 1.614385 1_555
O30 Si11 1.597993 1_555
O31 S7 1.465902 1_555
O32 S8 1.445671 1_555
O33 S9 1.457954 1_555
O34 Si12 1.584580 1_555
O35 Si13 1.618849 1_555
O36 Si12 1.723565 1_555
O37 Si13 1.646127 1_555
O38 Si11 1.712448 1_555
O39 S7 1.482682 1_555
O40 S8 1.529918 1_555
O41 S9 1.489618 1_555
O42 Si8 1.644928 1_555
O43 Si9 1.641235 1_555
O44 S6 1.485710 1_555
O45 Si10 1.646092 1_555
O46 S4 1.482737 1_555
O47 S5 1.486965 1_555
O48 S10 1.456265 1_555
O49 S11 1.470908 1_555
O50 S12 1.479222 1_555
O51 S13 1.472155 1_555
O52 Si14 1.611624 1_555
O53 Si15 1.609088 1_555
O54 S14 1.470531 1_555
O55 S15 1.471676 1_555
O56 Si16 1.618431 1_555
O57 Si17 1.615206 1_555
O58 S16 1.476513 1_555
O59 S17 1.477473 1_555
O60 S16 1.502788 1_555
O61 S17 1.496157 1_555
O62 S14 1.518033 1_555
O63 S15 1.513678 1_555
O64 Si16 1.705530 1_555
O65 Si17 1.703928 1_555
O66 S12 1.498558 1_555
O67 S13 1.500604 1_555
O68 Si14 1.697782 1_555
O69 Si15 1.702997 1_555
O70 S10 1.512839 1_555
O71 S11 1.516055 1_555
O72 S16 1.484071 1_555
O73 S17 1.487582 1_555
O74 S14 1.474136 1_555
O75 S15 1.479329 1_555
O76 Si16 1.646681 1_555
O77 Si17 1.647655 1_555
O78 S12 1.486861 1_555
O79 S13 1.471755 1_555
O80 Si14 1.651235 1_555
O81 Si15 1.645025 1_555
O82 S10 1.461237 1_555
O83 S11 1.484147 1_555
O84 S4 1.527567 1_555
O85 S5 1.522324 1_555
O86 Si8 1.681595 1_555
O87 Si9 1.723551 1_555
O88 S6 1.501664 1_555
O89 Si10 1.685143 1_555
O90 Si11 1.692901 1_555
O91 S7 1.530272 1_555
O92 S8 1.489150 1_555
O93 S9 1.518247 1_555
O94 Si12 1.716904 1_555
O95 Si13 1.689532 1_555
O96 Si6 1.610781 1_545
O97 Si7 1.602864 1_555
O98 Si4 1.633516 1_555
O99 Si5 1.620885 1_555
O100 S3 1.458487 1_555
O101 S2 1.454768 1_655
O102 Si2 1.622053 1_555
O103 Si3 1.626310 1_555
O104 S1 1.461744 1_555
O105 S0 1.460287 1_655
O106 Si0 1.597134 1_545
O107 Si1 1.610313 1_545
O108 S10 1.529061 1_555
O109 S11 1.487303 1_555
O110 S13 1.513390 1_555
O111 S12 1.489432 1_655
O112 Si14 1.692904 1_545
O113 Si15 1.654337 1_545
O114 S14 1.484196 1_545
O115 S15 1.484173 1_545
O116 Si16 1.653339 1_555
O117 Si17 1.649886 1_555
O118 S17 1.498171 1_555
O119 S16 1.490280 1_655
O120 Si12 1.623036 1_555
O121 Si13 1.643110 1_555
O122 S7 1.481340 1_455
O123 Si11 1.627737 1_555
O124 S8 1.482824 1_565
O125 S9 1.481764 1_565
O126 Si8 1.650625 1_565
O127 Si9 1.638557 1_565
O128 S6 1.491787 1_555
O129 Si10 1.643697 1_555
O130 S5 1.485400 1_455
O131 S4 1.473625 1_555
O132 Si0 1.679089 1_555
O133 Si1 1.675582 1_555
O134 Si2 1.700114 1_555
O135 Si3 1.686924 1_555
O136 S0 1.511070 1_555
O137 S1 1.535349 1_555
O138 Si4 1.676767 1_555
O139 Si5 1.662734 1_555
O140 S2 1.518299 1_555
O141 S3 1.508039 1_555
O142 Si6 1.727344 1_555
O143 Si7 1.727675 1_565
