# generated using pymatgen
data_Na3Hf3ZnP5SO24
_symmetry_space_group_name_H-M   'P 1'
_cell_length_a   8.86445240
_cell_length_b   8.86364900
_cell_length_c   23.04059039
_cell_angle_alpha   89.91218895
_cell_angle_beta   89.98371088
_cell_angle_gamma   119.96149918
_symmetry_Int_Tables_number   1
_chemical_formula_structural   Na3Hf3ZnP5SO24
_chemical_formula_sum   'Na9 Hf9 Zn3 P15 S3 O72'
_cell_volume   1568.39780544
_cell_formula_units_Z   3
loop_
 _symmetry_equiv_pos_site_id
 _symmetry_equiv_pos_as_xyz
  1  'x, y, z'
loop_
 _atom_site_type_symbol
 _atom_site_label
 _atom_site_symmetry_multiplicity
 _atom_site_fract_x
 _atom_site_fract_y
 _atom_site_fract_z
 _atom_site_occupancy
  Na  Na0  1  0.99025786  0.36318428  0.74594766  1
  Na  Na1  1  0.31042675  0.97439667  0.08551937  1
  Na  Na2  1  0.32490638  0.03090221  0.41143350  1
  Na  Na3  1  0.98616835  0.99882225  0.49495388  1
  Na  Na4  1  0.99138027  0.00046859  0.99872908  1
  Na  Na5  1  0.65696423  0.33304090  0.82830849  1
  Na  Na6  1  0.66796072  0.33487973  0.32671982  1
  Na  Na7  1  0.33326556  0.66156388  0.16747025  1
  Na  Na8  1  0.34121001  0.66870255  0.66578639  1
  Hf  Hf0  1  0.00229098  -0.00030612  0.85253064  1
  Hf  Hf1  1  0.99381737  0.99754895  0.64706621  1
  Hf  Hf2  1  0.99920482  0.99831961  0.14832701  1
  Hf  Hf3  1  0.66968040  0.33516861  0.98052321  1
  Hf  Hf4  1  0.67969800  0.34416288  0.48039009  1
  Hf  Hf5  1  0.33295827  0.66091771  0.01893225  1
  Hf  Hf6  1  0.33487068  0.65951411  0.51879783  1
  Hf  Hf7  1  0.33336029  0.67152897  0.31395642  1
  Hf  Hf8  1  0.33857163  0.67103686  0.81345319  1
  Zn  Zn0  1  0.00118174  0.00168058  0.35189652  1
  Zn  Zn1  1  0.66768520  0.34570933  0.68532550  1
  Zn  Zn2  1  0.65825959  0.32512053  0.18177570  1
  P  P0  1  0.29731015  0.00695684  0.25178571  1
  P  P1  1  0.29500897  0.28928296  0.74955232  1
  P  P2  1  0.99830464  0.70768256  0.74998403  1
  P  P3  1  0.70780050  0.00233507  0.74987847  1
  P  P4  1  0.95807979  0.33425029  0.58603108  1
  P  P5  1  0.66668188  0.62296657  0.58502698  1
  P  P6  1  0.95457799  0.62040428  0.08552680  1
  P  P7  1  0.66813117  0.04375081  0.08415236  1
  P  P8  1  0.37860873  0.33537936  0.08511460  1
  P  P9  1  0.62562142  0.66682941  0.91663266  1
  P  P10  1  0.04142033  0.37468911  0.91558656  1
  P  P11  1  0.33427158  0.95894012  0.91766318  1
  P  P12  1  0.62912863  0.95780680  0.41698347  1
  P  P13  1  0.33101891  0.37223167  0.41584695  1
  P  P14  1  0.04388112  0.66928700  0.41656313  1
  S  S0  1  0.70958550  0.70521369  0.25152953  1
  S  S1  1  0.99623090  0.29063062  0.25125646  1
  S  S2  1  0.37630795  0.04207249  0.58354578  1
  O  O0  1  0.21068617  0.02441648  0.30681134  1
  O  O1  1  0.81230474  0.78995174  0.30332025  1
  O  O2  1  0.97444733  0.18641398  0.30315753  1
  O  O3  1  0.20088687  0.17877809  0.80405038  1
  O  O4  1  0.97859983  0.79998362  0.80386348  1
  O  O5  1  0.82440598  0.02682397  0.80346925  1
  O  O6  1  0.79421435  0.97143888  0.69585972  1
  O  O7  1  0.17260742  0.20448792  0.69640807  1
  O  O8  1  0.02834826  0.82323901  0.69607648  1
  O  O9  1  0.79055617  0.81809528  0.19820640  1
  O  O10  1  0.02385474  0.20684941  0.19808903  1
  O  O11  1  0.18019094  0.97641093  0.19588261  1
  O  O12  1  0.88300132  0.36174816  0.64176389  1
  O  O13  1  0.48167239  0.11865211  0.63533618  1
  O  O14  1  0.63177360  0.51282525  0.63875564  1
  O  O15  1  0.87857973  0.51314015  0.13956415  1
  O  O16  1  0.62559448  0.11501838  0.13748330  1
  O  O17  1  0.48509275  0.36702345  0.13929612  1
  O  O18  1  0.45834268  0.29901858  0.03027392  1
  O  O19  1  0.84503491  0.53987882  0.02999380  1
  O  O20  1  0.69548471  0.15527573  0.02901325  1
  O  O21  1  0.45487212  0.14648031  0.52944050  1
  O  O22  1  0.69170719  0.53674020  0.52957770  1
  O  O23  1  0.84328697  0.30702750  0.53130739  1
  O  O24  1  0.53835122  0.69300236  0.97061780  1
  O  O25  1  0.15578626  0.46339671  0.96920806  1
  O  O26  1  0.30787347  0.84952154  0.97308261  1
  O  O27  1  0.53477930  0.84511591  0.47078114  1
  O  O28  1  0.31042516  0.46401285  0.46993703  1
  O  O29  1  0.15956194  0.69398166  0.47011635  1
  O  O30  1  0.12988532  0.63831268  0.36242273  1
  O  O31  1  0.50612617  0.87222271  0.36336352  1
  O  O32  1  0.36190624  0.49019761  0.36237171  1
  O  O33  1  0.12544433  0.48480232  0.86027051  1
  O  O34  1  0.35951346  0.86920832  0.86399051  1
  O  O35  1  0.51164736  0.64025198  0.86260910  1
  O  O36  1  0.02974901  0.83291000  0.41174271  1
  O  O37  1  0.80735908  0.97800473  0.41032543  1
  O  O38  1  0.17330304  0.18951537  0.41228967  1
  O  O39  1  0.02289758  0.19291261  0.91017401  1
  O  O40  1  0.17055134  0.97646275  0.91073166  1
  O  O41  1  0.80669484  0.83017331  0.91011706  1
  O  O42  1  0.98015161  0.17043440  0.58935040  1
  O  O43  1  0.19998957  0.02411855  0.58872625  1
  O  O44  1  0.83251738  0.80664522  0.58922813  1
  O  O45  1  0.98287584  0.81112875  0.09061694  1
  O  O46  1  0.82990207  0.02118380  0.09064014  1
  O  O47  1  0.19368072  0.16574753  0.09078510  1
  O  O48  1  0.69574451  0.16709910  0.74454398  1
  O  O49  1  0.47334460  0.30793522  0.74499567  1
  O  O50  1  0.84212958  0.52372017  0.74691719  1
  O  O51  1  0.68964110  0.53368351  0.24401578  1
  O  O52  1  0.84697826  0.31526500  0.24380733  1
  O  O53  1  0.47878981  0.16432423  0.24449019  1
  O  O54  1  0.64264984  0.50319233  0.92365050  1
  O  O55  1  0.86084365  0.35770071  0.92308539  1
  O  O56  1  0.49730636  0.14046471  0.92367152  1
  O  O57  1  0.63158408  0.13518501  0.42458045  1
  O  O58  1  0.49559426  0.35191208  0.42434005  1
  O  O59  1  0.86324449  0.50233529  0.42255508  1
  O  O60  1  0.35020331  0.49206810  0.07537974  1
  O  O61  1  0.14485859  0.65498800  0.07560780  1
  O  O62  1  0.50239879  0.86034407  0.07419631  1
  O  O63  1  0.35344241  0.86443929  0.57558538  1
  O  O64  1  0.50757940  0.65010345  0.57566331  1
  O  O65  1  0.14109384  0.49659369  0.57551566  1
  O  O66  1  0.30765775  0.83318418  0.25574727  1
  O  O67  1  0.53222078  0.69231276  0.25556241  1
  O  O68  1  0.16264401  0.46600635  0.25538169  1
  O  O69  1  0.29972382  0.46840850  0.75680402  1
  O  O70  1  0.16456737  0.68867544  0.75667818  1
  O  O71  1  0.52785213  0.83530442  0.75622313  1
loop_
_geom_bond_atom_site_label_1
_geom_bond_atom_site_label_2
_geom_bond_distance
_geom_bond_site_symmetry_2
Na0 O48 2.303383 1_555
Na0 O50 2.369754 1_555
Na0 O69 2.429688 1_655
Na0 O70 2.514328 1_655
Na0 O12 2.579848 1_555
Na0 O7 2.858187 1_655
Na0 O33 2.873429 1_655
Na0 O5 2.900909 1_555
Na1 O62 2.388466 1_555
Na1 O47 2.390840 1_565
Na1 O61 2.464414 1_555
Na1 O45 2.518131 1_455
Na1 O16 2.705660 1_565
Na1 O11 2.796101 1_555
Na1 O18 2.799643 1_565
Na1 O26 2.814371 1_554
Na2 O36 2.310651 1_545
Na2 O38 2.381209 1_555
Na2 O57 2.414122 1_555
Na2 O58 2.485225 1_555
Na2 O0 2.604403 1_555
Na2 O31 2.836541 1_545
Na2 O29 2.917050 1_545
Na2 O21 2.932731 1_555
Na3 O37 2.461548 1_555
Na3 O38 2.534571 1_665
Na3 O36 2.561901 1_655
Na3 O42 2.671730 1_565
Na3 O44 2.672909 1_555
Na3 O43 2.808956 1_665
Na4 O39 2.581421 1_655
Na4 O41 2.582656 1_545
Na4 O46 2.613282 1_556
Na4 O40 2.648712 1_645
Na4 O45 2.677154 1_546
Na4 O47 2.692284 1_656
Na5 O49 2.454580 1_555
Na5 O50 2.506998 1_555
Na5 O48 2.553385 1_555
Na5 O54 2.705078 1_555
Na5 O56 2.705211 1_555
Na5 O55 2.773407 1_555
Na6 O53 2.483029 1_555
Na6 O51 2.534637 1_555
Na6 O52 2.544164 1_555
Na6 O59 2.742486 1_555
Na6 O58 2.765120 1_555
Na6 O57 2.781761 1_555
Na7 O68 2.600722 1_555
Na7 O67 2.613035 1_555
Na7 O66 2.618515 1_555
Na7 O60 2.648890 1_555
Na7 O61 2.679126 1_555
Na7 O62 2.705326 1_555
Na8 O64 2.599248 1_555
Na8 O71 2.613596 1_555
Na8 O69 2.649701 1_555
Na8 O65 2.666227 1_555
Na8 O63 2.672445 1_555
Na8 O70 2.673018 1_555
Hf0 O3 2.017128 1_555
Hf0 O4 2.017383 1_445
Hf0 O5 2.049642 1_455
Hf0 O40 2.091024 1_545
Hf0 O41 2.101144 1_445
Hf0 O39 2.103575 1_555
Hf1 O6 2.009277 1_555
Hf1 O8 2.055034 1_655
Hf1 O7 2.066997 1_665
Hf1 O44 2.067586 1_555
Hf1 O42 2.076189 1_565
Hf1 O43 2.184070 1_665
Hf2 O11 2.030699 1_655
Hf2 O45 2.075788 1_555
Hf2 O9 2.082187 1_555
Hf2 O46 2.089046 1_565
Hf2 O47 2.090283 1_665
Hf2 O10 2.093296 1_665
Hf3 O19 2.048888 1_556
Hf3 O20 2.049875 1_556
Hf3 O55 2.079106 1_555
Hf3 O18 2.079500 1_556
Hf3 O54 2.084027 1_555
Hf3 O56 2.098354 1_555
Hf4 O22 2.008448 1_555
Hf4 O23 2.015954 1_555
Hf4 O59 2.025618 1_555
Hf4 O58 2.109205 1_555
Hf4 O57 2.117774 1_555
Hf4 O21 2.196352 1_555
Hf5 O25 2.026091 1_554
Hf5 O24 2.028721 1_554
Hf5 O60 2.043877 1_555
Hf5 O26 2.079925 1_554
Hf5 O62 2.087577 1_555
Hf5 O61 2.097431 1_555
Hf6 O28 1.987003 1_555
Hf6 O27 2.037660 1_555
Hf6 O64 2.048375 1_555
Hf6 O29 2.059260 1_555
Hf6 O65 2.063732 1_555
Hf6 O63 2.178771 1_555
Hf7 O30 2.013560 1_555
Hf7 O31 2.022812 1_555
Hf7 O66 2.055260 1_555
Hf7 O32 2.071855 1_555
Hf7 O67 2.150600 1_555
Hf7 O68 2.164526 1_555
Hf8 O35 2.032049 1_555
Hf8 O34 2.038719 1_555
Hf8 O71 2.055884 1_555
Hf8 O33 2.082339 1_555
Hf8 O70 2.087150 1_555
Hf8 O69 2.106561 1_555
O0 P0 1.529607 1_555
O0 Zn0 2.047709 1_555
O1 S0 1.461995 1_555
O1 Zn0 2.108772 1_665
O2 S1 1.462502 1_555
O2 Zn0 2.092955 1_655
O3 P1 1.552922 1_555
O4 P2 1.544887 1_555
O5 P3 1.554870 1_555
O6 P3 1.555921 1_565
O7 P1 1.559017 1_555
O8 P2 1.544729 1_455
O9 S0 1.517937 1_555
O10 S1 1.515362 1_455
O11 P0 1.590998 1_565
O12 P4 1.521113 1_555
O12 Zn1 2.097147 1_555
O13 S2 1.458385 1_555
O13 Zn1 2.188471 1_555
O14 P5 1.508528 1_555
O14 Zn1 1.978154 1_555
O15 P6 1.504682 1_555
O15 Zn2 2.068937 1_555
O16 P7 1.513647 1_555
O16 Zn2 2.015131 1_555
O17 P8 1.505123 1_555
O17 Zn2 2.005350 1_555
O18 P8 1.558297 1_555
O19 P6 1.549433 1_555
O20 P7 1.551302 1_555
O21 S2 1.499239 1_555
O22 P5 1.561325 1_555
O23 P4 1.562011 1_555
O24 P9 1.542412 1_555
O25 P10 1.542688 1_555
O26 P11 1.547636 1_555
O27 P12 1.547522 1_555
O28 P13 1.549074 1_555
O29 P14 1.548971 1_555
O30 P14 1.556357 1_555
O31 P12 1.571017 1_555
O32 P13 1.547980 1_555
O33 P10 1.549606 1_555
O34 P11 1.546793 1_555
O35 P9 1.545797 1_555
O36 P14 1.520650 1_555
O36 Zn0 2.139044 1_565
O37 P12 1.506312 1_555
O37 Zn0 2.108566 1_665
O38 P13 1.524167 1_555
O38 Zn0 2.122999 1_555
O39 P10 1.541062 1_555
O40 P11 1.543072 1_555
O41 P9 1.540489 1_555
O42 P4 1.560731 1_555
O43 S2 1.494601 1_555
O44 P5 1.559170 1_555
O45 P6 1.584796 1_555
O46 P7 1.550896 1_555
O47 P8 1.581897 1_555
O48 P3 1.521406 1_555
O48 Zn1 2.194709 1_555
O49 P1 1.508720 1_555
O49 Zn1 2.095511 1_555
O50 P2 1.525127 1_555
O50 Zn1 2.113218 1_555
O51 S0 1.450907 1_555
O51 Zn2 2.246332 1_555
O52 S1 1.454697 1_555
O52 Zn2 2.235144 1_555
O53 P0 1.523041 1_555
O53 Zn2 2.092330 1_555
O54 P9 1.539685 1_555
O55 P10 1.540720 1_655
O56 P11 1.541035 1_545
O57 P12 1.571511 1_545
O58 P13 1.568927 1_555
O59 P14 1.550916 1_655
O60 P8 1.546269 1_555
O61 P6 1.573018 1_455
O62 P7 1.571473 1_565
O63 S2 1.495276 1_565
O64 P5 1.559603 1_555
O65 P4 1.558266 1_455
O66 P0 1.590546 1_565
O67 S0 1.521171 1_555
O68 S1 1.520401 1_455
O69 P1 1.576392 1_555
O70 P2 1.572387 1_455
O71 P3 1.548573 1_565
