# generated using pymatgen
data_MgFeHO2
_symmetry_space_group_name_H-M   'P 1'
_cell_length_a   3.19289428
_cell_length_b   3.19060256
_cell_length_c   7.13995696
_cell_angle_alpha   91.26405909
_cell_angle_beta   88.79460065
_cell_angle_gamma   120.32769387
_symmetry_Int_Tables_number   1
_chemical_formula_structural   MgFeHO2
_chemical_formula_sum   'Mg1 Fe1 H1 O2'
_cell_volume   62.76328203
_cell_formula_units_Z   1
loop_
 _symmetry_equiv_pos_site_id
 _symmetry_equiv_pos_as_xyz
  1  'x, y, z'
loop_
 _atom_site_type_symbol
 _atom_site_label
 _atom_site_symmetry_multiplicity
 _atom_site_fract_x
 _atom_site_fract_y
 _atom_site_fract_z
 _atom_site_occupancy
  Mg  Mg0  1  0.66396603  0.33600576  0.27449321  1
  Fe  Fe0  1  -0.00157474  0.00211368  0.93249343  1
  H  H0  1  0.66619131  0.33424000  0.66074050  1
  O  O0  1  0.33767345  0.66103181  0.12877113  1
  O  O1  1  0.66690995  0.33324175  0.79891873  1
loop_
_geom_bond_atom_site_label_1
_geom_bond_atom_site_label_2
_geom_bond_distance
_geom_bond_site_symmetry_2
Mg0 O0 2.104195 1_555
Mg0 O0 2.117958 1_655
Mg0 O0 2.118189 1_545
Fe0 O1 2.062955 1_445
Fe0 O1 2.064692 1_555
Fe0 O1 2.088650 1_455
Fe0 O0 2.278428 1_556
Fe0 O0 2.285482 1_446
Fe0 O0 2.375531 1_546
H0 O1 0.986717 1_555
