# generated using pymatgen
data_MgCrTe(WO6)2
_symmetry_space_group_name_H-M   'P 1'
_cell_length_a   5.38850170
_cell_length_b   10.78119238
_cell_length_c   9.44404942
_cell_angle_alpha   28.65552678
_cell_angle_beta   52.29499820
_cell_angle_gamma   57.57218412
_symmetry_Int_Tables_number   1
_chemical_formula_structural   MgCrTe(WO6)2
_chemical_formula_sum   'Mg1 Cr1 Te1 W2 O12'
_cell_volume   208.15639917
_cell_formula_units_Z   1
loop_
 _symmetry_equiv_pos_site_id
 _symmetry_equiv_pos_as_xyz
  1  'x, y, z'
loop_
 _atom_site_type_symbol
 _atom_site_label
 _atom_site_symmetry_multiplicity
 _atom_site_fract_x
 _atom_site_fract_y
 _atom_site_fract_z
 _atom_site_occupancy
  Mg  Mg0  1  0.20607200  0.00092700  0.19349400  1
  Cr  Cr0  1  0.97820500  0.99294400  0.00489500  1
  Te  Te0  1  0.00583100  0.50139900  0.99032700  1
  W  W0  1  0.48017100  0.99944400  0.50874600  1
  W  W1  1  0.50639300  0.49461400  0.48697400  1
  O  O0  1  0.35432200  0.30345200  0.13929000  1
  O  O1  1  0.24797300  0.09434500  0.65193400  1
  O  O2  1  0.16226400  0.28617500  0.75854300  1
  O  O3  1  0.88180600  0.19447600  0.23645000  1
  O  O4  1  0.33138700  0.79551400  0.16646400  1
  O  O5  1  0.75847100  0.39024300  0.34800300  1
  O  O6  1  0.24993900  0.62973500  0.62021800  1
  O  O7  1  0.62042200  0.19807300  0.86080400  1
  O  O8  1  0.14155600  0.79870700  0.75482400  1
  O  O9  1  0.83207300  0.70875200  0.24601600  1
  O  O10  1  0.76259000  0.91899300  0.33318900  1
  O  O11  1  0.65072800  0.69845900  0.85217400  1
loop_
_geom_bond_atom_site_label_1
_geom_bond_atom_site_label_2
_geom_bond_distance
_geom_bond_site_symmetry_2
Mg0 O6 2.039126 1_545
Mg0 O7 2.040313 1_554
Mg0 O3 2.068871 1_455
Mg0 O10 2.143306 1_445
Mg0 O4 2.145482 1_545
Mg0 O2 2.150241 1_554
Cr0 O9 1.828209 1_555
Cr0 O1 1.949706 1_664
Cr0 O7 1.953001 1_564
Cr0 O10 1.961412 1_555
Cr0 O4 1.997069 1_655
Cr0 O2 2.005625 1_664
O0 Te0 1.929805 1_554
O0 W0 1.953595 1_545
O1 W0 1.851125 1_545
O2 W1 1.898161 1_555
O3 Te0 1.942101 1_654
O3 W0 2.073904 1_545
O4 W1 1.884795 1_555
O5 W1 1.898890 1_555
O5 Te0 1.929850 1_654
O6 Te0 1.924128 1_555
O6 W1 2.132245 1_555
O7 W1 1.949432 1_555
O8 W0 1.906580 1_555
O8 Te0 1.941265 1_555
O9 W1 1.956552 1_555
O10 W0 1.959348 1_555
O11 Te0 1.925199 1_655
O11 W0 1.967344 1_555
