# generated using pymatgen
data_MgTe4MoW3S4
_symmetry_space_group_name_H-M   'P 1'
_cell_length_a   6.71287200
_cell_length_b   6.71269908
_cell_length_c   90.60406420
_cell_angle_alpha   89.99292374
_cell_angle_beta   90.00000000
_cell_angle_gamma   120.00085212
_symmetry_Int_Tables_number   1
_chemical_formula_structural   MgTe4MoW3S4
_chemical_formula_sum   'Mg8 Te32 Mo8 W24 S32'
_cell_volume   3535.73837832
_cell_formula_units_Z   8
loop_
 _symmetry_equiv_pos_site_id
 _symmetry_equiv_pos_as_xyz
  1  'x, y, z'
loop_
 _atom_site_type_symbol
 _atom_site_label
 _atom_site_symmetry_multiplicity
 _atom_site_fract_x
 _atom_site_fract_y
 _atom_site_fract_z
 _atom_site_occupancy
  Mg  Mg0_0  1  0.00002050  0.00004150  0.18858200  1
  Mg  Mg0_1  1  0.00002050  0.00004150  0.68858200  1
  Mg  Mg0_2  1  0.00002050  0.50004150  0.18858200  1
  Mg  Mg0_3  1  0.00002050  0.50004150  0.68858200  1
  Mg  Mg0_4  1  0.50002050  0.00004150  0.18858200  1
  Mg  Mg0_5  1  0.50002050  0.00004150  0.68858200  1
  Mg  Mg0_6  1  0.50002050  0.50004150  0.18858200  1
  Mg  Mg0_7  1  0.50002050  0.50004150  0.68858200  1
  Te  Te0_0  1  0.16664250  0.33328550  0.34997250  1
  Te  Te0_1  1  0.16664250  0.33328550  0.84997250  1
  Te  Te0_2  1  0.16664250  0.83328550  0.34997250  1
  Te  Te0_3  1  0.16664250  0.83328550  0.84997250  1
  Te  Te0_4  1  0.66664250  0.33328550  0.34997250  1
  Te  Te0_5  1  0.66664250  0.33328550  0.84997250  1
  Te  Te0_6  1  0.66664250  0.83328550  0.34997250  1
  Te  Te0_7  1  0.66664250  0.83328550  0.84997250  1
  Te  Te1_0  1  0.33335550  0.16671050  0.02591550  1
  Te  Te1_1  1  0.33335550  0.16671050  0.52591550  1
  Te  Te1_2  1  0.33335550  0.66671050  0.02591550  1
  Te  Te1_3  1  0.33335550  0.66671050  0.52591550  1
  Te  Te1_4  1  0.83335550  0.16671050  0.02591550  1
  Te  Te1_5  1  0.83335550  0.16671050  0.52591550  1
  Te  Te1_6  1  0.83335550  0.66671050  0.02591550  1
  Te  Te1_7  1  0.83335550  0.66671050  0.52591550  1
  Te  Te2_0  1  0.33331700  0.16663300  0.06761900  1
  Te  Te2_1  1  0.33331700  0.16663300  0.56761900  1
  Te  Te2_2  1  0.33331700  0.66663300  0.06761900  1
  Te  Te2_3  1  0.33331700  0.66663300  0.56761900  1
  Te  Te2_4  1  0.83331700  0.16663300  0.06761900  1
  Te  Te2_5  1  0.83331700  0.16663300  0.56761900  1
  Te  Te2_6  1  0.83331700  0.66663300  0.06761900  1
  Te  Te2_7  1  0.83331700  0.66663300  0.56761900  1
  Te  Te3_0  1  0.16668850  0.33337700  0.30797050  1
  Te  Te3_1  1  0.16668850  0.33337700  0.80797050  1
  Te  Te3_2  1  0.16668850  0.83337700  0.30797050  1
  Te  Te3_3  1  0.16668850  0.83337700  0.80797050  1
  Te  Te3_4  1  0.66668850  0.33337700  0.30797050  1
  Te  Te3_5  1  0.66668850  0.33337700  0.80797050  1
  Te  Te3_6  1  0.66668850  0.83337700  0.30797050  1
  Te  Te3_7  1  0.66668850  0.83337700  0.80797050  1
  Mo  Mo0_0  1  0.16666450  0.33332850  0.04676850  1
  Mo  Mo0_1  1  0.16666450  0.33332850  0.54676850  1
  Mo  Mo0_2  1  0.16666450  0.83332850  0.04676850  1
  Mo  Mo0_3  1  0.16666450  0.83332850  0.54676850  1
  Mo  Mo0_4  1  0.66666450  0.33332850  0.04676850  1
  Mo  Mo0_5  1  0.66666450  0.33332850  0.54676850  1
  Mo  Mo0_6  1  0.66666450  0.83332850  0.04676850  1
  Mo  Mo0_7  1  0.66666450  0.83332850  0.54676850  1
  W  W0_0  1  0.16667150  0.33334350  0.23809450  1
  W  W0_1  1  0.16667150  0.33334350  0.73809450  1
  W  W0_2  1  0.16667150  0.83334350  0.23809450  1
  W  W0_3  1  0.16667150  0.83334350  0.73809450  1
  W  W0_4  1  0.66667150  0.33334350  0.23809450  1
  W  W0_5  1  0.66667150  0.33334350  0.73809450  1
  W  W0_6  1  0.66667150  0.83334350  0.23809450  1
  W  W0_7  1  0.66667150  0.83334350  0.73809450  1
  W  W1_0  1  0.33332350  0.16664700  0.13728850  1
  W  W1_1  1  0.33332350  0.16664700  0.63728850  1
  W  W1_2  1  0.33332350  0.66664700  0.13728850  1
  W  W1_3  1  0.33332350  0.66664700  0.63728850  1
  W  W1_4  1  0.83332350  0.16664700  0.13728850  1
  W  W1_5  1  0.83332350  0.16664700  0.63728850  1
  W  W1_6  1  0.83332350  0.66664700  0.13728850  1
  W  W1_7  1  0.83332350  0.66664700  0.63728850  1
  W  W2_0  1  0.33333700  0.16667450  0.32897250  1
  W  W2_1  1  0.33333700  0.16667450  0.82897250  1
  W  W2_2  1  0.33333700  0.66667450  0.32897250  1
  W  W2_3  1  0.33333700  0.66667450  0.82897250  1
  W  W2_4  1  0.83333700  0.16667450  0.32897250  1
  W  W2_5  1  0.83333700  0.16667450  0.82897250  1
  W  W2_6  1  0.83333700  0.66667450  0.32897250  1
  W  W2_7  1  0.83333700  0.66667450  0.82897250  1
  S  S0_0  1  0.16662800  0.33325700  0.15409550  1
  S  S0_1  1  0.16662800  0.33325700  0.65409550  1
  S  S0_2  1  0.16662800  0.83325700  0.15409550  1
  S  S0_3  1  0.16662800  0.83325700  0.65409550  1
  S  S0_4  1  0.66662800  0.33325700  0.15409550  1
  S  S0_5  1  0.66662800  0.33325700  0.65409550  1
  S  S0_6  1  0.66662800  0.83325700  0.15409550  1
  S  S0_7  1  0.66662800  0.83325700  0.65409550  1
  S  S1_0  1  0.33335250  0.16670500  0.22123350  1
  S  S1_1  1  0.33335250  0.16670500  0.72123350  1
  S  S1_2  1  0.33335250  0.66670500  0.22123350  1
  S  S1_3  1  0.33335250  0.66670500  0.72123350  1
  S  S1_4  1  0.83335250  0.16670500  0.22123350  1
  S  S1_5  1  0.83335250  0.16670500  0.72123350  1
  S  S1_6  1  0.83335250  0.66670500  0.22123350  1
  S  S1_7  1  0.83335250  0.66670500  0.72123350  1
  S  S2_0  1  0.33332500  0.16665050  0.25476300  1
  S  S2_1  1  0.33332500  0.16665050  0.75476300  1
  S  S2_2  1  0.33332500  0.66665050  0.25476300  1
  S  S2_3  1  0.33332500  0.66665050  0.75476300  1
  S  S2_4  1  0.83332500  0.16665050  0.25476300  1
  S  S2_5  1  0.83332500  0.16665050  0.75476300  1
  S  S2_6  1  0.83332500  0.66665050  0.25476300  1
  S  S2_7  1  0.83332500  0.66665050  0.75476300  1
  S  S3_0  1  0.16667300  0.33334700  0.12060000  1
  S  S3_1  1  0.16667300  0.33334700  0.62060000  1
  S  S3_2  1  0.16667300  0.83334700  0.12060000  1
  S  S3_3  1  0.16667300  0.83334700  0.62060000  1
  S  S3_4  1  0.66667300  0.33334700  0.12060000  1
  S  S3_5  1  0.66667300  0.33334700  0.62060000  1
  S  S3_6  1  0.66667300  0.83334700  0.12060000  1
  S  S3_7  1  0.66667300  0.83334700  0.62060000  1
loop_
_geom_bond_atom_site_label_1
_geom_bond_atom_site_label_2
_geom_bond_distance
_geom_bond_site_symmetry_2
Mg0_0 Mg0_6 3.356350 1_555
Mg0_0 Mg0_2 3.356350 1_555
Mg0_0 Mg0_6 3.356350 1_445
Mg0_0 Mg0_2 3.356350 1_545
Mg0_0 Mg0_4 3.356436 1_555
Mg0_0 Mg0_4 3.356436 1_455
Mg0_1 Mg0_3 3.356350 1_555
Mg0_1 Mg0_7 3.356350 1_555
Mg0_1 Mg0_3 3.356350 1_545
Mg0_1 Mg0_7 3.356350 1_445
Mg0_1 Mg0_5 3.356436 1_455
Mg0_1 Mg0_5 3.356436 1_555
Mg0_2 Mg0_4 3.356350 1_565
Mg0_2 Mg0_4 3.356350 1_455
Mg0_2 Mg0_6 3.356436 1_455
Mg0_2 Mg0_6 3.356436 1_555
Mg0_3 Mg0_5 3.356350 1_455
Mg0_3 Mg0_5 3.356350 1_565
Mg0_3 Mg0_7 3.356436 1_455
Mg0_3 Mg0_7 3.356436 1_555
Mg0_4 Mg0_6 3.356350 1_555
Mg0_4 Mg0_6 3.356350 1_545
Mg0_5 Mg0_7 3.356350 1_555
Mg0_5 Mg0_7 3.356350 1_545
Te0_0 W2_0 2.715744 1_555
Te0_0 W2_4 2.715744 1_455
Te0_0 W2_2 2.715765 1_555
Te0_1 W2_1 2.715744 1_555
Te0_1 W2_5 2.715744 1_455
Te0_1 W2_3 2.715765 1_555
Te0_2 W2_6 2.715744 1_455
Te0_2 W2_2 2.715744 1_555
Te0_2 W2_0 2.715765 1_565
Te0_3 W2_7 2.715744 1_455
Te0_3 W2_3 2.715744 1_555
Te0_3 W2_1 2.715765 1_565
Te0_4 W2_0 2.715744 1_555
Te0_4 W2_4 2.715744 1_555
Te0_4 W2_6 2.715765 1_555
Te0_5 W2_1 2.715744 1_555
Te0_5 W2_5 2.715744 1_555
Te0_5 W2_7 2.715765 1_555
Te0_6 W2_2 2.715744 1_555
Te0_6 W2_6 2.715744 1_555
Te0_6 W2_4 2.715765 1_565
Te0_7 W2_3 2.715744 1_555
Te0_7 W2_7 2.715744 1_555
Te0_7 W2_5 2.715765 1_565
Te3_0 W2_0 2.715866 1_555
Te3_0 W2_4 2.715868 1_455
Te3_0 W2_2 2.715899 1_555
Te3_1 W2_1 2.715866 1_555
Te3_1 W2_5 2.715868 1_455
Te3_1 W2_3 2.715899 1_555
Te3_2 W2_2 2.715866 1_555
Te3_2 W2_6 2.715868 1_455
Te3_2 W2_0 2.715899 1_565
Te3_3 W2_3 2.715866 1_555
Te3_3 W2_7 2.715868 1_455
Te3_3 W2_1 2.715899 1_565
Te3_4 W2_4 2.715866 1_555
Te3_4 W2_0 2.715868 1_555
Te3_4 W2_6 2.715899 1_555
Te3_5 W2_5 2.715866 1_555
Te3_5 W2_1 2.715868 1_555
Te3_5 W2_7 2.715899 1_555
Te3_6 W2_6 2.715866 1_555
Te3_6 W2_2 2.715868 1_555
Te3_6 W2_4 2.715899 1_565
Te3_7 W2_7 2.715866 1_555
Te3_7 W2_3 2.715868 1_555
Te3_7 W2_5 2.715899 1_565
Mo0_0 Te2_4 2.706253 1_455
Mo0_0 Te2_0 2.706255 1_555
Mo0_0 Te2_2 2.706327 1_555
Mo0_0 Te1_2 2.706422 1_555
Mo0_0 Te1_0 2.706443 1_555
Mo0_0 Te1_4 2.706443 1_455
Mo0_1 Te2_5 2.706253 1_455
Mo0_1 Te2_1 2.706255 1_555
Mo0_1 Te2_3 2.706327 1_555
Mo0_1 Te1_3 2.706422 1_555
Mo0_1 Te1_1 2.706443 1_555
Mo0_1 Te1_5 2.706443 1_455
Mo0_2 Te2_6 2.706253 1_455
Mo0_2 Te2_2 2.706255 1_555
Mo0_2 Te2_0 2.706327 1_565
Mo0_2 Te1_0 2.706422 1_565
Mo0_2 Te1_6 2.706443 1_455
Mo0_2 Te1_2 2.706443 1_555
Mo0_3 Te2_7 2.706253 1_455
Mo0_3 Te2_3 2.706255 1_555
Mo0_3 Te2_1 2.706327 1_565
Mo0_3 Te1_1 2.706422 1_565
Mo0_3 Te1_7 2.706443 1_455
Mo0_3 Te1_3 2.706443 1_555
Mo0_4 Te2_0 2.706253 1_555
Mo0_4 Te2_4 2.706255 1_555
Mo0_4 Te2_6 2.706327 1_555
Mo0_4 Te1_6 2.706422 1_555
Mo0_4 Te1_4 2.706443 1_555
Mo0_4 Te1_0 2.706443 1_555
Mo0_5 Te2_1 2.706253 1_555
Mo0_5 Te2_5 2.706255 1_555
Mo0_5 Te2_7 2.706327 1_555
Mo0_5 Te1_7 2.706422 1_555
Mo0_5 Te1_1 2.706443 1_555
Mo0_5 Te1_5 2.706443 1_555
Mo0_6 Te2_2 2.706253 1_555
Mo0_6 Te2_6 2.706255 1_555
Mo0_6 Te2_4 2.706327 1_565
Mo0_6 Te1_4 2.706422 1_565
Mo0_6 Te1_2 2.706443 1_555
Mo0_6 Te1_6 2.706443 1_555
Mo0_7 Te2_3 2.706253 1_555
Mo0_7 Te2_7 2.706255 1_555
Mo0_7 Te2_5 2.706327 1_565
Mo0_7 Te1_5 2.706422 1_565
Mo0_7 Te1_7 2.706443 1_555
Mo0_7 Te1_3 2.706443 1_555
S0_0 W1_4 2.464507 1_455
S0_0 W1_0 2.464511 1_555
S0_0 W1_2 2.464602 1_555
S0_1 W1_5 2.464507 1_455
S0_1 W1_1 2.464511 1_555
S0_1 W1_3 2.464602 1_555
S0_2 W1_6 2.464507 1_455
S0_2 W1_2 2.464511 1_555
S0_2 W1_0 2.464602 1_565
S0_3 W1_7 2.464507 1_455
S0_3 W1_3 2.464511 1_555
S0_3 W1_1 2.464602 1_565
S0_4 W1_0 2.464507 1_555
S0_4 W1_4 2.464511 1_555
S0_4 W1_6 2.464602 1_555
S0_5 W1_1 2.464507 1_555
S0_5 W1_5 2.464511 1_555
S0_5 W1_7 2.464602 1_555
S0_6 W1_2 2.464507 1_555
S0_6 W1_6 2.464511 1_555
S0_6 W1_4 2.464602 1_565
S0_7 W1_3 2.464507 1_555
S0_7 W1_7 2.464511 1_555
S0_7 W1_5 2.464602 1_565
S1_0 W0_2 2.467498 1_545
S1_0 W0_4 2.467599 1_555
S1_0 W0_0 2.467602 1_555
S1_1 W0_3 2.467498 1_545
S1_1 W0_5 2.467599 1_555
S1_1 W0_1 2.467602 1_555
S1_2 W0_0 2.467498 1_555
S1_2 W0_6 2.467599 1_555
S1_2 W0_2 2.467602 1_555
S1_3 W0_1 2.467498 1_555
S1_3 W0_7 2.467599 1_555
S1_3 W0_3 2.467602 1_555
S1_4 W0_6 2.467498 1_545
S1_4 W0_0 2.467599 1_655
S1_4 W0_4 2.467602 1_555
S1_5 W0_7 2.467498 1_545
S1_5 W0_1 2.467599 1_655
S1_5 W0_5 2.467602 1_555
S1_6 W0_4 2.467498 1_555
S1_6 W0_2 2.467599 1_655
S1_6 W0_6 2.467602 1_555
S1_7 W0_5 2.467498 1_555
S1_7 W0_3 2.467599 1_655
S1_7 W0_7 2.467602 1_555
S2_0 W0_4 2.456795 1_555
S2_0 W0_0 2.456795 1_555
S2_0 W0_2 2.456829 1_545
S2_1 W0_1 2.456795 1_555
S2_1 W0_5 2.456795 1_555
S2_1 W0_3 2.456829 1_545
S2_2 W0_6 2.456795 1_555
S2_2 W0_2 2.456795 1_555
S2_2 W0_0 2.456829 1_555
S2_3 W0_7 2.456795 1_555
S2_3 W0_3 2.456795 1_555
S2_3 W0_1 2.456829 1_555
S2_4 W0_4 2.456795 1_555
S2_4 W0_0 2.456795 1_655
S2_4 W0_6 2.456829 1_545
S2_5 W0_5 2.456795 1_555
S2_5 W0_1 2.456795 1_655
S2_5 W0_7 2.456829 1_545
S2_6 W0_2 2.456795 1_655
S2_6 W0_6 2.456795 1_555
S2_6 W0_4 2.456829 1_555
S2_7 W0_3 2.456795 1_655
S2_7 W0_7 2.456795 1_555
S2_7 W0_5 2.456829 1_555
S3_0 W1_2 2.457912 1_555
S3_0 W1_4 2.457923 1_455
S3_0 W1_0 2.457928 1_555
S3_1 W1_3 2.457912 1_555
S3_1 W1_5 2.457923 1_455
S3_1 W1_1 2.457928 1_555
S3_2 W1_0 2.457912 1_565
S3_2 W1_6 2.457923 1_455
S3_2 W1_2 2.457928 1_555
S3_3 W1_1 2.457912 1_565
S3_3 W1_7 2.457923 1_455
S3_3 W1_3 2.457928 1_555
S3_4 W1_6 2.457912 1_555
S3_4 W1_0 2.457923 1_555
S3_4 W1_4 2.457928 1_555
S3_5 W1_7 2.457912 1_555
S3_5 W1_1 2.457923 1_555
S3_5 W1_5 2.457928 1_555
S3_6 W1_4 2.457912 1_565
S3_6 W1_2 2.457923 1_555
S3_6 W1_6 2.457928 1_555
S3_7 W1_5 2.457912 1_565
S3_7 W1_3 2.457923 1_555
S3_7 W1_7 2.457928 1_555
