# generated using pymatgen
data_Na9Nb2Zn4(PO4)9
_symmetry_space_group_name_H-M   'P 1'
_cell_length_a   15.60711551
_cell_length_b   26.98502269
_cell_length_c   8.94379052
_cell_angle_alpha   89.81378562
_cell_angle_beta   124.94861296
_cell_angle_gamma   90.04154035
_symmetry_Int_Tables_number   1
_chemical_formula_structural   Na9Nb2Zn4(PO4)9
_chemical_formula_sum   'Na36 Nb8 Zn16 P36 O144'
_cell_volume   3087.45996533
_cell_formula_units_Z   4
loop_
 _symmetry_equiv_pos_site_id
 _symmetry_equiv_pos_as_xyz
  1  'x, y, z'
loop_
 _atom_site_type_symbol
 _atom_site_label
 _atom_site_symmetry_multiplicity
 _atom_site_fract_x
 _atom_site_fract_y
 _atom_site_fract_z
 _atom_site_occupancy
  Na  Na0  1  0.26025320  0.24926675  0.02939488  1
  Na  Na1  1  0.24792310  0.58256094  0.00150946  1
  Na  Na2  1  0.25069658  0.91743033  0.00526710  1
  Na  Na3  1  0.75674980  0.25135130  0.51796932  1
  Na  Na4  1  0.76215111  0.58907660  0.53213919  1
  Na  Na5  1  0.75326383  0.90967453  0.52370173  1
  Na  Na6  1  0.74792310  0.08256094  0.00150946  1
  Na  Na7  1  0.75069658  0.41743033  0.00526710  1
  Na  Na8  1  0.76025320  0.74926675  0.02939488  1
  Na  Na9  1  0.26215111  0.08907660  0.53213919  1
  Na  Na10  1  0.25326383  0.40967453  0.52370173  1
  Na  Na11  1  0.25674980  0.75135130  0.51796932  1
  Na  Na12  1  0.49565563  0.03897169  0.74382575  1
  Na  Na13  1  0.49673804  0.37400039  0.74239397  1
  Na  Na14  1  0.49558750  0.70180822  0.75598726  1
  Na  Na15  1  0.50114201  0.30088194  0.26946773  1
  Na  Na16  1  0.49185705  0.63072089  0.24938775  1
  Na  Na17  1  0.49839648  0.96882315  0.26537239  1
  Na  Na18  1  0.99558750  0.20180822  0.75598726  1
  Na  Na19  1  0.99565563  0.53897169  0.74382575  1
  Na  Na20  1  0.99673804  0.87400039  0.74239397  1
  Na  Na21  1  0.99185705  0.13072089  0.24938775  1
  Na  Na22  1  0.99839648  0.46882315  0.26537239  1
  Na  Na23  1  0.00114201  0.80088194  0.26946773  1
  Na  Na24  1  0.82252504  0.97628763  0.21553428  1
  Na  Na25  1  0.18695896  0.63698349  0.29875334  1
  Na  Na26  1  0.19396689  0.97200210  0.30325534  1
  Na  Na27  1  0.18640546  0.68896817  0.75969425  1
  Na  Na28  1  0.80591680  0.02112605  0.71426226  1
  Na  Na29  1  0.80616078  0.35696292  0.70802459  1
  Na  Na30  1  0.32252504  0.47628763  0.21553428  1
  Na  Na31  1  0.68695896  0.13698349  0.29875334  1
  Na  Na32  1  0.69396689  0.47200210  0.30325534  1
  Na  Na33  1  0.68640546  0.18896817  0.75969425  1
  Na  Na34  1  0.30591680  0.52112605  0.71426226  1
  Na  Na35  1  0.30616078  0.85696292  0.70802459  1
  Nb  Nb0  1  0.10822391  0.25184923  0.56100475  1
  Nb  Nb1  1  0.10616409  0.08373266  0.05765997  1
  Nb  Nb2  1  0.10584458  0.41302314  0.05890336  1
  Nb  Nb3  1  0.10312880  0.74905297  0.06092635  1
  Nb  Nb4  1  0.60822391  0.75184923  0.56100475  1
  Nb  Nb5  1  0.60312880  0.24905297  0.06092635  1
  Nb  Nb6  1  0.60616409  0.58373266  0.05765997  1
  Nb  Nb7  1  0.60584458  0.91302314  0.05890336  1
  Zn  Zn0  1  0.08948735  0.58531068  0.54872990  1
  Zn  Zn1  1  0.10016640  0.92058362  0.55972242  1
  Zn  Zn2  1  0.90131665  0.25159912  0.95624543  1
  Zn  Zn3  1  0.89965060  0.58474608  0.95409749  1
  Zn  Zn4  1  0.90040415  0.91642027  0.95398289  1
  Zn  Zn5  1  0.90261050  0.08166151  0.45150314  1
  Zn  Zn6  1  0.90007024  0.41603491  0.44462663  1
  Zn  Zn7  1  0.89860887  0.74768594  0.44506774  1
  Zn  Zn8  1  0.58948735  0.08531068  0.54872990  1
  Zn  Zn9  1  0.60016640  0.42058362  0.55972242  1
  Zn  Zn10  1  0.39965060  0.08474608  0.95409749  1
  Zn  Zn11  1  0.40040415  0.41642027  0.95398289  1
  Zn  Zn12  1  0.40131665  0.75159912  0.95624543  1
  Zn  Zn13  1  0.39860887  0.24768594  0.44506774  1
  Zn  Zn14  1  0.40261050  0.58166151  0.45150314  1
  Zn  Zn15  1  0.40007024  0.91603491  0.44462663  1
  P  P0  1  0.99737036  0.31800327  0.73837384  1
  P  P1  1  0.99829094  0.65081772  0.74623520  1
  P  P2  1  0.99901721  0.98433432  0.74305336  1
  P  P3  1  0.99971318  0.01592779  0.24439880  1
  P  P4  1  0.99528534  0.34901888  0.23683767  1
  P  P5  1  0.00035128  0.68182263  0.25447781  1
  P  P6  1  0.49829094  0.15081772  0.74623520  1
  P  P7  1  0.49901721  0.48433432  0.74305336  1
  P  P8  1  0.49737036  0.81800327  0.73837384  1
  P  P9  1  0.50035128  0.18182263  0.25447781  1
  P  P10  1  0.49971318  0.51592779  0.24439880  1
  P  P11  1  0.49528534  0.84901888  0.23683767  1
  P  P12  1  0.35375024  0.29815549  0.74500392  1
  P  P13  1  0.35039887  0.63249552  0.74997108  1
  P  P14  1  0.35178412  0.96508977  0.75128055  1
  P  P15  1  0.64531514  0.30018128  0.73891337  1
  P  P16  1  0.64470967  0.63303148  0.73439258  1
  P  P17  1  0.64624785  0.96580365  0.73846899  1
  P  P18  1  0.64819836  0.03198650  0.24336554  1
  P  P19  1  0.64585176  0.36736466  0.24248202  1
  P  P20  1  0.64396599  0.70119849  0.23618782  1
  P  P21  1  0.35306181  0.03489712  0.25537014  1
  P  P22  1  0.35468836  0.36736267  0.25907400  1
  P  P23  1  0.35024108  0.70198825  0.24920495  1
  P  P24  1  0.85039887  0.13249552  0.74997108  1
  P  P25  1  0.85178412  0.46508977  0.75128055  1
  P  P26  1  0.85375024  0.79815549  0.74500392  1
  P  P27  1  0.14470967  0.13303148  0.73439258  1
  P  P28  1  0.14624785  0.46580365  0.73846899  1
  P  P29  1  0.14531514  0.80018128  0.73891337  1
  P  P30  1  0.14396599  0.20119849  0.23618782  1
  P  P31  1  0.14819836  0.53198650  0.24336554  1
  P  P32  1  0.14585176  0.86736466  0.24248202  1
  P  P33  1  0.85024108  0.20198825  0.24920495  1
  P  P34  1  0.85306181  0.53489712  0.25537014  1
  P  P35  1  0.85468836  0.86736267  0.25907400  1
  O  O0  1  0.14791456  0.19244254  0.73863921  1
  O  O1  1  0.15456743  0.52283626  0.76298706  1
  O  O2  1  0.15552270  0.85662344  0.76206712  1
  O  O3  1  0.84138114  0.18940390  0.75182254  1
  O  O4  1  0.85127268  0.52160424  0.76248286  1
  O  O5  1  0.84685455  0.85389022  0.76245479  1
  O  O6  1  0.84146796  0.14561804  0.26248289  1
  O  O7  1  0.83505891  0.47858257  0.25698877  1
  O  O8  1  0.84592998  0.81100004  0.25489716  1
  O  O9  1  0.14966821  0.14248073  0.24724608  1
  O  O10  1  0.15587416  0.47263629  0.23430254  1
  O  O11  1  0.15094167  0.80813687  0.22917119  1
  O  O12  1  0.65456743  0.02283626  0.76298706  1
  O  O13  1  0.65552270  0.35662344  0.76206712  1
  O  O14  1  0.64791456  0.69244254  0.73863921  1
  O  O15  1  0.35127268  0.02160424  0.76248286  1
  O  O16  1  0.34685455  0.35389022  0.76245479  1
  O  O17  1  0.34138114  0.68940390  0.75182254  1
  O  O18  1  0.34592998  0.31100004  0.25489716  1
  O  O19  1  0.34146796  0.64561804  0.26248289  1
  O  O20  1  0.33505891  0.97858257  0.25698877  1
  O  O21  1  0.65094167  0.30813687  0.22917119  1
  O  O22  1  0.64966821  0.64248073  0.24724608  1
  O  O23  1  0.65587416  0.97263629  0.23430254  1
  O  O24  1  0.44132466  0.18309666  0.57945763  1
  O  O25  1  0.43383904  0.51539795  0.56995859  1
  O  O26  1  0.43438133  0.85065151  0.57386028  1
  O  O27  1  0.55954430  0.18730245  0.92329087  1
  O  O28  1  0.55711598  0.52370848  0.91201202  1
  O  O29  1  0.56298137  0.85065400  0.91613296  1
  O  O30  1  0.57752028  0.15316951  0.43416634  1
  O  O31  1  0.57300458  0.48387198  0.41168586  1
  O  O32  1  0.55823559  0.81148695  0.40717056  1
  O  O33  1  0.44379713  0.14969917  0.08762169  1
  O  O34  1  0.43128533  0.48650065  0.06828311  1
  O  O35  1  0.43374150  0.81957494  0.06295408  1
  O  O36  1  0.93383904  0.01539795  0.56995859  1
  O  O37  1  0.93438133  0.35065151  0.57386028  1
  O  O38  1  0.94132466  0.68309666  0.57945763  1
  O  O39  1  0.05711598  0.02370848  0.91201202  1
  O  O40  1  0.06298137  0.35065400  0.91613296  1
  O  O41  1  0.05954430  0.68730245  0.92329087  1
  O  O42  1  0.05823559  0.31148695  0.40717056  1
  O  O43  1  0.07752028  0.65316951  0.43416634  1
  O  O44  1  0.07300458  0.98387198  0.41168586  1
  O  O45  1  0.93374150  0.31957494  0.06295408  1
  O  O46  1  0.94379713  0.64969917  0.08762169  1
  O  O47  1  0.93128533  0.98650065  0.06828311  1
  O  O48  1  0.25692880  0.27253164  0.73222705  1
  O  O49  1  0.27075928  0.60591363  0.77067596  1
  O  O50  1  0.27217854  0.93716074  0.76840203  1
  O  O51  1  0.74055490  0.27668715  0.75442858  1
  O  O52  1  0.74035087  0.61156344  0.75689202  1
  O  O53  1  0.74139414  0.94481922  0.75033981  1
  O  O54  1  0.74245795  0.05324004  0.24948225  1
  O  O55  1  0.73818162  0.39094898  0.25245703  1
  O  O56  1  0.73875538  0.72311763  0.25574028  1
  O  O57  1  0.25057645  0.05951019  0.22900519  1
  O  O58  1  0.25264176  0.39036191  0.23656089  1
  O  O59  1  0.25861655  0.72607435  0.25028446  1
  O  O60  1  0.77075928  0.10591363  0.77067596  1
  O  O61  1  0.77217854  0.43716074  0.76840203  1
  O  O62  1  0.75692880  0.77253164  0.73222705  1
  O  O63  1  0.24035087  0.11156344  0.75689202  1
  O  O64  1  0.24139414  0.44481922  0.75033981  1
  O  O65  1  0.24055490  0.77668715  0.75442858  1
  O  O66  1  0.23875538  0.22311763  0.25574028  1
  O  O67  1  0.24245795  0.55324004  0.24948225  1
  O  O68  1  0.23818162  0.89094898  0.25245703  1
  O  O69  1  0.75861655  0.22607435  0.25028446  1
  O  O70  1  0.75057645  0.55951019  0.22900519  1
  O  O71  1  0.75264176  0.89036191  0.23656089  1
  O  O72  1  0.35225167  0.28479846  0.58128404  1
  O  O73  1  0.34340771  0.61802379  0.57770107  1
  O  O74  1  0.34533486  0.95034662  0.58034751  1
  O  O75  1  0.63845946  0.27894786  0.90227812  1
  O  O76  1  0.63850342  0.61987816  0.90247494  1
  O  O77  1  0.64646953  0.94562797  0.91054976  1
  O  O78  1  0.65240793  0.04174610  0.41764151  1
  O  O79  1  0.64716520  0.37484516  0.41555665  1
  O  O80  1  0.63621677  0.71570277  0.40314120  1
  O  O81  1  0.35710980  0.04685089  0.09448984  1
  O  O82  1  0.35203676  0.38589179  0.09544435  1
  O  O83  1  0.34180418  0.71376365  0.07450391  1
  O  O84  1  0.84340771  0.11802379  0.57770107  1
  O  O85  1  0.84533486  0.45034662  0.58034751  1
  O  O86  1  0.85225167  0.78479846  0.58128404  1
  O  O87  1  0.13850342  0.11987816  0.90247494  1
  O  O88  1  0.14646953  0.44562797  0.91054976  1
  O  O89  1  0.13845946  0.77894786  0.90227812  1
  O  O90  1  0.13621677  0.21570277  0.40314120  1
  O  O91  1  0.15240793  0.54174610  0.41764151  1
  O  O92  1  0.14716520  0.87484516  0.41555665  1
  O  O93  1  0.84180418  0.21376365  0.07450391  1
  O  O94  1  0.85710980  0.54685089  0.09448984  1
  O  O95  1  0.85203676  0.88589179  0.09544435  1
  O  O96  1  0.45616775  0.27672324  0.92617144  1
  O  O97  1  0.46342843  0.61544532  0.92055731  1
  O  O98  1  0.46519334  0.94321515  0.92039234  1
  O  O99  1  0.54612705  0.28267099  0.56302490  1
  O  O100  1  0.54180010  0.61858389  0.55912695  1
  O  O101  1  0.54439629  0.94982679  0.56486365  1
  O  O102  1  0.54728031  0.04990001  0.06997248  1
  O  O103  1  0.54368571  0.38428089  0.06655674  1
  O  O104  1  0.54101671  0.71610238  0.06186261  1
  O  O105  1  0.44610812  0.05444819  0.43936788  1
  O  O106  1  0.44626811  0.39020326  0.43928147  1
  O  O107  1  0.45629892  0.72298058  0.42061710  1
  O  O108  1  0.96342843  0.11544532  0.92055731  1
  O  O109  1  0.96519334  0.44321515  0.92039234  1
  O  O110  1  0.95616775  0.77672324  0.92617144  1
  O  O111  1  0.04180010  0.11858389  0.55912695  1
  O  O112  1  0.04439629  0.44982679  0.56486365  1
  O  O113  1  0.04612705  0.78267099  0.56302490  1
  O  O114  1  0.04101671  0.21610238  0.06186261  1
  O  O115  1  0.04728031  0.54990001  0.06997248  1
  O  O116  1  0.04368571  0.88428089  0.06655674  1
  O  O117  1  0.95629892  0.22298058  0.42061710  1
  O  O118  1  0.94610812  0.55444819  0.43936788  1
  O  O119  1  0.94626811  0.89020326  0.43928147  1
  O  O120  1  0.08054388  0.28500608  0.73549140  1
  O  O121  1  0.08991344  0.62133442  0.76553775  1
  O  O122  1  0.08550789  0.95270488  0.76103700  1
  O  O123  1  0.92529000  0.28220617  0.75173721  1
  O  O124  1  0.92606067  0.61571468  0.76063086  1
  O  O125  1  0.92256464  0.95252053  0.75950434  1
  O  O126  1  0.92627664  0.05183540  0.25586243  1
  O  O127  1  0.92890312  0.38623660  0.25649855  1
  O  O128  1  0.92831057  0.72015319  0.25633240  1
  O  O129  1  0.07812859  0.05111817  0.23003029  1
  O  O130  1  0.08375440  0.38011766  0.24392445  1
  O  O131  1  0.08292081  0.71654034  0.24207148  1
  O  O132  1  0.58991344  0.12133442  0.76553775  1
  O  O133  1  0.58550789  0.45270488  0.76103700  1
  O  O134  1  0.58054388  0.78500608  0.73549140  1
  O  O135  1  0.42606067  0.11571468  0.76063086  1
  O  O136  1  0.42256464  0.45252053  0.75950434  1
  O  O137  1  0.42529000  0.78220617  0.75173721  1
  O  O138  1  0.42831057  0.22015319  0.25633240  1
  O  O139  1  0.42627664  0.55183540  0.25586243  1
  O  O140  1  0.42890312  0.88623660  0.25649855  1
  O  O141  1  0.58292081  0.21654034  0.24207148  1
  O  O142  1  0.57812859  0.55111817  0.23003029  1
  O  O143  1  0.58375440  0.88011766  0.24392445  1
loop_
_geom_bond_atom_site_label_1
_geom_bond_atom_site_label_2
_geom_bond_distance
_geom_bond_site_symmetry_2
Na0 O66 2.340336 1_555
Na0 O138 2.347297 1_555
Na0 O18 2.357898 1_555
Na0 O0 2.643136 1_554
Na0 O120 2.692045 1_554
Na0 O48 2.700367 1_554
Na1 O49 2.370788 1_554
Na1 O121 2.378438 1_554
Na1 O1 2.393576 1_554
Na1 O67 2.399426 1_555
Na1 O139 2.519351 1_555
Na1 O19 2.567683 1_555
Na2 O50 2.385362 1_554
Na2 O122 2.421212 1_554
Na2 O68 2.433262 1_555
Na2 O2 2.438874 1_554
Na2 O20 2.479958 1_555
Na2 O140 2.514793 1_555
Na3 O51 2.371905 1_555
Na3 O123 2.385590 1_555
Na3 O3 2.393531 1_555
Na3 O69 2.507681 1_555
Na3 O141 2.583253 1_555
Na3 O21 2.614941 1_555
Na4 O124 2.292287 1_555
Na4 O52 2.305741 1_555
Na4 O4 2.488033 1_555
Na4 O22 2.550711 1_555
Na4 O70 2.733562 1_555
Na4 O142 2.778779 1_555
Na5 O5 2.316940 1_555
Na5 O53 2.342103 1_555
Na5 O143 2.514375 1_555
Na5 O125 2.528509 1_555
Na5 O71 2.616696 1_555
Na5 O23 2.713717 1_555
Na6 O60 2.370788 1_554
Na6 O132 2.378438 1_554
Na6 O12 2.393576 1_554
Na6 O54 2.399426 1_555
Na6 O126 2.519351 1_555
Na6 O6 2.567683 1_555
Na7 O61 2.385362 1_554
Na7 O133 2.421212 1_554
Na7 O55 2.433262 1_555
Na7 O13 2.438874 1_554
Na7 O7 2.479958 1_555
Na7 O127 2.514793 1_555
Na8 O56 2.340336 1_555
Na8 O128 2.347297 1_555
Na8 O8 2.357898 1_555
Na8 O14 2.643136 1_554
Na8 O134 2.692045 1_554
Na8 O62 2.700367 1_554
Na9 O135 2.292287 1_555
Na9 O63 2.305741 1_555
Na9 O15 2.488033 1_555
Na9 O9 2.550711 1_555
Na9 O57 2.733562 1_555
Na9 O129 2.778779 1_555
Na10 O16 2.316940 1_555
Na10 O64 2.342103 1_555
Na10 O130 2.514375 1_555
Na10 O136 2.528509 1_555
Na10 O58 2.616696 1_555
Na10 O10 2.713717 1_555
Na11 O65 2.371905 1_555
Na11 O137 2.385590 1_555
Na11 O17 2.393531 1_555
Na11 O59 2.507681 1_555
Na11 O131 2.583253 1_555
Na11 O11 2.614941 1_555
Na12 O135 2.383981 1_555
Na12 O15 2.398762 1_555
Na12 O105 2.401624 1_555
Na12 O12 2.425747 1_555
Na12 O102 2.560773 1_556
Na12 O132 2.610053 1_555
Na13 O106 2.388997 1_555
Na13 O13 2.427706 1_555
Na13 O136 2.462064 1_555
Na13 O133 2.488238 1_555
Na13 O16 2.505424 1_555
Na13 O103 2.567212 1_556
Na14 O17 2.408718 1_555
Na14 O137 2.422232 1_555
Na14 O104 2.433044 1_556
Na14 O14 2.482669 1_555
Na14 O134 2.665259 1_555
Na14 O107 2.753452 1_555
Na14 O76 2.867046 1_555
Na14 O97 2.944823 1_555
Na14 O73 2.995352 1_555
Na15 O99 2.346908 1_555
Na15 O18 2.366151 1_555
Na15 O138 2.428304 1_555
Na15 O21 2.568739 1_555
Na15 O141 2.689830 1_555
Na15 O79 2.735593 1_555
Na15 O96 2.808575 1_554
Na16 O139 2.376209 1_555
Na16 O100 2.430980 1_555
Na16 O19 2.449695 1_555
Na16 O22 2.494034 1_555
Na16 O142 2.594385 1_555
Na16 O97 2.743872 1_554
Na16 O80 2.947802 1_555
Na16 O83 2.956485 1_555
Na17 O101 2.396133 1_555
Na17 O140 2.459333 1_555
Na17 O20 2.520992 1_555
Na17 O23 2.628758 1_555
Na17 O81 2.785031 1_565
Na17 O78 2.786550 1_565
Na17 O143 2.800323 1_555
Na17 O98 2.906451 1_554
Na18 O3 2.408718 1_555
Na18 O123 2.422232 1_555
Na18 O114 2.433044 1_656
Na18 O0 2.482669 1_655
Na18 O120 2.665259 1_655
Na18 O117 2.753452 1_555
Na18 O87 2.867046 1_655
Na18 O108 2.944823 1_555
Na18 O84 2.995352 1_555
Na19 O124 2.383981 1_555
Na19 O4 2.398762 1_555
Na19 O118 2.401624 1_555
Na19 O1 2.425747 1_655
Na19 O115 2.560773 1_656
Na19 O121 2.610053 1_655
Na20 O119 2.388997 1_555
Na20 O2 2.427706 1_655
Na20 O125 2.462064 1_555
Na20 O122 2.488238 1_655
Na20 O5 2.505424 1_555
Na20 O116 2.567212 1_656
Na21 O126 2.376209 1_555
Na21 O111 2.430980 1_655
Na21 O6 2.449695 1_555
Na21 O9 2.494034 1_655
Na21 O129 2.594385 1_655
Na21 O108 2.743872 1_554
Na21 O90 2.947802 1_655
Na21 O93 2.956485 1_555
Na22 O112 2.396133 1_655
Na22 O127 2.459333 1_555
Na22 O7 2.520992 1_555
Na22 O10 2.628758 1_655
Na22 O94 2.785031 1_555
Na22 O91 2.786550 1_655
Na22 O130 2.800323 1_655
Na22 O109 2.906451 1_554
Na23 O113 2.346908 1_555
Na23 O8 2.366151 1_455
Na23 O128 2.428304 1_455
Na23 O11 2.568739 1_555
Na23 O131 2.689830 1_555
Na23 O92 2.735593 1_555
Na23 O110 2.808575 1_454
Na24 O126 2.497818 1_565
Na24 O54 2.531479 1_565
Na24 O71 2.613395 1_555
Na24 O77 2.664468 1_554
Na24 O47 2.692548 1_555
Na24 O23 2.702312 1_555
Na24 O36 2.808924 1_565
Na24 O95 2.810966 1_555
Na24 O119 2.946045 1_555
Na25 O73 2.337167 1_555
Na25 O67 2.549089 1_555
Na25 O131 2.560734 1_555
Na25 O19 2.620969 1_555
Na25 O43 2.636165 1_555
Na25 O59 2.786255 1_555
Na26 O74 2.312843 1_555
Na26 O68 2.415445 1_555
Na26 O20 2.468733 1_555
Na26 O44 2.589898 1_555
Na26 O129 2.625915 1_565
Na26 O57 2.730717 1_565
Na27 O121 2.384786 1_555
Na27 O17 2.459749 1_555
Na27 O65 2.522215 1_555
Na27 O83 2.538464 1_556
Na27 O49 2.573068 1_555
Na27 O43 2.577811 1_555
Na28 O53 2.392321 1_545
Na28 O78 2.407909 1_555
Na28 O125 2.462015 1_545
Na28 O60 2.473273 1_555
Na28 O12 2.636534 1_555
Na28 O47 2.759067 1_546
Na28 O36 2.937593 1_555
Na29 O61 2.365116 1_555
Na29 O79 2.406189 1_555
Na29 O51 2.528057 1_555
Na29 O123 2.616636 1_555
Na29 O13 2.657607 1_555
Na29 O45 2.792855 1_556
Na29 O37 2.868166 1_555
Na29 O85 2.967645 1_555
Na30 O139 2.497818 1_555
Na30 O67 2.531479 1_555
Na30 O58 2.613395 1_555
Na30 O88 2.664468 1_554
Na30 O34 2.692548 1_555
Na30 O10 2.702312 1_555
Na30 O25 2.808924 1_555
Na30 O82 2.810966 1_555
Na30 O106 2.946045 1_555
Na31 O84 2.337167 1_555
Na31 O54 2.549089 1_555
Na31 O141 2.560734 1_555
Na31 O6 2.620969 1_555
Na31 O30 2.636165 1_555
Na31 O69 2.786255 1_555
Na32 O85 2.312843 1_555
Na32 O55 2.415445 1_555
Na32 O7 2.468733 1_555
Na32 O31 2.589898 1_555
Na32 O142 2.625915 1_555
Na32 O70 2.730717 1_555
Na33 O132 2.384786 1_555
Na33 O3 2.459749 1_555
Na33 O51 2.522215 1_555
Na33 O93 2.538464 1_556
Na33 O60 2.573068 1_555
Na33 O30 2.577811 1_555
Na34 O64 2.392321 1_555
Na34 O91 2.407909 1_555
Na34 O136 2.462015 1_555
Na34 O49 2.473273 1_555
Na34 O1 2.636534 1_555
Na34 O34 2.759067 1_556
Na34 O25 2.937593 1_555
Na35 O50 2.365116 1_555
Na35 O92 2.406189 1_555
Na35 O65 2.528057 1_555
Na35 O137 2.616636 1_555
Na35 O2 2.657607 1_555
Na35 O35 2.792855 1_556
Na35 O26 2.868166 1_555
Na35 O74 2.967645 1_555
Nb0 O42 1.961946 1_555
Nb0 O90 1.962660 1_555
Nb0 O48 1.993684 1_555
Nb0 O120 2.050512 1_555
Nb0 O0 2.082076 1_555
Nb0 O117 2.097227 1_455
Nb1 O39 1.943180 1_554
Nb1 O57 1.973340 1_555
Nb1 O87 1.981307 1_554
Nb1 O108 2.016163 1_454
Nb1 O129 2.026362 1_555
Nb1 O9 2.132198 1_555
Nb2 O88 1.972833 1_554
Nb2 O109 1.974245 1_454
Nb2 O40 1.986025 1_554
Nb2 O58 1.993165 1_555
Nb2 O10 2.066310 1_555
Nb2 O130 2.071059 1_555
Nb3 O41 1.951171 1_554
Nb3 O89 1.963789 1_554
Nb3 O131 2.017372 1_555
Nb3 O11 2.022516 1_555
Nb3 O110 2.024955 1_454
Nb3 O59 2.104387 1_555
Nb4 O32 1.961946 1_555
Nb4 O80 1.962660 1_555
Nb4 O62 1.993684 1_555
Nb4 O134 2.050512 1_555
Nb4 O14 2.082076 1_555
Nb4 O107 2.097227 1_555
Nb5 O27 1.951171 1_554
Nb5 O75 1.963789 1_554
Nb5 O141 2.017372 1_555
Nb5 O21 2.022516 1_555
Nb5 O96 2.024955 1_554
Nb5 O69 2.104387 1_555
Nb6 O28 1.943180 1_554
Nb6 O70 1.973340 1_555
Nb6 O76 1.981307 1_554
Nb6 O97 2.016163 1_554
Nb6 O142 2.026362 1_555
Nb6 O22 2.132198 1_555
Nb7 O77 1.972833 1_554
Nb7 O98 1.974245 1_554
Nb7 O29 1.986025 1_554
Nb7 O71 1.993165 1_555
Nb7 O23 2.066310 1_555
Nb7 O143 2.071059 1_555
O0 P27 1.603847 1_555
O1 P28 1.550107 1_555
O1 Zn0 2.301627 1_555
O2 P29 1.533616 1_555
O2 Zn1 2.278389 1_555
O3 P24 1.543219 1_555
O3 Zn2 2.256733 1_555
O4 P25 1.528983 1_555
O4 Zn3 2.223720 1_555
O5 P26 1.522817 1_555
O5 Zn4 2.203766 1_555
O6 P33 1.537500 1_555
O6 Zn5 2.209613 1_555
O7 P34 1.546735 1_555
O7 Zn6 2.174376 1_555
O8 P35 1.525640 1_555
O8 Zn7 2.206574 1_555
O9 P30 1.586646 1_555
O10 P31 1.611889 1_555
O11 P32 1.608473 1_555
O12 P17 1.550107 1_545
O12 Zn8 2.301627 1_555
O13 P15 1.533616 1_555
O13 Zn9 2.278389 1_555
O14 P16 1.603847 1_555
O15 P14 1.528983 1_545
O15 Zn10 2.223720 1_555
O16 P12 1.522817 1_555
O16 Zn11 2.203766 1_555
O17 P13 1.543219 1_555
O17 Zn12 2.256733 1_555
O18 P22 1.525640 1_555
O18 Zn13 2.206574 1_555
O19 P23 1.537500 1_555
O19 Zn14 2.209613 1_555
O20 P21 1.546735 1_565
O20 Zn15 2.174376 1_555
O21 P19 1.608473 1_555
O22 P20 1.586646 1_555
O23 P18 1.611889 1_565
O24 P6 1.499144 1_555
O24 Zn13 1.999255 1_555
O25 P7 1.524039 1_555
O25 Zn14 1.988646 1_555
O26 P8 1.497731 1_555
O26 Zn15 2.003678 1_555
O27 P6 1.632555 1_555
O28 P7 1.635191 1_555
O29 P8 1.579589 1_555
O30 P9 1.551412 1_555
O30 Zn8 2.051096 1_555
O31 P10 1.525622 1_555
O31 Zn9 2.047615 1_555
O32 P11 1.608874 1_555
O33 P9 1.501914 1_555
O33 Zn10 2.010524 1_554
O34 P10 1.527036 1_555
O34 Zn11 2.073751 1_554
O35 P11 1.505991 1_555
O35 Zn12 1.997098 1_554
O36 P2 1.524039 1_545
O36 Zn5 1.988646 1_555
O37 P0 1.497731 1_555
O37 Zn6 2.003678 1_555
O38 P1 1.499144 1_555
O38 Zn7 1.999255 1_555
O39 P2 1.635191 1_445
O40 P0 1.579589 1_455
O41 P1 1.632555 1_455
O42 P4 1.608874 1_455
O43 P5 1.551412 1_555
O43 Zn0 2.051096 1_555
O44 P3 1.525622 1_465
O44 Zn1 2.047615 1_555
O45 P4 1.505991 1_555
O45 Zn2 1.997098 1_554
O46 P5 1.501914 1_655
O46 Zn3 2.010524 1_554
O47 P3 1.527036 1_565
O47 Zn4 2.073751 1_554
O48 P12 1.604921 1_555
O49 P13 1.534693 1_555
O49 Zn0 2.413355 1_555
O50 P14 1.533269 1_555
O50 Zn1 2.270213 1_555
O51 P15 1.547618 1_555
O51 Zn2 2.194889 1_555
O52 P16 1.503518 1_555
O52 Zn3 2.187736 1_555
O53 P17 1.535329 1_555
O53 Zn4 2.208742 1_555
O54 P18 1.550128 1_555
O54 Zn5 2.220932 1_555
O55 P19 1.530110 1_555
O55 Zn6 2.196802 1_555
O56 P20 1.507329 1_555
O56 Zn7 2.167029 1_555
O57 P21 1.619739 1_555
O58 P22 1.611053 1_555
O59 P23 1.576273 1_555
O60 P24 1.534693 1_555
O60 Zn8 2.413355 1_555
O61 P25 1.533269 1_555
O61 Zn9 2.270213 1_555
O62 P26 1.604921 1_555
O63 P27 1.503518 1_555
O63 Zn10 2.187736 1_555
O64 P28 1.535329 1_555
O64 Zn11 2.208742 1_555
O65 P29 1.547618 1_555
O65 Zn12 2.194889 1_555
O66 P30 1.507329 1_555
O66 Zn13 2.167029 1_555
O67 P31 1.550128 1_555
O67 Zn14 2.220932 1_555
O68 P32 1.530110 1_555
O68 Zn15 2.196802 1_555
O69 P33 1.576273 1_555
O70 P34 1.619739 1_555
O71 P35 1.611053 1_555
O72 P12 1.496246 1_555
O72 Zn13 2.007356 1_555
O73 P13 1.532826 1_555
O73 Zn14 2.072160 1_555
O74 P14 1.527484 1_555
O74 Zn15 2.063246 1_555
O75 P15 1.627314 1_555
O76 P16 1.599551 1_555
O77 P17 1.628979 1_555
O78 P18 1.545479 1_555
O78 Zn8 2.247362 1_555
O79 P19 1.550151 1_555
O79 Zn9 2.195263 1_555
O80 P20 1.614999 1_555
O81 P21 1.509808 1_555
O81 Zn10 2.002237 1_554
O82 P22 1.522941 1_555
O82 Zn11 1.983877 1_554
O83 P23 1.523418 1_555
O83 Zn12 2.034926 1_554
O84 P24 1.532826 1_555
O84 Zn5 2.072160 1_555
O85 P25 1.527484 1_555
O85 Zn6 2.063246 1_555
O86 P26 1.496246 1_555
O86 Zn7 2.007356 1_555
O87 P27 1.599551 1_555
O88 P28 1.628979 1_555
O89 P29 1.627314 1_555
O90 P30 1.614999 1_555
O91 P31 1.545479 1_555
O91 Zn0 2.247362 1_555
O92 P32 1.550151 1_555
O92 Zn1 2.195263 1_555
O93 P33 1.523418 1_555
O93 Zn2 2.034926 1_554
O94 P34 1.509808 1_555
O94 Zn3 2.002237 1_554
O95 P35 1.522941 1_555
O95 Zn4 1.983877 1_554
O96 P12 1.594645 1_555
O97 P13 1.601390 1_555
O98 P14 1.642423 1_555
O99 P15 1.519255 1_555
O99 Zn13 2.127333 1_555
O100 P16 1.519022 1_555
O100 Zn14 2.060530 1_555
O101 P17 1.516311 1_555
O101 Zn15 2.071225 1_555
O102 P18 1.522238 1_555
O102 Zn10 2.127931 1_554
O103 P19 1.532509 1_555
O103 Zn11 2.045525 1_554
O104 P20 1.516918 1_555
O104 Zn12 2.049671 1_554
O105 P21 1.536855 1_555
O105 Zn8 2.037826 1_555
O106 P22 1.544799 1_555
O106 Zn9 2.154121 1_555
O107 P23 1.583684 1_555
O108 P24 1.601390 1_555
O109 P25 1.642423 1_555
O110 P26 1.594645 1_555
O111 P27 1.519022 1_555
O111 Zn5 2.060530 1_455
O112 P28 1.516311 1_555
O112 Zn6 2.071225 1_455
O113 P29 1.519255 1_555
O113 Zn7 2.127333 1_455
O114 P30 1.516918 1_555
O114 Zn2 2.049671 1_454
O115 P31 1.522238 1_555
O115 Zn3 2.127931 1_454
O116 P32 1.532509 1_555
O116 Zn4 2.045525 1_454
O117 P33 1.583684 1_555
O118 P34 1.536855 1_555
O118 Zn0 2.037826 1_655
O119 P35 1.544799 1_555
O119 Zn1 2.154121 1_655
O120 P0 1.587059 1_455
O121 P1 1.557407 1_455
O121 Zn0 2.168534 1_555
O122 P2 1.525959 1_455
O122 Zn1 2.127882 1_555
O123 P0 1.537751 1_555
O123 Zn2 2.222943 1_555
O124 P1 1.532526 1_555
O124 Zn3 2.160906 1_555
O125 P2 1.543124 1_555
O125 Zn4 2.184438 1_555
O126 P3 1.549166 1_555
O126 Zn5 2.143817 1_555
O127 P4 1.524574 1_555
O127 Zn6 2.134699 1_555
O128 P5 1.535409 1_655
O128 Zn7 2.126360 1_555
O129 P3 1.610518 1_455
O130 P4 1.585288 1_455
O131 P5 1.646841 1_555
O132 P6 1.557407 1_555
O132 Zn8 2.168534 1_555
O133 P7 1.525959 1_555
O133 Zn9 2.127882 1_555
O134 P8 1.587059 1_555
O135 P6 1.532526 1_555
O135 Zn10 2.160906 1_555
O136 P7 1.543124 1_555
O136 Zn11 2.184438 1_555
O137 P8 1.537751 1_555
O137 Zn12 2.222943 1_555
O138 P9 1.535409 1_555
O138 Zn13 2.126360 1_555
O139 P10 1.549166 1_555
O139 Zn14 2.143817 1_555
O140 P11 1.524574 1_555
O140 Zn15 2.134699 1_555
O141 P9 1.646841 1_555
O142 P10 1.610518 1_555
O143 P11 1.585288 1_555
