# generated using pymatgen
data_YMg2
_symmetry_space_group_name_H-M   'P 1'
_cell_length_a   13.76042559
_cell_length_b   13.76042559
_cell_length_c   13.94526574
_cell_angle_alpha   75.47023684
_cell_angle_beta   75.47023684
_cell_angle_gamma   29.20919517
_symmetry_Int_Tables_number   1
_chemical_formula_structural   YMg2
_chemical_formula_sum   'Y16 Mg32'
_cell_volume   1244.51674021
_cell_formula_units_Z   16
loop_
 _symmetry_equiv_pos_site_id
 _symmetry_equiv_pos_as_xyz
  1  'x, y, z'
loop_
 _atom_site_type_symbol
 _atom_site_label
 _atom_site_symmetry_multiplicity
 _atom_site_fract_x
 _atom_site_fract_y
 _atom_site_fract_z
 _atom_site_occupancy
  Y  Y0_0  1  0.25029353  0.25029353  0.12450001  1
  Y  Y0_1  1  0.25029353  0.25029353  0.62450001  1
  Y  Y0_2  1  0.25029353  0.75029353  0.12450001  1
  Y  Y0_3  1  0.25029353  0.75029353  0.62450001  1
  Y  Y0_4  1  0.75029353  0.25029353  0.12450001  1
  Y  Y0_5  1  0.75029353  0.25029353  0.62450001  1
  Y  Y0_6  1  0.75029352  0.75029352  0.12450001  1
  Y  Y0_7  1  0.75029353  0.75029353  0.62450001  1
  Y  Y1_0  1  0.24970647  0.24970647  0.37549999  1
  Y  Y1_1  1  0.24970647  0.24970647  0.87549999  1
  Y  Y1_2  1  0.24970647  0.74970647  0.37549999  1
  Y  Y1_3  1  0.24970647  0.74970647  0.87549999  1
  Y  Y1_4  1  0.74970647  0.24970647  0.37549999  1
  Y  Y1_5  1  0.74970647  0.24970647  0.87549999  1
  Y  Y1_6  1  0.74970647  0.74970647  0.37549999  1
  Y  Y1_7  1  0.74970648  0.74970647  0.87549999  1
  Mg  Mg0_0  1  0.41086342  0.41086342  0.04485563  1
  Mg  Mg0_1  1  0.41086341  0.41086341  0.54485563  1
  Mg  Mg0_2  1  0.41086341  0.91086342  0.04485563  1
  Mg  Mg0_3  1  0.41086342  0.91086342  0.54485563  1
  Mg  Mg0_4  1  0.91086342  0.41086341  0.04485563  1
  Mg  Mg0_5  1  0.91086342  0.41086342  0.54485563  1
  Mg  Mg0_6  1  0.91086342  0.91086342  0.04485563  1
  Mg  Mg0_7  1  0.91086341  0.91086341  0.54485563  1
  Mg  Mg1_0  1  0.08864310  0.08864310  0.20631714  1
  Mg  Mg1_1  1  0.08864310  0.08864310  0.70631714  1
  Mg  Mg1_2  1  0.08864310  0.58864310  0.20631714  1
  Mg  Mg1_3  1  0.08864310  0.58864310  0.70631714  1
  Mg  Mg1_4  1  0.58864310  0.08864310  0.20631714  1
  Mg  Mg1_5  1  0.58864310  0.08864310  0.70631714  1
  Mg  Mg1_6  1  0.58864311  0.58864311  0.20631714  1
  Mg  Mg1_7  1  0.58864310  0.58864310  0.70631714  1
  Mg  Mg2_0  1  0.41135689  0.41135689  0.29368287  1
  Mg  Mg2_1  1  0.41135689  0.41135690  0.79368287  1
  Mg  Mg2_2  1  0.41135690  0.91135690  0.29368287  1
  Mg  Mg2_3  1  0.41135689  0.91135689  0.79368287  1
  Mg  Mg2_4  1  0.91135690  0.41135690  0.29368287  1
  Mg  Mg2_5  1  0.91135689  0.41135689  0.79368287  1
  Mg  Mg2_6  1  0.91135689  0.91135689  0.29368287  1
  Mg  Mg2_7  1  0.91135689  0.91135689  0.79368287  1
  Mg  Mg3_0  1  0.08913658  0.08913658  0.45514438  1
  Mg  Mg3_1  1  0.08913658  0.08913658  0.95514438  1
  Mg  Mg3_2  1  0.08913658  0.58913658  0.45514438  1
  Mg  Mg3_3  1  0.08913658  0.58913658  0.95514438  1
  Mg  Mg3_4  1  0.58913658  0.08913658  0.45514437  1
  Mg  Mg3_5  1  0.58913658  0.08913658  0.95514438  1
  Mg  Mg3_6  1  0.58913658  0.58913658  0.45514437  1
  Mg  Mg3_7  1  0.58913658  0.58913658  0.95514437  1
loop_
_geom_bond_atom_site_label_1
_geom_bond_atom_site_label_2
_geom_bond_distance
_geom_bond_site_symmetry_2
Y0_0 Y0_6 3.469650 1_545
Y0_0 Y0_6 3.469650 1_455
Y0_0 Y1_1 3.476458 1_554
Y0_0 Y1_0 3.496241 1_555
Y0_1 Y0_7 3.469650 1_545
Y0_1 Y0_7 3.469650 1_455
Y0_1 Y1_0 3.476458 1_555
Y0_1 Y1_1 3.496241 1_555
Y0_2 Y0_4 3.469650 1_555
Y0_2 Y0_4 3.469650 1_465
Y0_2 Y1_3 3.476458 1_554
Y0_2 Y1_2 3.496241 1_555
Y0_3 Y0_5 3.469650 1_555
Y0_3 Y0_5 3.469650 1_465
Y0_3 Y1_2 3.476458 1_555
Y0_3 Y1_3 3.496241 1_555
Y0_4 Y1_5 3.476458 1_554
Y0_4 Y1_4 3.496241 1_555
Y0_5 Y1_4 3.476458 1_555
Y0_5 Y1_5 3.496241 1_555
Y0_6 Y1_7 3.476458 1_554
Y0_6 Y1_6 3.496241 1_555
Y0_7 Y1_6 3.476458 1_555
Y0_7 Y1_7 3.496241 1_555
Y1_0 Y1_6 3.469650 1_455
Y1_0 Y1_6 3.469650 1_545
Y1_1 Y1_7 3.469650 1_455
Y1_1 Y1_7 3.469650 1_545
Y1_2 Y1_4 3.469650 1_465
Y1_2 Y1_4 3.469650 1_555
Y1_3 Y1_5 3.469650 1_555
Y1_3 Y1_5 3.469650 1_465
Mg0_0 Mg3_3 3.076157 1_554
Mg0_0 Mg3_5 3.076157 1_554
Mg0_0 Mg1_4 3.087581 1_555
Mg0_0 Mg1_2 3.087581 1_555
Mg0_0 Y0_4 3.359634 1_555
Mg0_0 Y0_2 3.359634 1_555
Mg0_0 Y1_3 3.359759 1_554
Mg0_0 Y1_5 3.359759 1_554
Mg0_1 Mg3_4 3.076157 1_555
Mg0_1 Mg3_2 3.076157 1_555
Mg0_1 Mg1_5 3.087581 1_555
Mg0_1 Mg1_3 3.087581 1_555
Mg0_1 Y0_5 3.359634 1_555
Mg0_1 Y0_3 3.359634 1_555
Mg0_1 Y1_2 3.359759 1_555
Mg0_1 Y1_4 3.359759 1_555
Mg0_2 Mg3_1 3.076157 1_564
Mg0_2 Mg3_7 3.076157 1_554
Mg0_2 Mg1_6 3.087581 1_555
Mg0_2 Mg1_0 3.087581 1_565
Mg0_2 Y0_6 3.359634 1_555
Mg0_2 Y0_0 3.359634 1_565
Mg0_2 Y1_1 3.359759 1_564
Mg0_2 Y1_7 3.359759 1_554
Mg0_3 Mg3_6 3.076157 1_555
Mg0_3 Mg3_0 3.076157 1_565
Mg0_3 Mg1_1 3.087581 1_565
Mg0_3 Mg1_7 3.087581 1_555
Mg0_3 Y0_7 3.359634 1_555
Mg0_3 Y0_1 3.359634 1_565
Mg0_3 Y1_6 3.359759 1_555
Mg0_3 Y1_0 3.359759 1_565
Mg0_4 Mg3_1 3.076157 1_654
Mg0_4 Mg3_7 3.076157 1_554
Mg0_4 Mg1_0 3.087581 1_655
Mg0_4 Mg1_6 3.087581 1_555
Mg0_4 Y0_6 3.359634 1_555
Mg0_4 Y0_0 3.359634 1_655
Mg0_4 Y1_1 3.359759 1_654
Mg0_4 Y1_7 3.359759 1_554
Mg0_5 Mg3_0 3.076157 1_655
Mg0_5 Mg3_6 3.076157 1_555
Mg0_5 Mg1_1 3.087581 1_655
Mg0_5 Mg1_7 3.087581 1_555
Mg0_5 Y0_1 3.359634 1_655
Mg0_5 Y0_7 3.359634 1_555
Mg0_5 Y1_6 3.359759 1_555
Mg0_5 Y1_0 3.359759 1_655
Mg0_6 Mg3_5 3.076157 1_564
Mg0_6 Mg3_3 3.076157 1_654
Mg0_6 Mg1_4 3.087581 1_565
Mg0_6 Mg1_2 3.087581 1_655
Mg0_6 Y0_2 3.359634 1_655
Mg0_6 Y0_4 3.359634 1_565
Mg0_6 Y1_5 3.359759 1_564
Mg0_6 Y1_3 3.359759 1_654
Mg0_7 Mg3_2 3.076157 1_655
Mg0_7 Mg3_4 3.076157 1_565
Mg0_7 Mg1_3 3.087581 1_655
Mg0_7 Mg1_5 3.087581 1_565
Mg0_7 Y0_3 3.359634 1_655
Mg0_7 Y0_5 3.359634 1_565
Mg0_7 Y1_2 3.359759 1_655
Mg0_7 Y1_4 3.359759 1_565
Mg1_0 Mg2_4 3.076896 1_455
Mg1_0 Mg2_2 3.076896 1_545
Mg1_0 Y0_2 3.352538 1_545
Mg1_0 Y0_4 3.352538 1_455
Mg1_0 Y1_2 3.359808 1_545
Mg1_0 Y1_4 3.359808 1_455
Mg1_1 Mg2_5 3.076896 1_455
Mg1_1 Mg2_3 3.076896 1_545
Mg1_1 Y0_3 3.352538 1_545
Mg1_1 Y0_5 3.352538 1_455
Mg1_1 Y1_3 3.359808 1_545
Mg1_1 Y1_5 3.359808 1_455
Mg1_2 Mg2_6 3.076896 1_455
Mg1_2 Mg2_0 3.076896 1_555
Mg1_2 Y0_0 3.352538 1_555
Mg1_2 Y0_6 3.352538 1_455
Mg1_2 Y1_0 3.359808 1_555
Mg1_2 Y1_6 3.359808 1_455
Mg1_3 Mg2_7 3.076896 1_455
Mg1_3 Mg2_1 3.076896 1_555
Mg1_3 Y0_7 3.352538 1_455
Mg1_3 Y0_1 3.352538 1_555
Mg1_3 Y1_7 3.359808 1_455
Mg1_3 Y1_1 3.359808 1_555
Mg1_4 Mg2_6 3.076896 1_545
Mg1_4 Mg2_0 3.076896 1_555
Mg1_4 Y0_0 3.352538 1_555
Mg1_4 Y0_6 3.352538 1_545
Mg1_4 Y1_0 3.359808 1_555
Mg1_4 Y1_6 3.359808 1_545
Mg1_5 Mg2_7 3.076896 1_545
Mg1_5 Mg2_1 3.076896 1_555
Mg1_5 Y0_7 3.352538 1_545
Mg1_5 Y0_1 3.352538 1_555
Mg1_5 Y1_7 3.359808 1_545
Mg1_5 Y1_1 3.359808 1_555
Mg1_6 Mg2_2 3.076896 1_555
Mg1_6 Mg2_4 3.076896 1_555
Mg1_6 Y0_2 3.352538 1_555
Mg1_6 Y0_4 3.352538 1_555
Mg1_6 Y1_4 3.359808 1_555
Mg1_6 Y1_2 3.359808 1_555
Mg1_7 Mg2_3 3.076896 1_555
Mg1_7 Mg2_5 3.076896 1_555
Mg1_7 Y0_5 3.352538 1_555
Mg1_7 Y0_3 3.352538 1_555
Mg1_7 Y1_5 3.359808 1_555
Mg1_7 Y1_3 3.359808 1_555
Mg2_0 Mg3_4 3.087581 1_555
Mg2_0 Mg3_2 3.087581 1_555
Mg2_0 Y1_2 3.352538 1_555
Mg2_0 Y1_4 3.352538 1_555
Mg2_0 Y0_2 3.359808 1_555
Mg2_0 Y0_4 3.359808 1_555
Mg2_1 Mg3_3 3.087581 1_555
Mg2_1 Mg3_5 3.087581 1_555
Mg2_1 Y1_3 3.352538 1_555
Mg2_1 Y1_5 3.352538 1_555
Mg2_1 Y0_3 3.359808 1_555
Mg2_1 Y0_5 3.359808 1_555
Mg2_2 Mg3_6 3.087581 1_555
Mg2_2 Mg3_0 3.087581 1_565
Mg2_2 Y1_0 3.352538 1_565
Mg2_2 Y1_6 3.352538 1_555
Mg2_2 Y0_6 3.359808 1_555
Mg2_2 Y0_0 3.359808 1_565
Mg2_3 Mg3_7 3.087581 1_555
Mg2_3 Mg3_1 3.087581 1_565
Mg2_3 Y1_7 3.352538 1_555
Mg2_3 Y1_1 3.352538 1_565
Mg2_3 Y0_1 3.359808 1_565
Mg2_3 Y0_7 3.359808 1_555
Mg2_4 Mg3_6 3.087581 1_555
Mg2_4 Mg3_0 3.087581 1_655
Mg2_4 Y1_0 3.352538 1_655
Mg2_4 Y1_6 3.352538 1_555
Mg2_4 Y0_6 3.359808 1_555
Mg2_4 Y0_0 3.359808 1_655
Mg2_5 Mg3_7 3.087581 1_555
Mg2_5 Mg3_1 3.087581 1_655
Mg2_5 Y1_1 3.352538 1_655
Mg2_5 Y1_7 3.352538 1_555
Mg2_5 Y0_1 3.359808 1_655
Mg2_5 Y0_7 3.359808 1_555
Mg2_6 Mg3_4 3.087581 1_565
Mg2_6 Mg3_2 3.087581 1_655
Mg2_6 Y1_2 3.352538 1_655
Mg2_6 Y1_4 3.352538 1_565
Mg2_6 Y0_4 3.359808 1_565
Mg2_6 Y0_2 3.359808 1_655
Mg2_7 Mg3_5 3.087581 1_565
Mg2_7 Mg3_3 3.087581 1_655
Mg2_7 Y1_3 3.352538 1_655
Mg2_7 Y1_5 3.352538 1_565
Mg2_7 Y0_5 3.359808 1_565
Mg2_7 Y0_3 3.359808 1_655
Mg3_0 Y1_4 3.359634 1_455
Mg3_0 Y1_2 3.359634 1_545
Mg3_0 Y0_3 3.359759 1_545
Mg3_0 Y0_5 3.359759 1_455
Mg3_1 Y1_5 3.359634 1_455
Mg3_1 Y1_3 3.359634 1_545
Mg3_1 Y0_2 3.359759 1_546
Mg3_1 Y0_4 3.359759 1_456
Mg3_2 Y1_6 3.359634 1_455
Mg3_2 Y1_0 3.359634 1_555
Mg3_2 Y0_1 3.359759 1_555
Mg3_2 Y0_7 3.359759 1_455
Mg3_3 Y1_7 3.359634 1_455
Mg3_3 Y1_1 3.359634 1_555
Mg3_3 Y0_0 3.359759 1_556
Mg3_3 Y0_6 3.359759 1_456
Mg3_4 Y1_0 3.359634 1_555
Mg3_4 Y1_6 3.359634 1_545
Mg3_4 Y0_1 3.359759 1_555
Mg3_4 Y0_7 3.359759 1_545
Mg3_5 Y1_7 3.359634 1_545
Mg3_5 Y1_1 3.359634 1_555
Mg3_5 Y0_0 3.359759 1_556
Mg3_5 Y0_6 3.359759 1_546
Mg3_6 Y1_2 3.359634 1_555
Mg3_6 Y1_4 3.359634 1_555
Mg3_6 Y0_3 3.359759 1_555
Mg3_6 Y0_5 3.359759 1_555
Mg3_7 Y1_3 3.359634 1_555
Mg3_7 Y1_5 3.359634 1_555
Mg3_7 Y0_2 3.359759 1_556
Mg3_7 Y0_4 3.359759 1_556
