# generated using pymatgen
data_Tl3FeCl5
_symmetry_space_group_name_H-M   'P 1'
_cell_length_a   9.36429997
_cell_length_b   9.36429997
_cell_length_c   9.36376643
_cell_angle_alpha   126.67890379
_cell_angle_beta   126.67890379
_cell_angle_gamma   78.78122186
_symmetry_Int_Tables_number   1
_chemical_formula_structural   Tl3FeCl5
_chemical_formula_sum   'Tl6 Fe2 Cl10'
_cell_volume   511.05638016
_cell_formula_units_Z   2
loop_
 _symmetry_equiv_pos_site_id
 _symmetry_equiv_pos_as_xyz
  1  'x, y, z'
loop_
 _atom_site_type_symbol
 _atom_site_label
 _atom_site_symmetry_multiplicity
 _atom_site_fract_x
 _atom_site_fract_y
 _atom_site_fract_z
 _atom_site_occupancy
  Tl  Tl0  1  0.25000031  0.24999969  0.00000000  1
  Tl  Tl1  1  0.74999969  0.75000031  0.00000000  1
  Tl  Tl2  1  0.34100840  0.84100840  0.18201563  1
  Tl  Tl3  1  0.84103360  0.65896640  0.50000000  1
  Tl  Tl4  1  0.15896640  0.34103360  0.50000000  1
  Tl  Tl5  1  0.65899160  0.15899160  0.81798437  1
  Fe  Fe0  1  0.74996745  0.24996745  0.50001391  1
  Fe  Fe1  1  0.25003255  0.75003255  0.49998609  1
  Cl  Cl0  1  0.00000000  -0.00000000  0.00000000  1
  Cl  Cl1  1  0.50000000  0.50000000  0.00000000  1
  Cl  Cl2  1  0.00133189  0.50133189  0.19132873  1
  Cl  Cl3  1  0.68998540  0.18998540  0.19130041  1
  Cl  Cl4  1  -0.00133189  0.49866811  0.80867127  1
  Cl  Cl5  1  0.49870326  0.68996028  0.50001213  1
  Cl  Cl6  1  0.18996028  -0.00129674  0.50001213  1
  Cl  Cl7  1  0.50129674  0.31003972  0.49998787  1
  Cl  Cl8  1  0.31001460  0.81001460  0.80869959  1
  Cl  Cl9  1  0.81003972  0.00129674  0.49998787  1
loop_
_geom_bond_atom_site_label_1
_geom_bond_atom_site_label_2
_geom_bond_distance
_geom_bond_site_symmetry_2
Cl0 Tl3 3.161650 1_444
Cl0 Tl4 3.161650 1_555
Cl0 Tl5 3.161996 1_454
Cl0 Tl2 3.161996 1_545
Cl1 Tl3 3.161650 1_555
Cl1 Tl4 3.161650 1_554
Cl1 Tl2 3.161996 1_555
Cl1 Tl5 3.161996 1_554
Cl2 Fe1 2.286660 1_555
Cl2 Tl5 3.161794 1_454
Cl3 Fe0 2.287031 1_555
Cl3 Tl5 3.161752 1_554
Cl4 Fe0 2.286660 1_455
Cl4 Tl2 3.161794 1_556
Cl5 Fe1 2.286640 1_555
Cl5 Tl3 3.162121 1_555
Cl6 Fe1 2.286640 1_545
Cl6 Tl4 3.162121 1_555
Cl7 Fe0 2.286640 1_555
Cl7 Tl4 3.162121 1_555
Cl8 Fe1 2.287031 1_555
Cl8 Tl2 3.161752 1_556
Cl9 Fe0 2.286640 1_555
Cl9 Tl3 3.162121 1_545
