# generated using pymatgen
data_Ba2(CuO2)3
_symmetry_space_group_name_H-M   'P 1'
_cell_length_a   9.30592371
_cell_length_b   8.47858951
_cell_length_c   7.03693917
_cell_angle_alpha   73.04164722
_cell_angle_beta   60.63094256
_cell_angle_gamma   46.32741022
_symmetry_Int_Tables_number   1
_chemical_formula_structural   Ba2(CuO2)3
_chemical_formula_sum   'Ba4 Cu6 O12'
_cell_volume   349.00435591
_cell_formula_units_Z   2
loop_
 _symmetry_equiv_pos_site_id
 _symmetry_equiv_pos_as_xyz
  1  'x, y, z'
loop_
 _atom_site_type_symbol
 _atom_site_label
 _atom_site_symmetry_multiplicity
 _atom_site_fract_x
 _atom_site_fract_y
 _atom_site_fract_z
 _atom_site_occupancy
  Ba  Ba0  1  0.75000000  0.75000000  0.75000000  1
  Ba  Ba1  1  0.23279800  0.76720200  0.23279800  1
  Ba  Ba2  1  0.76720200  0.23279800  0.76720200  1
  Ba  Ba3  1  0.25000000  0.25000000  0.25000000  1
  Cu  Cu0  1  0.30766100  0.69233900  0.69233900  1
  Cu  Cu1  1  0.69233900  0.30766100  0.30766100  1
  Cu  Cu2  1  0.00410100  0.69988000  0.99589900  1
  Cu  Cu3  1  0.30012000  0.99589900  0.69988000  1
  Cu  Cu4  1  0.69988000  0.00410100  0.30012000  1
  Cu  Cu5  1  0.99589900  0.30012000  0.00410100  1
  O  O0  1  0.07985700  0.73852900  0.69347400  1
  O  O1  1  0.26147100  0.92014300  0.51186000  1
  O  O2  1  0.30652600  0.51186000  0.92014300  1
  O  O3  1  0.48814000  0.69347400  0.73852900  1
  O  O4  1  0.06770700  0.29935200  0.70064800  1
  O  O5  1  0.70064800  0.93229300  0.06770700  1
  O  O6  1  0.93229300  0.70064800  0.29935200  1
  O  O7  1  0.29935200  0.06770700  0.93229300  1
  O  O8  1  0.51186000  0.30652600  0.26147100  1
  O  O9  1  0.92014300  0.26147100  0.30652600  1
  O  O10  1  0.73852900  0.07985700  0.48814000  1
  O  O11  1  0.69347400  0.48814000  0.07985700  1
loop_
_geom_bond_atom_site_label_1
_geom_bond_atom_site_label_2
_geom_bond_distance
_geom_bond_site_symmetry_2
Ba0 O5 2.761582 1_556
Ba0 O7 2.761582 1_565
Ba0 O4 2.761582 1_655
Ba0 O6 2.761582 1_555
Ba0 O0 2.828937 1_655
Ba0 O10 2.828937 1_565
Ba0 O11 2.828937 1_556
Ba0 O3 2.828937 1_555
Ba1 O0 2.843634 1_555
Ba1 O8 2.843634 1_555
Ba1 O11 2.843634 1_555
Ba1 O1 2.843634 1_555
Ba1 O6 3.016386 1_455
Ba1 O7 3.016386 1_564
Ba1 O2 3.040532 1_554
Ba1 O10 3.040532 1_465
Ba1 O3 3.040532 1_554
Ba1 O9 3.040532 1_465
Ba2 O10 2.843634 1_555
Ba2 O2 2.843634 1_555
Ba2 O3 2.843634 1_555
Ba2 O9 2.843634 1_555
Ba2 O5 3.016386 1_546
Ba2 O4 3.016386 1_655
Ba2 O0 3.040532 1_645
Ba2 O1 3.040532 1_645
Ba2 O8 3.040532 1_556
Ba2 O11 3.040532 1_556
Ba3 O4 2.761582 1_555
Ba3 O6 2.761582 1_455
Ba3 O5 2.761582 1_545
Ba3 O7 2.761582 1_554
Ba3 O8 2.828937 1_555
Ba3 O2 2.828937 1_554
Ba3 O1 2.828937 1_545
Ba3 O9 2.828937 1_455
Cu0 O0 1.867123 1_555
Cu0 O2 1.867123 1_555
Cu0 O1 1.867123 1_555
Cu0 O3 1.867123 1_555
Cu1 O8 1.867123 1_555
Cu1 O10 1.867123 1_555
Cu1 O11 1.867123 1_555
Cu1 O9 1.867123 1_555
Cu2 O2 1.890509 1_555
Cu2 O0 1.890509 1_555
Cu2 O6 1.899709 1_456
Cu2 O5 1.899709 1_456
Cu3 O1 1.890509 1_555
Cu3 O3 1.890509 1_555
Cu3 O7 1.899709 1_565
Cu3 O4 1.899709 1_565
Cu4 O8 1.890509 1_555
Cu4 O10 1.890509 1_555
Cu4 O6 1.899709 1_545
Cu4 O5 1.899709 1_545
Cu5 O9 1.890509 1_555
Cu5 O11 1.890509 1_555
Cu5 O7 1.899709 1_654
Cu5 O4 1.899709 1_654
