# generated using pymatgen
data_Na5Mg4PS5O24
_symmetry_space_group_name_H-M   'P 1'
_cell_length_a   8.86307928
_cell_length_b   8.86240701
_cell_length_c   22.26065865
_cell_angle_alpha   89.94924591
_cell_angle_beta   89.92217224
_cell_angle_gamma   120.04801975
_symmetry_Int_Tables_number   1
_chemical_formula_structural   Na5Mg4PS5O24
_chemical_formula_sum   'Na15 Mg12 P3 S15 O72'
_cell_volume   1513.53861845
_cell_formula_units_Z   3
loop_
 _symmetry_equiv_pos_site_id
 _symmetry_equiv_pos_as_xyz
  1  'x, y, z'
loop_
 _atom_site_type_symbol
 _atom_site_label
 _atom_site_symmetry_multiplicity
 _atom_site_fract_x
 _atom_site_fract_y
 _atom_site_fract_z
 _atom_site_occupancy
  Na  Na0  1  0.35911474  0.35304904  0.25123722  1
  Na  Na1  1  0.00476763  0.64414526  0.24810510  1
  Na  Na2  1  0.63901795  0.64406262  0.74531055  1
  Na  Na3  1  0.99383307  0.35512627  0.75264848  1
  Na  Na4  1  0.31377998  0.34164608  0.58397368  1
  Na  Na5  1  0.66884694  0.96388352  0.58666827  1
  Na  Na6  1  0.30294820  0.97070210  0.08709980  1
  Na  Na7  1  0.69672050  0.02931606  0.91357026  1
  Na  Na8  1  0.69651990  0.66537808  0.42131411  1
  Na  Na9  1  0.00605553  0.98993643  0.49994963  1
  Na  Na10  1  0.00007274  0.99996818  0.00017915  1
  Na  Na11  1  0.65346625  0.32421468  0.83347391  1
  Na  Na12  1  0.65430048  0.29563583  0.33343611  1
  Na  Na13  1  0.34601853  0.67646098  0.16662671  1
  Na  Na14  1  0.33769310  0.68845181  0.66739287  1
  Mg  Mg0  1  0.00964319  0.00715574  0.34985499  1
  Mg  Mg1  1  0.00106768  0.00041218  0.85011650  1
  Mg  Mg2  1  0.99157265  0.98630933  0.64997126  1
  Mg  Mg3  1  0.99752528  -0.00096789  0.15016375  1
  Mg  Mg4  1  0.66252188  0.32988856  0.68298474  1
  Mg  Mg5  1  0.66448056  0.32526156  0.18308842  1
  Mg  Mg6  1  0.66945662  0.34033410  0.98327266  1
  Mg  Mg7  1  0.66962389  0.33578854  0.48350579  1
  Mg  Mg8  1  0.33040768  0.65962977  0.01690829  1
  Mg  Mg9  1  0.33095098  0.66770225  0.51624914  1
  Mg  Mg10  1  0.33734369  0.67986475  0.31648451  1
  Mg  Mg11  1  0.33700399  0.67504720  0.81714532  1
  P  P0  1  0.29753469  0.00051519  0.24775223  1
  P  P1  1  0.70129928  0.00149852  0.75061310  1
  P  P2  1  0.66709948  0.63035318  0.58213933  1
  S  S0  1  0.70407798  0.70591766  0.25115516  1
  S  S1  1  0.99826616  0.29319595  0.25032759  1
  S  S2  1  0.29435498  0.29253914  0.74941492  1
  S  S3  1  0.00285403  0.70608630  0.75073042  1
  S  S4  1  0.96366116  0.33621800  0.58425877  1
  S  S5  1  0.37154626  0.03883731  0.58266171  1
  S  S6  1  0.96160505  0.62852754  0.08418511  1
  S  S7  1  0.66868568  0.03675087  0.08105244  1
  S  S8  1  0.37163987  0.33575299  0.08411711  1
  S  S9  1  0.62818261  0.66431233  0.91580014  1
  S  S10  1  0.03817528  0.37139468  0.91577545  1
  S  S11  1  0.33140015  0.96320954  0.91892299  1
  S  S12  1  0.63209445  0.96584445  0.41774285  1
  S  S13  1  0.33103001  0.36993195  0.41655252  1
  S  S14  1  0.03639432  0.66475650  0.41555990  1
  O  O0  1  0.20591804  0.03123839  0.30138379  1
  O  O1  1  0.80627553  0.78489575  0.30659904  1
  O  O2  1  0.97057443  0.18803445  0.30465345  1
  O  O3  1  0.20850828  0.18480066  0.80214410  1
  O  O4  1  0.97774055  0.78876549  0.80398566  1
  O  O5  1  0.81568425  0.02915483  0.80697511  1
  O  O6  1  0.78876677  0.97383110  0.69423942  1
  O  O7  1  0.19282530  0.21307640  0.69373446  1
  O  O8  1  0.03008295  0.80999582  0.69604751  1
  O  O9  1  0.78763368  0.81487691  0.19832373  1
  O  O10  1  0.02410259  0.21158010  0.19673886  1
  O  O11  1  0.18759549  0.97122821  0.18987540  1
  O  O12  1  0.88630900  0.35613912  0.64034571  1
  O  O13  1  0.48245597  0.11672231  0.63611205  1
  O  O14  1  0.63909120  0.51713076  0.63867964  1
  O  O15  1  0.88237656  0.53040580  0.14039998  1
  O  O16  1  0.64055193  0.12358661  0.13295088  1
  O  O17  1  0.47142077  0.35723827  0.14021900  1
  O  O18  1  0.46012702  0.30835072  0.03236524  1
  O  O19  1  0.85589030  0.53940888  0.03151994  1
  O  O20  1  0.69019352  0.13740216  0.02499466  1
  O  O21  1  0.45364191  0.14795327  0.52902985  1
  O  O22  1  0.68266963  0.54199662  0.52483751  1
  O  O23  1  0.84893453  0.30505591  0.53248588  1
  O  O24  1  0.53999789  0.69188222  0.96755503  1
  O  O25  1  0.14407416  0.46019620  0.96838477  1
  O  O26  1  0.31009912  0.86239056  0.97487533  1
  O  O27  1  0.55182778  0.85921493  0.47304958  1
  O  O28  1  0.31484821  0.45575359  0.47147401  1
  O  O29  1  0.14359568  0.68495258  0.46841321  1
  O  O30  1  0.11553596  0.64642951  0.35958134  1
  O  O31  1  0.52397348  0.87930052  0.36492233  1
  O  O32  1  0.35450749  0.47982381  0.36277696  1
  O  O33  1  0.11753787  0.46946144  0.85955015  1
  O  O34  1  0.35981998  0.87656697  0.86694484  1
  O  O35  1  0.52845669  0.64277254  0.85968689  1
  O  O36  1  0.01146961  0.82050083  0.41219103  1
  O  O37  1  0.80648460  0.97747871  0.41217105  1
  O  O38  1  0.17466883  0.19510903  0.41218726  1
  O  O39  1  0.01592913  0.19205788  0.91293332  1
  O  O40  1  0.17722333  0.98402386  0.91183747  1
  O  O41  1  0.80430558  0.82597833  0.91168785  1
  O  O42  1  0.98841150  0.17994655  0.58848454  1
  O  O43  1  0.19845053  0.02668819  0.58973659  1
  O  O44  1  0.82787814  0.81677534  0.58662045  1
  O  O45  1  0.98300733  0.80740300  0.08688567  1
  O  O46  1  0.82291993  0.01591448  0.08816065  1
  O  O47  1  0.19535528  0.17456970  0.08803839  1
  O  O48  1  0.68661084  0.16812173  0.74428448  1
  O  O49  1  0.47498657  0.32308094  0.74530866  1
  O  O50  1  0.84027212  0.52955247  0.74541713  1
  O  O51  1  0.69134331  0.53045016  0.24523525  1
  O  O52  1  0.84911933  0.32512196  0.24394138  1
  O  O53  1  0.48072112  0.16624607  0.24258655  1
  O  O54  1  0.64841943  0.50954500  0.92282904  1
  O  O55  1  0.85803807  0.34734389  0.92037367  1
  O  O56  1  0.49391291  0.13916499  0.92302447  1
  O  O57  1  0.65389798  0.14188080  0.42325412  1
  O  O58  1  0.49184356  0.35488357  0.42012302  1
  O  O59  1  0.85793395  0.50751636  0.42057505  1
  O  O60  1  0.35186978  0.49083839  0.07708396  1
  O  O61  1  0.14175718  0.65264271  0.07956973  1
  O  O62  1  0.50625296  0.86083509  0.07692214  1
  O  O63  1  0.34995376  0.86185094  0.57606512  1
  O  O64  1  0.49971689  0.65076480  0.57833415  1
  O  O65  1  0.13996560  0.49212456  0.57695313  1
  O  O66  1  0.31167856  0.83349627  0.25518337  1
  O  O67  1  0.52246243  0.67345370  0.25625413  1
  O  O68  1  0.16136454  0.46971326  0.25590645  1
  O  O69  1  0.30786760  0.46881474  0.75452932  1
  O  O70  1  0.15239633  0.67471775  0.75694879  1
  O  O71  1  0.51987882  0.83376840  0.75634737  1
loop_
_geom_bond_atom_site_label_1
_geom_bond_atom_site_label_2
_geom_bond_distance
_geom_bond_site_symmetry_2
Na0 O53 2.392997 1_555
Na0 O68 2.442568 1_555
Na0 O67 2.460813 1_555
Na0 O51 2.553926 1_555
Na0 O17 2.656278 1_555
Na0 O0 2.708485 1_555
Na0 O32 2.734891 1_555
Na0 O10 2.853847 1_555
Na1 O66 2.381279 1_555
Na1 O51 2.435898 1_455
Na1 O52 2.449528 1_455
Na1 O68 2.548560 1_555
Na1 O15 2.618687 1_455
Na1 O30 2.666282 1_555
Na1 O11 2.827070 1_555
Na1 O1 2.922456 1_455
Na2 O71 2.404137 1_555
Na2 O50 2.454470 1_555
Na2 O49 2.462540 1_555
Na2 O69 2.549774 1_555
Na2 O14 2.627782 1_555
Na2 O35 2.724867 1_555
Na2 O6 2.775028 1_555
Na2 O4 2.919148 1_555
Na3 O48 2.382928 1_555
Na3 O69 2.440437 1_655
Na3 O70 2.453773 1_655
Na3 O50 2.524882 1_555
Na3 O33 2.605879 1_655
Na3 O12 2.678236 1_555
Na3 O5 2.778828 1_555
Na3 O7 2.938628 1_655
Na4 O64 2.390445 1_555
Na4 O43 2.448318 1_555
Na4 O65 2.496772 1_555
Na4 O42 2.498040 1_455
Na4 O7 2.679959 1_555
Na4 O28 2.698187 1_555
Na4 O14 2.781581 1_555
Na4 O21 2.847772 1_555
Na5 O44 2.350896 1_555
Na5 O64 2.412031 1_555
Na5 O42 2.501888 1_565
Na5 O63 2.510877 1_555
Na5 O6 2.604808 1_555
Na5 O27 2.716790 1_555
Na5 O13 2.830877 1_565
Na5 O23 2.880944 1_565
Na6 O47 2.428913 1_565
Na6 O61 2.446062 1_555
Na6 O62 2.450016 1_555
Na6 O45 2.454732 1_455
Na6 O11 2.505592 1_555
Na6 O26 2.689076 1_554
Na6 O16 2.789544 1_565
Na6 O18 2.862486 1_565
Na7 O41 2.424718 1_545
Na7 O56 2.444348 1_555
Na7 O55 2.444745 1_555
Na7 O39 2.449094 1_655
Na7 O5 2.595573 1_555
Na7 O20 2.670679 1_556
Na7 O34 2.790831 1_545
Na7 O24 2.854072 1_545
Na8 O58 2.421723 1_555
Na8 O36 2.424483 1_655
Na8 O37 2.437343 1_555
Na8 O59 2.451252 1_555
Na8 O22 2.526218 1_555
Na8 O1 2.746972 1_555
Na8 O27 2.850909 1_555
Na8 O32 2.934859 1_555
Na9 O44 2.476048 1_455
Na9 O36 2.480049 1_555
Na9 O43 2.542225 1_565
Na9 O38 2.573099 1_565
Na9 O37 2.602545 1_455
Na9 O42 2.648231 1_465
Na10 O45 2.528964 1_455
Na10 O39 2.538423 1_564
Na10 O46 2.556447 1_465
Na10 O47 2.558850 1_565
Na10 O40 2.562570 1_554
Na10 O41 2.569817 1_454
Na11 O56 2.515395 1_555
Na11 O49 2.519297 1_555
Na11 O48 2.520338 1_555
Na11 O55 2.590289 1_555
Na11 O54 2.595260 1_555
Na11 O50 2.619693 1_555
Na12 O57 2.417585 1_555
Na12 O53 2.453078 1_555
Na12 O52 2.560572 1_555
Na12 O58 2.612295 1_555
Na12 O59 2.677334 1_555
Na12 O51 2.756846 1_555
Na13 O62 2.517333 1_555
Na13 O66 2.518542 1_555
Na13 O67 2.545015 1_555
Na13 O61 2.589447 1_555
Na13 O60 2.602509 1_555
Na13 O68 2.639551 1_555
Na14 O71 2.473399 1_555
Na14 O63 2.516574 1_555
Na14 O70 2.544954 1_555
Na14 O64 2.564728 1_555
Na14 O69 2.664189 1_555
Na14 O65 2.667185 1_555
Mg0 O0 1.964350 1_555
Mg0 O2 2.063012 1_455
Mg0 O38 2.099755 1_555
Mg0 O1 2.123327 1_445
Mg0 O36 2.164495 1_545
Mg0 O37 2.180365 1_445
Mg1 O5 2.027274 1_455
Mg1 O3 2.043002 1_555
Mg1 O4 2.056975 1_445
Mg1 O40 2.139859 1_545
Mg1 O41 2.144662 1_445
Mg1 O39 2.153622 1_555
Mg2 O6 2.002548 1_555
Mg2 O8 2.035277 1_655
Mg2 O44 2.043874 1_555
Mg2 O7 2.141929 1_665
Mg2 O43 2.150195 1_665
Mg2 O42 2.205286 1_565
Mg3 O11 2.024711 1_645
Mg3 O9 2.055383 1_545
Mg3 O10 2.058754 1_655
Mg3 O46 2.135326 1_555
Mg3 O47 2.159860 1_655
Mg3 O45 2.161212 1_545
Mg4 O14 2.027872 1_555
Mg4 O13 2.047763 1_555
Mg4 O48 2.065631 1_555
Mg4 O12 2.102734 1_555
Mg4 O49 2.141101 1_555
Mg4 O50 2.182461 1_555
Mg5 O53 2.021159 1_555
Mg5 O16 2.027251 1_555
Mg5 O17 2.099631 1_555
Mg5 O15 2.100903 1_555
Mg5 O52 2.126286 1_555
Mg5 O51 2.202078 1_555
Mg6 O19 2.021197 1_556
Mg6 O18 2.045502 1_556
Mg6 O54 2.090728 1_555
Mg6 O20 2.111725 1_556
Mg6 O56 2.151737 1_555
Mg6 O55 2.155798 1_555
Mg7 O22 1.997827 1_555
Mg7 O23 2.055812 1_555
Mg7 O21 2.064705 1_555
Mg7 O59 2.123766 1_555
Mg7 O57 2.129855 1_555
Mg7 O58 2.185136 1_555
Mg8 O25 2.025621 1_554
Mg8 O24 2.049779 1_554
Mg8 O60 2.085760 1_555
Mg8 O26 2.111472 1_554
Mg8 O62 2.149459 1_555
Mg8 O61 2.152912 1_555
Mg9 O29 2.042903 1_555
Mg9 O28 2.068176 1_555
Mg9 O27 2.074220 1_555
Mg9 O64 2.097637 1_555
Mg9 O65 2.113031 1_555
Mg9 O63 2.115745 1_555
Mg10 O66 2.018764 1_555
Mg10 O31 2.025608 1_555
Mg10 O30 2.069769 1_555
Mg10 O32 2.120218 1_555
Mg10 O67 2.140180 1_555
Mg10 O68 2.195668 1_555
Mg11 O34 2.025309 1_555
Mg11 O71 2.035898 1_555
Mg11 O35 2.085164 1_555
Mg11 O33 2.106437 1_555
Mg11 O70 2.115172 1_555
Mg11 O69 2.209737 1_555
O0 P0 1.542136 1_555
O1 S0 1.484353 1_555
O2 S1 1.469501 1_555
O3 S2 1.461649 1_555
O4 S3 1.468333 1_655
O5 P1 1.554730 1_555
O6 P1 1.556979 1_565
O7 S2 1.487267 1_555
O8 S3 1.470610 1_555
O9 S0 1.464064 1_555
O10 S1 1.471508 1_455
O11 P0 1.558032 1_565
O12 S4 1.476245 1_555
O13 S5 1.477696 1_555
O14 P2 1.549219 1_555
O15 S6 1.483039 1_555
O16 S7 1.477189 1_555
O17 S8 1.487551 1_555
O18 S8 1.479867 1_555
O19 S6 1.462754 1_555
O20 S7 1.488735 1_555
O21 S5 1.476778 1_555
O22 P2 1.539096 1_555
O23 S4 1.470031 1_555
O24 S9 1.478922 1_555
O25 S10 1.461750 1_555
O26 S11 1.487885 1_555
O27 S12 1.495724 1_555
O28 S13 1.484654 1_555
O29 S14 1.467025 1_555
O30 S14 1.477596 1_555
O31 S12 1.468922 1_555
O32 S13 1.489665 1_555
O33 S10 1.483278 1_555
O34 S11 1.478629 1_555
O35 S9 1.487423 1_555
O36 S14 1.504921 1_555
O37 S12 1.501618 1_555
O38 S13 1.476770 1_555
O39 S10 1.501771 1_555
O40 S11 1.476193 1_555
O41 S9 1.502488 1_555
O42 S4 1.509670 1_555
O43 S5 1.491287 1_555
O44 P2 1.553420 1_555
O45 S6 1.500574 1_555
O46 S7 1.476865 1_555
O47 S8 1.501203 1_555
O48 P1 1.552285 1_555
O49 S2 1.486695 1_555
O50 S3 1.510364 1_655
O51 S0 1.507635 1_555
O52 S1 1.490868 1_555
O53 P0 1.554870 1_555
O54 S9 1.477848 1_555
O55 S10 1.504548 1_655
O56 S11 1.505304 1_545
O57 S12 1.478109 1_545
O58 S13 1.498747 1_555
O59 S14 1.499358 1_655
O60 S8 1.478225 1_555
O61 S6 1.504482 1_455
O62 S7 1.504838 1_565
O63 S5 1.489406 1_565
O64 P2 1.584239 1_555
O65 S4 1.487953 1_455
O66 P0 1.555470 1_565
O67 S0 1.490759 1_555
O68 S1 1.512768 1_455
O69 S2 1.510245 1_555
O70 S3 1.490830 1_555
O71 P1 1.554631 1_565
