# generated using pymatgen
data_MgMn3V2O10
_symmetry_space_group_name_H-M   'P 1'
_cell_length_a   5.11841928
_cell_length_b   5.51559096
_cell_length_c   7.88202660
_cell_angle_alpha   109.86028131
_cell_angle_beta   99.41197098
_cell_angle_gamma   102.49366016
_symmetry_Int_Tables_number   1
_chemical_formula_structural   MgMn3V2O10
_chemical_formula_sum   'Mg1 Mn3 V2 O10'
_cell_volume   197.40347035
_cell_formula_units_Z   1
loop_
 _symmetry_equiv_pos_site_id
 _symmetry_equiv_pos_as_xyz
  1  'x, y, z'
loop_
 _atom_site_type_symbol
 _atom_site_label
 _atom_site_symmetry_multiplicity
 _atom_site_fract_x
 _atom_site_fract_y
 _atom_site_fract_z
 _atom_site_occupancy
  Mg  Mg0  1  0.50000000  0.50000000  0.50000000  1
  Mn  Mn0  1  0.00000000  0.50000000  0.00000000  1
  Mn  Mn1  1  0.70177800  0.89500500  0.90455900  1
  Mn  Mn2  1  0.29822200  0.10499500  0.09544100  1
  V  V0  1  0.10699900  0.71954200  0.68242700  1
  V  V1  1  0.89300100  0.28045800  0.31757300  1
  O  O0  1  0.05107600  0.07768800  0.86602000  1
  O  O1  1  0.33691300  0.75424500  0.94843900  1
  O  O2  1  0.13062800  0.35275600  0.54186300  1
  O  O3  1  0.21727900  0.42923600  0.23029500  1
  O  O4  1  0.46355200  0.86029000  0.67826000  1
  O  O5  1  0.53644800  0.13971000  0.32174000  1
  O  O6  1  0.78272100  0.57076400  0.76970500  1
  O  O7  1  0.86937200  0.64724400  0.45813700  1
  O  O8  1  0.66308700  0.24575500  0.05156100  1
  O  O9  1  0.94892400  0.92231200  0.13398000  1
loop_
_geom_bond_atom_site_label_1
_geom_bond_atom_site_label_2
_geom_bond_distance
_geom_bond_site_symmetry_2
Mg0 O7 2.016086 1_555
Mg0 O2 2.016086 1_555
Mg0 O4 2.075327 1_555
Mg0 O5 2.075327 1_555
Mg0 O6 2.225141 1_555
Mg0 O3 2.225141 1_555
Mn0 O8 2.162308 1_455
Mn0 O1 2.162308 1_554
Mn0 O6 2.166337 1_454
Mn0 O3 2.166337 1_555
Mn0 O9 2.300352 1_455
Mn0 O0 2.300352 1_554
Mn1 O4 1.913272 1_555
Mn1 O6 1.916448 1_555
Mn1 O8 1.960144 1_566
Mn1 O9 1.969064 1_556
Mn1 O0 1.977405 1_665
Mn1 O1 1.994100 1_555
Mn2 O5 1.913272 1_555
Mn2 O3 1.916448 1_555
Mn2 O1 1.960144 1_544
Mn2 O0 1.969064 1_554
Mn2 O9 1.977405 1_445
Mn2 O8 1.994100 1_555
O0 V0 2.125087 1_545
O1 V0 2.154195 1_555
O2 V1 1.836185 1_455
O2 V0 1.990376 1_555
O3 V1 2.017236 1_455
O4 V0 1.832557 1_555
O5 V1 1.832557 1_555
O6 V0 2.017236 1_655
O7 V0 1.836185 1_655
O7 V1 1.990376 1_555
O8 V1 2.154195 1_555
O9 V1 2.125087 1_565
