# generated using pymatgen
data_MgCr4(CuS4)2
_symmetry_space_group_name_H-M   'P 1'
_cell_length_a   7.21138841
_cell_length_b   7.21313083
_cell_length_c   7.21372284
_cell_angle_alpha   58.12174785
_cell_angle_beta   58.13258540
_cell_angle_gamma   58.14939965
_symmetry_Int_Tables_number   1
_chemical_formula_structural   MgCr4(CuS4)2
_chemical_formula_sum   'Mg1 Cr4 Cu2 S8'
_cell_volume   253.98506424
_cell_formula_units_Z   1
loop_
 _symmetry_equiv_pos_site_id
 _symmetry_equiv_pos_as_xyz
  1  'x, y, z'
loop_
 _atom_site_type_symbol
 _atom_site_label
 _atom_site_symmetry_multiplicity
 _atom_site_fract_x
 _atom_site_fract_y
 _atom_site_fract_z
 _atom_site_occupancy
  Mg  Mg0  1  0.99995400  0.00019700  0.99987600  1
  Cr  Cr0  1  0.49993500  0.50007800  0.49994600  1
  Cr  Cr1  1  0.50010500  0.50003600  0.99978800  1
  Cr  Cr2  1  0.49986600  0.00030200  0.49994800  1
  Cr  Cr3  1  0.99985900  0.50012300  0.49999200  1
  Cu  Cu0  1  0.85931100  0.85880500  0.85866400  1
  Cu  Cu1  1  0.14128800  0.13966700  0.14230400  1
  S  S0  1  0.73592000  0.73592900  0.73552300  1
  S  S1  1  0.25786500  0.25786200  0.72760100  1
  S  S2  1  0.25816000  0.72740500  0.25771100  1
  S  S3  1  0.72761200  0.25804200  0.25784000  1
  S  S4  1  0.74188100  0.27260800  0.74208000  1
  S  S5  1  0.27242600  0.74209600  0.74199000  1
  S  S6  1  0.26395700  0.26442900  0.26433100  1
  S  S7  1  0.74185800  0.74242200  0.27240800  1
loop_
_geom_bond_atom_site_label_1
_geom_bond_atom_site_label_2
_geom_bond_distance
_geom_bond_site_symmetry_2
Mg0 S1 2.589697 1_655
Mg0 S7 2.591179 1_546
Mg0 S4 2.591960 1_555
Mg0 S3 2.592412 1_556
Mg0 S2 2.592825 1_646
Mg0 S5 2.593307 1_645
Cr0 S2 2.440358 1_555
Cr0 S4 2.440645 1_555
Cr0 S7 2.440879 1_555
Cr0 S1 2.440909 1_555
Cr0 S5 2.441258 1_555
Cr0 S3 2.441584 1_555
Cr1 S0 2.371900 1_555
Cr1 S6 2.372221 1_556
Cr1 S4 2.442747 1_555
Cr1 S2 2.443545 1_556
Cr1 S5 2.443694 1_555
Cr1 S3 2.444203 1_556
Cr2 S6 2.371703 1_555
Cr2 S0 2.372285 1_545
Cr2 S3 2.442984 1_555
Cr2 S1 2.443041 1_555
Cr2 S5 2.443950 1_545
Cr2 S7 2.444181 1_545
Cr3 S0 2.371395 1_555
Cr3 S6 2.371535 1_655
Cr3 S4 2.443067 1_555
Cr3 S2 2.443560 1_655
Cr3 S7 2.444215 1_555
Cr3 S1 2.444379 1_655
Cu0 S0 2.205679 1_555
Cu0 S5 2.397118 1_655
Cu0 S7 2.401011 1_556
Cu0 S4 2.401342 1_565
Cu0 Mg0 2.527146 1_565
Cu1 S6 2.206000 1_555
Cu1 S2 2.393153 1_545
Cu1 S3 2.400216 1_455
Cu1 S1 2.406239 1_554
Cu1 Mg0 2.527077 1_454
