# generated using pymatgen
data_Na7Ta3Zn(SiO4)6
_symmetry_space_group_name_H-M   'P 1'
_cell_length_a   9.11737782
_cell_length_b   9.11737750
_cell_length_c   22.39254655
_cell_angle_alpha   90.00000000
_cell_angle_beta   90.00000000
_cell_angle_gamma   120.00000116
_symmetry_Int_Tables_number   1
_chemical_formula_structural   Na7Ta3Zn(SiO4)6
_chemical_formula_sum   'Na21 Ta9 Zn3 Si18 O72'
_cell_volume   1612.03327251
_cell_formula_units_Z   3
loop_
 _symmetry_equiv_pos_site_id
 _symmetry_equiv_pos_as_xyz
  1  'x, y, z'
loop_
 _atom_site_type_symbol
 _atom_site_label
 _atom_site_symmetry_multiplicity
 _atom_site_fract_x
 _atom_site_fract_y
 _atom_site_fract_z
 _atom_site_occupancy
  Na  Na0  1  0.64188097  0.02341452  0.24518402  1
  Na  Na1  1  0.38153355  0.35811903  0.24518402  1
  Na  Na2  1  0.97658548  0.61846645  0.24518402  1
  Na  Na3  1  0.63352092  0.61361574  0.74642247  1
  Na  Na4  1  0.98009481  0.36647908  0.74642247  1
  Na  Na5  1  0.38638426  0.01990519  0.74642247  1
  Na  Na6  1  0.30934218  0.33532068  0.58568368  1
  Na  Na7  1  0.02597951  0.69065782  0.58568368  1
  Na  Na8  1  0.66467932  0.97402049  0.58568368  1
  Na  Na9  1  0.31154018  0.97627681  0.08626304  1
  Na  Na10  1  0.66473763  0.68845982  0.08626304  1
  Na  Na11  1  0.02372319  0.33526237  0.08626304  1
  Na  Na12  1  0.96647486  0.27969310  0.40744455  1
  Na  Na13  1  0.31321725  0.03352514  0.40744455  1
  Na  Na14  1  0.72030690  0.68678275  0.40744455  1
  Na  Na15  1  -0.00000000  0.00000000  0.49084403  1
  Na  Na16  1  -0.00000000  0.00000000  0.99788138  1
  Na  Na17  1  0.66666700  0.33333300  0.83075185  1
  Na  Na18  1  0.66666700  0.33333300  0.32034528  1
  Na  Na19  1  0.33333300  0.66666700  0.16620142  1
  Na  Na20  1  0.33333300  0.66666700  0.66859981  1
  Ta  Ta0  1  -0.00000000  0.00000000  0.85705343  1
  Ta  Ta1  1  -0.00000000  0.00000000  0.64702036  1
  Ta  Ta2  1  -0.00000000  0.00000000  0.14839400  1
  Ta  Ta3  1  0.66666700  0.33333300  0.97758904  1
  Ta  Ta4  1  0.66666700  0.33333300  0.47932389  1
  Ta  Ta5  1  0.33333300  0.66666700  0.01740146  1
  Ta  Ta6  1  0.33333300  0.66666700  0.51899142  1
  Ta  Ta7  1  0.33333300  0.66666700  0.31088427  1
  Ta  Ta8  1  0.33333300  0.66666700  0.81438762  1
  Zn  Zn0  1  -0.00000000  0.00000000  0.34778663  1
  Zn  Zn1  1  0.66666700  0.33333300  0.68435625  1
  Zn  Zn2  1  0.66666700  0.33333300  0.18168059  1
  Si  Si0  1  0.29338683  0.00178646  0.25341554  1
  Si  Si1  1  0.70839964  0.70661317  0.25341554  1
  Si  Si2  1  0.99821354  0.29160036  0.25341554  1
  Si  Si3  1  0.28892455  0.29082025  0.75171364  1
  Si  Si4  1  0.00189570  0.71107545  0.75171364  1
  Si  Si5  1  0.70917975  0.99810430  0.75171364  1
  Si  Si6  1  0.95900568  0.33433313  0.58512935  1
  Si  Si7  1  0.37532845  0.04099432  0.58512935  1
  Si  Si8  1  0.66566687  0.62467155  0.58512935  1
  Si  Si9  1  0.95836794  0.62416563  0.08397176  1
  Si  Si10  1  0.66579869  0.04163206  0.08397176  1
  Si  Si11  1  0.37583437  0.33420131  0.08397176  1
  Si  Si12  1  0.62574131  0.66516629  0.91620403  1
  Si  Si13  1  0.03942399  0.37425869  0.91620403  1
  Si  Si14  1  0.33483371  0.96057601  0.91620403  1
  Si  Si15  1  0.62317462  0.95926056  0.41684586  1
  Si  Si16  1  0.33608493  0.37682538  0.41684586  1
  Si  Si17  1  0.04073944  0.66391507  0.41684586  1
  O  O0  1  0.21427682  0.03295353  0.31287641  1
  O  O1  1  0.81867670  0.78572318  0.31287641  1
  O  O2  1  0.96704647  0.18132330  0.31287641  1
  O  O3  1  0.18384944  0.16415799  0.80646638  1
  O  O4  1  0.98030855  0.81615056  0.80646638  1
  O  O5  1  0.83584201  0.01969145  0.80646638  1
  O  O6  1  0.80061307  0.96585625  0.69105227  1
  O  O7  1  0.16524317  0.19938693  0.69105227  1
  O  O8  1  0.03414375  0.83475683  0.69105227  1
  O  O9  1  0.80258408  0.83513354  0.19321641  1
  O  O10  1  0.03254946  0.19741592  0.19321641  1
  O  O11  1  0.16486646  0.96745054  0.19321641  1
  O  O12  1  0.89147221  0.38320720  0.64381702  1
  O  O13  1  0.49173599  0.10852779  0.64381702  1
  O  O14  1  0.61679280  0.50826401  0.64381702  1
  O  O15  1  0.89579903  0.51203031  0.14373158  1
  O  O16  1  0.61623228  0.10420097  0.14373158  1
  O  O17  1  0.48796969  0.38376772  0.14373158  1
  O  O18  1  0.47140354  0.29982277  0.02747927  1
  O  O19  1  0.82842023  0.52859646  0.02747927  1
  O  O20  1  0.70017723  0.17157977  0.02747927  1
  O  O21  1  0.46861804  0.16751872  0.52660840  1
  O  O22  1  0.69890168  0.53138196  0.52660840  1
  O  O23  1  0.83248128  0.30109832  0.52660840  1
  O  O24  1  0.52935789  0.69022919  0.97424809  1
  O  O25  1  0.16087030  0.47064211  0.97424809  1
  O  O26  1  0.30977081  0.83912970  0.97424809  1
  O  O27  1  0.52112071  0.83970324  0.47476632  1
  O  O28  1  0.31858153  0.47887929  0.47476632  1
  O  O29  1  0.16029676  0.68141847  0.47476632  1
  O  O30  1  0.13423416  0.63010145  0.35930389  1
  O  O31  1  0.49586629  0.86576584  0.35930389  1
  O  O32  1  0.36989855  0.50413371  0.35930389  1
  O  O33  1  0.13771341  0.49693667  0.85778818  1
  O  O34  1  0.35922226  0.86228659  0.85778818  1
  O  O35  1  0.50306333  0.64077774  0.85778818  1
  O  O36  1  0.02257847  0.82915598  0.41864103  1
  O  O37  1  0.80657750  0.97742153  0.41864103  1
  O  O38  1  0.17084402  0.19342250  0.41864103  1
  O  O39  1  0.02446870  0.18935706  0.90997796  1
  O  O40  1  0.16488836  0.97553130  0.90997796  1
  O  O41  1  0.81064294  0.83511164  0.90997796  1
  O  O42  1  0.97577230  0.16160325  0.58862888  1
  O  O43  1  0.18583095  0.02422770  0.58862888  1
  O  O44  1  0.83839675  0.81416905  0.58862888  1
  O  O45  1  0.97726462  0.81580205  0.08827305  1
  O  O46  1  0.83853743  0.02273538  0.08827305  1
  O  O47  1  0.18419795  0.16146257  0.08827305  1
  O  O48  1  0.69092676  0.16374394  0.74953402  1
  O  O49  1  0.47281817  0.30907324  0.74953402  1
  O  O50  1  0.83625606  0.52718183  0.74953402  1
  O  O51  1  0.67924030  0.51934025  0.24604234  1
  O  O52  1  0.84010095  0.32075970  0.24604234  1
  O  O53  1  0.48065975  0.15989905  0.24604234  1
  O  O54  1  0.63998847  0.49473526  0.92339039  1
  O  O55  1  0.85474779  0.36001153  0.92339039  1
  O  O56  1  0.50526474  0.14525221  0.92339039  1
  O  O57  1  0.63098107  0.14386930  0.42398525  1
  O  O58  1  0.51288923  0.36901893  0.42398525  1
  O  O59  1  0.85613070  0.48711077  0.42398525  1
  O  O60  1  0.34527305  0.49788524  0.07294566  1
  O  O61  1  0.15261119  0.65472695  0.07294566  1
  O  O62  1  0.50211476  0.84738881  0.07294566  1
  O  O63  1  0.34457534  0.84789725  0.57468606  1
  O  O64  1  0.50332091  0.65542466  0.57468606  1
  O  O65  1  0.15210275  0.49667909  0.57468606  1
  O  O66  1  0.29778525  0.81901293  0.25566413  1
  O  O67  1  0.52122668  0.70221475  0.25566413  1
  O  O68  1  0.18098707  0.47877332  0.25566413  1
  O  O69  1  0.29746335  0.47686739  0.75543449  1
  O  O70  1  0.17940303  0.70253665  0.75543449  1
  O  O71  1  0.52313261  0.82059697  0.75543449  1
loop_
_geom_bond_atom_site_label_1
_geom_bond_atom_site_label_2
_geom_bond_distance
_geom_bond_site_symmetry_2
Na0 O53 2.353431 1_555
Na0 O52 2.390944 1_555
Na0 O16 2.435247 1_555
Na0 O67 2.572896 1_545
Na0 O66 2.742962 1_545
Na0 O31 2.907746 1_545
Na0 O2 2.981840 1_555
Na0 O9 2.993820 1_545
Na1 O51 2.353439 1_555
Na1 O53 2.390951 1_555
Na1 O17 2.435250 1_555
Na1 O68 2.572905 1_555
Na1 O67 2.742963 1_555
Na1 O32 2.907749 1_555
Na1 O0 2.981840 1_555
Na1 O10 2.993820 1_555
Na2 O52 2.353439 1_555
Na2 O51 2.390943 1_555
Na2 O15 2.435249 1_555
Na2 O66 2.572898 1_655
Na2 O68 2.742955 1_655
Na2 O30 2.907744 1_655
Na2 O1 2.981841 1_555
Na2 O11 2.993820 1_655
Na3 O50 2.345027 1_555
Na3 O49 2.406868 1_555
Na3 O14 2.465429 1_555
Na3 O71 2.552296 1_555
Na3 O69 2.676372 1_555
Na3 O35 2.826567 1_555
Na4 O48 2.345020 1_555
Na4 O50 2.406861 1_555
Na4 O12 2.465425 1_555
Na4 O69 2.552288 1_655
Na4 O70 2.676371 1_655
Na4 O33 2.826564 1_655
Na5 O49 2.345018 1_555
Na5 O48 2.406869 1_555
Na5 O13 2.465427 1_555
Na5 O70 2.552289 1_545
Na5 O71 2.676364 1_545
Na5 O34 2.826563 1_545
Na6 O43 2.474536 1_555
Na6 O65 2.527706 1_555
Na6 O64 2.558241 1_555
Na6 O42 2.635412 1_455
Na6 O7 2.683453 1_555
Na6 O14 2.760158 1_555
Na6 O28 2.789064 1_555
Na6 O21 2.901911 1_555
Na7 O44 2.474545 1_455
Na7 O63 2.527690 1_555
Na7 O65 2.558227 1_555
Na7 O43 2.635412 1_565
Na7 O8 2.683455 1_555
Na7 O12 2.760158 1_455
Na7 O29 2.789055 1_555
Na7 O22 2.901911 1_455
Na8 O42 2.474537 1_565
Na8 O64 2.527690 1_555
Na8 O63 2.558243 1_555
Na8 O44 2.635404 1_555
Na8 O6 2.683451 1_555
Na8 O13 2.760158 1_565
Na8 O27 2.789060 1_555
Na8 O23 2.901911 1_565
Na9 O47 2.482141 1_565
Na9 O62 2.555524 1_555
Na9 O61 2.556428 1_555
Na9 O45 2.640483 1_455
Na9 O11 2.724519 1_555
Na9 O16 2.737433 1_565
Na9 O26 2.799145 1_554
Na9 O18 2.873915 1_565
Na10 O45 2.482132 1_555
Na10 O60 2.555539 1_555
Na10 O62 2.556444 1_555
Na10 O46 2.640482 1_565
Na10 O9 2.724517 1_555
Na10 O17 2.737433 1_555
Na10 O24 2.799153 1_554
Na10 O19 2.873915 1_555
Na11 O46 2.482133 1_455
Na11 O61 2.555541 1_555
Na11 O60 2.556428 1_555
Na11 O47 2.640475 1_555
Na11 O10 2.724515 1_555
Na11 O15 2.737433 1_455
Na11 O25 2.799149 1_554
Na11 O20 2.873915 1_455
Na12 O2 2.300740 1_555
Na12 O38 2.370459 1_655
Na12 O37 2.401162 1_545
Na12 O59 2.574519 1_555
Na12 O57 2.690577 1_555
Na12 O30 2.970145 1_655
Na12 O23 2.981484 1_555
Na13 O0 2.300737 1_555
Na13 O36 2.370452 1_545
Na13 O38 2.401154 1_555
Na13 O57 2.574536 1_555
Na13 O58 2.690578 1_555
Na13 O31 2.970145 1_545
Na13 O21 2.981489 1_555
Na14 O1 2.300739 1_555
Na14 O37 2.370450 1_555
Na14 O36 2.401162 1_655
Na14 O58 2.574533 1_555
Na14 O59 2.690593 1_555
Na14 O32 2.970145 1_555
Na14 O22 2.981492 1_555
Na15 O36 2.324515 1_545
Na15 O38 2.324516 1_555
Na15 O37 2.324516 1_445
Na15 O44 2.709194 1_445
Na15 O42 2.709194 1_455
Na15 O43 2.709194 1_555
Na16 O39 2.553378 1_555
Na16 O41 2.553378 1_445
Na16 O40 2.553378 1_545
Na16 O45 2.571424 1_446
Na16 O47 2.571424 1_556
Na16 O46 2.571424 1_456
Na17 O48 2.467641 1_555
Na17 O50 2.467641 1_555
Na17 O49 2.467642 1_555
Na17 O56 2.624081 1_555
Na17 O54 2.624081 1_555
Na17 O55 2.624081 1_555
Na18 O51 2.337336 1_555
Na18 O53 2.337336 1_555
Na18 O52 2.337336 1_555
Na18 O57 2.813133 1_555
Na18 O59 2.813133 1_555
Na18 O58 2.813133 1_555
Na19 O68 2.549064 1_555
Na19 O66 2.549064 1_555
Na19 O67 2.549064 1_555
Na19 O62 2.628335 1_555
Na19 O60 2.628335 1_555
Na19 O61 2.628335 1_555
Na20 O69 2.513255 1_555
Na20 O71 2.513255 1_555
Na20 O70 2.513255 1_555
Na20 O63 2.644590 1_555
Na20 O65 2.644590 1_555
Na20 O64 2.644590 1_555
O0 Si0 1.605860 1_555
O0 Zn0 1.982705 1_555
O1 Si1 1.605860 1_555
O1 Zn0 1.982705 1_665
O2 Si2 1.605860 1_555
O2 Zn0 1.982705 1_655
O3 Si3 1.627354 1_555
O3 Ta0 1.955555 1_555
O4 Si4 1.627354 1_655
O4 Ta0 1.955555 1_665
O5 Si5 1.627354 1_545
O5 Ta0 1.955555 1_655
O6 Si5 1.694591 1_555
O6 Ta1 1.951378 1_665
O7 Si3 1.694592 1_555
O7 Ta1 1.951378 1_555
O8 Si4 1.694592 1_555
O8 Ta1 1.951378 1_565
O9 Si1 1.709197 1_555
O9 Ta2 1.949616 1_665
O10 Si2 1.709197 1_455
O10 Ta2 1.949616 1_555
O11 Si0 1.709197 1_565
O11 Ta2 1.949616 1_565
O12 Si6 1.605954 1_555
O12 Zn1 2.073600 1_555
O13 Si7 1.605954 1_555
O13 Zn1 2.073600 1_555
O14 Si8 1.605954 1_555
O14 Zn1 2.073600 1_555
O15 Si9 1.605668 1_555
O15 Zn2 2.082595 1_555
O16 Si10 1.605668 1_555
O16 Zn2 2.082595 1_555
O17 Si11 1.605668 1_555
O17 Zn2 2.082596 1_555
O18 Si11 1.652527 1_555
O18 Ta3 1.991714 1_554
O19 Si9 1.652527 1_555
O19 Ta3 1.991714 1_554
O20 Si10 1.652527 1_555
O20 Ta3 1.991714 1_554
O21 Si7 1.670398 1_555
O21 Ta4 1.984263 1_555
O22 Si8 1.670398 1_555
O22 Ta4 1.984263 1_555
O23 Si6 1.670398 1_555
O23 Ta4 1.984263 1_555
O24 Si12 1.647607 1_555
O24 Ta5 1.946836 1_556
O25 Si13 1.647607 1_555
O25 Ta5 1.946836 1_556
O26 Si14 1.647607 1_555
O26 Ta5 1.946836 1_556
O27 Si15 1.649816 1_555
O27 Ta6 1.923520 1_555
O28 Si16 1.649816 1_555
O28 Ta6 1.923520 1_555
O29 Si17 1.649816 1_555
O29 Ta6 1.923520 1_555
O30 Si17 1.656723 1_555
O30 Ta7 1.994169 1_555
O31 Si15 1.656723 1_555
O31 Ta7 1.994169 1_555
O32 Si16 1.656723 1_555
O32 Ta7 1.994169 1_555
O33 Si13 1.662183 1_555
O33 Ta8 1.939129 1_555
O34 Si14 1.662183 1_555
O34 Ta8 1.939129 1_555
O35 Si12 1.662183 1_555
O35 Ta8 1.939129 1_555
O36 Si17 1.596316 1_555
O36 Zn0 2.303613 1_565
O37 Si15 1.596325 1_555
O37 Zn0 2.303613 1_665
O38 Si16 1.596321 1_555
O38 Zn0 2.303613 1_555
O39 Si13 1.627927 1_555
O39 Ta0 2.012389 1_555
O40 Si14 1.627918 1_555
O40 Ta0 2.012389 1_565
O41 Si12 1.627923 1_555
O41 Ta0 2.012389 1_665
O42 Si6 1.658428 1_555
O42 Ta1 2.062717 1_655
O43 Si7 1.658437 1_555
O43 Ta1 2.062718 1_555
O44 Si8 1.658433 1_555
O44 Ta1 2.062717 1_665
O45 Si9 1.670544 1_555
O45 Ta2 2.080303 1_665
O46 Si10 1.670535 1_555
O46 Ta2 2.080303 1_655
O47 Si11 1.670540 1_555
O47 Ta2 2.080303 1_555
O48 Si5 1.600658 1_545
O48 Zn1 2.216260 1_555
O49 Si3 1.600667 1_555
O49 Zn1 2.216260 1_555
O50 Si4 1.600663 1_655
O50 Zn1 2.216260 1_555
O51 Si1 1.599797 1_555
O51 Zn2 2.184474 1_555
O52 Si2 1.599788 1_555
O52 Zn2 2.184474 1_555
O53 Si0 1.599793 1_555
O53 Zn2 2.184474 1_555
O54 Si12 1.630696 1_555
O54 Ta3 2.013839 1_555
O55 Si13 1.630678 1_655
O55 Ta3 2.013839 1_555
O56 Si14 1.630686 1_545
O56 Ta3 2.013839 1_555
O57 Si15 1.656446 1_545
O57 Ta4 2.015770 1_555
O58 Si16 1.656464 1_555
O58 Ta4 2.015770 1_555
O59 Si17 1.656454 1_655
O59 Ta4 2.015770 1_555
O60 Si11 1.667812 1_555
O60 Ta5 2.023463 1_555
O61 Si9 1.667794 1_455
O61 Ta5 2.023463 1_555
O62 Si10 1.667800 1_565
O62 Ta5 2.023463 1_555
O63 Si7 1.655043 1_565
O63 Ta6 2.031441 1_555
O64 Si8 1.655061 1_555
O64 Ta6 2.031441 1_555
O65 Si6 1.655050 1_455
O65 Ta6 2.031441 1_555
O66 Si0 1.687575 1_565
O66 Ta7 2.003374 1_555
O67 Si1 1.687584 1_555
O67 Ta7 2.003374 1_555
O68 Si2 1.687580 1_455
O68 Ta7 2.003374 1_555
O69 Si3 1.660798 1_555
O69 Ta8 2.068395 1_555
O70 Si4 1.660789 1_555
O70 Ta8 2.068395 1_555
O71 Si5 1.660794 1_555
O71 Ta8 2.068395 1_555
