# generated using pymatgen
data_MgCo3TeO8
_symmetry_space_group_name_H-M   'P 1'
_cell_length_a   5.87453824
_cell_length_b   6.11175366
_cell_length_c   6.12701016
_cell_angle_alpha   59.18909788
_cell_angle_beta   118.78075262
_cell_angle_gamma   122.33682708
_symmetry_Int_Tables_number   1
_chemical_formula_structural   MgCo3TeO8
_chemical_formula_sum   'Mg1 Co3 Te1 O8'
_cell_volume   152.97026046
_cell_formula_units_Z   1
loop_
 _symmetry_equiv_pos_site_id
 _symmetry_equiv_pos_as_xyz
  1  'x, y, z'
loop_
 _atom_site_type_symbol
 _atom_site_label
 _atom_site_symmetry_multiplicity
 _atom_site_fract_x
 _atom_site_fract_y
 _atom_site_fract_z
 _atom_site_occupancy
  Mg  Mg0  1  0.50000000  0.00000000  0.50000000  1
  Co  Co0  1  0.50000000  0.50000000  0.00000000  1
  Co  Co1  1  0.50000000  0.00000000  0.00000000  1
  Co  Co2  1  0.00000000  0.50000000  0.00000000  1
  Te  Te0  1  0.50000000  0.50000000  0.50000000  1
  O  O0  1  0.72365000  0.73155300  0.72267000  1
  O  O1  1  0.74201600  0.28829900  0.71583000  1
  O  O2  1  0.27510700  0.75365300  0.80555000  1
  O  O3  1  0.29483100  0.24288300  0.76760800  1
  O  O4  1  0.70516900  0.75711700  0.23239200  1
  O  O5  1  0.72489300  0.24634700  0.19445000  1
  O  O6  1  0.25798400  0.71170100  0.28417000  1
  O  O7  1  0.27635000  0.26844700  0.27733000  1
loop_
_geom_bond_atom_site_label_1
_geom_bond_atom_site_label_2
_geom_bond_distance
_geom_bond_site_symmetry_2
Mg0 O7 2.136898 1_555
Mg0 O0 2.136898 1_545
Mg0 O1 2.184347 1_555
Mg0 O6 2.184347 1_545
Mg0 O2 2.209808 1_545
Mg0 O5 2.209808 1_555
Co0 O7 2.076880 1_555
Co0 O0 2.076880 1_554
Co0 O2 2.086029 1_554
Co0 O5 2.086029 1_555
Co0 O4 2.136101 1_555
Co0 O3 2.136101 1_554
Co1 O2 1.904126 1_544
Co1 O5 1.904126 1_555
Co1 O3 1.944200 1_554
Co1 O4 1.944200 1_545
Co1 O6 2.172185 1_545
Co1 O1 2.172185 1_554
Co2 O5 1.927774 1_455
Co2 O2 1.927774 1_554
Co2 O6 2.161375 1_555
Co2 O1 2.161375 1_454
Co2 O0 2.205390 1_454
Co2 O7 2.205390 1_555
O0 Te0 1.962918 1_555
O1 Te0 1.961862 1_555
O3 Te0 1.961569 1_555
O4 Te0 1.961569 1_555
O6 Te0 1.961862 1_555
O7 Te0 1.962918 1_555
