# generated using pymatgen
data_MgTi5NbO12
_symmetry_space_group_name_H-M   'P 1'
_cell_length_a   7.70946246
_cell_length_b   5.66539174
_cell_length_c   5.84194898
_cell_angle_alpha   72.26722757
_cell_angle_beta   66.55561000
_cell_angle_gamma   68.71459937
_symmetry_Int_Tables_number   1
_chemical_formula_structural   MgTi5NbO12
_chemical_formula_sum   'Mg1 Ti5 Nb1 O12'
_cell_volume   214.26427587
_cell_formula_units_Z   1
loop_
 _symmetry_equiv_pos_site_id
 _symmetry_equiv_pos_as_xyz
  1  'x, y, z'
loop_
 _atom_site_type_symbol
 _atom_site_label
 _atom_site_symmetry_multiplicity
 _atom_site_fract_x
 _atom_site_fract_y
 _atom_site_fract_z
 _atom_site_occupancy
  Mg  Mg0  1  0.00430200  0.99554000  0.49606100  1
  Ti  Ti0  1  0.79568800  0.62445000  0.64630900  1
  Ti  Ti1  1  0.67439200  0.31872400  0.29527000  1
  Ti  Ti2  1  0.33451700  0.67250000  0.69537800  1
  Ti  Ti3  1  0.21335600  0.36653300  0.34485800  1
  Ti  Ti4  1  0.00478800  0.99516600  0.99536500  1
  Nb  Nb0  1  0.50420700  0.99598700  0.99584200  1
  O  O0  1  0.70276100  0.01010000  0.62216100  1
  O  O1  1  0.34698200  0.38209000  0.98252000  1
  O  O2  1  0.95253900  0.24635600  0.20117900  1
  O  O3  1  0.30515300  0.91847700  0.88898500  1
  O  O4  1  0.63230500  0.56689400  0.53003500  1
  O  O5  1  0.70343500  0.07323100  0.10228700  1
  O  O6  1  0.05571900  0.74445700  0.79080200  1
  O  O7  1  0.37678700  0.42449500  0.46050400  1
  O  O8  1  0.99090300  0.28185500  0.66652500  1
  O  O9  1  0.66147700  0.60948100  0.00865200  1
  O  O10  1  0.30580300  0.98107900  0.36887600  1
  O  O11  1  0.01821800  0.70925100  0.32505600  1
loop_
_geom_bond_atom_site_label_1
_geom_bond_atom_site_label_2
_geom_bond_distance
_geom_bond_site_symmetry_2
Mg0 O6 1.946049 1_555
Mg0 O2 1.946853 1_465
Mg0 O8 2.100958 1_465
Mg0 O11 2.101336 1_555
Mg0 O10 2.118072 1_555
Mg0 O0 2.118700 1_465
Nb0 O1 2.075205 1_565
Nb0 O9 2.077332 1_556
Nb0 O5 2.085928 1_566
Nb0 O3 2.087112 1_555
Nb0 O10 2.103605 1_556
Nb0 O0 2.106821 1_565
O0 Ti0 2.015688 1_545
O0 Ti1 2.184627 1_555
O1 Ti3 1.940828 1_556
O1 Ti2 1.965290 1_555
O2 Ti1 1.905150 1_555
O2 Ti4 1.968205 1_644
O3 Ti2 1.949321 1_555
O3 Ti4 2.055760 1_555
O4 Ti0 1.807830 1_555
O4 Ti2 2.037608 1_555
O4 Ti1 2.110059 1_555
O5 Ti1 1.945179 1_555
O5 Ti4 2.061770 1_644
O6 Ti2 1.909356 1_555
O6 Ti4 1.963527 1_555
O7 Ti3 1.806833 1_555
O7 Ti1 2.036389 1_555
O7 Ti2 2.109319 1_555
O8 Ti0 1.981716 1_555
O8 Ti3 2.046064 1_655
O8 Ti4 2.115824 1_645
O9 Ti0 1.941683 1_554
O9 Ti1 1.964795 1_555
O10 Ti3 2.014782 1_565
O10 Ti2 2.183397 1_555
O11 Ti3 1.981789 1_555
O11 Ti0 2.045336 1_455
O11 Ti4 2.116745 1_554
