# generated using pymatgen
data_BaTa2Bi2O9
_symmetry_space_group_name_H-M   'P 1'
_cell_length_a   12.93976145
_cell_length_b   12.93976145
_cell_length_c   12.93976145
_cell_angle_alpha   162.35730040
_cell_angle_beta   162.35730040
_cell_angle_gamma   25.05115198
_symmetry_Int_Tables_number   1
_chemical_formula_structural   BaTa2Bi2O9
_chemical_formula_sum   'Ba1 Ta2 Bi2 O9'
_cell_volume   198.96095994
_cell_formula_units_Z   1
loop_
 _symmetry_equiv_pos_site_id
 _symmetry_equiv_pos_as_xyz
  1  'x, y, z'
loop_
 _atom_site_type_symbol
 _atom_site_label
 _atom_site_symmetry_multiplicity
 _atom_site_fract_x
 _atom_site_fract_y
 _atom_site_fract_z
 _atom_site_occupancy
  Ba  Ba0  1  0.00000000  0.00000000  0.00000000  1
  Ta  Ta0  1  0.41199700  0.41199700  0.00000000  1
  Ta  Ta1  1  0.58800300  0.58800300  0.00000000  1
  Bi  Bi0  1  0.20134300  0.20134300  0.00000000  1
  Bi  Bi1  1  0.79865700  0.79865700  0.00000000  1
  O  O0  1  0.08079400  0.58079400  0.50000000  1
  O  O1  1  0.58079400  0.08079400  0.50000000  1
  O  O2  1  0.91920600  0.41920600  0.50000000  1
  O  O3  1  0.41920600  0.91920600  0.50000000  1
  O  O4  1  0.75000000  0.25000000  0.50000000  1
  O  O5  1  0.50000000  0.50000000  0.00000000  1
  O  O6  1  0.33720400  0.33720400  0.00000000  1
  O  O7  1  0.66279600  0.66279600  0.00000000  1
  O  O8  1  0.25000000  0.75000000  0.50000000  1
loop_
_geom_bond_atom_site_label_1
_geom_bond_atom_site_label_2
_geom_bond_distance
_geom_bond_site_symmetry_2
Ba0 O5 2.806316 1_444
Ba0 O5 2.806316 1_545
Ba0 O5 2.806316 1_455
Ba0 O5 2.806316 1_556
Ba0 O3 2.846749 1_545
Ba0 O1 2.846749 1_555
Ba0 O2 2.846749 1_455
Ba0 O1 2.846749 1_454
Ba0 O0 2.846749 1_544
Ba0 O2 2.846749 1_444
Ba0 O0 2.846749 1_555
Ba0 O3 2.846749 1_444
Bi0 O4 2.334258 1_555
Bi0 O8 2.334258 1_555
Bi0 O4 2.334258 1_454
Bi0 O8 2.334258 1_544
Bi1 O8 2.334258 1_554
Bi1 O8 2.334258 1_655
Bi1 O4 2.334258 1_565
Bi1 O4 2.334258 1_554
O0 Ta1 1.992705 1_455
O0 Ta1 1.992705 1_556
O1 Ta1 1.992705 1_556
O1 Ta1 1.992705 1_545
O2 Ta0 1.992705 1_555
O2 Ta0 1.992705 1_656
O3 Ta0 1.992705 1_555
O3 Ta0 1.992705 1_566
O5 Ta0 2.223270 1_555
O5 Ta1 2.223270 1_555
O6 Ta0 1.889538 1_555
O7 Ta1 1.889538 1_555
