# generated using pymatgen
data_Mg3Si4
_symmetry_space_group_name_H-M   'P 1'
_cell_length_a   5.39336657
_cell_length_b   6.88016924
_cell_length_c   7.86870548
_cell_angle_alpha   69.46019896
_cell_angle_beta   74.46627554
_cell_angle_gamma   81.02567769
_symmetry_Int_Tables_number   1
_chemical_formula_structural   Mg3Si4
_chemical_formula_sum   'Mg6 Si8'
_cell_volume   262.81354112
_cell_formula_units_Z   2
loop_
 _symmetry_equiv_pos_site_id
 _symmetry_equiv_pos_as_xyz
  1  'x, y, z'
loop_
 _atom_site_type_symbol
 _atom_site_label
 _atom_site_symmetry_multiplicity
 _atom_site_fract_x
 _atom_site_fract_y
 _atom_site_fract_z
 _atom_site_occupancy
  Mg  Mg0  1  0.10494854  0.48536805  0.23589935  1
  Mg  Mg1  1  0.57309330  0.76898032  0.09273173  1
  Mg  Mg2  1  0.28159888  0.69374210  0.51137168  1
  Mg  Mg3  1  0.09633737  0.96097329  0.88950871  1
  Mg  Mg4  1  0.82292772  0.36627069  0.65816632  1
  Mg  Mg5  1  0.76059085  0.25140872  0.11329567  1
  Si  Si0  1  0.89342027  0.83730627  0.31020008  1
  Si  Si1  1  0.93115266  0.62191873  0.83979397  1
  Si  Si2  1  0.57619765  0.41121853  0.38887328  1
  Si  Si3  1  0.31093404  0.13208898  0.52076700  1
  Si  Si4  1  0.20443351  0.07423621  0.26522693  1
  Si  Si5  1  0.40178562  0.20897223  0.94535673  1
  Si  Si6  1  0.38038769  0.59173418  0.86140089  1
  Si  Si7  1  0.66875089  0.84251269  0.62079666  1
loop_
_geom_bond_atom_site_label_1
_geom_bond_atom_site_label_2
_geom_bond_distance
_geom_bond_site_symmetry_2
Mg0 Si0 2.698298 1_455
Mg0 Si4 2.734447 1_555
Mg0 Si6 2.811997 1_554
Mg0 Si2 2.833027 1_455
Mg0 Si3 2.972340 1_555
Mg0 Si2 2.995361 1_555
Mg1 Si1 2.731156 1_554
Mg1 Si2 2.733544 1_555
Mg1 Si0 2.921509 1_555
Mg1 Si5 2.932639 1_564
Mg1 Si6 2.974415 1_554
Mg1 Si4 3.075491 1_565
Mg2 Si2 2.600568 1_555
Mg2 Si1 2.697056 1_455
Mg2 Si4 2.704004 1_565
Mg2 Si6 2.770449 1_555
Mg2 Si0 2.810202 1_455
Mg2 Si7 2.897797 1_555
Mg2 Si3 3.072091 1_565
Mg3 Si3 2.715476 1_565
Mg3 Si5 2.758492 1_565
Mg3 Si6 2.801474 1_555
Mg3 Si1 2.804259 1_455
Mg3 Si0 3.041940 1_456
Mg4 Si2 2.697887 1_555
Mg4 Si5 2.781846 1_555
Mg4 Si1 2.829849 1_555
Mg4 Si3 3.011230 1_655
Mg4 Si6 3.033433 1_555
Mg5 Si2 2.660256 1_555
Mg5 Si5 2.719024 1_554
Mg5 Si1 2.792420 1_554
Mg5 Si0 2.809141 1_545
Mg5 Si4 2.871460 1_655
Mg5 Si4 3.179612 1_555
Si0 Si4 2.393023 1_665
Si0 Si7 2.429891 1_555
Si1 Si6 2.445671 1_655
Si1 Si7 2.465100 1_555
Si2 Si3 2.339951 1_555
Si3 Si4 2.404815 1_555
Si3 Si7 2.612821 1_545
Si4 Si5 2.358606 1_554
Si5 Si6 2.471864 1_555
Si6 Si7 2.438861 1_555
