# generated using pymatgen
data_Sr2P7Rh12
_symmetry_space_group_name_H-M   'P 1'
_cell_length_a   9.61654072
_cell_length_b   9.61666188
_cell_length_c   3.87431869
_cell_angle_alpha   89.99911803
_cell_angle_beta   90.00112472
_cell_angle_gamma   120.00027973
_symmetry_Int_Tables_number   1
_chemical_formula_structural   Sr2P7Rh12
_chemical_formula_sum   'Sr2 P7 Rh12'
_cell_volume   310.29013657
_cell_formula_units_Z   1
loop_
 _symmetry_equiv_pos_site_id
 _symmetry_equiv_pos_as_xyz
  1  'x, y, z'
loop_
 _atom_site_type_symbol
 _atom_site_label
 _atom_site_symmetry_multiplicity
 _atom_site_fract_x
 _atom_site_fract_y
 _atom_site_fract_z
 _atom_site_occupancy
  Sr  Sr0  1  0.00002755  -0.00001222  0.74826694  1
  Sr  Sr1  1  0.33332393  0.66664398  0.25482587  1
  P  P0  1  0.66664701  0.33334579  0.50617165  1
  P  P1  1  0.06732846  0.62264227  0.75702076  1
  P  P2  1  0.37737315  0.44469113  0.75702624  1
  P  P3  1  0.55527988  0.93266214  0.75701657  1
  P  P4  1  0.26624240  0.04416880  0.24619471  1
  P  P5  1  0.95583846  0.22206295  0.24620361  1
  P  P6  1  0.77794879  0.73376431  0.24622219  1
  Rh  Rh0  1  0.81467595  0.59102732  0.75089124  1
  Rh  Rh1  1  0.40894075  0.22365579  0.75090283  1
  Rh  Rh2  1  0.77633280  0.18530024  0.75088900  1
  Rh  Rh3  1  0.51910144  0.07634773  0.25287077  1
  Rh  Rh4  1  0.92363832  0.44279451  0.25282945  1
  Rh  Rh5  1  0.55718665  0.48089263  0.25287122  1
  Rh  Rh6  1  0.10830468  0.39391031  0.75283224  1
  Rh  Rh7  1  0.60616102  0.71439492  0.75285179  1
  Rh  Rh8  1  0.28560075  0.89172631  0.75285384  1
  Rh  Rh9  1  0.22494792  0.27301579  0.25039544  1
  Rh  Rh10  1  0.72698763  0.95188141  0.25039651  1
  Rh  Rh11  1  0.04811247  0.77508290  0.25040514  1
loop_
_geom_bond_atom_site_label_1
_geom_bond_atom_site_label_2
_geom_bond_distance
_geom_bond_site_symmetry_2
P0 Rh0 2.353394 1_555
P0 Rh1 2.353567 1_555
P0 Rh2 2.353742 1_555
P0 Rh3 2.361719 1_555
P0 Rh4 2.361721 1_555
P0 Rh5 2.361763 1_555
P1 Rh0 2.292918 1_455
P1 Rh8 2.381309 1_555
P1 Rh6 2.420892 1_555
P1 Rh11 2.471469 1_556
P1 Rh4 2.490123 1_456
P1 Rh11 2.511287 1_555
P1 Rh4 2.515260 1_455
P1 Sr1 3.059303 1_556
P1 Sr1 3.070108 1_555
P2 Rh1 2.292656 1_555
P2 Rh6 2.381247 1_555
P2 Rh7 2.421048 1_555
P2 Rh9 2.471425 1_556
P2 Rh5 2.489909 1_556
P2 Rh9 2.511370 1_555
P2 Rh5 2.514876 1_555
P2 Sr1 3.059289 1_556
P2 Sr1 3.070014 1_555
P3 Rh2 2.292906 1_565
P3 Rh7 2.381709 1_555
P3 Rh8 2.420727 1_555
P3 Rh10 2.471701 1_556
P3 Rh3 2.490343 1_566
P3 Rh10 2.511628 1_555
P3 Rh3 2.515164 1_565
P3 Sr1 3.059358 1_556
P3 Sr1 3.070084 1_555
P4 Rh3 2.292764 1_555
P4 Rh11 2.380859 1_545
P4 Rh9 2.423878 1_555
P4 Rh8 2.471858 1_544
P4 Rh1 2.485161 1_554
P4 Rh8 2.511930 1_545
P4 Rh1 2.513436 1_555
P4 Sr0 3.060738 1_554
P4 Sr0 3.070939 1_555
P5 Rh4 2.293407 1_555
P5 Rh9 2.381076 1_655
P5 Rh10 2.424110 1_545
P5 Rh6 2.472149 1_654
P5 Rh2 2.485363 1_554
P5 Rh6 2.512069 1_655
P5 Rh2 2.513544 1_555
P5 Sr0 3.061181 1_654
P5 Sr0 3.071230 1_655
P6 Rh5 2.293159 1_555
P6 Rh10 2.380786 1_555
P6 Rh11 2.423969 1_655
P6 Rh7 2.471784 1_554
P6 Rh0 2.485290 1_554
P6 Rh7 2.511766 1_555
P6 Rh0 2.513288 1_555
P6 Sr0 3.061007 1_664
P6 Sr0 3.071014 1_665
Rh0 Sr0 3.410906 1_665
Rh1 Sr0 3.410512 1_555
Rh2 Sr0 3.411316 1_655
Rh3 Sr1 3.417053 1_545
Rh4 Sr1 3.416823 1_655
Rh5 Sr1 3.416286 1_555
Rh6 Sr1 3.099794 1_555
Rh6 Sr1 3.109430 1_556
Rh6 Sr0 3.389780 1_555
Rh7 Sr1 3.100471 1_555
Rh7 Sr1 3.110069 1_556
Rh7 Sr0 3.389224 1_665
Rh8 Sr1 3.100395 1_555
Rh8 Sr1 3.109875 1_556
Rh8 Sr0 3.388975 1_565
Rh9 Sr0 3.100616 1_555
Rh9 Sr0 3.110900 1_554
Rh9 Sr1 3.386809 1_555
Rh10 Sr0 3.100664 1_665
Rh10 Sr0 3.111011 1_664
Rh10 Sr1 3.386972 1_555
Rh11 Sr0 3.100407 1_565
Rh11 Sr0 3.110689 1_564
Rh11 Sr1 3.386834 1_555
