# generated using pymatgen
data_MgFe12(OF)12
_symmetry_space_group_name_H-M   'P 1'
_cell_length_a   9.71055006
_cell_length_b   14.52534052
_cell_length_c   3.09211700
_cell_angle_alpha   90.00000000
_cell_angle_beta   90.00000000
_cell_angle_gamma   87.84563610
_symmetry_Int_Tables_number   1
_chemical_formula_structural   MgFe12(OF)12
_chemical_formula_sum   'Mg1 Fe12 O12 F12'
_cell_volume   435.83187931
_cell_formula_units_Z   1
loop_
 _symmetry_equiv_pos_site_id
 _symmetry_equiv_pos_as_xyz
  1  'x, y, z'
loop_
 _atom_site_type_symbol
 _atom_site_label
 _atom_site_symmetry_multiplicity
 _atom_site_fract_x
 _atom_site_fract_y
 _atom_site_fract_z
 _atom_site_occupancy
  Mg  Mg0  1  0.76770300  0.99180900  0.50000000  1
  Fe  Fe0  1  0.04960400  0.01965800  0.00000000  1
  Fe  Fe1  1  0.02235800  0.33272800  0.00000000  1
  Fe  Fe2  1  0.00356200  0.67001800  0.00000000  1
  Fe  Fe3  1  0.25213300  0.17550700  0.50000000  1
  Fe  Fe4  1  0.24100900  0.48238500  0.50000000  1
  Fe  Fe5  1  0.25832800  0.85202300  0.50000000  1
  Fe  Fe6  1  0.50343400  0.34896100  0.00000000  1
  Fe  Fe7  1  0.50674700  0.98958700  0.00000000  1
  Fe  Fe8  1  0.49910300  0.64807400  0.00000000  1
  Fe  Fe9  1  0.76437400  0.16830200  0.50000000  1
  Fe  Fe10  1  0.73129900  0.49238600  0.50000000  1
  Fe  Fe11  1  0.70144100  0.80402200  0.50000000  1
  O  O0  1  0.10966300  0.27382000  0.50000000  1
  O  O1  1  0.10752600  0.93987000  0.50000000  1
  O  O2  1  0.18951600  0.11105400  0.00000000  1
  O  O3  1  0.14552200  0.43820300  0.00000000  1
  O  O4  1  0.35665600  0.89925100  0.00000000  1
  O  O5  1  0.40528100  0.40012900  0.50000000  1
  O  O6  1  0.59648500  0.91975500  0.50000000  1
  O  O7  1  0.58112800  0.58678600  0.50000000  1
  O  O8  1  0.67615800  0.06949600  0.00000000  1
  O  O9  1  0.66287600  0.42630100  0.00000000  1
  O  O10  1  0.63725700  0.74505400  0.00000000  1
  O  O11  1  0.92867500  0.06906000  0.50000000  1
  F  F0  1  0.10316800  0.60136800  0.50000000  1
  F  F1  1  0.16028100  0.77279100  0.00000000  1
  F  F2  1  0.36893800  0.23681500  0.00000000  1
  F  F3  1  0.33226500  0.56333700  0.00000000  1
  F  F4  1  0.42206600  0.06929200  0.50000000  1
  F  F5  1  0.39228100  0.72044100  0.50000000  1
  F  F6  1  0.59742400  0.26603000  0.50000000  1
  F  F7  1  0.85815000  0.24764500  0.00000000  1
  F  F8  1  0.82131300  0.89210600  0.00000000  1
  F  F9  1  0.83878400  0.56243800  0.00000000  1
  F  F10  1  0.90845700  0.40290900  0.50000000  1
  F  F11  1  0.89189100  0.73651400  0.50000000  1
loop_
_geom_bond_atom_site_label_1
_geom_bond_atom_site_label_2
_geom_bond_distance
_geom_bond_site_symmetry_2
Mg0 O11 1.958146 1_565
Mg0 O6 1.997630 1_555
Mg0 O8 2.092479 1_565
Mg0 O8 2.092479 1_566
Fe0 O2 1.934908 1_555
Fe0 O1 2.000201 1_545
Fe0 O1 2.000201 1_544
Fe0 O11 2.054462 1_455
Fe0 O11 2.054462 1_454
Fe1 O0 1.945929 1_554
Fe1 O0 1.945929 1_555
Fe1 O3 1.978728 1_555
Fe3 O2 1.918147 1_555
Fe3 O2 1.918147 1_556
Fe3 O0 1.950564 1_555
Fe4 O3 1.925266 1_555
Fe4 O3 1.925266 1_556
Fe4 O5 1.956736 1_555
Fe5 O1 1.905805 1_555
Fe5 O4 1.954948 1_556
Fe5 O4 1.954948 1_555
Fe6 O9 1.946769 1_555
Fe6 O5 1.948812 1_554
Fe6 O5 1.948812 1_555
Fe7 O4 1.997438 1_555
Fe7 O6 2.027822 1_554
Fe7 O6 2.027822 1_555
Fe7 O8 2.048674 1_565
Fe8 O7 1.940082 1_554
Fe8 O7 1.940082 1_555
Fe8 O10 1.981461 1_555
Fe9 O11 2.109632 1_555
Fe9 O8 2.297022 1_556
Fe9 O8 2.297022 1_555
Fe10 O9 1.949649 1_556
Fe10 O9 1.949649 1_555
Fe10 O7 1.963749 1_555
Fe11 O10 1.884816 1_556
Fe11 O10 1.884816 1_555
Fe11 O6 1.932843 1_555
F0 Fe2 2.060983 1_555
F0 Fe2 2.060983 1_556
F0 Fe4 2.145834 1_555
F1 Fe5 2.168792 1_554
F1 Fe5 2.168792 1_555
F1 Fe2 2.171463 1_555
F2 Fe6 2.125835 1_555
F2 Fe3 2.132080 1_555
F2 Fe3 2.132080 1_554
F3 Fe8 2.071125 1_555
F3 Fe4 2.153260 1_554
F3 Fe4 2.153260 1_555
F4 Fe7 2.082130 1_546
F4 Fe7 2.082130 1_545
F4 Fe3 2.216264 1_555
F5 Fe8 2.118782 1_555
F5 Fe8 2.118782 1_556
F5 Fe5 2.271128 1_555
F6 Fe9 2.114300 1_555
F6 Fe6 2.142828 1_555
F6 Fe6 2.142828 1_556
F7 Fe1 2.053801 1_655
F7 Fe9 2.150963 1_554
F7 Fe9 2.150963 1_555
F8 Mg0 2.168401 1_555
F8 Mg0 2.168401 1_554
F8 Fe11 2.343973 1_554
F8 Fe11 2.343973 1_555
F9 Fe10 2.143572 1_555
F9 Fe10 2.143572 1_554
F9 Fe2 2.278177 1_655
F10 Fe10 2.116723 1_555
F10 Fe1 2.137297 1_655
F10 Fe1 2.137297 1_656
F11 Fe11 2.060430 1_555
F11 Fe2 2.102466 1_655
F11 Fe2 2.102466 1_656
