# generated using pymatgen
data_MgV2ZnO6
_symmetry_space_group_name_H-M   'P 1'
_cell_length_a   3.83162458
_cell_length_b   5.54270591
_cell_length_c   6.84026477
_cell_angle_alpha   83.47872873
_cell_angle_beta   90.00313737
_cell_angle_gamma   110.23371467
_symmetry_Int_Tables_number   1
_chemical_formula_structural   MgV2ZnO6
_chemical_formula_sum   'Mg1 V2 Zn1 O6'
_cell_volume   135.30403187
_cell_formula_units_Z   1
loop_
 _symmetry_equiv_pos_site_id
 _symmetry_equiv_pos_as_xyz
  1  'x, y, z'
loop_
 _atom_site_type_symbol
 _atom_site_label
 _atom_site_symmetry_multiplicity
 _atom_site_fract_x
 _atom_site_fract_y
 _atom_site_fract_z
 _atom_site_occupancy
  Mg  Mg0  1  0.14695165  0.29556829  0.12557978  1
  V  V0  1  0.21604357  0.43332431  0.69151895  1
  V  V1  1  0.80495539  0.61112351  0.35400085  1
  Zn  Zn0  1  0.87781770  0.75678376  0.91961201  1
  O  O0  1  0.07025057  0.14181489  0.84204253  1
  O  O1  1  0.96324385  0.92718412  0.25383946  1
  O  O2  1  0.33220195  0.66563320  0.88017571  1
  O  O3  1  0.70467384  0.41088078  0.14242145  1
  O  O4  1  0.24887356  0.49902644  0.40064279  1
  O  O5  1  0.75998792  0.52116070  0.64016646  1
loop_
_geom_bond_atom_site_label_1
_geom_bond_atom_site_label_2
_geom_bond_distance
_geom_bond_site_symmetry_2
Mg0 O1 2.008316 1_445
Mg0 O3 2.014827 1_455
Mg0 O3 2.015047 1_555
Mg0 O0 2.185476 1_554
Mg0 O4 2.267497 1_555
Mg0 O2 2.395800 1_554
O0 V0 1.726467 1_555
O0 Zn0 2.008493 1_445
O1 V1 1.702544 1_555
O1 Zn0 2.549991 1_554
O2 V0 1.871446 1_555
O2 Zn0 1.999658 1_455
O2 Zn0 1.999729 1_555
O3 V1 1.882515 1_555
O3 Zn0 2.212539 1_554
O4 V0 1.977621 1_555
O4 V1 2.016656 1_455
O4 V1 2.016690 1_555
O5 V1 1.956741 1_555
O5 V0 1.990850 1_655
O5 V0 1.990888 1_555
O5 Zn0 2.392133 1_555
