# generated using pymatgen
data_Na4ZnIn(PO4)3
_symmetry_space_group_name_H-M   'P 1'
_cell_length_a   9.16253879
_cell_length_b   9.16253846
_cell_length_c   22.10293652
_cell_angle_alpha   90.00000000
_cell_angle_beta   90.00000000
_cell_angle_gamma   120.00000115
_symmetry_Int_Tables_number   1
_chemical_formula_structural   Na4ZnIn(PO4)3
_chemical_formula_sum   'Na24 Zn6 In6 P18 O72'
_cell_volume   1606.98654332
_cell_formula_units_Z   6
loop_
 _symmetry_equiv_pos_site_id
 _symmetry_equiv_pos_as_xyz
  1  'x, y, z'
loop_
 _atom_site_type_symbol
 _atom_site_label
 _atom_site_symmetry_multiplicity
 _atom_site_fract_x
 _atom_site_fract_y
 _atom_site_fract_z
 _atom_site_occupancy
  Na  Na0  1  0.63637186  0.00767806  0.24836118  1
  Na  Na1  1  0.37130620  0.36362814  0.24836118  1
  Na  Na2  1  0.99232194  0.62869380  0.24836118  1
  Na  Na3  1  0.63637186  0.62869380  0.74836118  1
  Na  Na4  1  0.99232194  0.36362814  0.74836118  1
  Na  Na5  1  0.37130620  0.00767806  0.74836118  1
  Na  Na6  1  0.30303886  0.34101106  0.58169418  1
  Na  Na7  1  0.03797320  0.69696114  0.58169418  1
  Na  Na8  1  0.65898894  0.96202680  0.58169418  1
  Na  Na9  1  0.30303886  0.96202680  0.08169418  1
  Na  Na10  1  0.65898894  0.69696114  0.08169418  1
  Na  Na11  1  0.03797320  0.34101106  0.08169418  1
  Na  Na12  1  0.96970486  0.67434506  0.91502818  1
  Na  Na13  1  0.70463920  0.03029514  0.91502818  1
  Na  Na14  1  0.32565494  0.29536080  0.91502818  1
  Na  Na15  1  0.96970486  0.29536080  0.41502818  1
  Na  Na16  1  0.32565494  0.03029514  0.41502818  1
  Na  Na17  1  0.70463920  0.67434506  0.41502818  1
  Na  Na18  1  0.00000000  0.00000000  0.49644468  1
  Na  Na19  1  0.00000000  0.00000000  0.99644468  1
  Na  Na20  1  0.66666700  0.33333300  0.82977768  1
  Na  Na21  1  0.66666700  0.33333300  0.32977768  1
  Na  Na22  1  0.33333300  0.66666700  0.16311168  1
  Na  Na23  1  0.33333300  0.66666700  0.66311168  1
  Zn  Zn0  1  0.00000000  0.00000000  0.34598517  1
  Zn  Zn1  1  0.00000000  0.00000000  0.84598517  1
  Zn  Zn2  1  0.66666700  0.33333300  0.67931817  1
  Zn  Zn3  1  0.66666700  0.33333300  0.17931817  1
  Zn  Zn4  1  0.33333300  0.66666700  0.01265217  1
  Zn  Zn5  1  0.33333300  0.66666700  0.51265217  1
  In  In0  1  0.00000000  0.00000000  0.65309438  1
  In  In1  1  0.00000000  0.00000000  0.15309438  1
  In  In2  1  0.66666700  0.33333300  0.98642738  1
  In  In3  1  0.66666700  0.33333300  0.48642738  1
  In  In4  1  0.33333300  0.66666700  0.31976138  1
  In  In5  1  0.33333300  0.66666700  0.81976138  1
  P  P0  1  0.29973989  0.00078607  0.25151995  1
  P  P1  1  0.70104617  0.70026011  0.25151995  1
  P  P2  1  0.99921393  0.29895383  0.25151995  1
  P  P3  1  0.29973989  0.29895383  0.75151995  1
  P  P4  1  0.99921393  0.70026011  0.75151995  1
  P  P5  1  0.70104617  0.00078607  0.75151995  1
  P  P6  1  0.96640689  0.33411907  0.58485295  1
  P  P7  1  0.36771317  0.03359311  0.58485295  1
  P  P8  1  0.66588093  0.63228683  0.58485295  1
  P  P9  1  0.96640689  0.63228683  0.08485295  1
  P  P10  1  0.66588093  0.03359311  0.08485295  1
  P  P11  1  0.36771317  0.33411907  0.08485295  1
  P  P12  1  0.63307289  0.66745307  0.91818695  1
  P  P13  1  0.03437917  0.36692711  0.91818695  1
  P  P14  1  0.33254693  0.96562083  0.91818695  1
  P  P15  1  0.63307289  0.96562083  0.41818695  1
  P  P16  1  0.33254693  0.36692711  0.41818695  1
  P  P17  1  0.03437917  0.66745307  0.41818695  1
  O  O0  1  0.21517241  0.02646631  0.30715924  1
  O  O1  1  0.81129390  0.78482759  0.30715924  1
  O  O2  1  0.97353369  0.18870610  0.30715924  1
  O  O3  1  0.21517241  0.18870610  0.80715924  1
  O  O4  1  0.97353369  0.78482759  0.80715924  1
  O  O5  1  0.81129390  0.02646631  0.80715924  1
  O  O6  1  0.77554828  0.96692818  0.69334337  1
  O  O7  1  0.19137990  0.22445172  0.69334337  1
  O  O8  1  0.03307182  0.80862010  0.69334337  1
  O  O9  1  0.77554828  0.80862010  0.19334337  1
  O  O10  1  0.03307182  0.22445172  0.19334337  1
  O  O11  1  0.19137990  0.96692818  0.19334337  1
  O  O12  1  0.88183941  0.35979931  0.64049224  1
  O  O13  1  0.47796090  0.11816059  0.64049224  1
  O  O14  1  0.64020069  0.52203910  0.64049224  1
  O  O15  1  0.88183941  0.52203910  0.14049224  1
  O  O16  1  0.64020069  0.11816059  0.14049224  1
  O  O17  1  0.47796090  0.35979931  0.14049224  1
  O  O18  1  0.44221528  0.30026118  0.02667637  1
  O  O19  1  0.85804690  0.55778472  0.02667637  1
  O  O20  1  0.69973882  0.14195310  0.02667637  1
  O  O21  1  0.44221528  0.14195310  0.52667637  1
  O  O22  1  0.69973882  0.55778472  0.52667637  1
  O  O23  1  0.85804690  0.30026118  0.52667637  1
  O  O24  1  0.54850541  0.69313331  0.97382624  1
  O  O25  1  0.14462690  0.45149459  0.97382624  1
  O  O26  1  0.30686669  0.85537310  0.97382624  1
  O  O27  1  0.54850541  0.85537310  0.47382624  1
  O  O28  1  0.30686669  0.45149459  0.47382624  1
  O  O29  1  0.14462690  0.69313331  0.47382624  1
  O  O30  1  0.10888128  0.63359518  0.36001037  1
  O  O31  1  0.52471290  0.89111872  0.36001037  1
  O  O32  1  0.36640482  0.47528710  0.36001037  1
  O  O33  1  0.10888128  0.47528710  0.86001037  1
  O  O34  1  0.36640482  0.89111872  0.86001037  1
  O  O35  1  0.52471290  0.63359518  0.86001037  1
  O  O36  1  0.01601534  0.82611490  0.41302240  1
  O  O37  1  0.81009955  0.98398466  0.41302240  1
  O  O38  1  0.17388510  0.18990045  0.41302240  1
  O  O39  1  0.01601534  0.18990045  0.91302240  1
  O  O40  1  0.17388510  0.98398466  0.91302240  1
  O  O41  1  0.81009955  0.82611490  0.91302240  1
  O  O42  1  0.98386040  0.17264534  0.58808578  1
  O  O43  1  0.18878494  0.01613960  0.58808578  1
  O  O44  1  0.82735466  0.81121506  0.58808578  1
  O  O45  1  0.98386040  0.81121506  0.08808578  1
  O  O46  1  0.82735466  0.01613960  0.08808578  1
  O  O47  1  0.18878494  0.17264534  0.08808578  1
  O  O48  1  0.68268234  0.15944790  0.74635540  1
  O  O49  1  0.47676655  0.31731766  0.74635540  1
  O  O50  1  0.84055210  0.52323345  0.74635540  1
  O  O51  1  0.68268234  0.52323345  0.24635540  1
  O  O52  1  0.84055210  0.31731766  0.24635540  1
  O  O53  1  0.47676655  0.15944790  0.24635540  1
  O  O54  1  0.65052740  0.50597834  0.92141878  1
  O  O55  1  0.85545194  0.34947260  0.92141878  1
  O  O56  1  0.49402166  0.14454806  0.92141878  1
  O  O57  1  0.65052740  0.14454806  0.42141878  1
  O  O58  1  0.49402166  0.34947260  0.42141878  1
  O  O59  1  0.85545194  0.50597834  0.42141878  1
  O  O60  1  0.34934834  0.49278190  0.07968940  1
  O  O61  1  0.14343255  0.65065166  0.07968940  1
  O  O62  1  0.50721810  0.85656745  0.07968940  1
  O  O63  1  0.34934834  0.85656745  0.57968940  1
  O  O64  1  0.50721810  0.65065166  0.57968940  1
  O  O65  1  0.14343255  0.49278190  0.57968940  1
  O  O66  1  0.31719340  0.83931234  0.25475278  1
  O  O67  1  0.52211794  0.68280660  0.25475278  1
  O  O68  1  0.16068766  0.47788206  0.25475278  1
  O  O69  1  0.31719340  0.47788206  0.75475278  1
  O  O70  1  0.16068766  0.68280660  0.75475278  1
  O  O71  1  0.52211794  0.83931234  0.75475278  1
loop_
_geom_bond_atom_site_label_1
_geom_bond_atom_site_label_2
_geom_bond_distance
_geom_bond_site_symmetry_2
Na0 O53 2.471418 1_555
Na0 O52 2.498659 1_555
Na0 O66 2.537890 1_545
Na0 O16 2.583598 1_555
Na0 O67 2.619193 1_545
Na0 O31 2.680402 1_545
Na0 O9 2.959273 1_545
Na0 O2 2.976513 1_555
Na1 O51 2.471425 1_555
Na1 O53 2.498666 1_555
Na1 O67 2.537890 1_555
Na1 O17 2.583601 1_555
Na1 O68 2.619202 1_555
Na1 O32 2.680404 1_555
Na1 O10 2.959273 1_555
Na1 O0 2.976513 1_555
Na2 O52 2.471425 1_555
Na2 O51 2.498658 1_555
Na2 O68 2.537882 1_655
Na2 O15 2.583599 1_555
Na2 O66 2.619195 1_655
Na2 O30 2.680401 1_655
Na2 O11 2.959273 1_655
Na2 O1 2.976513 1_555
Na3 O49 2.471425 1_555
Na3 O50 2.498666 1_555
Na3 O69 2.537890 1_555
Na3 O14 2.583601 1_555
Na3 O71 2.619202 1_555
Na3 O35 2.680404 1_555
Na3 O6 2.959273 1_555
Na3 O4 2.976513 1_555
Na4 O50 2.471418 1_555
Na4 O48 2.498659 1_555
Na4 O70 2.537890 1_655
Na4 O12 2.583598 1_555
Na4 O69 2.619193 1_655
Na4 O33 2.680402 1_655
Na4 O7 2.959273 1_655
Na4 O5 2.976513 1_555
Na5 O48 2.471425 1_555
Na5 O49 2.498658 1_555
Na5 O71 2.537882 1_545
Na5 O13 2.583599 1_555
Na5 O70 2.619195 1_545
Na5 O34 2.680401 1_545
Na5 O8 2.959273 1_545
Na5 O3 2.976513 1_555
Na6 O65 2.471433 1_555
Na6 O64 2.498664 1_555
Na6 O42 2.537890 1_455
Na6 O28 2.583582 1_555
Na6 O43 2.619193 1_555
Na6 O7 2.680402 1_555
Na6 O21 2.959273 1_555
Na6 O14 2.976513 1_555
Na7 O63 2.471417 1_555
Na7 O65 2.498650 1_555
Na7 O43 2.537890 1_565
Na7 O29 2.583575 1_555
Na7 O44 2.619202 1_455
Na7 O8 2.680404 1_555
Na7 O22 2.959273 1_455
Na7 O12 2.976513 1_455
Na8 O64 2.471417 1_555
Na8 O63 2.498668 1_555
Na8 O44 2.537882 1_555
Na8 O27 2.583579 1_555
Na8 O42 2.619195 1_565
Na8 O6 2.680401 1_555
Na8 O23 2.959273 1_565
Na8 O13 2.976513 1_565
Na9 O61 2.471417 1_555
Na9 O62 2.498650 1_555
Na9 O45 2.537890 1_455
Na9 O26 2.583575 1_554
Na9 O47 2.619202 1_565
Na9 O11 2.680404 1_555
Na9 O18 2.959273 1_565
Na9 O16 2.976513 1_565
Na10 O62 2.471433 1_555
Na10 O60 2.498664 1_555
Na10 O46 2.537890 1_565
Na10 O24 2.583582 1_554
Na10 O45 2.619193 1_555
Na10 O9 2.680402 1_555
Na10 O19 2.959273 1_555
Na10 O17 2.976513 1_555
Na11 O60 2.471417 1_555
Na11 O61 2.498668 1_555
Na11 O47 2.537882 1_555
Na11 O25 2.583579 1_554
Na11 O46 2.619195 1_455
Na11 O10 2.680401 1_555
Na11 O20 2.959273 1_455
Na11 O15 2.976513 1_455
Na12 O41 2.471418 1_555
Na12 O40 2.498659 1_655
Na12 O54 2.537881 1_555
Na12 O4 2.583598 1_555
Na12 O55 2.619202 1_555
Na12 O19 2.680382 1_556
Na12 O33 2.959273 1_655
Na12 O26 2.976513 1_655
Na13 O39 2.471425 1_655
Na13 O41 2.498666 1_545
Na13 O55 2.537880 1_555
Na13 O5 2.583601 1_555
Na13 O56 2.619185 1_555
Na13 O20 2.680378 1_556
Na13 O34 2.959273 1_545
Na13 O24 2.976513 1_545
Na14 O40 2.471425 1_545
Na14 O39 2.498658 1_555
Na14 O56 2.537897 1_555
Na14 O3 2.583599 1_555
Na14 O54 2.619199 1_555
Na14 O18 2.680386 1_556
Na14 O35 2.959273 1_555
Na14 O25 2.976513 1_555
Na15 O37 2.471425 1_545
Na15 O38 2.498666 1_655
Na15 O57 2.537880 1_555
Na15 O2 2.583601 1_555
Na15 O59 2.619185 1_555
Na15 O23 2.680379 1_555
Na15 O30 2.959273 1_655
Na15 O28 2.976513 1_655
Na16 O38 2.471418 1_555
Na16 O36 2.498659 1_545
Na16 O58 2.537881 1_555
Na16 O0 2.583598 1_555
Na16 O57 2.619202 1_555
Na16 O21 2.680382 1_555
Na16 O31 2.959273 1_545
Na16 O29 2.976513 1_545
Na17 O36 2.471425 1_655
Na17 O37 2.498658 1_555
Na17 O59 2.537897 1_555
Na17 O1 2.583599 1_555
Na17 O58 2.619199 1_555
Na17 O22 2.680386 1_555
Na17 O32 2.959273 1_555
Na17 O27 2.976513 1_555
Na18 O36 2.488692 1_545
Na18 O38 2.488692 1_555
Na18 O37 2.488692 1_445
Na18 O44 2.619333 1_445
Na18 O42 2.619334 1_455
Na18 O43 2.619334 1_555
Na19 O41 2.488692 1_445
Na19 O40 2.488692 1_545
Na19 O39 2.488692 1_555
Na19 O45 2.619333 1_446
Na19 O47 2.619334 1_556
Na19 O46 2.619334 1_456
Na20 O48 2.488692 1_555
Na20 O50 2.488692 1_555
Na20 O49 2.488692 1_555
Na20 O56 2.619333 1_555
Na20 O54 2.619334 1_555
Na20 O55 2.619334 1_555
Na21 O53 2.488692 1_555
Na21 O52 2.488692 1_555
Na21 O51 2.488692 1_555
Na21 O57 2.619333 1_555
Na21 O59 2.619334 1_555
Na21 O58 2.619334 1_555
Na22 O60 2.488692 1_555
Na22 O62 2.488692 1_555
Na22 O61 2.488692 1_555
Na22 O68 2.619333 1_555
Na22 O66 2.619334 1_555
Na22 O67 2.619334 1_555
Na23 O65 2.488692 1_555
Na23 O64 2.488692 1_555
Na23 O63 2.488692 1_555
Na23 O69 2.619333 1_555
Na23 O71 2.619334 1_555
Na23 O70 2.619334 1_555
In0 O7 2.118834 1_555
In0 O8 2.118834 1_545
In0 O6 2.118834 1_445
In0 O44 2.196072 1_445
In0 O42 2.196072 1_455
In0 O43 2.196072 1_555
In1 O10 2.118834 1_555
In1 O9 2.118834 1_445
In1 O11 2.118834 1_545
In1 O45 2.196072 1_445
In1 O47 2.196072 1_555
In1 O46 2.196072 1_455
In2 O19 2.118834 1_556
In2 O20 2.118834 1_556
In2 O18 2.118834 1_556
In2 O56 2.196072 1_555
In2 O54 2.196072 1_555
In2 O55 2.196072 1_555
In3 O22 2.118834 1_555
In3 O21 2.118834 1_555
In3 O23 2.118834 1_555
In3 O57 2.196072 1_555
In3 O59 2.196072 1_555
In3 O58 2.196072 1_555
In4 O31 2.118834 1_555
In4 O32 2.118834 1_555
In4 O30 2.118834 1_555
In4 O68 2.196072 1_555
In4 O66 2.196072 1_555
In4 O67 2.196072 1_555
In5 O34 2.118834 1_555
In5 O33 2.118834 1_555
In5 O35 2.118834 1_555
In5 O69 2.196072 1_555
In5 O71 2.196072 1_555
In5 O70 2.196072 1_555
O0 P0 1.533124 1_555
O0 Zn0 2.050385 1_555
O1 P1 1.533124 1_555
O1 Zn0 2.050385 1_665
O2 P2 1.533124 1_555
O2 Zn0 2.050385 1_655
O3 P3 1.533124 1_555
O3 Zn1 2.050385 1_555
O4 P4 1.533124 1_555
O4 Zn1 2.050385 1_665
O5 P5 1.533124 1_555
O5 Zn1 2.050385 1_655
O6 P5 1.558030 1_565
O7 P3 1.558030 1_555
O8 P4 1.558030 1_455
O9 P1 1.558030 1_555
O10 P2 1.558030 1_455
O11 P0 1.558030 1_565
O12 P6 1.533124 1_555
O12 Zn2 2.050385 1_555
O13 P7 1.533124 1_555
O13 Zn2 2.050385 1_555
O14 P8 1.533124 1_555
O14 Zn2 2.050385 1_555
O15 P9 1.533124 1_555
O15 Zn3 2.050385 1_555
O16 P10 1.533124 1_555
O16 Zn3 2.050385 1_555
O17 P11 1.533124 1_555
O17 Zn3 2.050385 1_555
O18 P11 1.558030 1_555
O19 P9 1.558030 1_555
O20 P10 1.558030 1_555
O21 P7 1.558030 1_555
O22 P8 1.558030 1_555
O23 P6 1.558030 1_555
O24 P12 1.533124 1_555
O24 Zn4 2.050385 1_556
O25 P13 1.533124 1_555
O25 Zn4 2.050385 1_556
O26 P14 1.533124 1_555
O26 Zn4 2.050385 1_556
O27 P15 1.533124 1_555
O27 Zn5 2.050385 1_555
O28 P16 1.533124 1_555
O28 Zn5 2.050385 1_555
O29 P17 1.533124 1_555
O29 Zn5 2.050385 1_555
O30 P17 1.558030 1_555
O31 P15 1.558030 1_555
O32 P16 1.558030 1_555
O33 P13 1.558030 1_555
O34 P14 1.558030 1_555
O35 P12 1.558030 1_555
O36 P17 1.548975 1_555
O36 Zn0 2.233651 1_565
O37 P15 1.548984 1_555
O37 Zn0 2.233651 1_665
O38 P16 1.548980 1_555
O38 Zn0 2.233651 1_555
O39 P13 1.548984 1_555
O39 Zn1 2.233651 1_555
O40 P14 1.548975 1_555
O40 Zn1 2.233651 1_565
O41 P12 1.548980 1_555
O41 Zn1 2.233651 1_665
O42 P6 1.567236 1_555
O43 P7 1.567245 1_555
O44 P8 1.567241 1_555
O45 P9 1.567245 1_555
O46 P10 1.567236 1_555
O47 P11 1.567241 1_555
O48 P5 1.548975 1_555
O48 Zn2 2.233651 1_555
O49 P3 1.548984 1_555
O49 Zn2 2.233651 1_555
O50 P4 1.548980 1_555
O50 Zn2 2.233651 1_555
O51 P1 1.548984 1_555
O51 Zn3 2.233651 1_555
O52 P2 1.548975 1_555
O52 Zn3 2.233651 1_555
O53 P0 1.548980 1_555
O53 Zn3 2.233651 1_555
O54 P12 1.567249 1_555
O55 P13 1.567231 1_655
O56 P14 1.567239 1_545
O57 P15 1.567231 1_545
O58 P16 1.567249 1_555
O59 P17 1.567239 1_655
O60 P11 1.548988 1_555
O60 Zn4 2.233651 1_555
O61 P9 1.548969 1_455
O61 Zn4 2.233651 1_555
O62 P10 1.548977 1_565
O62 Zn4 2.233651 1_555
O63 P7 1.548969 1_565
O63 Zn5 2.233651 1_555
O64 P8 1.548988 1_555
O64 Zn5 2.233651 1_555
O65 P6 1.548977 1_455
O65 Zn5 2.233651 1_555
O66 P0 1.567236 1_565
O67 P1 1.567245 1_555
O68 P2 1.567241 1_455
O69 P3 1.567245 1_555
O70 P4 1.567236 1_455
O71 P5 1.567241 1_565
