# generated using pymatgen
data_MgTe2Mo2W(SeS)2
_symmetry_space_group_name_H-M   'P 1'
_cell_length_a   3.34858101
_cell_length_b   3.34849053
_cell_length_c   37.76878728
_cell_angle_alpha   89.98749361
_cell_angle_beta   90.01043405
_cell_angle_gamma   120.00191141
_symmetry_Int_Tables_number   1
_chemical_formula_structural   MgTe2Mo2W(SeS)2
_chemical_formula_sum   'Mg1 Te2 Mo2 W1 Se2 S2'
_cell_volume   366.74582634
_cell_formula_units_Z   1
loop_
 _symmetry_equiv_pos_site_id
 _symmetry_equiv_pos_as_xyz
  1  'x, y, z'
loop_
 _atom_site_type_symbol
 _atom_site_label
 _atom_site_symmetry_multiplicity
 _atom_site_fract_x
 _atom_site_fract_y
 _atom_site_fract_z
 _atom_site_occupancy
  Mg  Mg0  1  0.99996700  0.00039600  0.44870600  1
  Te  Te0  1  0.66660200  0.33343300  0.53508700  1
  Te  Te1  1  0.66669300  0.33331500  0.63628000  1
  Mo  Mo0  1  0.33330100  0.66657500  0.11562000  1
  Mo  Mo1  1  0.66671100  0.33322900  0.33900100  1
  W  W0  1  0.33331000  0.66668700  0.58587500  1
  Se  Se0  1  0.66658100  0.33330800  0.07152900  1
  Se  Se1  1  0.66666900  0.33318700  0.15971000  1
  S  S0  1  0.33343100  0.66642400  0.37983500  1
  S  S1  1  0.33333600  0.66664300  0.29911400  1
loop_
_geom_bond_atom_site_label_1
_geom_bond_atom_site_label_2
_geom_bond_distance
_geom_bond_site_symmetry_2
Te0 W0 2.723346 1_545
Te0 W0 2.723390 1_655
Te0 W0 2.723507 1_555
Te1 W0 2.713141 1_555
Te1 W0 2.713263 1_655
Te1 W0 2.713333 1_545
Mo0 Se1 2.551495 1_555
Mo0 Se0 2.551513 1_565
Mo0 Se1 2.551593 1_565
Mo0 Se1 2.551598 1_455
Mo0 Se0 2.551603 1_455
Mo0 Se0 2.551644 1_555
Mo1 S1 2.450870 1_545
Mo1 S1 2.450926 1_655
Mo1 S1 2.450950 1_555
Mo1 S0 2.472934 1_555
Mo1 S0 2.473086 1_655
Mo1 S0 2.473162 1_545
