# generated using pymatgen
data_MgMn4(HO2)4
_symmetry_space_group_name_H-M   'P 1'
_cell_length_a   5.11553081
_cell_length_b   6.04421968
_cell_length_c   5.74710658
_cell_angle_alpha   112.71521438
_cell_angle_beta   91.70744118
_cell_angle_gamma   92.82863658
_symmetry_Int_Tables_number   1
_chemical_formula_structural   MgMn4(HO2)4
_chemical_formula_sum   'Mg1 Mn4 H4 O8'
_cell_volume   163.48404781
_cell_formula_units_Z   1
loop_
 _symmetry_equiv_pos_site_id
 _symmetry_equiv_pos_as_xyz
  1  'x, y, z'
loop_
 _atom_site_type_symbol
 _atom_site_label
 _atom_site_symmetry_multiplicity
 _atom_site_fract_x
 _atom_site_fract_y
 _atom_site_fract_z
 _atom_site_occupancy
  Mg  Mg0  1  0.50000000  0.00000000  0.00000000  1
  Mn  Mn0  1  0.53396600  0.25842000  0.71130400  1
  Mn  Mn1  1  0.01181800  0.76597000  0.74831300  1
  Mn  Mn2  1  0.46603300  0.74158000  0.28869600  1
  Mn  Mn3  1  0.98818100  0.23402900  0.25168700  1
  H  H0  1  0.53710200  0.66255600  0.71371400  1
  H  H1  1  0.03908900  0.27784100  0.70878400  1
  H  H2  1  0.46289900  0.33744500  0.28628700  1
  H  H3  1  0.96091200  0.72215900  0.29121700  1
  O  O0  1  0.33920600  0.35819600  0.15982400  1
  O  O1  1  0.85597300  0.64790300  0.38879300  1
  O  O2  1  0.14402800  0.35209700  0.61120800  1
  O  O3  1  0.66079500  0.64180500  0.84017400  1
  O  O4  1  0.66499900  0.11464800  0.34902200  1
  O  O5  1  0.33500000  0.88535200  0.65097700  1
  O  O6  1  0.16963300  0.85745200  0.08959100  1
  O  O7  1  0.83036400  0.14254800  0.91040900  1
loop_
_geom_bond_atom_site_label_1
_geom_bond_atom_site_label_2
_geom_bond_distance
_geom_bond_site_symmetry_2
Mg0 O4 1.996000 1_555
Mg0 O5 1.996007 1_544
Mg0 O7 2.028364 1_554
Mg0 O6 2.028377 1_545
Mg0 O3 2.211905 1_544
Mg0 O0 2.211907 1_555
Mn0 O4 2.069495 1_555
Mn0 O7 2.172366 1_555
Mn0 O3 2.199252 1_555
Mn0 O2 2.219266 1_555
Mn0 O5 2.321514 1_545
Mn0 O0 2.648129 1_556
Mn1 O5 1.953441 1_555
Mn1 O6 1.956639 1_556
Mn1 O1 2.030013 1_455
Mn1 O3 2.072641 1_455
Mn1 O7 2.352161 1_465
Mn1 O2 2.452028 1_555
Mn2 O5 2.069490 1_555
Mn2 O6 2.172373 1_555
Mn2 O0 2.199243 1_555
Mn2 O1 2.219277 1_555
Mn2 O4 2.321515 1_565
Mn2 O3 2.648144 1_554
Mn3 O4 1.953435 1_555
Mn3 O7 1.956643 1_554
Mn3 O2 2.030021 1_655
Mn3 O0 2.072659 1_655
Mn3 O6 2.352151 1_645
Mn3 O1 2.452030 1_555
H0 O3 0.997570 1_555
H0 Mg0 2.090012 1_566
H1 O2 0.996307 1_555
H2 O0 0.997583 1_555
H2 Mg0 2.090018 1_555
H3 O1 0.996307 1_555
