# generated using pymatgen
data_MnSnF6
_symmetry_space_group_name_H-M   'P 1'
_cell_length_a   5.63812447
_cell_length_b   5.63812422
_cell_length_c   5.63812074
_cell_angle_alpha   55.69015986
_cell_angle_beta   55.69018902
_cell_angle_gamma   55.69020139
_symmetry_Int_Tables_number   1
_chemical_formula_structural   MnSnF6
_chemical_formula_sum   'Mn1 Sn1 F6'
_cell_volume   114.06150970
_cell_formula_units_Z   1
loop_
 _symmetry_equiv_pos_site_id
 _symmetry_equiv_pos_as_xyz
  1  'x, y, z'
loop_
 _atom_site_type_symbol
 _atom_site_label
 _atom_site_symmetry_multiplicity
 _atom_site_fract_x
 _atom_site_fract_y
 _atom_site_fract_z
 _atom_site_occupancy
  Mn  Mn0  1  0.50000000  0.50000000  0.50000000  1
  Sn  Sn0  1  -0.00000000  -0.00000000  0.00000000  1
  F  F0  1  0.24138418  0.88424585  0.63185068  1
  F  F1  1  0.88424585  0.63185068  0.24138318  1
  F  F2  1  0.36815032  0.75861782  0.11575315  1
  F  F3  1  0.11575415  0.36814932  0.75861782  1
  F  F4  1  0.75861682  0.11575415  0.36814932  1
  F  F5  1  0.63184968  0.24138318  0.88424685  1
loop_
_geom_bond_atom_site_label_1
_geom_bond_atom_site_label_2
_geom_bond_distance
_geom_bond_site_symmetry_2
F0 Sn0 1.981864 1_566
F0 Mn0 2.098713 1_555
F1 Sn0 1.981864 1_665
F1 Mn0 2.098712 1_555
F2 Sn0 1.981867 1_565
F2 Mn0 2.098712 1_555
F3 Sn0 1.981865 1_556
F3 Mn0 2.098712 1_555
F4 Sn0 1.981864 1_655
F4 Mn0 2.098713 1_555
F5 Sn0 1.981867 1_656
F5 Mn0 2.098712 1_555
