# generated using pymatgen
data_BaVSe3
_symmetry_space_group_name_H-M   'P 1'
_cell_length_a   6.02202300
_cell_length_b   7.02663216
_cell_length_c   7.02663200
_cell_angle_alpha   60.00000075
_cell_angle_beta   90.00000000
_cell_angle_gamma   90.00000000
_symmetry_Int_Tables_number   1
_chemical_formula_structural   BaVSe3
_chemical_formula_sum   'Ba2 V2 Se6'
_cell_volume   257.49421308
_cell_formula_units_Z   2
loop_
 _symmetry_equiv_pos_site_id
 _symmetry_equiv_pos_as_xyz
  1  'x, y, z'
loop_
 _atom_site_type_symbol
 _atom_site_label
 _atom_site_symmetry_multiplicity
 _atom_site_fract_x
 _atom_site_fract_y
 _atom_site_fract_z
 _atom_site_occupancy
  Ba  Ba0  1  0.75000000  0.33333400  0.33333300  1
  Ba  Ba1  1  0.25000000  0.66666600  0.66666700  1
  V  V0  1  0.50000000  0.00000000  0.00000000  1
  V  V1  1  0.00000000  0.00000000  0.00000000  1
  Se  Se0  1  0.75000000  0.33313800  0.83343100  1
  Se  Se1  1  0.25000000  0.16656900  0.16656900  1
  Se  Se2  1  0.75000000  0.83343100  0.83343100  1
  Se  Se3  1  0.25000000  0.66686200  0.16656900  1
  Se  Se4  1  0.25000000  0.16656900  0.66686200  1
  Se  Se5  1  0.75000000  0.83343100  0.33313800  1
loop_
_geom_bond_atom_site_label_1
_geom_bond_atom_site_label_2
_geom_bond_distance
_geom_bond_site_symmetry_2
Ba0 Se5 3.513313 1_555
Ba0 Se2 3.513313 1_554
Ba0 Se0 3.513316 1_555
Ba0 Se0 3.513316 1_554
Ba0 Se2 3.513320 1_545
Ba0 Se5 3.513320 1_545
Ba0 Se3 3.631179 1_555
Ba0 Se3 3.631179 1_655
Ba0 Se1 3.631182 1_655
Ba0 Se1 3.631182 1_555
Ba0 Se4 3.631182 1_655
Ba0 Se4 3.631182 1_555
Ba1 Se1 3.513313 1_556
Ba1 Se4 3.513313 1_555
Ba1 Se3 3.513316 1_556
Ba1 Se3 3.513316 1_555
Ba1 Se4 3.513320 1_565
Ba1 Se1 3.513320 1_565
Ba1 Se0 3.631179 1_555
Ba1 Se0 3.631179 1_455
Ba1 Se2 3.631182 1_455
Ba1 Se2 3.631182 1_555
Ba1 Se5 3.631182 1_455
Ba1 Se5 3.631182 1_555
Se0 V0 2.525112 1_556
Se0 V1 2.525112 1_656
Se1 V0 2.525112 1_555
Se1 V1 2.525112 1_555
Se2 V1 2.525112 1_666
Se2 V0 2.525112 1_566
Se3 V1 2.525112 1_565
Se3 V0 2.525112 1_565
Se4 V1 2.525112 1_556
Se4 V0 2.525112 1_556
Se5 V1 2.525112 1_665
Se5 V0 2.525112 1_565
