# generated using pymatgen
data_Na3YZn3(SO4)6
_symmetry_space_group_name_H-M   'P 1'
_cell_length_a   8.89326186
_cell_length_b   8.89145512
_cell_length_c   23.06263729
_cell_angle_alpha   89.95595743
_cell_angle_beta   90.03818997
_cell_angle_gamma   119.98950255
_symmetry_Int_Tables_number   1
_chemical_formula_structural   Na3YZn3(SO4)6
_chemical_formula_sum   'Na9 Y3 Zn9 S18 O72'
_cell_volume   1579.49879804
_cell_formula_units_Z   3
loop_
 _symmetry_equiv_pos_site_id
 _symmetry_equiv_pos_as_xyz
  1  'x, y, z'
loop_
 _atom_site_type_symbol
 _atom_site_label
 _atom_site_symmetry_multiplicity
 _atom_site_fract_x
 _atom_site_fract_y
 _atom_site_fract_z
 _atom_site_occupancy
  Na  Na0  1  0.63390003  0.99877061  0.24853864  1
  Na  Na1  1  0.36568061  0.36499603  0.24818857  1
  Na  Na2  1  0.02944582  0.69738871  0.58691929  1
  Na  Na3  1  0.99886673  0.01147455  0.49931859  1
  Na  Na4  1  0.99989825  0.99926558  0.99843055  1
  Na  Na5  1  0.66599068  0.33253396  0.82762069  1
  Na  Na6  1  0.68110883  0.34651449  0.33174356  1
  Na  Na7  1  0.32028675  0.66547353  0.15967901  1
  Na  Na8  1  0.34643109  0.66543587  0.66457236  1
  Y  Y0  1  0.66668598  0.33345187  0.98332592  1
  Y  Y1  1  0.66309570  0.32929757  0.48133681  1
  Y  Y2  1  0.33304318  0.66671274  0.81222425  1
  Zn  Zn0  1  0.99982598  0.99624469  0.35026330  1
  Zn  Zn1  1  0.00003609  0.00081575  0.84790406  1
  Zn  Zn2  1  0.99956262  0.00648960  0.65417511  1
  Zn  Zn3  1  0.00007449  0.99626041  0.14932712  1
  Zn  Zn4  1  0.66262342  0.32922917  0.68494142  1
  Zn  Zn5  1  0.67397104  0.33992201  0.17463710  1
  Zn  Zn6  1  0.33271942  0.66676773  0.01515539  1
  Zn  Zn7  1  0.34114683  0.66549634  0.51423312  1
  Zn  Zn8  1  0.32582466  0.66574009  0.32051940  1
  S  S0  1  0.29254410  0.99855678  0.25040387  1
  S  S1  1  0.70795653  0.70555493  0.25050994  1
  S  S2  1  0.99952759  0.29283989  0.25041152  1
  S  S3  1  0.29497059  0.28476024  0.74817214  1
  S  S4  1  0.98987855  0.70472515  0.74684674  1
  S  S5  1  0.71525102  0.00993466  0.74805237  1
  S  S6  1  0.96734966  0.33306706  0.58545942  1
  S  S7  1  0.36514765  0.03161490  0.58591883  1
  S  S8  1  0.66565553  0.63359937  0.58576191  1
  S  S9  1  0.97151141  0.63741805  0.08611929  1
  S  S10  1  0.66601126  0.02847007  0.08761919  1
  S  S11  1  0.36228424  0.33383423  0.08758640  1
  S  S12  1  0.63508363  0.67770056  0.91787115  1
  S  S13  1  0.04239511  0.36467815  0.91784026  1
  S  S14  1  0.32225903  0.95756632  0.91776235  1
  S  S15  1  0.62898950  0.95297065  0.41348916  1
  S  S16  1  0.32423167  0.37100501  0.41355979  1
  S  S17  1  0.04600707  0.67553677  0.41628527  1
  O  O0  1  0.21402414  0.02949888  0.30241031  1
  O  O1  1  0.81097826  0.78376541  0.30341092  1
  O  O2  1  0.96751886  0.18236033  0.30259024  1
  O  O3  1  0.21315496  0.18572095  0.80167238  1
  O  O4  1  0.97342440  0.79070341  0.79924442  1
  O  O5  1  0.81439953  0.02762238  0.80159850  1
  O  O6  1  0.79274909  0.98392475  0.69545791  1
  O  O7  1  0.19239368  0.20668309  0.69547738  1
  O  O8  1  0.01376130  0.80452461  0.69262688  1
  O  O9  1  0.78725529  0.81607272  0.19879255  1
  O  O10  1  0.03138214  0.21356849  0.19857790  1
  O  O11  1  0.18882113  0.97418314  0.19775024  1
  O  O12  1  0.88260395  0.36438285  0.63572043  1
  O  O13  1  0.47491370  0.11642270  0.63674765  1
  O  O14  1  0.64022004  0.52365990  0.63689250  1
  O  O15  1  0.88974388  0.52894235  0.13840071  1
  O  O16  1  0.64109188  0.10921918  0.14138649  1
  O  O17  1  0.46748672  0.35787765  0.14141214  1
  O  O18  1  0.44932676  0.30975824  0.03637972  1
  O  O19  1  0.86346554  0.55483264  0.03381457  1
  O  O20  1  0.69057778  0.13991328  0.03638541  1
  O  O21  1  0.44334465  0.13470666  0.53240218  1
  O  O22  1  0.69601761  0.55350825  0.53296449  1
  O  O23  1  0.86249822  0.30774331  0.53194074  1
  O  O24  1  0.54967099  0.69495110  0.97038480  1
  O  O25  1  0.14520167  0.45018687  0.97034174  1
  O  O26  1  0.30511988  0.85498901  0.97033197  1
  O  O27  1  0.54290475  0.85078946  0.46601262  1
  O  O28  1  0.30653960  0.45641621  0.46602042  1
  O  O29  1  0.14250593  0.69220572  0.47098484  1
  O  O30  1  0.12705807  0.65005367  0.36451881  1
  O  O31  1  0.52880825  0.87668395  0.35937485  1
  O  O32  1  0.34974825  0.47203113  0.35946269  1
  O  O33  1  0.12159994  0.47028625  0.86521372  1
  O  O34  1  0.34856888  0.87832698  0.86517596  1
  O  O35  1  0.52955319  0.65148221  0.86522248  1
  O  O36  1  0.02829117  0.83258472  0.41139267  1
  O  O37  1  0.80445730  0.97211141  0.41030488  1
  O  O38  1  0.16766690  0.19583966  0.41007474  1
  O  O39  1  0.02543042  0.19117287  0.91249227  1
  O  O40  1  0.16569648  0.97448372  0.91229976  1
  O  O41  1  0.80880742  0.83390957  0.91240805  1
  O  O42  1  0.98793023  0.17922031  0.59111080  1
  O  O43  1  0.18727724  0.00873665  0.59062955  1
  O  O44  1  0.82684181  0.80684910  0.59064607  1
  O  O45  1  0.98690887  0.81076399  0.09138058  1
  O  O46  1  0.82393011  0.01318059  0.09219031  1
  O  O47  1  0.18889061  0.17612769  0.09200944  1
  O  O48  1  0.69648742  0.16692897  0.74391026  1
  O  O49  1  0.47101966  0.30420677  0.74427985  1
  O  O50  1  0.83345929  0.52890011  0.74351001  1
  O  O51  1  0.68113539  0.52606576  0.24422977  1
  O  O52  1  0.84014236  0.30829478  0.24360398  1
  O  O53  1  0.47125197  0.15918943  0.24506262  1
  O  O54  1  0.65306132  0.51920889  0.92178330  1
  O  O55  1  0.86576141  0.34615690  0.92173391  1
  O  O56  1  0.48054039  0.13407097  0.92170878  1
  O  O57  1  0.64712925  0.12988949  0.41793082  1
  O  O58  1  0.48300209  0.35311458  0.41831158  1
  O  O59  1  0.86821275  0.51723575  0.41954015  1
  O  O60  1  0.34850486  0.49242289  0.08085862  1
  O  O61  1  0.14471065  0.65263874  0.07956698  1
  O  O62  1  0.50753932  0.85623158  0.08080563  1
  O  O63  1  0.34432356  0.85392406  0.57962091  1
  O  O64  1  0.50970409  0.65168880  0.57818428  1
  O  O65  1  0.14004152  0.49674173  0.57867157  1
  O  O66  1  0.31925124  0.84571635  0.25637507  1
  O  O67  1  0.52921330  0.68759911  0.25556533  1
  O  O68  1  0.15912926  0.46764603  0.25692873  1
  O  O69  1  0.31504353  0.46277567  0.75172789  1
  O  O70  1  0.14823436  0.68594265  0.75094878  1
  O  O71  1  0.53723421  0.85225088  0.75170966  1
loop_
_geom_bond_atom_site_label_1
_geom_bond_atom_site_label_2
_geom_bond_distance
_geom_bond_site_symmetry_2
Na0 O52 2.429987 1_565
Na0 O66 2.430700 1_555
Na0 O67 2.443867 1_555
Na0 O53 2.489056 1_565
Na0 O16 2.647467 1_565
Na0 O31 2.751471 1_555
Na0 O9 2.834577 1_555
Na0 O2 2.859718 1_565
Na1 O51 2.431751 1_555
Na1 O68 2.434078 1_555
Na1 O53 2.439898 1_555
Na1 O67 2.490367 1_555
Na1 O17 2.635975 1_555
Na1 O32 2.765974 1_555
Na1 O10 2.820794 1_555
Na1 O0 2.873308 1_555
Na2 O43 2.399355 1_565
Na2 O63 2.431280 1_555
Na2 O65 2.437478 1_555
Na2 O44 2.440197 1_455
Na2 O8 2.647090 1_555
Na2 O12 2.805436 1_455
Na2 O22 2.860603 1_455
Na2 O29 2.865686 1_555
Na3 O38 2.591489 1_655
Na3 O37 2.591817 1_545
Na3 O42 2.620259 1_555
Na3 O36 2.670618 1_645
Na3 O43 2.697937 1_655
Na3 O44 2.702386 1_545
Na4 O41 2.547109 1_555
Na4 O40 2.549085 1_655
Na4 O39 2.549391 1_665
Na4 O45 2.686836 1_556
Na4 O47 2.704394 1_666
Na4 O46 2.708975 1_566
Na5 O49 2.514751 1_555
Na5 O48 2.524515 1_555
Na5 O50 2.535463 1_555
Na5 O56 2.762606 1_555
Na5 O55 2.768073 1_555
Na5 O54 2.771439 1_555
Na6 O51 2.572338 1_555
Na6 O59 2.578388 1_555
Na6 O52 2.594835 1_555
Na6 O53 2.673257 1_555
Na6 O57 2.676798 1_555
Na6 O58 2.683584 1_555
Na7 O61 2.383921 1_555
Na7 O60 2.475040 1_555
Na7 O62 2.476797 1_555
Na7 O66 2.749900 1_555
Na7 O68 2.767027 1_555
Na7 O67 2.830378 1_555
Na8 O64 2.504874 1_555
Na8 O63 2.583388 1_555
Na8 O65 2.605961 1_555
Na8 O69 2.618686 1_555
Na8 O71 2.619142 1_555
Na8 O70 2.726705 1_555
O0 S0 1.481744 1_545
O0 Zn0 2.091256 1_445
O1 S1 1.474579 1_555
O1 Zn0 2.094336 1_555
O2 S2 1.487687 1_555
O2 Zn0 2.121782 1_545
O3 S3 1.478605 1_555
O3 Zn1 2.077739 1_555
O4 S4 1.476352 1_555
O4 Zn1 2.089604 1_665
O5 S5 1.479005 1_555
O5 Zn1 2.076880 1_655
O6 S5 1.469922 1_565
O6 Zn2 1.990653 1_565
O7 S3 1.468931 1_555
O7 Zn2 1.991358 1_455
O8 S4 1.485393 1_455
O8 Zn2 2.061846 1_465
O9 S1 1.480587 1_555
O9 Zn3 2.102178 1_655
O10 S2 1.485745 1_455
O10 Zn3 2.136861 1_545
O11 S0 1.473608 1_555
O11 Zn3 2.104725 1_555
O12 S6 1.483449 1_555
O12 Zn4 2.145857 1_555
O13 S7 1.469580 1_555
O13 Zn4 2.108426 1_555
O14 S8 1.474713 1_555
O14 Zn4 2.144155 1_555
O15 S9 1.486985 1_555
O15 Zn5 1.995306 1_555
O16 S10 1.504341 1_555
O16 Zn5 2.069741 1_555
O17 S11 1.503639 1_555
O17 Zn5 2.067781 1_555
O18 S11 1.485590 1_555
O18 Y0 2.207657 1_554
O19 S9 1.487306 1_555
O19 Y0 2.202304 1_554
O20 S10 1.485891 1_555
O20 Y0 2.205854 1_554
O21 S7 1.486381 1_555
O21 Y1 2.195346 1_555
O22 S8 1.502231 1_555
O22 Y1 2.213004 1_555
O23 S6 1.494207 1_555
O23 Y1 2.209103 1_555
O24 S12 1.478265 1_555
O24 Zn6 2.090560 1_556
O25 S13 1.478206 1_555
O25 Zn6 2.085177 1_556
O26 S14 1.478026 1_555
O26 Zn6 2.082626 1_556
O27 S15 1.477524 1_555
O27 Zn7 2.053095 1_555
O28 S16 1.478654 1_555
O28 Zn7 2.053728 1_555
O29 S17 1.490493 1_555
O29 Zn7 2.142122 1_555
O30 S17 1.470056 1_555
O30 Zn8 1.982313 1_555
O31 S15 1.485631 1_555
O31 Zn8 2.048237 1_555
O32 S16 1.486547 1_555
O32 Zn8 2.045022 1_555
O33 S13 1.479580 1_555
O33 Y2 2.190071 1_555
O34 S14 1.479348 1_555
O34 Y2 2.189581 1_555
O35 S12 1.479753 1_555
O35 Y2 2.190879 1_555
O36 S17 1.485636 1_555
O36 Zn0 2.129271 1_455
O37 S15 1.484621 1_555
O37 Zn0 2.147630 1_555
O38 S16 1.484262 1_555
O38 Zn0 2.152480 1_445
O39 S13 1.478355 1_555
O39 Zn1 2.180796 1_555
O40 S14 1.478597 1_555
O40 Zn1 2.184563 1_565
O41 S12 1.478765 1_555
O41 Zn1 2.187367 1_665
O42 S6 1.473662 1_555
O42 Zn2 2.154072 1_555
O43 S7 1.494638 1_555
O43 Zn2 2.214707 1_455
O44 S8 1.494344 1_555
O44 Zn2 2.220878 1_565
O45 S9 1.482683 1_555
O45 Zn3 2.080890 1_655
O46 S10 1.480749 1_555
O46 Zn3 2.108433 1_645
O47 S11 1.480854 1_555
O47 Zn3 2.107097 1_545
O48 S5 1.489350 1_555
O48 Zn4 2.110363 1_555
O49 S3 1.489548 1_555
O49 Zn4 2.109384 1_555
O50 S4 1.486962 1_555
O50 Zn4 2.142239 1_555
O51 S1 1.498197 1_555
O51 Zn5 2.284273 1_555
O52 S2 1.499033 1_555
O52 Zn5 2.281334 1_555
O53 S0 1.520442 1_545
O53 Zn5 2.360996 1_555
O54 S12 1.498208 1_555
O54 Y0 2.225617 1_555
O55 S13 1.498102 1_655
O55 Y0 2.228924 1_555
O56 S14 1.498105 1_545
O56 Y0 2.229255 1_555
O57 S15 1.502528 1_545
O57 Y1 2.248148 1_555
O58 S16 1.501774 1_555
O58 Y1 2.249058 1_555
O59 S17 1.504005 1_655
O59 Y1 2.259125 1_555
O60 S11 1.483175 1_555
O60 Zn6 2.220928 1_555
O61 S9 1.485120 1_455
O61 Zn6 2.193435 1_555
O62 S10 1.482798 1_565
O62 Zn6 2.220356 1_555
O63 S7 1.503126 1_565
O63 Zn7 2.244632 1_555
O64 S8 1.484111 1_555
O64 Zn7 2.148993 1_555
O65 S6 1.505561 1_455
O65 Zn7 2.230704 1_555
O66 S0 1.498175 1_555
O66 Zn8 2.200551 1_555
O67 S1 1.520676 1_555
O67 Zn8 2.281503 1_555
O68 S2 1.499226 1_455
O68 Zn8 2.200371 1_555
O69 S3 1.503866 1_555
O69 Y2 2.230177 1_555
O70 S4 1.501687 1_455
O70 Y2 2.237191 1_555
O71 S5 1.503414 1_565
O71 Y2 2.229782 1_555
