# generated using pymatgen
data_NaZrGe(PO4)3
_symmetry_space_group_name_H-M   'P 1'
_cell_length_a   8.63285835
_cell_length_b   8.63285808
_cell_length_c   22.46068199
_cell_angle_alpha   90.00000000
_cell_angle_beta   90.00000000
_cell_angle_gamma   120.00000099
_symmetry_Int_Tables_number   1
_chemical_formula_structural   NaZrGe(PO4)3
_chemical_formula_sum   'Na6 Zr6 Ge6 P18 O72'
_cell_volume   1449.64874077
_cell_formula_units_Z   6
loop_
 _symmetry_equiv_pos_site_id
 _symmetry_equiv_pos_as_xyz
  1  'x, y, z'
loop_
 _atom_site_type_symbol
 _atom_site_label
 _atom_site_symmetry_multiplicity
 _atom_site_fract_x
 _atom_site_fract_y
 _atom_site_fract_z
 _atom_site_occupancy
  Na  Na0  1  -0.00000000  0.00000000  0.49802481  1
  Na  Na1  1  -0.00000000  0.00000000  0.99623198  1
  Na  Na2  1  0.66666700  0.33333300  0.83745562  1
  Na  Na3  1  0.66666700  0.33333300  0.33044863  1
  Na  Na4  1  0.33333300  0.66666700  0.16301671  1
  Na  Na5  1  0.33333300  0.66666700  0.66933174  1
  Zr  Zr0  1  -0.00000000  0.00000000  0.65097559  1
  Zr  Zr1  1  -0.00000000  0.00000000  0.13994163  1
  Zr  Zr2  1  0.66666700  0.33333300  0.69295430  1
  Zr  Zr3  1  0.66666700  0.33333300  0.47771774  1
  Zr  Zr4  1  0.33333300  0.66666700  0.51670753  1
  Zr  Zr5  1  0.33333300  0.66666700  0.30952988  1
  Ge  Ge0  1  -0.00000000  0.00000000  0.34874439  1
  Ge  Ge1  1  -0.00000000  0.00000000  0.85618001  1
  Ge  Ge2  1  0.66666700  0.33333300  0.18421295  1
  Ge  Ge3  1  0.66666700  0.33333300  0.97846587  1
  Ge  Ge4  1  0.33333300  0.66666700  0.01777003  1
  Ge  Ge5  1  0.33333300  0.66666700  0.81888666  1
  P  P0  1  0.29594704  0.01540288  0.24833247  1
  P  P1  1  0.71945583  0.70405296  0.24833247  1
  P  P2  1  0.98459712  0.28054417  0.24833247  1
  P  P3  1  0.28332282  0.29614255  0.75855398  1
  P  P4  1  0.01281973  0.71667718  0.75855398  1
  P  P5  1  0.70385745  0.98718027  0.75855398  1
  P  P6  1  0.96025755  0.33384139  0.58446234  1
  P  P7  1  0.37358484  0.03974245  0.58446234  1
  P  P8  1  0.66615861  0.62641516  0.58446234  1
  P  P9  1  0.95223631  0.60440310  0.07949419  1
  P  P10  1  0.65216779  0.04776369  0.07949419  1
  P  P11  1  0.39559690  0.34783221  0.07949419  1
  P  P12  1  0.62057603  0.66700283  0.91786918  1
  P  P13  1  0.04642580  0.37942397  0.91786918  1
  P  P14  1  0.33299717  0.95357420  0.91786918  1
  P  P15  1  0.64127058  0.96045529  0.41273192  1
  P  P16  1  0.31918371  0.35872942  0.41273192  1
  P  P17  1  0.03954471  0.68081629  0.41273192  1
  O  O0  1  0.20858031  0.04327338  0.30513383  1
  O  O1  1  0.83469307  0.79141969  0.30513383  1
  O  O2  1  0.95672662  0.16530693  0.30513383  1
  O  O3  1  0.19444745  0.17052520  0.81230389  1
  O  O4  1  0.97607775  0.80555255  0.81230389  1
  O  O5  1  0.82947480  0.02392225  0.81230389  1
  O  O6  1  0.78109825  0.95740397  0.70072486  1
  O  O7  1  0.17630573  0.21890175  0.70072486  1
  O  O8  1  0.04259603  0.82369427  0.70072486  1
  O  O9  1  0.80044363  0.81859563  0.19308683  1
  O  O10  1  0.01815200  0.19955637  0.19308683  1
  O  O11  1  0.18140437  0.98184800  0.19308683  1
  O  O12  1  0.87143794  0.35579443  0.64047092  1
  O  O13  1  0.48435749  0.12856206  0.64047092  1
  O  O14  1  0.64420557  0.51564251  0.64047092  1
  O  O15  1  0.87201221  0.49371284  0.13739977  1
  O  O16  1  0.62170164  0.12798779  0.13739977  1
  O  O17  1  0.50628716  0.37829836  0.13739977  1
  O  O18  1  0.47493383  0.31025786  0.02365712  1
  O  O19  1  0.83532503  0.52506617  0.02365712  1
  O  O20  1  0.68974214  0.16467497  0.02365712  1
  O  O21  1  0.45949532  0.14874023  0.52813140  1
  O  O22  1  0.68924591  0.54050468  0.52813140  1
  O  O23  1  0.85125977  0.31075409  0.52813140  1
  O  O24  1  0.53883434  0.70514016  0.97328685  1
  O  O25  1  0.16630482  0.46116566  0.97328685  1
  O  O26  1  0.29485984  0.83369518  0.97328685  1
  O  O27  1  0.55681722  0.84938124  0.46948276  1
  O  O28  1  0.29256302  0.44318278  0.46948276  1
  O  O29  1  0.15061876  0.70743698  0.46948276  1
  O  O30  1  0.12710491  0.64735824  0.35911208  1
  O  O31  1  0.52025233  0.87289509  0.35911208  1
  O  O32  1  0.35264176  0.47974767  0.35911208  1
  O  O33  1  0.12772409  0.49883742  0.86237863  1
  O  O34  1  0.37111234  0.87227591  0.86237863  1
  O  O35  1  0.50116258  0.62888766  0.86237863  1
  O  O36  1  0.02758254  0.85107554  0.40511616  1
  O  O37  1  0.82349301  0.97241746  0.40511616  1
  O  O38  1  0.14892446  0.17650699  0.40511616  1
  O  O39  1  0.02552943  0.18994616  0.91078096  1
  O  O40  1  0.16441673  0.97447057  0.91078096  1
  O  O41  1  0.81005384  0.83558327  0.91078096  1
  O  O42  1  0.97826463  0.16760199  0.58894239  1
  O  O43  1  0.18933736  0.02173537  0.58894239  1
  O  O44  1  0.83239801  0.81066264  0.58894239  1
  O  O45  1  0.97384090  0.79172168  0.08480939  1
  O  O46  1  0.81788078  0.02615910  0.08480939  1
  O  O47  1  0.20827832  0.18211922  0.08480939  1
  O  O48  1  0.68451177  0.15376782  0.75233751  1
  O  O49  1  0.46925705  0.31548823  0.75233751  1
  O  O50  1  0.84623218  0.53074295  0.75233751  1
  O  O51  1  0.70494062  0.51877931  0.24137517  1
  O  O52  1  0.81383968  0.29505938  0.24137517  1
  O  O53  1  0.48122069  0.18616032  0.24137517  1
  O  O54  1  0.64111260  0.49754630  0.92438734  1
  O  O55  1  0.85643471  0.35888740  0.92438734  1
  O  O56  1  0.50245370  0.14356529  0.92438734  1
  O  O57  1  0.66310908  0.14665462  0.41826391  1
  O  O58  1  0.48354653  0.33689092  0.41826391  1
  O  O59  1  0.85334538  0.51645347  0.41826391  1
  O  O60  1  0.37655069  0.51737576  0.07314409  1
  O  O61  1  0.14082407  0.62344931  0.07314409  1
  O  O62  1  0.48262424  0.85917593  0.07314409  1
  O  O63  1  0.35666508  0.85539585  0.57978125  1
  O  O64  1  0.49872977  0.64333492  0.57978125  1
  O  O65  1  0.14460415  0.50127023  0.57978125  1
  O  O66  1  0.31893956  0.85141841  0.25373073  1
  O  O67  1  0.53247784  0.68106044  0.25373073  1
  O  O68  1  0.14858159  0.46752216  0.25373073  1
  O  O69  1  0.30018245  0.48223535  0.76518604  1
  O  O70  1  0.18205190  0.69981755  0.76518604  1
  O  O71  1  0.51776465  0.81794810  0.76518604  1
loop_
_geom_bond_atom_site_label_1
_geom_bond_atom_site_label_2
_geom_bond_distance
_geom_bond_site_symmetry_2
Na0 O38 2.523967 1_555
Na0 O37 2.523967 1_445
Na0 O36 2.523967 1_545
Na0 O44 2.563245 1_445
Na0 O42 2.563245 1_455
Na0 O43 2.563245 1_555
Na1 O39 2.461650 1_555
Na1 O41 2.461650 1_445
Na1 O40 2.461650 1_545
Na1 O45 2.614581 1_446
Na1 O47 2.614581 1_556
Na1 O46 2.614581 1_456
Na2 O54 2.486668 1_555
Na2 O56 2.486668 1_555
Na2 O55 2.486668 1_555
Na2 O50 2.514071 1_555
Na2 O48 2.514071 1_555
Na2 O49 2.514071 1_555
Na3 O52 2.479071 1_555
Na3 O53 2.479071 1_555
Na3 O51 2.479071 1_555
Na3 O57 2.537503 1_555
Na3 O59 2.537503 1_555
Na3 O58 2.537503 1_555
Na4 O62 2.521075 1_555
Na4 O60 2.521075 1_555
Na4 O61 2.521075 1_555
Na4 O68 2.628466 1_555
Na4 O67 2.628466 1_555
Na4 O66 2.628466 1_555
Na5 O63 2.532293 1_555
Na5 O65 2.532293 1_555
Na5 O64 2.532293 1_555
Na5 O69 2.607003 1_555
Na5 O71 2.607003 1_555
Na5 O70 2.607003 1_555
Ge0 O38 1.902326 1_555
Ge0 O37 1.902326 1_445
Ge0 O36 1.902326 1_545
Ge0 O1 1.915377 1_445
Ge0 O2 1.915377 1_455
Ge0 O0 1.915377 1_555
Ge1 O4 1.866813 1_445
Ge1 O3 1.866813 1_555
Ge1 O5 1.866813 1_455
Ge1 O39 1.969783 1_555
Ge1 O41 1.969783 1_445
Ge1 O40 1.969783 1_545
Ge2 O17 1.926300 1_555
Ge2 O15 1.926300 1_555
Ge2 O16 1.926300 1_555
Ge2 O52 1.947202 1_555
Ge2 O53 1.947202 1_555
Ge2 O51 1.947202 1_555
Ge3 O19 1.865460 1_556
Ge3 O20 1.865460 1_556
Ge3 O18 1.865460 1_556
Ge3 O54 1.961233 1_555
Ge3 O56 1.961233 1_555
Ge3 O55 1.961233 1_555
Ge4 O25 1.914846 1_554
Ge4 O26 1.914846 1_554
Ge4 O24 1.914846 1_554
Ge4 O62 1.956518 1_555
Ge4 O60 1.956518 1_555
Ge4 O61 1.956518 1_555
Ge5 O69 1.901595 1_555
Ge5 O71 1.901595 1_555
Ge5 O70 1.901595 1_555
Ge5 O34 1.905865 1_555
Ge5 O33 1.905865 1_555
Ge5 O35 1.905865 1_555
O0 P0 1.560728 1_555
O1 P1 1.560728 1_555
O2 P2 1.560728 1_555
O3 P3 1.546000 1_555
O4 P4 1.546000 1_655
O5 P5 1.546000 1_545
O6 P5 1.539224 1_555
O6 Zr0 2.063989 1_665
O7 P3 1.539224 1_555
O7 Zr0 2.063989 1_555
O8 P4 1.539224 1_555
O8 Zr0 2.063989 1_565
O9 P1 1.521505 1_555
O9 Zr1 2.036492 1_665
O10 P2 1.521505 1_455
O10 Zr1 2.036492 1_555
O11 P0 1.521505 1_565
O11 Zr1 2.036492 1_565
O12 P6 1.533527 1_555
O12 Zr2 2.051680 1_555
O13 P7 1.533527 1_555
O13 Zr2 2.051680 1_555
O14 P8 1.533527 1_555
O14 Zr2 2.051680 1_555
O15 P9 1.556447 1_555
O16 P10 1.556447 1_555
O17 P11 1.556447 1_555
O18 P11 1.539267 1_555
O19 P9 1.539267 1_555
O20 P10 1.539267 1_555
O21 P7 1.529183 1_555
O21 Zr3 2.042111 1_555
O22 P8 1.529183 1_555
O22 Zr3 2.042111 1_555
O23 P6 1.529183 1_555
O23 Zr3 2.042111 1_555
O24 P12 1.545319 1_555
O25 P13 1.545319 1_555
O26 P14 1.545319 1_555
O27 P15 1.541648 1_555
O27 Zr4 2.071750 1_555
O28 P16 1.541648 1_555
O28 Zr4 2.071750 1_555
O29 P17 1.541648 1_555
O29 Zr4 2.071750 1_555
O30 P17 1.524325 1_555
O30 Zr5 2.034906 1_555
O31 P15 1.524325 1_555
O31 Zr5 2.034906 1_555
O32 P16 1.524325 1_555
O32 Zr5 2.034906 1_555
O33 P13 1.544403 1_555
O34 P14 1.544403 1_555
O35 P12 1.544403 1_555
O36 P17 1.533653 1_555
O37 P15 1.533662 1_555
O38 P16 1.533658 1_555
O39 P13 1.561550 1_555
O40 P14 1.561542 1_555
O41 P12 1.561547 1_555
O42 P6 1.522155 1_555
O42 Zr0 2.083622 1_655
O43 P7 1.522164 1_555
O43 Zr0 2.083622 1_555
O44 P8 1.522160 1_555
O44 Zr0 2.083622 1_665
O45 P9 1.537020 1_555
O45 Zr1 2.100308 1_665
O46 P10 1.537011 1_555
O46 Zr1 2.100308 1_655
O47 P11 1.537016 1_555
O47 Zr1 2.100308 1_555
O48 P5 1.534853 1_545
O48 Zr2 2.108204 1_555
O49 P3 1.534862 1_555
O49 Zr2 2.108204 1_555
O50 P4 1.534858 1_655
O50 Zr2 2.108204 1_555
O51 P1 1.548519 1_555
O52 P2 1.548510 1_555
O53 P0 1.548515 1_555
O54 P12 1.565976 1_555
O55 P13 1.565959 1_655
O56 P14 1.565966 1_545
O57 P15 1.527015 1_545
O57 Zr3 2.081302 1_555
O58 P16 1.527032 1_555
O58 Zr3 2.081302 1_555
O59 P17 1.527021 1_655
O59 Zr3 2.081302 1_555
O60 P11 1.558940 1_555
O61 P9 1.558923 1_455
O62 P10 1.558930 1_565
O63 P7 1.527288 1_565
O63 Zr4 2.091386 1_555
O64 P8 1.527306 1_555
O64 Zr4 2.091386 1_555
O65 P6 1.527296 1_455
O65 Zr4 2.091386 1_555
O66 P0 1.529436 1_565
O66 Zr5 2.080423 1_555
O67 P1 1.529444 1_555
O67 Zr5 2.080423 1_555
O68 P2 1.529441 1_455
O68 Zr5 2.080423 1_555
O69 P3 1.546103 1_555
O70 P4 1.546094 1_555
O71 P5 1.546099 1_555
