# generated using pymatgen
data_MgMn5CuO12
_symmetry_space_group_name_H-M   'P 1'
_cell_length_a   5.06506347
_cell_length_b   5.07064838
_cell_length_c   9.93919420
_cell_angle_alpha   94.08326388
_cell_angle_beta   97.25204594
_cell_angle_gamma   61.02815353
_symmetry_Int_Tables_number   1
_chemical_formula_structural   MgMn5CuO12
_chemical_formula_sum   'Mg1 Mn5 Cu1 O12'
_cell_volume   221.52345993
_cell_formula_units_Z   1
loop_
 _symmetry_equiv_pos_site_id
 _symmetry_equiv_pos_as_xyz
  1  'x, y, z'
loop_
 _atom_site_type_symbol
 _atom_site_label
 _atom_site_symmetry_multiplicity
 _atom_site_fract_x
 _atom_site_fract_y
 _atom_site_fract_z
 _atom_site_occupancy
  Mg  Mg0  1  0.74651095  0.67064404  0.25184576  1
  Mn  Mn0  1  0.16165026  0.65454913  0.50305844  1
  Mn  Mn1  1  0.67471261  0.66429687  0.98032219  1
  Mn  Mn2  1  0.34596056  0.33118140  0.00180247  1
  Mn  Mn3  1  0.83033901  0.32289269  0.50292455  1
  Mn  Mn4  1  0.49709825  0.99053318  0.51296918  1
  Cu  Cu0  1  0.01334322  0.99831529  0.00362965  1
  O  O0  1  0.01972443  0.65532180  0.10118535  1
  O  O1  1  0.31961621  0.65156641  0.89864654  1
  O  O2  1  0.09346728  0.36158450  0.38926851  1
  O  O3  1  0.48414187  0.65411367  0.40078467  1
  O  O4  1  0.51429430  0.33753956  0.59889307  1
  O  O5  1  0.17266360  0.99542245  0.59882516  1
  O  O6  1  0.89310170  0.61849552  0.60715321  1
  O  O7  1  0.69041170  0.36499954  0.10160550  1
  O  O8  1  0.40368216  0.98007545  0.10215495  1
  O  O9  1  0.99933906  0.32719435  0.89907539  1
  O  O10  1  0.64254438  0.00998056  0.89833333  1
  O  O11  1  0.80364746  0.97379359  0.40064709  1
loop_
_geom_bond_atom_site_label_1
_geom_bond_atom_site_label_2
_geom_bond_distance
_geom_bond_site_symmetry_2
Mg0 O2 2.107288 1_655
Mg0 O0 2.136783 1_655
Mg0 O3 2.141652 1_555
Mg0 O11 2.152464 1_555
Mg0 O7 2.168507 1_555
Mg0 O8 2.175185 1_555
Mn0 O6 1.891343 1_455
Mn0 O4 1.920573 1_555
Mn0 O5 1.934517 1_555
Mn0 O2 1.940175 1_555
Mn0 O11 1.967140 1_455
Mn0 O3 2.028998 1_555
Mn1 O1 1.906429 1_555
Mn1 O10 1.912142 1_565
Mn1 O9 1.921810 1_555
Mn1 O7 1.970301 1_556
Mn1 O0 1.974760 1_656
Mn1 O8 1.982130 1_556
Mn2 O1 1.923766 1_554
Mn2 O9 1.924609 1_454
Mn2 O10 1.936025 1_554
Mn2 O7 1.971275 1_555
Mn2 O8 1.981147 1_545
Mn2 O0 1.989326 1_555
Mn3 O6 1.891633 1_555
Mn3 O5 1.921231 1_645
Mn3 O4 1.933416 1_555
Mn3 O2 1.937996 1_655
Mn3 O3 1.966342 1_555
Mn3 O11 2.031256 1_545
Mn4 O5 1.934097 1_555
Mn4 O4 1.936136 1_565
Mn4 O11 1.990187 1_555
Mn4 O3 1.994156 1_555
Mn4 O6 2.137768 1_555
Mn4 O2 2.280284 1_565
Cu0 O9 1.994874 1_464
Cu0 O10 2.007753 1_464
Cu0 O1 2.022810 1_554
Cu0 O0 2.035638 1_555
Cu0 O8 2.055079 1_555
Cu0 O7 2.068537 1_465
