# generated using pymatgen
data_Li4Ge9O20
_symmetry_space_group_name_H-M   'P 1'
_cell_length_a   7.35068750
_cell_length_b   7.35068750
_cell_length_c   7.51517910
_cell_angle_alpha   89.58955867
_cell_angle_beta   89.58955867
_cell_angle_gamma   65.28496206
_symmetry_Int_Tables_number   1
_chemical_formula_structural   Li4Ge9O20
_chemical_formula_sum   'Li4 Ge9 O20'
_cell_volume   368.85521996
_cell_formula_units_Z   1
loop_
 _symmetry_equiv_pos_site_id
 _symmetry_equiv_pos_as_xyz
  1  'x, y, z'
loop_
 _atom_site_type_symbol
 _atom_site_label
 _atom_site_symmetry_multiplicity
 _atom_site_fract_x
 _atom_site_fract_y
 _atom_site_fract_z
 _atom_site_occupancy
  Li  Li0  1  0.32610066  0.06631073  0.37823773  1
  Li  Li1  1  0.93368927  0.67389934  0.62176227  1
  Li  Li2  1  0.33361309  0.66638691  -0.00000000  1
  Li  Li3  1  0.71976161  0.28023839  -0.00000000  1
  Ge  Ge0  1  0.34271207  0.35167723  0.70731971  1
  Ge  Ge1  1  0.64832277  0.65728793  0.29268029  1
  Ge  Ge2  1  0.60530634  0.92051271  0.95168061  1
  Ge  Ge3  1  0.07948729  0.39469366  0.04831939  1
  Ge  Ge4  1  0.11702462  0.07961994  0.75982586  1
  Ge  Ge5  1  0.92038006  0.88297538  0.24017414  1
  Ge  Ge6  1  0.51617933  0.67487942  0.66833194  1
  Ge  Ge7  1  0.32512058  0.48382067  0.33166806  1
  Ge  Ge8  1  0.76773280  0.23226720  0.50000000  1
  O  O0  1  0.21624681  0.56096235  0.54359451  1
  O  O1  1  0.43903765  0.78375319  0.45640549  1
  O  O2  1  0.14665686  0.50872514  0.86975207  1
  O  O3  1  0.49127486  0.85334314  0.13024793  1
  O  O4  1  0.44566664  0.15758287  0.87872773  1
  O  O5  1  0.92418393  0.10709934  0.32043795  1
  O  O6  1  0.89290066  0.07581607  0.67956205  1
  O  O7  1  0.52499603  0.45868770  0.78400677  1
  O  O8  1  0.54131230  0.47500397  0.21599323  1
  O  O9  1  0.16145521  0.70325079  0.19972402  1
  O  O10  1  0.29674921  0.83854479  0.80027598  1
  O  O11  1  0.80424244  0.97144063  0.03345064  1
  O  O12  1  0.02855937  0.19575756  0.96654936  1
  O  O13  1  0.52142059  0.24414008  0.49429483  1
  O  O14  1  0.75585992  0.47857941  0.50570517  1
  O  O15  1  0.78760189  0.80094315  0.38939706  1
  O  O16  1  0.19905685  0.21239811  0.61060294  1
  O  O17  1  0.24987688  0.30764671  0.22794121  1
  O  O18  1  0.69235329  0.75012312  0.77205879  1
  O  O19  1  0.84241713  0.55433336  0.12127227  1
loop_
_geom_bond_atom_site_label_1
_geom_bond_atom_site_label_2
_geom_bond_distance
_geom_bond_site_symmetry_2
Li0 O17 1.971279 1_555
Li0 O1 1.973787 1_545
Li0 O16 2.059032 1_555
Li0 O3 2.412082 1_545
Li0 O13 2.476767 1_555
Li1 O18 1.971279 1_555
Li1 O0 1.973787 1_655
Li1 O15 2.059032 1_555
Li1 O2 2.412082 1_655
Li1 O14 2.476767 1_555
Li2 O10 1.902529 1_554
Li2 O9 1.902529 1_555
Li2 O7 2.269720 1_554
Li2 O8 2.269720 1_555
Li2 O3 2.357356 1_555
Li2 O2 2.357356 1_554
Li3 O12 2.101552 1_654
Li3 O11 2.101552 1_545
Li3 O7 2.199449 1_554
Li3 O8 2.199449 1_555
Ge0 O4 1.830954 1_555
Ge0 O2 1.871760 1_555
Ge0 O0 1.881000 1_555
Ge0 O16 1.901895 1_555
Ge0 O7 1.909228 1_555
Ge0 O13 2.008259 1_555
Ge1 O19 1.830954 1_555
Ge1 O3 1.871760 1_555
Ge1 O1 1.881000 1_555
Ge1 O15 1.901895 1_555
Ge1 O8 1.909228 1_555
Ge1 O14 2.008259 1_555
Ge2 O4 1.732023 1_565
Ge2 O3 1.751489 1_556
Ge2 O11 1.769203 1_556
Ge2 O18 1.772577 1_555
Ge3 O19 1.732023 1_455
Ge3 O2 1.751489 1_554
Ge3 O12 1.769203 1_554
Ge3 O17 1.772577 1_555
Ge4 O10 1.737337 1_545
Ge4 O16 1.743727 1_555
Ge4 O12 1.762251 1_555
Ge4 O6 1.769680 1_455
Ge5 O9 1.737337 1_655
Ge5 O15 1.743727 1_555
Ge5 O11 1.762251 1_555
Ge5 O5 1.769680 1_565
Ge6 O1 1.764596 1_555
Ge6 O7 1.783319 1_555
Ge6 O18 1.791697 1_555
Ge6 O10 1.844925 1_555
Ge6 O14 2.132692 1_555
Ge7 O0 1.764596 1_555
Ge7 O8 1.783319 1_555
Ge7 O17 1.791697 1_555
Ge7 O9 1.844925 1_555
Ge7 O13 2.132692 1_555
Ge8 O5 1.760918 1_555
Ge8 O6 1.760918 1_555
Ge8 O14 1.776660 1_555
Ge8 O13 1.776660 1_555
