# generated using pymatgen
data_TmMgSb(PbO3)2
_symmetry_space_group_name_H-M   'P 1'
_cell_length_a   7.97938544
_cell_length_b   6.16773978
_cell_length_c   5.92038842
_cell_angle_alpha   56.86617243
_cell_angle_beta   59.31867148
_cell_angle_gamma   65.76533946
_symmetry_Int_Tables_number   1
_chemical_formula_structural   TmMgSb(PbO3)2
_chemical_formula_sum   'Tm1 Mg1 Sb1 Pb2 O6'
_cell_volume   206.30682392
_cell_formula_units_Z   1
loop_
 _symmetry_equiv_pos_site_id
 _symmetry_equiv_pos_as_xyz
  1  'x, y, z'
loop_
 _atom_site_type_symbol
 _atom_site_label
 _atom_site_symmetry_multiplicity
 _atom_site_fract_x
 _atom_site_fract_y
 _atom_site_fract_z
 _atom_site_occupancy
  Tm  Tm0  1  0.95888164  0.99377308  0.06002828  1
  Mg  Mg0  1  0.11787668  0.52969383  0.73088540  1
  Sb  Sb0  1  0.70874763  0.41733586  0.45677629  1
  Pb  Pb0  1  0.41932485  0.77848866  0.92394501  1
  Pb  Pb1  1  0.23920978  0.11746069  0.36814377  1
  O  O0  1  0.25688080  0.18315286  0.72168358  1
  O  O1  1  0.88402099  0.37054340  0.09294478  1
  O  O2  1  0.13683137  0.79507286  0.33150591  1
  O  O3  1  0.71416736  0.78607384  0.31894878  1
  O  O4  1  0.19193702  0.73684864  0.82283961  1
  O  O5  1  0.91378888  0.23947330  0.63063159  1
loop_
_geom_bond_atom_site_label_1
_geom_bond_atom_site_label_2
_geom_bond_distance
_geom_bond_site_symmetry_2
Mg0 O2 1.974885 1_555
Mg0 O0 1.980148 1_555
Mg0 O4 1.996657 1_555
Mg0 O1 2.040068 1_456
O0 Pb0 2.237027 1_545
O0 Pb1 2.416666 1_555
O0 Tm0 2.427440 1_446
O1 Sb0 1.988204 1_555
O1 Tm0 2.243131 1_545
O2 Tm0 2.201936 1_455
O2 Pb0 2.333149 1_554
O2 Pb1 2.579536 1_565
O3 Sb0 1.963683 1_555
O3 Tm0 2.157757 1_555
O4 Tm0 2.299925 1_456
O4 Pb0 2.318479 1_555
O4 Pb1 2.383724 1_565
O5 Sb0 1.987578 1_555
O5 Tm0 2.272235 1_546
O5 Pb1 2.297847 1_655
