# generated using pymatgen
data_H4SO5
_symmetry_space_group_name_H-M   'P 1'
_cell_length_a   6.90097824
_cell_length_b   6.94473828
_cell_length_c   8.02053013
_cell_angle_alpha   78.76217374
_cell_angle_beta   88.40036552
_cell_angle_gamma   85.52357525
_symmetry_Int_Tables_number   1
_chemical_formula_structural   H4SO5
_chemical_formula_sum   'H16 S4 O20'
_cell_volume   375.83603073
_cell_formula_units_Z   4
loop_
 _symmetry_equiv_pos_site_id
 _symmetry_equiv_pos_as_xyz
  1  'x, y, z'
loop_
 _atom_site_type_symbol
 _atom_site_label
 _atom_site_symmetry_multiplicity
 _atom_site_fract_x
 _atom_site_fract_y
 _atom_site_fract_z
 _atom_site_occupancy
  H  H0  1  0.78046854  0.01612938  0.96922351  1
  H  H1  1  0.82106344  0.38477460  0.61032574  1
  H  H2  1  0.32893453  0.62224618  0.88235582  1
  H  H3  1  0.17847836  0.60573080  0.40152386  1
  H  H4  1  0.67375136  0.60458506  0.11722754  1
  H  H5  1  0.83585431  0.70271314  0.21139092  1
  H  H6  1  0.60135281  0.73587094  0.27255162  1
  H  H7  1  0.18322234  0.10345020  0.42606585  1
  H  H8  1  0.33237383  0.26310837  0.31782328  1
  H  H9  1  0.10875660  0.24423788  0.24314279  1
  H  H10  1  0.30126718  0.11254351  0.91892586  1
  H  H11  1  0.15913144  0.28002305  0.79859653  1
  H  H12  1  0.38750793  0.22015920  0.73174717  1
  H  H13  1  0.88664637  0.78913781  0.76368665  1
  H  H14  1  0.81381021  0.90466178  0.56979495  1
  H  H15  1  0.67752874  0.73815333  0.69204979  1
  S  S0  1  0.65479029  0.23202280  0.46291389  1
  S  S1  1  0.14703890  0.77367681  0.04451961  1
  S  S2  1  0.34438654  0.75896468  0.54352795  1
  S  S3  1  0.83607089  0.31066612  0.95435252  1
  O  O0  1  0.81249021  0.08522965  0.44191659  1
  O  O1  1  0.29235128  0.91174033  0.04824166  1
  O  O2  1  0.18904186  0.90878896  0.55718663  1
  O  O3  1  0.69868561  0.13952433  0.96781602  1
  O  O4  1  0.74906348  0.41615656  0.49940540  1
  O  O5  1  0.24780137  0.58868883  0.98919335  1
  O  O6  1  0.24907156  0.57273258  0.51145163  1
  O  O7  1  0.70794450  0.48173129  0.96544856  1
  O  O8  1  0.53230898  0.15493119  0.60740290  1
  O  O9  1  0.98927498  0.85274588  0.92646801  1
  O  O10  1  0.47818020  0.82175110  0.40487933  1
  O  O11  1  0.97876141  0.25282497  0.08552441  1
  O  O12  1  0.54742497  0.30919249  0.30834123  1
  O  O13  1  0.06676798  0.69544246  0.21372341  1
  O  O14  1  0.44507964  0.68631968  0.70464683  1
  O  O15  1  0.93273708  0.33004153  0.78514782  1
  O  O16  1  0.69540651  0.71486424  0.17725521  1
  O  O17  1  0.19117604  0.23499955  0.34531704  1
  O  O18  1  0.29837019  0.23835004  0.83125921  1
  O  O19  1  0.81295854  0.77580573  0.66200291  1
loop_
_geom_bond_atom_site_label_1
_geom_bond_atom_site_label_2
_geom_bond_distance
_geom_bond_site_symmetry_2
H0 O3 0.986965 1_555
H1 O4 1.008981 1_555
H1 O15 1.584719 1_555
H2 O5 1.008866 1_555
H2 O14 1.617608 1_555
H3 O6 0.997498 1_555
H3 O13 1.695691 1_555
H4 O16 1.003131 1_555
H4 O7 1.619537 1_554
H5 O16 1.007236 1_555
H5 O13 1.590904 1_655
H6 O16 1.013777 1_555
H6 O10 1.523774 1_555
H7 O17 1.016027 1_555
H7 O2 1.541073 1_545
H8 O17 1.018387 1_555
H8 O12 1.539158 1_555
H9 O17 0.999511 1_555
H9 O11 1.559511 1_455
H10 O18 1.008342 1_555
H10 O1 1.571725 1_546
H11 O18 1.008354 1_555
H11 O15 1.575850 1_455
H12 O18 1.015450 1_555
H12 O8 1.499382 1_555
H13 O19 0.996109 1_555
H13 O9 1.651230 1_555
H14 O19 1.044224 1_555
H14 O0 1.456706 1_565
H15 O19 1.000469 1_555
H15 O14 1.667309 1_555
O0 S0 1.461329 1_555
O1 S1 1.445246 1_555
O2 S2 1.451766 1_555
O3 S3 1.563110 1_555
O4 S0 1.559010 1_555
O5 S1 1.548029 1_556
O6 S2 1.563165 1_555
O7 S3 1.440112 1_555
O8 S0 1.455400 1_555
O9 S1 1.464559 1_656
O10 S2 1.447679 1_555
O11 S3 1.438480 1_554
O12 S0 1.450349 1_555
O13 S1 1.470172 1_555
O14 S2 1.465817 1_555
O15 S3 1.482282 1_555
