# generated using pymatgen
data_Zr6Ag7F31
_symmetry_space_group_name_H-M   'P 1'
_cell_length_a   8.68043535
_cell_length_b   8.68043535
_cell_length_c   8.68043468
_cell_angle_alpha   106.83084109
_cell_angle_beta   106.83084117
_cell_angle_gamma   106.83084131
_symmetry_Int_Tables_number   1
_chemical_formula_structural   Zr6Ag7F31
_chemical_formula_sum   'Zr6 Ag7 F31'
_cell_volume   547.21019256
_cell_formula_units_Z   1
loop_
 _symmetry_equiv_pos_site_id
 _symmetry_equiv_pos_as_xyz
  1  'x, y, z'
loop_
 _atom_site_type_symbol
 _atom_site_label
 _atom_site_symmetry_multiplicity
 _atom_site_fract_x
 _atom_site_fract_y
 _atom_site_fract_z
 _atom_site_occupancy
  Zr  Zr0  1  0.11665723  0.03644298  0.35877564  1
  Zr  Zr1  1  0.35877564  0.11665723  0.03644298  1
  Zr  Zr2  1  0.03644298  0.35877564  0.11665723  1
  Zr  Zr3  1  0.88334277  0.96355702  0.64122436  1
  Zr  Zr4  1  0.64122436  0.88334277  0.96355702  1
  Zr  Zr5  1  0.96355702  0.64122436  0.88334277  1
  Ag  Ag0  1  0.50000000  0.50000000  0.50000000  1
  Ag  Ag1  1  0.81399298  0.28831443  0.42635645  1
  Ag  Ag2  1  0.42635645  0.81399298  0.28831443  1
  Ag  Ag3  1  0.28831443  0.42635645  0.81399298  1
  Ag  Ag4  1  0.18600702  0.71168557  0.57364355  1
  Ag  Ag5  1  0.57364355  0.18600702  0.71168557  1
  Ag  Ag6  1  0.71168557  0.57364355  0.18600702  1
  F  F0  1  0.00000000  -0.00000000  -0.00000000  1
  F  F1  1  0.09134766  0.25319122  0.30634927  1
  F  F2  1  0.30634927  0.09134766  0.25319122  1
  F  F3  1  0.25319122  0.30634927  0.09134766  1
  F  F4  1  0.90865234  0.74680878  0.69365073  1
  F  F5  1  0.69365073  0.90865234  0.74680878  1
  F  F6  1  0.74680878  0.69365073  0.90865234  1
  F  F7  1  0.04618640  0.78692704  0.16028556  1
  F  F8  1  0.16028556  0.04618640  0.78692704  1
  F  F9  1  0.78692704  0.16028556  0.04618640  1
  F  F10  1  0.95381360  0.21307296  0.83971444  1
  F  F11  1  0.83971444  0.95381360  0.21307296  1
  F  F12  1  0.21307296  0.83971444  0.95381360  1
  F  F13  1  0.85064075  0.44930376  0.97917606  1
  F  F14  1  0.44930376  0.97917606  0.85064075  1
  F  F15  1  0.97917606  0.85064075  0.44930376  1
  F  F16  1  0.14935925  0.55069624  0.02082394  1
  F  F17  1  0.55069624  0.02082394  0.14935925  1
  F  F18  1  0.02082394  0.14935925  0.55069624  1
  F  F19  1  0.74235343  0.43823709  0.67227094  1
  F  F20  1  0.43823709  0.67227094  0.74235343  1
  F  F21  1  0.67227094  0.74235343  0.43823709  1
  F  F22  1  0.25764657  0.56176291  0.32772906  1
  F  F23  1  0.56176291  0.32772906  0.25764657  1
  F  F24  1  0.32772906  0.25764657  0.56176291  1
  F  F25  1  0.05552873  0.52517031  0.70812967  1
  F  F26  1  0.52517031  0.70812967  0.05552873  1
  F  F27  1  0.70812967  0.05552873  0.52517031  1
  F  F28  1  0.94447127  0.47482969  0.29187033  1
  F  F29  1  0.47482969  0.29187033  0.94447127  1
  F  F30  1  0.29187033  0.94447127  0.47482969  1
loop_
_geom_bond_atom_site_label_1
_geom_bond_atom_site_label_2
_geom_bond_distance
_geom_bond_site_symmetry_2
Ag0 F23 2.498991 1_555
Ag0 F20 2.498991 1_555
Ag0 F22 2.498991 1_555
Ag0 F19 2.498991 1_555
Ag0 F21 2.498991 1_555
Ag0 F24 2.498991 1_555
Ag1 F23 2.433648 1_555
Ag1 F27 2.459305 1_555
Ag1 F28 2.462760 1_555
Ag1 F25 2.495473 1_655
Ag1 F19 2.503136 1_555
Ag1 F18 2.594040 1_655
Ag1 F17 2.628271 1_555
Ag2 F22 2.433648 1_555
Ag2 F26 2.459305 1_555
Ag2 F30 2.462760 1_555
Ag2 F27 2.495473 1_565
Ag2 F21 2.503136 1_555
Ag2 F17 2.594040 1_565
Ag2 F16 2.628271 1_555
Ag3 F24 2.433648 1_555
Ag3 F25 2.459305 1_555
Ag3 F29 2.462760 1_555
Ag3 F26 2.495473 1_556
Ag3 F20 2.503136 1_555
Ag3 F16 2.594040 1_556
Ag3 F18 2.628271 1_555
Ag4 F20 2.433648 1_555
Ag4 F30 2.459305 1_555
Ag4 F25 2.462760 1_555
Ag4 F28 2.495473 1_455
Ag4 F22 2.503136 1_555
Ag4 F15 2.594040 1_455
Ag4 F14 2.628271 1_555
Ag5 F19 2.433648 1_555
Ag5 F29 2.459305 1_555
Ag5 F27 2.462760 1_555
Ag5 F30 2.495473 1_545
Ag5 F24 2.503136 1_555
Ag5 F14 2.594040 1_545
Ag5 F13 2.628271 1_555
Ag6 F21 2.433648 1_555
Ag6 F28 2.459305 1_555
Ag6 F26 2.462760 1_555
Ag6 F29 2.495473 1_554
Ag6 F23 2.503136 1_555
Ag6 F13 2.594040 1_554
Ag6 F15 2.628271 1_555
F0 Zr3 2.870931 1_444
F0 Zr0 2.870931 1_555
F0 Zr5 2.870931 1_444
F0 Zr2 2.870931 1_555
F0 Zr1 2.870931 1_555
F0 Zr4 2.870931 1_444
F1 Zr2 2.109718 1_555
F1 Zr0 2.114853 1_555
F2 Zr0 2.109718 1_555
F2 Zr1 2.114853 1_555
F3 Zr1 2.109718 1_555
F3 Zr2 2.114853 1_555
F4 Zr5 2.109718 1_555
F4 Zr3 2.114853 1_555
F5 Zr3 2.109718 1_555
F5 Zr4 2.114853 1_555
F6 Zr4 2.109718 1_555
F6 Zr5 2.114853 1_555
F7 Zr0 2.120220 1_565
F7 Zr5 2.146777 1_454
F8 Zr1 2.120220 1_556
F8 Zr3 2.146778 1_445
F9 Zr2 2.120220 1_655
F9 Zr4 2.146778 1_544
F10 Zr3 2.120220 1_545
F10 Zr2 2.146777 1_656
F11 Zr4 2.120220 1_554
F11 Zr0 2.146778 1_665
F12 Zr5 2.120220 1_455
F12 Zr1 2.146778 1_566
F13 Zr5 2.181113 1_555
F13 Zr2 2.192119 1_656
F14 Zr4 2.181113 1_555
F14 Zr1 2.192119 1_566
F15 Zr3 2.181113 1_555
F15 Zr0 2.192119 1_665
F16 Zr2 2.181113 1_555
F16 Zr5 2.192119 1_454
F17 Zr1 2.181113 1_555
F17 Zr4 2.192119 1_544
F18 Zr0 2.181113 1_555
F18 Zr3 2.192119 1_445
F19 Zr5 2.069423 1_555
F20 Zr4 2.069423 1_555
F21 Zr3 2.069423 1_555
F22 Zr2 2.069423 1_555
F23 Zr1 2.069423 1_555
F24 Zr0 2.069423 1_555
F25 Zr5 2.060841 1_455
F26 Zr4 2.060841 1_554
F27 Zr3 2.060841 1_545
F28 Zr2 2.060841 1_655
F29 Zr1 2.060841 1_556
F30 Zr0 2.060841 1_565
