# generated using pymatgen
data_MgAs2WO7
_symmetry_space_group_name_H-M   'P 1'
_cell_length_a   10.03473029
_cell_length_b   6.57387103
_cell_length_c   10.17209049
_cell_angle_alpha   68.34482729
_cell_angle_beta   90.00000000
_cell_angle_gamma   90.00000000
_symmetry_Int_Tables_number   1
_chemical_formula_structural   MgAs2WO7
_chemical_formula_sum   'Mg4 As8 W4 O28'
_cell_volume   623.66280934
_cell_formula_units_Z   4
loop_
 _symmetry_equiv_pos_site_id
 _symmetry_equiv_pos_as_xyz
  1  'x, y, z'
loop_
 _atom_site_type_symbol
 _atom_site_label
 _atom_site_symmetry_multiplicity
 _atom_site_fract_x
 _atom_site_fract_y
 _atom_site_fract_z
 _atom_site_occupancy
  Mg  Mg0  1  0.05622217  0.62119917  0.84572394  1
  Mg  Mg1  1  0.55622217  0.37880083  0.65427606  1
  Mg  Mg2  1  0.94377783  0.37880083  0.15427606  1
  Mg  Mg3  1  0.44377783  0.62119917  0.34572394  1
  As  As0  1  0.73298042  0.56291469  0.86076073  1
  As  As1  1  0.23298042  0.43708531  0.63923927  1
  As  As2  1  0.26701958  0.43708531  0.13923927  1
  As  As3  1  0.76701958  0.56291469  0.36076073  1
  As  As4  1  0.66918295  0.96420304  0.04239211  1
  As  As5  1  0.16918295  0.03579696  0.45760789  1
  As  As6  1  0.33081705  0.03579696  0.95760789  1
  As  As7  1  0.83081705  0.96420304  0.54239211  1
  W  W0  1  0.89621386  0.14915879  0.79479202  1
  W  W1  1  0.39621386  0.85084121  0.70520798  1
  W  W2  1  0.10378614  0.85084121  0.20520798  1
  W  W3  1  0.60378614  0.14915879  0.29479202  1
  O  O0  1  0.68934783  0.16802916  0.12453964  1
  O  O1  1  0.18934783  0.83197084  0.37546036  1
  O  O2  1  0.31065217  0.83197084  0.87546036  1
  O  O3  1  0.81065217  0.16802916  0.62453964  1
  O  O4  1  0.50149449  0.63046888  0.72160490  1
  O  O5  1  0.00149449  0.36953112  0.77839510  1
  O  O6  1  0.49850551  0.36953112  0.27839510  1
  O  O7  1  0.99850551  0.63046888  0.22160490  1
  O  O8  1  0.87845664  0.51414739  0.95680910  1
  O  O9  1  0.37845664  0.48585261  0.54319090  1
  O  O10  1  0.12154336  0.48585261  0.04319090  1
  O  O11  1  0.62154336  0.51414739  0.45680910  1
  O  O12  1  0.81869305  0.72609172  0.69214755  1
  O  O13  1  0.31869305  0.27390828  0.80785245  1
  O  O14  1  0.18130695  0.27390828  0.30785245  1
  O  O15  1  0.68130695  0.72609172  0.19214755  1
  O  O16  1  0.98892453  0.05306207  0.21205470  1
  O  O17  1  0.48892453  0.94693793  0.28794530  1
  O  O18  1  0.01107547  0.94693793  0.78794530  1
  O  O19  1  0.51107547  0.05306207  0.71205470  1
  O  O20  1  0.77902983  0.33189214  0.30093517  1
  O  O21  1  0.27902983  0.66810786  0.19906483  1
  O  O22  1  0.22097017  0.66810786  0.69906483  1
  O  O23  1  0.72097017  0.33189214  0.80093517  1
  O  O24  1  0.66069815  0.98083500  0.48006520  1
  O  O25  1  0.16069815  0.01916500  0.01993480  1
  O  O26  1  0.33930185  0.01916500  0.51993480  1
  O  O27  1  0.83930185  0.98083500  0.98006520  1
loop_
_geom_bond_atom_site_label_1
_geom_bond_atom_site_label_2
_geom_bond_distance
_geom_bond_site_symmetry_2
Mg0 O10 1.984180 1_556
Mg0 O18 2.051159 1_555
Mg0 O5 2.084240 1_555
Mg0 O8 2.089793 1_455
Mg0 O22 2.171221 1_555
Mg1 O11 1.984180 1_555
Mg1 O19 2.051159 1_555
Mg1 O4 2.084240 1_555
Mg1 O9 2.089793 1_555
Mg1 O23 2.171221 1_555
Mg2 O8 1.984180 1_554
Mg2 O16 2.051159 1_555
Mg2 O7 2.084240 1_555
Mg2 O10 2.089793 1_655
Mg2 O20 2.171221 1_555
Mg3 O9 1.984180 1_555
Mg3 O17 2.051159 1_555
Mg3 O6 2.084240 1_555
Mg3 O11 2.089793 1_555
Mg3 O21 2.171221 1_555
As0 O8 1.719657 1_555
As0 O23 1.836696 1_555
As0 O12 1.863955 1_555
As1 O9 1.719657 1_555
As1 O22 1.836696 1_555
As1 O13 1.863955 1_555
As2 O10 1.719657 1_555
As2 O21 1.836696 1_555
As2 O14 1.863955 1_555
As3 O11 1.719657 1_555
As3 O20 1.836696 1_555
As3 O15 1.863955 1_555
As4 O15 1.739450 1_555
As4 O27 1.810228 1_554
As4 O0 1.833289 1_565
As5 O14 1.739450 1_555
As5 O26 1.810228 1_555
As5 O1 1.833289 1_545
As6 O13 1.739450 1_555
As6 O25 1.810228 1_556
As6 O2 1.833289 1_545
As7 O12 1.739450 1_555
As7 O24 1.810228 1_555
As7 O3 1.833289 1_565
O0 W3 1.895578 1_555
O1 W2 1.895578 1_555
O2 W1 1.895578 1_555
O3 W0 1.895578 1_555
O4 W1 1.750523 1_555
O5 W0 1.750523 1_455
O6 W3 1.750523 1_555
O7 W2 1.750523 1_655
O16 W2 1.780145 1_645
O17 W3 1.780145 1_565
O18 W0 1.780145 1_465
O19 W1 1.780145 1_545
O20 W3 2.143536 1_555
O21 W2 2.143536 1_555
O22 W1 2.143536 1_555
O23 W0 2.143536 1_555
O24 W3 1.887657 1_565
O25 W2 1.887657 1_545
O26 W1 1.887657 1_545
O27 W0 1.887657 1_565
