# generated using pymatgen
data_Ho2Mg(BiO3)4
_symmetry_space_group_name_H-M   'P 1'
_cell_length_a   5.66089311
_cell_length_b   6.27908267
_cell_length_c   8.63726711
_cell_angle_alpha   89.84841334
_cell_angle_beta   89.72851814
_cell_angle_gamma   92.78366780
_symmetry_Int_Tables_number   1
_chemical_formula_structural   Ho2Mg(BiO3)4
_chemical_formula_sum   'Ho2 Mg1 Bi4 O12'
_cell_volume   306.64654077
_cell_formula_units_Z   1
loop_
 _symmetry_equiv_pos_site_id
 _symmetry_equiv_pos_as_xyz
  1  'x, y, z'
loop_
 _atom_site_type_symbol
 _atom_site_label
 _atom_site_symmetry_multiplicity
 _atom_site_fract_x
 _atom_site_fract_y
 _atom_site_fract_z
 _atom_site_occupancy
  Ho  Ho0  1  0.03728000  0.91106300  0.75033800  1
  Ho  Ho1  1  0.57946200  0.63627300  0.25045700  1
  Mg  Mg0  1  0.35281900  0.22687200  0.25242500  1
  Bi  Bi0  1  0.01822900  0.47915000  0.98673200  1
  Bi  Bi1  1  0.01882500  0.48080700  0.51246400  1
  Bi  Bi2  1  0.51455700  0.00500700  0.52104700  1
  Bi  Bi3  1  0.51077300  0.00407600  0.98177700  1
  O  O0  1  0.20508500  0.49260000  0.25220400  1
  O  O1  1  0.18254400  0.15722000  0.93045600  1
  O  O2  1  0.18265600  0.15773100  0.56527300  1
  O  O3  1  0.28254500  0.74103900  0.91919800  1
  O  O4  1  0.28233400  0.74176100  0.57968300  1
  O  O5  1  0.40134900  0.93130100  0.24801000  1
  O  O6  1  0.67383600  0.04434500  0.75048500  1
  O  O7  1  0.61887700  0.30515600  0.41533200  1
  O  O8  1  0.61507700  0.30502400  0.08409700  1
  O  O9  1  0.77369200  0.78831100  0.04665100  1
  O  O10  1  0.77396100  0.78796000  0.45265800  1
  O  O11  1  0.91686900  0.56472200  0.75071400  1
loop_
_geom_bond_atom_site_label_1
_geom_bond_atom_site_label_2
_geom_bond_distance
_geom_bond_site_symmetry_2
Ho0 O11 2.247205 1_455
Ho0 O6 2.258445 1_465
Ho0 O3 2.312916 1_555
Ho0 O4 2.315016 1_555
Ho0 O1 2.320970 1_565
Ho0 O2 2.341342 1_565
Ho1 O5 2.151805 1_555
Ho1 O9 2.256074 1_555
Ho1 O10 2.257157 1_555
Ho1 O0 2.262623 1_555
Ho1 O7 2.536309 1_555
Ho1 O8 2.546619 1_555
Mg0 O5 1.889747 1_545
Mg0 O0 1.902349 1_555
Mg0 O7 2.107539 1_555
Mg0 O8 2.112748 1_555
Bi0 O11 2.192912 1_455
Bi0 O3 2.242955 1_555
Bi0 O1 2.317582 1_555
Bi0 O9 2.492410 1_456
Bi0 O0 2.529620 1_556
Bi0 O8 2.616422 1_456
Bi1 O11 2.206678 1_455
Bi1 O4 2.241189 1_555
Bi1 O2 2.316319 1_555
Bi1 O0 2.477806 1_555
Bi1 O10 2.483762 1_455
Bi1 O7 2.612782 1_455
Bi2 O4 2.120157 1_545
Bi2 O10 2.133798 1_545
Bi2 O7 2.147580 1_555
Bi2 O2 2.183066 1_555
Bi2 O6 2.190685 1_555
Bi2 O5 2.485503 1_545
Bi3 O3 2.119744 1_545
Bi3 O9 2.136451 1_546
Bi3 O8 2.146151 1_556
Bi3 O1 2.180066 1_555
Bi3 O6 2.205476 1_555
Bi3 O5 2.415322 1_546
