# generated using pymatgen
data_BaYMgFeCuO5
_symmetry_space_group_name_H-M   'P 1'
_cell_length_a   3.92132200
_cell_length_b   3.92132200
_cell_length_c   9.49186700
_cell_angle_alpha   90.00000000
_cell_angle_beta   90.00000000
_cell_angle_gamma   90.00000000
_symmetry_Int_Tables_number   1
_chemical_formula_structural   BaYMgFeCuO5
_chemical_formula_sum   'Ba1 Y1 Mg1 Fe1 Cu1 O5'
_cell_volume   145.95421992
_cell_formula_units_Z   1
loop_
 _symmetry_equiv_pos_site_id
 _symmetry_equiv_pos_as_xyz
  1  'x, y, z'
loop_
 _atom_site_type_symbol
 _atom_site_label
 _atom_site_symmetry_multiplicity
 _atom_site_fract_x
 _atom_site_fract_y
 _atom_site_fract_z
 _atom_site_occupancy
  Ba  Ba0  1  0.00000000  0.00000000  0.04487600  1
  Y  Y0  1  0.00000000  0.00000000  0.41229300  1
  Mg  Mg0  1  0.00000000  0.00000000  0.69617800  1
  Fe  Fe0  1  0.49999900  0.49999900  0.73210600  1
  Cu  Cu0  1  0.49999900  0.49999900  0.27415000  1
  O  O0  1  0.00000000  0.49999900  0.62574900  1
  O  O1  1  0.49999900  0.00000000  0.62574900  1
  O  O2  1  0.00000000  0.49999900  0.28499500  1
  O  O3  1  0.49999900  0.00000000  0.28499500  1
  O  O4  1  0.49999900  0.49999900  0.94016100  1
loop_
_geom_bond_atom_site_label_1
_geom_bond_atom_site_label_2
_geom_bond_distance
_geom_bond_site_symmetry_2
Ba0 O4 2.945551 1_554
Ba0 O4 2.945556 1_544
Ba0 O4 2.945556 1_454
Ba0 O4 2.945561 1_444
Ba0 O2 3.006464 1_555
Ba0 O3 3.006464 1_555
Ba0 O3 3.006469 1_455
Ba0 O2 3.006469 1_545
Mg0 O1 2.071490 1_555
Mg0 O0 2.071490 1_555
Mg0 O1 2.071498 1_455
Mg0 O0 2.071498 1_545
Fe0 O4 1.974830 1_555
Fe0 O0 2.205294 1_555
Fe0 O1 2.205294 1_555
Fe0 O1 2.205301 1_565
Fe0 O0 2.205301 1_655
Cu0 O2 1.963358 1_555
Cu0 O3 1.963358 1_555
Cu0 O3 1.963365 1_565
Cu0 O2 1.963365 1_655
O0 Y0 2.819440 1_555
O0 Y0 2.819445 1_565
O1 Y0 2.819440 1_555
O1 Y0 2.819445 1_655
O2 Y0 2.303075 1_555
O2 Y0 2.303082 1_565
O3 Y0 2.303075 1_555
O3 Y0 2.303082 1_655
