# generated using pymatgen
data_Na3Mg(NiO2)5
_symmetry_space_group_name_H-M   'P 1'
_cell_length_a   6.95337822
_cell_length_b   5.11112664
_cell_length_c   6.12137058
_cell_angle_alpha   73.75069536
_cell_angle_beta   106.26580432
_cell_angle_gamma   81.39066028
_symmetry_Int_Tables_number   1
_chemical_formula_structural   Na3Mg(NiO2)5
_chemical_formula_sum   'Na3 Mg1 Ni5 O10'
_cell_volume   194.26414938
_cell_formula_units_Z   1
loop_
 _symmetry_equiv_pos_site_id
 _symmetry_equiv_pos_as_xyz
  1  'x, y, z'
loop_
 _atom_site_type_symbol
 _atom_site_label
 _atom_site_symmetry_multiplicity
 _atom_site_fract_x
 _atom_site_fract_y
 _atom_site_fract_z
 _atom_site_occupancy
  Na  Na0  1  0.22723300  0.38343100  0.72294900  1
  Na  Na1  1  0.77842200  0.61200700  0.28323800  1
  Na  Na2  1  0.41810500  0.78231200  0.91611900  1
  Mg  Mg0  1  0.98998300  0.00618200  0.48811400  1
  Ni  Ni0  1  0.99355300  0.00229900  0.99416200  1
  Ni  Ni1  1  0.19528300  0.39737500  0.20281200  1
  Ni  Ni2  1  0.39008800  0.79830800  0.39971100  1
  Ni  Ni3  1  0.60405700  0.20282900  0.60018700  1
  Ni  Ni4  1  0.80297300  0.60120000  0.79388000  1
  O  O0  1  0.26226000  0.06494100  0.08086200  1
  O  O1  1  0.29660000  0.07632600  0.52724100  1
  O  O2  1  0.08348200  0.73418500  0.31504400  1
  O  O3  1  0.47437500  0.49413200  0.29451600  1
  O  O4  1  0.06953300  0.71841700  0.86229400  1
  O  O5  1  0.91402100  0.29514100  0.11022000  1
  O  O6  1  0.53107100  0.51087100  0.71048500  1
  O  O7  1  0.69871200  0.90416800  0.48895400  1
  O  O8  1  0.90728700  0.27085200  0.67516000  1
  O  O9  1  0.72592500  0.93113400  0.91321800  1
loop_
_geom_bond_atom_site_label_1
_geom_bond_atom_site_label_2
_geom_bond_distance
_geom_bond_site_symmetry_2
Na0 O0 2.257381 1_556
Na0 O1 2.298054 1_555
Na0 O6 2.316913 1_555
Na0 O8 2.340698 1_455
Na0 O4 2.375005 1_555
Na0 O2 2.451120 1_555
Na1 O2 2.271699 1_655
Na1 O9 2.283659 1_554
Na1 O3 2.297219 1_555
Na1 O7 2.306154 1_555
Na1 O8 2.363450 1_555
Na1 O5 2.386583 1_555
Na2 O3 2.257944 1_556
Na2 O1 2.264942 1_565
Na2 O0 2.288400 1_566
Na2 O6 2.308944 1_555
Na2 O9 2.379356 1_555
Na2 O4 2.437136 1_555
Mg0 O2 2.101720 1_645
Mg0 O8 2.115259 1_555
Mg0 O7 2.166633 1_545
Mg0 O1 2.173078 1_655
Mg0 O4 2.208380 1_645
Mg0 O5 2.231885 1_555
Ni0 O0 1.895753 1_656
Ni0 O5 1.902148 1_556
Ni0 O9 1.904682 1_545
Ni0 O8 1.911633 1_555
Ni0 O2 1.917330 1_646
Ni0 O4 1.923758 1_645
Ni1 O3 2.039160 1_555
Ni1 O1 2.044345 1_555
Ni1 O5 2.066368 1_455
Ni1 O0 2.080581 1_555
Ni1 O4 2.106477 1_554
Ni1 O2 2.144809 1_555
Ni2 O0 1.906223 1_565
Ni2 O3 1.916783 1_555
Ni2 O1 1.918262 1_565
Ni2 O6 1.923114 1_555
Ni2 O2 2.146277 1_555
Ni2 O7 2.247828 1_555
Ni3 O9 1.888688 1_545
Ni3 O3 1.903889 1_555
Ni3 O6 1.933886 1_555
Ni3 O7 1.938794 1_545
Ni3 O8 2.131633 1_555
Ni3 O1 2.286606 1_555
Ni4 O7 1.922448 1_555
Ni4 O5 1.974483 1_556
Ni4 O6 1.975051 1_555
Ni4 O4 2.001948 1_655
Ni4 O9 2.074260 1_555
Ni4 O8 2.126131 1_555
