# generated using pymatgen
data_LaInNi2
_symmetry_space_group_name_H-M   'P 1'
_cell_length_a   4.11687471
_cell_length_b   5.26115963
_cell_length_c   7.14726009
_cell_angle_alpha   90.00000000
_cell_angle_beta   90.00000000
_cell_angle_gamma   90.00000000
_symmetry_Int_Tables_number   1
_chemical_formula_structural   LaInNi2
_chemical_formula_sum   'La2 In2 Ni4'
_cell_volume   154.80633026
_cell_formula_units_Z   2
loop_
 _symmetry_equiv_pos_site_id
 _symmetry_equiv_pos_as_xyz
  1  'x, y, z'
loop_
 _atom_site_type_symbol
 _atom_site_label
 _atom_site_symmetry_multiplicity
 _atom_site_fract_x
 _atom_site_fract_y
 _atom_site_fract_z
 _atom_site_occupancy
  La  La0  1  -0.00000000  0.75000000  0.72819810  1
  La  La1  1  -0.00000000  0.25000000  0.27180190  1
  In  In0  1  0.50000000  0.25000000  0.66443175  1
  In  In1  1  0.50000000  0.75000000  0.33556825  1
  Ni  Ni0  1  0.00000000  0.25000000  0.89483909  1
  Ni  Ni1  1  -0.00000000  0.75000000  0.10516091  1
  Ni  Ni2  1  0.50000000  0.00000000  -0.00000000  1
  Ni  Ni3  1  0.50000000  0.50000000  -0.00000000  1
loop_
_geom_bond_atom_site_label_1
_geom_bond_atom_site_label_2
_geom_bond_distance
_geom_bond_site_symmetry_2
La0 Ni1 2.694251 1_556
La0 Ni0 2.887645 1_555
La0 Ni0 2.887645 1_565
La0 Ni3 3.121057 1_556
La0 Ni3 3.121057 1_456
La0 Ni2 3.121057 1_466
La0 Ni2 3.121057 1_566
La1 Ni0 2.694251 1_554
La1 Ni1 2.887645 1_555
La1 Ni1 2.887645 1_545
La1 Ni2 3.121057 1_455
La1 Ni2 3.121057 1_555
La1 Ni3 3.121057 1_455
La1 Ni3 3.121057 1_555
In0 Ni0 2.636106 1_655
In0 Ni0 2.636106 1_555
In0 Ni3 2.735376 1_556
In0 Ni2 2.735376 1_556
In0 La0 3.371176 1_655
In0 La0 3.371176 1_645
In0 La0 3.371176 1_545
In0 La0 3.371176 1_555
In0 La1 3.480241 1_555
In0 La1 3.480241 1_655
In1 Ni1 2.636106 1_655
In1 Ni1 2.636106 1_555
In1 Ni3 2.735376 1_555
In1 Ni2 2.735376 1_565
In1 La1 3.371176 1_565
In1 La1 3.371176 1_665
In1 La1 3.371176 1_655
In1 La1 3.371176 1_555
In1 La0 3.480241 1_555
In1 La0 3.480241 1_655
Ni0 Ni3 2.555792 1_456
Ni0 Ni3 2.555792 1_556
Ni0 Ni2 2.555792 1_556
Ni0 Ni2 2.555792 1_456
Ni1 Ni2 2.555792 1_565
Ni1 Ni3 2.555792 1_555
Ni1 Ni3 2.555792 1_455
Ni1 Ni2 2.555792 1_465
Ni2 Ni3 2.630580 1_545
Ni2 Ni3 2.630580 1_555
