# generated using pymatgen
data_Li3V2(SiO5)2
_symmetry_space_group_name_H-M   'P 1'
_cell_length_a   6.38073911
_cell_length_b   6.38073911
_cell_length_c   9.13847900
_cell_angle_alpha   90.00000000
_cell_angle_beta   90.00000000
_cell_angle_gamma   90.19288392
_symmetry_Int_Tables_number   1
_chemical_formula_structural   Li3V2(SiO5)2
_chemical_formula_sum   'Li6 V4 Si4 O20'
_cell_volume   372.06038636
_cell_formula_units_Z   2
loop_
 _symmetry_equiv_pos_site_id
 _symmetry_equiv_pos_as_xyz
  1  'x, y, z'
loop_
 _atom_site_type_symbol
 _atom_site_label
 _atom_site_symmetry_multiplicity
 _atom_site_fract_x
 _atom_site_fract_y
 _atom_site_fract_z
 _atom_site_occupancy
  Li  Li0  1  0.00000000  0.00000000  0.00000000  1
  Li  Li1  1  0.50000000  0.00000000  0.00000000  1
  Li  Li2  1  0.50000000  0.00000000  0.50000000  1
  Li  Li3  1  0.50000000  0.50000000  0.50000000  1
  Li  Li4  1  0.00000000  0.50000000  0.00000000  1
  Li  Li5  1  0.00000000  0.50000000  0.50000000  1
  V  V0  1  0.25843600  0.25843600  0.79751100  1
  V  V1  1  0.24156400  0.24156400  0.29751100  1
  V  V2  1  0.74156400  0.74156400  0.20248900  1
  V  V3  1  0.75843600  0.75843600  0.70248900  1
  Si  Si0  1  0.74949700  0.24949700  0.25000000  1
  Si  Si1  1  0.75050300  0.25050300  0.75000000  1
  Si  Si2  1  0.25050300  0.75050300  0.75000000  1
  Si  Si3  1  0.24949700  0.74949700  0.25000000  1
  O  O0  1  0.75185700  0.04156400  0.14389100  1
  O  O1  1  0.74129400  0.04301600  0.64337900  1
  O  O2  1  0.54156400  0.25185700  0.35610900  1
  O  O3  1  0.23074300  0.23074300  0.11629100  1
  O  O4  1  0.26925700  0.26925700  0.61629100  1
  O  O5  1  0.54301600  0.24129400  0.85662100  1
  O  O6  1  0.95843600  0.24814300  0.85610900  1
  O  O7  1  0.95698400  0.25870600  0.35662100  1
  O  O8  1  0.75870600  0.45698400  0.14337900  1
  O  O9  1  0.74814300  0.45843600  0.64389100  1
  O  O10  1  0.24129400  0.54301600  0.85662100  1
  O  O11  1  0.25185700  0.54156400  0.35610900  1
  O  O12  1  0.04156400  0.75185700  0.14389100  1
  O  O13  1  0.45698400  0.75870600  0.14337900  1
  O  O14  1  0.76925700  0.76925700  0.88370900  1
  O  O15  1  0.73074300  0.73074300  0.38370900  1
  O  O16  1  0.04301600  0.74129400  0.64337900  1
  O  O17  1  0.45843600  0.74814300  0.64389100  1
  O  O18  1  0.24814300  0.95843600  0.85610900  1
  O  O19  1  0.25870600  0.95698400  0.35662100  1
loop_
_geom_bond_atom_site_label_1
_geom_bond_atom_site_label_2
_geom_bond_distance
_geom_bond_site_symmetry_2
Li0 O12 2.075860 1_545
Li0 O6 2.075860 1_454
Li0 O0 2.075860 1_455
Li0 O18 2.075860 1_544
Li0 O3 2.334563 1_555
Li0 O14 2.334563 1_444
Li1 O5 2.039549 1_554
Li1 O13 2.039549 1_545
Li1 O0 2.092631 1_555
Li1 O18 2.092631 1_544
Li1 O3 2.503165 1_555
Li1 O14 2.503165 1_544
Li2 O1 2.039549 1_555
Li2 O19 2.039549 1_545
Li2 O2 2.092631 1_555
Li2 O17 2.092631 1_545
Li2 O4 2.503165 1_555
Li2 O15 2.503165 1_545
Li3 O2 2.075860 1_555
Li3 O11 2.075860 1_555
Li3 O17 2.075860 1_555
Li3 O9 2.075860 1_555
Li3 O15 2.334563 1_555
Li3 O4 2.334563 1_555
Li4 O10 2.039549 1_554
Li4 O8 2.039549 1_455
Li4 O12 2.092631 1_555
Li4 O6 2.092631 1_454
Li4 O3 2.503165 1_555
Li4 O14 2.503165 1_454
Li5 O16 2.039549 1_555
Li5 O7 2.039549 1_455
Li5 O11 2.092631 1_555
Li5 O9 2.092631 1_455
Li5 O4 2.503165 1_555
Li5 O15 2.503165 1_455
O0 Si0 1.643453 1_555
O0 V2 1.988585 1_545
O1 Si1 1.644707 1_555
O1 V3 1.897981 1_545
O2 Si0 1.643453 1_555
O2 V1 1.988585 1_555
O3 V1 1.658942 1_555
O4 V0 1.658942 1_555
O5 Si1 1.644707 1_555
O5 V0 1.897981 1_555
O6 Si1 1.643453 1_555
O6 V0 1.988585 1_655
O7 Si0 1.644707 1_555
O7 V1 1.897981 1_655
O8 Si0 1.644707 1_555
O8 V2 1.897981 1_555
O9 Si1 1.643453 1_555
O9 V3 1.988585 1_555
O10 Si2 1.644707 1_555
O10 V0 1.897981 1_555
O11 Si3 1.643453 1_555
O11 V1 1.988585 1_555
O12 Si3 1.643453 1_555
O12 V2 1.988585 1_455
O13 Si3 1.644707 1_555
O13 V2 1.897981 1_555
O14 V3 1.658942 1_555
O15 V2 1.658942 1_555
O16 Si2 1.644707 1_555
O16 V3 1.897981 1_455
O17 Si2 1.643453 1_555
O17 V3 1.988585 1_555
O18 Si2 1.643453 1_555
O18 V0 1.988585 1_565
O19 Si3 1.644707 1_555
O19 V1 1.897981 1_565
