# generated using pymatgen
data_Zr6CI12
_symmetry_space_group_name_H-M   'P 1'
_cell_length_a   9.22082430
_cell_length_b   9.22254842
_cell_length_c   9.22124073
_cell_angle_alpha   106.94182383
_cell_angle_beta   106.94409458
_cell_angle_gamma   106.94142376
_symmetry_Int_Tables_number   1
_chemical_formula_structural   Zr6CI12
_chemical_formula_sum   'Zr6 C1 I12'
_cell_volume   654.08660429
_cell_formula_units_Z   1
loop_
 _symmetry_equiv_pos_site_id
 _symmetry_equiv_pos_as_xyz
  1  'x, y, z'
loop_
 _atom_site_type_symbol
 _atom_site_label
 _atom_site_symmetry_multiplicity
 _atom_site_fract_x
 _atom_site_fract_y
 _atom_site_fract_z
 _atom_site_occupancy
  Zr  Zr0  1  0.91375678  0.97437949  0.73400629  1
  Zr  Zr1  1  0.73394448  0.91381150  0.97441883  1
  Zr  Zr2  1  0.97441804  0.73402716  0.91375350  1
  Zr  Zr3  1  0.08620908  0.02548655  0.26598911  1
  Zr  Zr4  1  0.26599665  0.08615917  0.02554111  1
  Zr  Zr5  1  0.02562910  0.26597060  0.08626894  1
  C  C0  1  -0.00004223  -0.00002227  0.00001045  1
  I  I0  1  0.44127924  0.14227420  0.36760115  1
  I  I1  1  0.14243251  0.36755855  0.44127226  1
  I  I2  1  0.63235543  0.55885955  0.85777080  1
  I  I3  1  0.55869166  0.85791610  0.63234432  1
  I  I4  1  0.85777586  0.63234097  0.55872680  1
  I  I5  1  0.36768590  0.44121011  0.14238428  1
  I  I6  1  0.77410192  0.92182130  0.30773100  1
  I  I7  1  0.30765409  0.77412875  0.92167184  1
  I  I8  1  0.92171691  0.30764320  0.77416182  1
  I  I9  1  0.22583637  0.07827645  0.69232985  1
  I  I10  1  0.69228893  0.22583666  0.07817145  1
  I  I11  1  0.07827028  0.69232296  0.22584621  1
loop_
_geom_bond_atom_site_label_1
_geom_bond_atom_site_label_2
_geom_bond_distance
_geom_bond_site_symmetry_2
C0 Zr0 2.262943 1_444
C0 Zr1 2.262975 1_444
C0 Zr3 2.262981 1_555
C0 Zr5 2.263011 1_555
C0 Zr2 2.263021 1_444
C0 Zr4 2.263376 1_555
I0 Zr3 2.885473 1_555
I0 Zr4 2.901526 1_555
I1 Zr5 2.885038 1_555
I1 Zr3 2.901813 1_555
I2 Zr1 2.885158 1_555
I2 Zr2 2.901724 1_555
I3 Zr0 2.885534 1_555
I3 Zr1 2.902200 1_555
I4 Zr2 2.885213 1_555
I4 Zr0 2.902210 1_555
I5 Zr4 2.885809 1_555
I5 Zr5 2.901434 1_555
I6 Zr3 2.932758 1_665
I6 Zr1 2.962711 1_554
I6 Zr0 3.594397 1_555
I7 Zr4 2.932313 1_566
I7 Zr2 2.962240 1_455
I7 Zr1 3.593920 1_555
I8 Zr5 2.932687 1_656
I8 Zr0 2.962863 1_545
I8 Zr2 3.595574 1_555
I9 Zr0 2.932382 1_445
I9 Zr4 2.962150 1_556
I9 Zr3 3.594355 1_555
I10 Zr1 2.932174 1_544
I10 Zr5 2.962621 1_655
I10 Zr4 3.594247 1_555
I11 Zr2 2.932670 1_454
I11 Zr3 2.962029 1_565
I11 Zr5 3.595456 1_555
