# generated using pymatgen
data_Na9Ca4Ta2(PO4)9
_symmetry_space_group_name_H-M   'P 1'
_cell_length_a   9.26444450
_cell_length_b   27.64309473
_cell_length_c   22.53137529
_cell_angle_alpha   89.88316838
_cell_angle_beta   90.10778515
_cell_angle_gamma   120.25123650
_symmetry_Int_Tables_number   1
_chemical_formula_structural   Na9Ca4Ta2(PO4)9
_chemical_formula_sum   'Na54 Ca24 Ta12 P54 O216'
_cell_volume   4984.46116502
_cell_formula_units_Z   6
loop_
 _symmetry_equiv_pos_site_id
 _symmetry_equiv_pos_as_xyz
  1  'x, y, z'
loop_
 _atom_site_type_symbol
 _atom_site_label
 _atom_site_symmetry_multiplicity
 _atom_site_fract_x
 _atom_site_fract_y
 _atom_site_fract_z
 _atom_site_occupancy
  Na  Na0  1  0.03611421  0.00375173  0.49544154  1
  Na  Na1  1  0.99923212  0.32700138  0.49493147  1
  Na  Na2  1  0.98281208  0.66934935  0.50284445  1
  Na  Na3  1  0.99356755  0.00615083  0.00089285  1
  Na  Na4  1  0.02954152  0.34103886  0.00759674  1
  Na  Na5  1  0.99111615  0.65344948  0.00933404  1
  Na  Na6  1  0.64805403  0.10374993  0.82514148  1
  Na  Na7  1  0.68486494  0.45137330  0.84129673  1
  Na  Na8  1  0.66957031  0.77862082  0.83288472  1
  Na  Na9  1  0.65023688  0.09764251  0.32049039  1
  Na  Na10  1  0.67985281  0.45666161  0.34567135  1
  Na  Na11  1  0.68093217  0.78179967  0.32948146  1
  Na  Na12  1  0.33334307  0.22757176  0.17161366  1
  Na  Na13  1  0.30003593  0.55141207  0.17000016  1
  Na  Na14  1  0.33920846  0.89456238  0.16185909  1
  Na  Na15  1  0.30283766  0.21411875  0.65871738  1
  Na  Na16  1  0.33889688  0.54965915  0.66654338  1
  Na  Na17  1  0.34265627  0.90255391  0.65600990  1
  Na  Na18  1  0.65525795  0.32584010  0.27096518  1
  Na  Na19  1  0.63380810  0.66232025  0.25178222  1
  Na  Na20  1  0.37103457  0.12087038  0.25402810  1
  Na  Na21  1  0.34004846  0.44800041  0.25539256  1
  Na  Na22  1  0.34910113  0.78460651  0.23738069  1
  Na  Na23  1  0.99061833  0.21489979  0.24392843  1
  Na  Na24  1  0.63976709  0.21407945  0.74307860  1
  Na  Na25  1  0.62026619  0.54296701  0.75091797  1
  Na  Na26  1  0.65107864  0.87528822  0.74001410  1
  Na  Na27  1  0.99305345  0.12436545  0.74647301  1
  Na  Na28  1  0.99307230  0.45400604  0.75688405  1
  Na  Na29  1  0.38777484  0.33627511  0.74249576  1
  Na  Na30  1  0.37085027  0.66220424  0.75690758  1
  Na  Na31  1  0.31647320  0.78132768  0.58269549  1
  Na  Na32  1  0.00162719  0.56264760  0.58730822  1
  Na  Na33  1  0.00398006  0.88529952  0.56896418  1
  Na  Na34  1  0.65694620  0.32560558  0.57009278  1
  Na  Na35  1  0.69142281  0.67450038  0.59600504  1
  Na  Na36  1  0.33073988  0.67094975  0.09926095  1
  Na  Na37  1  0.33291445  0.99462621  0.07813605  1
  Na  Na38  1  0.67520815  0.22938867  0.09670046  1
  Na  Na39  1  0.64487503  0.88351826  0.07059083  1
  Na  Na40  1  0.01866558  0.77574660  0.08245140  1
  Na  Na41  1  0.94540835  0.21906160  0.92434007  1
  Na  Na42  1  0.96411718  0.89444483  0.91203616  1
  Na  Na43  1  0.71318370  0.01248611  0.91562177  1
  Na  Na44  1  0.69290188  0.34118031  0.92342898  1
  Na  Na45  1  0.68208346  0.68096543  0.92604163  1
  Na  Na46  1  0.34007248  0.10117198  0.91019223  1
  Na  Na47  1  0.34000796  0.43089764  0.92011074  1
  Na  Na48  1  0.99228914  0.10647009  0.41132507  1
  Na  Na49  1  0.96105674  0.43366545  0.41346157  1
  Na  Na50  1  0.34149994  0.33963264  0.42300448  1
  Na  Na51  1  0.36289915  0.68337037  0.42197053  1
  Na  Na52  1  0.67695083  0.22902145  0.39578999  1
  Na  Na53  1  0.69954182  0.89129900  0.41391388  1
  Ca  Ca0  1  0.00657210  0.00212487  0.34826822  1
  Ca  Ca1  1  0.00974706  0.33943880  0.34520911  1
  Ca  Ca2  1  0.00924320  0.00459780  0.84941443  1
  Ca  Ca3  1  0.00016694  0.33249971  0.85698712  1
  Ca  Ca4  1  0.00906241  0.67222116  0.65289538  1
  Ca  Ca5  1  0.00686332  0.33295074  0.14960358  1
  Ca  Ca6  1  0.99852478  0.66763702  0.15088581  1
  Ca  Ca7  1  0.65291363  0.10811045  0.68004026  1
  Ca  Ca8  1  0.67800737  0.45340270  0.67812881  1
  Ca  Ca9  1  0.67757931  0.77173391  0.68703592  1
  Ca  Ca10  1  0.67890699  0.11355202  0.17611279  1
  Ca  Ca11  1  0.66500651  0.77737191  0.18492754  1
  Ca  Ca12  1  0.65557107  0.10206362  0.98868917  1
  Ca  Ca13  1  0.68002182  0.44727710  0.98659042  1
  Ca  Ca14  1  0.66029250  0.78543505  0.97972497  1
  Ca  Ca15  1  0.65385618  0.44202834  0.49057670  1
  Ca  Ca16  1  0.69177782  0.78212631  0.47979842  1
  Ca  Ca17  1  0.32631533  0.88326258  0.01413335  1
  Ca  Ca18  1  0.32589842  0.22231576  0.51681547  1
  Ca  Ca19  1  0.32874739  0.88591479  0.51346440  1
  Ca  Ca20  1  0.32273635  0.21569329  0.32114829  1
  Ca  Ca21  1  0.32194444  0.55173993  0.31696938  1
  Ca  Ca22  1  0.33296805  0.22280074  0.80970826  1
  Ca  Ca23  1  0.32419829  0.55107379  0.81773213  1
  Ta  Ta0  1  0.99624098  0.66065427  0.35017415  1
  Ta  Ta1  1  0.99652406  0.66564210  0.85167491  1
  Ta  Ta2  1  0.00097677  0.99948636  0.65080407  1
  Ta  Ta3  1  0.00498009  0.33110598  0.65014520  1
  Ta  Ta4  1  0.98661956  0.99790081  0.15677299  1
  Ta  Ta5  1  0.67433526  0.44635471  0.17615907  1
  Ta  Ta6  1  0.65821711  0.10889829  0.49029347  1
  Ta  Ta7  1  0.32768680  0.22407226  0.01656185  1
  Ta  Ta8  1  0.33252374  0.55612733  0.01560324  1
  Ta  Ta9  1  0.34625430  0.55597697  0.51106148  1
  Ta  Ta10  1  0.33142888  0.89531392  0.31855525  1
  Ta  Ta11  1  0.33658019  0.89002737  0.81483714  1
  P  P0  1  0.29276145  0.99683556  0.24884748  1
  P  P1  1  0.32199843  0.33763453  0.25269978  1
  P  P2  1  0.30102261  0.66619879  0.25247984  1
  P  P3  1  0.69113312  0.22814564  0.24834380  1
  P  P4  1  0.70271169  0.56409316  0.24925434  1
  P  P5  1  0.68247237  0.90014826  0.25739616  1
  P  P6  1  0.00545255  0.10193487  0.25384204  1
  P  P7  1  0.98799973  0.43504082  0.25036675  1
  P  P8  1  0.00192428  0.76530591  0.25477987  1
  P  P9  1  0.29485790  0.10284141  0.74944420  1
  P  P10  1  0.29526739  0.42934385  0.75293479  1
  P  P11  1  0.30390797  0.76660221  0.75494493  1
  P  P12  1  0.99263244  0.23318513  0.75365310  1
  P  P13  1  0.99370822  0.56693715  0.75082854  1
  P  P14  1  0.01906010  0.90338440  0.75178458  1
  P  P15  1  0.69855352  0.99661270  0.75624727  1
  P  P16  1  0.71091227  0.33559398  0.74577402  1
  P  P17  1  0.69722064  0.66454153  0.75179029  1
  P  P18  1  0.95277664  0.10486797  0.58993513  1
  P  P19  1  0.98838363  0.44511518  0.58288517  1
  P  P20  1  0.98685832  0.77870248  0.58453166  1
  P  P21  1  0.34972476  0.00995243  0.58854108  1
  P  P22  1  0.35677177  0.33957528  0.58707300  1
  P  P23  1  0.36129487  0.67232727  0.57890637  1
  P  P24  1  0.67828734  0.21380043  0.58835460  1
  P  P25  1  0.66678972  0.55143754  0.58845127  1
  P  P26  1  0.66720369  0.87813148  0.58884846  1
  P  P27  1  0.97642848  0.21596037  0.07952722  1
  P  P28  1  0.98413497  0.54540218  0.07804361  1
  P  P29  1  0.97238679  0.88362403  0.08037908  1
  P  P30  1  0.66873698  0.00464433  0.07824798  1
  P  P31  1  0.65461820  0.34154524  0.07816877  1
  P  P32  1  0.66540702  0.67761161  0.07751878  1
  P  P33  1  0.34237824  0.10970574  0.08397832  1
  P  P34  1  0.38033463  0.45083510  0.07674766  1
  P  P35  1  0.35157716  0.77762530  0.08798158  1
  P  P36  1  0.62241709  0.21992306  0.92107866  1
  P  P37  1  0.63510989  0.55906826  0.91057579  1
  P  P38  1  0.63508464  0.89051175  0.91481915  1
  P  P39  1  0.03768142  0.12611821  0.91371458  1
  P  P40  1  0.03836080  0.45260317  0.91727026  1
  P  P41  1  0.03053906  0.78889837  0.91221254  1
  P  P42  1  0.34083189  0.32223307  0.91305517  1
  P  P43  1  0.31407174  0.65253290  0.91547182  1
  P  P44  1  0.34081786  0.98860574  0.91569643  1
  P  P45  1  0.64142080  0.32720932  0.41824407  1
  P  P46  1  0.64410877  0.65406818  0.40906121  1
  P  P47  1  0.62972639  0.99125552  0.41810911  1
  P  P48  1  0.34481993  0.12052924  0.41591666  1
  P  P49  1  0.32659274  0.45272554  0.41265366  1
  P  P50  1  0.33318778  0.78949853  0.41195008  1
  P  P51  1  0.01103878  0.21772533  0.41390324  1
  P  P52  1  0.04107220  0.55934228  0.41857607  1
  P  P53  1  0.02853015  0.89002061  0.41711416  1
  O  O0  1  0.22792184  0.00707300  0.30569619  1
  O  O1  1  0.27999186  0.35492470  0.31256869  1
  O  O2  1  0.16823569  0.65740799  0.30499579  1
  O  O3  1  0.79440058  0.26545310  0.30133004  1
  O  O4  1  0.81594833  0.59487000  0.30783596  1
  O  O5  1  0.76607617  0.92526286  0.31594008  1
  O  O6  1  0.01611867  0.08185953  0.31580745  1
  O  O7  1  0.94446366  0.41054049  0.31351366  1
  O  O8  1  0.98615615  0.71599488  0.29768118  1
  O  O9  1  0.22329805  0.07954166  0.81054856  1
  O  O10  1  0.22714169  0.40367330  0.81366715  1
  O  O11  1  0.17565274  0.72348725  0.80209051  1
  O  O12  1  0.98920262  0.25871955  0.81317623  1
  O  O13  1  0.99971394  0.60755725  0.80383586  1
  O  O14  1  0.00887984  0.93099854  0.80855957  1
  O  O15  1  0.77384263  0.00123323  0.81739728  1
  O  O16  1  0.80429709  0.33846501  0.80296385  1
  O  O17  1  0.81459159  0.66104535  0.80311738  1
  O  O18  1  0.81892252  0.33457024  0.69061828  1
  O  O19  1  0.78677279  0.67081200  0.69365172  1
  O  O20  1  0.81170842  0.98832844  0.70819533  1
  O  O21  1  0.16679136  0.05782077  0.70128617  1
  O  O22  1  0.17582068  0.38470191  0.70386099  1
  O  O23  1  0.23421925  0.74902039  0.69300156  1
  O  O24  1  0.97052313  0.27040846  0.70252180  1
  O  O25  1  0.98900984  0.59393384  0.69233065  1
  O  O26  1  0.03931833  0.94189671  0.69612612  1
  O  O27  1  0.78202417  0.25533699  0.19014105  1
  O  O28  1  0.77859982  0.60533700  0.19935464  1
  O  O29  1  0.79471611  0.93987302  0.20438354  1
  O  O30  1  0.00012125  0.05443922  0.20986172  1
  O  O31  1  0.00193039  0.39425058  0.20929635  1
  O  O32  1  0.05060641  0.75398890  0.19392650  1
  O  O33  1  0.18605312  0.32336346  0.20698715  1
  O  O34  1  0.21948148  0.67110779  0.19615493  1
  O  O35  1  0.16603237  0.98742750  0.19602034  1
  O  O36  1  0.89383250  0.11502122  0.64846302  1
  O  O37  1  0.94219338  0.46775919  0.63747713  1
  O  O38  1  0.88316545  0.77288469  0.64001068  1
  O  O39  1  0.43124128  0.02939218  0.64802851  1
  O  O40  1  0.47410341  0.37749091  0.63611708  1
  O  O41  1  0.45816289  0.69399730  0.63774042  1
  O  O42  1  0.66807919  0.18807907  0.64825009  1
  O  O43  1  0.63287624  0.52916899  0.65210994  1
  O  O44  1  0.64104465  0.83900992  0.64164610  1
  O  O45  1  0.92486170  0.18988037  0.14125143  1
  O  O46  1  0.86733407  0.50342587  0.12870321  1
  O  O47  1  0.86467012  0.83776331  0.12468620  1
  O  O48  1  0.62935724  0.04180485  0.11700585  1
  O  O49  1  0.64243300  0.38232049  0.12676822  1
  O  O50  1  0.62757156  0.69711622  0.13654265  1
  O  O51  1  0.47181683  0.13014650  0.13380975  1
  O  O52  1  0.51291038  0.45966378  0.12771124  1
  O  O53  1  0.43588400  0.77449124  0.14603368  1
  O  O54  1  0.38953672  0.08724079  0.02937160  1
  O  O55  1  0.43934357  0.44068497  0.01814991  1
  O  O56  1  0.47229647  0.78568908  0.03726103  1
  O  O57  1  0.85942884  0.17810540  0.03045980  1
  O  O58  1  0.90193364  0.52619081  0.01865908  1
  O  O59  1  0.89593517  0.86976247  0.01745394  1
  O  O60  1  0.70591669  0.02718782  0.01472966  1
  O  O61  1  0.66527641  0.36738300  0.01828535  1
  O  O62  1  0.69219413  0.71682884  0.02487293  1
  O  O63  1  0.46645604  0.05246668  0.53815158  1
  O  O64  1  0.40801359  0.36578056  0.52537456  1
  O  O65  1  0.45120744  0.71029527  0.52551707  1
  O  O66  1  0.69064348  0.17339855  0.53956845  1
  O  O67  1  0.70561010  0.51435417  0.54936795  1
  O  O68  1  0.70707582  0.85856406  0.53021261  1
  O  O69  1  0.82046258  0.09593526  0.53891768  1
  O  O70  1  0.85972659  0.42505145  0.53284426  1
  O  O71  1  0.88287138  0.77631917  0.53010057  1
  O  O72  1  0.51434976  0.22090886  0.97625732  1
  O  O73  1  0.52145644  0.56722056  0.95872326  1
  O  O74  1  0.54480305  0.88249570  0.97319211  1
  O  O75  1  0.15729591  0.17091738  0.96270650  1
  O  O76  1  0.16667028  0.49767025  0.96545644  1
  O  O77  1  0.10074731  0.80604061  0.97431091  1
  O  O78  1  0.36278769  0.28503154  0.96417546  1
  O  O79  1  0.29339565  0.61341809  0.97065519  1
  O  O80  1  0.34713375  0.96118198  0.97367384  1
  O  O81  1  0.55096633  0.30026182  0.47650626  1
  O  O82  1  0.53631985  0.61441321  0.46308222  1
  O  O83  1  0.55239581  0.95085018  0.46863835  1
  O  O84  1  0.33132463  0.16100138  0.45749559  1
  O  O85  1  0.33155964  0.49986863  0.45706245  1
  O  O86  1  0.30629857  0.80328967  0.47456747  1
  O  O87  1  0.14722637  0.23249732  0.45959531  1
  O  O88  1  0.17044701  0.56925783  0.47053331  1
  O  O89  1  0.10066571  0.88409763  0.47517907  1
  O  O90  1  0.05373108  0.20068799  0.35403794  1
  O  O91  1  0.11028615  0.55253350  0.36093316  1
  O  O92  1  0.16715686  0.89737667  0.36715517  1
  O  O93  1  0.53748218  0.29014591  0.36528170  1
  O  O94  1  0.55716474  0.62814245  0.35113166  1
  O  O95  1  0.51561426  0.96047850  0.35958677  1
  O  O96  1  0.39195645  0.14618640  0.35326176  1
  O  O97  1  0.31512257  0.47311556  0.35088286  1
  O  O98  1  0.35162525  0.83802820  0.36829974  1
  O  O99  1  0.10576976  0.15177572  0.85300183  1
  O  O100  1  0.10987301  0.47606977  0.85622043  1
  O  O101  1  0.15779843  0.83208588  0.86515536  1
  O  O102  1  0.34444469  0.29685250  0.85348263  1
  O  O103  1  0.32783665  0.62565997  0.85863389  1
  O  O104  1  0.33400422  0.94831028  0.86221211  1
  O  O105  1  0.52966784  0.21735715  0.86387603  1
  O  O106  1  0.55968204  0.55451317  0.84944351  1
  O  O107  1  0.51730569  0.89445519  0.86411722  1
  O  O108  1  0.97183464  0.26542921  0.40955223  1
  O  O109  1  0.03551035  0.61657791  0.41668065  1
  O  O110  1  0.00679097  0.94136735  0.41801366  1
  O  O111  1  0.81626611  0.33212610  0.41869708  1
  O  O112  1  0.82199585  0.65853891  0.40977307  1
  O  O113  1  0.80907971  0.00539910  0.40800115  1
  O  O114  1  0.18680724  0.06307117  0.41916966  1
  O  O115  1  0.16632256  0.39783753  0.42828779  1
  O  O116  1  0.17930842  0.73063072  0.39289366  1
  O  O117  1  0.04468924  0.07239853  0.92651633  1
  O  O118  1  0.04342063  0.39904012  0.93192482  1
  O  O119  1  0.00682076  0.72935006  0.89815548  1
  O  O120  1  0.17491862  0.31969866  0.92748941  1
  O  O121  1  0.15257695  0.65905451  0.91189255  1
  O  O122  1  0.18356882  0.99361073  0.91452029  1
  O  O123  1  0.79349453  0.27391897  0.92763067  1
  O  O124  1  0.81133241  0.61621637  0.91354870  1
  O  O125  1  0.80448121  0.94586630  0.91718155  1
  O  O126  1  0.95307533  0.04690819  0.59685171  1
  O  O127  1  0.01612039  0.39492587  0.59882684  1
  O  O128  1  0.02164593  0.72941474  0.57882504  1
  O  O129  1  0.17577160  0.01027859  0.58846425  1
  O  O130  1  0.17497458  0.33125858  0.59972778  1
  O  O131  1  0.18003068  0.65976838  0.58177008  1
  O  O132  1  0.84456415  0.27434646  0.58572205  1
  O  O133  1  0.80595134  0.61296999  0.58256710  1
  O  O134  1  0.83731960  0.93589724  0.60271318  1
  O  O135  1  0.99019304  0.27341475  0.07487995  1
  O  O136  1  0.03113864  0.60511890  0.09326403  1
  O  O137  1  0.97297044  0.94033481  0.09779328  1
  O  O138  1  0.83099163  0.00313343  0.10103964  1
  O  O139  1  0.79819329  0.33214466  0.09214096  1
  O  O140  1  0.81399241  0.66806881  0.08062606  1
  O  O141  1  0.17011284  0.05884603  0.10639422  1
  O  O142  1  0.20763065  0.40570758  0.09444264  1
  O  O143  1  0.18120103  0.72350171  0.07723166  1
  O  O144  1  0.68274540  0.04740543  0.74386669  1
  O  O145  1  0.69795284  0.38889657  0.74107847  1
  O  O146  1  0.67003478  0.71318916  0.76806865  1
  O  O147  1  0.47152798  0.11266194  0.74519265  1
  O  O148  1  0.47254433  0.43879988  0.74651198  1
  O  O149  1  0.47164443  0.76935187  0.76371609  1
  O  O150  1  0.84223202  0.17329206  0.75081193  1
  O  O151  1  0.83464725  0.51042233  0.76208150  1
  O  O152  1  0.85995258  0.84684272  0.74399620  1
  O  O153  1  0.67238803  0.16900582  0.25569388  1
  O  O154  1  0.70192282  0.50752618  0.23950908  1
  O  O155  1  0.65183155  0.84138779  0.24679822  1
  O  O156  1  0.84981002  0.10637206  0.24523126  1
  O  O157  1  0.82714744  0.43848342  0.22920423  1
  O  O158  1  0.83387701  0.76241016  0.25758195  1
  O  O159  1  0.46296288  0.04603282  0.23333997  1
  O  O160  1  0.49015211  0.39359189  0.22983143  1
  O  O161  1  0.46129805  0.72102001  0.26855854  1
  O  O162  1  0.63506078  0.16659249  0.92580712  1
  O  O163  1  0.65044895  0.50819184  0.92292645  1
  O  O164  1  0.66278276  0.84207988  0.89782949  1
  O  O165  1  0.86060786  0.11676641  0.92020448  1
  O  O166  1  0.86180616  0.44279502  0.92161473  1
  O  O167  1  0.86183647  0.78551952  0.90380054  1
  O  O168  1  0.49995577  0.04516955  0.90472795  1
  O  O169  1  0.49124517  0.38221937  0.91590099  1
  O  O170  1  0.47104290  0.70940268  0.92453912  1
  O  O171  1  0.63248611  0.04832064  0.42720590  1
  O  O172  1  0.66142471  0.38659592  0.41096958  1
  O  O173  1  0.65741160  0.71055712  0.41891901  1
  O  O174  1  0.50444958  0.11632920  0.43742499  1
  O  O175  1  0.48318011  0.44868303  0.42079318  1
  O  O176  1  0.49216860  0.78578244  0.40486830  1
  O  O177  1  0.84320180  0.16192230  0.43677627  1
  O  O178  1  0.87180328  0.50908370  0.43258898  1
  O  O179  1  0.86292318  0.83815382  0.39991367  1
  O  O180  1  0.31519149  0.16007498  0.06773538  1
  O  O181  1  0.38088423  0.50895395  0.07009158  1
  O  O182  1  0.32110137  0.82793335  0.09290816  1
  O  O183  1  0.15828497  0.22431086  0.06697980  1
  O  O184  1  0.15739433  0.54487738  0.07823146  1
  O  O185  1  0.15476151  0.89677640  0.08324430  1
  O  O186  1  0.48868759  0.28114273  0.08102946  1
  O  O187  1  0.49485222  0.61998109  0.06425422  1
  O  O188  1  0.52576977  0.94344465  0.08316484  1
  O  O189  1  0.34303414  0.28215318  0.59162260  1
  O  O190  1  0.35525538  0.61331169  0.56917237  1
  O  O191  1  0.30487792  0.95071377  0.57289718  1
  O  O192  1  0.53493438  0.22340934  0.57461565  1
  O  O193  1  0.50032988  0.55096500  0.56656468  1
  O  O194  1  0.51880081  0.88746344  0.58531440  1
  O  O195  1  0.12567503  0.15009672  0.57235021  1
  O  O196  1  0.16083250  0.49588757  0.56014964  1
  O  O197  1  0.15689358  0.83388384  0.58917459  1
  O  O198  1  0.36085540  0.28995607  0.25684944  1
  O  O199  1  0.33333094  0.61716541  0.24900970  1
  O  O200  1  0.30020424  0.94019077  0.25359035  1
  O  O201  1  0.51614500  0.22302503  0.24765336  1
  O  O202  1  0.52185721  0.54915710  0.25880512  1
  O  O203  1  0.50289794  0.89560332  0.25572153  1
  O  O204  1  0.16667157  0.15664869  0.23811451  1
  O  O205  1  0.14452772  0.49285547  0.24583850  1
  O  O206  1  0.15115846  0.82278311  0.27702830  1
  O  O207  1  0.29029402  0.15651372  0.73474596  1
  O  O208  1  0.28865582  0.48318312  0.74030050  1
  O  O209  1  0.32748428  0.82606968  0.76894499  1
  O  O210  1  0.15868337  0.23590074  0.73914791  1
  O  O211  1  0.15136078  0.56215282  0.75262992  1
  O  O212  1  0.17922144  0.89597653  0.75504151  1
  O  O213  1  0.54004373  0.28161267  0.73932609  1
  O  O214  1  0.52658304  0.60951409  0.74965917  1
  O  O215  1  0.52188188  0.93939469  0.75348016  1
loop_
_geom_bond_atom_site_label_1
_geom_bond_atom_site_label_2
_geom_bond_distance
_geom_bond_site_symmetry_2
Na0 O114 2.298281 1_555
Na0 O110 2.372682 1_545
Na0 O129 2.419844 1_555
Na0 O113 2.896239 1_455
Na1 O115 2.329781 1_655
Na1 O111 2.464496 1_555
Na1 O108 2.497653 1_555
Na1 O132 2.500775 1_555
Na1 O130 2.834368 1_655
Na1 O127 2.958108 1_655
Na2 O128 2.285713 1_655
Na2 O133 2.401431 1_555
Na2 O112 2.499748 1_555
Na2 O109 2.620699 1_655
Na2 O131 2.654112 1_655
Na3 O117 2.345811 1_654
Na3 O125 2.542099 1_544
Na3 O138 2.693047 1_555
Na3 O122 2.763403 1_644
Na3 O137 2.783674 1_545
Na3 O141 2.836636 1_655
Na4 O135 2.286794 1_455
Na4 O118 2.296991 1_554
Na4 O120 2.496750 1_554
Na4 O142 2.603276 1_555
Na4 O123 2.716919 1_454
Na4 O139 2.786641 1_455
Na5 O143 2.399456 1_655
Na5 O136 2.446362 1_655
Na5 O140 2.473259 1_555
Na5 O124 2.599904 1_554
Na5 O121 2.619004 1_654
Na6 O168 2.340742 1_555
Na6 O150 2.500043 1_555
Na6 O147 2.524524 1_555
Na6 O144 2.529992 1_555
Na6 O165 2.805045 1_555
Na6 O162 2.899044 1_555
Na7 O151 2.343241 1_555
Na7 O169 2.498141 1_555
Na7 O166 2.529247 1_555
Na7 O163 2.543603 1_555
Na7 O148 2.801660 1_555
Na7 O145 2.885160 1_555
Na8 O164 2.311792 1_555
Na8 O149 2.318254 1_555
Na8 O167 2.326052 1_555
Na8 O146 2.328718 1_555
Na8 O152 2.706465 1_555
Na8 O170 2.785828 1_555
Na9 O153 2.376261 1_555
Na9 O156 2.431611 1_555
Na9 O159 2.530994 1_555
Na9 O171 2.725711 1_555
Na10 O172 2.366689 1_555
Na10 O175 2.416323 1_555
Na10 O178 2.549411 1_555
Na10 O154 2.727421 1_555
Na11 O179 2.267471 1_555
Na11 O161 2.324158 1_555
Na11 O158 2.386800 1_555
Na11 O176 2.482228 1_555
Na11 O155 2.586436 1_555
Na11 O173 2.745868 1_555
Na12 O204 2.327988 1_555
Na12 O201 2.453964 1_555
Na12 O186 2.506224 1_555
Na12 O198 2.509158 1_555
Na12 O183 2.834715 1_555
Na12 O180 2.947505 1_555
Na13 O205 2.294299 1_555
Na13 O184 2.409352 1_555
Na13 O199 2.452389 1_555
Na13 O181 2.812253 1_555
Na13 O202 2.888564 1_555
Na13 O187 3.012948 1_555
Na14 O182 2.352320 1_555
Na14 O188 2.367618 1_555
Na14 O185 2.480884 1_555
Na14 O200 2.542823 1_555
Na14 O203 2.591791 1_555
Na15 O189 2.290381 1_555
Na15 O207 2.299309 1_555
Na15 O210 2.500807 1_555
Na15 O195 2.586125 1_555
Na15 O213 2.734340 1_555
Na15 O192 2.781582 1_555
Na16 O208 2.341756 1_555
Na16 O214 2.523827 1_555
Na16 O193 2.696386 1_555
Na16 O211 2.742286 1_555
Na16 O190 2.765687 1_555
Na16 O196 2.864672 1_555
Na17 O197 2.354385 1_555
Na17 O191 2.420426 1_555
Na17 O194 2.464277 1_555
Na17 O215 2.628455 1_555
Na17 O212 2.652943 1_555
Na18 O93 2.365480 1_555
Na18 O198 2.407536 1_555
Na18 O201 2.515432 1_555
Na18 O3 2.660168 1_555
Na18 O7 2.694162 1_555
Na18 O157 2.848605 1_555
Na19 O94 2.393533 1_555
Na19 O199 2.410355 1_555
Na19 O158 2.437443 1_555
Na19 O202 2.759676 1_555
Na19 O50 2.777700 1_555
Na19 O28 2.796173 1_555
Na19 O161 2.819201 1_555
Na19 O8 3.006681 1_555
Na20 O96 2.322607 1_555
Na20 O153 2.413135 1_555
Na20 O201 2.444618 1_555
Na20 O204 2.563997 1_555
Na20 O159 2.646312 1_555
Na20 O51 2.835481 1_555
Na20 O0 2.965994 1_555
Na21 O97 2.309523 1_555
Na21 O202 2.432467 1_555
Na21 O160 2.577121 1_555
Na21 O205 2.669343 1_555
Na21 O1 2.671287 1_555
Na21 O31 2.898833 1_555
Na21 O154 2.918743 1_555
Na22 O53 2.279421 1_555
Na22 O155 2.436842 1_555
Na22 O161 2.548854 1_555
Na22 O32 2.637654 1_555
Na22 O203 2.685766 1_555
Na22 O206 2.689722 1_555
Na22 O34 2.891361 1_555
Na23 O45 2.403793 1_555
Na23 O153 2.569965 1_555
Na23 O156 2.599880 1_555
Na23 O90 2.621677 1_655
Na23 O33 2.736116 1_655
Na23 O204 2.813940 1_655
Na24 O42 2.312753 1_555
Na24 O147 2.426553 1_555
Na24 O213 2.466297 1_555
Na24 O150 2.636060 1_555
Na24 O24 2.801163 1_555
Na24 O207 2.803169 1_555
Na24 O105 2.925923 1_555
Na25 O43 2.272618 1_555
Na25 O106 2.352235 1_555
Na25 O214 2.397188 1_555
Na25 O148 2.490850 1_555
Na25 O151 2.571930 1_555
Na25 O208 2.666437 1_555
Na26 O44 2.416811 1_555
Na26 O152 2.429646 1_555
Na26 O149 2.591560 1_555
Na26 O215 2.608792 1_555
Na26 O209 2.675354 1_555
Na26 O20 2.793258 1_555
Na27 O36 2.354514 1_555
Na27 O150 2.386699 1_555
Na27 O207 2.445161 1_655
Na27 O99 2.574196 1_655
Na27 O144 2.575174 1_555
Na27 O210 2.668292 1_655
Na28 O145 2.425342 1_555
Na28 O100 2.425667 1_655
Na28 O208 2.462980 1_655
Na28 O211 2.584372 1_655
Na28 O151 2.628253 1_555
Na28 O37 2.788656 1_555
Na28 O16 2.950046 1_555
Na29 O145 2.482556 1_555
Na29 O210 2.505126 1_555
Na29 O148 2.532833 1_555
Na29 O213 2.535146 1_555
Na29 O40 2.600116 1_555
Na29 O102 2.674705 1_555
Na30 O146 2.407291 1_555
Na30 O103 2.453792 1_555
Na30 O211 2.475316 1_555
Na30 O214 2.519713 1_555
Na30 O149 2.623516 1_555
Na30 O41 2.813927 1_555
Na31 O128 2.361726 1_555
Na31 O86 2.522626 1_555
Na31 O197 2.546278 1_555
Na31 O194 2.565936 1_555
Na31 O23 2.620609 1_555
Na32 O131 2.341685 1_555
Na32 O67 2.518104 1_455
Na32 O25 2.544062 1_455
Na32 O37 2.645018 1_455
Na33 O89 2.303491 1_555
Na33 O191 2.443224 1_555
Na33 O197 2.501606 1_555
Na33 O68 2.611501 1_455
Na33 O134 2.665188 1_455
Na33 O71 2.775331 1_455
Na34 O81 2.281736 1_555
Na34 O192 2.459793 1_555
Na34 O70 2.565851 1_555
Na34 O189 2.572751 1_555
Na34 O132 2.762302 1_555
Na35 O19 2.390346 1_555
Na35 O133 2.435617 1_555
Na35 O38 2.582963 1_555
Na35 O41 2.651039 1_555
Na35 O128 2.671413 1_655
Na35 O190 2.759583 1_555
Na35 O71 2.869779 1_555
Na36 O34 2.416954 1_555
Na36 O136 2.438082 1_555
Na36 O143 2.509644 1_555
Na36 O50 2.603993 1_555
Na36 O187 2.662012 1_555
Na36 O53 2.729638 1_555
Na37 O185 2.356886 1_555
Na37 O48 2.529260 1_565
Na37 O80 2.558243 1_554
Na37 O54 2.583465 1_565
Na37 O188 2.784320 1_555
Na38 O27 2.282408 1_555
Na38 O139 2.472941 1_555
Na38 O51 2.561986 1_555
Na38 O135 2.581293 1_555
Na38 O186 2.764776 1_555
Na39 O74 2.375390 1_554
Na39 O188 2.426289 1_555
Na39 O56 2.465910 1_555
Na39 O182 2.640054 1_555
Na39 O137 2.696000 1_555
Na39 O59 2.809171 1_555
Na39 O138 2.938901 1_565
Na40 O182 2.431762 1_555
Na40 O143 2.561164 1_555
Na40 O77 2.563854 1_554
Na40 O140 2.601990 1_455
Na40 O32 2.632157 1_555
Na40 O47 2.890682 1_455
Na40 O62 2.917897 1_455
Na40 O185 2.921159 1_555
Na41 O162 2.483920 1_555
Na41 O120 2.511059 1_655
Na41 O165 2.526752 1_555
Na41 O123 2.537138 1_555
Na41 O57 2.592437 1_556
Na41 O12 2.680350 1_555
Na42 O164 2.432731 1_555
Na42 O122 2.456781 1_655
Na42 O59 2.463925 1_556
Na42 O14 2.490094 1_655
Na42 O125 2.518077 1_555
Na42 O167 2.669353 1_555
Na43 O60 2.277715 1_556
Na43 O15 2.343961 1_555
Na43 O125 2.382675 1_545
Na43 O165 2.493863 1_555
Na43 O168 2.564064 1_555
Na43 O117 2.666327 1_655
Na44 O61 2.313681 1_556
Na44 O166 2.431345 1_555
Na44 O123 2.465635 1_555
Na44 O169 2.634305 1_555
Na44 O78 2.797704 1_555
Na44 O118 2.811719 1_655
Na44 O16 2.920143 1_555
Na45 O62 2.421758 1_556
Na45 O170 2.447456 1_555
Na45 O167 2.554462 1_555
Na45 O124 2.622872 1_555
Na45 O119 2.680317 1_655
Na45 O73 2.814828 1_555
Na46 O162 2.425320 1_555
Na46 O9 2.431665 1_555
Na46 O117 2.462955 1_555
Na46 O122 2.570605 1_545
Na46 O168 2.630147 1_555
Na46 O54 2.781721 1_556
Na47 O55 2.354472 1_556
Na47 O169 2.384020 1_555
Na47 O118 2.441316 1_555
Na47 O10 2.572296 1_555
Na47 O163 2.578595 1_555
Na47 O120 2.660353 1_555
Na48 O6 2.302688 1_655
Na48 O113 2.432018 1_555
Na48 O177 2.593478 1_555
Na48 O114 2.625705 1_655
Na48 O90 2.696041 1_655
Na48 O171 2.902858 1_555
Na48 O84 2.905797 1_655
Na49 O7 2.325761 1_555
Na49 O172 2.400483 1_555
Na49 O111 2.428436 1_555
Na49 O115 2.569590 1_655
Na49 O178 2.637764 1_555
Na49 O70 2.820455 1_555
Na50 O64 2.403115 1_555
Na50 O172 2.582312 1_555
Na50 O175 2.612539 1_555
Na50 O1 2.632106 1_555
Na50 O87 2.704587 1_555
Na50 O115 2.805235 1_555
Na51 O173 2.438977 1_555
Na51 O65 2.460236 1_555
Na51 O176 2.485637 1_555
Na51 O109 2.641912 1_555
Na51 O116 2.694460 1_555
Na51 O88 2.941593 1_555
Na52 O3 2.371445 1_555
Na52 O108 2.408372 1_555
Na52 O111 2.520412 1_555
Na52 O96 2.653383 1_555
Na52 O93 2.681178 1_555
Na52 O174 2.848825 1_555
Na53 O5 2.355412 1_555
Na53 O110 2.461018 1_655
Na53 O176 2.568068 1_555
Na53 O179 2.606355 1_555
Na53 O68 2.782684 1_555
Na53 O113 2.787388 1_565
Na53 O83 2.892120 1_555
Na53 O98 2.970746 1_555
Ca0 O0 2.206429 1_555
Ca0 O6 2.279937 1_555
Ca0 O5 2.288998 1_445
Ca0 O110 2.298468 1_545
Ca0 O113 2.311668 1_455
Ca0 O114 2.311926 1_555
Ca1 O3 2.242794 1_455
Ca1 O111 2.374917 1_455
Ca1 O108 2.382524 1_455
Ca1 O115 2.420080 1_555
Ca1 O1 2.432738 1_555
Ca1 O7 2.435013 1_455
Ca2 O9 2.202503 1_555
Ca2 O14 2.233231 1_545
Ca2 O15 2.252813 1_455
Ca2 O122 2.309964 1_545
Ca2 O125 2.337398 1_445
Ca2 O117 2.455492 1_555
Ca3 O12 2.223381 1_455
Ca3 O10 2.253148 1_555
Ca3 O16 2.257000 1_455
Ca3 O118 2.379541 1_555
Ca3 O123 2.387205 1_455
Ca3 O120 2.415564 1_555
Ca4 O19 2.238752 1_455
Ca4 O25 2.257219 1_455
Ca4 O128 2.258912 1_555
Ca4 O23 2.283309 1_555
Ca4 O133 2.372425 1_455
Ca4 O131 2.399305 1_555
Ca5 O31 2.184021 1_555
Ca5 O33 2.220731 1_555
Ca5 O27 2.296186 1_455
Ca5 O142 2.297510 1_555
Ca5 O135 2.306771 1_455
Ca5 O139 2.315466 1_455
Ca6 O28 2.185179 1_555
Ca6 O34 2.243789 1_655
Ca6 O136 2.302235 1_655
Ca6 O143 2.317280 1_655
Ca6 O140 2.332206 1_555
Ca6 O32 2.391311 1_655
Ca7 O39 2.229563 1_555
Ca7 O36 2.258369 1_555
Ca7 O42 2.258414 1_555
Ca7 O147 2.284231 1_555
Ca7 O144 2.327316 1_555
Ca7 O150 2.383795 1_555
Ca8 O40 2.207992 1_555
Ca8 O148 2.322609 1_555
Ca8 O145 2.355028 1_555
Ca8 O43 2.404473 1_555
Ca8 O151 2.421879 1_555
Ca8 O37 2.452577 1_555
Ca9 O38 2.167420 1_555
Ca9 O44 2.290021 1_555
Ca9 O152 2.297975 1_555
Ca9 O41 2.362925 1_555
Ca9 O146 2.414931 1_555
Ca9 O149 2.552381 1_555
Ca10 O48 2.238073 1_555
Ca10 O156 2.297322 1_555
Ca10 O159 2.320806 1_555
Ca10 O45 2.327389 1_555
Ca10 O153 2.381907 1_555
Ca10 O51 2.382845 1_555
Ca11 O47 2.222533 1_555
Ca11 O53 2.259003 1_555
Ca11 O155 2.306085 1_555
Ca11 O50 2.337471 1_555
Ca11 O158 2.436809 1_555
Ca11 O161 2.564798 1_555
Ca12 O57 2.207380 1_556
Ca12 O165 2.320577 1_555
Ca12 O162 2.357020 1_555
Ca12 O60 2.410936 1_556
Ca12 O168 2.418262 1_555
Ca12 O54 2.464158 1_556
Ca13 O58 2.233700 1_556
Ca13 O61 2.257465 1_556
Ca13 O55 2.259792 1_556
Ca13 O166 2.283677 1_555
Ca13 O163 2.328435 1_555
Ca13 O169 2.379457 1_555
Ca14 O56 2.175986 1_556
Ca14 O62 2.296643 1_556
Ca14 O170 2.308037 1_555
Ca14 O59 2.407488 1_556
Ca14 O164 2.410226 1_555
Ca14 O167 2.533862 1_555
Ca15 O67 2.241507 1_555
Ca15 O175 2.299745 1_555
Ca15 O64 2.325444 1_555
Ca15 O178 2.334281 1_555
Ca15 O70 2.378677 1_555
Ca15 O172 2.385389 1_555
Ca16 O71 2.173154 1_555
Ca16 O173 2.296023 1_555
Ca16 O68 2.341467 1_555
Ca16 O65 2.347856 1_555
Ca16 O179 2.382744 1_555
Ca16 O176 2.540899 1_555
Ca17 O74 2.235840 1_554
Ca17 O80 2.254269 1_554
Ca17 O77 2.287995 1_554
Ca17 O182 2.325234 1_555
Ca17 O188 2.345983 1_555
Ca17 O185 2.387522 1_555
Ca18 O84 2.181057 1_555
Ca18 O87 2.222902 1_555
Ca18 O195 2.293316 1_555
Ca18 O81 2.299464 1_555
Ca18 O189 2.312561 1_555
Ca18 O192 2.319279 1_555
Ca19 O83 2.188217 1_555
Ca19 O89 2.257873 1_555
Ca19 O197 2.281754 1_555
Ca19 O191 2.336807 1_555
Ca19 O86 2.357309 1_555
Ca19 O194 2.374114 1_555
Ca20 O93 2.248988 1_555
Ca20 O201 2.374392 1_555
Ca20 O198 2.386860 1_555
Ca20 O96 2.420867 1_555
Ca20 O204 2.424689 1_555
Ca20 O90 2.428230 1_555
Ca21 O91 2.208518 1_555
Ca21 O94 2.272628 1_555
Ca21 O97 2.273023 1_555
Ca21 O205 2.285768 1_555
Ca21 O202 2.301199 1_555
Ca21 O199 2.328897 1_555
Ca22 O102 2.227760 1_555
Ca22 O99 2.252269 1_555
Ca22 O105 2.258365 1_555
Ca22 O207 2.376306 1_555
Ca22 O213 2.386760 1_555
Ca22 O210 2.417209 1_555
Ca23 O100 2.201019 1_555
Ca23 O103 2.244778 1_555
Ca23 O106 2.250436 1_555
Ca23 O211 2.300619 1_555
Ca23 O214 2.329493 1_555
Ca23 O208 2.462270 1_555
O0 P0 1.502412 1_545
O1 P1 1.546454 1_555
O2 P2 1.635734 1_555
O2 Ta0 1.932310 1_455
O3 P3 1.552656 1_555
O4 P4 1.632986 1_555
O4 Ta0 1.986812 1_555
O5 P5 1.509947 1_555
O6 P6 1.522689 1_555
O7 P7 1.539052 1_555
O8 P8 1.615021 1_655
O8 Ta0 1.970803 1_555
O9 P9 1.522963 1_555
O10 P10 1.523940 1_555
O11 P11 1.591663 1_555
O11 Ta1 1.971037 1_455
O12 P12 1.524633 1_555
O13 P13 1.622532 1_555
O13 Ta1 1.948277 1_555
O14 P14 1.518210 1_555
O15 P15 1.519371 1_545
O16 P16 1.530437 1_555
O17 P17 1.621681 1_555
O17 Ta1 1.957519 1_555
O18 P16 1.606193 1_555
O18 Ta3 1.996136 1_655
O19 P17 1.514126 1_555
O20 P15 1.603362 1_555
O20 Ta2 2.074575 1_655
O21 P9 1.626890 1_555
O21 Ta2 1.938777 1_545
O22 P10 1.610905 1_555
O22 Ta3 1.949945 1_555
O23 P11 1.511340 1_555
O24 P12 1.623148 1_555
O24 Ta3 1.939970 1_655
O25 P13 1.524645 1_555
O26 P14 1.592290 1_555
O26 Ta2 2.065203 1_555
O27 P3 1.534985 1_555
O28 P4 1.499437 1_555
O29 P5 1.600832 1_555
O29 Ta4 2.002830 1_555
O30 P6 1.627254 1_555
O30 Ta4 1.923325 1_445
O31 P7 1.515161 1_455
O32 P8 1.525602 1_555
O33 P1 1.516197 1_555
O34 P2 1.516124 1_555
O35 P0 1.597239 1_555
O35 Ta4 2.026542 1_455
O36 P18 1.508190 1_555
O37 P19 1.537182 1_555
O38 P20 1.536002 1_555
O39 P21 1.498607 1_555
O40 P22 1.534103 1_555
O41 P23 1.542258 1_555
O42 P24 1.504835 1_555
O43 P25 1.529095 1_555
O44 P26 1.541158 1_555
O45 P27 1.527577 1_555
O46 P28 1.598225 1_555
O46 Ta5 1.996824 1_555
O47 P29 1.524303 1_555
O48 P30 1.527537 1_555
O49 P31 1.617399 1_555
O49 Ta5 1.984617 1_555
O50 P32 1.541842 1_555
O51 P33 1.527320 1_555
O52 P34 1.606391 1_555
O52 Ta5 2.027336 1_555
O53 P35 1.546698 1_555
O54 P33 1.539100 1_555
O55 P34 1.509811 1_555
O56 P35 1.535930 1_555
O57 P27 1.532818 1_555
O58 P28 1.497944 1_555
O59 P29 1.543890 1_555
O60 P30 1.528768 1_555
O61 P31 1.505286 1_555
O62 P32 1.539041 1_555
O63 P21 1.599465 1_555
O63 Ta6 1.990059 1_555
O64 P22 1.527911 1_555
O65 P23 1.536297 1_555
O66 P24 1.613381 1_555
O66 Ta6 1.992243 1_555
O67 P25 1.527082 1_555
O68 P26 1.542896 1_555
O69 P18 1.604932 1_555
O69 Ta6 2.030504 1_555
O70 P19 1.526747 1_555
O71 P20 1.538978 1_555
O72 P36 1.606579 1_555
O72 Ta7 1.995370 1_556
O73 P37 1.606453 1_555
O73 Ta8 2.065492 1_556
O74 P38 1.514826 1_555
O75 P39 1.611941 1_555
O75 Ta7 1.945849 1_556
O76 P40 1.628596 1_555
O76 Ta8 1.935963 1_556
O77 P41 1.514594 1_555
O78 P42 1.621922 1_555
O78 Ta7 1.944149 1_556
O79 P43 1.593256 1_555
O79 Ta8 2.058072 1_556
O80 P44 1.524769 1_555
O81 P45 1.533486 1_555
O82 P46 1.605149 1_555
O82 Ta9 2.003169 1_555
O83 P47 1.499526 1_555
O84 P48 1.513471 1_555
O85 P49 1.626746 1_555
O85 Ta9 1.923219 1_555
O86 P50 1.515623 1_555
O87 P51 1.515332 1_555
O88 P52 1.595998 1_555
O88 Ta9 2.053536 1_555
O89 P53 1.513643 1_555
O90 P51 1.545937 1_555
O91 P52 1.503046 1_555
O92 P53 1.642930 1_555
O92 Ta10 1.900641 1_555
O93 P45 1.551627 1_555
O94 P46 1.511380 1_555
O95 P47 1.634997 1_555
O95 Ta10 1.978645 1_555
O96 P48 1.540387 1_555
O97 P49 1.524019 1_555
O98 P50 1.600147 1_555
O98 Ta10 2.022224 1_555
O99 P39 1.523389 1_555
O100 P40 1.522693 1_555
O101 P41 1.587690 1_555
O101 Ta11 1.980094 1_555
O102 P42 1.524030 1_555
O103 P43 1.519232 1_555
O104 P44 1.622124 1_555
O104 Ta11 1.944613 1_555
O105 P36 1.529483 1_555
O106 P37 1.519808 1_555
O107 P38 1.619320 1_555
O107 Ta11 1.959152 1_555
O108 P51 1.537002 1_655
O109 P52 1.609224 1_555
O109 Ta0 2.073513 1_455
O110 P53 1.530943 1_555
O111 P45 1.555823 1_555
O112 P46 1.589405 1_555
O112 Ta0 2.079734 1_555
O113 P47 1.520579 1_545
O114 P48 1.525872 1_555
O115 P49 1.536460 1_555
O116 P50 1.589923 1_555
O116 Ta0 2.059261 1_455
O117 P39 1.545282 1_555
O118 P40 1.539943 1_555
O119 P41 1.579764 1_555
O119 Ta1 2.011262 1_455
O120 P42 1.538383 1_555
O121 P43 1.596482 1_555
O121 Ta1 2.054528 1_455
O122 P44 1.531375 1_555
O123 P36 1.542106 1_555
O124 P37 1.602137 1_555
O124 Ta1 2.095993 1_555
O125 P38 1.545176 1_555
O126 P18 1.610822 1_555
O126 Ta2 1.992668 1_645
O127 P19 1.573762 1_455
O127 Ta3 2.066064 1_555
O128 P20 1.555642 1_455
O129 P21 1.616138 1_555
O129 Ta2 2.050455 1_545
O130 P22 1.606937 1_555
O130 Ta3 1.941854 1_555
O131 P23 1.535471 1_555
O132 P24 1.606203 1_555
O132 Ta3 2.104549 1_655
O133 P25 1.537242 1_555
O134 P26 1.611135 1_555
O134 Ta2 1.969517 1_655
O135 P27 1.531327 1_555
O136 P28 1.519762 1_455
O137 P29 1.614157 1_555
O137 Ta4 2.029639 1_555
O138 P30 1.607896 1_555
O138 Ta4 1.969572 1_545
O139 P31 1.510722 1_555
O140 P32 1.528022 1_555
O141 P33 1.586846 1_555
O141 Ta4 2.032334 1_445
O142 P34 1.504800 1_555
O143 P35 1.552140 1_555
O144 P15 1.508678 1_545
O145 P16 1.540851 1_555
O146 P17 1.532968 1_555
O147 P9 1.521384 1_555
O148 P10 1.534547 1_555
O149 P11 1.529574 1_555
O150 P12 1.537006 1_555
O151 P13 1.535126 1_555
O152 P14 1.524888 1_655
O153 P3 1.563050 1_555
O154 P4 1.575837 1_555
O154 Ta5 2.129571 1_555
O155 P5 1.520774 1_555
O156 P6 1.519519 1_655
O157 P7 1.611572 1_555
O157 Ta5 1.944997 1_555
O158 P8 1.519540 1_655
O159 P0 1.515718 1_545
O160 P1 1.629981 1_555
O160 Ta5 1.998577 1_555
O161 P2 1.538027 1_555
O162 P36 1.540036 1_555
O163 P37 1.508367 1_555
O164 P38 1.534080 1_555
O165 P39 1.533903 1_655
O166 P40 1.520590 1_655
O167 P41 1.529472 1_655
O168 P44 1.535124 1_545
O169 P42 1.538655 1_555
O170 P43 1.524674 1_555
O171 P47 1.578510 1_545
O171 Ta6 2.118418 1_555
O172 P45 1.564810 1_555
O173 P46 1.519967 1_555
O174 P48 1.614154 1_555
O174 Ta6 1.943712 1_555
O175 P49 1.520820 1_555
O176 P50 1.535823 1_555
O177 P51 1.626620 1_655
O177 Ta6 2.002248 1_555
O178 P52 1.514567 1_655
O179 P53 1.530814 1_655
O180 P33 1.577015 1_555
O180 Ta7 2.063571 1_555
O181 P34 1.610717 1_555
O181 Ta8 1.997126 1_555
O182 P35 1.556397 1_555
O183 P27 1.606682 1_455
O183 Ta7 1.941838 1_555
O184 P28 1.612507 1_455
O184 Ta8 2.053966 1_555
O185 P29 1.540077 1_455
O186 P31 1.602790 1_555
O186 Ta7 2.110392 1_555
O187 P32 1.608661 1_555
O187 Ta8 1.976340 1_555
O188 P30 1.539697 1_565
O189 P22 1.530404 1_555
O190 P23 1.619275 1_555
O190 Ta9 2.026842 1_555
O191 P21 1.514819 1_565
O192 P24 1.511208 1_555
O193 P25 1.611978 1_555
O193 Ta9 1.952559 1_555
O194 P26 1.523160 1_555
O195 P18 1.506129 1_455
O196 P19 1.589196 1_455
O196 Ta9 2.014432 1_555
O197 P20 1.548595 1_455
O198 P1 1.533894 1_555
O199 P2 1.530429 1_555
O200 P0 1.605023 1_555
O200 Ta10 2.029225 1_555
O201 P3 1.554722 1_555
O202 P4 1.525809 1_555
O203 P5 1.604415 1_555
O203 Ta10 2.126854 1_555
O204 P6 1.538706 1_555
O205 P7 1.527161 1_455
O206 P8 1.573059 1_555
O206 Ta10 2.076654 1_555
O207 P9 1.540742 1_555
O208 P10 1.545910 1_555
O209 P11 1.577840 1_555
O209 Ta11 2.014716 1_555
O210 P12 1.537681 1_455
O211 P13 1.531917 1_455
O212 P14 1.598337 1_555
O212 Ta11 2.049579 1_555
O213 P16 1.540657 1_555
O214 P17 1.546720 1_555
O215 P15 1.605037 1_555
O215 Ta11 2.088382 1_555
