# generated using pymatgen
data_MgTe4Mo2WS2
_symmetry_space_group_name_H-M   'P 1'
_cell_length_a   6.81811800
_cell_length_b   6.81856415
_cell_length_c   63.19598601
_cell_angle_alpha   90.00131345
_cell_angle_beta   89.99865863
_cell_angle_gamma   119.99683653
_symmetry_Int_Tables_number   1
_chemical_formula_structural   MgTe4Mo2WS2
_chemical_formula_sum   'Mg8 Te32 Mo16 W8 S16'
_cell_volume   2544.43530577
_cell_formula_units_Z   8
loop_
 _symmetry_equiv_pos_site_id
 _symmetry_equiv_pos_as_xyz
  1  'x, y, z'
loop_
 _atom_site_type_symbol
 _atom_site_label
 _atom_site_symmetry_multiplicity
 _atom_site_fract_x
 _atom_site_fract_y
 _atom_site_fract_z
 _atom_site_occupancy
  Mg  Mg0_0  1  0.06251700  0.43748900  0.42182300  1
  Mg  Mg0_1  1  0.06251700  0.43748900  0.92182300  1
  Mg  Mg0_2  1  0.06251700  0.93748900  0.42182300  1
  Mg  Mg0_3  1  0.06251700  0.93748900  0.92182300  1
  Mg  Mg0_4  1  0.56251700  0.43748900  0.42182300  1
  Mg  Mg0_5  1  0.56251700  0.43748900  0.92182300  1
  Mg  Mg0_6  1  0.56251700  0.93748900  0.42182300  1
  Mg  Mg0_7  1  0.56251700  0.93748900  0.92182300  1
  Te  Te0_0  1  0.33333200  0.16664750  0.02827900  1
  Te  Te0_1  1  0.33333200  0.16664750  0.52827900  1
  Te  Te0_2  1  0.33333200  0.66664750  0.02827900  1
  Te  Te0_3  1  0.33333200  0.66664750  0.52827900  1
  Te  Te0_4  1  0.83333200  0.16664750  0.02827900  1
  Te  Te0_5  1  0.83333200  0.16664750  0.52827900  1
  Te  Te0_6  1  0.83333200  0.66664750  0.02827900  1
  Te  Te0_7  1  0.83333200  0.66664750  0.52827900  1
  Te  Te1_0  1  0.33332050  0.16663250  0.25942650  1
  Te  Te1_1  1  0.33332050  0.16663250  0.75942650  1
  Te  Te1_2  1  0.33332050  0.66663250  0.25942650  1
  Te  Te1_3  1  0.33332050  0.66663250  0.75942650  1
  Te  Te1_4  1  0.83332050  0.16663250  0.25942650  1
  Te  Te1_5  1  0.83332050  0.16663250  0.75942650  1
  Te  Te1_6  1  0.83332050  0.66663250  0.25942650  1
  Te  Te1_7  1  0.83332050  0.66663250  0.75942650  1
  Te  Te2_0  1  0.33331200  0.16664100  0.08741950  1
  Te  Te2_1  1  0.33331200  0.16664100  0.58741950  1
  Te  Te2_2  1  0.33331200  0.66664100  0.08741950  1
  Te  Te2_3  1  0.33331200  0.66664100  0.58741950  1
  Te  Te2_4  1  0.83331200  0.16664100  0.08741950  1
  Te  Te2_5  1  0.83331200  0.16664100  0.58741950  1
  Te  Te2_6  1  0.83331200  0.66664100  0.08741950  1
  Te  Te2_7  1  0.83331200  0.66664100  0.58741950  1
  Te  Te3_0  1  0.33331450  0.16665450  0.31886150  1
  Te  Te3_1  1  0.33331450  0.16665450  0.81886150  1
  Te  Te3_2  1  0.33331450  0.66665450  0.31886150  1
  Te  Te3_3  1  0.33331450  0.66665450  0.81886150  1
  Te  Te3_4  1  0.83331450  0.16665450  0.31886150  1
  Te  Te3_5  1  0.83331450  0.16665450  0.81886150  1
  Te  Te3_6  1  0.83331450  0.66665450  0.31886150  1
  Te  Te3_7  1  0.83331450  0.66665450  0.81886150  1
  Mo  Mo0_0  1  0.16665600  0.33331800  0.05779500  1
  Mo  Mo0_1  1  0.16665600  0.33331800  0.55779500  1
  Mo  Mo0_2  1  0.16665600  0.83331800  0.05779500  1
  Mo  Mo0_3  1  0.16665600  0.83331800  0.55779500  1
  Mo  Mo0_4  1  0.66665600  0.33331800  0.05779500  1
  Mo  Mo0_5  1  0.66665600  0.33331800  0.55779500  1
  Mo  Mo0_6  1  0.66665600  0.83331800  0.05779500  1
  Mo  Mo0_7  1  0.66665600  0.83331800  0.55779500  1
  Mo  Mo1_0  1  0.33334100  0.16668700  0.17349950  1
  Mo  Mo1_1  1  0.33334100  0.16668700  0.67349950  1
  Mo  Mo1_2  1  0.33334100  0.66668700  0.17349950  1
  Mo  Mo1_3  1  0.33334100  0.66668700  0.67349950  1
  Mo  Mo1_4  1  0.83334100  0.16668700  0.17349950  1
  Mo  Mo1_5  1  0.83334100  0.16668700  0.67349950  1
  Mo  Mo1_6  1  0.83334100  0.66668700  0.17349950  1
  Mo  Mo1_7  1  0.83334100  0.66668700  0.67349950  1
  W  W0_0  1  0.16665650  0.33331950  0.28918700  1
  W  W0_1  1  0.16665650  0.33331950  0.78918700  1
  W  W0_2  1  0.16665650  0.83331950  0.28918700  1
  W  W0_3  1  0.16665650  0.83331950  0.78918700  1
  W  W0_4  1  0.66665650  0.33331950  0.28918700  1
  W  W0_5  1  0.66665650  0.33331950  0.78918700  1
  W  W0_6  1  0.66665650  0.83331950  0.28918700  1
  W  W0_7  1  0.66665650  0.83331950  0.78918700  1
  S  S0_0  1  0.16666950  0.33336150  0.19721650  1
  S  S0_1  1  0.16666950  0.33336150  0.69721650  1
  S  S0_2  1  0.16666950  0.83336150  0.19721650  1
  S  S0_3  1  0.16666950  0.83336150  0.69721650  1
  S  S0_4  1  0.66666950  0.33336150  0.19721650  1
  S  S0_5  1  0.66666950  0.33336150  0.69721650  1
  S  S0_6  1  0.66666950  0.83336150  0.19721650  1
  S  S0_7  1  0.66666950  0.83336150  0.69721650  1
  S  S1_0  1  0.16668050  0.33335000  0.14978800  1
  S  S1_1  1  0.16668050  0.33335000  0.64978800  1
  S  S1_2  1  0.16668050  0.83335000  0.14978800  1
  S  S1_3  1  0.16668050  0.83335000  0.64978800  1
  S  S1_4  1  0.66668050  0.33335000  0.14978800  1
  S  S1_5  1  0.66668050  0.33335000  0.64978800  1
  S  S1_6  1  0.66668050  0.83335000  0.14978800  1
  S  S1_7  1  0.66668050  0.83335000  0.64978800  1
loop_
_geom_bond_atom_site_label_1
_geom_bond_atom_site_label_2
_geom_bond_distance
_geom_bond_site_symmetry_2
Mg0_0 Mg0_4 3.409059 1_455
Mg0_0 Mg0_4 3.409059 1_555
Mg0_0 Mg0_2 3.409282 1_545
Mg0_0 Mg0_2 3.409282 1_555
Mg0_0 Mg0_6 3.409334 1_445
Mg0_0 Mg0_6 3.409334 1_555
Mg0_1 Mg0_5 3.409059 1_455
Mg0_1 Mg0_5 3.409059 1_555
Mg0_1 Mg0_3 3.409282 1_555
Mg0_1 Mg0_3 3.409282 1_545
Mg0_1 Mg0_7 3.409334 1_445
Mg0_1 Mg0_7 3.409334 1_555
Mg0_2 Mg0_6 3.409059 1_555
Mg0_2 Mg0_6 3.409059 1_455
Mg0_2 Mg0_4 3.409334 1_455
Mg0_2 Mg0_4 3.409334 1_565
Mg0_3 Mg0_7 3.409059 1_455
Mg0_3 Mg0_7 3.409059 1_555
Mg0_3 Mg0_5 3.409334 1_455
Mg0_3 Mg0_5 3.409334 1_565
Mg0_4 Mg0_6 3.409282 1_545
Mg0_4 Mg0_6 3.409282 1_555
Mg0_5 Mg0_7 3.409282 1_555
Mg0_5 Mg0_7 3.409282 1_545
Te1_0 W0_0 2.722395 1_555
Te1_0 W0_2 2.722402 1_545
Te1_0 W0_4 2.722408 1_555
Te1_1 W0_1 2.722395 1_555
Te1_1 W0_3 2.722402 1_545
Te1_1 W0_5 2.722408 1_555
Te1_2 W0_2 2.722395 1_555
Te1_2 W0_0 2.722402 1_555
Te1_2 W0_6 2.722408 1_555
Te1_3 W0_3 2.722395 1_555
Te1_3 W0_1 2.722402 1_555
Te1_3 W0_7 2.722408 1_555
Te1_4 W0_4 2.722395 1_555
Te1_4 W0_6 2.722402 1_545
Te1_4 W0_0 2.722408 1_655
Te1_5 W0_5 2.722395 1_555
Te1_5 W0_7 2.722402 1_545
Te1_5 W0_1 2.722408 1_655
Te1_6 W0_6 2.722395 1_555
Te1_6 W0_4 2.722402 1_555
Te1_6 W0_2 2.722408 1_655
Te1_7 W0_7 2.722395 1_555
Te1_7 W0_5 2.722402 1_555
Te1_7 W0_3 2.722408 1_655
Te3_0 W0_0 2.718596 1_555
Te3_0 W0_4 2.718644 1_555
Te3_0 W0_2 2.718709 1_545
Te3_1 W0_1 2.718596 1_555
Te3_1 W0_5 2.718644 1_555
Te3_1 W0_3 2.718709 1_545
Te3_2 W0_2 2.718596 1_555
Te3_2 W0_6 2.718644 1_555
Te3_2 W0_0 2.718709 1_555
Te3_3 W0_3 2.718596 1_555
Te3_3 W0_7 2.718644 1_555
Te3_3 W0_1 2.718709 1_555
Te3_4 W0_4 2.718596 1_555
Te3_4 W0_0 2.718644 1_655
Te3_4 W0_6 2.718709 1_545
Te3_5 W0_5 2.718596 1_555
Te3_5 W0_1 2.718644 1_655
Te3_5 W0_7 2.718709 1_545
Te3_6 W0_6 2.718596 1_555
Te3_6 W0_2 2.718644 1_655
Te3_6 W0_4 2.718709 1_555
Te3_7 W0_7 2.718596 1_555
Te3_7 W0_3 2.718644 1_655
Te3_7 W0_5 2.718709 1_555
Mo0_0 Te0_4 2.711705 1_455
Mo0_0 Te0_0 2.711725 1_555
Mo0_0 Te0_2 2.711821 1_555
Mo0_0 Te2_0 2.716460 1_555
Mo0_0 Te2_4 2.716474 1_455
Mo0_0 Te2_2 2.716479 1_555
Mo0_1 Te0_5 2.711705 1_455
Mo0_1 Te0_1 2.711725 1_555
Mo0_1 Te0_3 2.711821 1_555
Mo0_1 Te2_1 2.716460 1_555
Mo0_1 Te2_5 2.716474 1_455
Mo0_1 Te2_3 2.716479 1_555
Mo0_2 Te0_6 2.711705 1_455
Mo0_2 Te0_2 2.711725 1_555
Mo0_2 Te0_0 2.711821 1_565
Mo0_2 Te2_2 2.716460 1_555
Mo0_2 Te2_6 2.716474 1_455
Mo0_2 Te2_0 2.716479 1_565
Mo0_3 Te0_7 2.711705 1_455
Mo0_3 Te0_3 2.711725 1_555
Mo0_3 Te0_1 2.711821 1_565
Mo0_3 Te2_3 2.716460 1_555
Mo0_3 Te2_7 2.716474 1_455
Mo0_3 Te2_1 2.716479 1_565
Mo0_4 Te0_0 2.711705 1_555
Mo0_4 Te0_4 2.711725 1_555
Mo0_4 Te0_6 2.711821 1_555
Mo0_4 Te2_4 2.716460 1_555
Mo0_4 Te2_0 2.716474 1_555
Mo0_4 Te2_6 2.716479 1_555
Mo0_5 Te0_1 2.711705 1_555
Mo0_5 Te0_5 2.711725 1_555
Mo0_5 Te0_7 2.711821 1_555
Mo0_5 Te2_5 2.716460 1_555
Mo0_5 Te2_1 2.716474 1_555
Mo0_5 Te2_7 2.716479 1_555
Mo0_6 Te0_2 2.711705 1_555
Mo0_6 Te0_6 2.711725 1_555
Mo0_6 Te0_4 2.711821 1_565
Mo0_6 Te2_6 2.716460 1_555
Mo0_6 Te2_2 2.716474 1_555
Mo0_6 Te2_4 2.716479 1_565
Mo0_7 Te0_3 2.711705 1_555
Mo0_7 Te0_7 2.711725 1_555
Mo0_7 Te0_5 2.711821 1_565
Mo0_7 Te2_7 2.716460 1_555
Mo0_7 Te2_3 2.716474 1_555
Mo0_7 Te2_5 2.716479 1_565
Mo1_0 S1_0 2.473736 1_555
Mo1_0 S1_4 2.473787 1_555
Mo1_0 S1_2 2.473878 1_545
Mo1_0 S0_4 2.473978 1_555
Mo1_0 S0_0 2.473989 1_555
Mo1_0 S0_2 2.474066 1_545
Mo1_1 S1_1 2.473736 1_555
Mo1_1 S1_5 2.473787 1_555
Mo1_1 S1_3 2.473878 1_545
Mo1_1 S0_5 2.473978 1_555
Mo1_1 S0_1 2.473989 1_555
Mo1_1 S0_3 2.474066 1_545
Mo1_2 S1_2 2.473736 1_555
Mo1_2 S1_6 2.473787 1_555
Mo1_2 S1_0 2.473878 1_555
Mo1_2 S0_6 2.473978 1_555
Mo1_2 S0_2 2.473989 1_555
Mo1_2 S0_0 2.474066 1_555
Mo1_3 S1_3 2.473736 1_555
Mo1_3 S1_7 2.473787 1_555
Mo1_3 S1_1 2.473878 1_555
Mo1_3 S0_7 2.473978 1_555
Mo1_3 S0_3 2.473989 1_555
Mo1_3 S0_1 2.474066 1_555
Mo1_4 S1_4 2.473736 1_555
Mo1_4 S1_0 2.473787 1_655
Mo1_4 S1_6 2.473878 1_545
Mo1_4 S0_0 2.473978 1_655
Mo1_4 S0_4 2.473989 1_555
Mo1_4 S0_6 2.474066 1_545
Mo1_5 S1_5 2.473736 1_555
Mo1_5 S1_1 2.473787 1_655
Mo1_5 S1_7 2.473878 1_545
Mo1_5 S0_1 2.473978 1_655
Mo1_5 S0_5 2.473989 1_555
Mo1_5 S0_7 2.474066 1_545
Mo1_6 S1_6 2.473736 1_555
Mo1_6 S1_2 2.473787 1_655
Mo1_6 S1_4 2.473878 1_555
Mo1_6 S0_2 2.473978 1_655
Mo1_6 S0_6 2.473989 1_555
Mo1_6 S0_4 2.474066 1_555
Mo1_7 S1_7 2.473736 1_555
Mo1_7 S1_3 2.473787 1_655
Mo1_7 S1_5 2.473878 1_555
Mo1_7 S0_3 2.473978 1_655
Mo1_7 S0_7 2.473989 1_555
Mo1_7 S0_5 2.474066 1_555
