# generated using pymatgen
data_Sr2HfMgCrO6
_symmetry_space_group_name_H-M   'P 1'
_cell_length_a   6.56339665
_cell_length_b   6.56345489
_cell_length_c   6.56321821
_cell_angle_alpha   76.08712600
_cell_angle_beta   128.71253720
_cell_angle_gamma   127.95410353
_symmetry_Int_Tables_number   1
_chemical_formula_structural   Sr2HfMgCrO6
_chemical_formula_sum   'Sr2 Hf1 Mg1 Cr1 O6'
_cell_volume   169.11085480
_cell_formula_units_Z   1
loop_
 _symmetry_equiv_pos_site_id
 _symmetry_equiv_pos_as_xyz
  1  'x, y, z'
loop_
 _atom_site_type_symbol
 _atom_site_label
 _atom_site_symmetry_multiplicity
 _atom_site_fract_x
 _atom_site_fract_y
 _atom_site_fract_z
 _atom_site_occupancy
  Sr  Sr0  1  0.49998300  0.32109200  0.82103900  1
  Sr  Sr1  1  0.50001700  0.67890800  0.17896100  1
  Hf  Hf0  1  0.00000000  0.50000000  0.50000000  1
  Mg  Mg0  1  0.50000000  0.00000000  0.50000000  1
  Cr  Cr0  1  0.00000000  0.00000000  0.00000000  1
  O  O0  1  0.00006100  0.29645000  0.29644900  1
  O  O1  1  0.99993900  0.70355000  0.70355100  1
  O  O2  1  0.49077100  0.24360400  0.24714000  1
  O  O3  1  0.50922900  0.75639600  0.75286000  1
  O  O4  1  0.00353700  0.75638300  0.24716000  1
  O  O5  1  0.99646300  0.24361700  0.75284000  1
loop_
_geom_bond_atom_site_label_1
_geom_bond_atom_site_label_2
_geom_bond_distance
_geom_bond_site_symmetry_2
Hf0 O4 2.059912 1_555
Hf0 O5 2.059912 1_455
Hf0 O3 2.059963 1_555
Hf0 O2 2.059963 1_455
Hf0 O1 2.104582 1_455
Hf0 O0 2.104582 1_555
Mg0 O2 2.007896 1_555
Mg0 O3 2.007896 1_545
Mg0 O5 2.007918 1_555
Mg0 O4 2.007918 1_545
Cr0 O5 1.984914 1_454
Cr0 O4 1.984914 1_545
Cr0 O2 1.984915 1_555
Cr0 O3 1.984915 1_444
O0 Sr0 2.851465 1_555
O0 Sr0 2.852217 1_454
O0 Sr1 3.124982 1_555
O0 Sr1 3.125547 1_445
O1 Sr1 2.851465 1_555
O1 Sr1 2.852217 1_656
O1 Sr0 3.124982 1_555
O1 Sr0 3.125547 1_665
O2 Sr1 2.751874 1_555
O2 Sr0 2.751899 1_554
O3 Sr0 2.751874 1_555
O3 Sr1 2.751899 1_556
O4 Sr1 2.751853 1_455
O4 Sr0 2.751964 1_454
O5 Sr0 2.751853 1_655
O5 Sr1 2.751964 1_656
