# generated using pymatgen
data_MgTi2(PS3)4
_symmetry_space_group_name_H-M   'P 1'
_cell_length_a   6.88914076
_cell_length_b   6.89598749
_cell_length_c   11.50733057
_cell_angle_alpha   102.27195807
_cell_angle_beta   101.00960471
_cell_angle_gamma   112.14977521
_symmetry_Int_Tables_number   1
_chemical_formula_structural   MgTi2(PS3)4
_chemical_formula_sum   'Mg1 Ti2 P4 S12'
_cell_volume   472.04836068
_cell_formula_units_Z   1
loop_
 _symmetry_equiv_pos_site_id
 _symmetry_equiv_pos_as_xyz
  1  'x, y, z'
loop_
 _atom_site_type_symbol
 _atom_site_label
 _atom_site_symmetry_multiplicity
 _atom_site_fract_x
 _atom_site_fract_y
 _atom_site_fract_z
 _atom_site_occupancy
  Mg  Mg0  1  0.15831600  0.43556500  0.54705900  1
  Ti  Ti0  1  0.85236900  0.86967500  0.71177600  1
  Ti  Ti1  1  0.59359000  0.08120900  0.18933000  1
  P  P0  1  0.74073400  0.87191500  0.37682100  1
  P  P1  1  0.61883100  0.98405400  0.87734600  1
  P  P2  1  0.26963400  0.88363600  0.87848700  1
  P  P3  1  0.63832700  0.51952200  0.37713300  1
  S  S0  1  0.65743500  0.70053800  0.84634600  1
  S  S1  1  0.19461400  0.13954200  0.86505000  1
  S  S2  1  0.99715100  0.03287000  0.54326000  1
  S  S3  1  0.55632800  0.51795400  0.54241600  1
  S  S4  1  0.25843700  0.80078900  0.03831900  1
  S  S5  1  0.78744400  0.21933900  0.04706000  1
  S  S6  1  0.38935400  0.31219000  0.22396400  1
  S  S7  1  0.85103500  0.91256800  0.22967200  1
  S  S8  1  0.65697300  0.09512400  0.72959800  1
  S  S9  1  0.05497600  0.61939000  0.72262200  1
  S  S10  1  0.47231300  0.92461200  0.36296400  1
  S  S11  1  0.90158200  0.45117400  0.36188900  1
loop_
_geom_bond_atom_site_label_1
_geom_bond_atom_site_label_2
_geom_bond_distance
_geom_bond_site_symmetry_2
Mg0 S9 2.517223 1_555
Mg0 S11 2.545933 1_455
Mg0 S2 2.559526 1_455
Mg0 S3 2.595794 1_555
P0 S10 1.998929 1_555
P0 S7 2.013917 1_555
P0 S2 2.084776 1_565
P1 S8 2.029481 1_565
P1 S0 2.037724 1_555
P1 S5 2.039911 1_566
P2 S1 2.044134 1_565
P2 S4 2.045189 1_556
P2 S9 2.071218 1_555
P3 S6 2.004400 1_555
P3 S11 2.067124 1_555
P3 S3 2.085957 1_555
S0 Ti0 2.437792 1_555
S1 Ti0 2.416803 1_445
S2 Ti0 2.615679 1_545
S3 Ti0 2.565700 1_555
S4 Ti1 2.400518 1_565
S5 Ti1 2.431026 1_555
S6 Ti1 2.511958 1_555
S7 Ti1 2.486734 1_565
S8 Ti0 2.412287 1_545
S9 Ti0 2.604682 1_455
S10 Ti1 2.594414 1_565
S11 Ti1 2.666316 1_555
