# generated using pymatgen
data_Mo2P2O11
_symmetry_space_group_name_H-M   'P 1'
_cell_length_a   12.69187600
_cell_length_b   7.99157700
_cell_length_c   8.72567885
_cell_angle_alpha   71.36082683
_cell_angle_beta   90.00000000
_cell_angle_gamma   90.00000000
_symmetry_Int_Tables_number   1
_chemical_formula_structural   Mo2P2O11
_chemical_formula_sum   'Mo8 P8 O44'
_cell_volume   838.60939229
_cell_formula_units_Z   4
loop_
 _symmetry_equiv_pos_site_id
 _symmetry_equiv_pos_as_xyz
  1  'x, y, z'
loop_
 _atom_site_type_symbol
 _atom_site_label
 _atom_site_symmetry_multiplicity
 _atom_site_fract_x
 _atom_site_fract_y
 _atom_site_fract_z
 _atom_site_occupancy
  Mo  Mo0  1  0.75000000  0.73082500  0.81739100  1
  Mo  Mo1  1  0.25000000  0.69434400  0.84217800  1
  Mo  Mo2  1  0.49856500  0.73334200  0.35024800  1
  Mo  Mo3  1  0.00143500  0.73334200  0.35024800  1
  Mo  Mo4  1  0.99856500  0.26665800  0.64975200  1
  Mo  Mo5  1  0.50143500  0.26665800  0.64975200  1
  Mo  Mo6  1  0.75000000  0.30565600  0.15782200  1
  Mo  Mo7  1  0.25000000  0.26917500  0.18260900  1
  P  P0  1  0.99290300  0.18337100  0.26418100  1
  P  P1  1  0.50709700  0.18337100  0.26418100  1
  P  P2  1  0.75000000  0.32600600  0.75284800  1
  P  P3  1  0.25000000  0.67399400  0.24715200  1
  P  P4  1  0.49290300  0.81662900  0.73581900  1
  P  P5  1  0.00709700  0.81662900  0.73581900  1
  P  P6  1  0.25000000  0.13883100  0.58585900  1
  P  P7  1  0.75000000  0.86116900  0.41414100  1
  O  O0  1  0.47118300  0.81399700  0.56705200  1
  O  O1  1  0.25000000  0.95774200  0.71706700  1
  O  O2  1  0.75000000  0.88492600  0.58452000  1
  O  O3  1  0.49814500  0.99555900  0.24871800  1
  O  O4  1  0.00185500  0.99555900  0.24871800  1
  O  O5  1  0.02881700  0.81399700  0.56705200  1
  O  O6  1  0.75000000  0.90135200  0.89363000  1
  O  O7  1  0.09685800  0.72099200  0.85477300  1
  O  O8  1  0.25000000  0.09864800  0.10637000  1
  O  O9  1  0.75000000  0.04225800  0.28293300  1
  O  O10  1  0.25000000  0.11507400  0.41548000  1
  O  O11  1  0.50185500  0.00444100  0.75128200  1
  O  O12  1  0.99814500  0.00444100  0.75128200  1
  O  O13  1  0.97118300  0.18600300  0.43294800  1
  O  O14  1  0.52881700  0.18600300  0.43294800  1
  O  O15  1  0.75000000  0.53858100  0.01207600  1
  O  O16  1  0.59685800  0.27900800  0.14522700  1
  O  O17  1  0.40422300  0.28561200  0.19501400  1
  O  O18  1  0.09577700  0.28561200  0.19501400  1
  O  O19  1  0.34859400  0.24261000  0.60478800  1
  O  O20  1  0.15140600  0.24261000  0.60478800  1
  O  O21  1  0.84702500  0.26468600  0.67024200  1
  O  O22  1  0.65297500  0.26468600  0.67024200  1
  O  O23  1  0.75000000  0.36642800  0.32723700  1
  O  O24  1  0.75000000  0.23631300  0.93426700  1
  O  O25  1  0.40314200  0.72099200  0.85477300  1
  O  O26  1  0.25000000  0.47392600  0.29776400  1
  O  O27  1  0.47554800  0.31701400  0.82072700  1
  O  O28  1  0.02445200  0.31701400  0.82072700  1
  O  O29  1  0.00000000  0.50000000  0.50000000  1
  O  O30  1  0.50000000  0.50000000  0.50000000  1
  O  O31  1  0.97554800  0.68298600  0.17927300  1
  O  O32  1  0.52445200  0.68298600  0.17927300  1
  O  O33  1  0.75000000  0.52607400  0.70223600  1
  O  O34  1  0.25000000  0.46141900  0.98792400  1
  O  O35  1  0.25000000  0.76368700  0.06573300  1
  O  O36  1  0.25000000  0.63357200  0.67276300  1
  O  O37  1  0.34702500  0.73531400  0.32975800  1
  O  O38  1  0.15297500  0.73531400  0.32975800  1
  O  O39  1  0.84859400  0.75739000  0.39521200  1
  O  O40  1  0.65140600  0.75739000  0.39521200  1
  O  O41  1  0.90422300  0.71438800  0.80498600  1
  O  O42  1  0.59577700  0.71438800  0.80498600  1
  O  O43  1  0.90314200  0.27900800  0.14522700  1
loop_
_geom_bond_atom_site_label_1
_geom_bond_atom_site_label_2
_geom_bond_distance
_geom_bond_site_symmetry_2
Mo0 O6 1.696821 1_555
Mo0 O15 1.891518 1_556
Mo0 O42 1.967077 1_555
Mo0 O41 1.967077 1_555
Mo0 O2 2.011446 1_555
Mo0 O33 2.176699 1_555
Mo1 O36 1.697068 1_555
Mo1 O34 1.889199 1_555
Mo1 O7 1.962193 1_555
Mo1 O25 1.962193 1_555
Mo1 O1 2.038078 1_555
Mo1 O35 2.191617 1_556
Mo2 O32 1.696862 1_555
Mo2 O30 1.904620 1_555
Mo2 O37 1.931217 1_555
Mo2 O3 1.997357 1_555
Mo2 O40 2.000509 1_555
Mo2 O0 2.212335 1_555
Mo3 O31 1.696862 1_455
Mo3 O29 1.904620 1_555
Mo3 O38 1.931217 1_555
Mo3 O4 1.997357 1_555
Mo3 O39 2.000509 1_455
Mo3 O5 2.212335 1_555
Mo4 O28 1.696862 1_655
Mo4 O29 1.904620 1_655
Mo4 O21 1.931217 1_555
Mo4 O12 1.997357 1_555
Mo4 O20 2.000509 1_655
Mo4 O13 2.212335 1_555
Mo5 O27 1.696862 1_555
Mo5 O30 1.904620 1_555
Mo5 O22 1.931217 1_555
Mo5 O11 1.997357 1_555
Mo5 O19 2.000509 1_555
Mo5 O14 2.212335 1_555
Mo6 O23 1.697068 1_555
Mo6 O15 1.889199 1_555
Mo6 O43 1.962193 1_555
Mo6 O16 1.962193 1_555
Mo6 O9 2.038078 1_555
Mo6 O24 2.191617 1_554
Mo7 O8 1.696821 1_555
Mo7 O34 1.891518 1_554
Mo7 O17 1.967077 1_555
Mo7 O18 1.967077 1_555
Mo7 O10 2.011446 1_555
Mo7 O26 2.176699 1_555
O0 P4 1.504927 1_555
O1 P6 1.531670 1_565
O2 P7 1.557774 1_555
O3 P1 1.553482 1_565
O4 P0 1.553482 1_465
O5 P5 1.504927 1_555
O7 P5 1.565969 1_555
O9 P7 1.531670 1_545
O10 P6 1.557774 1_555
O11 P4 1.553482 1_545
O12 P5 1.553482 1_645
O13 P0 1.504927 1_555
O14 P1 1.504927 1_555
O16 P1 1.565969 1_555
O17 P1 1.556082 1_555
O18 P0 1.556082 1_455
O19 P6 1.539005 1_555
O20 P6 1.539005 1_555
O21 P2 1.581736 1_555
O22 P2 1.581736 1_555
O24 P2 1.514722 1_555
O25 P4 1.565969 1_555
O26 P3 1.516587 1_555
O33 P2 1.516587 1_555
O35 P3 1.514722 1_555
O37 P3 1.581736 1_555
O38 P3 1.581736 1_555
O39 P7 1.539005 1_555
O40 P7 1.539005 1_555
O41 P5 1.556082 1_655
O42 P4 1.556082 1_555
O43 P0 1.565969 1_555
