# generated using pymatgen
data_Na2Nb3InSi4(SO12)2
_symmetry_space_group_name_H-M   'P 1'
_cell_length_a   8.89215807
_cell_length_b   8.93459509
_cell_length_c   23.10762956
_cell_angle_alpha   90.20885696
_cell_angle_beta   90.44205545
_cell_angle_gamma   119.88964204
_symmetry_Int_Tables_number   1
_chemical_formula_structural   Na2Nb3InSi4(SO12)2
_chemical_formula_sum   'Na6 Nb9 In3 Si12 S6 O72'
_cell_volume   1591.55196648
_cell_formula_units_Z   3
loop_
 _symmetry_equiv_pos_site_id
 _symmetry_equiv_pos_as_xyz
  1  'x, y, z'
loop_
 _atom_site_type_symbol
 _atom_site_label
 _atom_site_symmetry_multiplicity
 _atom_site_fract_x
 _atom_site_fract_y
 _atom_site_fract_z
 _atom_site_occupancy
  Na  Na0  1  0.98518172  0.98044486  0.49911593  1
  Na  Na1  1  0.99962809  0.99245363  0.99812402  1
  Na  Na2  1  0.65472558  0.31936654  0.83061049  1
  Na  Na3  1  0.66951724  0.31946148  0.32372398  1
  Na  Na4  1  0.32099990  0.65204075  0.16081183  1
  Na  Na5  1  0.35239339  0.66387253  0.66714933  1
  Nb  Nb0  1  0.99870201  0.00267503  0.35240913  1
  Nb  Nb1  1  0.00471777  0.01572156  0.85861768  1
  Nb  Nb2  1  0.98509145  0.99385013  0.64848818  1
  Nb  Nb3  1  0.02310547  0.01322179  0.14137520  1
  Nb  Nb4  1  0.66200190  0.34482275  0.97577842  1
  Nb  Nb5  1  0.67877559  0.34458820  0.47685650  1
  Nb  Nb6  1  0.32381259  0.66081062  0.01830039  1
  Nb  Nb7  1  0.31993255  0.67759447  0.31001866  1
  Nb  Nb8  1  0.34066325  0.66385114  0.81318634  1
  In  In0  1  0.65121446  0.33060609  0.69132152  1
  In  In1  1  0.67388511  0.33689503  0.18683655  1
  In  In2  1  0.35063876  0.68141961  0.51679584  1
  Si  Si0  1  0.29342723  0.01052651  0.25002259  1
  Si  Si1  1  0.00185844  0.28949612  0.24937751  1
  Si  Si2  1  0.28432851  0.28962089  0.75128790  1
  Si  Si3  1  0.70699993  0.00130861  0.75240790  1
  Si  Si4  1  0.66244662  0.62207983  0.58536955  1
  Si  Si5  1  0.95444512  0.62084733  0.08520276  1
  Si  Si6  1  0.38867197  0.34532633  0.08436295  1
  Si  Si7  1  0.62397295  0.67420882  0.91779718  1
  Si  Si8  1  0.04200512  0.38483562  0.91475579  1
  Si  Si9  1  0.33581243  0.95184928  0.91544062  1
  Si  Si10  1  0.62441471  0.95804514  0.41655661  1
  Si  Si11  1  0.04835467  0.67465089  0.41849780  1
  S  S0  1  0.70965897  0.71657552  0.25093203  1
  S  S1  1  0.00533600  0.71906495  0.75113273  1
  S  S2  1  0.95627605  0.33066378  0.58354019  1
  S  S3  1  0.37216634  0.04424057  0.58289280  1
  S  S4  1  0.66577918  0.03869120  0.08252209  1
  S  S5  1  0.33340577  0.37313199  0.41630863  1
  O  O0  1  0.18194996  0.00892814  0.30589166  1
  O  O1  1  0.81400838  0.80686524  0.30427847  1
  O  O2  1  0.98900708  0.17166322  0.30588529  1
  O  O3  1  0.18027313  0.17044228  0.80673764  1
  O  O4  1  0.98787203  0.80430522  0.80260020  1
  O  O5  1  0.82591160  0.00923448  0.80723837  1
  O  O6  1  0.80062585  0.96834786  0.69285326  1
  O  O7  1  0.16435048  0.18320822  0.69254231  1
  O  O8  1  0.01937757  0.82192038  0.69689777  1
  O  O9  1  0.78837096  0.81742694  0.19891543  1
  O  O10  1  0.01972013  0.18622346  0.19281209  1
  O  O11  1  0.17266017  0.97609920  0.19148250  1
  O  O12  1  0.87500679  0.34840066  0.63534710  1
  O  O13  1  0.47487757  0.11800625  0.63594951  1
  O  O14  1  0.65179571  0.51644510  0.64171636  1
  O  O15  1  0.89456207  0.51233661  0.14328012  1
  O  O16  1  0.63476433  0.10549702  0.13643072  1
  O  O17  1  0.48890511  0.37210705  0.14393582  1
  O  O18  1  0.47349811  0.30821487  0.02694748  1
  O  O19  1  0.83160552  0.52102905  0.02777279  1
  O  O20  1  0.69250659  0.14714440  0.03168186  1
  O  O21  1  0.46234882  0.14858992  0.53099083  1
  O  O22  1  0.68509616  0.51886330  0.52671398  1
  O  O23  1  0.84580515  0.30625401  0.52981018  1
  O  O24  1  0.53187528  0.69905102  0.97376166  1
  O  O25  1  0.16274292  0.47057979  0.97242209  1
  O  O26  1  0.30609856  0.83267373  0.97190022  1
  O  O27  1  0.57058886  0.84831214  0.47429029  1
  O  O28  1  0.29996300  0.43906172  0.46963342  1
  O  O29  1  0.15317001  0.69954499  0.47672166  1
  O  O30  1  0.13573033  0.63844230  0.36049255  1
  O  O31  1  0.49653801  0.85585984  0.36030511  1
  O  O32  1  0.36090594  0.48031952  0.36551919  1
  O  O33  1  0.13492109  0.50112816  0.85829513  1
  O  O34  1  0.36216662  0.85790882  0.85846474  1
  O  O35  1  0.50233316  0.63724372  0.85911904  1
  O  O36  1  0.01359400  0.83313542  0.40633345  1
  O  O37  1  0.82156519  0.99753283  0.40274145  1
  O  O38  1  0.18318263  0.19436415  0.40849224  1
  O  O39  1  0.02785518  0.19419216  0.91037252  1
  O  O40  1  0.16419785  0.97227951  0.90645922  1
  O  O41  1  0.81567444  0.83740759  0.90888215  1
  O  O42  1  0.96669551  0.16643764  0.58624824  1
  O  O43  1  0.20044430  0.03780297  0.58642360  1
  O  O44  1  0.84720201  0.81581590  0.58921547  1
  O  O45  1  0.96464348  0.81283697  0.09107125  1
  O  O46  1  0.82409659  0.01949472  0.08835141  1
  O  O47  1  0.18799290  0.16762370  0.08836394  1
  O  O48  1  0.70721843  0.17916361  0.74644910  1
  O  O49  1  0.47353838  0.31035387  0.75339305  1
  O  O50  1  0.85327573  0.54645232  0.74667242  1
  O  O51  1  0.69720724  0.54723025  0.25157661  1
  O  O52  1  0.83699924  0.31473038  0.25006782  1
  O  O53  1  0.47993407  0.17654567  0.24975854  1
  O  O54  1  0.63658307  0.49725480  0.92335079  1
  O  O55  1  0.85067212  0.35737070  0.92459507  1
  O  O56  1  0.50617801  0.14138739  0.92581662  1
  O  O57  1  0.63714907  0.14877080  0.42611204  1
  O  O58  1  0.49022755  0.35122395  0.42294715  1
  O  O59  1  0.85217173  0.49647736  0.42501846  1
  O  O60  1  0.35494392  0.50655826  0.07350561  1
  O  O61  1  0.15466671  0.66323724  0.07231330  1
  O  O62  1  0.51461955  0.86235609  0.07478463  1
  O  O63  1  0.34156463  0.86665451  0.57894076  1
  O  O64  1  0.49538263  0.64710326  0.58058201  1
  O  O65  1  0.12935356  0.47902677  0.57613922  1
  O  O66  1  0.30038923  0.82652373  0.25629514  1
  O  O67  1  0.53530340  0.70025037  0.25801520  1
  O  O68  1  0.18683716  0.47445802  0.25994031  1
  O  O69  1  0.28658102  0.47399248  0.75509284  1
  O  O70  1  0.16800919  0.71184074  0.75215970  1
  O  O71  1  0.51777043  0.82557568  0.75595424  1
loop_
_geom_bond_atom_site_label_1
_geom_bond_atom_site_label_2
_geom_bond_distance
_geom_bond_site_symmetry_2
Na0 O44 2.503327 1_555
Na0 O36 2.590742 1_655
Na0 O43 2.636663 1_665
Na0 O42 2.663707 1_565
Na0 O37 2.696922 1_555
Na0 O38 2.805415 1_665
Na1 O41 2.552629 1_555
Na1 O45 2.612095 1_556
Na1 O47 2.629216 1_666
Na1 O40 2.639790 1_655
Na1 O39 2.647095 1_665
Na1 O46 2.695182 1_566
Na2 O49 2.368825 1_555
Na2 O48 2.479549 1_555
Na2 O56 2.662758 1_555
Na2 O55 2.685951 1_555
Na2 O54 2.716731 1_555
Na2 O50 2.739905 1_555
Na3 O53 2.277688 1_555
Na3 O52 2.284279 1_555
Na3 O51 2.552061 1_555
Na3 O57 2.757836 1_555
Na3 O59 2.823520 1_555
Na3 O58 2.895135 1_555
Na4 O60 2.496402 1_555
Na4 O61 2.545958 1_555
Na4 O62 2.702315 1_555
Na4 O68 2.714725 1_555
Na4 O66 2.756439 1_555
Na4 O67 2.823276 1_555
Na5 O64 2.422294 1_555
Na5 O71 2.505028 1_555
Na5 O69 2.530667 1_555
Na5 O70 2.733971 1_555
Na5 O63 2.764815 1_555
Na5 O65 2.780204 1_555
Nb0 O2 1.892862 1_555
Nb0 O0 1.936609 1_655
Nb0 O37 1.947404 1_545
Nb0 O36 2.018877 1_645
Nb0 O1 2.022097 1_545
Nb0 O38 2.110592 1_655
Nb1 O39 1.915865 1_555
Nb1 O3 1.917092 1_555
Nb1 O5 1.954346 1_455
Nb1 O40 1.977723 1_545
Nb1 O41 2.021745 1_445
Nb1 O4 2.227820 1_445
Nb2 O6 1.857046 1_555
Nb2 O7 1.927191 1_665
Nb2 O44 1.980886 1_555
Nb2 O8 2.044013 1_655
Nb2 O42 2.176448 1_565
Nb2 O43 2.274879 1_665
Nb3 O47 1.891427 1_555
Nb3 O11 1.907312 1_545
Nb3 O10 1.958663 1_555
Nb3 O45 1.968425 1_445
Nb3 O46 2.168371 1_455
Nb3 O9 2.367588 1_445
Nb4 O54 1.920468 1_555
Nb4 O19 1.946380 1_556
Nb4 O18 1.949792 1_556
Nb4 O56 2.001605 1_555
Nb4 O55 2.017465 1_555
Nb4 O20 2.313093 1_556
Nb5 O59 1.899673 1_555
Nb5 O22 1.911454 1_555
Nb5 O57 1.976310 1_555
Nb5 O23 2.074266 1_555
Nb5 O58 2.105633 1_555
Nb5 O21 2.242615 1_555
Nb6 O25 1.897699 1_554
Nb6 O26 1.944922 1_554
Nb6 O61 1.970216 1_555
Nb6 O60 1.997734 1_555
Nb6 O24 2.000214 1_554
Nb6 O62 2.174529 1_555
Nb7 O66 1.892371 1_555
Nb7 O30 1.904465 1_555
Nb7 O31 1.954142 1_555
Nb7 O68 1.963804 1_555
Nb7 O67 2.191705 1_555
Nb7 O32 2.352335 1_555
Nb8 O35 1.889090 1_555
Nb8 O34 1.946966 1_555
Nb8 O33 1.984134 1_555
Nb8 O69 2.017716 1_555
Nb8 O71 2.023645 1_555
Nb8 O70 2.270809 1_555
In0 O14 2.018976 1_555
In0 O49 2.082817 1_555
In0 O48 2.091868 1_555
In0 O13 2.164888 1_555
In0 O50 2.253096 1_555
In0 O12 2.320394 1_555
In1 O17 2.068862 1_555
In1 O15 2.072925 1_555
In1 O52 2.129214 1_555
In1 O53 2.175375 1_555
In1 O16 2.238618 1_555
In1 O51 2.323553 1_555
In2 O27 2.036445 1_555
In2 O29 2.055825 1_555
In2 O64 2.071338 1_555
In2 O63 2.219289 1_555
In2 O28 2.254394 1_555
In2 O65 2.352789 1_555
O0 Si0 1.629505 1_555
O1 S0 1.503460 1_555
O2 Si1 1.648894 1_655
O3 Si2 1.636462 1_555
O4 S1 1.460365 1_655
O5 Si3 1.622470 1_555
O6 Si3 1.712529 1_565
O7 Si2 1.685872 1_555
O8 S1 1.525505 1_555
O9 S0 1.462489 1_555
O10 Si1 1.650929 1_555
O11 Si0 1.650159 1_565
O12 S2 1.451408 1_555
O13 S3 1.465790 1_555
O14 Si4 1.586449 1_555
O15 Si5 1.590757 1_555
O16 S4 1.465621 1_555
O17 Si6 1.585168 1_555
O18 Si6 1.643357 1_555
O19 Si5 1.657625 1_555
O20 S4 1.469234 1_555
O21 S3 1.492827 1_555
O22 Si4 1.705377 1_555
O23 S2 1.523061 1_555
O24 Si7 1.608643 1_555
O25 Si8 1.632768 1_555
O26 Si9 1.625033 1_555
O27 Si10 1.588017 1_555
O28 S5 1.459010 1_555
O29 Si11 1.581189 1_555
O30 Si11 1.663827 1_555
O31 Si10 1.658303 1_555
O32 S5 1.460669 1_555
O33 Si8 1.623362 1_555
O34 Si9 1.638747 1_555
O35 Si7 1.653961 1_555
O36 Si11 1.617830 1_555
O37 Si10 1.640957 1_555
O38 S5 1.495269 1_555
O39 Si8 1.646918 1_555
O40 Si9 1.636507 1_555
O41 Si7 1.613902 1_555
O42 S2 1.517078 1_555
O43 S3 1.502016 1_555
O44 Si4 1.692782 1_555
O45 Si5 1.676936 1_555
O46 S4 1.505757 1_555
O47 Si6 1.701042 1_555
O48 Si3 1.594555 1_555
O49 Si2 1.598587 1_555
O50 S1 1.461408 1_655
O51 S0 1.461153 1_555
O52 Si1 1.590550 1_655
O53 Si0 1.580868 1_555
O54 Si7 1.645171 1_555
O55 Si8 1.611466 1_655
O56 Si9 1.629353 1_545
O57 Si10 1.664314 1_545
O58 S5 1.508441 1_555
O59 Si11 1.684674 1_655
O60 Si6 1.630990 1_555
O61 Si5 1.654973 1_455
O62 S4 1.484742 1_565
O63 S3 1.472454 1_565
O64 Si4 1.611763 1_555
O65 S2 1.458570 1_455
O66 Si0 1.682433 1_565
O67 S0 1.493486 1_555
O68 Si1 1.666674 1_555
O69 Si2 1.639425 1_555
O70 S1 1.479754 1_555
O71 Si3 1.634997 1_565
