# generated using pymatgen
data_La2Bi4O9
_symmetry_space_group_name_H-M   'P 1'
_cell_length_a   4.02682253
_cell_length_b   6.90791150
_cell_length_c   9.33670878
_cell_angle_alpha   97.88551511
_cell_angle_beta   102.45598289
_cell_angle_gamma   90.01906771
_symmetry_Int_Tables_number   1
_chemical_formula_structural   La2Bi4O9
_chemical_formula_sum   'La2 Bi4 O9'
_cell_volume   251.08705300
_cell_formula_units_Z   1
loop_
 _symmetry_equiv_pos_site_id
 _symmetry_equiv_pos_as_xyz
  1  'x, y, z'
loop_
 _atom_site_type_symbol
 _atom_site_label
 _atom_site_symmetry_multiplicity
 _atom_site_fract_x
 _atom_site_fract_y
 _atom_site_fract_z
 _atom_site_occupancy
  La  La0  1  0.48979884  0.49301121  0.01269236  1
  La  La1  1  0.97625180  0.99279638  0.98616945  1
  Bi  Bi0  1  0.81599690  0.58425074  0.66796393  1
  Bi  Bi1  1  0.64754564  0.90154225  0.33096295  1
  Bi  Bi2  1  0.33951797  0.11336965  0.65331875  1
  Bi  Bi3  1  0.18612414  0.37240328  0.34553080  1
  O  O0  1  0.59086951  0.56175887  0.29750918  1
  O  O1  1  0.53619418  0.85655071  0.09620803  1
  O  O2  1  0.93953863  0.62917200  0.90269140  1
  O  O3  1  0.79182430  0.92383447  0.70139706  1
  O  O4  1  0.66908420  0.24279778  0.49956560  1
  O  O5  1  0.13307951  0.03663647  0.28702765  1
  O  O6  1  0.42944346  0.15179092  0.89120253  1
  O  O7  1  0.03801404  0.33399808  0.10766665  1
  O  O8  1  0.34566689  0.44910118  0.71195067  1
loop_
_geom_bond_atom_site_label_1
_geom_bond_atom_site_label_2
_geom_bond_distance
_geom_bond_site_symmetry_2
La0 O6 2.459433 1_554
La0 O2 2.476701 1_454
La0 O7 2.502889 1_555
La0 O2 2.507116 1_554
La0 O7 2.508125 1_655
La0 O1 2.519739 1_555
La0 O0 2.578617 1_555
La0 O8 2.715978 1_554
La1 O7 2.459340 1_666
La1 O1 2.476092 1_556
La1 O6 2.503494 1_565
La1 O6 2.507339 1_665
La1 O1 2.508554 1_656
La1 O2 2.520269 1_555
La1 O3 2.578431 1_555
La1 O5 2.717050 1_666
Bi0 O2 2.118911 1_555
Bi0 O8 2.250963 1_555
Bi0 O8 2.306111 1_655
Bi0 O3 2.328540 1_555
Bi0 O4 2.639296 1_555
Bi1 O1 2.119159 1_555
Bi1 O5 2.251820 1_565
Bi1 O5 2.304695 1_665
Bi1 O0 2.329526 1_555
Bi1 O4 2.639222 1_565
Bi2 O6 2.150786 1_555
Bi2 O3 2.245719 1_545
Bi2 O8 2.307542 1_555
Bi2 O4 2.407197 1_555
Bi2 O3 2.714083 1_445
Bi3 O7 2.150625 1_555
Bi3 O0 2.245694 1_555
Bi3 O5 2.307711 1_555
Bi3 O4 2.408332 1_555
Bi3 O0 2.712372 1_455
