# generated using pymatgen
data_Na7Sc2In2SiP5O24
_symmetry_space_group_name_H-M   'P 1'
_cell_length_a   9.14394678
_cell_length_b   9.14254865
_cell_length_c   22.57827877
_cell_angle_alpha   89.99269709
_cell_angle_beta   89.88898324
_cell_angle_gamma   120.01852352
_symmetry_Int_Tables_number   1
_chemical_formula_structural   Na7Sc2In2SiP5O24
_chemical_formula_sum   'Na21 Sc6 In6 Si3 P15 O72'
_cell_volume   1634.33158939
_cell_formula_units_Z   3
loop_
 _symmetry_equiv_pos_site_id
 _symmetry_equiv_pos_as_xyz
  1  'x, y, z'
loop_
 _atom_site_type_symbol
 _atom_site_label
 _atom_site_symmetry_multiplicity
 _atom_site_fract_x
 _atom_site_fract_y
 _atom_site_fract_z
 _atom_site_occupancy
  Na  Na0  1  0.36461591  0.36610022  0.25105856  1
  Na  Na1  1  0.99787934  0.63115305  0.24810479  1
  Na  Na2  1  0.63645670  0.64093762  0.74912649  1
  Na  Na3  1  0.99416738  0.35966809  0.75300054  1
  Na  Na4  1  0.37256426  0.00170048  0.74808672  1
  Na  Na5  1  0.30079307  0.32670339  0.58072644  1
  Na  Na6  1  0.03599310  0.70315225  0.58229189  1
  Na  Na7  1  0.66244752  0.96786025  0.58665493  1
  Na  Na8  1  0.29850500  0.96528624  0.08337396  1
  Na  Na9  1  0.67204158  0.69769983  0.08188999  1
  Na  Na10  1  0.03071764  0.33839066  0.08508328  1
  Na  Na11  1  0.96400643  0.66379507  0.91945681  1
  Na  Na12  1  0.70251532  0.03357846  0.91406011  1
  Na  Na13  1  0.96892374  0.30062603  0.41524876  1
  Na  Na14  1  0.33497697  0.03520121  0.41861009  1
  Na  Na15  1  0.99457089  0.98910486  0.49934078  1
  Na  Na16  1  0.01029904  0.00609435  0.99937730  1
  Na  Na17  1  0.65645856  0.32814375  0.83392826  1
  Na  Na18  1  0.66668679  0.33340469  0.33316106  1
  Na  Na19  1  0.33884614  0.67733990  0.16757936  1
  Na  Na20  1  0.33994525  0.67680536  0.66660220  1
  Sc  Sc0  1  0.99232860  0.99347004  0.35055151  1
  Sc  Sc1  1  0.99601885  0.99520549  0.15090101  1
  Sc  Sc2  1  0.32896190  0.66354920  0.01638750  1
  Sc  Sc3  1  0.33759809  0.67152812  0.51537586  1
  Sc  Sc4  1  0.34100283  0.67320895  0.31604776  1
  Sc  Sc5  1  0.33813286  0.66905767  0.81735628  1
  In  In0  1  0.00445441  0.00682217  0.85058210  1
  In  In1  1  0.99952704  0.99996386  0.65247277  1
  In  In2  1  0.66480623  0.32666280  0.68084600  1
  In  In3  1  0.67057170  0.32827794  0.18340981  1
  In  In4  1  0.66275678  0.33684254  0.98398012  1
  In  In5  1  0.66134002  0.33663491  0.48214735  1
  Si  Si0  1  0.69998660  0.00028239  0.75103497  1
  Si  Si1  1  0.36318842  0.03015726  0.58227851  1
  Si  Si2  1  0.96761999  0.63465535  0.08347048  1
  P  P0  1  0.29415120  0.00016415  0.25083847  1
  P  P1  1  0.70263236  0.70368519  0.24926730  1
  P  P2  1  0.00075125  0.29558034  0.25154251  1
  P  P3  1  0.29978000  0.30130325  0.74955709  1
  P  P4  1  0.00068891  0.70017122  0.75124214  1
  P  P5  1  0.96738850  0.33618765  0.58146311  1
  P  P6  1  0.66612339  0.63060328  0.58396644  1
  P  P7  1  0.66616680  0.03427691  0.08143892  1
  P  P8  1  0.36757812  0.33252580  0.08550155  1
  P  P9  1  0.62931021  0.66532818  0.91646770  1
  P  P10  1  0.03718822  0.36984047  0.91718502  1
  P  P11  1  0.33356674  0.96253527  0.91680174  1
  P  P12  1  0.63095831  0.96277464  0.41728125  1
  P  P13  1  0.33223221  0.37084685  0.41496381  1
  P  P14  1  0.03910067  0.66643276  0.41569506  1
  O  O0  1  0.20686730  0.02392745  0.30611594  1
  O  O1  1  0.82028485  0.79670754  0.30168486  1
  O  O2  1  0.98528232  0.18951529  0.30682844  1
  O  O3  1  0.21974359  0.17822605  0.80182828  1
  O  O4  1  0.97029585  0.78081497  0.80677312  1
  O  O5  1  0.81883391  0.03740285  0.80969781  1
  O  O6  1  0.77649174  0.95983405  0.69122863  1
  O  O7  1  0.19534831  0.23054750  0.69185759  1
  O  O8  1  0.03848335  0.81075459  0.69486260  1
  O  O9  1  0.78184010  0.80231743  0.19130337  1
  O  O10  1  0.02230942  0.21157621  0.19502910  1
  O  O11  1  0.18571626  0.97576168  0.19472150  1
  O  O12  1  0.89541833  0.37443371  0.63808756  1
  O  O13  1  0.47937088  0.10504811  0.64193059  1
  O  O14  1  0.63550162  0.52703216  0.64178510  1
  O  O15  1  0.89060946  0.51317114  0.14234751  1
  O  O16  1  0.61989621  0.10977699  0.13470225  1
  O  O17  1  0.47681610  0.36835827  0.14203498  1
  O  O18  1  0.44332764  0.28677558  0.03211768  1
  O  O19  1  0.84705956  0.55811446  0.02455688  1
  O  O20  1  0.70203188  0.14336094  0.02469962  1
  O  O21  1  0.44267753  0.15040923  0.52344749  1
  O  O22  1  0.70570542  0.54947231  0.53124655  1
  O  O23  1  0.85532217  0.30626207  0.52645693  1
  O  O24  1  0.54193317  0.68436762  0.97224282  1
  O  O25  1  0.13873078  0.45969838  0.97318500  1
  O  O26  1  0.31211809  0.85449771  0.97261915  1
  O  O27  1  0.55179231  0.86428935  0.47523985  1
  O  O28  1  0.31064613  0.45462558  0.47158768  1
  O  O29  1  0.14759646  0.69090253  0.47183510  1
  O  O30  1  0.12676324  0.64277030  0.36047107  1
  O  O31  1  0.51294435  0.87008971  0.36489604  1
  O  O32  1  0.34780458  0.47746706  0.35980460  1
  O  O33  1  0.12444917  0.47589228  0.86128030  1
  O  O34  1  0.35462033  0.87605351  0.86090808  1
  O  O35  1  0.52832904  0.65391337  0.86034227  1
  O  O36  1  0.02744317  0.82986672  0.41059421  1
  O  O37  1  0.81169123  0.98893528  0.41119619  1
  O  O38  1  0.16845832  0.19144567  0.41152313  1
  O  O39  1  0.01339387  0.18894412  0.91663293  1
  O  O40  1  0.16749203  0.97096071  0.91358019  1
  O  O41  1  0.80946114  0.82916333  0.91537189  1
  O  O42  1  0.98142670  0.17377442  0.58673195  1
  O  O43  1  0.17317851  0.01074318  0.58682254  1
  O  O44  1  0.82292682  0.81197680  0.58714995  1
  O  O45  1  0.98917759  0.82513682  0.08971452  1
  O  O46  1  0.82796207  0.02126612  0.09040558  1
  O  O47  1  0.18576344  0.17825547  0.09207453  1
  O  O48  1  0.68375088  0.17260895  0.74822845  1
  O  O49  1  0.48221169  0.32975538  0.74526129  1
  O  O50  1  0.83748069  0.52418887  0.74531222  1
  O  O51  1  0.68639716  0.52381896  0.24803207  1
  O  O52  1  0.84450555  0.32122897  0.25013422  1
  O  O53  1  0.46907223  0.16598141  0.24678354  1
  O  O54  1  0.65289585  0.50804821  0.91723926  1
  O  O55  1  0.85758998  0.35446358  0.91848066  1
  O  O56  1  0.49912157  0.13731382  0.92011993  1
  O  O57  1  0.64780037  0.14298460  0.41841299  1
  O  O58  1  0.48828617  0.34517804  0.41604581  1
  O  O59  1  0.86442246  0.50061001  0.41960778  1
  O  O60  1  0.35357420  0.49385113  0.07644140  1
  O  O61  1  0.15803871  0.65577469  0.07739556  1
  O  O62  1  0.51197697  0.85247008  0.07502574  1
  O  O63  1  0.34414476  0.84083711  0.57651019  1
  O  O64  1  0.50372473  0.64341825  0.57633957  1
  O  O65  1  0.14770498  0.49205270  0.57482871  1
  O  O66  1  0.30586203  0.83670724  0.25596366  1
  O  O67  1  0.52185349  0.67780422  0.25533107  1
  O  O68  1  0.16457936  0.47518268  0.25499361  1
  O  O69  1  0.31148779  0.47549687  0.75806475  1
  O  O70  1  0.15650099  0.67567237  0.75778742  1
  O  O71  1  0.50969324  0.83056079  0.75595569  1
loop_
_geom_bond_atom_site_label_1
_geom_bond_atom_site_label_2
_geom_bond_distance
_geom_bond_site_symmetry_2
Na0 O53 2.453004 1_555
Na0 O67 2.469549 1_555
Na0 O68 2.484504 1_555
Na0 O51 2.548610 1_555
Na0 O17 2.661074 1_555
Na0 O32 2.691576 1_555
Na1 O52 2.453838 1_555
Na1 O66 2.490123 1_655
Na1 O51 2.505712 1_555
Na1 O68 2.560611 1_655
Na1 O15 2.603535 1_555
Na1 O30 2.779053 1_655
Na1 O1 2.973837 1_555
Na1 O11 2.984240 1_655
Na2 O49 2.465070 1_555
Na2 O71 2.526426 1_555
Na2 O50 2.547164 1_555
Na2 O69 2.580481 1_555
Na2 O14 2.636275 1_555
Na2 O35 2.721189 1_555
Na2 O6 2.847097 1_555
Na2 O4 2.959349 1_555
Na3 O48 2.477361 1_555
Na3 O70 2.504331 1_655
Na3 O69 2.545678 1_655
Na3 O50 2.549987 1_555
Na3 O33 2.696397 1_655
Na3 O12 2.774190 1_555
Na3 O5 2.855645 1_555
Na3 O7 2.974363 1_655
Na4 O71 2.452709 1_545
Na4 O48 2.467720 1_555
Na4 O13 2.580385 1_555
Na4 O70 2.634750 1_545
Na4 O49 2.644953 1_555
Na4 O34 2.764843 1_545
Na4 O3 2.877512 1_555
Na4 O8 2.915901 1_545
Na5 O43 2.520251 1_555
Na5 O65 2.525971 1_555
Na5 O42 2.532654 1_455
Na5 O64 2.541774 1_555
Na5 O7 2.672130 1_555
Na5 O28 2.709431 1_555
Na5 O21 2.835463 1_555
Na6 O43 2.441980 1_565
Na6 O63 2.447607 1_555
Na6 O44 2.595448 1_455
Na6 O65 2.601665 1_555
Na6 O29 2.716279 1_555
Na6 O8 2.721534 1_555
Na6 O22 2.862124 1_455
Na6 O12 2.898069 1_455
Na7 O44 2.505413 1_555
Na7 O63 2.548152 1_555
Na7 O42 2.560740 1_565
Na7 O64 2.579381 1_555
Na7 O6 2.598783 1_555
Na7 O27 2.701906 1_555
Na7 O13 2.833068 1_565
Na8 O45 2.456565 1_455
Na8 O61 2.457534 1_555
Na8 O47 2.626817 1_565
Na8 O62 2.631094 1_555
Na8 O26 2.724022 1_554
Na8 O11 2.735332 1_555
Na8 O18 2.798348 1_565
Na8 O16 2.802468 1_565
Na9 O62 2.498283 1_555
Na9 O45 2.533662 1_555
Na9 O60 2.557295 1_555
Na9 O46 2.569429 1_565
Na9 O9 2.659874 1_555
Na9 O24 2.724971 1_554
Na9 O19 2.810921 1_555
Na9 O17 2.951019 1_555
Na10 O47 2.501178 1_555
Na10 O61 2.534635 1_555
Na10 O46 2.545295 1_455
Na10 O60 2.563778 1_555
Na10 O10 2.724283 1_555
Na10 O25 2.735357 1_554
Na10 O15 2.812265 1_455
Na10 O20 2.953902 1_455
Na11 O54 2.463815 1_555
Na11 O40 2.477268 1_655
Na11 O55 2.488377 1_555
Na11 O41 2.535648 1_555
Na11 O19 2.581448 1_556
Na11 O4 2.749192 1_555
Na12 O39 2.462174 1_655
Na12 O56 2.478110 1_555
Na12 O41 2.505710 1_545
Na12 O55 2.542759 1_555
Na12 O5 2.576392 1_555
Na12 O20 2.693085 1_556
Na13 O59 2.452232 1_555
Na13 O37 2.469249 1_545
Na13 O38 2.480735 1_655
Na13 O57 2.543456 1_555
Na13 O2 2.682905 1_555
Na13 O23 2.725754 1_555
Na14 O58 2.454501 1_555
Na14 O36 2.486915 1_545
Na14 O57 2.516512 1_555
Na14 O38 2.561584 1_555
Na14 O21 2.579533 1_555
Na14 O0 2.779365 1_555
Na14 O31 2.974628 1_545
Na14 O29 2.980433 1_545
Na15 O43 2.509403 1_665
Na15 O44 2.541746 1_555
Na15 O36 2.580906 1_655
Na15 O37 2.601424 1_555
Na15 O38 2.631638 1_665
Na15 O42 2.638414 1_565
Na16 O39 2.497470 1_555
Na16 O40 2.524494 1_545
Na16 O45 2.571479 1_446
Na16 O41 2.574610 1_445
Na16 O47 2.630428 1_556
Na16 O46 2.690976 1_456
Na17 O48 2.486416 1_555
Na17 O54 2.509736 1_555
Na17 O56 2.525408 1_555
Na17 O49 2.565633 1_555
Na17 O55 2.579866 1_555
Na17 O50 2.640716 1_555
Na18 O58 2.517679 1_555
Na18 O52 2.517863 1_555
Na18 O51 2.537977 1_555
Na18 O57 2.542184 1_555
Na18 O53 2.580427 1_555
Na18 O59 2.581576 1_555
Na19 O61 2.570086 1_555
Na19 O66 2.575707 1_555
Na19 O67 2.594521 1_555
Na19 O62 2.624279 1_555
Na19 O68 2.624997 1_555
Na19 O60 2.700457 1_555
Na20 O71 2.507007 1_555
Na20 O63 2.515837 1_555
Na20 O64 2.633441 1_555
Na20 O70 2.649849 1_555
Na20 O69 2.690226 1_555
Na20 O65 2.698294 1_555
In0 O5 2.071697 1_455
In0 O3 2.108859 1_555
In0 O4 2.168277 1_445
In0 O40 2.202350 1_545
In0 O39 2.206364 1_555
In0 O41 2.246961 1_445
In1 O6 2.074582 1_555
In1 O43 2.135978 1_665
In1 O8 2.157024 1_655
In1 O7 2.161221 1_665
In1 O44 2.229290 1_555
In1 O42 2.240365 1_565
In2 O13 2.078719 1_555
In2 O48 2.138438 1_555
In2 O12 2.154047 1_555
In2 O14 2.167270 1_555
In2 O49 2.222961 1_555
In2 O50 2.242643 1_555
In3 O15 2.086755 1_555
In3 O16 2.119224 1_555
In3 O17 2.191288 1_555
In3 O53 2.213069 1_555
In3 O52 2.216999 1_555
In3 O51 2.255761 1_555
In4 O19 2.089785 1_556
In4 O18 2.118752 1_556
In4 O20 2.177103 1_556
In4 O54 2.206814 1_555
In4 O56 2.218892 1_555
In4 O55 2.255982 1_555
In5 O21 2.086221 1_555
In5 O22 2.095806 1_555
In5 O23 2.173440 1_555
In5 O58 2.206874 1_555
In5 O59 2.212128 1_555
In5 O57 2.236655 1_555
O0 P0 1.552925 1_555
O0 Sc0 2.092422 1_445
O1 P1 1.539825 1_555
O1 Sc0 2.025811 1_555
O2 P2 1.542809 1_655
O2 Sc0 2.075228 1_545
O3 P3 1.538496 1_555
O4 P4 1.548138 1_655
O5 Si0 1.639255 1_555
O6 Si0 1.644634 1_565
O7 P3 1.553856 1_555
O8 P4 1.552535 1_555
O9 P1 1.546943 1_555
O9 Sc1 2.077152 1_555
O10 P2 1.551635 1_555
O10 Sc1 2.118793 1_445
O11 P0 1.556230 1_565
O11 Sc1 2.081923 1_455
O12 P5 1.554659 1_555
O13 Si1 1.639935 1_555
O14 P6 1.553126 1_555
O15 Si2 1.646227 1_555
O16 P7 1.546660 1_555
O17 P8 1.553048 1_555
O18 P8 1.547345 1_555
O19 Si2 1.645713 1_555
O20 P7 1.553745 1_555
O21 Si1 1.642478 1_555
O22 P6 1.537928 1_555
O23 P5 1.546561 1_555
O24 P9 1.545903 1_555
O24 Sc2 2.107981 1_556
O25 P10 1.541845 1_555
O25 Sc2 2.052805 1_556
O26 P11 1.551530 1_555
O26 Sc2 2.077771 1_556
O27 P12 1.546307 1_555
O27 Sc3 2.074165 1_555
O28 P13 1.552632 1_555
O28 Sc3 2.117333 1_555
O29 P14 1.556862 1_555
O29 Sc3 2.081043 1_555
O30 P14 1.553610 1_555
O30 Sc4 2.089968 1_555
O31 P12 1.540048 1_555
O31 Sc4 2.025814 1_555
O32 P13 1.543249 1_555
O32 Sc4 2.072117 1_555
O33 P10 1.546510 1_555
O33 Sc5 2.111776 1_555
O34 P11 1.551265 1_555
O34 Sc5 2.070429 1_555
O35 P9 1.541909 1_555
O35 Sc5 2.057474 1_555
O36 P14 1.554554 1_555
O36 Sc0 2.158677 1_455
O37 P12 1.552686 1_555
O37 Sc0 2.127796 1_555
O38 P13 1.575351 1_555
O38 Sc0 2.203986 1_445
O39 P10 1.556504 1_555
O40 P11 1.560376 1_555
O41 P9 1.577599 1_555
O42 P5 1.557625 1_555
O43 Si1 1.658757 1_555
O44 P6 1.559545 1_555
O45 Si2 1.657769 1_555
O45 Sc1 2.057564 1_555
O46 P7 1.556000 1_555
O46 Sc1 2.158298 1_545
O47 P8 1.558230 1_555
O47 Sc1 2.158795 1_445
O48 Si0 1.655991 1_555
O49 P3 1.557235 1_555
O50 P4 1.559521 1_655
O51 P1 1.575676 1_555
O52 P2 1.559671 1_655
O53 P0 1.561465 1_555
O54 P9 1.557171 1_555
O55 P10 1.576824 1_655
O56 P11 1.559094 1_545
O57 P12 1.576400 1_545
O58 P13 1.557899 1_555
O59 P14 1.560115 1_655
O60 P8 1.556484 1_555
O60 Sc2 2.155510 1_555
O61 Si2 1.658458 1_455
O61 Sc2 2.055630 1_555
O62 P7 1.558095 1_565
O62 Sc2 2.157255 1_555
O63 Si1 1.655827 1_565
O63 Sc3 2.052566 1_555
O64 P6 1.556780 1_555
O64 Sc3 2.160283 1_555
O65 P5 1.555555 1_455
O65 Sc3 2.156146 1_555
O66 P0 1.555071 1_565
O66 Sc4 2.158647 1_555
O67 P1 1.554029 1_555
O67 Sc4 2.130128 1_555
O68 P2 1.576617 1_555
O68 Sc4 2.206227 1_555
O69 P3 1.553775 1_555
O69 Sc5 2.133910 1_555
O70 P4 1.556273 1_555
O70 Sc5 2.163348 1_555
O71 Si0 1.656955 1_565
O71 Sc5 2.058265 1_555
