# generated using pymatgen
data_Na4CaZnP2SO12
_symmetry_space_group_name_H-M   'P 1'
_cell_length_a   9.31713286
_cell_length_b   9.27125647
_cell_length_c   22.52333215
_cell_angle_alpha   89.84763351
_cell_angle_beta   90.10417442
_cell_angle_gamma   120.03871982
_symmetry_Int_Tables_number   1
_chemical_formula_structural   Na4CaZnP2SO12
_chemical_formula_sum   'Na24 Ca6 Zn6 P12 S6 O72'
_cell_volume   1684.27488579
_cell_formula_units_Z   6
loop_
 _symmetry_equiv_pos_site_id
 _symmetry_equiv_pos_as_xyz
  1  'x, y, z'
loop_
 _atom_site_type_symbol
 _atom_site_label
 _atom_site_symmetry_multiplicity
 _atom_site_fract_x
 _atom_site_fract_y
 _atom_site_fract_z
 _atom_site_occupancy
  Na  Na0  1  0.63203860  0.00662620  0.25522397  1
  Na  Na1  1  0.35971359  0.35937553  0.24674884  1
  Na  Na2  1  0.00523026  0.62787263  0.24806684  1
  Na  Na3  1  0.62666242  0.62895056  0.74478949  1
  Na  Na4  1  0.99284697  0.35143315  0.74221763  1
  Na  Na5  1  0.37696386  0.01366386  0.75280474  1
  Na  Na6  1  0.29675620  0.33526068  0.59245619  1
  Na  Na7  1  0.01883297  0.68988365  0.58174870  1
  Na  Na8  1  0.68076654  0.96734132  0.58430716  1
  Na  Na9  1  0.28659498  0.96668613  0.08458572  1
  Na  Na10  1  0.67094424  0.69024532  0.08259213  1
  Na  Na11  1  0.03870781  0.33497496  0.09411237  1
  Na  Na12  1  0.96884245  0.67745126  0.92331555  1
  Na  Na13  1  0.68301215  0.01508860  0.91136795  1
  Na  Na14  1  0.34486049  0.30111090  0.91467279  1
  Na  Na15  1  0.95918680  0.29457258  0.41087460  1
  Na  Na16  1  0.32693175  0.01944786  0.40914553  1
  Na  Na17  1  0.71151462  0.68084363  0.41853614  1
  Na  Na18  1  0.98326481  0.99027711  0.49956732  1
  Na  Na19  1  0.00701339  0.98906335  0.00250070  1
  Na  Na20  1  0.64906287  0.32472151  0.83097141  1
  Na  Na21  1  0.67479577  0.32639368  0.32986735  1
  Na  Na22  1  0.31810671  0.65725443  0.17070832  1
  Na  Na23  1  0.34139966  0.65930674  0.66603983  1
  Ca  Ca0  1  0.00024885  0.00310468  0.84408571  1
  Ca  Ca1  1  0.66218293  0.33678618  0.98930424  1
  Ca  Ca2  1  0.67438496  0.33660040  0.48478475  1
  Ca  Ca3  1  0.33480384  0.66759174  0.01742063  1
  Ca  Ca4  1  0.33395590  0.66899693  0.51408340  1
  Ca  Ca5  1  0.33980709  0.66853521  0.81658586  1
  Zn  Zn0  1  0.00119038  0.00087526  0.34201333  1
  Zn  Zn1  1  0.98885876  0.00934670  0.65484309  1
  Zn  Zn2  1  0.02254364  0.01004939  0.15830059  1
  Zn  Zn3  1  0.66860142  0.33429559  0.67746797  1
  Zn  Zn4  1  0.66560819  0.33506843  0.17967320  1
  Zn  Zn5  1  0.32262122  0.68129408  0.32053660  1
  P  P0  1  0.30214348  0.00124019  0.25078122  1
  P  P1  1  0.99979212  0.29695584  0.25006525  1
  P  P2  1  0.30756449  0.29915327  0.74506470  1
  P  P3  1  0.69550374  0.00840159  0.74628823  1
  P  P4  1  0.96793550  0.32852156  0.58669291  1
  P  P5  1  0.67433591  0.63988985  0.58722935  1
  P  P6  1  0.96580966  0.64020601  0.08915768  1
  P  P7  1  0.35956098  0.32649756  0.08876642  1
  P  P8  1  0.64320239  0.66729456  0.91698570  1
  P  P9  1  0.33272663  0.97421038  0.91655128  1
  P  P10  1  0.63904156  0.96442177  0.41179233  1
  P  P11  1  0.03120438  0.67469652  0.41267903  1
  S  S0  1  0.70188935  0.70219225  0.24961542  1
  S  S1  1  0.99529924  0.69477544  0.74650610  1
  S  S2  1  0.36156251  0.03336929  0.58556722  1
  S  S3  1  0.67326131  0.03431584  0.08739711  1
  S  S4  1  0.02662921  0.36087199  0.91679218  1
  S  S5  1  0.32856905  0.36380654  0.41302781  1
  O  O0  1  0.21909512  0.02785737  0.30624436  1
  O  O1  1  0.80300378  0.78202826  0.30365896  1
  O  O2  1  0.97367464  0.18748084  0.30594562  1
  O  O3  1  0.23409018  0.20291514  0.80354155  1
  O  O4  1  0.97815196  0.77131976  0.80168649  1
  O  O5  1  0.79382736  0.03241425  0.80436525  1
  O  O6  1  0.78424489  0.98087876  0.69296807  1
  O  O7  1  0.19617909  0.20333624  0.69108464  1
  O  O8  1  0.01560196  0.80170479  0.69429405  1
  O  O9  1  0.78364425  0.80629844  0.19601339  1
  O  O10  1  0.02181370  0.21278322  0.19362410  1
  O  O11  1  0.19290128  0.96914330  0.19476005  1
  O  O12  1  0.87811121  0.34863611  0.64135757  1
  O  O13  1  0.46566683  0.11877182  0.63813022  1
  O  O14  1  0.65117288  0.52582932  0.64130772  1
  O  O15  1  0.87322609  0.52335944  0.14244648  1
  O  O16  1  0.65398967  0.12141635  0.13928485  1
  O  O17  1  0.47168935  0.34629049  0.14288340  1
  O  O18  1  0.43274453  0.30217195  0.03080065  1
  O  O19  1  0.87242572  0.56643006  0.03013620  1
  O  O20  1  0.69350881  0.12868204  0.03187477  1
  O  O21  1  0.43793104  0.13032759  0.53067862  1
  O  O22  1  0.69403904  0.56327429  0.52902258  1
  O  O23  1  0.86744858  0.30395776  0.52933965  1
  O  O24  1  0.55713139  0.68152677  0.97365054  1
  O  O25  1  0.12543180  0.44468188  0.97039311  1
  O  O26  1  0.31510962  0.87076444  0.97295439  1
  O  O27  1  0.56432021  0.86563673  0.46991371  1
  O  O28  1  0.31049965  0.43991746  0.46838413  1
  O  O29  1  0.13103389  0.69870264  0.47044770  1
  O  O30  1  0.11708545  0.64525602  0.35867401  1
  O  O31  1  0.52851203  0.87131564  0.35721815  1
  O  O32  1  0.34909280  0.47024243  0.36073152  1
  O  O33  1  0.10747983  0.45925464  0.86274897  1
  O  O34  1  0.34300456  0.88562414  0.85997742  1
  O  O35  1  0.53881276  0.64867867  0.86109425  1
  O  O36  1  0.01687401  0.83539204  0.40633477  1
  O  O37  1  0.81662774  0.98629449  0.40705416  1
  O  O38  1  0.17680626  0.19539723  0.40886364  1
  O  O39  1  0.01162472  0.19332530  0.91449670  1
  O  O40  1  0.17830363  0.99750478  0.91577782  1
  O  O41  1  0.81679091  0.82820710  0.91504954  1
  O  O42  1  0.98992042  0.17166119  0.59051593  1
  O  O43  1  0.19260490  0.01295910  0.59005270  1
  O  O44  1  0.83583222  0.81549368  0.59216259  1
  O  O45  1  0.97896242  0.81528303  0.09433384  1
  O  O46  1  0.82209835  0.01449357  0.09265143  1
  O  O47  1  0.18161794  0.16956216  0.09292610  1
  O  O48  1  0.68002205  0.16827871  0.74054419  1
  O  O49  1  0.48507305  0.32160407  0.74059291  1
  O  O50  1  0.84372886  0.52677516  0.74270438  1
  O  O51  1  0.68535629  0.53294729  0.24611027  1
  O  O52  1  0.84257881  0.31743598  0.24583448  1
  O  O53  1  0.47859141  0.16030493  0.24596246  1
  O  O54  1  0.66492499  0.51150691  0.91775925  1
  O  O55  1  0.85845651  0.34161127  0.92001577  1
  O  O56  1  0.49538587  0.14704780  0.91755487  1
  O  O57  1  0.65114714  0.13903547  0.41308422  1
  O  O58  1  0.47831423  0.34369140  0.41615548  1
  O  O59  1  0.85413401  0.51848517  0.41478834  1
  O  O60  1  0.34391928  0.48648800  0.08763171  1
  O  O61  1  0.14278395  0.66058355  0.08836162  1
  O  O62  1  0.52067772  0.86540516  0.08538582  1
  O  O63  1  0.34606813  0.86475907  0.58327423  1
  O  O64  1  0.51818502  0.66104998  0.58588844  1
  O  O65  1  0.14294086  0.48854506  0.58492676  1
  O  O66  1  0.32297428  0.84339762  0.25521358  1
  O  O67  1  0.53278777  0.68226674  0.25341455  1
  O  O68  1  0.16076534  0.47346195  0.25413996  1
  O  O69  1  0.31934093  0.47344696  0.74542745  1
  O  O70  1  0.14457863  0.67404625  0.74864780  1
  O  O71  1  0.51861683  0.85213207  0.74744458  1
loop_
_geom_bond_atom_site_label_1
_geom_bond_atom_site_label_2
_geom_bond_distance
_geom_bond_site_symmetry_2
Na0 O53 2.480785 1_555
Na0 O66 2.493863 1_545
Na0 O52 2.556432 1_555
Na0 O31 2.561792 1_545
Na0 O67 2.667686 1_545
Na0 O16 2.786175 1_555
Na1 O68 2.558790 1_555
Na1 O53 2.584632 1_555
Na1 O17 2.590955 1_555
Na1 O67 2.598666 1_555
Na1 O51 2.628146 1_555
Na1 O32 2.788187 1_555
Na1 O10 2.983547 1_555
Na1 O0 2.985305 1_555
Na2 O52 2.493293 1_455
Na2 O68 2.498674 1_555
Na2 O66 2.619256 1_555
Na2 O15 2.630460 1_455
Na2 O51 2.651881 1_455
Na2 O30 2.672623 1_555
Na3 O49 2.471101 1_555
Na3 O69 2.478834 1_555
Na3 O14 2.575073 1_555
Na3 O50 2.628401 1_555
Na3 O71 2.717489 1_555
Na3 O35 2.779530 1_555
Na4 O12 2.503562 1_555
Na4 O48 2.534727 1_555
Na4 O70 2.594989 1_655
Na4 O50 2.614290 1_555
Na4 O69 2.663273 1_655
Na4 O33 2.906019 1_655
Na4 O5 2.939785 1_555
Na5 O71 2.445332 1_545
Na5 O48 2.460163 1_555
Na5 O49 2.521695 1_555
Na5 O34 2.635837 1_545
Na5 O13 2.737122 1_555
Na5 O70 2.790401 1_545
Na5 O3 2.917386 1_555
Na6 O42 2.476701 1_455
Na6 O65 2.477721 1_555
Na6 O7 2.480835 1_555
Na6 O43 2.640300 1_555
Na6 O64 2.676082 1_555
Na6 O28 2.937633 1_555
Na7 O44 2.511822 1_455
Na7 O43 2.602856 1_565
Na7 O63 2.641308 1_555
Na7 O65 2.643225 1_555
Na7 O29 2.703107 1_555
Na7 O8 2.747162 1_555
Na7 O22 2.895475 1_455
Na8 O64 2.460255 1_555
Na8 O44 2.476834 1_555
Na8 O42 2.538101 1_565
Na8 O6 2.609020 1_555
Na8 O63 2.767710 1_555
Na8 O27 2.771862 1_555
Na8 O23 2.974983 1_565
Na9 O61 2.459402 1_555
Na9 O45 2.491299 1_455
Na9 O47 2.524714 1_565
Na9 O11 2.635995 1_555
Na9 O26 2.726551 1_554
Na9 O62 2.772874 1_555
Na9 O18 2.956654 1_565
Na10 O45 2.513548 1_555
Na10 O46 2.614517 1_565
Na10 O62 2.622684 1_555
Na10 O24 2.656607 1_554
Na10 O60 2.665108 1_555
Na10 O9 2.767693 1_555
Na10 O19 2.900058 1_555
Na11 O60 2.466232 1_555
Na11 O10 2.478106 1_555
Na11 O47 2.483998 1_555
Na11 O46 2.626645 1_455
Na11 O61 2.671682 1_555
Na11 O25 2.936444 1_554
Na12 O41 2.444438 1_555
Na12 O54 2.457435 1_555
Na12 O19 2.593076 1_556
Na12 O40 2.615946 1_655
Na12 O55 2.748278 1_555
Na12 O4 2.860478 1_555
Na13 O56 2.591370 1_555
Na13 O41 2.592964 1_545
Na13 O5 2.596371 1_555
Na13 O55 2.630982 1_555
Na13 O39 2.654110 1_655
Na13 O20 2.897720 1_556
Na14 O40 2.441004 1_545
Na14 O56 2.452768 1_555
Na14 O54 2.622753 1_555
Na14 O3 2.687239 1_555
Na14 O18 2.737910 1_556
Na14 O39 2.744471 1_555
Na15 O37 2.478039 1_545
Na15 O57 2.485095 1_555
Na15 O2 2.595625 1_555
Na15 O38 2.612600 1_655
Na15 O59 2.703879 1_555
Na15 O23 2.818080 1_555
Na16 O36 2.515131 1_545
Na16 O0 2.540902 1_555
Na16 O58 2.609203 1_555
Na16 O38 2.627140 1_555
Na16 O57 2.647368 1_555
Na16 O21 2.925678 1_555
Na16 O29 2.938382 1_545
Na17 O59 2.458110 1_555
Na17 O36 2.478395 1_655
Na17 O37 2.503215 1_555
Na17 O22 2.686401 1_555
Na17 O1 2.737865 1_555
Na17 O58 2.774057 1_555
Na17 O27 2.919568 1_555
Na18 O44 2.574148 1_555
Na18 O37 2.585526 1_555
Na18 O42 2.634670 1_565
Na18 O36 2.652984 1_655
Na18 O43 2.753041 1_665
Na18 O38 2.757053 1_665
Na19 O40 2.500788 1_554
Na19 O45 2.550499 1_455
Na19 O41 2.569361 1_454
Na19 O47 2.622123 1_565
Na19 O39 2.723228 1_564
Na19 O46 2.751136 1_465
Na20 O56 2.489656 1_555
Na20 O49 2.534545 1_555
Na20 O54 2.569538 1_555
Na20 O48 2.602283 1_555
Na20 O50 2.709784 1_555
Na20 O55 2.744930 1_555
Na21 O52 2.484866 1_555
Na21 O57 2.485952 1_555
Na21 O53 2.543431 1_555
Na21 O59 2.578631 1_555
Na21 O51 2.651152 1_555
Na21 O58 2.731790 1_555
Na22 O68 2.464944 1_555
Na22 O61 2.479605 1_555
Na22 O60 2.542493 1_555
Na22 O66 2.557710 1_555
Na22 O67 2.655012 1_555
Na22 O62 2.706736 1_555
Na23 O69 2.416421 1_555
Na23 O64 2.440561 1_555
Na23 O71 2.516981 1_555
Na23 O65 2.517035 1_555
Na23 O63 2.646451 1_555
Na23 O70 2.666089 1_555
Ca0 O3 2.229337 1_555
Ca0 O5 2.255840 1_455
Ca0 O4 2.267057 1_445
Ca0 O41 2.308025 1_445
Ca0 O40 2.332014 1_545
Ca0 O39 2.337441 1_555
Ca1 O18 2.205713 1_556
Ca1 O19 2.245961 1_556
Ca1 O54 2.272930 1_555
Ca1 O20 2.297826 1_556
Ca1 O56 2.321677 1_555
Ca1 O55 2.389512 1_555
Ca2 O23 2.207074 1_555
Ca2 O22 2.251226 1_555
Ca2 O59 2.302592 1_555
Ca2 O21 2.314951 1_555
Ca2 O57 2.372203 1_555
Ca2 O58 2.416689 1_555
Ca3 O26 2.218168 1_554
Ca3 O24 2.240163 1_554
Ca3 O25 2.272951 1_554
Ca3 O60 2.335679 1_555
Ca3 O62 2.351909 1_555
Ca3 O61 2.377294 1_555
Ca4 O27 2.236230 1_555
Ca4 O29 2.264832 1_555
Ca4 O28 2.272463 1_555
Ca4 O65 2.351073 1_555
Ca4 O63 2.354739 1_555
Ca4 O64 2.383960 1_555
Ca5 O35 2.193347 1_555
Ca5 O34 2.226495 1_555
Ca5 O71 2.292225 1_555
Ca5 O33 2.307367 1_555
Ca5 O69 2.354896 1_555
Ca5 O70 2.394840 1_555
O0 P0 1.554505 1_555
O0 Zn0 2.080849 1_555
O1 S0 1.489823 1_555
O1 Zn0 2.127271 1_665
O2 P1 1.555806 1_555
O2 Zn0 2.038288 1_655
O3 P2 1.544340 1_555
O4 S1 1.480789 1_555
O5 P3 1.546897 1_555
O6 P3 1.551604 1_565
O6 Zn1 1.985557 1_565
O7 P2 1.556446 1_555
O7 Zn1 2.038659 1_455
O8 S1 1.486070 1_455
O8 Zn1 2.242318 1_465
O9 S0 1.493473 1_555
O9 Zn2 2.243455 1_665
O10 P1 1.560028 1_455
O10 Zn2 2.046140 1_555
O11 P0 1.552645 1_565
O11 Zn2 1.983381 1_565
O12 P4 1.553170 1_555
O12 Zn3 2.057903 1_555
O13 S2 1.483663 1_555
O13 Zn3 2.138587 1_555
O14 P5 1.553722 1_555
O14 Zn3 2.030648 1_555
O15 P6 1.555482 1_555
O15 Zn4 2.027235 1_555
O16 S3 1.483617 1_555
O16 Zn4 2.134817 1_555
O17 P7 1.554166 1_555
O17 Zn4 2.035720 1_555
O18 P7 1.542435 1_555
O19 P6 1.548186 1_555
O20 S3 1.481450 1_555
O21 S2 1.483120 1_555
O22 P5 1.547057 1_555
O23 P4 1.542997 1_555
O24 P8 1.549181 1_555
O25 S4 1.481051 1_555
O26 P9 1.548327 1_555
O27 P10 1.547827 1_555
O28 S5 1.484988 1_555
O29 P11 1.548394 1_555
O30 P11 1.555087 1_555
O30 Zn5 1.969922 1_555
O31 P10 1.558083 1_555
O31 Zn5 2.021063 1_555
O32 S5 1.484407 1_555
O32 Zn5 2.276424 1_555
O33 S4 1.480073 1_555
O34 P9 1.546651 1_555
O35 P8 1.545683 1_555
O36 P11 1.567115 1_555
O36 Zn0 2.164701 1_565
O37 P10 1.566779 1_555
O37 Zn0 2.212848 1_665
O38 S5 1.495323 1_555
O38 Zn0 2.290850 1_555
O39 S4 1.489348 1_555
O40 P9 1.558209 1_555
O41 P8 1.558074 1_555
O42 P4 1.569028 1_555
O42 Zn1 2.082655 1_555
O43 S2 1.492101 1_555
O43 Zn1 2.383376 1_455
O44 P5 1.573144 1_555
O44 Zn1 2.167203 1_565
O45 P6 1.570077 1_555
O45 Zn2 2.186072 1_665
O46 S3 1.491727 1_555
O46 Zn2 2.396368 1_655
O47 P7 1.568193 1_555
O47 Zn2 2.086574 1_555
O48 P3 1.564486 1_555
O48 Zn3 2.133203 1_555
O49 P2 1.563522 1_555
O49 Zn3 2.183067 1_555
O50 S1 1.491901 1_555
O50 Zn3 2.257417 1_555
O51 S0 1.500234 1_555
O51 Zn4 2.305292 1_555
O52 P1 1.571163 1_555
O52 Zn4 2.285980 1_555
O53 P0 1.569021 1_555
O53 Zn4 2.249600 1_555
O54 P8 1.555611 1_555
O55 S4 1.487451 1_655
O56 P9 1.560059 1_545
O57 P10 1.565822 1_545
O58 S5 1.498794 1_555
O59 P11 1.558632 1_655
O60 P7 1.561511 1_555
O61 P6 1.563032 1_455
O62 S3 1.498914 1_565
O63 S2 1.497216 1_565
O64 P5 1.562573 1_555
O65 P4 1.561849 1_455
O66 P0 1.572475 1_565
O66 Zn5 2.099223 1_555
O67 S0 1.494252 1_555
O67 Zn5 2.472452 1_555
O68 P1 1.574437 1_455
O68 Zn5 2.306808 1_555
O69 P2 1.563926 1_555
O70 S1 1.497019 1_455
O71 P3 1.557340 1_565
