# generated using pymatgen
data_NaCaHf3P3(SO8)3
_symmetry_space_group_name_H-M   'P 1'
_cell_length_a   8.93904781
_cell_length_b   8.94106123
_cell_length_c   23.28769992
_cell_angle_alpha   89.97552069
_cell_angle_beta   90.12350116
_cell_angle_gamma   120.09155260
_symmetry_Int_Tables_number   1
_chemical_formula_structural   NaCaHf3P3(SO8)3
_chemical_formula_sum   'Na3 Ca3 Hf9 P9 S9 O72'
_cell_volume   1610.40469752
_cell_formula_units_Z   3
loop_
 _symmetry_equiv_pos_site_id
 _symmetry_equiv_pos_as_xyz
  1  'x, y, z'
loop_
 _atom_site_type_symbol
 _atom_site_label
 _atom_site_symmetry_multiplicity
 _atom_site_fract_x
 _atom_site_fract_y
 _atom_site_fract_z
 _atom_site_occupancy
  Na  Na0  1  0.65337613  0.33147927  0.83194590  1
  Na  Na1  1  0.67446993  0.32867836  0.33065800  1
  Na  Na2  1  0.32959516  0.67470299  0.16634619  1
  Ca  Ca0  1  0.66005344  0.33739099  0.68714389  1
  Ca  Ca1  1  0.67106768  0.33068617  0.18460401  1
  Ca  Ca2  1  0.33183677  0.67217617  0.31477444  1
  Hf  Hf0  1  0.99444105  0.99409851  0.35923730  1
  Hf  Hf1  1  0.00594698  0.00467627  0.86050477  1
  Hf  Hf2  1  0.00048481  0.00142850  0.64608146  1
  Hf  Hf3  1  0.99520381  0.99556283  0.13934892  1
  Hf  Hf4  1  0.67509693  0.33522274  0.98045811  1
  Hf  Hf5  1  0.67443674  0.34263012  0.48403131  1
  Hf  Hf6  1  0.33460626  0.67239721  0.01557318  1
  Hf  Hf7  1  0.34117029  0.67535212  0.51668677  1
  Hf  Hf8  1  0.33328294  0.65967250  0.81291275  1
  P  P0  1  0.28179611  0.28451749  0.75294253  1
  P  P1  1  0.66533703  0.62967490  0.58414040  1
  P  P2  1  0.96442661  0.62424831  0.08322801  1
  P  P3  1  0.66051417  0.03651181  0.08313607  1
  P  P4  1  0.61977737  0.66094711  0.91561617  1
  P  P5  1  0.04367494  0.38218785  0.91574188  1
  P  P6  1  0.34158069  0.95844025  0.91447440  1
  P  P7  1  0.62638840  0.96822169  0.41624623  1
  P  P8  1  0.03793169  0.66186995  0.41633620  1
  S  S0  1  0.28092941  0.00244388  0.24986658  1
  S  S1  1  0.71697561  0.71682356  0.24971381  1
  S  S2  1  0.00197979  0.28063677  0.25022326  1
  S  S3  1  0.00653640  0.71959775  0.75282611  1
  S  S4  1  0.71384775  0.99481902  0.75250737  1
  S  S5  1  0.96532069  0.33590064  0.58333373  1
  S  S6  1  0.37082990  0.03755606  0.58286275  1
  S  S7  1  0.37386908  0.33741798  0.08237376  1
  S  S8  1  0.33693565  0.37267914  0.41720233  1
  O  O0  1  0.18599243  0.00522635  0.30256940  1
  O  O1  1  0.81721304  0.81143160  0.30257745  1
  O  O2  1  0.99791390  0.18148882  0.30291990  1
  O  O3  1  0.18126129  0.17031852  0.80473888  1
  O  O4  1  0.98378655  0.80652432  0.80311093  1
  O  O5  1  0.82025790  0.01118670  0.80309578  1
  O  O6  1  0.79642022  0.97437750  0.69908522  1
  O  O7  1  0.17379397  0.19485848  0.69738750  1
  O  O8  1  0.02327794  0.82072405  0.69932168  1
  O  O9  1  0.81179253  0.81755355  0.19759511  1
  O  O10  1  0.00468744  0.18563175  0.19787174  1
  O  O11  1  0.18169697  0.99828885  0.19751116  1
  O  O12  1  0.89754338  0.37189943  0.63449062  1
  O  O13  1  0.47607212  0.10169853  0.63410912  1
  O  O14  1  0.62356932  0.51999472  0.63684405  1
  O  O15  1  0.89771163  0.52083370  0.13742304  1
  O  O16  1  0.61794532  0.09927830  0.13709249  1
  O  O17  1  0.47543333  0.37301040  0.13435106  1
  O  O18  1  0.45675035  0.30842058  0.03156329  1
  O  O19  1  0.84391020  0.53524427  0.03040531  1
  O  O20  1  0.68847062  0.15576402  0.03042635  1
  O  O21  1  0.45382781  0.15202289  0.53247240  1
  O  O22  1  0.69855270  0.53918554  0.53194405  1
  O  O23  1  0.84695889  0.30117870  0.53296038  1
  O  O24  1  0.53565730  0.69011836  0.96845656  1
  O  O25  1  0.15601879  0.46453213  0.96886676  1
  O  O26  1  0.31150882  0.84607848  0.96804488  1
  O  O27  1  0.53666251  0.84604763  0.46836054  1
  O  O28  1  0.30738015  0.45592850  0.46776765  1
  O  O29  1  0.15551029  0.68889607  0.46891457  1
  O  O30  1  0.09854326  0.61699044  0.36253921  1
  O  O31  1  0.52153405  0.90282789  0.36230906  1
  O  O32  1  0.37596107  0.47499423  0.36571129  1
  O  O33  1  0.12806962  0.49735122  0.86238755  1
  O  O34  1  0.36988467  0.87167163  0.86158719  1
  O  O35  1  0.50290250  0.63041960  0.86218611  1
  O  O36  1  0.02122782  0.82610008  0.40837210  1
  O  O37  1  0.80801201  0.98583097  0.40858475  1
  O  O38  1  0.18016613  0.19912721  0.41004110  1
  O  O39  1  0.02110689  0.20177705  0.90639874  1
  O  O40  1  0.17926393  0.97482809  0.90586067  1
  O  O41  1  0.79800372  0.82016452  0.90465051  1
  O  O42  1  0.97983525  0.17747889  0.59095727  1
  O  O43  1  0.19751405  0.02079736  0.59120656  1
  O  O44  1  0.82874274  0.81086255  0.59394555  1
  O  O45  1  0.98268281  0.80666183  0.09113070  1
  O  O46  1  0.82742238  0.02356558  0.09130440  1
  O  O47  1  0.19990728  0.17944479  0.08977241  1
  O  O48  1  0.69714463  0.14885092  0.74844837  1
  O  O49  1  0.46011299  0.30335472  0.75202517  1
  O  O50  1  0.85647975  0.54536433  0.74935163  1
  O  O51  1  0.70491429  0.54749055  0.25049075  1
  O  O52  1  0.84420287  0.29305660  0.25175880  1
  O  O53  1  0.45071670  0.16048950  0.25113035  1
  O  O54  1  0.63835237  0.49936239  0.92451019  1
  O  O55  1  0.86196234  0.36173412  0.92369537  1
  O  O56  1  0.49991806  0.14058862  0.92390695  1
  O  O57  1  0.65471762  0.14999713  0.43153301  1
  O  O58  1  0.48503101  0.34348862  0.42949903  1
  O  O59  1  0.85163314  0.50938640  0.42989729  1
  O  O60  1  0.34496816  0.48527140  0.07180059  1
  O  O61  1  0.14800780  0.65414356  0.07069827  1
  O  O62  1  0.51086443  0.85039804  0.07051979  1
  O  O63  1  0.34212948  0.86226098  0.56965154  1
  O  O64  1  0.51261920  0.65586103  0.56656063  1
  O  O65  1  0.13793324  0.48188370  0.56869089  1
  O  O66  1  0.29350842  0.84488264  0.24873562  1
  O  O67  1  0.54755915  0.70470095  0.24963374  1
  O  O68  1  0.15986863  0.45026479  0.24968933  1
  O  O69  1  0.29186067  0.46225481  0.76009728  1
  O  O70  1  0.16814703  0.71266152  0.75868487  1
  O  O71  1  0.54193694  0.83630004  0.75802190  1
loop_
_geom_bond_atom_site_label_1
_geom_bond_atom_site_label_2
_geom_bond_distance
_geom_bond_site_symmetry_2
Na0 O49 2.462247 1_555
Na0 O56 2.653839 1_555
Na0 O54 2.669084 1_555
Na0 O50 2.680159 1_555
Na0 O48 2.692022 1_555
Na0 O55 2.755452 1_555
Na1 O52 2.505305 1_555
Na1 O53 2.581125 1_555
Na1 O51 2.617660 1_555
Na1 O57 2.796017 1_555
Na1 O59 2.807331 1_555
Na1 O58 2.902631 1_555
Na2 O66 2.568637 1_555
Na2 O68 2.655584 1_555
Na2 O67 2.662750 1_555
Na2 O61 2.704733 1_555
Na2 O62 2.744700 1_555
Na2 O60 2.823678 1_555
Ca0 O14 2.162115 1_555
Ca0 O49 2.244045 1_555
Ca0 O13 2.277966 1_555
Ca0 O50 2.314463 1_555
Ca0 O12 2.336583 1_555
Ca0 O48 2.355040 1_555
Ca1 O16 2.178314 1_555
Ca1 O15 2.180892 1_555
Ca1 O17 2.285915 1_555
Ca1 O52 2.337830 1_555
Ca1 O53 2.366668 1_555
Ca1 O51 2.369774 1_555
Ca2 O30 2.192584 1_555
Ca2 O31 2.200217 1_555
Ca2 O32 2.316113 1_555
Ca2 O66 2.322330 1_555
Ca2 O68 2.351840 1_555
Ca2 O67 2.356743 1_555
Hf0 O36 1.995216 1_655
Hf0 O37 1.996990 1_555
Hf0 O1 2.077630 1_555
Hf0 O38 2.111413 1_665
Hf0 O2 2.115263 1_565
Hf0 O0 2.126531 1_665
Hf1 O40 1.998615 1_545
Hf1 O3 2.003899 1_555
Hf1 O39 2.006937 1_555
Hf1 O41 2.040945 1_445
Hf1 O4 2.147905 1_445
Hf1 O5 2.152492 1_455
Hf2 O44 2.026037 1_445
Hf2 O7 2.031191 1_555
Hf2 O42 2.109106 1_455
Hf2 O43 2.113935 1_555
Hf2 O6 2.115802 1_445
Hf2 O8 2.125201 1_545
Hf3 O46 1.983180 1_565
Hf3 O45 1.984330 1_555
Hf3 O47 2.091663 1_665
Hf3 O9 2.110011 1_555
Hf3 O11 2.136316 1_655
Hf3 O10 2.147001 1_665
Hf4 O19 2.028912 1_556
Hf4 O20 2.033004 1_556
Hf4 O55 2.050847 1_555
Hf4 O54 2.106924 1_555
Hf4 O56 2.115502 1_555
Hf4 O18 2.196390 1_556
Hf5 O59 1.989983 1_555
Hf5 O22 2.000168 1_555
Hf5 O57 2.046615 1_555
Hf5 O23 2.092662 1_555
Hf5 O58 2.117345 1_555
Hf5 O21 2.168810 1_555
Hf6 O26 1.999558 1_554
Hf6 O62 2.032548 1_555
Hf6 O24 2.044942 1_554
Hf6 O61 2.047669 1_555
Hf6 O25 2.050555 1_554
Hf6 O60 2.162269 1_555
Hf7 O27 1.995547 1_555
Hf7 O64 1.997033 1_555
Hf7 O29 2.049424 1_555
Hf7 O63 2.074018 1_555
Hf7 O65 2.148452 1_555
Hf7 O28 2.155044 1_555
Hf8 O35 2.018408 1_555
Hf8 O69 2.027325 1_555
Hf8 O33 2.033927 1_555
Hf8 O34 2.088818 1_555
Hf8 O71 2.159099 1_555
Hf8 O70 2.165880 1_555
O0 S0 1.500946 1_555
O1 S1 1.506664 1_555
O2 S2 1.503368 1_655
O3 P0 1.545520 1_555
O4 S3 1.475466 1_655
O5 S4 1.473033 1_545
O6 S4 1.505121 1_555
O7 P0 1.570959 1_555
O8 S3 1.502195 1_555
O9 S1 1.496891 1_555
O10 S2 1.493349 1_555
O11 S0 1.495693 1_565
O12 S5 1.445308 1_555
O13 S6 1.446683 1_555
O14 P1 1.497084 1_555
O15 P2 1.500915 1_555
O16 P3 1.501797 1_555
O17 S7 1.447947 1_555
O18 S7 1.487576 1_555
O19 P2 1.562850 1_555
O20 P3 1.561749 1_555
O21 S6 1.488709 1_555
O22 P1 1.569574 1_555
O23 S5 1.502508 1_555
O24 P4 1.532514 1_555
O25 P5 1.528113 1_555
O26 P6 1.538654 1_555
O27 P7 1.560109 1_555
O28 S8 1.486523 1_555
O29 P8 1.549946 1_555
O30 P8 1.498490 1_555
O31 P7 1.498037 1_555
O32 S8 1.441277 1_555
O33 P5 1.548283 1_555
O34 P6 1.543297 1_555
O35 P4 1.556576 1_555
O36 P8 1.559608 1_555
O37 P7 1.561220 1_555
O38 S8 1.489356 1_555
O39 P5 1.537469 1_555
O40 P6 1.542366 1_555
O41 P4 1.535299 1_555
O42 S5 1.496223 1_555
O43 S6 1.492970 1_555
O44 P1 1.560829 1_555
O45 P2 1.566459 1_555
O46 P3 1.564477 1_555
O47 S7 1.497105 1_555
O48 S4 1.460808 1_545
O49 P0 1.516753 1_555
O50 S3 1.461808 1_655
O51 S1 1.463043 1_555
O52 S2 1.469708 1_655
O53 S0 1.466435 1_555
O54 P4 1.548512 1_555
O55 P5 1.552293 1_655
O56 P6 1.546414 1_545
O57 P7 1.555551 1_545
O58 S8 1.499140 1_555
O59 P8 1.567479 1_655
O60 S7 1.488920 1_555
O61 P2 1.552979 1_455
O62 P3 1.552877 1_565
O63 S6 1.487896 1_565
O64 P1 1.550509 1_555
O65 S5 1.477532 1_455
O66 S0 1.468620 1_565
O67 S1 1.463083 1_555
O68 S2 1.464905 1_555
O69 P0 1.555017 1_555
O70 S3 1.482715 1_555
O71 S4 1.484402 1_555
