# generated using pymatgen
data_Sr7(H6Cl)2
_symmetry_space_group_name_H-M   'P 1'
_cell_length_a   9.96576543
_cell_length_b   9.96576126
_cell_length_c   3.94110332
_cell_angle_alpha   90.00001937
_cell_angle_beta   89.99998667
_cell_angle_gamma   119.99998591
_symmetry_Int_Tables_number   1
_chemical_formula_structural   Sr7(H6Cl)2
_chemical_formula_sum   'Sr7 H12 Cl2'
_cell_volume   338.97654886
_cell_formula_units_Z   1
loop_
 _symmetry_equiv_pos_site_id
 _symmetry_equiv_pos_as_xyz
  1  'x, y, z'
loop_
 _atom_site_type_symbol
 _atom_site_label
 _atom_site_symmetry_multiplicity
 _atom_site_fract_x
 _atom_site_fract_y
 _atom_site_fract_z
 _atom_site_occupancy
  Sr  Sr0  1  0.26707302  0.21633718  0.50000012  1
  Sr  Sr1  1  0.55885887  0.63768574  0.00000008  1
  Sr  Sr2  1  0.36231438  0.92117365  0.00000025  1
  Sr  Sr3  1  0.07882673  0.44114128  0.00000045  1
  Sr  Sr4  1  0.66666630  0.33333280  -0.00000015  1
  Sr  Sr5  1  0.94926459  0.73292757  0.49999967  1
  Sr  Sr6  1  0.78366293  0.05073545  0.50000020  1
  H  H0  1  0.56294705  0.11765341  0.49999990  1
  H  H1  1  0.88234675  0.44529284  0.50000015  1
  H  H2  1  0.55470722  0.43705300  0.49999986  1
  H  H3  1  0.71585957  0.77292125  0.50000003  1
  H  H4  1  0.22707878  0.94293848  0.50000002  1
  H  H5  1  0.05706166  0.28414044  0.50000005  1
  H  H6  1  0.82394615  0.21399324  -0.00000007  1
  H  H7  1  0.78600671  0.60995281  0.00000003  1
  H  H8  1  0.39004713  0.17605391  -0.00000014  1
  H  H9  1  0.30166715  0.39312192  0.00000002  1
  H  H10  1  0.09145401  0.69833291  -0.00000013  1
  H  H11  1  0.60687804  0.90854596  -0.00000003  1
  Cl  Cl0  1  0.00000002  -0.00000013  -0.00000033  1
  Cl  Cl1  1  0.33333293  0.66666630  0.50000001  1
loop_
_geom_bond_atom_site_label_1
_geom_bond_atom_site_label_2
_geom_bond_distance
_geom_bond_site_symmetry_2
H0 Sr6 2.598053 1_555
H0 Sr4 2.711038 1_556
H0 Sr4 2.711039 1_555
H0 Sr2 2.792823 1_545
H0 Sr2 2.792826 1_546
H1 Sr5 2.598062 1_555
H1 Sr4 2.711045 1_556
H1 Sr4 2.711046 1_555
H1 Sr3 2.792820 1_655
H1 Sr3 2.792822 1_656
H2 Sr0 2.598056 1_555
H2 Sr4 2.711038 1_555
H2 Sr4 2.711038 1_556
H2 Sr1 2.792828 1_555
H2 Sr1 2.792829 1_556
H3 Sr1 2.457400 1_555
H3 Sr1 2.457401 1_556
H3 Sr6 2.500220 1_565
H3 Sr5 2.548823 1_555
H4 Sr2 2.457399 1_555
H4 Sr2 2.457401 1_556
H4 Sr5 2.500222 1_455
H4 Sr0 2.548820 1_565
H5 Sr3 2.457400 1_555
H5 Sr3 2.457402 1_556
H5 Sr0 2.500225 1_555
H5 Sr6 2.548824 1_455
H6 Sr4 2.394866 1_555
H6 Sr3 2.413788 1_655
H6 Sr6 2.457268 1_554
H6 Sr6 2.457270 1_555
H7 Sr4 2.394871 1_555
H7 Sr1 2.413788 1_555
H7 Sr5 2.457269 1_555
H7 Sr5 2.457271 1_554
H8 Sr4 2.394864 1_555
H8 Sr2 2.413783 1_545
H8 Sr0 2.457266 1_554
H8 Sr0 2.457267 1_555
H9 Sr3 2.494715 1_555
H9 Sr1 2.502563 1_555
H9 Sr0 2.549207 1_554
H9 Sr0 2.549209 1_555
H10 Sr2 2.494720 1_555
H10 Sr3 2.502564 1_555
H10 Sr5 2.549202 1_455
H10 Sr5 2.549204 1_454
H11 Sr1 2.494719 1_555
H11 Sr2 2.502561 1_555
H11 Sr6 2.549206 1_564
H11 Sr6 2.549207 1_565
Cl0 Sr5 3.142767 1_444
Cl0 Sr5 3.142767 1_445
Cl0 Sr6 3.142769 1_454
Cl0 Sr6 3.142771 1_455
Cl0 Sr0 3.142772 1_554
Cl0 Sr0 3.142774 1_555
Cl1 Sr3 3.109180 1_555
Cl1 Sr3 3.109183 1_556
Cl1 Sr1 3.109185 1_555
Cl1 Sr1 3.109186 1_556
Cl1 Sr2 3.109189 1_555
Cl1 Sr2 3.109189 1_556
