# generated using pymatgen
data_Y2InCl7
_symmetry_space_group_name_H-M   'P 1'
_cell_length_a   6.92348546
_cell_length_b   12.65278755
_cell_length_c   12.79218271
_cell_angle_alpha   90.00000000
_cell_angle_beta   90.00000000
_cell_angle_gamma   90.00000000
_symmetry_Int_Tables_number   1
_chemical_formula_structural   Y2InCl7
_chemical_formula_sum   'Y8 In4 Cl28'
_cell_volume   1120.61299460
_cell_formula_units_Z   4
loop_
 _symmetry_equiv_pos_site_id
 _symmetry_equiv_pos_as_xyz
  1  'x, y, z'
loop_
 _atom_site_type_symbol
 _atom_site_label
 _atom_site_symmetry_multiplicity
 _atom_site_fract_x
 _atom_site_fract_y
 _atom_site_fract_z
 _atom_site_occupancy
  Y  Y0  1  0.25000000  0.96539905  0.73649655  1
  Y  Y1  1  0.75000000  0.03460095  0.26350345  1
  Y  Y2  1  0.75000000  0.46539905  0.76350345  1
  Y  Y3  1  0.25000000  0.53460095  0.23649655  1
  Y  Y4  1  0.25000000  0.66319373  0.74735066  1
  Y  Y5  1  0.75000000  0.33680627  0.25264934  1
  Y  Y6  1  0.75000000  0.16319373  0.75264934  1
  Y  Y7  1  0.25000000  0.83680627  0.24735066  1
  In  In0  1  0.25000000  0.29982713  0.53658890  1
  In  In1  1  0.75000000  0.70017287  0.46341110  1
  In  In2  1  0.75000000  0.79982713  0.96341110  1
  In  In3  1  0.25000000  0.20017287  0.03658890  1
  Cl  Cl0  1  0.99153539  0.45470549  0.37246558  1
  Cl  Cl1  1  0.49153539  0.54529451  0.62753442  1
  Cl  Cl2  1  0.00846461  0.95470549  0.12753442  1
  Cl  Cl3  1  0.50846461  0.04529451  0.87246558  1
  Cl  Cl4  1  0.00846461  0.54529451  0.62753442  1
  Cl  Cl5  1  0.50846461  0.45470549  0.37246558  1
  Cl  Cl6  1  0.99153539  0.04529451  0.87246558  1
  Cl  Cl7  1  0.49153539  0.95470549  0.12753442  1
  Cl  Cl8  1  0.01046291  0.41524315  0.11736073  1
  Cl  Cl9  1  0.51046291  0.58475685  0.88263927  1
  Cl  Cl10  1  0.98953709  0.91524315  0.38263927  1
  Cl  Cl11  1  0.48953709  0.08475685  0.61736073  1
  Cl  Cl12  1  0.25000000  0.68348667  0.39644037  1
  Cl  Cl13  1  0.75000000  0.31651333  0.60355963  1
  Cl  Cl14  1  0.75000000  0.18348667  0.10355963  1
  Cl  Cl15  1  0.25000000  0.81651333  0.89644037  1
  Cl  Cl16  1  0.49411735  0.68762644  0.17068161  1
  Cl  Cl17  1  0.99411735  0.31237356  0.82931839  1
  Cl  Cl18  1  0.50588265  0.18762644  0.32931839  1
  Cl  Cl19  1  0.00588265  0.81237356  0.67068161  1
  Cl  Cl20  1  0.50588265  0.31237356  0.82931839  1
  Cl  Cl21  1  0.00588265  0.68762644  0.17068161  1
  Cl  Cl22  1  0.49411735  0.81237356  0.67068161  1
  Cl  Cl23  1  0.99411735  0.18762644  0.32931839  1
  Cl  Cl24  1  0.51046291  0.91524315  0.38263927  1
  Cl  Cl25  1  0.01046291  0.08475685  0.61736073  1
  Cl  Cl26  1  0.48953709  0.41524315  0.11736073  1
  Cl  Cl27  1  0.98953709  0.58475685  0.88263927  1
loop_
_geom_bond_atom_site_label_1
_geom_bond_atom_site_label_2
_geom_bond_distance
_geom_bond_site_symmetry_2
Cl0 Y3 2.692480 1_655
Cl0 Y5 2.714960 1_555
Cl1 Y2 2.692480 1_555
Cl1 Y4 2.714960 1_555
Cl2 Y1 2.692480 1_465
Cl2 Y7 2.714960 1_555
Cl3 Y0 2.692480 1_545
Cl3 Y6 2.714960 1_555
Cl4 Y2 2.692480 1_455
Cl4 Y4 2.714960 1_555
Cl5 Y3 2.692480 1_555
Cl5 Y5 2.714960 1_555
Cl6 Y0 2.692480 1_645
Cl6 Y6 2.714960 1_555
Cl7 Y1 2.692480 1_565
Cl7 Y7 2.714960 1_555
Cl8 Y5 2.689234 1_455
Cl8 Y3 2.711775 1_555
Cl9 Y4 2.689234 1_555
Cl9 Y2 2.711775 1_555
Cl10 Y7 2.689234 1_655
Cl10 Y1 2.711775 1_565
Cl11 Y6 2.689234 1_555
Cl11 Y0 2.711775 1_545
Cl12 Y7 2.720411 1_555
Cl12 Y3 2.781190 1_555
Cl13 Y6 2.720411 1_555
Cl13 Y2 2.781190 1_555
Cl14 Y5 2.720411 1_555
Cl14 Y1 2.781190 1_555
Cl15 Y4 2.720411 1_555
Cl15 Y0 2.781190 1_555
Cl16 Y3 2.704491 1_555
Cl16 Y7 2.716853 1_555
Cl17 Y2 2.704491 1_555
Cl17 Y6 2.716853 1_555
Cl18 Y1 2.704491 1_555
Cl18 Y5 2.716853 1_555
Cl19 Y0 2.704491 1_555
Cl19 Y4 2.716853 1_555
Cl20 Y2 2.704491 1_555
Cl20 Y6 2.716853 1_555
Cl21 Y3 2.704491 1_555
Cl21 Y7 2.716853 1_555
Cl22 Y0 2.704491 1_555
Cl22 Y4 2.716853 1_555
Cl23 Y1 2.704491 1_555
Cl23 Y5 2.716853 1_555
Cl24 Y7 2.689234 1_555
Cl24 Y1 2.711775 1_565
Cl25 Y6 2.689234 1_455
Cl25 Y0 2.711775 1_545
Cl26 Y5 2.689234 1_555
Cl26 Y3 2.711775 1_555
Cl27 Y4 2.689234 1_655
Cl27 Y2 2.711775 1_555
