# generated using pymatgen
data_Er4MgTi2O10
_symmetry_space_group_name_H-M   'P 1'
_cell_length_a   5.50443254
_cell_length_b   5.78810585
_cell_length_c   8.50729663
_cell_angle_alpha   71.52208903
_cell_angle_beta   100.81038166
_cell_angle_gamma   78.20935614
_symmetry_Int_Tables_number   1
_chemical_formula_structural   Er4MgTi2O10
_chemical_formula_sum   'Er4 Mg1 Ti2 O10'
_cell_volume   242.17555076
_cell_formula_units_Z   1
loop_
 _symmetry_equiv_pos_site_id
 _symmetry_equiv_pos_as_xyz
  1  'x, y, z'
loop_
 _atom_site_type_symbol
 _atom_site_label
 _atom_site_symmetry_multiplicity
 _atom_site_fract_x
 _atom_site_fract_y
 _atom_site_fract_z
 _atom_site_occupancy
  Er  Er0  1  0.61585601  0.78946693  0.73390097  1
  Er  Er1  1  0.27484916  0.41415526  0.62653772  1
  Er  Er2  1  0.66077257  0.62358777  0.37096992  1
  Er  Er3  1  0.32862588  0.22035862  0.28242803  1
  Mg  Mg0  1  0.65179590  0.12690938  0.03016765  1
  Ti  Ti0  1  0.96689840  0.01523304  0.50045790  1
  Ti  Ti1  1  0.17701994  0.88042429  0.96946849  1
  O  O0  1  0.90945570  0.66251213  0.61329834  1
  O  O1  1  0.83601471  0.86241965  0.95212248  1
  O  O2  1  0.34114853  0.80883948  0.47480329  1
  O  O3  1  0.55128689  0.43378959  0.83148264  1
  O  O4  1  0.39757789  0.58289902  0.15476983  1
  O  O5  1  0.21142614  0.01409489  0.73406135  1
  O  O6  1  0.59307719  0.22658064  0.52094906  1
  O  O7  1  0.28404417  0.11186807  0.05233985  1
  O  O8  1  0.02667399  0.36726917  0.39115917  1
  O  O9  1  0.74435894  0.00832506  0.28504333  1
loop_
_geom_bond_atom_site_label_1
_geom_bond_atom_site_label_2
_geom_bond_distance
_geom_bond_site_symmetry_2
Er0 O3 2.092868 1_555
Er0 O0 2.195223 1_555
Er0 O1 2.226090 1_555
Er0 O5 2.337868 1_565
Er0 O2 2.383568 1_555
Er0 O6 2.564899 1_565
Er1 O3 2.137579 1_555
Er1 O0 2.180646 1_455
Er1 O8 2.327955 1_555
Er1 O5 2.329826 1_555
Er1 O6 2.342051 1_555
Er1 O2 2.380434 1_555
Er2 O8 2.185097 1_655
Er2 O4 2.225244 1_555
Er2 O9 2.284327 1_565
Er2 O2 2.331898 1_555
Er2 O0 2.352963 1_555
Er2 O6 2.391029 1_555
Er3 O4 2.182295 1_555
Er3 O8 2.199754 1_555
Er3 O7 2.224412 1_555
Er3 O6 2.279800 1_555
Er3 O9 2.357796 1_555
Er3 O2 2.403393 1_545
Mg0 O3 1.913809 1_554
Mg0 O9 1.982808 1_555
Mg0 O1 2.018702 1_544
Mg0 O7 2.084622 1_555
O0 Ti0 2.079651 1_565
O1 Ti1 1.881941 1_655
O2 Ti0 2.246487 1_465
O4 Ti1 1.905645 1_554
O5 Ti1 1.966006 1_545
O5 Ti0 2.178505 1_455
O6 Ti0 2.236497 1_555
O7 Ti1 1.845009 1_544
O8 Ti0 2.076665 1_455
O9 Ti0 2.021113 1_555
