# generated using pymatgen
data_Li11Ge6
_symmetry_space_group_name_H-M   'P 1'
_cell_length_a   4.30616638
_cell_length_b   10.52234242
_cell_length_c   12.47146789
_cell_angle_alpha   90.00000000
_cell_angle_beta   99.94138061
_cell_angle_gamma   90.00000000
_symmetry_Int_Tables_number   1
_chemical_formula_structural   Li11Ge6
_chemical_formula_sum   'Li22 Ge12'
_cell_volume   556.60920029
_cell_formula_units_Z   2
loop_
 _symmetry_equiv_pos_site_id
 _symmetry_equiv_pos_as_xyz
  1  'x, y, z'
loop_
 _atom_site_type_symbol
 _atom_site_label
 _atom_site_symmetry_multiplicity
 _atom_site_fract_x
 _atom_site_fract_y
 _atom_site_fract_z
 _atom_site_occupancy
  Li  Li0  1  0.17846459  0.11961337  0.35692618  1
  Li  Li1  1  0.82153541  0.88038663  0.64307382  1
  Li  Li2  1  0.82153541  0.61961337  0.64307382  1
  Li  Li3  1  0.17846459  0.38038663  0.35692618  1
  Li  Li4  1  0.91182054  0.99790804  0.82363909  1
  Li  Li5  1  0.08817946  0.00209196  0.17636091  1
  Li  Li6  1  0.08817946  0.49790804  0.17636091  1
  Li  Li7  1  0.91182054  0.50209196  0.82363909  1
  Li  Li8  1  0.14279013  0.75000000  0.28558227  1
  Li  Li9  1  0.85720987  0.25000000  0.71441773  1
  Li  Li10  1  0.02473020  0.75000000  0.04946041  1
  Li  Li11  1  0.97526980  0.25000000  0.95053959  1
  Li  Li12  1  0.63761287  0.25000000  0.27522774  1
  Li  Li13  1  0.36238713  0.75000000  0.72477226  1
  Li  Li14  1  0.53489187  0.11453738  0.06978574  1
  Li  Li15  1  0.46510813  0.88546262  0.93021426  1
  Li  Li16  1  0.46510813  0.61453738  0.93021426  1
  Li  Li17  1  0.53489187  0.38546262  0.06978574  1
  Li  Li18  1  0.75786845  0.39455568  0.51573591  1
  Li  Li19  1  0.24213155  0.60544432  0.48426409  1
  Li  Li20  1  0.24213155  0.89455568  0.48426409  1
  Li  Li21  1  0.75786845  0.10544432  0.51573591  1
  Ge  Ge0  1  0.91908086  0.75000000  0.83816072  1
  Ge  Ge1  1  0.08091914  0.25000000  0.16183928  1
  Ge  Ge2  1  0.72905549  0.75000000  0.45810897  1
  Ge  Ge3  1  0.27094451  0.25000000  0.54189103  1
  Ge  Ge4  1  0.32878828  0.44546292  0.65757357  1
  Ge  Ge5  1  0.67121172  0.55453708  0.34242643  1
  Ge  Ge6  1  0.67121172  0.94546292  0.34242643  1
  Ge  Ge7  1  0.32878828  0.05453708  0.65757357  1
  Ge  Ge8  1  0.42384099  0.36525818  0.84768098  1
  Ge  Ge9  1  0.57615901  0.63474182  0.15231902  1
  Ge  Ge10  1  0.57615901  0.86525818  0.15231902  1
  Ge  Ge11  1  0.42384099  0.13474182  0.84768098  1
loop_
_geom_bond_atom_site_label_1
_geom_bond_atom_site_label_2
_geom_bond_distance
_geom_bond_site_symmetry_2
Li0 Li5 2.539518 1_555
Li0 Li12 2.743218 1_555
Li0 Li12 2.743235 1_455
Li0 Li3 2.743946 1_555
Li0 Li20 2.838120 1_545
Li0 Li21 2.909261 1_555
Li0 Li21 2.909267 1_455
Li1 Li4 2.539518 1_555
Li1 Li13 2.743218 1_555
Li1 Li13 2.743235 1_655
Li1 Li2 2.743946 1_555
Li1 Li21 2.838120 1_565
Li1 Li20 2.909261 1_555
Li1 Li20 2.909267 1_655
Li2 Li7 2.539518 1_555
Li3 Li6 2.539518 1_555
Li4 Li9 2.972613 1_565
Li5 Li8 2.972613 1_545
Li6 Li8 2.972613 1_555
Li7 Li9 2.972613 1_555
Li10 Li8 2.900570 1_555
Li11 Li9 2.900570 1_555
Li12 Li3 2.743218 1_555
Li12 Li3 2.743235 1_655
Li13 Li2 2.743218 1_555
Li13 Li2 2.743235 1_455
Li18 Li2 2.838120 1_555
Li18 Li9 2.875831 1_555
Li18 Li3 2.909261 1_555
Li18 Li3 2.909267 1_655
Li19 Li3 2.838120 1_555
Li19 Li8 2.875831 1_555
Li19 Li2 2.909261 1_555
Li19 Li2 2.909267 1_455
Li20 Li8 2.875831 1_555
Li21 Li9 2.875831 1_555
Ge0 Li13 2.564351 1_555
Ge0 Li13 2.564354 1_655
Ge0 Li10 2.595649 1_656
Ge0 Li4 2.614666 1_555
Ge0 Li7 2.614666 1_555
Ge0 Li2 2.761424 1_555
Ge0 Li1 2.761424 1_555
Ge0 Li15 2.818900 1_555
Ge0 Li16 2.818900 1_555
Ge0 Li15 2.818903 1_655
Ge0 Li16 2.818903 1_655
Ge1 Li12 2.564351 1_555
Ge1 Li12 2.564354 1_455
Ge1 Li11 2.595649 1_454
Ge1 Li5 2.614666 1_555
Ge1 Li6 2.614666 1_555
Ge1 Li3 2.761424 1_555
Ge1 Li0 2.761424 1_555
Ge1 Li17 2.818900 1_555
Ge1 Li14 2.818900 1_555
Ge1 Li14 2.818903 1_455
Ge1 Li17 2.818903 1_455
Ge2 Ge5 2.499913 1_555
Ge2 Ge6 2.499913 1_555
Ge2 Li2 2.654234 1_555
Ge2 Li1 2.654234 1_555
Ge2 Li19 2.655674 1_655
Ge2 Li20 2.655674 1_655
Ge2 Li19 2.655685 1_555
Ge2 Li20 2.655685 1_555
Ge2 Li8 3.021157 1_655
Ge2 Li8 3.021170 1_555
Ge3 Ge4 2.499913 1_555
Ge3 Ge7 2.499913 1_555
Ge3 Li3 2.654234 1_555
Ge3 Li0 2.654234 1_555
Ge3 Li18 2.655674 1_455
Ge3 Li21 2.655674 1_455
Ge3 Li18 2.655685 1_555
Ge3 Li21 2.655685 1_555
Ge3 Li9 3.021157 1_455
Ge3 Li9 3.021170 1_555
Ge4 Ge8 2.483133 1_555
Ge4 Li19 2.714089 1_555
Ge4 Li18 2.821084 1_555
Ge4 Li18 2.821091 1_455
Ge4 Li2 2.832911 1_555
Ge4 Li2 2.832931 1_455
Ge4 Li7 3.025286 1_555
Ge4 Li7 3.025288 1_455
Ge4 Li9 3.058348 1_555
Ge4 Li9 3.058350 1_455
Ge5 Ge9 2.483133 1_555
Ge5 Li18 2.714089 1_555
Ge5 Li19 2.821084 1_555
Ge5 Li19 2.821091 1_655
Ge5 Li3 2.832911 1_555
Ge5 Li3 2.832931 1_655
Ge5 Li6 3.025286 1_555
Ge5 Li6 3.025288 1_655
Ge5 Li8 3.058348 1_555
Ge5 Li8 3.058350 1_655
Ge6 Li21 2.714089 1_565
Ge6 Li20 2.821084 1_555
Ge6 Li20 2.821091 1_655
Ge6 Li0 2.832911 1_565
Ge6 Li0 2.832931 1_665
Ge6 Li5 3.025286 1_565
Ge6 Li5 3.025288 1_665
Ge6 Li8 3.058348 1_555
Ge6 Li8 3.058350 1_655
Ge7 Li20 2.714089 1_545
Ge7 Li21 2.821084 1_555
Ge7 Li21 2.821091 1_455
Ge7 Li1 2.832911 1_545
Ge7 Li1 2.832931 1_445
Ge7 Li4 3.025286 1_545
Ge7 Li4 3.025288 1_445
Ge7 Li9 3.058348 1_555
Ge7 Li9 3.058350 1_455
Ge8 Li7 2.606921 1_455
Ge8 Li7 2.606925 1_555
Ge8 Li17 2.736651 1_556
Ge8 Li11 2.775452 1_555
Ge8 Li11 2.775455 1_455
Ge8 Li16 2.812124 1_555
Ge8 Li9 2.964201 1_455
Ge8 Li9 2.964204 1_555
Ge9 Li6 2.606921 1_655
Ge9 Li6 2.606925 1_555
Ge9 Li16 2.736651 1_554
Ge9 Li10 2.775452 1_555
Ge9 Li10 2.775455 1_655
Ge9 Li17 2.812124 1_555
Ge9 Li8 2.964201 1_655
Ge9 Li8 2.964204 1_555
Ge10 Ge9 2.425572 1_555
Ge10 Ge6 2.483133 1_555
Ge10 Li5 2.606921 1_665
Ge10 Li5 2.606925 1_565
Ge10 Li15 2.736651 1_554
Ge10 Li10 2.775452 1_555
Ge10 Li10 2.775455 1_655
Ge10 Li14 2.812124 1_565
Ge10 Li8 2.964201 1_655
Ge10 Li8 2.964204 1_555
Ge11 Ge8 2.425572 1_555
Ge11 Ge7 2.483133 1_555
Ge11 Li4 2.606921 1_445
Ge11 Li4 2.606925 1_545
Ge11 Li14 2.736651 1_556
Ge11 Li11 2.775452 1_555
Ge11 Li11 2.775455 1_455
Ge11 Li15 2.812124 1_545
Ge11 Li9 2.964201 1_455
Ge11 Li9 2.964204 1_555
