# generated using pymatgen
data_PrMn2O5
_symmetry_space_group_name_H-M   'P 1'
_cell_length_a   5.73294176
_cell_length_b   7.55346959
_cell_length_c   8.66755301
_cell_angle_alpha   90.00000000
_cell_angle_beta   90.00000000
_cell_angle_gamma   90.00000000
_symmetry_Int_Tables_number   1
_chemical_formula_structural   PrMn2O5
_chemical_formula_sum   'Pr4 Mn8 O20'
_cell_volume   375.33625932
_cell_formula_units_Z   4
loop_
 _symmetry_equiv_pos_site_id
 _symmetry_equiv_pos_as_xyz
  1  'x, y, z'
loop_
 _atom_site_type_symbol
 _atom_site_label
 _atom_site_symmetry_multiplicity
 _atom_site_fract_x
 _atom_site_fract_y
 _atom_site_fract_z
 _atom_site_occupancy
  Pr  Pr0  1  -0.00000000  0.35793620  0.67287531  1
  Pr  Pr1  1  -0.00000000  0.64206380  0.32712469  1
  Pr  Pr2  1  -0.00000000  0.85793620  0.82712469  1
  Pr  Pr3  1  -0.00000000  0.14206380  0.17287531  1
  Mn  Mn0  1  0.50000000  0.08999638  0.85125153  1
  Mn  Mn1  1  0.50000000  0.91000362  0.14874847  1
  Mn  Mn2  1  0.50000000  0.58999638  0.64874847  1
  Mn  Mn3  1  0.50000000  0.41000362  0.35125153  1
  Mn  Mn4  1  0.25806742  0.50000000  0.00000000  1
  Mn  Mn5  1  0.74193258  -0.00000000  0.50000000  1
  Mn  Mn6  1  0.74193258  0.50000000  0.00000000  1
  Mn  Mn7  1  0.25806742  -0.00000000  0.50000000  1
  O  O0  1  0.25232470  0.90292825  0.29411339  1
  O  O1  1  0.25232470  0.09707175  0.70588661  1
  O  O2  1  0.74767530  0.40292825  0.20588661  1
  O  O3  1  0.74767530  0.59707175  0.79411339  1
  O  O4  1  0.74767530  0.09707175  0.70588661  1
  O  O5  1  0.74767530  0.90292825  0.29411339  1
  O  O6  1  0.25232470  0.59707175  0.79411339  1
  O  O7  1  0.25232470  0.40292825  0.20588661  1
  O  O8  1  0.50000000  0.34713610  0.93827723  1
  O  O9  1  0.50000000  0.65286390  0.06172277  1
  O  O10  1  0.50000000  0.84713610  0.56172277  1
  O  O11  1  0.50000000  0.15286390  0.43827723  1
  O  O12  1  0.27943741  -0.00000000  0.00000000  1
  O  O13  1  0.72056259  0.50000000  0.50000000  1
  O  O14  1  0.72056259  -0.00000000  0.00000000  1
  O  O15  1  0.27943741  0.50000000  0.50000000  1
  O  O16  1  -0.00000000  0.15584479  0.44942591  1
  O  O17  1  -0.00000000  0.84415521  0.55057409  1
  O  O18  1  -0.00000000  0.65584479  0.05057409  1
  O  O19  1  -0.00000000  0.34415521  0.94942591  1
loop_
_geom_bond_atom_site_label_1
_geom_bond_atom_site_label_2
_geom_bond_distance
_geom_bond_site_symmetry_2
Mn0 O4 1.899076 1_555
Mn0 O1 1.899076 1_555
Mn0 O12 1.929574 1_556
Mn0 O14 1.929574 1_556
Mn0 O8 2.083623 1_555
Mn1 O5 1.899076 1_555
Mn1 O0 1.899076 1_555
Mn1 O14 1.929574 1_565
Mn1 O12 1.929574 1_565
Mn1 O9 2.083623 1_555
Mn2 O3 1.899076 1_555
Mn2 O6 1.899076 1_555
Mn2 O15 1.929574 1_555
Mn2 O13 1.929574 1_555
Mn2 O10 2.083623 1_555
Mn3 O2 1.899076 1_555
Mn3 O7 1.899076 1_555
Mn3 O13 1.929574 1_555
Mn3 O15 1.929574 1_555
Mn3 O11 2.083623 1_555
Mn4 O9 1.882329 1_555
Mn4 O8 1.882329 1_554
Mn4 O6 1.929577 1_554
Mn4 O7 1.929577 1_555
Mn4 O19 1.940814 1_554
Mn4 O18 1.940814 1_555
Mn5 O11 1.882329 1_555
Mn5 O10 1.882329 1_545
Mn5 O5 1.929577 1_545
Mn5 O4 1.929577 1_555
Mn5 O17 1.940814 1_645
Mn5 O16 1.940814 1_655
Mn6 O9 1.882329 1_555
Mn6 O8 1.882329 1_554
Mn6 O3 1.929577 1_554
Mn6 O2 1.929577 1_555
Mn6 O19 1.940814 1_654
Mn6 O18 1.940814 1_655
Mn7 O11 1.882329 1_555
Mn7 O10 1.882329 1_545
Mn7 O1 1.929577 1_555
Mn7 O0 1.929577 1_545
Mn7 O17 1.940814 1_545
Mn7 O16 1.940814 1_555
O0 Pr1 2.461100 1_555
O0 Pr3 2.541561 1_565
O1 Pr0 2.461100 1_555
O1 Pr2 2.541561 1_545
O2 Pr3 2.461100 1_655
O2 Pr1 2.541561 1_655
O3 Pr2 2.461100 1_655
O3 Pr0 2.541561 1_655
O4 Pr0 2.461100 1_655
O4 Pr2 2.541561 1_645
O5 Pr1 2.461100 1_655
O5 Pr3 2.541561 1_665
O6 Pr2 2.461100 1_555
O6 Pr0 2.541561 1_555
O7 Pr3 2.461100 1_555
O7 Pr1 2.541561 1_555
O12 Pr3 2.441948 1_555
O12 Pr2 2.441948 1_544
O13 Pr0 2.441948 1_655
O13 Pr1 2.441948 1_655
O14 Pr3 2.441948 1_655
O14 Pr2 2.441948 1_644
O15 Pr1 2.441948 1_555
O15 Pr0 2.441948 1_555
O16 Pr3 2.399276 1_555
O16 Pr0 2.466012 1_555
O17 Pr2 2.399276 1_555
O17 Pr1 2.466012 1_555
O18 Pr1 2.399276 1_555
O18 Pr2 2.466012 1_554
O19 Pr0 2.399276 1_555
O19 Pr3 2.466012 1_556
