# generated using pymatgen
data_RbSnCl3
_symmetry_space_group_name_H-M   'P 1'
_cell_length_a   7.42536178
_cell_length_b   7.42536178
_cell_length_c   7.42536199
_cell_angle_alpha   67.41778982
_cell_angle_beta   67.41778982
_cell_angle_gamma   67.41779550
_symmetry_Int_Tables_number   1
_chemical_formula_structural   RbSnCl3
_chemical_formula_sum   'Rb2 Sn2 Cl6'
_cell_volume   335.32871690
_cell_formula_units_Z   2
loop_
 _symmetry_equiv_pos_site_id
 _symmetry_equiv_pos_as_xyz
  1  'x, y, z'
loop_
 _atom_site_type_symbol
 _atom_site_label
 _atom_site_symmetry_multiplicity
 _atom_site_fract_x
 _atom_site_fract_y
 _atom_site_fract_z
 _atom_site_occupancy
  Rb  Rb0  1  0.25967765  0.25967765  0.25967765  1
  Rb  Rb1  1  0.75967765  0.75967765  0.75967765  1
  Sn  Sn0  1  0.00762265  0.00762265  0.00762265  1
  Sn  Sn1  1  0.50762265  0.50762265  0.50762265  1
  Cl  Cl0  1  0.88505405  0.19050355  0.68564411  1
  Cl  Cl1  1  0.68564411  0.88505405  0.19050355  1
  Cl  Cl2  1  0.19050355  0.68564411  0.88505405  1
  Cl  Cl3  1  0.38505405  0.18564411  0.69050355  1
  Cl  Cl4  1  0.18564411  0.69050355  0.38505405  1
  Cl  Cl5  1  0.69050355  0.38505405  0.18564411  1
loop_
_geom_bond_atom_site_label_1
_geom_bond_atom_site_label_2
_geom_bond_distance
_geom_bond_site_symmetry_2
Cl0 Sn0 2.572316 1_656
Cl0 Rb0 3.331412 1_655
Cl0 Rb1 3.456351 1_545
Cl1 Sn0 2.572316 1_665
Cl1 Rb0 3.331412 1_565
Cl1 Rb1 3.456351 1_554
Cl2 Sn0 2.572316 1_566
Cl2 Rb0 3.331412 1_556
Cl2 Rb1 3.456351 1_455
Cl3 Sn1 2.572316 1_555
Cl3 Rb1 3.331412 1_545
Cl3 Rb0 3.456351 1_555
Cl4 Sn1 2.572316 1_555
Cl4 Rb1 3.331412 1_455
Cl4 Rb0 3.456351 1_555
Cl5 Sn1 2.572316 1_555
Cl5 Rb1 3.331412 1_554
Cl5 Rb0 3.456351 1_555
