# generated using pymatgen
data_Ca(GePt)2
_symmetry_space_group_name_H-M   'P 1'
_cell_length_a   4.35226092
_cell_length_b   4.35170379
_cell_length_c   9.95618236
_cell_angle_alpha   89.99291560
_cell_angle_beta   90.00000000
_cell_angle_gamma   90.00000000
_symmetry_Int_Tables_number   1
_chemical_formula_structural   Ca(GePt)2
_chemical_formula_sum   'Ca2 Ge4 Pt4'
_cell_volume   188.56760677
_cell_formula_units_Z   2
loop_
 _symmetry_equiv_pos_site_id
 _symmetry_equiv_pos_as_xyz
  1  'x, y, z'
loop_
 _atom_site_type_symbol
 _atom_site_label
 _atom_site_symmetry_multiplicity
 _atom_site_fract_x
 _atom_site_fract_y
 _atom_site_fract_z
 _atom_site_occupancy
  Ca  Ca0  1  0.25444206  0.24943059  0.75343878  1
  Ca  Ca1  1  0.75444206  0.75056941  0.24656122  1
  Ge  Ge0  1  0.75365006  0.75038887  0.62790708  1
  Ge  Ge1  1  0.75543596  0.25021267  0.00007684  1
  Ge  Ge2  1  0.25543596  0.74978733  0.99992316  1
  Ge  Ge3  1  0.25365006  0.24961113  0.37209292  1
  Pt  Pt0  1  0.25329342  0.74927977  0.50000782  1
  Pt  Pt1  1  0.75517950  0.74998217  0.87364520  1
  Pt  Pt2  1  0.25517950  0.25001783  0.12635480  1
  Pt  Pt3  1  0.75329342  0.25072023  0.49999218  1
loop_
_geom_bond_atom_site_label_1
_geom_bond_atom_site_label_2
_geom_bond_distance
_geom_bond_site_symmetry_2
Ca0 Ge1 3.278199 1_456
Ca0 Ge2 3.278507 1_545
Ca0 Ge2 3.280969 1_555
Ca0 Ge1 3.283937 1_556
Ca0 Pt1 3.298054 1_445
Ca0 Pt1 3.301414 1_455
Ca0 Pt1 3.302286 1_545
Ca0 Pt1 3.305643 1_555
Ca0 Ge0 3.316545 1_545
Ca0 Ge0 3.321065 1_445
Ca0 Ge0 3.321809 1_555
Ca0 Ge0 3.326323 1_455
Ca0 Pt3 3.328842 1_555
Ca0 Pt0 3.331172 1_555
Ca0 Pt0 3.332437 1_545
Ca0 Pt3 3.335372 1_455
Ca1 Ge2 3.278199 1_554
Ca1 Ge1 3.278507 1_565
Ca1 Ge1 3.280969 1_555
Ca1 Ge2 3.283937 1_654
Ca1 Pt2 3.298054 1_565
Ca1 Pt2 3.301414 1_555
Ca1 Pt2 3.302286 1_665
Ca1 Pt2 3.305643 1_655
Ca1 Ge3 3.316545 1_665
Ca1 Ge3 3.321065 1_565
Ca1 Ge3 3.321809 1_655
Ca1 Ge3 3.326323 1_555
Ca1 Pt0 3.328842 1_655
Ca1 Pt3 3.331172 1_555
Ca1 Pt3 3.332437 1_565
Ca1 Pt0 3.335372 1_555
Ge0 Pt1 2.446623 1_555
Ge0 Pt0 2.519987 1_655
Ge0 Pt3 2.520052 1_555
Ge0 Pt3 2.522269 1_565
Ge0 Pt0 2.522666 1_555
Ge1 Pt2 2.512241 1_655
Ge1 Pt1 2.512730 1_554
Ge1 Pt2 2.514174 1_555
Ge1 Pt1 2.514735 1_544
Ge2 Pt1 2.512241 1_555
Ge2 Pt2 2.512730 1_556
Ge2 Pt1 2.514174 1_455
Ge2 Pt2 2.514735 1_566
Ge3 Pt2 2.446623 1_555
Ge3 Pt3 2.519987 1_555
Ge3 Pt0 2.520052 1_555
Ge3 Pt0 2.522269 1_545
Ge3 Pt3 2.522666 1_455
