# generated using pymatgen
data_Na3CaInSi(SO6)2
_symmetry_space_group_name_H-M   'P 1'
_cell_length_a   9.36235089
_cell_length_b   9.36085257
_cell_length_c   22.85242433
_cell_angle_alpha   90.69437324
_cell_angle_beta   90.00000000
_cell_angle_gamma   120.00529501
_symmetry_Int_Tables_number   1
_chemical_formula_structural   Na3CaInSi(SO6)2
_chemical_formula_sum   'Na18 Ca6 In6 Si6 S12 O72'
_cell_volume   1734.19338373
_cell_formula_units_Z   6
loop_
 _symmetry_equiv_pos_site_id
 _symmetry_equiv_pos_as_xyz
  1  'x, y, z'
loop_
 _atom_site_type_symbol
 _atom_site_label
 _atom_site_symmetry_multiplicity
 _atom_site_fract_x
 _atom_site_fract_y
 _atom_site_fract_z
 _atom_site_occupancy
  Na  Na0  1  0.63247800  0.99513420  0.25690603  1
  Na  Na1  1  0.00963413  0.64556493  0.23368569  1
  Na  Na2  1  0.63593080  0.64556493  0.73368569  1
  Na  Na3  1  0.36265620  0.99513420  0.75690603  1
  Na  Na4  1  0.32800476  0.35293035  0.58757711  1
  Na  Na5  1  0.65693026  0.94617027  0.57737835  1
  Na  Na6  1  0.28924101  0.94617027  0.07737835  1
  Na  Na7  1  0.02492659  0.35293035  0.08757711  1
  Na  Na8  1  0.99110151  0.68568912  0.92979822  1
  Na  Na9  1  0.68374883  0.02693804  0.90160104  1
  Na  Na10  1  0.34318821  0.02693804  0.40160104  1
  Na  Na11  1  0.69458662  0.68568912  0.42979822  1
  Na  Na12  1  0.96732140  0.98858928  0.49944531  1
  Na  Na13  1  0.02126788  0.98858928  0.99944531  1
  Na  Na14  1  0.66046028  0.29994725  0.83382123  1
  Na  Na15  1  0.63948797  0.29994725  0.33382123  1
  Na  Na16  1  0.32245957  0.66630267  0.16562459  1
  Na  Na17  1  0.34384210  0.66630267  0.66562459  1
  Ca  Ca0  1  0.00685605  0.01054509  0.35014788  1
  Ca  Ca1  1  0.00368904  0.01054509  0.85014788  1
  Ca  Ca2  1  0.67961201  0.33279013  0.68420477  1
  Ca  Ca3  1  0.65317912  0.33279013  0.18420477  1
  Ca  Ca4  1  0.33887614  0.67164875  0.01646041  1
  Ca  Ca5  1  0.33277161  0.67164875  0.51646041  1
  In  In0  1  0.97664632  0.98224938  0.65181534  1
  In  In1  1  0.00560307  0.98224938  0.15181534  1
  In  In2  1  0.65971377  0.33981730  0.98621640  1
  In  In3  1  0.68010453  0.33981730  0.48621640  1
  In  In4  1  0.33849558  0.68363516  0.32041074  1
  In  In5  1  0.34513858  0.68363516  0.82041074  1
  Si  Si0  1  0.30436796  0.98975131  0.25372386  1
  Si  Si1  1  0.68538335  0.98975131  0.75372386  1
  Si  Si2  1  0.67046287  0.63461226  0.58483064  1
  Si  Si3  1  0.96415039  0.63461226  0.08483064  1
  Si  Si4  1  0.34140153  0.98151314  0.92179191  1
  Si  Si5  1  0.64011061  0.98151314  0.42179191  1
  S  S0  1  0.69528940  0.70630649  0.25263893  1
  S  S1  1  0.00759051  0.30380539  0.24627040  1
  S  S2  1  0.29621487  0.30380539  0.74627040  1
  S  S3  1  0.01101709  0.70630649  0.75263893  1
  S  S4  1  0.97196553  0.32258636  0.58402344  1
  S  S5  1  0.35228506  0.03655802  0.58490916  1
  S  S6  1  0.68427396  0.03655802  0.08490916  1
  S  S7  1  0.35062183  0.32258636  0.08402344  1
  S  S8  1  0.63438662  0.65746532  0.91358094  1
  S  S9  1  0.03237771  0.37593597  0.91649422  1
  S  S10  1  0.34355726  0.37593597  0.41649422  1
  S  S11  1  0.02307769  0.65746532  0.41358094  1
  O  O0  1  0.21630314  0.99592795  0.31330369  1
  O  O1  1  0.78539810  0.78579556  0.30713535  1
  O  O2  1  0.98361529  0.19612154  0.29554132  1
  O  O3  1  0.21250625  0.19612154  0.79554132  1
  O  O4  1  0.00039747  0.78579556  0.80713535  1
  O  O5  1  0.77962481  0.99592795  0.81330369  1
  O  O6  1  0.77557163  0.96474351  0.69428345  1
  O  O7  1  0.20639569  0.22567020  0.68983074  1
  O  O8  1  0.04472272  0.81941863  0.70163219  1
  O  O9  1  0.77469591  0.81941863  0.20163219  1
  O  O10  1  0.01927451  0.22567020  0.18983074  1
  O  O11  1  0.18917189  0.96474351  0.19428345  1
  O  O12  1  0.89115928  0.33571306  0.63671594  1
  O  O13  1  0.45754592  0.11424217  0.63727825  1
  O  O14  1  0.65745745  0.53256216  0.64284596  1
  O  O15  1  0.87510571  0.53256216  0.14284596  1
  O  O16  1  0.65669725  0.11424217  0.13727825  1
  O  O17  1  0.44455478  0.33571306  0.13671594  1
  O  O18  1  0.43015327  0.29751032  0.03095004  1
  O  O19  1  0.86086372  0.54031864  0.02275719  1
  O  O20  1  0.70231223  0.13566632  0.03132828  1
  O  O21  1  0.43335509  0.13566632  0.53132828  1
  O  O22  1  0.67945591  0.54031864  0.52275719  1
  O  O23  1  0.86735806  0.29751032  0.53095004  1
  O  O24  1  0.54049460  0.66262511  0.96385718  1
  O  O25  1  0.11699109  0.44917328  0.97229481  1
  O  O26  1  0.32416152  0.87425811  0.97910668  1
  O  O27  1  0.55009559  0.87425811  0.47910668  1
  O  O28  1  0.33218119  0.44917328  0.47229481  1
  O  O29  1  0.12212952  0.66262511  0.46385718  1
  O  O30  1  0.09691468  0.63793543  0.35765481  1
  O  O31  1  0.52203167  0.89548856  0.36145824  1
  O  O32  1  0.34179530  0.47550063  0.36581581  1
  O  O33  1  0.13370434  0.47550063  0.86581581  1
  O  O34  1  0.37345589  0.89548856  0.86145824  1
  O  O35  1  0.54101975  0.63793543  0.85765481  1
  O  O36  1  0.01325393  0.81156078  0.41386535  1
  O  O37  1  0.81677717  0.98906889  0.41654119  1
  O  O38  1  0.20785505  0.20284278  0.41299026  1
  O  O39  1  0.99498773  0.20284278  0.91299026  1
  O  O40  1  0.17229172  0.98906889  0.91654119  1
  O  O41  1  0.79830684  0.81156078  0.91386535  1
  O  O42  1  0.99160387  0.17217390  0.58575720  1
  O  O43  1  0.19288428  0.03706609  0.59007412  1
  O  O44  1  0.83395640  0.82524599  0.58219486  1
  O  O45  1  0.99128958  0.82524599  0.08219486  1
  O  O46  1  0.84418181  0.03706609  0.09007412  1
  O  O47  1  0.18057003  0.17217390  0.08575720  1
  O  O48  1  0.64912160  0.14268151  0.75055705  1
  O  O49  1  0.46718717  0.33024375  0.74422634  1
  O  O50  1  0.85675352  0.54788996  0.74576836  1
  O  O51  1  0.69113745  0.54788996  0.24576836  1
  O  O52  1  0.86305757  0.33024375  0.24422634  1
  O  O53  1  0.49356091  0.14268151  0.25055705  1
  O  O54  1  0.66524634  0.51553697  0.91589519  1
  O  O55  1  0.87179448  0.37619512  0.91299731  1
  O  O56  1  0.52164507  0.16287107  0.92307941  1
  O  O57  1  0.64122700  0.16287107  0.42307941  1
  O  O58  1  0.50440164  0.37619512  0.41299731  1
  O  O59  1  0.85029163  0.51553697  0.41589519  1
  O  O60  1  0.32778864  0.46705547  0.07920117  1
  O  O61  1  0.14843326  0.65075524  0.08369999  1
  O  O62  1  0.54326682  0.86654441  0.07970933  1
  O  O63  1  0.32327659  0.86654441  0.57970933  1
  O  O64  1  0.50232097  0.65075524  0.58369999  1
  O  O65  1  0.13926583  0.46705547  0.57920117  1
  O  O66  1  0.31210980  0.81176174  0.25000246  1
  O  O67  1  0.52392165  0.68104289  0.25430808  1
  O  O68  1  0.16162634  0.46900608  0.25198579  1
  O  O69  1  0.30737874  0.46900608  0.75198579  1
  O  O70  1  0.15712024  0.68104289  0.75430808  1
  O  O71  1  0.49965095  0.81176174  0.75000246  1
loop_
_geom_bond_atom_site_label_1
_geom_bond_atom_site_label_2
_geom_bond_distance
_geom_bond_site_symmetry_2
Na0 O53 2.328453 1_565
Na0 O67 2.586138 1_555
Na0 O31 2.595622 1_555
Na0 O66 2.609945 1_555
Na0 O52 2.798845 1_565
Na0 O9 2.866012 1_555
Na0 O16 2.930723 1_565
Na0 O2 2.983348 1_565
Na1 O15 2.372540 1_455
Na1 O66 2.481630 1_555
Na1 O52 2.572862 1_455
Na1 O51 2.661411 1_455
Na1 O68 2.701921 1_555
Na1 O11 2.757770 1_555
Na1 O30 2.960063 1_555
Na2 O14 2.372543 1_555
Na2 O71 2.481638 1_555
Na2 O49 2.572861 1_555
Na2 O50 2.661420 1_555
Na2 O69 2.701928 1_555
Na2 O6 2.757770 1_555
Na2 O35 2.960065 1_555
Na3 O48 2.328461 1_565
Na3 O70 2.586140 1_555
Na3 O34 2.595620 1_555
Na3 O71 2.609937 1_555
Na3 O49 2.798843 1_565
Na3 O8 2.866012 1_555
Na3 O13 2.930724 1_565
Na3 O3 2.983348 1_565
Na4 O64 2.428796 1_555
Na4 O65 2.488645 1_555
Na4 O43 2.570812 1_555
Na4 O7 2.624254 1_555
Na4 O42 2.729918 1_455
Na4 O28 2.788540 1_555
Na4 O14 2.949189 1_555
Na4 O21 2.950309 1_555
Na5 O64 2.401964 1_555
Na5 O27 2.405599 1_555
Na5 O44 2.433053 1_555
Na5 O42 2.773161 1_565
Na5 O63 2.826421 1_555
Na5 O6 2.863018 1_555
Na6 O61 2.401963 1_555
Na6 O26 2.405594 1_554
Na6 O45 2.433062 1_455
Na6 O47 2.773168 1_565
Na6 O62 2.826403 1_555
Na6 O11 2.863021 1_555
Na7 O61 2.428798 1_555
Na7 O60 2.488628 1_555
Na7 O46 2.570813 1_455
Na7 O10 2.624252 1_555
Na7 O47 2.729910 1_555
Na7 O25 2.788538 1_554
Na7 O15 2.949189 1_455
Na7 O20 2.950309 1_455
Na8 O40 2.497402 1_655
Na8 O19 2.502375 1_556
Na8 O55 2.554385 1_555
Na8 O41 2.629919 1_555
Na8 O54 2.659482 1_555
Na8 O26 2.924992 1_655
Na8 O4 2.953881 1_655
Na9 O5 2.282094 1_545
Na9 O56 2.465706 1_555
Na9 O39 2.541808 1_555
Na9 O34 2.681885 1_545
Na9 O41 2.733127 1_545
Na9 O55 2.842282 1_555
Na10 O0 2.282090 1_545
Na10 O57 2.465722 1_555
Na10 O38 2.541800 1_555
Na10 O31 2.681885 1_545
Na10 O36 2.733120 1_545
Na10 O58 2.842282 1_555
Na11 O37 2.497401 1_555
Na11 O22 2.502379 1_555
Na11 O58 2.554383 1_555
Na11 O36 2.629927 1_655
Na11 O59 2.659497 1_555
Na11 O27 2.924992 1_555
Na11 O1 2.953882 1_555
Na12 O37 2.362722 1_555
Na12 O44 2.373513 1_555
Na12 O42 2.534275 1_565
Na12 O36 2.718461 1_655
Na12 O43 2.823789 1_665
Na12 O38 2.928473 1_665
Na13 O40 2.362722 1_555
Na13 O45 2.373513 1_456
Na13 O47 2.534275 1_566
Na13 O41 2.718461 1_455
Na13 O46 2.823789 1_466
Na13 O39 2.928473 1_465
Na14 O48 2.361118 1_555
Na14 O56 2.427286 1_555
Na14 O55 2.500860 1_555
Na14 O54 2.722205 1_555
Na14 O49 2.841498 1_555
Na14 O50 2.942855 1_555
Na15 O53 2.361118 1_555
Na15 O57 2.427286 1_555
Na15 O58 2.500860 1_555
Na15 O59 2.722205 1_555
Na15 O52 2.841498 1_555
Na15 O51 2.942855 1_555
Na16 O66 2.376937 1_555
Na16 O61 2.436609 1_555
Na16 O68 2.623005 1_555
Na16 O60 2.717633 1_555
Na16 O67 2.723380 1_555
Na16 O62 2.802778 1_555
Na17 O71 2.376937 1_555
Na17 O64 2.436609 1_555
Na17 O69 2.623005 1_555
Na17 O65 2.717633 1_555
Na17 O70 2.723380 1_555
Na17 O63 2.802778 1_555
Ca0 O0 2.199638 1_545
Ca0 O2 2.247859 1_455
Ca0 O37 2.271334 1_445
Ca0 O1 2.297461 1_445
Ca0 O38 2.322345 1_555
Ca0 O36 2.402218 1_545
Ca1 O5 2.199638 1_445
Ca1 O3 2.247859 1_555
Ca1 O40 2.271334 1_545
Ca1 O4 2.297461 1_545
Ca1 O39 2.322345 1_455
Ca1 O41 2.402218 1_445
Ca2 O14 2.205481 1_555
Ca2 O12 2.246709 1_555
Ca2 O48 2.259404 1_555
Ca2 O13 2.313135 1_555
Ca2 O50 2.318516 1_555
Ca2 O49 2.406377 1_555
Ca3 O15 2.205481 1_555
Ca3 O17 2.246709 1_555
Ca3 O53 2.259404 1_555
Ca3 O16 2.313135 1_555
Ca3 O51 2.318516 1_555
Ca3 O52 2.406377 1_555
Ca4 O26 2.155294 1_554
Ca4 O24 2.274277 1_554
Ca4 O61 2.288433 1_555
Ca4 O25 2.300717 1_554
Ca4 O62 2.350266 1_555
Ca4 O60 2.366872 1_555
Ca5 O27 2.155294 1_555
Ca5 O29 2.274277 1_555
Ca5 O64 2.288433 1_555
Ca5 O28 2.300717 1_555
Ca5 O63 2.350266 1_555
Ca5 O65 2.366872 1_555
In0 O6 2.051332 1_555
In0 O44 2.110817 1_555
In0 O8 2.244825 1_655
In0 O42 2.296798 1_565
In0 O43 2.308934 1_665
In0 O7 2.371403 1_665
In1 O11 2.051332 1_555
In1 O45 2.110817 1_455
In1 O9 2.244826 1_455
In1 O47 2.296798 1_565
In1 O46 2.308934 1_465
In1 O10 2.371404 1_565
In2 O19 2.047771 1_556
In2 O56 2.072895 1_555
In2 O18 2.231495 1_556
In2 O54 2.295576 1_555
In2 O20 2.384094 1_556
In2 O55 2.489123 1_555
In3 O22 2.047771 1_555
In3 O57 2.072895 1_555
In3 O23 2.231495 1_555
In3 O59 2.295576 1_555
In3 O21 2.384094 1_555
In3 O58 2.489123 1_555
In4 O31 2.076551 1_555
In4 O66 2.105115 1_555
In4 O32 2.232205 1_555
In4 O30 2.250355 1_555
In4 O67 2.310312 1_555
In4 O68 2.412481 1_555
In5 O34 2.076551 1_555
In5 O71 2.105115 1_555
In5 O33 2.232204 1_555
In5 O35 2.250355 1_555
In5 O70 2.310312 1_555
In5 O69 2.412481 1_555
O0 Si0 1.607079 1_555
O1 S0 1.471747 1_555
O2 S1 1.461325 1_655
O3 S2 1.461325 1_555
O4 S3 1.471747 1_555
O5 Si1 1.607079 1_555
O6 Si1 1.674184 1_555
O7 S2 1.505864 1_555
O8 S3 1.508348 1_555
O9 S0 1.508348 1_555
O10 S1 1.505864 1_555
O11 Si0 1.674184 1_555
O12 S4 1.458361 1_555
O13 S5 1.481345 1_555
O14 Si2 1.612285 1_555
O15 Si3 1.612285 1_555
O16 S6 1.481345 1_555
O17 S7 1.458361 1_555
O18 S7 1.499487 1_555
O19 Si3 1.685941 1_555
O20 S6 1.503108 1_555
O21 S5 1.503108 1_555
O22 Si2 1.685941 1_555
O23 S4 1.499487 1_555
O24 S8 1.461585 1_555
O25 S9 1.469443 1_555
O26 Si4 1.618452 1_555
O27 Si5 1.618452 1_555
O28 S10 1.469443 1_555
O29 S11 1.461585 1_555
O30 S11 1.505139 1_555
O31 Si5 1.689471 1_555
O32 S10 1.500569 1_555
O33 S9 1.500569 1_555
O34 Si4 1.689471 1_555
O35 S8 1.505139 1_555
O36 S11 1.490526 1_555
O37 Si5 1.624305 1_555
O38 S10 1.477796 1_555
O39 S9 1.477799 1_655
O40 Si4 1.624295 1_555
O41 S8 1.490531 1_555
O42 S4 1.509329 1_555
O43 S5 1.499398 1_555
O44 Si2 1.673832 1_555
O45 Si3 1.673835 1_555
O46 S6 1.499389 1_555
O47 S7 1.509335 1_555
O48 Si1 1.630474 1_545
O49 S2 1.493233 1_555
O50 S3 1.470336 1_655
O51 S0 1.470340 1_555
O52 S1 1.493224 1_655
O53 Si0 1.630480 1_545
O54 S8 1.495655 1_555
O55 S9 1.506773 1_655
O56 Si4 1.692370 1_545
O57 Si5 1.692360 1_545
O58 S10 1.506792 1_555
O59 S11 1.495643 1_655
O60 S7 1.476299 1_555
O61 Si3 1.655165 1_455
O62 S6 1.477771 1_565
O63 S5 1.477764 1_565
O64 Si2 1.655184 1_555
O65 S4 1.476288 1_455
O66 Si0 1.704652 1_555
O67 S0 1.500744 1_555
O68 S1 1.500943 1_555
O69 S2 1.500947 1_555
O70 S3 1.500734 1_555
O71 Si1 1.704657 1_555
