# generated using pymatgen
data_Li3Ni(PO4)2
_symmetry_space_group_name_H-M   'P 1'
_cell_length_a   4.94533128
_cell_length_b   4.94533128
_cell_length_c   6.24397606
_cell_angle_alpha   89.90582562
_cell_angle_beta   89.90582562
_cell_angle_gamma   66.51386397
_symmetry_Int_Tables_number   1
_chemical_formula_structural   Li3Ni(PO4)2
_chemical_formula_sum   'Li3 Ni1 P2 O8'
_cell_volume   140.05371503
_cell_formula_units_Z   1
loop_
 _symmetry_equiv_pos_site_id
 _symmetry_equiv_pos_as_xyz
  1  'x, y, z'
loop_
 _atom_site_type_symbol
 _atom_site_label
 _atom_site_symmetry_multiplicity
 _atom_site_fract_x
 _atom_site_fract_y
 _atom_site_fract_z
 _atom_site_occupancy
  Li  Li0  1  0.50000000  0.50000000  0.50000000  1
  Li  Li1  1  0.17322200  0.17322200  0.73326800  1
  Li  Li2  1  0.82677800  0.82677800  0.26673200  1
  Ni  Ni0  1  0.50000000  0.50000000  0.00000000  1
  P  P0  1  0.14425800  0.14425800  0.23615700  1
  P  P1  1  0.85574200  0.85574200  0.76384300  1
  O  O0  1  0.20031600  0.73819600  0.76197700  1
  O  O1  1  0.25257500  0.25257500  0.03332300  1
  O  O2  1  0.26180400  0.79968400  0.23802300  1
  O  O3  1  0.73819600  0.20031600  0.76197700  1
  O  O4  1  0.79968400  0.26180400  0.23802300  1
  O  O5  1  0.74742500  0.74742500  0.96667700  1
  O  O6  1  0.75039800  0.75039800  0.56130100  1
  O  O7  1  0.24960200  0.24960200  0.43869900  1
loop_
_geom_bond_atom_site_label_1
_geom_bond_atom_site_label_2
_geom_bond_distance
_geom_bond_site_symmetry_2
Li0 O6 2.106798 1_555
Li0 O7 2.106798 1_555
Li0 O3 2.206054 1_555
Li0 O4 2.206054 1_555
Li0 O0 2.206054 1_555
Li0 O2 2.206054 1_555
Li1 O7 1.943569 1_555
Li1 O1 1.986382 1_556
Li1 O3 2.108895 1_455
Li1 O0 2.108895 1_545
Li2 O6 1.943569 1_555
Li2 O5 1.986382 1_554
Li2 O4 2.108895 1_565
Li2 O2 2.108895 1_655
Ni0 O5 2.056538 1_554
Ni0 O1 2.056538 1_555
Ni0 O2 2.098296 1_555
Ni0 O0 2.098296 1_554
Ni0 O3 2.098296 1_554
Ni0 O4 2.098296 1_555
O0 P1 1.565951 1_455
O1 P0 1.549875 1_555
O2 P0 1.565951 1_565
O3 P1 1.565951 1_545
O4 P0 1.565951 1_655
O5 P1 1.549875 1_555
O6 P1 1.537152 1_555
O7 P0 1.537152 1_555
