# generated using pymatgen
data_MgMn3Cu3O8
_symmetry_space_group_name_H-M   'P 1'
_cell_length_a   7.74659452
_cell_length_b   7.74659502
_cell_length_c   7.74659532
_cell_angle_alpha   46.71969355
_cell_angle_beta   46.71968758
_cell_angle_gamma   46.71968663
_symmetry_Int_Tables_number   1
_chemical_formula_structural   MgMn3Cu3O8
_chemical_formula_sum   'Mg1 Mn3 Cu3 O8'
_cell_volume   225.08017987
_cell_formula_units_Z   1
loop_
 _symmetry_equiv_pos_site_id
 _symmetry_equiv_pos_as_xyz
  1  'x, y, z'
loop_
 _atom_site_type_symbol
 _atom_site_label
 _atom_site_symmetry_multiplicity
 _atom_site_fract_x
 _atom_site_fract_y
 _atom_site_fract_z
 _atom_site_occupancy
  Mg  Mg0  1  0.68906065  0.68906065  0.68906065  1
  Mn  Mn0  1  0.13260842  0.63433314  0.63433314  1
  Mn  Mn1  1  0.63433314  0.13260842  0.63433314  1
  Mn  Mn2  1  0.63433314  0.63433314  0.13260842  1
  Cu  Cu0  1  0.06453422  0.06453422  0.06453422  1
  Cu  Cu1  1  0.20572846  0.20572846  0.20572846  1
  Cu  Cu2  1  0.56943749  0.56943749  0.56943749  1
  O  O0  1  0.42661838  0.42661838  0.42661838  1
  O  O1  1  0.36774561  0.36774561  0.84853330  1
  O  O2  1  0.36774561  0.84853330  0.36774561  1
  O  O3  1  0.84853330  0.36774561  0.36774561  1
  O  O4  1  0.42723582  0.89535952  0.89535952  1
  O  O5  1  0.89535952  0.42723582  0.89535952  1
  O  O6  1  0.89535952  0.89535952  0.42723582  1
  O  O7  1  0.84136773  0.84136773  0.84136773  1
loop_
_geom_bond_atom_site_label_1
_geom_bond_atom_site_label_2
_geom_bond_distance
_geom_bond_site_symmetry_2
Mg0 O4 1.958274 1_555
Mg0 O6 1.958274 1_555
Mg0 O5 1.958274 1_555
Mn0 O7 1.959271 1_455
Mn0 O0 1.966167 1_555
Mn0 O5 2.130627 1_455
Mn0 O6 2.130627 1_455
Mn0 O2 2.150347 1_555
Mn0 O1 2.150347 1_555
Mn1 O7 1.959272 1_545
Mn1 O0 1.966167 1_555
Mn1 O6 2.130627 1_545
Mn1 O4 2.130627 1_545
Mn1 O1 2.150347 1_555
Mn1 O3 2.150347 1_555
Mn2 O7 1.959272 1_554
Mn2 O0 1.966167 1_555
Mn2 O5 2.130627 1_554
Mn2 O4 2.130627 1_554
Mn2 O2 2.150347 1_555
Mn2 O3 2.150347 1_555
Cu0 O4 1.893863 1_544
Cu0 O5 1.893864 1_454
Cu0 O6 1.893864 1_445
Cu1 O3 1.855614 1_455
Cu1 O2 1.855615 1_545
Cu1 O1 1.855615 1_554
Cu2 O3 1.908003 1_555
Cu2 O2 1.908003 1_555
Cu2 O1 1.908003 1_555
Cu2 Mg0 2.471525 1_555
