# generated using pymatgen
data_NaScGaP(SO6)2
_symmetry_space_group_name_H-M   'P 1'
_cell_length_a   8.63187437
_cell_length_b   8.63134353
_cell_length_c   22.73839811
_cell_angle_alpha   90.09961578
_cell_angle_beta   89.75496898
_cell_angle_gamma   119.86907553
_symmetry_Int_Tables_number   1
_chemical_formula_structural   NaScGaP(SO6)2
_chemical_formula_sum   'Na6 Sc6 Ga6 P6 S12 O72'
_cell_volume   1469.06645289
_cell_formula_units_Z   6
loop_
 _symmetry_equiv_pos_site_id
 _symmetry_equiv_pos_as_xyz
  1  'x, y, z'
loop_
 _atom_site_type_symbol
 _atom_site_label
 _atom_site_symmetry_multiplicity
 _atom_site_fract_x
 _atom_site_fract_y
 _atom_site_fract_z
 _atom_site_occupancy
  Na  Na0  1  0.98740162  0.99138098  0.50006293  1
  Na  Na1  1  0.00577299  0.98995589  0.99969520  1
  Na  Na2  1  0.65917003  0.31628538  0.83118249  1
  Na  Na3  1  0.65711183  0.31833543  0.33572705  1
  Na  Na4  1  0.32244923  0.67141412  0.16583280  1
  Na  Na5  1  0.34718280  0.67061840  0.66397955  1
  Sc  Sc0  1  0.99759564  0.00208402  0.85104010  1
  Sc  Sc1  1  0.00606170  0.99229648  0.14682266  1
  Sc  Sc2  1  0.66680883  0.33224398  0.18573386  1
  Sc  Sc3  1  0.66702754  0.33305563  0.98072233  1
  Sc  Sc4  1  0.33929149  0.68326487  0.31757232  1
  Sc  Sc5  1  0.34364902  0.68280347  0.81088702  1
  Ga  Ga0  1  0.00032210  0.00226832  0.35330485  1
  Ga  Ga1  1  0.98151100  0.98560405  0.64574782  1
  Ga  Ga2  1  0.66445655  0.33075669  0.68144760  1
  Ga  Ga3  1  0.66951090  0.33307840  0.48436302  1
  Ga  Ga4  1  0.32090741  0.67363204  0.01739433  1
  Ga  Ga5  1  0.35972801  0.67430518  0.51766190  1
  P  P0  1  0.28851191  0.00411840  0.25382457  1
  P  P1  1  0.71340298  0.01252692  0.74518291  1
  P  P2  1  0.66656925  0.61681402  0.58297831  1
  P  P3  1  0.96562809  0.62386133  0.08191076  1
  P  P4  1  0.33070721  0.95839127  0.91771715  1
  P  P5  1  0.63641695  0.97000391  0.41936513  1
  S  S0  1  0.71123510  0.71034341  0.25241421  1
  S  S1  1  0.00086523  0.28891692  0.25216138  1
  S  S2  1  0.29191818  0.28630660  0.74518275  1
  S  S3  1  0.99248539  0.70395084  0.74598057  1
  S  S4  1  0.96325767  0.33635271  0.58257745  1
  S  S5  1  0.37154547  0.03919527  0.58332568  1
  S  S6  1  0.66068303  0.03062666  0.08214715  1
  S  S7  1  0.37241760  0.34421794  0.08161831  1
  S  S8  1  0.61891059  0.66787104  0.91869393  1
  S  S9  1  0.04891531  0.37969123  0.91729576  1
  S  S10  1  0.33348119  0.37201366  0.41886561  1
  S  S11  1  0.03937454  0.66599162  0.42060806  1
  O  O0  1  0.19767139  0.02673161  0.30942762  1
  O  O1  1  0.81723219  0.79467454  0.30593938  1
  O  O2  1  0.97259949  0.18006768  0.30587595  1
  O  O3  1  0.21348176  0.18155740  0.79957726  1
  O  O4  1  0.96963029  0.78600038  0.79988800  1
  O  O5  1  0.82202317  0.03908917  0.80158095  1
  O  O6  1  0.79877180  0.97961919  0.69040525  1
  O  O7  1  0.18179797  0.19847976  0.69279644  1
  O  O8  1  0.02587870  0.81809085  0.69341263  1
  O  O9  1  0.79071786  0.81605566  0.19884133  1
  O  O10  1  0.01920293  0.20449829  0.19856297  1
  O  O11  1  0.18059864  0.98027933  0.19770343  1
  O  O12  1  0.88214752  0.36495170  0.63612311  1
  O  O13  1  0.48372692  0.11639110  0.63631470  1
  O  O14  1  0.63571410  0.50341384  0.63869950  1
  O  O15  1  0.87550538  0.51305031  0.13766430  1
  O  O16  1  0.63235864  0.11229598  0.13555113  1
  O  O17  1  0.47762706  0.36495214  0.13523809  1
  O  O18  1  0.45444550  0.31304517  0.02939147  1
  O  O19  1  0.85379081  0.53456515  0.02721079  1
  O  O20  1  0.68327448  0.13851304  0.02954986  1
  O  O21  1  0.45211562  0.14956143  0.53011284  1
  O  O22  1  0.69595863  0.53206931  0.52740412  1
  O  O23  1  0.84879698  0.30024799  0.53007209  1
  O  O24  1  0.53194175  0.68673768  0.97222049  1
  O  O25  1  0.15492496  0.46006882  0.97122330  1
  O  O26  1  0.30415991  0.84723141  0.97382820  1
  O  O27  1  0.55414045  0.85006533  0.47434983  1
  O  O28  1  0.30163735  0.45397710  0.47207623  1
  O  O29  1  0.15219547  0.69142251  0.47274040  1
  O  O30  1  0.11711174  0.63682723  0.36665401  1
  O  O31  1  0.52033390  0.88907977  0.36447809  1
  O  O32  1  0.35871524  0.47935257  0.36588296  1
  O  O33  1  0.13481000  0.48315598  0.86397391  1
  O  O34  1  0.35566050  0.87024358  0.86226195  1
  O  O35  1  0.51530424  0.64481082  0.86483082  1
  O  O36  1  0.02069508  0.82810456  0.41436486  1
  O  O37  1  0.82384564  0.98835263  0.41010011  1
  O  O38  1  0.17299715  0.19100956  0.41364532  1
  O  O39  1  0.02722102  0.19830656  0.91368036  1
  O  O40  1  0.16247753  0.97635753  0.91160759  1
  O  O41  1  0.79750445  0.83061687  0.91417903  1
  O  O42  1  0.98622592  0.17639794  0.58878765  1
  O  O43  1  0.19314324  0.02460439  0.59092759  1
  O  O44  1  0.83580268  0.80603990  0.58851312  1
  O  O45  1  0.98747108  0.81258545  0.08582553  1
  O  O46  1  0.82267038  0.01537704  0.08777261  1
  O  O47  1  0.19000008  0.18770494  0.08683179  1
  O  O48  1  0.69457230  0.18145747  0.73791022  1
  O  O49  1  0.47310006  0.30559928  0.74021447  1
  O  O50  1  0.82815764  0.52749042  0.74006446  1
  O  O51  1  0.69658806  0.53249507  0.24726419  1
  O  O52  1  0.84011432  0.30967596  0.24781218  1
  O  O53  1  0.47530822  0.17111070  0.24805213  1
  O  O54  1  0.64089826  0.50871106  0.92229552  1
  O  O55  1  0.86980973  0.36273638  0.92134098  1
  O  O56  1  0.49925921  0.14400931  0.92217361  1
  O  O57  1  0.65374064  0.15654709  0.42864698  1
  O  O58  1  0.49599720  0.35509322  0.42545657  1
  O  O59  1  0.85837203  0.50535301  0.42618401  1
  O  O60  1  0.36150492  0.50902243  0.07514099  1
  O  O61  1  0.15245660  0.63942568  0.07785516  1
  O  O62  1  0.50153685  0.84959080  0.07677464  1
  O  O63  1  0.34917502  0.85693149  0.57623021  1
  O  O64  1  0.49700477  0.63726746  0.57693753  1
  O  O65  1  0.14056473  0.49957422  0.57483512  1
  O  O66  1  0.30549564  0.83418349  0.25778477  1
  O  O67  1  0.52955572  0.68697765  0.25743515  1
  O  O68  1  0.16320468  0.46639504  0.25776790  1
  O  O69  1  0.31006569  0.46571492  0.75092905  1
  O  O70  1  0.14970715  0.67877977  0.75116709  1
  O  O71  1  0.52546863  0.84464979  0.75060059  1
loop_
_geom_bond_atom_site_label_1
_geom_bond_atom_site_label_2
_geom_bond_distance
_geom_bond_site_symmetry_2
Na0 O37 2.483169 1_555
Na0 O44 2.494018 1_555
Na0 O36 2.500991 1_655
Na0 O42 2.573954 1_565
Na0 O38 2.575278 1_665
Na0 O43 2.650866 1_665
Na1 O45 2.443608 1_456
Na1 O40 2.447343 1_555
Na1 O41 2.542123 1_455
Na1 O47 2.584479 1_566
Na1 O39 2.602142 1_565
Na1 O46 2.621825 1_466
Na2 O48 2.507157 1_555
Na2 O56 2.517740 1_555
Na2 O49 2.597484 1_555
Na2 O55 2.640516 1_555
Na2 O50 2.661270 1_555
Na2 O54 2.705883 1_555
Na3 O53 2.466489 1_555
Na3 O57 2.526720 1_555
Na3 O52 2.566543 1_555
Na3 O58 2.571104 1_555
Na3 O51 2.637962 1_555
Na3 O59 2.660860 1_555
Na4 O61 2.418863 1_555
Na4 O62 2.543955 1_555
Na4 O66 2.561011 1_555
Na4 O60 2.604914 1_555
Na4 O68 2.637500 1_555
Na4 O67 2.709998 1_555
Na5 O64 2.453466 1_555
Na5 O71 2.493441 1_555
Na5 O63 2.559462 1_555
Na5 O69 2.565503 1_555
Na5 O65 2.620512 1_555
Na5 O70 2.632700 1_555
Ga0 O0 1.889393 1_555
Ga0 O37 1.950438 1_445
Ga0 O2 1.987265 1_455
Ga0 O1 2.013831 1_445
Ga0 O38 2.085479 1_555
Ga0 O36 2.119215 1_545
Ga1 O6 1.851280 1_555
Ga1 O44 1.934710 1_555
Ga1 O8 1.993088 1_655
Ga1 O42 2.081187 1_565
Ga1 O7 2.086730 1_665
Ga1 O43 2.091352 1_665
Ga2 O14 1.898062 1_555
Ga2 O48 1.928418 1_555
Ga2 O13 2.010577 1_555
Ga2 O12 2.027878 1_555
Ga2 O49 2.045963 1_555
Ga2 O50 2.067594 1_555
Ga3 O22 1.888243 1_555
Ga3 O57 1.932197 1_555
Ga3 O23 2.001779 1_555
Ga3 O21 2.034939 1_555
Ga3 O59 2.047598 1_555
Ga3 O58 2.091642 1_555
Ga4 O26 1.862677 1_554
Ga4 O61 1.910015 1_555
Ga4 O25 1.982020 1_554
Ga4 O24 2.040921 1_554
Ga4 O62 2.052552 1_555
Ga4 O60 2.090926 1_555
Ga5 O27 1.882243 1_555
Ga5 O64 1.927549 1_555
Ga5 O28 1.997551 1_555
Ga5 O63 2.097926 1_555
Ga5 O29 2.134026 1_555
Ga5 O65 2.165052 1_555
O0 P0 1.547438 1_555
O1 S0 1.480316 1_555
O2 S1 1.485636 1_655
O3 S2 1.480756 1_555
O3 Sc0 2.086626 1_455
O4 S3 1.475482 1_555
O4 Sc0 2.106205 1_565
O5 P1 1.539920 1_555
O5 Sc0 2.039992 1_555
O6 P1 1.540940 1_565
O7 S2 1.478490 1_555
O8 S3 1.483487 1_455
O9 S0 1.469816 1_555
O9 Sc1 2.083107 1_655
O10 S1 1.466784 1_555
O10 Sc1 2.130356 1_545
O11 P0 1.535190 1_565
O11 Sc1 1.946804 1_555
O12 S4 1.482341 1_555
O13 S5 1.482539 1_555
O14 P2 1.541448 1_555
O15 P3 1.543316 1_555
O15 Sc2 2.016002 1_555
O16 S6 1.482365 1_555
O16 Sc2 2.104197 1_555
O17 S7 1.479905 1_555
O17 Sc2 2.130979 1_555
O18 S7 1.471556 1_555
O18 Sc3 2.071062 1_554
O19 P3 1.529321 1_555
O19 Sc3 1.989175 1_554
O20 S6 1.468516 1_555
O20 Sc3 2.077091 1_554
O21 S5 1.480576 1_555
O22 P2 1.541142 1_555
O23 S4 1.483498 1_555
O24 S8 1.478069 1_555
O25 S9 1.482091 1_555
O26 P4 1.543922 1_555
O27 P5 1.550434 1_555
O28 S10 1.492592 1_555
O29 S11 1.482503 1_555
O30 S11 1.476100 1_555
O30 Sc4 2.074091 1_555
O31 P5 1.536252 1_555
O31 Sc4 1.994500 1_555
O32 S10 1.468959 1_555
O32 Sc4 2.152854 1_555
O33 S9 1.467602 1_555
O33 Sc5 2.137935 1_555
O34 P4 1.540408 1_555
O34 Sc5 1.954549 1_555
O35 S8 1.473323 1_555
O35 Sc5 2.075678 1_555
O36 S11 1.493206 1_555
O37 P5 1.558502 1_555
O38 S10 1.489629 1_555
O39 S9 1.483434 1_555
O39 Sc0 2.127432 1_455
O40 P4 1.542124 1_555
O40 Sc0 2.074665 1_465
O41 S8 1.484085 1_555
O41 Sc0 2.162118 1_565
O42 S4 1.496304 1_555
O43 S5 1.490570 1_555
O44 P2 1.562620 1_555
O45 P3 1.546174 1_555
O45 Sc1 2.025342 1_655
O46 S6 1.474350 1_555
O46 Sc1 2.163720 1_645
O47 S7 1.482780 1_555
O47 Sc1 2.132734 1_545
O48 P1 1.554655 1_555
O49 S2 1.491829 1_555
O50 S3 1.482888 1_555
O51 S0 1.480651 1_555
O51 Sc2 2.136160 1_555
O52 S1 1.488672 1_655
O52 Sc2 2.139529 1_555
O53 P0 1.542270 1_555
O53 Sc2 2.090841 1_555
O54 S8 1.479926 1_555
O54 Sc3 2.112990 1_555
O55 S9 1.481055 1_655
O55 Sc3 2.118249 1_555
O56 P4 1.540404 1_545
O56 Sc3 2.046302 1_555
O57 P5 1.555203 1_545
O58 S10 1.489170 1_555
O59 S11 1.490234 1_655
O60 S7 1.479303 1_555
O61 P3 1.552504 1_455
O62 S6 1.485405 1_565
O63 S5 1.495000 1_565
O64 P2 1.565729 1_555
O65 S4 1.486299 1_455
O66 P0 1.547823 1_565
O66 Sc4 2.004536 1_555
O67 S0 1.482089 1_555
O67 Sc4 2.120534 1_555
O68 S1 1.479615 1_555
O68 Sc4 2.199621 1_555
O69 S2 1.482373 1_555
O69 Sc5 2.215224 1_555
O70 S3 1.482572 1_455
O70 Sc5 2.146885 1_555
O71 P1 1.550489 1_565
O71 Sc5 2.024418 1_555
