# generated using pymatgen
data_Na7Zn3GeP5SO24
_symmetry_space_group_name_H-M   'P 1'
_cell_length_a   8.95527021
_cell_length_b   8.94417314
_cell_length_c   21.88725601
_cell_angle_alpha   89.51096046
_cell_angle_beta   90.41096055
_cell_angle_gamma   119.97052201
_symmetry_Int_Tables_number   1
_chemical_formula_structural   Na7Zn3GeP5SO24
_chemical_formula_sum   'Na21 Zn9 Ge3 P15 S3 O72'
_cell_volume   1518.62833877
_cell_formula_units_Z   3
loop_
 _symmetry_equiv_pos_site_id
 _symmetry_equiv_pos_as_xyz
  1  'x, y, z'
loop_
 _atom_site_type_symbol
 _atom_site_label
 _atom_site_symmetry_multiplicity
 _atom_site_fract_x
 _atom_site_fract_y
 _atom_site_fract_z
 _atom_site_occupancy
  Na  Na0  1  0.62691068  -0.00040733  0.25106685  1
  Na  Na1  1  0.36662713  0.36007265  0.25268928  1
  Na  Na2  1  0.00694774  0.63986273  0.24979942  1
  Na  Na3  1  0.64779850  0.63806881  0.74794938  1
  Na  Na4  1  0.99179599  0.35392945  0.74870010  1
  Na  Na5  1  0.29295233  0.33850185  0.58664812  1
  Na  Na6  1  0.03357324  0.70129405  0.58710593  1
  Na  Na7  1  0.67199173  0.95942207  0.58435210  1
  Na  Na8  1  0.29305154  0.95754014  0.08142305  1
  Na  Na9  1  0.66374050  0.70468203  0.07885564  1
  Na  Na10  1  0.04019568  0.33513457  0.07899698  1
  Na  Na11  1  0.97461727  0.67782493  0.91108115  1
  Na  Na12  1  0.32402024  0.29530138  0.91096386  1
  Na  Na13  1  0.32581768  0.01951209  0.41316663  1
  Na  Na14  1  0.69508532  0.67547664  0.41753860  1
  Na  Na15  1  0.99514027  0.01215913  0.49811309  1
  Na  Na16  1  0.98760976  0.00065281  0.99418159  1
  Na  Na17  1  0.65526849  0.30914111  0.82854338  1
  Na  Na18  1  0.67093652  0.32605820  0.33413930  1
  Na  Na19  1  0.33240513  0.67208945  0.16325002  1
  Na  Na20  1  0.33411426  0.67206616  0.66776282  1
  Zn  Zn0  1  0.00928805  0.00928504  0.35362102  1
  Zn  Zn1  1  0.99654744  0.00221458  0.84668018  1
  Zn  Zn2  1  0.99252172  0.99985184  0.66178169  1
  Zn  Zn3  1  0.00813175  0.99848407  0.14577770  1
  Zn  Zn4  1  0.66793230  0.33517293  0.68686980  1
  Zn  Zn5  1  0.65792706  0.32396310  0.17691783  1
  Zn  Zn6  1  0.33568438  0.66800657  0.01265658  1
  Zn  Zn7  1  0.33094431  0.65767543  0.51029973  1
  Zn  Zn8  1  0.33098540  0.67365409  0.32929341  1
  Ge  Ge0  1  0.66710650  0.32870311  0.98030360  1
  Ge  Ge1  1  0.67965482  0.34013834  0.48074003  1
  Ge  Ge2  1  0.33537316  0.67431208  0.81716337  1
  P  P0  1  0.29768550  0.99795140  0.25008893  1
  P  P1  1  0.29855077  0.30495767  0.75355934  1
  P  P2  1  0.01172196  0.70736103  0.75288173  1
  P  P3  1  0.69232200  0.99277382  0.75166621  1
  P  P4  1  0.95707087  0.33391231  0.58382813  1
  P  P5  1  0.66617973  0.62287281  0.58228728  1
  P  P6  1  0.95316561  0.61991700  0.08282663  1
  P  P7  1  0.66786130  0.04206076  0.08329890  1
  P  P8  1  0.37695793  0.33492847  0.08179898  1
  P  P9  1  0.62600815  0.66179579  0.91905900  1
  P  P10  1  0.03404600  0.37376407  0.91884259  1
  P  P11  1  0.34261594  0.96379725  0.91921552  1
  P  P12  1  0.63580744  0.97574650  0.41947617  1
  P  P13  1  0.34080000  0.36742308  0.41925780  1
  P  P14  1  0.02897020  0.65972773  0.41832850  1
  S  S0  1  0.70294464  0.70428601  0.25003062  1
  S  S1  1  0.00082297  0.29586870  0.24891168  1
  S  S2  1  0.37829436  0.04554921  0.58137388  1
  O  O0  1  0.21199152  0.02343222  0.30695031  1
  O  O1  1  0.80561049  0.78916537  0.30535299  1
  O  O2  1  0.97441855  0.18402163  0.30221384  1
  O  O3  1  0.21531192  0.19875844  0.81067267  1
  O  O4  1  0.98161954  0.78961266  0.80876237  1
  O  O5  1  0.81472400  0.02677765  0.80483659  1
  O  O6  1  0.75728915  0.94847559  0.69174248  1
  O  O7  1  0.18637136  0.23096380  0.69454938  1
  O  O8  1  0.03806830  0.81002090  0.69241243  1
  O  O9  1  0.78277345  0.80849282  0.19370482  1
  O  O10  1  0.02025611  0.21838558  0.19141566  1
  O  O11  1  0.18865968  0.97073870  0.19114483  1
  O  O12  1  0.87787631  0.35993438  0.64151023  1
  O  O13  1  0.48499543  0.12750548  0.63504393  1
  O  O14  1  0.63715527  0.51242464  0.63939092  1
  O  O15  1  0.87514806  0.51616311  0.14179489  1
  O  O16  1  0.63967758  0.11325136  0.14301644  1
  O  O17  1  0.47974873  0.36417709  0.14125587  1
  O  O18  1  0.46995635  0.30484988  0.02496661  1
  O  O19  1  0.83365561  0.52845260  0.02453350  1
  O  O20  1  0.69974888  0.17043432  0.02769131  1
  O  O21  1  0.45917396  0.15193952  0.52349453  1
  O  O22  1  0.69169788  0.53047863  0.52349211  1
  O  O23  1  0.83107848  0.30030576  0.52676086  1
  O  O24  1  0.54963600  0.68371388  0.97766271  1
  O  O25  1  0.13952386  0.45155486  0.97701378  1
  O  O26  1  0.31058578  0.85968244  0.97812128  1
  O  O27  1  0.55108096  0.86183542  0.47595544  1
  O  O28  1  0.31866880  0.44709377  0.47702589  1
  O  O29  1  0.14401098  0.69327746  0.47457781  1
  O  O30  1  0.10208492  0.63040456  0.35883981  1
  O  O31  1  0.52211129  0.90233506  0.36098144  1
  O  O32  1  0.37680076  0.48231840  0.36111822  1
  O  O33  1  0.12343421  0.49994976  0.86185637  1
  O  O34  1  0.37029318  0.87089740  0.86313381  1
  O  O35  1  0.50094489  0.62665289  0.86210355  1
  O  O36  1  -0.00039516  0.81664391  0.41343345  1
  O  O37  1  0.81433395  0.99226562  0.41218054  1
  O  O38  1  0.18822245  0.18158744  0.41394909  1
  O  O39  1  0.01531359  0.19537076  0.91088255  1
  O  O40  1  0.18537797  0.98964883  0.91112967  1
  O  O41  1  0.81070374  0.81210489  0.91115514  1
  O  O42  1  0.97470552  0.16936273  0.58473293  1
  O  O43  1  0.20462918  0.03053548  0.58371240  1
  O  O44  1  0.83394536  0.80191315  0.58274956  1
  O  O45  1  0.96553842  0.80010706  0.08230484  1
  O  O46  1  0.83446234  0.02817164  0.08407896  1
  O  O47  1  0.19649326  0.16815477  0.08197773  1
  O  O48  1  0.67037259  0.15195119  0.74470728  1
  O  O49  1  0.48451263  0.33927712  0.74762934  1
  O  O50  1  0.85290266  0.52177826  0.74892986  1
  O  O51  1  0.68913260  0.53041079  0.24759535  1
  O  O52  1  0.84692178  0.32020309  0.24692457  1
  O  O53  1  0.48093831  0.16365461  0.24726130  1
  O  O54  1  0.63497979  0.48516841  0.92108048  1
  O  O55  1  0.85231377  0.36719660  0.92181714  1
  O  O56  1  0.51039398  0.15117795  0.92228029  1
  O  O57  1  0.64457648  0.15758710  0.42552911  1
  O  O58  1  0.51320443  0.35231373  0.42374814  1
  O  O59  1  0.84233452  0.49360752  0.42384053  1
  O  O60  1  0.35542865  0.49535066  0.07645485  1
  O  O61  1  0.13493857  0.64134735  0.07826948  1
  O  O62  1  0.50672532  0.86156409  0.07694418  1
  O  O63  1  0.35818432  0.87013364  0.57693138  1
  O  O64  1  0.50576723  0.64578256  0.57662731  1
  O  O65  1  0.13672157  0.49847866  0.57666674  1
  O  O66  1  0.31658192  0.83286677  0.25437606  1
  O  O67  1  0.52571023  0.68231928  0.25316346  1
  O  O68  1  0.16139702  0.46911034  0.25387529  1
  O  O69  1  0.31022504  0.49156894  0.75938777  1
  O  O70  1  0.17795100  0.68599002  0.75928192  1
  O  O71  1  0.51178448  0.81894528  0.76079351  1
loop_
_geom_bond_atom_site_label_1
_geom_bond_atom_site_label_2
_geom_bond_distance
_geom_bond_site_symmetry_2
Na0 O53 2.404555 1_555
Na0 O66 2.410971 1_545
Na0 O67 2.511003 1_545
Na0 O52 2.542931 1_555
Na0 O16 2.546784 1_555
Na0 O31 2.570219 1_545
Na1 O53 2.439365 1_555
Na1 O68 2.474179 1_555
Na1 O67 2.496953 1_555
Na1 O51 2.506059 1_555
Na1 O32 2.603382 1_555
Na1 O17 2.640630 1_555
Na1 O0 2.861947 1_555
Na2 O66 2.428026 1_555
Na2 O52 2.477943 1_455
Na2 O51 2.505230 1_455
Na2 O68 2.521880 1_555
Na2 O30 2.543276 1_555
Na2 O15 2.627785 1_455
Na2 O11 2.864940 1_555
Na2 O1 2.996230 1_455
Na3 O49 2.318634 1_555
Na3 O71 2.482209 1_555
Na3 O50 2.522662 1_555
Na3 O14 2.617802 1_555
Na3 O69 2.639342 1_555
Na3 O6 2.724343 1_555
Na3 O35 2.809124 1_555
Na3 O4 2.910501 1_555
Na4 O50 2.380507 1_555
Na4 O69 2.487954 1_655
Na4 O48 2.521966 1_555
Na4 O12 2.562433 1_555
Na4 O70 2.590968 1_655
Na4 O7 2.759918 1_655
Na4 O33 2.775689 1_655
Na4 O5 2.813709 1_555
Na5 O64 2.448728 1_555
Na5 O43 2.458165 1_555
Na5 O65 2.458238 1_555
Na5 O42 2.470728 1_455
Na5 O7 2.547532 1_555
Na5 O28 2.549086 1_555
Na6 O44 2.370334 1_455
Na6 O65 2.424948 1_555
Na6 O8 2.501513 1_555
Na6 O63 2.529458 1_555
Na6 O43 2.552415 1_565
Na6 O29 2.675463 1_555
Na6 O12 2.896962 1_455
Na6 O22 2.991306 1_455
Na7 O42 2.406038 1_565
Na7 O64 2.438491 1_555
Na7 O44 2.476361 1_555
Na7 O6 2.482512 1_555
Na7 O63 2.512954 1_555
Na7 O27 2.572411 1_555
Na8 O47 2.434022 1_565
Na8 O61 2.451287 1_555
Na8 O62 2.460342 1_555
Na8 O26 2.465564 1_554
Na8 O45 2.541562 1_455
Na8 O11 2.608150 1_555
Na9 O45 2.394189 1_555
Na9 O24 2.401661 1_554
Na9 O62 2.432539 1_555
Na9 O60 2.442587 1_555
Na9 O46 2.511075 1_565
Na9 O9 2.707360 1_555
Na10 O46 2.426646 1_455
Na10 O61 2.428791 1_555
Na10 O25 2.433375 1_554
Na10 O60 2.446434 1_555
Na10 O47 2.505894 1_555
Na10 O10 2.636793 1_555
Na10 O20 2.866724 1_455
Na11 O41 2.314871 1_555
Na11 O4 2.433113 1_555
Na11 O55 2.434362 1_555
Na11 O40 2.466090 1_655
Na11 O54 2.652336 1_555
Na11 O33 2.763365 1_655
Na11 O19 2.801404 1_556
Na12 O40 2.371482 1_545
Na12 O3 2.381940 1_555
Na12 O54 2.441390 1_555
Na12 O39 2.443938 1_555
Na12 O56 2.578153 1_555
Na12 O35 2.777778 1_555
Na12 O18 2.790462 1_556
Na13 O38 2.324955 1_555
Na13 O57 2.493872 1_555
Na13 O0 2.538747 1_555
Na13 O36 2.555507 1_545
Na13 O58 2.597223 1_555
Na13 O21 2.693413 1_555
Na13 O31 2.717171 1_545
Na13 O29 2.861741 1_545
Na14 O36 2.366542 1_655
Na14 O37 2.481012 1_555
Na14 O58 2.513714 1_555
Na14 O59 2.557459 1_555
Na14 O22 2.640285 1_555
Na14 O1 2.651320 1_555
Na14 O32 2.774890 1_555
Na14 O27 2.878159 1_555
Na15 O37 2.421790 1_545
Na15 O42 2.431536 1_555
Na15 O38 2.461651 1_655
Na15 O44 2.513639 1_545
Na15 O36 2.573127 1_645
Na15 O43 2.589092 1_655
Na16 O39 2.437067 1_655
Na16 O41 2.449041 1_545
Na16 O46 2.489427 1_556
Na16 O45 2.562977 1_546
Na16 O47 2.575633 1_656
Na16 O40 2.583424 1_645
Na17 O48 2.366338 1_555
Na17 O49 2.431502 1_555
Na17 O56 2.458847 1_555
Na17 O50 2.531900 1_555
Na17 O55 2.569460 1_555
Na17 O54 2.638086 1_555
Na18 O57 2.434604 1_555
Na18 O53 2.480364 1_555
Na18 O59 2.482977 1_555
Na18 O52 2.501538 1_555
Na18 O58 2.505211 1_555
Na18 O51 2.569643 1_555
Na19 O61 2.477506 1_555
Na19 O62 2.494341 1_555
Na19 O66 2.514480 1_555
Na19 O60 2.555933 1_555
Na19 O67 2.583388 1_555
Na19 O68 2.603836 1_555
Na20 O70 2.490409 1_555
Na20 O69 2.505908 1_555
Na20 O71 2.512821 1_555
Na20 O63 2.588764 1_555
Na20 O65 2.602104 1_555
Na20 O64 2.609624 1_555
Ge0 O20 1.883908 1_556
Ge0 O19 1.923571 1_556
Ge0 O18 1.939869 1_556
Ge0 O56 1.971299 1_555
Ge0 O55 1.990103 1_555
Ge0 O54 2.021734 1_555
Ge1 O23 1.854004 1_555
Ge1 O59 1.885845 1_555
Ge1 O22 1.904680 1_555
Ge1 O57 1.934081 1_555
Ge1 O58 1.980646 1_555
Ge1 O21 2.070418 1_555
Ge2 O71 1.910586 1_555
Ge2 O34 1.917833 1_555
Ge2 O70 1.929382 1_555
Ge2 O35 1.987746 1_555
Ge2 O69 1.996190 1_555
Ge2 O33 2.008631 1_555
O0 P0 1.543705 1_545
O0 Zn0 2.037044 1_555
O1 S0 1.479923 1_555
O1 Zn0 2.176964 1_665
O2 S1 1.471534 1_655
O2 Zn0 2.063641 1_655
O3 P1 1.518622 1_555
O3 Zn1 2.026595 1_455
O4 P2 1.525787 1_655
O4 Zn1 2.023336 1_565
O5 P3 1.517568 1_545
O5 Zn1 1.967461 1_555
O6 P3 1.570288 1_555
O6 Zn2 2.031341 1_555
O7 P1 1.564312 1_555
O7 Zn2 2.055020 1_445
O8 P2 1.554905 1_555
O8 Zn2 2.041371 1_455
O9 S0 1.492288 1_555
O9 Zn3 2.152788 1_655
O10 S1 1.494236 1_555
O10 Zn3 2.167173 1_545
O11 P0 1.557818 1_555
O11 Zn3 2.008681 1_555
O12 P4 1.527691 1_555
O12 Zn4 2.043648 1_555
O13 S2 1.459132 1_555
O13 Zn4 2.095150 1_555
O14 P5 1.527282 1_555
O14 Zn4 2.018315 1_555
O15 P6 1.536165 1_555
O15 Zn5 1.997015 1_555
O16 P7 1.535264 1_555
O16 Zn5 1.960501 1_555
O17 P8 1.535360 1_555
O17 Zn5 1.958422 1_555
O18 P8 1.599282 1_555
O19 P6 1.601874 1_555
O20 P7 1.592095 1_555
O21 S2 1.529349 1_555
O22 P5 1.613138 1_555
O23 P4 1.603392 1_555
O24 P9 1.517328 1_555
O24 Zn6 2.006909 1_556
O25 P10 1.529260 1_555
O25 Zn6 2.012655 1_556
O26 P11 1.526317 1_555
O26 Zn6 1.980256 1_556
O27 P12 1.536707 1_555
O27 Zn7 2.046227 1_555
O28 P13 1.518489 1_555
O28 Zn7 1.976198 1_555
O29 P14 1.531783 1_555
O29 Zn7 2.006157 1_555
O30 P14 1.543519 1_555
O30 Zn8 1.998073 1_555
O31 P12 1.560341 1_555
O31 Zn8 2.025723 1_555
O32 P13 1.559435 1_555
O32 Zn8 2.063803 1_555
O33 P10 1.599349 1_555
O34 P11 1.576731 1_555
O35 P9 1.594394 1_555
O36 P14 1.554409 1_555
O36 Zn0 2.122255 1_565
O37 P12 1.539673 1_555
O37 Zn0 2.115949 1_665
O38 P13 1.541148 1_555
O38 Zn0 2.055070 1_555
O39 P10 1.530122 1_555
O39 Zn1 2.176126 1_455
O40 P11 1.545501 1_555
O40 Zn1 2.239425 1_465
O41 P9 1.533467 1_555
O41 Zn1 2.194968 1_565
O42 P4 1.556626 1_555
O42 Zn2 2.315641 1_545
O43 S2 1.493896 1_555
O43 Zn2 2.474025 1_445
O44 P5 1.554984 1_555
O44 Zn2 2.376619 1_555
O45 P6 1.559204 1_555
O45 Zn3 2.140560 1_655
O46 P7 1.557702 1_555
O46 Zn3 2.165480 1_645
O47 P8 1.558307 1_555
O47 Zn3 2.130344 1_545
O48 P3 1.537613 1_545
O48 Zn4 2.070874 1_555
O49 P1 1.541463 1_555
O49 Zn4 2.135493 1_555
O50 P2 1.558055 1_655
O50 Zn4 2.149133 1_555
O51 S0 1.498608 1_555
O51 Zn5 2.325444 1_555
O52 S1 1.499152 1_655
O52 Zn5 2.287417 1_555
O53 P0 1.569515 1_545
O53 Zn5 2.159915 1_555
O54 P9 1.621636 1_555
O55 P10 1.600706 1_655
O56 P11 1.598575 1_545
O57 P12 1.595262 1_545
O58 P13 1.617929 1_555
O59 P14 1.591972 1_655
O60 P8 1.543643 1_555
O60 Zn6 2.144369 1_555
O61 P6 1.544918 1_455
O61 Zn6 2.225748 1_555
O62 P7 1.543160 1_565
O62 Zn6 2.164354 1_555
O63 S2 1.491152 1_565
O63 Zn7 2.318718 1_555
O64 P5 1.553089 1_555
O64 Zn7 2.168188 1_555
O65 P4 1.553429 1_455
O65 Zn7 2.165467 1_555
O66 P0 1.569929 1_555
O66 Zn8 2.207678 1_555
O67 S0 1.500740 1_555
O67 Zn8 2.393285 1_555
O68 S1 1.501672 1_555
O68 Zn8 2.370206 1_555
O69 P1 1.625468 1_555
O70 P2 1.597814 1_555
O71 P3 1.599685 1_555
