# generated using pymatgen
data_Na6Ta4Si9Ge4(SO16)3
_symmetry_space_group_name_H-M   'P 1'
_cell_length_a   17.50137479
_cell_length_b   8.78300082
_cell_length_c   22.34852552
_cell_angle_alpha   89.72910006
_cell_angle_beta   89.52837385
_cell_angle_gamma   120.09694976
_symmetry_Int_Tables_number   1
_chemical_formula_structural   Na6Ta4Si9Ge4(SO16)3
_chemical_formula_sum   'Na18 Ta12 Si27 Ge12 S9 O144'
_cell_volume   2971.88516387
_cell_formula_units_Z   3
loop_
 _symmetry_equiv_pos_site_id
 _symmetry_equiv_pos_as_xyz
  1  'x, y, z'
loop_
 _atom_site_type_symbol
 _atom_site_label
 _atom_site_symmetry_multiplicity
 _atom_site_fract_x
 _atom_site_fract_y
 _atom_site_fract_z
 _atom_site_occupancy
  Na  Na0  1  0.00117429  0.63805100  0.24629860  1
  Na  Na1  1  0.50090258  0.63306913  0.24697403  1
  Na  Na2  1  0.00063873  0.36878808  0.74701877  1
  Na  Na3  1  0.50191096  0.36218630  0.74666402  1
  Na  Na4  1  0.33443276  0.96193401  0.58848378  1
  Na  Na5  1  0.83223324  0.70611527  0.08103038  1
  Na  Na6  1  0.99770529  0.01087363  0.50230403  1
  Na  Na7  1  0.50486753  0.99714743  0.50694558  1
  Na  Na8  1  0.00324534  0.01339905  0.00215166  1
  Na  Na9  1  0.49819345  0.98613365  0.99756549  1
  Na  Na10  1  0.32870136  0.33911268  0.82743234  1
  Na  Na11  1  0.82473752  0.33483425  0.82937387  1
  Na  Na12  1  0.32718181  0.31719298  0.33150372  1
  Na  Na13  1  0.82394604  0.31597418  0.33016199  1
  Na  Na14  1  0.17214106  0.67563797  0.16573652  1
  Na  Na15  1  0.66487777  0.66031100  0.16696250  1
  Na  Na16  1  0.16650812  0.67286452  0.66896612  1
  Na  Na17  1  0.66792586  0.66452511  0.66914828  1
  Ta  Ta0  1  0.00390857  0.00657053  0.35506671  1
  Ta  Ta1  1  0.50347489  0.01115888  0.35649607  1
  Ta  Ta2  1  0.00137963  0.99389127  0.85579174  1
  Ta  Ta3  1  0.50221061  0.98673698  0.85151796  1
  Ta  Ta4  1  0.00571330  0.99922752  0.64145617  1
  Ta  Ta5  1  0.50495984  0.01134811  0.14074953  1
  Ta  Ta6  1  0.33010092  0.34238630  0.98280668  1
  Ta  Ta7  1  0.83148141  0.33911578  0.97120883  1
  Ta  Ta8  1  0.33299580  0.32726086  0.47400481  1
  Ta  Ta9  1  0.83000586  0.31799410  0.48341669  1
  Ta  Ta10  1  0.16756183  0.64871026  0.02686514  1
  Ta  Ta11  1  0.66757509  0.68659677  0.52815740  1
  Si  Si0  1  0.15218500  0.00038618  0.25075542  1
  Si  Si1  1  0.65110134  0.01164254  0.24711970  1
  Si  Si2  1  0.85456837  0.71753909  0.24865823  1
  Si  Si3  1  0.49990003  0.29672271  0.24991434  1
  Si  Si4  1  0.14986317  0.28898993  0.74725010  1
  Si  Si5  1  0.65206839  0.30064523  0.75073407  1
  Si  Si6  1  0.99954703  0.70181076  0.75055103  1
  Si  Si7  1  0.50091765  0.70857690  0.74495391  1
  Si  Si8  1  0.35435645  0.98938407  0.74912610  1
  Si  Si9  1  0.47501110  0.32697998  0.58683017  1
  Si  Si10  1  0.98013068  0.34361119  0.58711900  1
  Si  Si11  1  0.19478092  0.04385533  0.58318435  1
  Si  Si12  1  0.68655517  0.05585609  0.59335051  1
  Si  Si13  1  0.83347617  0.61966650  0.58203107  1
  Si  Si14  1  0.47977579  0.61629954  0.08674789  1
  Si  Si15  1  0.97329117  0.61075347  0.08625051  1
  Si  Si16  1  0.33210955  0.04534414  0.08219777  1
  Si  Si17  1  0.18713088  0.31740728  0.09343625  1
  Si  Si18  1  0.69055732  0.34543082  0.07958461  1
  Si  Si19  1  0.30756997  0.66726440  0.91291073  1
  Si  Si20  1  0.80200682  0.67161753  0.91636468  1
  Si  Si21  1  0.02853636  0.38725357  0.91254729  1
  Si  Si22  1  0.66571161  0.93833654  0.91645368  1
  Si  Si23  1  0.30739534  0.94393927  0.41965513  1
  Si  Si24  1  0.80574032  0.94890616  0.41262557  1
  Si  Si25  1  0.16743116  0.39831562  0.41653379  1
  Si  Si26  1  0.52864935  0.66814637  0.41239041  1
  Ge  Ge0  1  0.51042131  0.02521142  0.65421989  1
  Ge  Ge1  1  0.00772983  0.97236347  0.14884172  1
  Ge  Ge2  1  0.33479420  0.31391515  0.69159196  1
  Ge  Ge3  1  0.83209242  0.35402969  0.68447065  1
  Ge  Ge4  1  0.33324878  0.30867105  0.18377601  1
  Ge  Ge5  1  0.82407781  0.35592328  0.18541678  1
  Ge  Ge6  1  0.66191747  0.66653039  0.02018102  1
  Ge  Ge7  1  0.16782235  0.65879428  0.52450073  1
  Ge  Ge8  1  0.17829497  0.69033565  0.31762906  1
  Ge  Ge9  1  0.66814779  0.68448265  0.30576572  1
  Ge  Ge10  1  0.16851846  0.65008852  0.80543525  1
  Ge  Ge11  1  0.66729976  0.66969135  0.81196624  1
  S  S0  1  0.35252558  0.71269028  0.25148544  1
  S  S1  1  0.00157668  0.28979949  0.24827881  1
  S  S2  1  0.85327011  0.99420075  0.75040014  1
  S  S3  1  0.33254534  0.61589385  0.58342021  1
  S  S4  1  0.83406661  0.05145797  0.08531355  1
  S  S5  1  0.52181763  0.37740087  0.91698628  1
  S  S6  1  0.16881731  0.95167525  0.91623089  1
  S  S7  1  0.66942168  0.38765602  0.41577476  1
  S  S8  1  0.02257679  0.66513641  0.41588126  1
  O  O0  1  0.10334851  0.02833127  0.30893147  1
  O  O1  1  0.60196152  0.03970876  0.30580764  1
  O  O2  1  0.40790031  0.80094445  0.30498694  1
  O  O3  1  0.92303206  0.81200903  0.30392894  1
  O  O4  1  0.48332868  0.17016984  0.30881706  1
  O  O5  1  0.99139165  0.18214011  0.30384095  1
  O  O6  1  0.09857581  0.16315800  0.80618289  1
  O  O7  1  0.60344083  0.17291087  0.80911361  1
  O  O8  1  0.48424426  0.79411007  0.80616126  1
  O  O9  1  0.98311706  0.79563497  0.80925070  1
  O  O10  1  0.42136685  0.03278764  0.80553014  1
  O  O11  1  0.90921127  0.01745360  0.80429499  1
  O  O12  1  0.39933095  0.96079214  0.68814646  1
  O  O13  1  0.89522278  0.97193194  0.69609725  1
  O  O14  1  0.08084850  0.19553798  0.69234430  1
  O  O15  1  0.58333363  0.22393327  0.69409234  1
  O  O16  1  0.01094143  0.82897430  0.69333294  1
  O  O17  1  0.52048359  0.84500048  0.68977605  1
  O  O18  1  0.39280180  0.81771555  0.19668972  1
  O  O19  1  0.90116290  0.83919535  0.18751086  1
  O  O20  1  0.01516073  0.20656594  0.19543619  1
  O  O21  1  0.51120039  0.19282187  0.19301571  1
  O  O22  1  0.08211547  0.93763983  0.19456929  1
  O  O23  1  0.58314188  0.97076881  0.19208606  1
  O  O24  1  0.43444414  0.36687830  0.64668055  1
  O  O25  1  0.93431693  0.37065279  0.64687980  1
  O  O26  1  0.25781022  0.13064288  0.64086188  1
  O  O27  1  0.75599881  0.14670020  0.64642002  1
  O  O28  1  0.31860780  0.51012084  0.63751273  1
  O  O29  1  0.81497436  0.50481507  0.64225255  1
  O  O30  1  0.43414055  0.49757766  0.14715558  1
  O  O31  1  0.93125510  0.49389602  0.14859856  1
  O  O32  1  0.31356456  0.12154594  0.14276586  1
  O  O33  1  0.82070333  0.13349234  0.13941246  1
  O  O34  1  0.25499363  0.36264485  0.14756026  1
  O  O35  1  0.75169093  0.39214768  0.13974078  1
  O  O36  1  0.22876761  0.29151476  0.02982454  1
  O  O37  1  0.73412975  0.30259074  0.02343944  1
  O  O38  1  0.41622788  0.52842495  0.02769625  1
  O  O39  1  0.91031612  0.52189082  0.02907452  1
  O  O40  1  0.34782969  0.16693153  0.02302012  1
  O  O41  1  0.84494365  0.15404525  0.02985695  1
  O  O42  1  0.23399664  0.16574245  0.52345228  1
  O  O43  1  0.73067217  0.16423782  0.52890504  1
  O  O44  1  0.34147710  0.53326668  0.52801555  1
  O  O45  1  0.84839109  0.52944379  0.52221924  1
  O  O46  1  0.41229866  0.29860461  0.52844266  1
  O  O47  1  0.91770216  0.30665064  0.52703479  1
  O  O48  1  0.26356111  0.69005252  0.97486039  1
  O  O49  1  0.76206115  0.69889582  0.97936685  1
  O  O50  1  0.08497557  0.47551245  0.97303434  1
  O  O51  1  0.57516910  0.45827041  0.97119439  1
  O  O52  1  0.15519692  0.84878619  0.97123966  1
  O  O53  1  0.64595127  0.82053540  0.97750075  1
  O  O54  1  0.26314548  0.82541611  0.47941328  1
  O  O55  1  0.76528153  0.83662644  0.47421222  1
  O  O56  1  0.14580327  0.47618136  0.47604443  1
  O  O57  1  0.65544214  0.46130250  0.47011957  1
  O  O58  1  0.07558509  0.69266113  0.46961337  1
  O  O59  1  0.58648138  0.69658768  0.47210591  1
  O  O60  1  0.06159068  0.64232334  0.35913532  1
  O  O61  1  0.56856268  0.63347591  0.35114704  1
  O  O62  1  0.25090982  0.87498154  0.35827783  1
  O  O63  1  0.74620072  0.85951813  0.35434765  1
  O  O64  1  0.17864755  0.51128250  0.35438813  1
  O  O65  1  0.68075179  0.48561479  0.35999831  1
  O  O66  1  0.06901856  0.50394060  0.85188210  1
  O  O67  1  0.55892981  0.48084070  0.86081046  1
  O  O68  1  0.18049075  0.87685892  0.86119966  1
  O  O69  1  0.68005728  0.85367252  0.85585152  1
  O  O70  1  0.24586260  0.63303781  0.85567533  1
  O  O71  1  0.74362580  0.63512157  0.85712298  1
  O  O72  1  0.01363727  0.82665585  0.41108577  1
  O  O73  1  0.51710138  0.84221726  0.40585645  1
  O  O74  1  0.40600159  0.96751582  0.41139697  1
  O  O75  1  0.90527740  0.97388459  0.40548852  1
  O  O76  1  0.08164721  0.19805153  0.40764628  1
  O  O77  1  0.58818189  0.20371132  0.41227186  1
  O  O78  1  0.01656630  0.19004178  0.90753286  1
  O  O79  1  0.51283692  0.20145624  0.91297622  1
  O  O80  1  0.08713133  0.97145394  0.91313901  1
  O  O81  1  0.58134605  0.97043596  0.91115130  1
  O  O82  1  0.40527062  0.84239074  0.90987922  1
  O  O83  1  0.90282402  0.84264195  0.91038753  1
  O  O84  1  0.48068311  0.14606309  0.59226801  1
  O  O85  1  0.98745583  0.16607500  0.59158596  1
  O  O86  1  0.09675682  0.02270763  0.58897750  1
  O  O87  1  0.58898084  0.03413964  0.59485069  1
  O  O88  1  0.41006722  0.79449318  0.58477872  1
  O  O89  1  0.91874959  0.81584784  0.58853220  1
  O  O90  1  0.48713070  0.80827249  0.09292339  1
  O  O91  1  0.97939189  0.80594156  0.09053887  1
  O  O92  1  0.41736928  0.01998391  0.08967079  1
  O  O93  1  0.91351477  0.03124136  0.08872173  1
  O  O94  1  0.08616537  0.14683675  0.09933561  1
  O  O95  1  0.59454097  0.16938541  0.08731997  1
  O  O96  1  0.34953699  0.17184955  0.74574119  1
  O  O97  1  0.84788901  0.15544786  0.74847729  1
  O  O98  1  0.24542066  0.30693309  0.73902209  1
  O  O99  1  0.74619442  0.30839121  0.74310325  1
  O  O100  1  0.41429938  0.51109763  0.74045394  1
  O  O101  1  0.91331069  0.50323230  0.74404370  1
  O  O102  1  0.34554057  0.53912998  0.24954965  1
  O  O103  1  0.85095645  0.52475453  0.24405347  1
  O  O104  1  0.41330168  0.32311022  0.24388510  1
  O  O105  1  0.92124079  0.30461386  0.24757862  1
  O  O106  1  0.24636082  0.17758688  0.24327766  1
  O  O107  1  0.74959809  0.18498274  0.23781370  1
  O  O108  1  0.31900604  0.49126680  0.92138957  1
  O  O109  1  0.81643782  0.49880993  0.92116273  1
  O  O110  1  0.43239737  0.35972367  0.92269898  1
  O  O111  1  0.93051218  0.36376741  0.92284690  1
  O  O112  1  0.24628025  0.13391291  0.92124224  1
  O  O113  1  0.75429300  0.13410811  0.92363680  1
  O  O114  1  0.31961345  0.14114268  0.42266814  1
  O  O115  1  0.81904716  0.14877076  0.42017526  1
  O  O116  1  0.25419245  0.37607251  0.42229575  1
  O  O117  1  0.74702942  0.36045383  0.42002648  1
  O  O118  1  0.43000183  0.49902009  0.42222274  1
  O  O119  1  0.93304363  0.50878765  0.41949395  1
  O  O120  1  0.17755059  0.49265052  0.08274160  1
  O  O121  1  0.68168141  0.52086338  0.07319693  1
  O  O122  1  0.07154122  0.63994151  0.07886462  1
  O  O123  1  0.57688628  0.63587703  0.07706663  1
  O  O124  1  0.24519400  0.85235080  0.07533159  1
  O  O125  1  0.75427320  0.86919099  0.08213375  1
  O  O126  1  0.18512852  0.84840171  0.57524346  1
  O  O127  1  0.67830693  0.86191340  0.58279663  1
  O  O128  1  0.25049856  0.63589444  0.58003883  1
  O  O129  1  0.74634819  0.63789725  0.57438830  1
  O  O130  1  0.07738889  0.51949393  0.57725394  1
  O  O131  1  0.57242455  0.49897923  0.57591937  1
  O  O132  1  0.15345020  0.81034463  0.25997981  1
  O  O133  1  0.65412256  0.82966358  0.25218737  1
  O  O134  1  0.26310996  0.69614303  0.25595360  1
  O  O135  1  0.75669636  0.68917996  0.25679895  1
  O  O136  1  0.07999138  0.47050344  0.25392671  1
  O  O137  1  0.58846840  0.49009637  0.25588715  1
  O  O138  1  0.15203731  0.47636671  0.75240095  1
  O  O139  1  0.65676272  0.49227903  0.75954271  1
  O  O140  1  0.08840057  0.68722047  0.75643638  1
  O  O141  1  0.58755643  0.68265166  0.75685603  1
  O  O142  1  0.25610094  0.82008407  0.75738175  1
  O  O143  1  0.76535505  0.83430018  0.75475458  1
loop_
_geom_bond_atom_site_label_1
_geom_bond_atom_site_label_2
_geom_bond_distance
_geom_bond_site_symmetry_2
Na0 O103 2.298551 1_455
Na0 O132 2.336439 1_555
Na0 O136 2.476830 1_555
Na0 O31 2.526692 1_455
Na0 O105 2.534574 1_455
Na0 O22 2.544172 1_555
Na0 O60 2.735613 1_555
Na0 O3 2.819359 1_455
Na1 O133 2.355644 1_555
Na1 O104 2.363069 1_555
Na1 O102 2.413354 1_555
Na1 O137 2.428558 1_555
Na1 O30 2.536002 1_555
Na1 O61 2.619836 1_555
Na1 O23 2.833475 1_555
Na1 O2 2.982365 1_555
Na2 O138 2.328831 1_555
Na2 O101 2.354908 1_455
Na2 O97 2.373368 1_455
Na2 O140 2.434760 1_555
Na2 O25 2.533276 1_455
Na2 O66 2.642192 1_555
Na2 O14 2.812603 1_555
Na2 O11 2.949191 1_455
Na3 O96 2.331686 1_555
Na3 O139 2.375587 1_555
Na3 O141 2.449750 1_555
Na3 O100 2.468601 1_555
Na3 O24 2.545619 1_555
Na3 O15 2.570381 1_555
Na3 O67 2.759265 1_555
Na3 O10 2.816235 1_555
Na4 O84 2.242170 1_565
Na4 O126 2.304797 1_555
Na4 O88 2.423542 1_555
Na4 O128 2.486872 1_555
Na4 O12 2.510766 1_555
Na4 O26 2.710646 1_565
Na4 O54 2.741050 1_555
Na4 O46 2.879629 1_565
Na5 O91 2.278821 1_555
Na5 O121 2.308925 1_555
Na5 O125 2.423514 1_555
Na5 O93 2.478327 1_565
Na5 O49 2.577516 1_554
Na5 O19 2.672784 1_555
Na5 O35 2.711025 1_555
Na5 O39 2.836028 1_555
Na6 O89 2.471476 1_545
Na6 O85 2.477231 1_555
Na6 O86 2.577692 1_655
Na6 O76 2.613391 1_655
Na6 O75 2.634569 1_545
Na6 O72 2.706619 1_645
Na7 O87 2.388733 1_565
Na7 O88 2.430632 1_555
Na7 O84 2.468063 1_565
Na7 O77 2.674709 1_565
Na7 O74 2.689961 1_555
Na7 O73 2.704580 1_555
Na8 O93 2.536439 1_455
Na8 O78 2.555574 1_554
Na8 O94 2.562611 1_555
Na8 O91 2.566266 1_445
Na8 O80 2.598021 1_544
Na8 O83 2.643621 1_444
Na9 O81 2.454382 1_555
Na9 O82 2.468929 1_555
Na9 O90 2.584148 1_556
Na9 O79 2.586145 1_565
Na9 O92 2.589598 1_566
Na9 O95 2.611832 1_566
Na10 O98 2.397445 1_555
Na10 O100 2.441158 1_555
Na10 O96 2.485138 1_555
Na10 O108 2.544003 1_555
Na10 O112 2.651683 1_555
Na10 O110 2.756274 1_555
Na11 O99 2.321302 1_555
Na11 O101 2.419174 1_555
Na11 O109 2.556586 1_555
Na11 O97 2.563248 1_555
Na11 O113 2.609256 1_555
Na11 O111 2.729883 1_555
Na12 O106 2.391908 1_555
Na12 O104 2.445533 1_555
Na12 O114 2.513911 1_555
Na12 O102 2.566300 1_555
Na12 O116 2.578008 1_555
Na12 O118 2.665996 1_555
Na13 O107 2.416914 1_555
Na13 O115 2.460431 1_555
Na13 O103 2.524198 1_555
Na13 O105 2.536959 1_555
Na13 O117 2.547253 1_555
Na13 O119 2.711287 1_555
Na14 O124 2.462373 1_555
Na14 O120 2.492032 1_555
Na14 O132 2.518580 1_555
Na14 O134 2.530021 1_555
Na14 O122 2.544761 1_555
Na14 O136 2.594512 1_555
Na15 O137 2.428144 1_555
Na15 O133 2.485405 1_555
Na15 O123 2.485431 1_555
Na15 O135 2.515308 1_555
Na15 O121 2.520541 1_555
Na15 O125 2.539124 1_555
Na16 O140 2.416015 1_555
Na16 O138 2.458251 1_555
Na16 O142 2.465100 1_555
Na16 O126 2.514894 1_555
Na16 O130 2.533734 1_555
Na16 O128 2.579269 1_555
Na17 O141 2.455219 1_555
Na17 O139 2.464986 1_555
Na17 O143 2.514333 1_555
Na17 O127 2.531706 1_555
Na17 O129 2.588834 1_555
Na17 O131 2.626295 1_555
Ge0 O15 1.807874 1_555
Ge0 O17 1.854088 1_545
Ge0 O87 1.875577 1_555
Ge0 O12 1.882410 1_545
Ge0 O84 1.966338 1_555
Ge0 O88 2.470743 1_545
Ge1 O22 1.802595 1_555
Ge1 O94 1.818231 1_565
Ge1 O19 1.835599 1_455
Ge1 O91 1.838981 1_455
Ge1 O20 2.255370 1_565
Ge1 O93 2.382560 1_465
Ge2 O96 1.844373 1_555
Ge2 O24 1.848920 1_555
Ge2 O98 1.857372 1_555
Ge2 O26 1.886536 1_555
Ge2 O100 1.937511 1_555
Ge2 O28 2.232973 1_555
Ge3 O29 1.767662 1_555
Ge3 O27 1.847631 1_555
Ge3 O99 1.869745 1_555
Ge3 O25 1.907873 1_555
Ge3 O101 1.920877 1_555
Ge3 O97 2.373013 1_555
Ge4 O32 1.763925 1_555
Ge4 O34 1.849677 1_555
Ge4 O30 1.888282 1_555
Ge4 O106 1.898045 1_555
Ge4 O104 1.907346 1_555
Ge4 O102 2.429137 1_555
Ge5 O35 1.780636 1_555
Ge5 O107 1.822067 1_555
Ge5 O31 1.830144 1_555
Ge5 O103 1.861803 1_555
Ge5 O33 2.186644 1_555
Ge5 O105 2.413758 1_555
Ge6 O53 1.785708 1_554
Ge6 O49 1.859070 1_554
Ge6 O123 1.862023 1_555
Ge6 O121 1.896458 1_555
Ge6 O51 2.027418 1_554
Ge6 O125 2.207381 1_555
Ge7 O56 1.815792 1_555
Ge7 O130 1.845363 1_555
Ge7 O54 1.857407 1_555
Ge7 O126 1.915382 1_555
Ge7 O128 1.998438 1_555
Ge7 O58 2.170202 1_555
Ge8 O62 1.742497 1_555
Ge8 O64 1.773602 1_555
Ge8 O132 1.848246 1_555
Ge8 O134 1.998891 1_555
Ge8 O60 2.076369 1_555
Ge8 O136 2.334402 1_555
Ge9 O63 1.828187 1_555
Ge9 O133 1.850476 1_555
Ge9 O61 1.857538 1_555
Ge9 O135 1.873083 1_555
Ge9 O137 1.938520 1_555
Ge9 O65 2.222444 1_555
Ge10 O70 1.828152 1_555
Ge10 O142 1.842424 1_555
Ge10 O138 1.843200 1_555
Ge10 O66 1.863706 1_555
Ge10 O140 1.937039 1_555
Ge10 O68 2.274475 1_555
Ge11 O69 1.810984 1_555
Ge11 O71 1.822391 1_555
Ge11 O139 1.888724 1_555
Ge11 O141 1.914138 1_555
Ge11 O143 2.031771 1_555
Ge11 O67 2.081745 1_555
O0 Si0 1.635931 1_555
O0 Ta0 1.939941 1_555
O1 Si1 1.648564 1_555
O1 Ta1 1.961837 1_555
O2 S0 1.498044 1_555
O2 Ta1 2.118102 1_565
O3 Si2 1.639169 1_555
O3 Ta0 1.961879 1_665
O4 Si3 1.645912 1_555
O4 Ta1 1.922544 1_555
O5 S1 1.511287 1_655
O5 Ta0 2.015609 1_655
O6 Si4 1.653366 1_555
O6 Ta2 1.936500 1_545
O7 Si5 1.641784 1_555
O7 Ta3 1.939822 1_545
O8 Si7 1.656396 1_555
O8 Ta3 1.864572 1_555
O9 Si6 1.650567 1_555
O9 Ta2 1.918465 1_655
O10 Si8 1.640182 1_545
O10 Ta3 1.953384 1_545
O11 S2 1.507380 1_545
O11 Ta2 2.081456 1_645
O12 Si8 1.650355 1_555
O13 S2 1.477074 1_555
O13 Ta4 2.186646 1_655
O14 Si4 1.636433 1_555
O14 Ta4 1.940269 1_545
O15 Si5 1.650365 1_555
O16 Si6 1.637461 1_455
O16 Ta4 1.926424 1_555
O17 Si7 1.625170 1_555
O18 S0 1.473228 1_555
O18 Ta5 2.213533 1_565
O19 Si2 1.663768 1_555
O20 S1 1.470864 1_555
O21 Si3 1.636059 1_555
O21 Ta5 1.939562 1_555
O22 Si0 1.654803 1_565
O23 Si1 1.629798 1_565
O23 Ta5 1.956174 1_565
O24 Si9 1.629195 1_555
O25 Si10 1.630765 1_555
O26 Si11 1.627512 1_555
O27 Si12 1.606392 1_555
O28 S3 1.463288 1_555
O29 Si13 1.608149 1_555
O30 Si14 1.637508 1_555
O31 Si15 1.657856 1_555
O32 Si16 1.613916 1_555
O33 S4 1.485991 1_555
O34 Si17 1.608262 1_555
O35 Si18 1.645938 1_555
O36 Si17 1.660106 1_555
O36 Ta6 1.902404 1_554
O37 Si18 1.604372 1_555
O37 Ta7 1.945221 1_554
O38 Si14 1.657458 1_555
O38 Ta6 1.875798 1_554
O39 Si15 1.620662 1_555
O39 Ta7 1.995166 1_554
O40 Si16 1.628248 1_555
O40 Ta6 1.936423 1_554
O41 S4 1.482451 1_555
O41 Ta7 2.187383 1_554
O42 Si11 1.622845 1_555
O42 Ta8 1.929813 1_555
O43 Si12 1.675781 1_555
O43 Ta9 1.866225 1_555
O44 S3 1.484369 1_555
O44 Ta8 2.122974 1_555
O45 Si13 1.641520 1_555
O45 Ta9 1.930048 1_555
O46 Si9 1.649773 1_555
O46 Ta8 1.960871 1_555
O47 Si10 1.665765 1_555
O47 Ta9 1.868920 1_555
O48 Si19 1.640049 1_555
O48 Ta10 1.912442 1_556
O49 Si20 1.638169 1_555
O50 Si21 1.633367 1_555
O50 Ta10 1.921260 1_556
O51 S5 1.485130 1_555
O52 S6 1.467452 1_555
O52 Ta10 2.246196 1_556
O53 Si22 1.634461 1_555
O54 Si23 1.621194 1_555
O55 Si24 1.624523 1_555
O55 Ta11 1.950658 1_555
O56 Si25 1.624734 1_555
O57 S7 1.454162 1_555
O57 Ta11 2.291362 1_555
O58 S8 1.468760 1_555
O59 Si26 1.624708 1_555
O59 Ta11 1.935016 1_555
O60 S8 1.496669 1_555
O61 Si26 1.629588 1_555
O62 Si23 1.629518 1_555
O63 Si24 1.615558 1_555
O64 Si25 1.655010 1_555
O65 S7 1.465626 1_555
O66 Si21 1.622729 1_555
O67 S5 1.485725 1_555
O68 S6 1.457482 1_555
O69 Si22 1.625259 1_555
O70 Si19 1.610476 1_555
O71 Si20 1.611648 1_555
O72 S8 1.506619 1_555
O72 Ta0 2.085185 1_565
O73 Si26 1.645560 1_555
O73 Ta1 1.954285 1_565
O74 Si23 1.640466 1_555
O74 Ta1 1.966665 1_565
O75 Si24 1.649260 1_555
O75 Ta0 1.949315 1_665
O76 Si25 1.657410 1_555
O76 Ta0 1.952030 1_555
O77 S7 1.528735 1_555
O77 Ta1 2.036545 1_555
O78 Si21 1.641630 1_555
O78 Ta2 1.985051 1_545
O79 S5 1.476042 1_555
O79 Ta3 2.270370 1_545
O80 S6 1.526219 1_555
O80 Ta2 2.063884 1_555
O81 Si22 1.641242 1_555
O81 Ta3 1.985511 1_555
O82 Si19 1.628971 1_555
O82 Ta3 1.994387 1_555
O83 Si20 1.650303 1_555
O83 Ta2 1.969911 1_655
O84 Si9 1.645021 1_555
O85 Si10 1.630045 1_555
O85 Ta4 1.987905 1_645
O86 Si11 1.634298 1_555
O86 Ta4 1.895866 1_545
O87 Si12 1.620499 1_555
O88 S3 1.472736 1_555
O89 Si13 1.626105 1_555
O89 Ta4 1.974493 1_655
O90 Si14 1.631982 1_555
O90 Ta5 1.971397 1_565
O91 Si15 1.666638 1_555
O92 Si16 1.625159 1_555
O92 Ta5 1.950233 1_555
O93 S4 1.489939 1_555
O94 Si17 1.650295 1_555
O95 Si18 1.622113 1_555
O95 Ta5 1.892462 1_555
O96 Si8 1.647931 1_545
O97 S2 1.466183 1_545
O98 Si4 1.608061 1_555
O99 Si5 1.621816 1_555
O100 Si7 1.638188 1_555
O101 Si6 1.645273 1_555
O102 S0 1.467775 1_555
O103 Si2 1.666136 1_555
O104 Si3 1.650525 1_555
O105 S1 1.475736 1_655
O106 Si0 1.608431 1_555
O107 Si1 1.640629 1_555
O108 Si19 1.665403 1_555
O108 Ta6 1.968150 1_555
O109 Si20 1.662008 1_555
O109 Ta7 1.909950 1_555
O110 S5 1.497463 1_555
O110 Ta6 2.172101 1_555
O111 Si21 1.636094 1_655
O111 Ta7 1.951802 1_555
O112 S6 1.496759 1_545
O112 Ta6 2.181928 1_555
O113 Si22 1.648927 1_545
O113 Ta7 1.949247 1_555
O114 Si23 1.637101 1_545
O114 Ta8 1.918722 1_555
O115 Si24 1.660605 1_545
O115 Ta9 1.995454 1_555
O116 Si25 1.631229 1_555
O116 Ta8 2.008957 1_555
O117 S7 1.496095 1_555
O117 Ta9 2.197034 1_555
O118 Si26 1.629139 1_555
O118 Ta8 1.969723 1_555
O119 S8 1.478641 1_655
O119 Ta9 2.237203 1_555
O120 Si17 1.646287 1_555
O120 Ta10 1.922609 1_555
O121 Si18 1.630027 1_555
O122 Si15 1.613229 1_455
O122 Ta10 2.004418 1_555
O123 Si14 1.632607 1_555
O124 Si16 1.622027 1_565
O124 Ta10 1.955390 1_555
O125 S4 1.509487 1_565
O126 Si11 1.649095 1_565
O127 Si12 1.654020 1_565
O127 Ta11 1.904962 1_555
O128 S3 1.533985 1_555
O129 Si13 1.621393 1_555
O129 Ta11 1.939525 1_555
O130 Si10 1.638817 1_455
O131 Si9 1.629354 1_555
O131 Ta11 1.956996 1_555
O132 Si0 1.692008 1_565
O133 Si1 1.628926 1_565
O134 S0 1.499728 1_555
O135 Si2 1.611116 1_555
O136 S1 1.496172 1_555
O137 Si3 1.634104 1_555
O138 Si4 1.631621 1_555
O139 Si5 1.656234 1_555
O140 Si6 1.629416 1_455
O141 Si7 1.665563 1_555
O142 Si8 1.621680 1_555
O143 S2 1.475896 1_555
