# generated using pymatgen
data_CsInI3
_symmetry_space_group_name_H-M   'P 1'
_cell_length_a   6.10569855
_cell_length_b   6.11714122
_cell_length_c   6.11487871
_cell_angle_alpha   89.94756954
_cell_angle_beta   90.01293047
_cell_angle_gamma   89.91721467
_symmetry_Int_Tables_number   1
_chemical_formula_structural   CsInI3
_chemical_formula_sum   'Cs1 In1 I3'
_cell_volume   228.38683484
_cell_formula_units_Z   1
loop_
 _symmetry_equiv_pos_site_id
 _symmetry_equiv_pos_as_xyz
  1  'x, y, z'
loop_
 _atom_site_type_symbol
 _atom_site_label
 _atom_site_symmetry_multiplicity
 _atom_site_fract_x
 _atom_site_fract_y
 _atom_site_fract_z
 _atom_site_occupancy
  Cs  Cs0  1  0.00081220  0.00787230  -0.00062149  1
  In  In0  1  0.50079821  0.51400289  0.50144930  1
  I  I0  1  0.00017484  0.51356142  0.50467008  1
  I  I1  1  0.49832653  0.01343680  0.50190168  1
  I  I2  1  0.49988522  0.51112859  0.00259543  1
loop_
_geom_bond_atom_site_label_1
_geom_bond_atom_site_label_2
_geom_bond_distance
_geom_bond_site_symmetry_2
Cs0 I0 4.279146 1_544
Cs0 I1 4.299619 1_554
Cs0 I2 4.300263 1_545
Cs0 I2 4.314515 1_445
Cs0 I1 4.320077 1_454
Cs0 I1 4.320580 1_555
Cs0 I0 4.321224 1_545
Cs0 I0 4.324687 1_554
Cs0 I2 4.334748 1_555
Cs0 I2 4.336461 1_455
Cs0 I1 4.342880 1_455
Cs0 I0 4.374159 1_555
I0 In0 3.049100 1_455
I0 In0 3.056728 1_555
I1 In0 3.055127 1_545
I1 In0 3.062091 1_555
I2 In0 3.050502 1_555
I2 In0 3.064489 1_554
