# generated using pymatgen
data_K2Mg(SbO3)2
_symmetry_space_group_name_H-M   'P 1'
_cell_length_a   5.68408698
_cell_length_b   5.68408698
_cell_length_c   7.17150443
_cell_angle_alpha   66.65312963
_cell_angle_beta   66.65312963
_cell_angle_gamma   59.99998864
_symmetry_Int_Tables_number   1
_chemical_formula_structural   K2Mg(SbO3)2
_chemical_formula_sum   'K2 Mg1 Sb2 O6'
_cell_volume   178.41867132
_cell_formula_units_Z   1
loop_
 _symmetry_equiv_pos_site_id
 _symmetry_equiv_pos_as_xyz
  1  'x, y, z'
loop_
 _atom_site_type_symbol
 _atom_site_label
 _atom_site_symmetry_multiplicity
 _atom_site_fract_x
 _atom_site_fract_y
 _atom_site_fract_z
 _atom_site_occupancy
  K  K0  1  0.33410400  0.33410400  0.99768900  1
  K  K1  1  0.66589600  0.66589600  0.00231100  1
  Mg  Mg0  1  0.50000000  0.50000000  0.50000000  1
  Sb  Sb0  1  0.15729300  0.15729300  0.52812200  1
  Sb  Sb1  1  0.84270700  0.84270700  0.47187800  1
  O  O0  1  0.90721800  0.23420600  0.33552600  1
  O  O1  1  0.23420600  0.52304900  0.33552600  1
  O  O2  1  0.52304900  0.90721800  0.33552600  1
  O  O3  1  0.09278200  0.76579400  0.66447400  1
  O  O4  1  0.76579400  0.47695100  0.66447400  1
  O  O5  1  0.47695100  0.09278200  0.66447400  1
loop_
_geom_bond_atom_site_label_1
_geom_bond_atom_site_label_2
_geom_bond_distance
_geom_bond_site_symmetry_2
K0 O1 2.776318 1_556
K0 O2 2.776322 1_546
K0 O0 2.776325 1_456
K0 O3 2.863156 1_555
K0 O5 2.863157 1_555
K0 O4 2.863157 1_555
K1 O4 2.776318 1_554
K1 O5 2.776322 1_564
K1 O3 2.776325 1_654
K1 O0 2.863156 1_555
K1 O2 2.863157 1_555
K1 O1 2.863157 1_555
Mg0 O2 2.186992 1_555
Mg0 O5 2.186992 1_555
Mg0 O0 2.186994 1_555
Mg0 O3 2.186994 1_555
Mg0 O1 2.186997 1_555
Mg0 O4 2.186997 1_555
O0 Sb0 2.139029 1_655
O0 Sb1 2.202219 1_545
O1 Sb0 2.139020 1_555
O1 Sb1 2.202219 1_455
O2 Sb0 2.139024 1_565
O2 Sb1 2.202219 1_555
O3 Sb1 2.139029 1_455
O3 Sb0 2.202219 1_565
O4 Sb1 2.139020 1_555
O4 Sb0 2.202219 1_655
O5 Sb1 2.139024 1_545
O5 Sb0 2.202219 1_555
