# generated using pymatgen
data_PdBr2
_symmetry_space_group_name_H-M   'P 1'
_cell_length_a   4.11482591
_cell_length_b   6.59962970
_cell_length_c   26.02391517
_cell_angle_alpha   86.93617250
_cell_angle_beta   90.00000000
_cell_angle_gamma   90.00000000
_symmetry_Int_Tables_number   1
_chemical_formula_structural   PdBr2
_chemical_formula_sum   'Pd8 Br16'
_cell_volume   705.70378956
_cell_formula_units_Z   8
loop_
 _symmetry_equiv_pos_site_id
 _symmetry_equiv_pos_as_xyz
  1  'x, y, z'
loop_
 _atom_site_type_symbol
 _atom_site_label
 _atom_site_symmetry_multiplicity
 _atom_site_fract_x
 _atom_site_fract_y
 _atom_site_fract_z
 _atom_site_occupancy
  Pd  Pd0  1  0.75000000  0.12500000  0.37500000  1
  Pd  Pd1  1  0.25000000  0.87500000  0.12500000  1
  Pd  Pd2  1  0.25000000  0.87500000  0.62500000  1
  Pd  Pd3  1  0.75000000  0.12500000  0.87500000  1
  Pd  Pd4  1  0.75000000  0.62500000  0.37500000  1
  Pd  Pd5  1  0.25000000  0.37500000  0.12500000  1
  Pd  Pd6  1  0.25000000  0.37500000  0.62500000  1
  Pd  Pd7  1  0.75000000  0.62500000  0.87500000  1
  Br  Br0  1  0.58119581  0.38830811  0.81062680  1
  Br  Br1  1  0.08119581  0.61169189  0.68937320  1
  Br  Br2  1  0.41880419  0.61169189  0.18937320  1
  Br  Br3  1  0.91880419  0.38830811  0.31062680  1
  Br  Br4  1  0.58119581  0.88830811  0.31062680  1
  Br  Br5  1  0.08119581  0.11169189  0.18937320  1
  Br  Br6  1  0.41880419  0.11169189  0.68937320  1
  Br  Br7  1  0.91880419  0.88830811  0.81062680  1
  Br  Br8  1  0.91880419  0.86169189  0.93937320  1
  Br  Br9  1  0.41880419  0.13830811  0.56062680  1
  Br  Br10  1  0.08119581  0.13830811  0.06062680  1
  Br  Br11  1  0.58119581  0.86169189  0.43937320  1
  Br  Br12  1  0.91880419  0.36169189  0.43937320  1
  Br  Br13  1  0.41880419  0.63830811  0.06062680  1
  Br  Br14  1  0.08119581  0.63830811  0.56062680  1
  Br  Br15  1  0.58119581  0.36169189  0.93937320  1
loop_
_geom_bond_atom_site_label_1
_geom_bond_atom_site_label_2
_geom_bond_distance
_geom_bond_site_symmetry_2
Br0 Pd3 2.448968 1_555
Br0 Pd7 2.451271 1_555
Br1 Pd2 2.448968 1_555
Br1 Pd6 2.451271 1_555
Br2 Pd1 2.448968 1_555
Br2 Pd5 2.451271 1_555
Br3 Pd0 2.448968 1_555
Br3 Pd4 2.451271 1_555
Br4 Pd4 2.448968 1_555
Br4 Pd0 2.451271 1_565
Br5 Pd5 2.448968 1_555
Br5 Pd1 2.451271 1_545
Br6 Pd6 2.448968 1_555
Br6 Pd2 2.451271 1_545
Br7 Pd7 2.448968 1_555
Br7 Pd3 2.451271 1_565
Br8 Pd3 2.448968 1_565
Br8 Pd7 2.451271 1_555
Br9 Pd2 2.448968 1_545
Br9 Pd6 2.451271 1_555
Br10 Pd1 2.448968 1_545
Br10 Pd5 2.451271 1_555
Br11 Pd0 2.448968 1_565
Br11 Pd4 2.451271 1_555
Br12 Pd4 2.448968 1_555
Br12 Pd0 2.451271 1_555
Br13 Pd5 2.448968 1_555
Br13 Pd1 2.451271 1_555
Br14 Pd6 2.448968 1_555
Br14 Pd2 2.451271 1_555
Br15 Pd7 2.448968 1_555
Br15 Pd3 2.451271 1_555
