# generated using pymatgen
data_CsSbClF3
_symmetry_space_group_name_H-M   'P 1'
_cell_length_a   9.26982450
_cell_length_b   9.26982450
_cell_length_c   9.26982450
_cell_angle_alpha   115.03505778
_cell_angle_beta   115.03505778
_cell_angle_gamma   98.83877250
_symmetry_Int_Tables_number   1
_chemical_formula_structural   CsSbClF3
_chemical_formula_sum   'Cs4 Sb4 Cl4 F12'
_cell_volume   597.79069806
_cell_formula_units_Z   4
loop_
 _symmetry_equiv_pos_site_id
 _symmetry_equiv_pos_as_xyz
  1  'x, y, z'
loop_
 _atom_site_type_symbol
 _atom_site_label
 _atom_site_symmetry_multiplicity
 _atom_site_fract_x
 _atom_site_fract_y
 _atom_site_fract_z
 _atom_site_occupancy
  Cs  Cs0  1  0.69588700  0.69588700  0.00000000  1
  Cs  Cs1  1  0.75000000  0.25000000  0.50000000  1
  Cs  Cs2  1  0.25000000  0.75000000  0.50000000  1
  Cs  Cs3  1  0.30411300  0.30411300  0.00000000  1
  Sb  Sb0  1  0.74564700  0.16649200  0.00000000  1
  Sb  Sb1  1  0.16649200  0.74564700  0.00000000  1
  Sb  Sb2  1  0.83350800  0.83350800  0.57915500  1
  Sb  Sb3  1  0.25435300  0.25435300  0.42084500  1
  Cl  Cl0  1  0.50000000  0.78996500  0.28996500  1
  Cl  Cl1  1  0.78996500  0.50000000  0.28996500  1
  Cl  Cl2  1  0.21003500  0.50000000  0.71003500  1
  Cl  Cl3  1  0.50000000  0.21003500  0.71003500  1
  F  F0  1  0.89286100  0.08788300  0.74765100  1
  F  F1  1  0.34023300  0.14521000  0.25234900  1
  F  F2  1  0.08788300  0.89286100  0.74765100  1
  F  F3  1  0.85479000  0.10713900  0.19502200  1
  F  F4  1  0.91211600  0.65976700  0.80497800  1
  F  F5  1  0.10713900  0.85479000  0.19502200  1
  F  F6  1  0.65976700  0.91211600  0.80497800  1
  F  F7  1  0.46520700  0.46520700  0.55656100  1
  F  F8  1  0.90864600  0.90864600  0.44343900  1
  F  F9  1  0.09135400  0.53479300  0.00000000  1
  F  F10  1  0.53479300  0.09135400  0.00000000  1
  F  F11  1  0.14521000  0.34023300  0.25234900  1
loop_
_geom_bond_atom_site_label_1
_geom_bond_atom_site_label_2
_geom_bond_distance
_geom_bond_site_symmetry_2
Cs0 F8 3.123837 1_555
Cs0 F7 3.123837 1_554
Cs0 F4 3.187276 1_554
Cs0 F6 3.187276 1_554
Cs0 F5 3.187284 1_655
Cs0 F3 3.187284 1_565
Cs1 F1 3.200104 1_555
Cs1 F4 3.200106 1_555
Cs1 F0 3.200112 1_555
Cs1 F3 3.200112 1_555
Cs1 F10 3.623377 1_555
Cs1 F9 3.623377 1_656
Cs1 F8 3.623377 1_545
Cs1 F7 3.623377 1_555
Cs2 F11 3.200104 1_555
Cs2 F6 3.200106 1_555
Cs2 F2 3.200112 1_555
Cs2 F5 3.200112 1_555
Cs2 F10 3.623377 1_566
Cs2 F9 3.623377 1_555
Cs2 F8 3.623377 1_455
Cs2 F7 3.623377 1_555
Cs3 F9 3.123837 1_555
Cs3 F10 3.123837 1_555
Cs3 F1 3.187283 1_555
Cs3 F11 3.187283 1_555
Cs3 F2 3.187284 1_544
Cs3 F0 3.187284 1_454
Cl0 Sb2 2.931475 1_555
Cl0 Sb1 2.931475 1_555
Cl0 Cs2 3.669332 1_555
Cl0 Cs1 3.669332 1_565
Cl0 Cs0 3.730461 1_555
Cl0 Cs3 3.730461 1_555
Cl1 Sb2 2.931475 1_555
Cl1 Sb0 2.931475 1_555
Cl1 Cs1 3.669332 1_555
Cl1 Cs2 3.669332 1_655
Cl1 Cs0 3.730461 1_555
Cl1 Cs3 3.730461 1_555
Cl2 Sb1 2.931475 1_556
Cl2 Sb3 2.931475 1_555
Cl2 Cs1 3.669332 1_455
Cl2 Cs2 3.669332 1_555
Cl2 Cs0 3.730461 1_556
Cl2 Cs3 3.730461 1_556
Cl3 Sb0 2.931475 1_556
Cl3 Sb3 2.931475 1_555
Cl3 Cs1 3.669332 1_555
Cl3 Cs2 3.669332 1_545
Cl3 Cs0 3.730461 1_556
Cl3 Cs3 3.730461 1_556
F0 Sb2 2.014799 1_545
F1 Sb3 2.014807 1_555
F2 Sb2 2.014799 1_455
F3 Sb0 2.014799 1_555
F4 Sb1 2.014804 1_656
F5 Sb1 2.014799 1_555
F6 Sb0 2.014804 1_566
F7 Sb3 1.971585 1_555
F8 Sb2 1.971585 1_555
F9 Sb1 1.971585 1_555
F10 Sb0 1.971585 1_555
F11 Sb3 2.014807 1_555
