# generated using pymatgen
data_TiH12(NF2)4
_symmetry_space_group_name_H-M   'P 1'
_cell_length_a   5.51983700
_cell_length_b   11.04133900
_cell_length_c   13.81351200
_cell_angle_alpha   90.00000000
_cell_angle_beta   90.00000000
_cell_angle_gamma   90.00000000
_symmetry_Int_Tables_number   1
_chemical_formula_structural   TiH12(NF2)4
_chemical_formula_sum   'Ti4 H48 N16 F32'
_cell_volume   841.88371092
_cell_formula_units_Z   4
loop_
 _symmetry_equiv_pos_site_id
 _symmetry_equiv_pos_as_xyz
  1  'x, y, z'
loop_
 _atom_site_type_symbol
 _atom_site_label
 _atom_site_symmetry_multiplicity
 _atom_site_fract_x
 _atom_site_fract_y
 _atom_site_fract_z
 _atom_site_occupancy
  Ti  Ti0  1  0.75000000  0.62474600  0.75000000  1
  Ti  Ti1  1  0.25000000  0.87525400  0.25000000  1
  Ti  Ti2  1  0.25000000  0.37525400  0.25000000  1
  Ti  Ti3  1  0.75000000  0.12474600  0.75000000  1
  H  H0  1  0.50693600  0.89218500  0.55917600  1
  H  H1  1  0.00693600  0.60781500  0.44082400  1
  H  H2  1  0.99306400  0.89218500  0.94082400  1
  H  H3  1  0.49306400  0.60781500  0.05917600  1
  H  H4  1  0.49306400  0.10781500  0.44082400  1
  H  H5  1  0.99306400  0.39218500  0.55917600  1
  H  H6  1  0.00693600  0.10781500  0.05917600  1
  H  H7  1  0.50693600  0.39218500  0.94082400  1
  H  H8  1  0.28145400  0.99915300  0.56009500  1
  H  H9  1  0.78145400  0.50084700  0.43990500  1
  H  H10  1  0.21854600  0.99915300  0.93990500  1
  H  H11  1  0.71854600  0.50084700  0.06009500  1
  H  H12  1  0.71854600  0.00084700  0.43990500  1
  H  H13  1  0.21854600  0.49915300  0.56009500  1
  H  H14  1  0.78145400  0.00084700  0.06009500  1
  H  H15  1  0.28145400  0.49915300  0.93990500  1
  H  H16  1  0.39542400  0.94344600  0.66662100  1
  H  H17  1  0.89542400  0.55655400  0.33337900  1
  H  H18  1  0.10457600  0.94344600  0.83337900  1
  H  H19  1  0.60457600  0.55655400  0.16662100  1
  H  H20  1  0.60457600  0.05655400  0.33337900  1
  H  H21  1  0.10457600  0.44344600  0.66662100  1
  H  H22  1  0.89542400  0.05655400  0.16662100  1
  H  H23  1  0.39542400  0.44344600  0.83337900  1
  H  H24  1  0.22898000  0.74654700  0.55916100  1
  H  H25  1  0.72898000  0.75345300  0.44083900  1
  H  H26  1  0.27102000  0.74654700  0.94083900  1
  H  H27  1  0.77102000  0.75345300  0.05916100  1
  H  H28  1  0.77102000  0.25345300  0.44083900  1
  H  H29  1  0.27102000  0.24654700  0.55916100  1
  H  H30  1  0.72898000  0.25345300  0.05916100  1
  H  H31  1  0.22898000  0.24654700  0.94083900  1
  H  H32  1  0.00644000  0.85556900  0.55748900  1
  H  H33  1  0.50644000  0.64443100  0.44251100  1
  H  H34  1  0.49356000  0.85556900  0.94251100  1
  H  H35  1  0.99356000  0.64443100  0.05748900  1
  H  H36  1  0.99356000  0.14443100  0.44251100  1
  H  H37  1  0.49356000  0.35556900  0.55748900  1
  H  H38  1  0.50644000  0.14443100  0.05748900  1
  H  H39  1  0.00644000  0.35556900  0.94251100  1
  H  H40  1  0.11658500  0.80211600  0.66551900  1
  H  H41  1  0.61658500  0.69788400  0.33448100  1
  H  H42  1  0.38341500  0.80211600  0.83448100  1
  H  H43  1  0.88341500  0.69788400  0.16551900  1
  H  H44  1  0.88341500  0.19788400  0.33448100  1
  H  H45  1  0.38341500  0.30211600  0.66551900  1
  H  H46  1  0.61658500  0.19788400  0.16551900  1
  H  H47  1  0.11658500  0.30211600  0.83448100  1
  N  N0  1  0.34755200  0.92022400  0.59539100  1
  N  N1  1  0.84755200  0.57977600  0.40460900  1
  N  N2  1  0.15244800  0.92022400  0.90460900  1
  N  N3  1  0.65244800  0.57977600  0.09539100  1
  N  N4  1  0.65244800  0.07977600  0.40460900  1
  N  N5  1  0.15244800  0.42022400  0.59539100  1
  N  N6  1  0.84755200  0.07977600  0.09539100  1
  N  N7  1  0.34755200  0.42022400  0.90460900  1
  N  N8  1  0.16566300  0.82577800  0.59468700  1
  N  N9  1  0.66566300  0.67422200  0.40531300  1
  N  N10  1  0.33433700  0.82577800  0.90531300  1
  N  N11  1  0.83433700  0.67422200  0.09468700  1
  N  N12  1  0.83433700  0.17422200  0.40531300  1
  N  N13  1  0.33433700  0.32577800  0.59468700  1
  N  N14  1  0.66566300  0.17422200  0.09468700  1
  N  N15  1  0.16566300  0.32577800  0.90531300  1
  F  F0  1  0.76833600  0.87794600  0.50021500  1
  F  F1  1  0.26833600  0.62205400  0.49978500  1
  F  F2  1  0.73166400  0.87794600  0.99978500  1
  F  F3  1  0.23166400  0.62205400  0.00021500  1
  F  F4  1  0.23166400  0.12205400  0.49978500  1
  F  F5  1  0.73166400  0.37794600  0.50021500  1
  F  F6  1  0.26833600  0.12205400  0.00021500  1
  F  F7  1  0.76833600  0.37794600  0.99978500  1
  F  F8  1  0.51040100  0.74630800  0.73088600  1
  F  F9  1  0.01040100  0.75369200  0.26911400  1
  F  F10  1  0.98959900  0.74630800  0.76911400  1
  F  F11  1  0.48959900  0.75369200  0.23088600  1
  F  F12  1  0.48959900  0.25369200  0.26911400  1
  F  F13  1  0.98959900  0.24630800  0.73088600  1
  F  F14  1  0.01040100  0.25369200  0.23088600  1
  F  F15  1  0.51040100  0.24630800  0.76911400  1
  F  F16  1  0.51141500  0.50255900  0.73061400  1
  F  F17  1  0.01141500  0.99744100  0.26938600  1
  F  F18  1  0.98858500  0.50255900  0.76938600  1
  F  F19  1  0.48858500  0.99744100  0.23061400  1
  F  F20  1  0.48858500  0.49744100  0.26938600  1
  F  F21  1  0.98858500  0.00255900  0.73061400  1
  F  F22  1  0.01141500  0.49744100  0.23061400  1
  F  F23  1  0.51141500  0.00255900  0.76938600  1
  F  F24  1  0.82265700  0.62560600  0.61698600  1
  F  F25  1  0.32265700  0.87439400  0.38301400  1
  F  F26  1  0.67734300  0.62560600  0.88301400  1
  F  F27  1  0.17734300  0.87439400  0.11698600  1
  F  F28  1  0.17734300  0.37439400  0.38301400  1
  F  F29  1  0.67734300  0.12560600  0.61698600  1
  F  F30  1  0.32265700  0.37439400  0.11698600  1
  F  F31  1  0.82265700  0.12560600  0.88301400  1
loop_
_geom_bond_atom_site_label_1
_geom_bond_atom_site_label_2
_geom_bond_distance
_geom_bond_site_symmetry_2
H0 N0 1.058349 1_555
H1 N1 1.058349 1_455
H2 N2 1.058349 1_655
H3 N3 1.058349 1_555
H4 N4 1.058349 1_555
H5 N5 1.058349 1_655
H6 N6 1.058349 1_455
H7 N7 1.058349 1_555
H8 N0 1.063162 1_555
H9 N1 1.063162 1_555
H10 N2 1.063162 1_555
H11 N3 1.063162 1_555
H12 N4 1.063162 1_555
H13 N5 1.063162 1_555
H14 N6 1.063162 1_555
H15 N7 1.063162 1_555
H16 N0 1.050571 1_555
H17 N1 1.050571 1_555
H18 N2 1.050571 1_555
H19 N3 1.050571 1_555
H20 N4 1.050571 1_555
H21 N5 1.050571 1_555
H22 N6 1.050571 1_555
H23 N7 1.050571 1_555
H24 N8 1.062204 1_555
H25 N9 1.062204 1_555
H26 N10 1.062204 1_555
H27 N11 1.062204 1_555
H28 N12 1.062204 1_555
H29 N13 1.062204 1_555
H30 N14 1.062204 1_555
H31 N15 1.062204 1_555
H32 N8 1.069889 1_555
H33 N9 1.069889 1_555
H34 N10 1.069889 1_555
H35 N11 1.069889 1_555
H36 N12 1.069889 1_555
H37 N13 1.069889 1_555
H38 N14 1.069889 1_555
H39 N15 1.069889 1_555
H40 N8 1.048326 1_555
H41 N9 1.048326 1_555
H42 N10 1.048326 1_555
H43 N11 1.048326 1_555
H44 N12 1.048326 1_555
H45 N13 1.048326 1_555
H46 N14 1.048326 1_555
H47 N15 1.048326 1_555
F0 H32 1.553816 1_655
F0 H25 1.615347 1_555
F0 H12 1.615860 1_565
F0 H0 1.664325 1_555
F1 H33 1.553816 1_555
F1 H24 1.615347 1_555
F1 H13 1.615860 1_555
F1 H1 1.664325 1_555
F2 H34 1.553816 1_555
F2 H27 1.615347 1_556
F2 H14 1.615860 1_566
F2 H2 1.664325 1_555
F3 H35 1.553816 1_455
F3 H26 1.615347 1_554
F3 H15 1.615860 1_554
F3 H3 1.664325 1_555
F4 H36 1.553816 1_455
F4 H29 1.615347 1_555
F4 H8 1.615860 1_545
F4 H4 1.664325 1_555
F5 H37 1.553816 1_555
F5 H28 1.615347 1_555
F5 H9 1.615860 1_555
F5 H5 1.664325 1_555
F6 H38 1.553816 1_555
F6 H31 1.615347 1_554
F6 H10 1.615860 1_544
F6 H6 1.664325 1_555
F7 H39 1.553816 1_655
F7 H30 1.615347 1_556
F7 H11 1.615860 1_556
F7 H7 1.664325 1_555
F8 Ti0 1.902726 1_555
F9 Ti1 1.902726 1_555
F10 Ti0 1.902726 1_555
F11 Ti1 1.902726 1_555
F12 Ti2 1.902726 1_555
F13 Ti3 1.902726 1_555
F14 Ti2 1.902726 1_555
F15 Ti3 1.902726 1_555
F16 Ti0 1.904248 1_555
F17 Ti1 1.904248 1_555
F18 Ti0 1.904248 1_555
F19 Ti1 1.904248 1_555
F20 Ti2 1.904248 1_555
F21 Ti3 1.904248 1_555
F22 Ti2 1.904248 1_555
F23 Ti3 1.904248 1_555
F24 Ti0 1.880675 1_555
F25 Ti1 1.880675 1_555
F26 Ti0 1.880675 1_555
F27 Ti1 1.880675 1_555
F28 Ti2 1.880675 1_555
F29 Ti3 1.880675 1_555
F30 Ti2 1.880675 1_555
F31 Ti3 1.880675 1_555
