# generated using pymatgen
data_Ba2MgTi2O6
_symmetry_space_group_name_H-M   'P 1'
_cell_length_a   6.65061561
_cell_length_b   5.98798240
_cell_length_c   6.66188078
_cell_angle_alpha   116.74687268
_cell_angle_beta   126.56416326
_cell_angle_gamma   89.97425767
_symmetry_Int_Tables_number   1
_chemical_formula_structural   Ba2MgTi2O6
_chemical_formula_sum   'Ba2 Mg1 Ti2 O6'
_cell_volume   176.54206113
_cell_formula_units_Z   1
loop_
 _symmetry_equiv_pos_site_id
 _symmetry_equiv_pos_as_xyz
  1  'x, y, z'
loop_
 _atom_site_type_symbol
 _atom_site_label
 _atom_site_symmetry_multiplicity
 _atom_site_fract_x
 _atom_site_fract_y
 _atom_site_fract_z
 _atom_site_occupancy
  Ba  Ba0  1  0.72422117  0.27643311  0.55338046  1
  Ba  Ba1  1  0.29213383  0.70708475  0.41380450  1
  Mg  Mg0  1  0.08388392  0.91640890  0.83335818  1
  Ti  Ti0  1  0.50144520  0.49883217  0.99786609  1
  Ti  Ti1  1  0.92222581  0.07737342  0.15414253  1
  O  O0  1  0.74663784  0.25602718  0.97932677  1
  O  O1  1  0.74344357  0.72419902  0.97705141  1
  O  O2  1  0.29196335  0.25183959  0.96289446  1
  O  O3  1  0.28890363  0.70811602  0.96154176  1
  O  O4  1  0.27522496  0.25390661  0.50948603  1
  O  O5  1  0.74896472  0.71073122  0.41905281  1
loop_
_geom_bond_atom_site_label_1
_geom_bond_atom_site_label_2
_geom_bond_distance
_geom_bond_site_symmetry_2
Ba0 O0 2.810194 1_555
Ba0 O1 2.816076 1_555
Ba0 O4 2.818688 1_555
Ba0 O3 3.113627 1_655
Ba0 O5 3.122326 1_545
Ba0 O2 3.125015 1_554
Ba0 O2 3.131996 1_655
Ba0 O3 3.136829 1_544
Ba0 O5 3.140283 1_555
Ba0 Ti1 3.398048 1_555
Ba1 O3 3.002968 1_554
Ba1 O2 3.013285 1_554
Ba1 O5 3.017484 1_555
Ba1 O0 3.048844 1_454
Ba1 O1 3.055266 1_555
Ba1 O4 3.057257 1_565
Ba1 O1 3.067619 1_454
Ba1 O4 3.070063 1_555
Ba1 O0 3.070735 1_565
Mg0 O2 1.927062 1_565
Mg0 O3 1.927148 1_555
Mg0 O5 1.927210 1_455
O0 Ti1 1.834211 1_556
O0 Ti0 2.205547 1_555
O1 Ti1 1.833909 1_566
O1 Ti0 2.206113 1_555
O2 Ti0 1.867519 1_555
O3 Ti0 1.868405 1_555
O4 Ti1 1.833357 1_455
O4 Ti0 2.207914 1_555
O5 Ti0 1.867333 1_554
