# generated using pymatgen
data_La2MgZnSbO6
_symmetry_space_group_name_H-M   'P 1'
_cell_length_a   7.25609243
_cell_length_b   7.25576668
_cell_length_c   7.25533284
_cell_angle_alpha   48.79915534
_cell_angle_beta   48.80575850
_cell_angle_gamma   48.80574940
_symmetry_Int_Tables_number   1
_chemical_formula_structural   La2MgZnSbO6
_chemical_formula_sum   'La2 Mg1 Zn1 Sb1 O6'
_cell_volume   198.49168511
_cell_formula_units_Z   1
loop_
 _symmetry_equiv_pos_site_id
 _symmetry_equiv_pos_as_xyz
  1  'x, y, z'
loop_
 _atom_site_type_symbol
 _atom_site_label
 _atom_site_symmetry_multiplicity
 _atom_site_fract_x
 _atom_site_fract_y
 _atom_site_fract_z
 _atom_site_occupancy
  La  La0  1  0.83123837  0.83018001  0.83119229  1
  La  La1  1  0.22488575  0.22390250  0.22498944  1
  Mg  Mg0  1  0.57938487  0.57818899  0.57947838  1
  Zn  Zn0  1  0.40764773  0.40674973  0.40760342  1
  Sb  Sb0  1  0.04527461  0.04439180  0.04521295  1
  O  O0  1  0.36848431  0.80882876  0.14161414  1
  O  O1  1  0.80976268  0.14078969  0.36842066  1
  O  O2  1  0.14163034  0.36748077  0.80976272  1
  O  O3  1  0.61896718  0.23328689  0.86356183  1
  O  O4  1  0.86368554  0.61804078  0.23412408  1
  O  O5  1  0.23403862  0.86274309  0.61904009  1
loop_
_geom_bond_atom_site_label_1
_geom_bond_atom_site_label_2
_geom_bond_distance
_geom_bond_site_symmetry_2
La0 O5 2.339259 1_655
La0 O4 2.339271 1_556
La0 O3 2.340213 1_565
La0 O2 2.575701 1_655
La0 O1 2.575764 1_565
La0 O0 2.575902 1_556
La1 O5 2.279497 1_545
La1 O4 2.280317 1_455
La1 O3 2.280754 1_554
La1 O1 2.820777 1_455
La1 O0 2.821007 1_545
La1 O2 2.821301 1_554
Mg0 O3 1.905568 1_555
Mg0 O4 1.907904 1_555
Mg0 O5 1.908621 1_555
O0 Sb0 2.053387 1_565
O0 Zn0 2.128251 1_555
O1 Sb0 2.053347 1_655
O1 Zn0 2.128743 1_555
O2 Sb0 2.052459 1_556
O2 Zn0 2.128634 1_555
