# generated using pymatgen
data_NaAlGaP(SO6)2
_symmetry_space_group_name_H-M   'P 1'
_cell_length_a   8.38807452
_cell_length_b   8.38970186
_cell_length_c   21.95630836
_cell_angle_alpha   90.02215429
_cell_angle_beta   89.95622022
_cell_angle_gamma   119.93511505
_symmetry_Int_Tables_number   1
_chemical_formula_structural   NaAlGaP(SO6)2
_chemical_formula_sum   'Na6 Al6 Ga6 P6 S12 O72'
_cell_volume   1339.00504950
_cell_formula_units_Z   6
loop_
 _symmetry_equiv_pos_site_id
 _symmetry_equiv_pos_as_xyz
  1  'x, y, z'
loop_
 _atom_site_type_symbol
 _atom_site_label
 _atom_site_symmetry_multiplicity
 _atom_site_fract_x
 _atom_site_fract_y
 _atom_site_fract_z
 _atom_site_occupancy
  Na  Na0  1  0.99085169  0.99409257  0.49969575  1
  Na  Na1  1  0.00356665  0.99372632  0.99989549  1
  Na  Na2  1  0.66294487  0.32417077  0.83357337  1
  Na  Na3  1  0.66068113  0.32404299  0.33287693  1
  Na  Na4  1  0.32682347  0.66962265  0.16660669  1
  Na  Na5  1  0.34287691  0.66977225  0.66697393  1
  Al  Al0  1  0.00037325  0.00209055  0.85238523  1
  Al  Al1  1  0.00533076  0.98908419  0.14697908  1
  Al  Al2  1  0.66672536  0.33212268  0.18565902  1
  Al  Al3  1  0.66587756  0.33372299  0.98082625  1
  Al  Al4  1  0.33860378  0.68321662  0.31345058  1
  Al  Al5  1  0.34392093  0.68277113  0.81489161  1
  Ga  Ga0  1  0.00175945  0.00169655  0.35074040  1
  Ga  Ga1  1  0.98354607  0.98863034  0.64848859  1
  Ga  Ga2  1  0.66565699  0.33127978  0.68616584  1
  Ga  Ga3  1  0.66715775  0.33276089  0.48059640  1
  Ga  Ga4  1  0.32006986  0.67287431  0.01871943  1
  Ga  Ga5  1  0.35106704  0.67235428  0.51834697  1
  P  P0  1  0.29182771  0.00252459  0.24926111  1
  P  P1  1  0.71034195  0.99968623  0.75198742  1
  P  P2  1  0.66682729  0.61908854  0.58348020  1
  P  P3  1  0.94727799  0.61654064  0.08374858  1
  P  P4  1  0.33339502  0.96201753  0.91588006  1
  P  P5  1  0.62591444  0.95876778  0.41543029  1
  S  S0  1  0.70843563  0.70826093  0.24891902  1
  S  S1  1  0.00119207  0.29098639  0.24851953  1
  S  S2  1  0.28646566  0.29102764  0.75130217  1
  S  S3  1  0.00319015  0.71149328  0.75180916  1
  S  S4  1  0.96086263  0.33563883  0.58305489  1
  S  S5  1  0.37258867  0.04145452  0.58382901  1
  S  S6  1  0.67114949  0.04741132  0.08412540  1
  S  S7  1  0.37840536  0.33309493  0.08357227  1
  S  S8  1  0.62202164  0.66654851  0.91661893  1
  S  S9  1  0.04459034  0.37712194  0.91540850  1
  S  S10  1  0.33234131  0.38015294  0.41486680  1
  S  S11  1  0.04744576  0.66649709  0.41624897  1
  O  O0  1  0.21285930  0.04084380  0.30733968  1
  O  O1  1  0.81965036  0.78235078  0.30467438  1
  O  O2  1  0.96134904  0.17917174  0.30449447  1
  O  O3  1  0.20333301  0.17401384  0.80527494  1
  O  O4  1  0.97186292  0.79700462  0.80549242  1
  O  O5  1  0.83295156  0.03166501  0.80757824  1
  O  O6  1  0.78586112  0.96224659  0.69321933  1
  O  O7  1  0.17910859  0.21433950  0.69487329  1
  O  O8  1  0.04247961  0.82222349  0.69559710  1
  O  O9  1  0.79010817  0.82704574  0.19505416  1
  O  O10  1  0.03125179  0.20533905  0.19437839  1
  O  O11  1  0.16895801  0.96731991  0.19338979  1
  O  O12  1  0.88232305  0.36748881  0.63866251  1
  O  O13  1  0.48686184  0.11743237  0.63876387  1
  O  O14  1  0.63286029  0.50352153  0.64134805  1
  O  O15  1  0.86031025  0.49878747  0.14060029  1
  O  O16  1  0.63544696  0.12764039  0.13862086  1
  O  O17  1  0.49057791  0.36261301  0.13850885  1
  O  O18  1  0.45743758  0.29812624  0.02837831  1
  O  O19  1  0.83212135  0.53050249  0.02593201  1
  O  O20  1  0.70018727  0.15763250  0.02847636  1
  O  O21  1  0.45067550  0.15178582  0.52810959  1
  O  O22  1  0.70079070  0.53760091  0.52540744  1
  O  O23  1  0.84640173  0.29731118  0.52800072  1
  O  O24  1  0.54501703  0.70076894  0.97228895  1
  O  O25  1  0.15685779  0.44900893  0.97131073  1
  O  O26  1  0.29205585  0.84420777  0.97375433  1
  O  O27  1  0.54928967  0.84549311  0.47386837  1
  O  O28  1  0.29656397  0.45304228  0.47137991  1
  O  O29  1  0.15513471  0.69612384  0.47233779  1
  O  O30  1  0.13008764  0.63525355  0.36135234  1
  O  O31  1  0.50503897  0.86983005  0.35944821  1
  O  O32  1  0.35916128  0.49362000  0.36046098  1
  O  O33  1  0.12956546  0.49312509  0.86132843  1
  O  O34  1  0.36869114  0.87301110  0.86034705  1
  O  O35  1  0.50550533  0.63111643  0.86211183  1
  O  O36  1  0.02862096  0.83215933  0.41047351  1
  O  O37  1  0.81817502  0.97843827  0.40812816  1
  O  O38  1  0.16869223  0.19452387  0.41008467  1
  O  O39  1  0.02216664  0.19154772  0.90794018  1
  O  O40  1  0.16184861  0.98191989  0.90581028  1
  O  O41  1  0.80641379  0.83107062  0.90825908  1
  O  O42  1  0.98284655  0.17179185  0.58913030  1
  O  O43  1  0.19118576  0.02801336  0.59092446  1
  O  O44  1  0.84050434  0.81131113  0.58833737  1
  O  O45  1  0.96826479  0.81012688  0.09084550  1
  O  O46  1  0.83841919  0.03206629  0.09217854  1
  O  O47  1  0.19240626  0.16892043  0.09088303  1
  O  O48  1  0.69119728  0.17330086  0.74474470  1
  O  O49  1  0.47128860  0.30944990  0.74626067  1
  O  O50  1  0.83572228  0.52924313  0.74600706  1
  O  O51  1  0.68963112  0.52461937  0.24074392  1
  O  O52  1  0.83701685  0.31246771  0.24105461  1
  O  O53  1  0.48452082  0.17255022  0.23958812  1
  O  O54  1  0.64150187  0.50102706  0.92340067  1
  O  O55  1  0.86116344  0.36064551  0.92312343  1
  O  O56  1  0.50720467  0.15247617  0.92589779  1
  O  O57  1  0.64210547  0.15009426  0.42250702  1
  O  O58  1  0.50016646  0.36478451  0.42010112  1
  O  O59  1  0.86278903  0.50065456  0.42051871  1
  O  O60  1  0.36281726  0.50019181  0.07673845  1
  O  O61  1  0.14143675  0.63647978  0.07888229  1
  O  O62  1  0.50755015  0.86105340  0.07817728  1
  O  O63  1  0.35038734  0.85583501  0.57764090  1
  O  O64  1  0.49317869  0.63793076  0.57867686  1
  O  O65  1  0.14197995  0.50300966  0.57607723  1
  O  O66  1  0.30791665  0.82767247  0.25725457  1
  O  O67  1  0.52319894  0.68734425  0.25662992  1
  O  O68  1  0.16805486  0.47350812  0.25699228  1
  O  O69  1  0.30430255  0.47449385  0.75985582  1
  O  O70  1  0.16545803  0.68754484  0.75956288  1
  O  O71  1  0.51902339  0.82677978  0.75947076  1
loop_
_geom_bond_atom_site_label_1
_geom_bond_atom_site_label_2
_geom_bond_distance
_geom_bond_site_symmetry_2
Na0 O44 2.407967 1_555
Na0 O37 2.443692 1_555
Na0 O42 2.486061 1_565
Na0 O36 2.492046 1_655
Na0 O38 2.533504 1_665
Na0 O43 2.538583 1_665
Na1 O45 2.448328 1_456
Na1 O40 2.483310 1_555
Na1 O47 2.517813 1_566
Na1 O41 2.529000 1_455
Na1 O46 2.562776 1_466
Na1 O39 2.568825 1_565
Na2 O48 2.399774 1_555
Na2 O56 2.451694 1_555
Na2 O49 2.466014 1_555
Na2 O55 2.494143 1_555
Na2 O50 2.503345 1_555
Na2 O54 2.527321 1_555
Na3 O57 2.408668 1_555
Na3 O58 2.460123 1_555
Na3 O53 2.474370 1_555
Na3 O59 2.503631 1_555
Na3 O52 2.529910 1_555
Na3 O51 2.564543 1_555
Na4 O61 2.403738 1_555
Na4 O66 2.439677 1_555
Na4 O62 2.493038 1_555
Na4 O68 2.496137 1_555
Na4 O67 2.530335 1_555
Na4 O60 2.535825 1_555
Na5 O64 2.398188 1_555
Na5 O71 2.470386 1_555
Na5 O63 2.488360 1_555
Na5 O69 2.533820 1_555
Na5 O65 2.535770 1_555
Na5 O70 2.566382 1_555
Al0 O5 1.830756 1_455
Al0 O40 1.862936 1_545
Al0 O3 1.896419 1_555
Al0 O4 1.914703 1_445
Al0 O39 1.938197 1_555
Al0 O41 1.969558 1_445
Al1 O11 1.791069 1_555
Al1 O45 1.844764 1_455
Al1 O9 1.941703 1_455
Al1 O47 1.972649 1_565
Al1 O10 2.006807 1_565
Al1 O46 2.011156 1_465
Al2 O15 1.817474 1_555
Al2 O53 1.867235 1_555
Al2 O16 1.904837 1_555
Al2 O17 1.923550 1_555
Al2 O52 1.945458 1_555
Al2 O51 1.948605 1_555
Al3 O19 1.831418 1_556
Al3 O56 1.875990 1_555
Al3 O18 1.926791 1_556
Al3 O20 1.945751 1_556
Al3 O54 1.972291 1_555
Al3 O55 1.991788 1_555
Al4 O31 1.799911 1_555
Al4 O66 1.835880 1_555
Al4 O30 1.903247 1_555
Al4 O67 1.974522 1_555
Al4 O32 1.974996 1_555
Al4 O68 2.041488 1_555
Al5 O34 1.804094 1_555
Al5 O71 1.823469 1_555
Al5 O35 1.920548 1_555
Al5 O70 1.944459 1_555
Al5 O33 1.986766 1_555
Al5 O69 2.010822 1_555
Ga0 O0 1.889079 1_555
Ga0 O37 1.922087 1_445
Ga0 O2 1.966810 1_455
Ga0 O1 1.984512 1_445
Ga0 O38 2.003982 1_555
Ga0 O36 2.028725 1_545
Ga1 O6 1.842425 1_555
Ga1 O44 1.901694 1_555
Ga1 O8 1.988468 1_655
Ga1 O42 2.017551 1_565
Ga1 O43 2.040276 1_665
Ga1 O7 2.052998 1_665
Ga2 O14 1.878952 1_555
Ga2 O48 1.934411 1_555
Ga2 O13 1.966418 1_555
Ga2 O12 1.982283 1_555
Ga2 O49 2.032618 1_555
Ga2 O50 2.038699 1_555
Ga3 O22 1.875169 1_555
Ga3 O57 1.922752 1_555
Ga3 O23 1.970085 1_555
Ga3 O21 1.984351 1_555
Ga3 O59 2.026842 1_555
Ga3 O58 2.043823 1_555
Ga4 O26 1.853295 1_554
Ga4 O61 1.903677 1_555
Ga4 O25 1.979826 1_554
Ga4 O62 2.047800 1_555
Ga4 O24 2.052036 1_554
Ga4 O60 2.090652 1_555
Ga5 O27 1.848363 1_555
Ga5 O64 1.898762 1_555
Ga5 O28 1.953870 1_555
Ga5 O63 2.017847 1_555
Ga5 O29 2.022653 1_555
Ga5 O65 2.052380 1_555
O0 P0 1.542451 1_555
O1 S0 1.475698 1_555
O2 S1 1.479703 1_655
O3 S2 1.473347 1_555
O4 S3 1.469713 1_655
O5 P1 1.531593 1_545
O6 P1 1.536851 1_555
O7 S2 1.477421 1_555
O8 S3 1.479736 1_555
O9 S0 1.476307 1_555
O10 S1 1.474010 1_555
O11 P0 1.533675 1_565
O12 S4 1.473199 1_555
O13 S5 1.473538 1_555
O14 P2 1.536319 1_555
O15 P3 1.531852 1_555
O16 S6 1.474590 1_555
O17 S7 1.473268 1_555
O18 S7 1.478763 1_555
O19 P3 1.539755 1_555
O20 S6 1.477490 1_555
O21 S5 1.475493 1_555
O22 P2 1.538665 1_555
O23 S4 1.476387 1_555
O24 S8 1.475560 1_555
O25 S9 1.480350 1_555
O26 P4 1.539508 1_555
O27 P5 1.533827 1_555
O28 S10 1.478396 1_555
O29 S11 1.473675 1_555
O30 S11 1.477121 1_555
O31 P5 1.530277 1_555
O32 S10 1.473265 1_555
O33 S9 1.473910 1_555
O34 P4 1.533414 1_555
O35 S8 1.478985 1_555
O36 S11 1.480512 1_555
O37 P5 1.545229 1_555
O38 S10 1.478926 1_555
O39 S9 1.481157 1_555
O40 P4 1.545197 1_555
O41 S8 1.483315 1_555
O42 S4 1.481407 1_555
O43 S5 1.476725 1_555
O44 P2 1.545890 1_555
O45 P3 1.551634 1_555
O46 S6 1.482268 1_555
O47 S7 1.487324 1_555
O48 P1 1.551243 1_545
O49 S2 1.483310 1_555
O50 S3 1.477798 1_655
O51 S0 1.479235 1_555
O52 S1 1.484538 1_655
O53 P0 1.546291 1_555
O54 S8 1.484573 1_555
O55 S9 1.484062 1_655
O56 P4 1.549958 1_545
O57 P5 1.549655 1_545
O58 S10 1.480860 1_555
O59 S11 1.480820 1_655
O60 S7 1.479206 1_555
O61 P3 1.555519 1_455
O62 S6 1.484415 1_565
O63 S5 1.479437 1_565
O64 P2 1.545245 1_555
O65 S4 1.474444 1_455
O66 P0 1.548806 1_565
O67 S0 1.483637 1_555
O68 S1 1.483112 1_555
O69 S2 1.482178 1_555
O70 S3 1.481656 1_555
O71 P1 1.543723 1_555
