# generated using pymatgen
data_MnH8SO8
_symmetry_space_group_name_H-M   'P 1'
_cell_length_a   13.85004100
_cell_length_b   6.09100400
_cell_length_c   8.04833936
_cell_angle_alpha   89.76213362
_cell_angle_beta   90.00000000
_cell_angle_gamma   90.00000000
_symmetry_Int_Tables_number   1
_chemical_formula_structural   MnH8SO8
_chemical_formula_sum   'Mn4 H32 S4 O32'
_cell_volume   678.95732987
_cell_formula_units_Z   4
loop_
 _symmetry_equiv_pos_site_id
 _symmetry_equiv_pos_as_xyz
  1  'x, y, z'
loop_
 _atom_site_type_symbol
 _atom_site_label
 _atom_site_symmetry_multiplicity
 _atom_site_fract_x
 _atom_site_fract_y
 _atom_site_fract_z
 _atom_site_occupancy
  Mn  Mn0  1  0.39790800  0.42892500  0.71611000  1
  Mn  Mn1  1  0.89790800  0.07107500  0.78389000  1
  Mn  Mn2  1  0.60209200  0.57107500  0.28389000  1
  Mn  Mn3  1  0.10209200  0.92892500  0.21611000  1
  H  H0  1  0.19133600  0.41524500  0.72274700  1
  H  H1  1  0.69133600  0.08475500  0.77725300  1
  H  H2  1  0.80866400  0.58475500  0.27725300  1
  H  H3  1  0.30866400  0.91524500  0.22274700  1
  H  H4  1  0.23243800  0.18250100  0.78171700  1
  H  H5  1  0.73243800  0.31749900  0.71828300  1
  H  H6  1  0.76756200  0.81749900  0.21828300  1
  H  H7  1  0.26756200  0.68250100  0.28171700  1
  H  H8  1  0.39811100  0.57944300  0.05370300  1
  H  H9  1  0.89811100  0.92055700  0.44629700  1
  H  H10  1  0.60188900  0.42055700  0.94629700  1
  H  H11  1  0.10188900  0.07944300  0.55370300  1
  H  H12  1  0.31369800  0.70221500  0.95433100  1
  H  H13  1  0.81369800  0.79778500  0.54566900  1
  H  H14  1  0.68630200  0.29778500  0.04566900  1
  H  H15  1  0.18630200  0.20221500  0.45433100  1
  H  H16  1  0.40313500  0.84155500  0.55116800  1
  H  H17  1  0.90313500  0.65844500  0.94883200  1
  H  H18  1  0.59686500  0.15844500  0.44883200  1
  H  H19  1  0.09686500  0.34155500  0.05116800  1
  H  H20  1  0.30586800  0.81362600  0.65268600  1
  H  H21  1  0.80586800  0.68637400  0.84731400  1
  H  H22  1  0.69413200  0.18637400  0.34731400  1
  H  H23  1  0.19413200  0.31362600  0.15268600  1
  H  H24  1  0.48417400  0.03941700  0.83007000  1
  H  H25  1  0.98417400  0.46058300  0.66993000  1
  H  H26  1  0.51582600  0.96058300  0.16993000  1
  H  H27  1  0.01582600  0.53941700  0.33007000  1
  H  H28  1  0.41609000  0.12443500  0.97649800  1
  H  H29  1  0.91609000  0.37556500  0.52350200  1
  H  H30  1  0.58391000  0.87556500  0.02350200  1
  H  H31  1  0.08391000  0.62443500  0.47649800  1
  S  S0  1  0.38995800  0.30056200  0.31437000  1
  S  S1  1  0.88995800  0.19943800  0.18563000  1
  S  S2  1  0.61004200  0.69943800  0.68563000  1
  S  S3  1  0.11004200  0.80056200  0.81437000  1
  O  O0  1  0.24748800  0.31429200  0.71537500  1
  O  O1  1  0.74748800  0.18570800  0.78462500  1
  O  O2  1  0.75251200  0.68570800  0.28462500  1
  O  O3  1  0.25251200  0.81429200  0.21537500  1
  O  O4  1  0.37355200  0.61760900  0.94172000  1
  O  O5  1  0.87355200  0.88239100  0.55828000  1
  O  O6  1  0.62644800  0.38239100  0.05828000  1
  O  O7  1  0.12644800  0.11760900  0.44172000  1
  O  O8  1  0.35356800  0.73526500  0.58328100  1
  O  O9  1  0.85356800  0.76473500  0.91671900  1
  O  O10  1  0.64643200  0.26473500  0.41671900  1
  O  O11  1  0.14643200  0.23526500  0.08328100  1
  O  O12  1  0.42676600  0.13028500  0.85520600  1
  O  O13  1  0.92676600  0.36971500  0.64479400  1
  O  O14  1  0.57323400  0.86971500  0.14479400  1
  O  O15  1  0.07323400  0.63028500  0.35520600  1
  O  O16  1  0.28640600  0.36277500  0.31495900  1
  O  O17  1  0.78640600  0.13722500  0.18504100  1
  O  O18  1  0.71359400  0.63722500  0.68504100  1
  O  O19  1  0.21359400  0.86277500  0.81495900  1
  O  O20  1  0.40421500  0.10266200  0.20537600  1
  O  O21  1  0.90421500  0.39733800  0.29462400  1
  O  O22  1  0.59578500  0.89733800  0.79462400  1
  O  O23  1  0.09578500  0.60266200  0.70537600  1
  O  O24  1  0.42493700  0.24528000  0.48505000  1
  O  O25  1  0.92493700  0.25472000  0.01495000  1
  O  O26  1  0.57506300  0.75472000  0.51495000  1
  O  O27  1  0.07506300  0.74528000  0.98505000  1
  O  O28  1  0.44790000  0.48884800  0.24626600  1
  O  O29  1  0.94790000  0.01115200  0.25373400  1
  O  O30  1  0.55210000  0.51115200  0.75373400  1
  O  O31  1  0.05210000  0.98884800  0.74626600  1
loop_
_geom_bond_atom_site_label_1
_geom_bond_atom_site_label_2
_geom_bond_distance
_geom_bond_site_symmetry_2
Mn0 O12 2.169084 1_555
Mn0 O4 2.179227 1_555
Mn0 O0 2.197232 1_555
Mn0 O24 2.206113 1_555
Mn0 O30 2.214597 1_555
Mn0 O8 2.232732 1_555
Mn1 O13 2.169084 1_555
Mn1 O5 2.179227 1_545
Mn1 O1 2.197232 1_555
Mn1 O25 2.206113 1_556
Mn1 O31 2.214597 1_645
Mn1 O9 2.232732 1_545
Mn2 O14 2.169084 1_555
Mn2 O6 2.179227 1_555
Mn2 O2 2.197232 1_555
Mn2 O26 2.206113 1_555
Mn2 O28 2.214597 1_555
Mn2 O10 2.232732 1_555
Mn3 O15 2.169084 1_555
Mn3 O7 2.179227 1_565
Mn3 O3 2.197232 1_555
Mn3 O27 2.206113 1_554
Mn3 O29 2.214597 1_465
Mn3 O11 2.232732 1_565
H0 O0 0.993358 1_555
H1 O1 0.993358 1_555
H2 O2 0.993358 1_555
H3 O3 0.993358 1_555
H4 O0 0.984569 1_555
H5 O1 0.984569 1_555
H6 O2 0.984569 1_555
H7 O3 0.984569 1_555
H8 O4 0.990101 1_554
H9 O5 0.990101 1_555
H10 O6 0.990101 1_556
H11 O7 0.990101 1_555
H12 O4 0.981588 1_555
H13 O5 0.981588 1_555
H14 O6 0.981588 1_555
H15 O7 0.981588 1_555
H16 O8 0.977672 1_555
H17 O9 0.977672 1_555
H18 O10 0.977672 1_555
H19 O11 0.977672 1_555
H20 O8 0.989196 1_555
H21 O9 0.989196 1_555
H22 O10 0.989196 1_555
H23 O11 0.989196 1_555
H24 O12 0.990143 1_555
H25 O13 0.990143 1_555
H26 O14 0.990143 1_555
H27 O15 0.990143 1_555
H28 O12 0.987831 1_555
H29 O13 0.987831 1_555
H30 O14 0.987831 1_555
H31 O15 0.987831 1_555
O16 S0 1.483429 1_555
O17 S1 1.483429 1_555
O18 S2 1.483429 1_555
O19 S3 1.483429 1_555
O20 S0 1.506751 1_555
O21 S1 1.506751 1_555
O22 S2 1.506751 1_555
O23 S3 1.506751 1_555
O24 S0 1.493743 1_555
O25 S1 1.493743 1_555
O26 S2 1.493743 1_555
O27 S3 1.493743 1_555
O28 S0 1.501497 1_555
O29 S1 1.501497 1_555
O30 S2 1.501497 1_555
O31 S3 1.501497 1_555
