# generated using pymatgen
data_CeAgAs2
_symmetry_space_group_name_H-M   'P 1'
_cell_length_a   4.06892646
_cell_length_b   4.06892646
_cell_length_c   10.41123116
_cell_angle_alpha   90.00000000
_cell_angle_beta   90.00000000
_cell_angle_gamma   90.00000000
_symmetry_Int_Tables_number   1
_chemical_formula_structural   CeAgAs2
_chemical_formula_sum   'Ce2 Ag2 As4'
_cell_volume   172.37003529
_cell_formula_units_Z   2
loop_
 _symmetry_equiv_pos_site_id
 _symmetry_equiv_pos_as_xyz
  1  'x, y, z'
loop_
 _atom_site_type_symbol
 _atom_site_label
 _atom_site_symmetry_multiplicity
 _atom_site_fract_x
 _atom_site_fract_y
 _atom_site_fract_z
 _atom_site_occupancy
  Ce  Ce0  1  0.50000000  0.00000000  0.77613366  1
  Ce  Ce1  1  -0.00000000  0.50000000  0.22386634  1
  Ag  Ag0  1  0.50000000  0.50000000  0.50000000  1
  Ag  Ag1  1  0.00000000  -0.00000000  0.50000000  1
  As  As0  1  0.50000000  -0.00000000  0.31914264  1
  As  As1  1  0.00000000  0.50000000  0.68085736  1
  As  As2  1  0.50000000  0.50000000  -0.00000000  1
  As  As3  1  0.00000000  -0.00000000  -0.00000000  1
loop_
_geom_bond_atom_site_label_1
_geom_bond_atom_site_label_2
_geom_bond_distance
_geom_bond_site_symmetry_2
Ag0 As0 2.772099 1_555
Ag0 As1 2.772099 1_555
Ag0 As1 2.772099 1_655
Ag0 As0 2.772099 1_565
Ag0 Ag1 2.877165 1_655
Ag0 Ag1 2.877165 1_565
Ag0 Ag1 2.877165 1_665
Ag0 Ag1 2.877165 1_555
Ag0 Ce1 3.521937 1_555
Ag0 Ce1 3.521937 1_655
Ag0 Ce0 3.521937 1_565
Ag0 Ce0 3.521937 1_555
Ag1 As0 2.772099 1_555
Ag1 As1 2.772099 1_545
Ag1 As1 2.772099 1_555
Ag1 As0 2.772099 1_455
Ag1 Ce1 3.521937 1_555
Ag1 Ce1 3.521937 1_545
Ag1 Ce0 3.521937 1_455
Ag1 Ce0 3.521937 1_555
As0 Ce1 3.043359 1_655
As0 Ce1 3.043359 1_645
As0 Ce1 3.043359 1_555
As0 Ce1 3.043359 1_545
As1 Ce0 3.043359 1_455
As1 Ce0 3.043359 1_565
As1 Ce0 3.043359 1_465
As1 Ce0 3.043359 1_555
As2 As3 2.877165 1_555
As2 As3 2.877165 1_565
As2 As3 2.877165 1_655
As2 As3 2.877165 1_665
As2 Ce0 3.093754 1_564
As2 Ce0 3.093754 1_554
As2 Ce1 3.093754 1_555
As2 Ce1 3.093754 1_655
As3 Ce0 3.093754 1_554
As3 Ce0 3.093754 1_454
As3 Ce1 3.093754 1_545
As3 Ce1 3.093754 1_555
