# generated using pymatgen
data_DyCuSn
_symmetry_space_group_name_H-M   'P 1'
_cell_length_a   4.50265206
_cell_length_b   4.50265206
_cell_length_c   7.27342957
_cell_angle_alpha   90.00000000
_cell_angle_beta   90.00000000
_cell_angle_gamma   119.99999112
_symmetry_Int_Tables_number   1
_chemical_formula_structural   DyCuSn
_chemical_formula_sum   'Dy2 Cu2 Sn2'
_cell_volume   127.70464211
_cell_formula_units_Z   2
loop_
 _symmetry_equiv_pos_site_id
 _symmetry_equiv_pos_as_xyz
  1  'x, y, z'
loop_
 _atom_site_type_symbol
 _atom_site_label
 _atom_site_symmetry_multiplicity
 _atom_site_fract_x
 _atom_site_fract_y
 _atom_site_fract_z
 _atom_site_occupancy
  Dy  Dy0  1  -0.00000000  0.00000000  0.49524516  1
  Dy  Dy1  1  -0.00000000  0.00000000  0.99524516  1
  Cu  Cu0  1  0.66666700  0.33333300  0.82149113  1
  Cu  Cu1  1  0.33333300  0.66666700  0.32149113  1
  Sn  Sn0  1  0.33333300  0.66666700  0.72586572  1
  Sn  Sn1  1  0.66666700  0.33333300  0.22586572  1
loop_
_geom_bond_atom_site_label_1
_geom_bond_atom_site_label_2
_geom_bond_distance
_geom_bond_site_symmetry_2
Dy0 Sn0 3.093804 1_545
Dy0 Sn0 3.093808 1_445
Dy0 Sn0 3.093808 1_555
Dy0 Sn1 3.255280 1_455
Dy0 Sn1 3.255284 1_445
Dy0 Sn1 3.255284 1_555
Dy1 Sn1 3.093804 1_456
Dy1 Sn1 3.093808 1_556
Dy1 Sn1 3.093808 1_446
Dy1 Sn0 3.255280 1_545
Dy1 Sn0 3.255284 1_445
Dy1 Sn0 3.255284 1_555
Cu0 Sn0 2.691041 1_545
Cu0 Sn0 2.691041 1_655
Cu0 Sn0 2.691048 1_555
Cu0 Dy1 2.890520 1_655
Cu0 Dy1 2.890523 1_665
Cu0 Dy1 2.890523 1_555
Cu0 Sn1 2.941190 1_556
Cu0 Dy0 3.519762 1_655
Cu0 Dy0 3.519766 1_665
Cu0 Dy0 3.519766 1_555
Cu1 Sn1 2.691041 1_455
Cu1 Sn1 2.691041 1_565
Cu1 Sn1 2.691048 1_555
Cu1 Dy0 2.890520 1_565
Cu1 Dy0 2.890523 1_665
Cu1 Dy0 2.890523 1_555
Cu1 Sn0 2.941190 1_555
Cu1 Dy1 3.519762 1_564
Cu1 Dy1 3.519766 1_664
Cu1 Dy1 3.519766 1_554
