# generated using pymatgen
data_Ba2GdCl7
_symmetry_space_group_name_H-M   'P 1'
_cell_length_a   15.67142088
_cell_length_b   6.89401737
_cell_length_c   10.63303303
_cell_angle_alpha   89.33802973
_cell_angle_beta   90.00000000
_cell_angle_gamma   90.00000000
_symmetry_Int_Tables_number   1
_chemical_formula_structural   Ba2GdCl7
_chemical_formula_sum   'Ba8 Gd4 Cl28'
_cell_volume   1148.70609050
_cell_formula_units_Z   4
loop_
 _symmetry_equiv_pos_site_id
 _symmetry_equiv_pos_as_xyz
  1  'x, y, z'
loop_
 _atom_site_type_symbol
 _atom_site_label
 _atom_site_symmetry_multiplicity
 _atom_site_fract_x
 _atom_site_fract_y
 _atom_site_fract_z
 _atom_site_occupancy
  Ba  Ba0  1  0.06068762  0.26574844  0.82413405  1
  Ba  Ba1  1  0.56068762  0.73425156  0.67586595  1
  Ba  Ba2  1  0.93931238  0.73425156  0.17586595  1
  Ba  Ba3  1  0.43931238  0.26574844  0.32413405  1
  Ba  Ba4  1  0.27943844  0.73415190  0.04953361  1
  Ba  Ba5  1  0.77943844  0.26584810  0.45046639  1
  Ba  Ba6  1  0.72056156  0.26584810  0.95046639  1
  Ba  Ba7  1  0.22056156  0.73415190  0.54953361  1
  Gd  Gd0  1  0.12752782  0.21782538  0.28242601  1
  Gd  Gd1  1  0.62752782  0.78217462  0.21757399  1
  Gd  Gd2  1  0.87247218  0.78217462  0.71757399  1
  Gd  Gd3  1  0.37247218  0.21782538  0.78242601  1
  Cl  Cl0  1  0.14113948  0.29034706  0.53167199  1
  Cl  Cl1  1  0.64113948  0.70965294  0.96832801  1
  Cl  Cl2  1  0.85886052  0.70965294  0.46832801  1
  Cl  Cl3  1  0.35886052  0.29034706  0.03167199  1
  Cl  Cl4  1  0.07072252  0.86817819  0.37678090  1
  Cl  Cl5  1  0.57072252  0.13182181  0.12321910  1
  Cl  Cl6  1  0.92927748  0.13182181  0.62321910  1
  Cl  Cl7  1  0.42927748  0.86817819  0.87678090  1
  Cl  Cl8  1  0.95913869  0.29958384  0.28996648  1
  Cl  Cl9  1  0.45913869  0.70041616  0.21003352  1
  Cl  Cl10  1  0.04086131  0.70041616  0.71003352  1
  Cl  Cl11  1  0.54086131  0.29958384  0.78996648  1
  Cl  Cl12  1  0.39614193  0.99806676  0.57032517  1
  Cl  Cl13  1  0.89614193  0.00193324  0.92967483  1
  Cl  Cl14  1  0.60385807  0.00193324  0.42967483  1
  Cl  Cl15  1  0.10385807  0.99806676  0.07032517  1
  Cl  Cl16  1  0.24159172  0.48999896  0.80294331  1
  Cl  Cl17  1  0.74159172  0.51000104  0.69705669  1
  Cl  Cl18  1  0.75840828  0.51000104  0.19705669  1
  Cl  Cl19  1  0.25840828  0.48999896  0.30294331  1
  Cl  Cl20  1  0.22606787  0.99825981  0.79539666  1
  Cl  Cl21  1  0.72606787  0.00174019  0.70460334  1
  Cl  Cl22  1  0.77393213  0.00174019  0.20460334  1
  Cl  Cl23  1  0.27393213  0.99825981  0.29539666  1
  Cl  Cl24  1  0.39517838  0.48819004  0.58416992  1
  Cl  Cl25  1  0.89517838  0.51180996  0.91583008  1
  Cl  Cl26  1  0.60482162  0.51180996  0.41583008  1
  Cl  Cl27  1  0.10482162  0.48819004  0.08416992  1
loop_
_geom_bond_atom_site_label_1
_geom_bond_atom_site_label_2
_geom_bond_distance
_geom_bond_site_symmetry_2
Ba0 Cl6 3.114970 1_455
Ba0 Cl20 3.197518 1_545
Ba0 Cl10 3.234830 1_555
Ba0 Cl16 3.235763 1_555
Ba0 Cl27 3.251627 1_556
Ba0 Cl25 3.254855 1_455
Ba0 Cl15 3.256417 1_546
Ba0 Cl13 3.342090 1_455
Ba0 Cl0 3.358091 1_555
Ba1 Cl7 3.114970 1_555
Ba1 Cl21 3.197518 1_565
Ba1 Cl11 3.234830 1_555
Ba1 Cl17 3.235763 1_555
Ba1 Cl26 3.251627 1_555
Ba1 Cl24 3.254855 1_555
Ba1 Cl14 3.256417 1_565
Ba1 Cl12 3.342090 1_555
Ba1 Cl1 3.358091 1_555
Ba2 Cl4 3.114970 1_655
Ba2 Cl22 3.197518 1_565
Ba2 Cl8 3.234830 1_555
Ba2 Cl18 3.235763 1_555
Ba2 Cl25 3.251627 1_554
Ba2 Cl27 3.254855 1_655
Ba2 Cl13 3.256417 1_564
Ba2 Cl15 3.342090 1_655
Ba2 Cl2 3.358091 1_555
Ba3 Cl5 3.114970 1_555
Ba3 Cl23 3.197518 1_545
Ba3 Cl9 3.234830 1_555
Ba3 Cl19 3.235763 1_555
Ba3 Cl24 3.251627 1_555
Ba3 Cl26 3.254855 1_555
Ba3 Cl12 3.256417 1_545
Ba3 Cl14 3.342090 1_555
Ba3 Cl3 3.358091 1_555
Ba4 Cl7 3.114911 1_554
Ba4 Cl19 3.177636 1_555
Ba4 Cl16 3.187758 1_554
Ba4 Cl23 3.204220 1_555
Ba4 Cl27 3.238037 1_555
Ba4 Cl9 3.299720 1_555
Ba4 Cl15 3.307533 1_555
Ba4 Cl3 3.310560 1_555
Ba4 Cl20 3.347116 1_554
Ba5 Cl6 3.114911 1_555
Ba5 Cl18 3.177636 1_555
Ba5 Cl17 3.187758 1_555
Ba5 Cl22 3.204220 1_555
Ba5 Cl26 3.238037 1_555
Ba5 Cl8 3.299720 1_555
Ba5 Cl14 3.307533 1_555
Ba5 Cl2 3.310560 1_555
Ba5 Cl21 3.347116 1_555
Ba6 Cl5 3.114911 1_556
Ba6 Cl17 3.177636 1_555
Ba6 Cl18 3.187758 1_556
Ba6 Cl21 3.204220 1_555
Ba6 Cl25 3.238037 1_555
Ba6 Cl11 3.299720 1_555
Ba6 Cl13 3.307533 1_555
Ba6 Cl1 3.310560 1_555
Ba6 Cl22 3.347116 1_556
Ba7 Cl4 3.114911 1_555
Ba7 Cl16 3.177636 1_555
Ba7 Cl19 3.187758 1_555
Ba7 Cl20 3.204220 1_555
Ba7 Cl24 3.238037 1_555
Ba7 Cl10 3.299720 1_555
Ba7 Cl12 3.307533 1_555
Ba7 Cl0 3.310560 1_555
Ba7 Cl23 3.347116 1_555
Cl0 Gd0 2.711063 1_555
Cl1 Gd1 2.711063 1_556
Cl2 Gd2 2.711063 1_555
Cl3 Gd3 2.711063 1_554
Cl4 Gd0 2.748375 1_565
Cl5 Gd1 2.748375 1_545
Cl6 Gd2 2.748375 1_545
Cl7 Gd3 2.748375 1_565
Cl8 Gd0 2.699805 1_655
Cl9 Gd1 2.699805 1_555
Cl10 Gd2 2.699805 1_455
Cl11 Gd3 2.699805 1_555
Cl12 Gd3 2.756465 1_565
Cl13 Gd2 2.756465 1_545
Cl14 Gd1 2.756465 1_545
Cl15 Gd0 2.756465 1_565
Cl16 Gd3 2.790117 1_555
Cl17 Gd2 2.790117 1_555
Cl18 Gd1 2.790117 1_555
Cl19 Gd0 2.790117 1_555
Cl20 Gd3 2.751283 1_565
Cl21 Gd2 2.751283 1_545
Cl22 Gd1 2.751283 1_545
Cl23 Gd0 2.751283 1_565
Cl24 Gd3 2.820262 1_555
Cl25 Gd2 2.820262 1_555
Cl26 Gd1 2.820262 1_555
Cl27 Gd0 2.820262 1_555
