# generated using pymatgen
data_Li3BiO3
_symmetry_space_group_name_H-M   'P 1'
_cell_length_a   8.91808915
_cell_length_b   9.15708053
_cell_length_c   9.68247747
_cell_angle_alpha   114.41308398
_cell_angle_beta   107.43651220
_cell_angle_gamma   88.61805650
_symmetry_Int_Tables_number   1
_chemical_formula_structural   Li3BiO3
_chemical_formula_sum   'Li24 Bi8 O24'
_cell_volume   682.38276178
_cell_formula_units_Z   8
loop_
 _symmetry_equiv_pos_site_id
 _symmetry_equiv_pos_as_xyz
  1  'x, y, z'
loop_
 _atom_site_type_symbol
 _atom_site_label
 _atom_site_symmetry_multiplicity
 _atom_site_fract_x
 _atom_site_fract_y
 _atom_site_fract_z
 _atom_site_occupancy
  Li  Li0  1  0.65011857  0.10526458  0.34143611  1
  Li  Li1  1  0.34988143  0.89473542  0.65856389  1
  Li  Li2  1  0.47154128  0.27528063  0.94624026  1
  Li  Li3  1  0.52845872  0.72471937  0.05375974  1
  Li  Li4  1  0.31026277  0.15006281  0.59421648  1
  Li  Li5  1  0.68973723  0.84993719  0.40578352  1
  Li  Li6  1  0.10189909  0.91593542  0.50075377  1
  Li  Li7  1  0.89810091  0.08406458  0.49924623  1
  Li  Li8  1  0.32349080  0.53451173  0.15949279  1
  Li  Li9  1  0.67650920  0.46548827  0.84050721  1
  Li  Li10  1  0.52159968  0.27649256  0.55178068  1
  Li  Li11  1  0.47840032  0.72350744  0.44821932  1
  Li  Li12  1  0.16035904  0.62519440  0.35924567  1
  Li  Li13  1  0.83964096  0.37480560  0.64075433  1
  Li  Li14  1  0.49433374  0.12660093  0.10939430  1
  Li  Li15  1  0.50566626  0.87339907  0.89060570  1
  Li  Li16  1  0.92124606  0.50714162  0.08548488  1
  Li  Li17  1  0.07875394  0.49285838  0.91451512  1
  Li  Li18  1  0.57487314  0.42358247  0.37211019  1
  Li  Li19  1  0.42512686  0.57641753  0.62788981  1
  Li  Li20  1  0.07637702  0.33295306  0.56740871  1
  Li  Li21  1  0.92362298  0.66704694  0.43259129  1
  Li  Li22  1  0.65552322  0.56320099  0.21153290  1
  Li  Li23  1  0.34447678  0.43679901  0.78846710  1
  Bi  Bi0  1  0.16333898  0.74694100  0.80093182  1
  Bi  Bi1  1  0.83666102  0.25305900  0.19906818  1
  Bi  Bi2  1  0.28446503  0.86283769  0.22997591  1
  Bi  Bi3  1  0.75486615  0.70641383  0.69434148  1
  Bi  Bi4  1  0.24513385  0.29358617  0.30565852  1
  Bi  Bi5  1  0.14998328  0.16088389  0.86082135  1
  Bi  Bi6  1  0.85001672  0.83911611  0.13917865  1
  Bi  Bi7  1  0.71553497  0.13716231  0.77002409  1
  O  O0  1  0.30466425  0.91966280  0.46433746  1
  O  O1  1  0.03134578  0.52561179  0.72402839  1
  O  O2  1  0.96865422  0.47438821  0.27597161  1
  O  O3  1  0.52307301  0.27300974  0.76412067  1
  O  O4  1  0.69533575  0.08033720  0.53566254  1
  O  O5  1  0.47692699  0.72699026  0.23587933  1
  O  O6  1  0.11051207  0.13978070  0.63228348  1
  O  O7  1  0.88948793  0.86021930  0.36771652  1
  O  O8  1  0.85817756  0.24441296  0.41638334  1
  O  O9  1  0.14182244  0.75558704  0.58361666  1
  O  O10  1  0.12165289  0.65328099  0.14165388  1
  O  O11  1  0.87834711  0.34671901  0.85834612  1
  O  O12  1  0.53762368  0.79952138  0.68474036  1
  O  O13  1  0.46237632  0.20047862  0.31525964  1
  O  O14  1  0.72170706  0.61620263  0.05256883  1
  O  O15  1  0.27829294  0.38379737  0.94743117  1
  O  O16  1  0.63319340  0.94925370  0.11564209  1
  O  O17  1  0.36680660  0.05074630  0.88435791  1
  O  O18  1  0.35343716  0.51816236  0.36164838  1
  O  O19  1  0.64656284  0.48183764  0.63835162  1
  O  O20  1  0.61455930  0.33582571  0.15820892  1
  O  O21  1  0.38544070  0.66417429  0.84179108  1
  O  O22  1  0.28601280  0.33984228  0.54327482  1
  O  O23  1  0.71398720  0.66015772  0.45672518  1
loop_
_geom_bond_atom_site_label_1
_geom_bond_atom_site_label_2
_geom_bond_distance
_geom_bond_site_symmetry_2
Li0 O13 1.866988 1_555
Li0 O4 1.909783 1_555
Li0 O16 2.018470 1_545
Li0 O8 2.033658 1_555
Li1 O12 1.866988 1_555
Li1 O0 1.909783 1_555
Li1 O17 2.018470 1_565
Li1 O9 2.033658 1_555
Li2 O20 1.916023 1_556
Li2 O3 1.943190 1_555
Li2 O15 1.969144 1_555
Li2 O17 2.048844 1_555
Li3 O21 1.916023 1_554
Li3 O5 1.943190 1_555
Li3 O14 1.969144 1_555
Li3 O16 2.048844 1_555
Li4 O6 1.936067 1_555
Li4 O0 1.951774 1_545
Li4 O22 1.984086 1_555
Li4 O3 2.068013 1_555
Li5 O7 1.936067 1_555
Li5 O4 1.951774 1_565
Li5 O23 1.984086 1_555
Li5 O5 2.068013 1_555
Li6 O7 1.883870 1_455
Li6 O6 1.902748 1_565
Li6 O9 1.924541 1_555
Li6 O0 1.946894 1_555
Li7 O6 1.883870 1_655
Li7 O7 1.902748 1_545
Li7 O8 1.924541 1_555
Li7 O4 1.946894 1_555
Li8 O15 1.863201 1_554
Li8 O18 1.962664 1_555
Li8 O5 1.989524 1_555
Li8 O10 2.080199 1_555
Li9 O14 1.863201 1_556
Li9 O19 1.962664 1_555
Li9 O3 1.989524 1_555
Li9 O11 2.080199 1_555
Li10 O19 1.928391 1_555
Li10 O13 1.995801 1_555
Li10 O3 2.065484 1_555
Li10 O22 2.152775 1_555
Li10 O4 2.330301 1_555
Li11 O18 1.928391 1_555
Li11 O12 1.995801 1_555
Li11 O5 2.065484 1_555
Li11 O23 2.152775 1_555
Li11 O0 2.330301 1_555
Li12 O18 1.959458 1_555
Li12 O2 1.961465 1_455
Li12 O9 2.057690 1_555
Li12 O10 2.152166 1_555
Li13 O19 1.959458 1_555
Li13 O1 1.961465 1_655
Li13 O8 2.057690 1_555
Li13 O11 2.152166 1_555
Li14 O13 1.930945 1_555
Li14 O17 1.955886 1_554
Li14 O20 2.022483 1_555
Li14 O16 2.028259 1_545
Li15 O12 1.930945 1_555
Li15 O16 1.955886 1_556
Li15 O21 2.022483 1_555
Li15 O17 2.028259 1_565
Li16 O2 1.911619 1_555
Li16 O11 1.998342 1_554
Li16 O14 2.025606 1_555
Li16 O10 2.052332 1_655
Li17 O1 1.911619 1_555
Li17 O10 1.998342 1_556
Li17 O15 2.025606 1_555
Li17 O11 2.052332 1_455
Li18 O20 2.027378 1_555
Li18 O13 2.078845 1_555
Li18 O18 2.128443 1_555
Li18 O23 2.226382 1_555
Li18 O19 2.287084 1_555
Li19 O21 2.027378 1_555
Li19 O12 2.078845 1_555
Li19 O19 2.128443 1_555
Li19 O22 2.226382 1_555
Li19 O18 2.287084 1_555
Li20 O1 1.921619 1_555
Li20 O22 1.957931 1_555
Li20 O8 1.993246 1_455
Li20 O6 2.096222 1_555
Li21 O2 1.921619 1_555
Li21 O23 1.957931 1_555
Li21 O9 1.993246 1_655
Li21 O7 2.096222 1_555
Li22 O20 1.941694 1_555
Li22 O14 2.031927 1_555
Li22 O23 2.057782 1_555
Li22 O5 2.158565 1_555
Li23 O21 1.941694 1_555
Li23 O15 2.031927 1_555
Li23 O22 2.057782 1_555
Li23 O3 2.158565 1_555
Bi0 O21 2.088067 1_555
Bi0 O9 2.089387 1_555
Bi0 O1 2.095235 1_555
Bi1 O20 2.088067 1_555
Bi1 O8 2.089387 1_555
Bi1 O2 2.095235 1_555
Bi2 O0 2.058147 1_555
Bi2 O5 2.096120 1_555
Bi2 O10 2.134379 1_555
Bi3 O23 2.074809 1_555
Bi3 O19 2.077560 1_555
Bi3 O12 2.089722 1_555
Bi4 O22 2.074809 1_555
Bi4 O18 2.077560 1_555
Bi4 O13 2.089722 1_555
Bi5 O6 2.059318 1_555
Bi5 O15 2.074090 1_555
Bi5 O17 2.154048 1_555
Bi6 O7 2.059318 1_555
Bi6 O14 2.074090 1_555
Bi6 O16 2.154048 1_555
Bi7 O4 2.058147 1_555
Bi7 O3 2.096120 1_555
Bi7 O11 2.134379 1_555
