# generated using pymatgen
data_La5Pb4
_symmetry_space_group_name_H-M   'P 1'
_cell_length_a   8.59578845
_cell_length_b   8.70334981
_cell_length_c   16.36229120
_cell_angle_alpha   90.00000000
_cell_angle_beta   90.00000000
_cell_angle_gamma   90.00000000
_symmetry_Int_Tables_number   1
_chemical_formula_structural   La5Pb4
_chemical_formula_sum   'La20 Pb16'
_cell_volume   1224.09824533
_cell_formula_units_Z   4
loop_
 _symmetry_equiv_pos_site_id
 _symmetry_equiv_pos_as_xyz
  1  'x, y, z'
loop_
 _atom_site_type_symbol
 _atom_site_label
 _atom_site_symmetry_multiplicity
 _atom_site_fract_x
 _atom_site_fract_y
 _atom_site_fract_z
 _atom_site_occupancy
  La  La0  1  0.88355720  0.65841816  0.88400147  1
  La  La1  1  0.38355720  0.84158184  0.61599853  1
  La  La2  1  0.61644280  0.15841816  0.11599853  1
  La  La3  1  0.11644280  0.34158184  0.38400147  1
  La  La4  1  0.11644280  0.34158184  0.11599853  1
  La  La5  1  0.61644280  0.15841816  0.38400147  1
  La  La6  1  0.38355720  0.84158184  0.88400147  1
  La  La7  1  0.88355720  0.65841816  0.61599853  1
  La  La8  1  0.03394261  0.17723538  0.89739293  1
  La  La9  1  0.53394261  0.32276462  0.60260707  1
  La  La10  1  0.46605739  0.67723538  0.10260707  1
  La  La11  1  0.96605739  0.82276462  0.39739293  1
  La  La12  1  0.96605739  0.82276462  0.10260707  1
  La  La13  1  0.46605739  0.67723538  0.39739293  1
  La  La14  1  0.53394261  0.32276462  0.89739293  1
  La  La15  1  0.03394261  0.17723538  0.60260707  1
  La  La16  1  0.71429164  0.99618487  0.75000000  1
  La  La17  1  0.21429164  0.50381513  0.75000000  1
  La  La18  1  0.78570836  0.49618487  0.25000000  1
  La  La19  1  0.28570836  0.00381513  0.25000000  1
  Pb  Pb0  1  0.08225890  0.87912041  0.75000000  1
  Pb  Pb1  1  0.58225890  0.62087959  0.75000000  1
  Pb  Pb2  1  0.41774110  0.37912041  0.25000000  1
  Pb  Pb3  1  0.91774110  0.12087959  0.25000000  1
  Pb  Pb4  1  0.83924504  0.35736935  0.75000000  1
  Pb  Pb5  1  0.33924504  0.14263065  0.75000000  1
  Pb  Pb6  1  0.66075496  0.85736935  0.25000000  1
  Pb  Pb7  1  0.16075496  0.64263065  0.25000000  1
  Pb  Pb8  1  0.77439161  0.47017354  0.04481762  1
  Pb  Pb9  1  0.27439161  0.02982646  0.45518238  1
  Pb  Pb10  1  0.72560839  0.97017354  0.95518238  1
  Pb  Pb11  1  0.22560839  0.52982646  0.54481762  1
  Pb  Pb12  1  0.22560839  0.52982646  0.95518238  1
  Pb  Pb13  1  0.72560839  0.97017354  0.54481762  1
  Pb  Pb14  1  0.27439161  0.02982646  0.04481762  1
  Pb  Pb15  1  0.77439161  0.47017354  0.45518238  1
loop_
_geom_bond_atom_site_label_1
_geom_bond_atom_site_label_2
_geom_bond_distance
_geom_bond_site_symmetry_2
La0 Pb8 3.238610 1_556
La0 Pb10 3.249908 1_555
La0 Pb12 3.354671 1_655
La0 Pb0 3.378503 1_655
La0 Pb1 3.409057 1_555
La0 Pb4 3.437666 1_555
La1 Pb9 3.238610 1_565
La1 Pb11 3.249908 1_555
La1 Pb13 3.354671 1_555
La1 Pb1 3.378503 1_555
La1 Pb0 3.409057 1_555
La1 Pb5 3.437666 1_565
La2 Pb10 3.238610 1_544
La2 Pb8 3.249908 1_555
La2 Pb14 3.354671 1_555
La2 Pb2 3.378503 1_555
La2 Pb3 3.409057 1_555
La2 Pb6 3.437666 1_545
La3 Pb11 3.238610 1_555
La3 Pb9 3.249908 1_555
La3 Pb15 3.354671 1_455
La3 Pb3 3.378503 1_455
La3 Pb2 3.409057 1_555
La3 Pb7 3.437666 1_555
La4 Pb12 3.238610 1_554
La4 Pb14 3.249908 1_555
La4 Pb8 3.354671 1_455
La4 Pb3 3.378503 1_455
La4 Pb2 3.409057 1_555
La4 Pb7 3.437666 1_555
La5 Pb13 3.238610 1_545
La5 Pb15 3.249908 1_555
La5 Pb9 3.354671 1_555
La5 Pb2 3.378503 1_555
La5 Pb3 3.409057 1_555
La5 Pb6 3.437666 1_545
La6 Pb14 3.238610 1_566
La6 Pb12 3.249908 1_555
La6 Pb10 3.354671 1_555
La6 Pb1 3.378503 1_555
La6 Pb0 3.409057 1_555
La6 Pb5 3.437666 1_565
La7 Pb15 3.238610 1_555
La7 Pb13 3.249908 1_555
La7 Pb11 3.354671 1_655
La7 Pb0 3.378503 1_655
La7 Pb1 3.409057 1_555
La7 Pb4 3.437666 1_555
La8 Pb4 3.327912 1_455
La8 Pb10 3.341597 1_445
La8 Pb14 3.425867 1_556
La8 Pb0 3.566604 1_545
La8 Pb5 3.576866 1_555
La8 Pb12 3.609083 1_555
La9 Pb5 3.327912 1_555
La9 Pb11 3.341597 1_555
La9 Pb15 3.425867 1_555
La9 Pb1 3.566604 1_555
La9 Pb4 3.576866 1_555
La9 Pb13 3.609083 1_545
La10 Pb6 3.327912 1_555
La10 Pb8 3.341597 1_555
La10 Pb12 3.425867 1_554
La10 Pb2 3.566604 1_555
La10 Pb7 3.576866 1_555
La10 Pb14 3.609083 1_565
La11 Pb7 3.327912 1_655
La11 Pb9 3.341597 1_665
La11 Pb13 3.425867 1_555
La11 Pb3 3.566604 1_565
La11 Pb6 3.576866 1_555
La11 Pb15 3.609083 1_555
La12 Pb7 3.327912 1_655
La12 Pb14 3.341597 1_665
La12 Pb10 3.425867 1_554
La12 Pb3 3.566604 1_565
La12 Pb6 3.576866 1_555
La12 Pb8 3.609083 1_555
La13 Pb6 3.327912 1_555
La13 Pb15 3.341597 1_555
La13 Pb11 3.425867 1_555
La13 Pb2 3.566604 1_555
La13 Pb7 3.576866 1_555
La13 Pb9 3.609083 1_565
La14 Pb5 3.327912 1_555
La14 Pb12 3.341597 1_555
La14 Pb8 3.425867 1_556
La14 Pb1 3.566604 1_555
La14 Pb4 3.576866 1_555
La14 Pb10 3.609083 1_545
La15 Pb4 3.327912 1_455
La15 Pb13 3.341597 1_445
La15 Pb9 3.425867 1_555
La15 Pb0 3.566604 1_545
La15 Pb5 3.576866 1_555
La15 Pb11 3.609083 1_555
La16 Pb4 3.321945 1_565
La16 Pb0 3.323016 1_655
La16 Pb13 3.366284 1_555
La16 Pb10 3.366284 1_555
La16 Pb1 3.457963 1_555
La16 Pb5 3.466634 1_565
La17 Pb5 3.321945 1_555
La17 Pb1 3.323016 1_555
La17 Pb11 3.366284 1_555
La17 Pb12 3.366284 1_555
La17 Pb0 3.457963 1_555
La17 Pb4 3.466634 1_455
La18 Pb6 3.321945 1_555
La18 Pb2 3.323016 1_555
La18 Pb15 3.366284 1_555
La18 Pb8 3.366284 1_555
La18 Pb3 3.457963 1_555
La18 Pb7 3.466634 1_655
La19 Pb7 3.321945 1_545
La19 Pb3 3.323016 1_455
La19 Pb14 3.366284 1_555
La19 Pb9 3.366284 1_555
La19 Pb2 3.457963 1_555
La19 Pb6 3.466634 1_545
Pb0 Pb5 3.184252 1_565
Pb1 Pb4 3.184252 1_555
Pb2 Pb7 3.184252 1_555
Pb3 Pb6 3.184252 1_545
