# generated using pymatgen
data_Sn2OF2
_symmetry_space_group_name_H-M   'P 1'
_cell_length_a   5.06856188
_cell_length_b   6.10893040
_cell_length_c   6.10893055
_cell_angle_alpha   81.28489915
_cell_angle_beta   84.49422228
_cell_angle_gamma   84.49422965
_symmetry_Int_Tables_number   1
_chemical_formula_structural   Sn2OF2
_chemical_formula_sum   'Sn4 O2 F4'
_cell_volume   185.46912566
_cell_formula_units_Z   2
loop_
 _symmetry_equiv_pos_site_id
 _symmetry_equiv_pos_as_xyz
  1  'x, y, z'
loop_
 _atom_site_type_symbol
 _atom_site_label
 _atom_site_symmetry_multiplicity
 _atom_site_fract_x
 _atom_site_fract_y
 _atom_site_fract_z
 _atom_site_occupancy
  Sn  Sn0  1  0.50000000  0.70643723  0.29356277  1
  Sn  Sn1  1  0.50000000  0.29356277  0.70643723  1
  Sn  Sn2  1  0.01382732  0.78584819  0.78584819  1
  Sn  Sn3  1  0.98617268  0.21415181  0.21415181  1
  O  O0  1  0.30382150  0.60792512  0.60792512  1
  O  O1  1  0.69617850  0.39207488  0.39207488  1
  F  F0  1  0.20176814  0.14428357  0.50678152  1
  F  F1  1  0.79823186  0.85571643  0.49321848  1
  F  F2  1  0.20176814  0.50678152  0.14428357  1
  F  F3  1  0.79823186  0.49321848  0.85571643  1
loop_
_geom_bond_atom_site_label_1
_geom_bond_atom_site_label_2
_geom_bond_distance
_geom_bond_site_symmetry_2
O0 Sn2 2.065946 1_555
O0 Sn0 2.106433 1_555
O0 Sn1 2.106433 1_555
O1 Sn3 2.065946 1_555
O1 Sn1 2.106433 1_555
O1 Sn0 2.106433 1_555
F0 Sn3 2.150846 1_455
F0 Sn1 2.357877 1_555
F1 Sn2 2.150846 1_655
F1 Sn0 2.357877 1_555
F2 Sn3 2.150846 1_455
F2 Sn0 2.357877 1_555
F3 Sn2 2.150846 1_655
F3 Sn1 2.357877 1_555
