# generated using pymatgen
data_Sr2Fe2O5
_symmetry_space_group_name_H-M   'P 1'
_cell_length_a   8.99032202
_cell_length_b   8.99032202
_cell_length_c   5.47910032
_cell_angle_alpha   72.49135668
_cell_angle_beta   72.49135668
_cell_angle_gamma   129.30194794
_symmetry_Int_Tables_number   1
_chemical_formula_structural   Sr2Fe2O5
_chemical_formula_sum   'Sr4 Fe4 O10'
_cell_volume   243.81641216
_cell_formula_units_Z   2
loop_
 _symmetry_equiv_pos_site_id
 _symmetry_equiv_pos_as_xyz
  1  'x, y, z'
loop_
 _atom_site_type_symbol
 _atom_site_label
 _atom_site_symmetry_multiplicity
 _atom_site_fract_x
 _atom_site_fract_y
 _atom_site_fract_z
 _atom_site_occupancy
  Sr  Sr0  1  0.40233006  0.12009295  0.97758903  1
  Sr  Sr1  1  0.59766994  0.87990705  0.02241097  1
  Sr  Sr2  1  0.87990705  0.59766994  0.02241097  1
  Sr  Sr3  1  0.12009295  0.40233006  0.97758903  1
  Fe  Fe0  1  0.50000000  -0.00000000  0.50000000  1
  Fe  Fe1  1  0.00000000  0.50000000  0.50000000  1
  Fe  Fe2  1  0.81595352  0.81595352  0.49960350  1
  Fe  Fe3  1  0.18404648  0.18404648  0.50039650  1
  O  O0  1  0.74994808  0.25005192  -0.00000000  1
  O  O1  1  0.24477092  0.75522908  0.50000000  1
  O  O2  1  0.75522908  0.24477092  0.50000000  1
  O  O3  1  0.25005192  0.74994808  -0.00000000  1
  O  O4  1  0.37558848  0.15895234  0.50046117  1
  O  O5  1  0.62441152  0.84104766  0.49953883  1
  O  O6  1  0.84104766  0.62441152  0.49953883  1
  O  O7  1  0.15895234  0.37558848  0.50046117  1
  O  O8  1  0.82857907  0.82857907  0.84233539  1
  O  O9  1  0.17142093  0.17142093  0.15766461  1
loop_
_geom_bond_atom_site_label_1
_geom_bond_atom_site_label_2
_geom_bond_distance
_geom_bond_site_symmetry_2
Fe0 O2 1.926394 1_555
Fe0 O1 1.926394 1_545
Fe0 O0 1.949141 1_555
Fe0 O3 1.949141 1_546
Fe0 O4 2.306186 1_555
Fe0 O5 2.306186 1_545
Fe1 O2 1.926394 1_455
Fe1 O1 1.926394 1_555
Fe1 O0 1.949141 1_456
Fe1 O3 1.949141 1_555
Fe1 O7 2.306186 1_555
Fe1 O6 2.306186 1_455
Fe2 O6 1.873162 1_555
Fe2 O5 1.873162 1_555
Fe2 O8 1.947388 1_555
Fe2 O9 1.947536 1_665
Fe3 O4 1.873162 1_555
Fe3 O7 1.873162 1_555
Fe3 O9 1.947388 1_555
Fe3 O8 1.947536 1_445
O0 Sr0 2.615075 1_554
O0 Sr2 2.615075 1_555
O0 Sr1 2.616247 1_545
O0 Sr3 2.616247 1_654
O1 Sr3 2.627618 1_555
O1 Sr1 2.627618 1_555
O1 Sr2 2.642761 1_456
O1 Sr0 2.642761 1_564
O2 Sr0 2.627618 1_555
O2 Sr2 2.627618 1_555
O2 Sr1 2.642761 1_546
O2 Sr3 2.642761 1_654
O3 Sr3 2.615075 1_554
O3 Sr1 2.615075 1_555
O3 Sr2 2.616247 1_455
O3 Sr0 2.616247 1_564
O4 Sr0 2.636113 1_555
O4 Sr2 2.637844 1_555
O4 Sr2 2.943181 1_446
O4 Sr0 2.946442 1_554
O5 Sr1 2.636113 1_555
O5 Sr3 2.637844 1_555
O5 Sr3 2.943181 1_664
O5 Sr1 2.946442 1_556
O6 Sr2 2.636113 1_555
O6 Sr0 2.637844 1_555
O6 Sr0 2.943181 1_664
O6 Sr2 2.946442 1_556
O7 Sr3 2.636113 1_555
O7 Sr1 2.637844 1_555
O7 Sr1 2.943181 1_446
O7 Sr3 2.946442 1_554
O8 Sr1 2.398137 1_556
O8 Sr2 2.398137 1_556
O9 Sr3 2.398137 1_554
O9 Sr0 2.398137 1_554
