# generated using pymatgen
data_MgCr2O4
_symmetry_space_group_name_H-M   'P 1'
_cell_length_a   2.99477691
_cell_length_b   2.99476974
_cell_length_c   10.42634227
_cell_angle_alpha   89.67334797
_cell_angle_beta   89.99173374
_cell_angle_gamma   119.98041933
_symmetry_Int_Tables_number   1
_chemical_formula_structural   MgCr2O4
_chemical_formula_sum   'Mg1 Cr2 O4'
_cell_volume   80.99655097
_cell_formula_units_Z   1
loop_
 _symmetry_equiv_pos_site_id
 _symmetry_equiv_pos_as_xyz
  1  'x, y, z'
loop_
 _atom_site_type_symbol
 _atom_site_label
 _atom_site_symmetry_multiplicity
 _atom_site_fract_x
 _atom_site_fract_y
 _atom_site_fract_z
 _atom_site_occupancy
  Mg  Mg0  1  0.00613200  0.99225700  0.75179300  1
  Cr  Cr0  1  0.99895200  0.99824600  0.49130800  1
  Cr  Cr1  1  0.99943900  0.99861400  0.01223800  1
  O  O0  1  0.66688700  0.33375700  0.40907700  1
  O  O1  1  0.66502900  0.32965900  0.09447700  1
  O  O2  1  0.33389000  0.65968700  0.62485100  1
  O  O3  1  0.33717700  0.66538500  0.87871400  1
loop_
_geom_bond_atom_site_label_1
_geom_bond_atom_site_label_2
_geom_bond_distance
_geom_bond_site_symmetry_2
Mg0 O3 2.155888 1_555
Mg0 O2 2.167687 1_555
Mg0 O2 2.172349 1_565
Mg0 O3 2.178864 1_455
Mg0 O2 2.192860 1_455
Mg0 O3 2.198002 1_565
Cr0 O0 1.929419 1_565
Cr0 O0 1.930286 1_555
Cr0 O0 1.930524 1_665
Cr0 O2 2.213254 1_555
Cr0 O2 2.216920 1_665
Cr0 O2 2.230144 1_655
Cr1 O1 1.929457 1_565
Cr1 O1 1.930420 1_665
Cr1 O1 1.930462 1_555
Cr1 O3 2.213114 1_664
Cr1 O3 2.214987 1_554
Cr1 O3 2.231874 1_654
