# generated using pymatgen
data_La3Si2S8I
_symmetry_space_group_name_H-M   'P 1'
_cell_length_a   9.03719443
_cell_length_b   9.03719443
_cell_length_c   10.98758547
_cell_angle_alpha   82.89020849
_cell_angle_beta   82.89020849
_cell_angle_gamma   52.41993773
_symmetry_Int_Tables_number   1
_chemical_formula_structural   La3Si2S8I
_chemical_formula_sum   'La6 Si4 S16 I2'
_cell_volume   704.36428066
_cell_formula_units_Z   2
loop_
 _symmetry_equiv_pos_site_id
 _symmetry_equiv_pos_as_xyz
  1  'x, y, z'
loop_
 _atom_site_type_symbol
 _atom_site_label
 _atom_site_symmetry_multiplicity
 _atom_site_fract_x
 _atom_site_fract_y
 _atom_site_fract_z
 _atom_site_occupancy
  La  La0  1  0.59411900  0.40588100  0.25000000  1
  La  La1  1  0.40588100  0.59411900  0.75000000  1
  La  La2  1  0.92316400  0.68095700  0.18038900  1
  La  La3  1  0.31904300  0.07683600  0.31961100  1
  La  La4  1  0.07683600  0.31904300  0.81961100  1
  La  La5  1  0.68095700  0.92316400  0.68038900  1
  Si  Si0  1  0.69668200  0.62294000  0.46984900  1
  Si  Si1  1  0.30331800  0.37706000  0.53015100  1
  Si  Si2  1  0.62294000  0.69668200  0.96984900  1
  Si  Si3  1  0.37706000  0.30331800  0.03015100  1
  S  S0  1  0.58255300  0.27917400  0.54354800  1
  S  S1  1  0.72082600  0.41744700  0.95645200  1
  S  S2  1  0.41744700  0.72082600  0.45645200  1
  S  S3  1  0.27917400  0.58255300  0.04354800  1
  S  S4  1  0.44983500  0.24971200  0.84063200  1
  S  S5  1  0.24971200  0.44983500  0.34063200  1
  S  S6  1  0.75028800  0.55016500  0.65936800  1
  S  S7  1  0.55016500  0.75028800  0.15936800  1
  S  S8  1  0.59721700  0.11278100  0.14788400  1
  S  S9  1  0.88721900  0.40278300  0.35211600  1
  S  S10  1  0.40278300  0.88721900  0.85211600  1
  S  S11  1  0.11278100  0.59721700  0.64788400  1
  S  S12  1  0.15060700  0.28839200  0.08590900  1
  S  S13  1  0.71160800  0.84939300  0.41409100  1
  S  S14  1  0.84939300  0.71160800  0.91409100  1
  S  S15  1  0.28839200  0.15060700  0.58590900  1
  I  I0  1  0.98680800  0.01319200  0.75000000  1
  I  I1  1  0.01319200  0.98680800  0.25000000  1
loop_
_geom_bond_atom_site_label_1
_geom_bond_atom_site_label_2
_geom_bond_distance
_geom_bond_site_symmetry_2
La0 S5 2.942720 1_555
La0 S7 2.942720 1_555
La0 S8 2.985514 1_555
La0 S9 2.985514 1_555
La0 S0 3.297500 1_555
La0 S1 3.297500 1_554
La0 S3 3.309777 1_555
La0 S2 3.309777 1_555
La1 S4 2.942720 1_555
La1 S6 2.942720 1_555
La1 S11 2.985514 1_555
La1 S10 2.985514 1_555
La1 S3 3.297500 1_556
La1 S2 3.297500 1_555
La1 S1 3.309777 1_555
La1 S0 3.309777 1_555
La2 S13 2.961182 1_555
La2 S5 3.004834 1_655
La2 S3 3.007722 1_655
La2 S14 3.023162 1_554
La2 S12 3.062293 1_655
La2 S7 3.064215 1_555
La2 S9 3.107360 1_555
La2 S8 3.150847 1_565
La3 S12 2.961182 1_555
La3 S7 3.004834 1_545
La3 S2 3.007722 1_545
La3 S15 3.023162 1_555
La3 S13 3.062293 1_545
La3 S5 3.064215 1_555
La3 S8 3.107360 1_555
La3 S9 3.150847 1_455
La4 S15 2.961182 1_555
La4 S6 3.004834 1_455
La4 S1 3.007722 1_455
La4 S12 3.023162 1_556
La4 S14 3.062293 1_455
La4 S4 3.064215 1_555
La4 S11 3.107360 1_555
La4 S10 3.150847 1_545
La5 S14 2.961182 1_555
La5 S4 3.004834 1_565
La5 S0 3.007722 1_565
La5 S13 3.023162 1_555
La5 S15 3.062293 1_565
La5 S6 3.064215 1_555
La5 S10 3.107360 1_555
La5 S11 3.150847 1_655
S0 Si1 2.123472 1_555
S1 Si2 2.123472 1_555
S2 Si0 2.123472 1_555
S3 Si3 2.123472 1_555
S4 Si3 2.127327 1_556
S5 Si1 2.127327 1_555
S6 Si0 2.127327 1_555
S7 Si2 2.127327 1_554
S8 Si3 2.122239 1_555
S9 Si0 2.122239 1_555
S10 Si2 2.122239 1_555
S11 Si1 2.122239 1_555
S12 Si3 2.141864 1_555
S13 Si0 2.141864 1_555
S14 Si2 2.141864 1_555
S15 Si1 2.141864 1_555
I0 La1 3.345363 1_645
I0 La4 3.508160 1_655
I0 La5 3.508160 1_545
I1 La0 3.345363 1_465
I1 La3 3.508160 1_565
I1 La2 3.508160 1_455
