# generated using pymatgen
data_Na4Ca3ZrSiS5O24
_symmetry_space_group_name_H-M   'P 1'
_cell_length_a   9.26434074
_cell_length_b   9.28566187
_cell_length_c   23.77571294
_cell_angle_alpha   89.97611196
_cell_angle_beta   90.09099229
_cell_angle_gamma   120.03408607
_symmetry_Int_Tables_number   1
_chemical_formula_structural   Na4Ca3ZrSiS5O24
_chemical_formula_sum   'Na12 Ca9 Zr3 Si3 S15 O72'
_cell_volume   1770.68661768
_cell_formula_units_Z   3
loop_
 _symmetry_equiv_pos_site_id
 _symmetry_equiv_pos_as_xyz
  1  'x, y, z'
loop_
 _atom_site_type_symbol
 _atom_site_label
 _atom_site_symmetry_multiplicity
 _atom_site_fract_x
 _atom_site_fract_y
 _atom_site_fract_z
 _atom_site_occupancy
  Na  Na0  1  0.36056389  0.36005878  0.25056524  1
  Na  Na1  1  0.32302199  0.34999662  0.59069381  1
  Na  Na2  1  0.02305060  0.69428284  0.58010570  1
  Na  Na3  1  0.00695730  0.68661586  0.92191703  1
  Na  Na4  1  0.69334581  0.02350576  0.90868879  1
  Na  Na5  1  0.29938255  0.29121607  0.92071750  1
  Na  Na6  1  0.95362545  0.97505519  0.49934180  1
  Na  Na7  1  0.02478943  0.02347307  0.00170267  1
  Na  Na8  1  0.66339985  0.32205582  0.82345435  1
  Na  Na9  1  0.68800286  0.32580723  0.32911496  1
  Na  Na10  1  0.33016065  0.68591985  0.16814372  1
  Na  Na11  1  0.39471651  0.68742822  0.66447117  1
  Ca  Ca0  1  0.99285302  0.99117019  0.35028251  1
  Ca  Ca1  1  0.00250859  0.00367972  0.84519089  1
  Ca  Ca2  1  0.98062390  0.99205135  0.65068352  1
  Ca  Ca3  1  0.99383711  0.99309062  0.14719540  1
  Ca  Ca4  1  0.66420396  0.33424239  0.68499876  1
  Ca  Ca5  1  0.67659920  0.33263930  0.18419285  1
  Ca  Ca6  1  0.32245316  0.65844889  0.01847719  1
  Ca  Ca7  1  0.34833201  0.67474820  0.51321808  1
  Ca  Ca8  1  0.33646587  0.67863320  0.32012281  1
  Zr  Zr0  1  0.66804252  0.32565525  0.98149944  1
  Zr  Zr1  1  0.66557339  0.34184459  0.48287902  1
  Zr  Zr2  1  0.31916698  0.66947227  0.81983202  1
  Si  Si0  1  0.66669875  0.63310975  0.58435002  1
  Si  Si1  1  0.03456606  0.36740780  0.91834727  1
  Si  Si2  1  0.33461305  0.96596800  0.91848595  1
  S  S0  1  0.30009934  0.00238392  0.24960372  1
  S  S1  1  0.68991085  0.69173130  0.24974339  1
  S  S2  1  0.00774632  0.30196072  0.25092719  1
  S  S3  1  0.30846234  0.31888101  0.75236913  1
  S  S4  1  0.00617967  0.69321172  0.75199855  1
  S  S5  1  0.67993102  0.98974640  0.75512959  1
  S  S6  1  0.96122088  0.33407332  0.58056089  1
  S  S7  1  0.36965577  0.04061426  0.58174344  1
  S  S8  1  0.95804581  0.63281390  0.08065570  1
  S  S9  1  0.67332396  0.03912467  0.08047682  1
  S  S10  1  0.37335041  0.33045617  0.08305529  1
  S  S11  1  0.62153379  0.65756239  0.91655355  1
  S  S12  1  0.64359967  0.98453464  0.41796898  1
  S  S13  1  0.33618184  0.35716559  0.41770570  1
  S  S14  1  0.02193778  0.66096046  0.42149728  1
  O  O0  1  0.21242843  0.01209379  0.30024387  1
  O  O1  1  0.78296855  0.77608060  0.30124792  1
  O  O2  1  0.99652273  0.20630183  0.30213572  1
  O  O3  1  0.21858223  0.22315033  0.80244489  1
  O  O4  1  0.99349390  0.77558789  0.80265205  1
  O  O5  1  0.76629723  -0.00204543  0.80802618  1
  O  O6  1  0.77053994  0.98013481  0.70535239  1
  O  O7  1  0.21609844  0.24120928  0.69946374  1
  O  O8  1  0.02031069  0.78749931  0.69993623  1
  O  O9  1  0.77516509  0.78513736  0.19873471  1
  O  O10  1  0.01801124  0.21590467  0.19985656  1
  O  O11  1  0.20568708  0.99132444  0.19798797  1
  O  O12  1  0.87819709  0.34035806  0.63220207  1
  O  O13  1  0.46885155  0.10762722  0.63307170  1
  O  O14  1  0.64443985  0.51661236  0.63753157  1
  O  O15  1  0.86384537  0.53995554  0.13029727  1
  O  O16  1  0.66723038  0.12814047  0.13040728  1
  O  O17  1  0.45846809  0.32788927  0.13489649  1
  O  O18  1  0.47587394  0.32934915  0.03177513  1
  O  O19  1  0.86356092  0.53587763  0.02766703  1
  O  O20  1  0.67425138  0.13911262  0.02787752  1
  O  O21  1  0.46950654  0.14059192  0.53126894  1
  O  O22  1  0.67464917  0.51813278  0.52802858  1
  O  O23  1  0.85274975  0.31480527  0.53020682  1
  O  O24  1  0.55954833  0.69701914  0.96701876  1
  O  O25  1  0.16777516  0.43238785  0.96853542  1
  O  O26  1  0.29562660  0.84325393  0.97036773  1
  O  O27  1  0.55987301  0.88759142  0.46876976  1
  O  O28  1  0.32397067  0.44213859  0.46861311  1
  O  O29  1  0.11088904  0.67375492  0.47467226  1
  O  O30  1  0.10808296  0.64463234  0.37230689  1
  O  O31  1  0.54675418  0.90711816  0.36678304  1
  O  O32  1  0.36086655  0.45607052  0.36627350  1
  O  O33  1  0.12790839  0.49991941  0.86361956  1
  O  O34  1  0.37261131  0.87521230  0.86271987  1
  O  O35  1  0.51123947  0.63140517  0.86691697  1
  O  O36  1  -0.00774480  0.80226234  0.41705225  1
  O  O37  1  0.81307130  0.00760407  0.41555440  1
  O  O38  1  0.19138880  0.18849142  0.41408708  1
  O  O39  1  0.97847424  0.17429735  0.90612994  1
  O  O40  1  0.17936583  0.99913602  0.90942252  1
  O  O41  1  0.79501131  0.79204558  0.90565717  1
  O  O42  1  0.99570657  0.19419553  0.58091228  1
  O  O43  1  0.21558077  0.05390518  0.58359926  1
  O  O44  1  0.84503573  0.80693160  0.58128048  1
  O  O45  1  0.96990642  0.79693026  0.07673697  1
  O  O46  1  0.82844807  0.03271290  0.07720456  1
  O  O47  1  0.20770264  0.17878435  0.07799373  1
  O  O48  1  0.65491696  0.13455417  0.75184754  1
  O  O49  1  0.47654093  0.33660716  0.75216357  1
  O  O50  1  0.86523857  0.52048140  0.74990654  1
  O  O51  1  0.66554625  0.51861948  0.24882031  1
  O  O52  1  0.86232751  0.32813902  0.24918205  1
  O  O53  1  0.46639518  0.16151340  0.24861429  1
  O  O54  1  0.62380251  0.49571708  0.92329165  1
  O  O55  1  0.85973224  0.37828813  0.92765611  1
  O  O56  1  0.51094898  0.15215217  0.92471924  1
  O  O57  1  0.65934653  0.15549746  0.42295873  1
  O  O58  1  0.49209481  0.33926586  0.42384456  1
  O  O59  1  0.85143272  0.50021725  0.42384097  1
  O  O60  1  0.36292189  0.48329703  0.08146083  1
  O  O61  1  0.12382337  0.64705757  0.08183112  1
  O  O62  1  0.52434353  0.87215126  0.07832290  1
  O  O63  1  0.32089221  0.86337891  0.57496025  1
  O  O64  1  0.49680780  0.64410277  0.57960895  1
  O  O65  1  0.12246580  0.49361549  0.57521454  1
  O  O66  1  0.32567473  0.85657158  0.25211847  1
  O  O67  1  0.51662036  0.66892068  0.25132190  1
  O  O68  1  0.16715342  0.46822840  0.25329220  1
  O  O69  1  0.32712507  0.49109568  0.75661471  1
  O  O70  1  0.16755361  0.68590215  0.75566444  1
  O  O71  1  0.51137198  0.83046407  0.75520931  1
loop_
_geom_bond_atom_site_label_1
_geom_bond_atom_site_label_2
_geom_bond_distance
_geom_bond_site_symmetry_2
Na0 O51 2.447188 1_555
Na0 O68 2.454736 1_555
Na0 O67 2.482975 1_555
Na0 O53 2.484366 1_555
Na0 O32 2.891818 1_555
Na0 O17 2.958856 1_555
Na0 O10 3.008890 1_555
Na0 O0 3.046566 1_555
Na1 O64 2.391468 1_555
Na1 O43 2.416361 1_555
Na1 O42 2.636066 1_455
Na1 O7 2.773766 1_555
Na1 O65 2.800712 1_555
Na1 O14 2.807097 1_555
Na1 O28 3.024473 1_555
Na2 O44 2.354102 1_455
Na2 O63 2.399591 1_555
Na2 O65 2.460129 1_555
Na2 O29 2.672924 1_555
Na3 O55 2.483369 1_455
Na3 O40 2.534102 1_555
Na3 O26 2.586966 1_555
Na3 O41 2.623906 1_455
Na3 O33 2.851951 1_555
Na3 O19 2.862152 1_456
Na3 O4 2.973023 1_455
Na4 O39 2.289080 1_555
Na4 O5 2.531244 1_555
Na4 O56 2.539823 1_555
Na4 O41 2.745609 1_545
Na4 O34 2.795523 1_545
Na4 O55 2.889307 1_555
Na4 O24 2.981758 1_545
Na4 O20 3.067294 1_556
Na5 O40 2.375952 1_545
Na5 O25 2.470447 1_555
Na5 O39 2.627496 1_455
Na5 O54 2.632349 1_555
Na5 O56 2.837445 1_555
Na5 O3 2.896280 1_555
Na6 O44 2.382447 1_555
Na6 O37 2.478028 1_565
Na6 O36 2.666458 1_655
Na6 O42 2.694566 1_565
Na6 O38 2.920506 1_665
Na6 O43 2.940385 1_665
Na7 O47 2.405744 1_555
Na7 O46 2.589435 1_455
Na7 O45 2.606791 1_445
Na7 O40 2.692570 1_544
Na7 O39 2.811531 1_454
Na8 O48 2.408551 1_555
Na8 O49 2.472383 1_555
Na8 O50 2.551079 1_555
Na8 O56 2.838600 1_555
Na8 O55 2.958871 1_555
Na8 O54 2.994581 1_555
Na9 O52 2.489010 1_555
Na9 O53 2.657120 1_555
Na9 O57 2.669898 1_555
Na9 O51 2.694819 1_555
Na9 O59 2.743203 1_555
Na9 O58 2.936436 1_555
Na10 O66 2.562773 1_555
Na10 O67 2.679877 1_555
Na10 O61 2.700607 1_555
Na10 O68 2.723167 1_555
Na10 O62 2.771697 1_555
Na10 O60 2.908002 1_555
Na11 O64 2.348401 1_555
Na11 O71 2.478784 1_555
Na11 O69 2.715418 1_555
Ca0 O0 2.281022 1_665
Ca0 O2 2.287432 1_565
Ca0 O1 2.288281 1_555
Ca0 O37 2.338494 1_565
Ca0 O36 2.363292 1_655
Ca0 O38 2.379369 1_665
Ca1 O39 2.239390 1_455
Ca1 O40 2.253829 1_545
Ca1 O3 2.261465 1_555
Ca1 O4 2.310886 1_445
Ca1 O5 2.334500 1_455
Ca1 O41 2.418434 1_445
Ca2 O44 2.256072 1_555
Ca2 O6 2.298276 1_555
Ca2 O8 2.410403 1_655
Ca2 O42 2.455651 1_565
Ca2 O43 2.524027 1_665
Ca2 O7 2.529564 1_665
Ca3 O11 2.309829 1_655
Ca3 O9 2.329020 1_555
Ca3 O10 2.331500 1_665
Ca3 O45 2.402156 1_555
Ca3 O46 2.409966 1_565
Ca3 O47 2.488772 1_665
Ca4 O14 2.117314 1_555
Ca4 O12 2.324742 1_555
Ca4 O13 2.326034 1_555
Ca4 O50 2.368520 1_555
Ca4 O49 2.370706 1_555
Ca4 O48 2.410393 1_555
Ca5 O15 2.240366 1_555
Ca5 O16 2.255077 1_555
Ca5 O17 2.315762 1_555
Ca5 O52 2.326671 1_555
Ca5 O51 2.352360 1_555
Ca5 O53 2.360752 1_555
Ca6 O26 2.176993 1_554
Ca6 O25 2.203466 1_554
Ca6 O61 2.340972 1_555
Ca6 O60 2.373767 1_555
Ca6 O24 2.381291 1_554
Ca6 O62 2.395656 1_555
Ca7 O64 2.202101 1_555
Ca7 O27 2.234107 1_555
Ca7 O28 2.313896 1_555
Ca7 O29 2.377431 1_555
Ca7 O63 2.395112 1_555
Ca7 O65 2.421741 1_555
Ca8 O31 2.320556 1_555
Ca8 O30 2.335604 1_555
Ca8 O66 2.348793 1_555
Ca8 O67 2.372556 1_555
Ca8 O68 2.393577 1_555
Ca8 O32 2.447669 1_555
O0 S0 1.481200 1_555
O1 S1 1.475723 1_555
O2 S2 1.479598 1_655
O3 S3 1.470494 1_555
O4 S4 1.463049 1_655
O5 S5 1.470898 1_545
O6 S5 1.480370 1_555
O7 S3 1.488003 1_555
O8 S4 1.483492 1_555
O9 S1 1.470822 1_555
O10 S2 1.482973 1_555
O11 S0 1.479321 1_565
O12 S6 1.466463 1_555
O13 S7 1.464809 1_555
O14 Si0 1.608690 1_555
O15 S8 1.465357 1_555
O16 S9 1.464046 1_555
O17 S10 1.468777 1_555
O18 S10 1.549908 1_555
O18 Zr0 2.160430 1_554
O19 S8 1.540247 1_555
O19 Zr0 2.179989 1_554
O20 S9 1.554718 1_555
O20 Zr0 2.077873 1_554
O21 S7 1.516794 1_555
O21 Zr1 2.173069 1_555
O22 Si0 1.737423 1_555
O22 Zr1 1.924164 1_555
O23 S6 1.513782 1_555
O23 Zr1 2.183029 1_555
O24 S11 1.454924 1_555
O25 Si1 1.600454 1_555
O26 Si2 1.593335 1_555
O27 S12 1.474428 1_555
O28 S13 1.480177 1_555
O29 S14 1.480004 1_555
O30 S14 1.466960 1_555
O31 S12 1.467795 1_555
O32 S13 1.476751 1_555
O33 Si1 1.700595 1_555
O33 Zr2 1.978418 1_555
O34 Si2 1.700426 1_555
O34 Zr2 1.996950 1_555
O35 S11 1.497929 1_555
O35 Zr2 2.273216 1_555
O36 S14 1.472861 1_555
O37 S12 1.475744 1_545
O38 S13 1.468511 1_555
O39 Si1 1.623886 1_655
O40 Si2 1.628581 1_555
O41 S11 1.483747 1_555
O42 S6 1.484773 1_555
O43 S7 1.493723 1_555
O44 Si0 1.634323 1_555
O45 S8 1.474926 1_555
O46 S9 1.470010 1_555
O47 S10 1.479548 1_555
O48 S5 1.476353 1_545
O49 S3 1.481637 1_555
O50 S4 1.477622 1_655
O51 S1 1.507367 1_555
O52 S2 1.484392 1_655
O53 S0 1.509543 1_555
O54 S11 1.521856 1_555
O54 Zr0 2.284990 1_555
O55 Si1 1.687499 1_655
O55 Zr0 2.041886 1_555
O56 Si2 1.688746 1_545
O56 Zr0 2.045632 1_555
O57 S12 1.524399 1_545
O57 Zr1 2.220125 1_555
O58 S13 1.541086 1_555
O58 Zr1 2.123192 1_555
O59 S14 1.538247 1_655
O59 Zr1 2.137508 1_555
O60 S10 1.470436 1_555
O61 S8 1.474294 1_455
O62 S9 1.472819 1_565
O63 S7 1.481324 1_565
O64 Si0 1.631144 1_555
O65 S6 1.492486 1_455
O66 S0 1.487938 1_565
O67 S1 1.511106 1_555
O68 S2 1.511677 1_555
O69 S3 1.523351 1_555
O69 Zr2 2.265547 1_555
O70 S4 1.532468 1_555
O70 Zr2 2.128668 1_555
O71 S5 1.521217 1_555
O71 Zr2 2.260151 1_555
