# generated using pymatgen
data_Na5Ta3GaSi5PO24
_symmetry_space_group_name_H-M   'P 1'
_cell_length_a   8.96170513
_cell_length_b   8.94713693
_cell_length_c   22.43682316
_cell_angle_alpha   89.96320281
_cell_angle_beta   89.81442447
_cell_angle_gamma   120.13900386
_symmetry_Int_Tables_number   1
_chemical_formula_structural   Na5Ta3GaSi5PO24
_chemical_formula_sum   'Na15 Ta9 Ga3 Si15 P3 O72'
_cell_volume   1555.79703261
_cell_formula_units_Z   3
loop_
 _symmetry_equiv_pos_site_id
 _symmetry_equiv_pos_as_xyz
  1  'x, y, z'
loop_
 _atom_site_type_symbol
 _atom_site_label
 _atom_site_symmetry_multiplicity
 _atom_site_fract_x
 _atom_site_fract_y
 _atom_site_fract_z
 _atom_site_occupancy
  Na  Na0  1  0.99145081  0.62926148  0.24518130  1
  Na  Na1  1  0.63550673  0.62518088  0.74693423  1
  Na  Na2  1  0.98988228  0.36429362  0.74677227  1
  Na  Na3  1  0.37325600  0.00953763  0.74784038  1
  Na  Na4  1  0.31093452  0.97182864  0.08398333  1
  Na  Na5  1  0.66561421  0.69248696  0.08381951  1
  Na  Na6  1  0.96876405  0.29279089  0.41385159  1
  Na  Na7  1  0.32333914  0.03123011  0.41256278  1
  Na  Na8  1  0.70659165  0.67599599  0.41431822  1
  Na  Na9  1  0.99862761  0.99957329  0.49988710  1
  Na  Na10  1  0.99976288  0.00742451  0.99633586  1
  Na  Na11  1  0.66642027  0.33378342  0.83319449  1
  Na  Na12  1  0.65454669  0.32252411  0.32426074  1
  Na  Na13  1  0.33401389  0.66047021  0.16544302  1
  Na  Na14  1  0.33256846  0.66433349  0.66433327  1
  Ta  Ta0  1  0.00033011  0.99963037  0.85544019  1
  Ta  Ta1  1  0.99675036  0.99972788  0.64399248  1
  Ta  Ta2  1  0.00297014  0.00324579  0.14596636  1
  Ta  Ta3  1  0.66675184  0.33225974  0.97751769  1
  Ta  Ta4  1  0.67071792  0.33577137  0.48141602  1
  Ta  Ta5  1  0.32854411  0.66260569  0.02044154  1
  Ta  Ta6  1  0.33367677  0.66288566  0.52237331  1
  Ta  Ta7  1  0.33735108  0.67102804  0.31086248  1
  Ta  Ta8  1  0.33340586  0.66614087  0.81394607  1
  Ga  Ga0  1  0.00641822  0.00335893  0.35104156  1
  Ga  Ga1  1  0.67109307  0.33995697  0.68602822  1
  Ga  Ga2  1  0.65272748  0.32155780  0.18242382  1
  Si  Si0  1  0.29938982  0.01307651  0.25153644  1
  Si  Si1  1  0.29219537  0.28818897  0.74852188  1
  Si  Si2  1  0.99833499  0.70933354  0.74904298  1
  Si  Si3  1  0.71082608  0.00370832  0.74944581  1
  Si  Si4  1  0.95467857  0.33334138  0.58655316  1
  Si  Si5  1  0.66697001  0.62175688  0.58654397  1
  Si  Si6  1  0.94975573  0.61174572  0.08752228  1
  Si  Si7  1  0.66943369  0.04920277  0.08461663  1
  Si  Si8  1  0.38265675  0.33621237  0.08504290  1
  Si  Si9  1  0.62401895  0.66621950  0.91724169  1
  Si  Si10  1  0.04039392  0.37402574  0.91646321  1
  Si  Si11  1  0.33341138  0.95856036  0.91692923  1
  Si  Si12  1  0.62647736  0.95621911  0.41599409  1
  Si  Si13  1  0.33032454  0.37419803  0.41567503  1
  Si  Si14  1  0.04566720  0.67017697  0.41603381  1
  P  P0  1  0.71216427  0.70998480  0.25167176  1
  P  P1  1  0.99627990  0.28659487  0.25255511  1
  P  P2  1  0.37794817  0.04417566  0.58502735  1
  O  O0  1  0.20563887  0.02673409  0.31165974  1
  O  O1  1  0.82166334  0.79500525  0.30784270  1
  O  O2  1  0.97241072  0.18109595  0.30947772  1
  O  O3  1  0.19666078  0.16340373  0.80610666  1
  O  O4  1  0.96764742  0.80468182  0.80618398  1
  O  O5  1  0.83733233  0.03492694  0.80607200  1
  O  O6  1  0.80162586  0.96162758  0.69266014  1
  O  O7  1  0.16061790  0.19838182  0.69218632  1
  O  O8  1  0.03983834  0.84085183  0.69234338  1
  O  O9  1  0.79680040  0.82571691  0.19506493  1
  O  O10  1  0.02291915  0.19432411  0.19746708  1
  O  O11  1  0.16630046  0.96937407  0.19358350  1
  O  O12  1  0.87160600  0.36447877  0.64541182  1
  O  O13  1  0.48676240  0.12204794  0.64137802  1
  O  O14  1  0.63001634  0.50553986  0.64540164  1
  O  O15  1  0.87040467  0.50507442  0.14839926  1
  O  O16  1  0.61849876  0.12255587  0.14159136  1
  O  O17  1  0.50564464  0.38381382  0.14210997  1
  O  O18  1  0.46419414  0.29255010  0.02668881  1
  O  O19  1  0.82579764  0.53049999  0.02901284  1
  O  O20  1  0.70007811  0.16794724  0.02550255  1
  O  O21  1  0.46718422  0.15788759  0.52780571  1
  O  O22  1  0.69110602  0.52848396  0.52542466  1
  O  O23  1  0.83646637  0.30514759  0.52543639  1
  O  O24  1  0.53137197  0.69418354  0.97593652  1
  O  O25  1  0.16615006  0.47239785  0.97335994  1
  O  O26  1  0.30628208  0.83878377  0.97589168  1
  O  O27  1  0.53083088  0.82975110  0.47265744  1
  O  O28  1  0.30083792  0.47119681  0.47275458  1
  O  O29  1  0.17279248  0.70119323  0.47205994  1
  O  O30  1  0.13126134  0.62689432  0.35758297  1
  O  O31  1  0.49355195  0.86381526  0.35911405  1
  O  O32  1  0.37205479  0.50750177  0.35928151  1
  O  O33  1  0.13330361  0.49463121  0.85683690  1
  O  O34  1  0.36090364  0.86506409  0.85749989  1
  O  O35  1  0.50376245  0.63909364  0.85778373  1
  O  O36  1  0.01850230  0.83493414  0.41077197  1
  O  O37  1  0.81514340  0.97735388  0.40855964  1
  O  O38  1  0.15918679  0.18581529  0.41170729  1
  O  O39  1  0.02588229  0.18702332  0.91042984  1
  O  O40  1  0.16092377  0.97333720  0.91028524  1
  O  O41  1  0.81197934  0.83886205  0.91023843  1
  O  O42  1  0.97816131  0.16288382  0.58842220  1
  O  O43  1  0.19877922  0.02830942  0.58811071  1
  O  O44  1  0.84230613  0.81260521  0.58846558  1
  O  O45  1  0.97299478  0.81084650  0.09262740  1
  O  O46  1  0.83385664  0.01548845  0.09176518  1
  O  O47  1  0.18942305  0.16068202  0.09222714  1
  O  O48  1  0.68677507  0.17015695  0.74375892  1
  O  O49  1  0.48087841  0.30657138  0.74422841  1
  O  O50  1  0.82859764  0.51923509  0.74629799  1
  O  O51  1  0.69906914  0.53372484  0.24596477  1
  O  O52  1  0.84558995  0.31951086  0.24632576  1
  O  O53  1  0.48943511  0.17837267  0.24460385  1
  O  O54  1  0.63982890  0.49414204  0.92311443  1
  O  O55  1  0.85447234  0.36144066  0.92275239  1
  O  O56  1  0.50615089  0.14669271  0.92225437  1
  O  O57  1  0.63678834  0.14457692  0.42304010  1
  O  O58  1  0.50392926  0.35715808  0.42391694  1
  O  O59  1  0.85440264  0.49220697  0.42320165  1
  O  O60  1  0.36004096  0.50594990  0.07642076  1
  O  O61  1  0.14969854  0.65343108  0.07819446  1
  O  O62  1  0.49955910  0.85236890  0.07603587  1
  O  O63  1  0.35831274  0.86371277  0.57531286  1
  O  O64  1  0.49903746  0.64705154  0.57585318  1
  O  O65  1  0.14558469  0.50583507  0.57589130  1
  O  O66  1  0.30014956  0.82391009  0.25599580  1
  O  O67  1  0.53004965  0.69468535  0.25610007  1
  O  O68  1  0.16713263  0.47030199  0.25581468  1
  O  O69  1  0.30688252  0.47928947  0.75528266  1
  O  O70  1  0.17455082  0.69481484  0.75538119  1
  O  O71  1  0.52071667  0.82582185  0.75515844  1
loop_
_geom_bond_atom_site_label_1
_geom_bond_atom_site_label_2
_geom_bond_distance
_geom_bond_site_symmetry_2
Na0 O51 2.312392 1_555
Na0 O52 2.398275 1_555
Na0 O66 2.431446 1_655
Na0 O15 2.436112 1_555
Na0 O68 2.609407 1_655
Na0 O30 2.824450 1_655
Na0 O11 2.872465 1_655
Na0 O1 2.957301 1_555
Na1 O50 2.353750 1_555
Na1 O49 2.466588 1_555
Na1 O71 2.483661 1_555
Na1 O14 2.507756 1_555
Na1 O69 2.558892 1_555
Na1 O35 2.779230 1_555
Na1 O6 2.871240 1_555
Na1 O4 2.904183 1_555
Na2 O48 2.379817 1_555
Na2 O50 2.454229 1_555
Na2 O69 2.496826 1_655
Na2 O12 2.512549 1_555
Na2 O70 2.570898 1_655
Na2 O33 2.762145 1_655
Na2 O5 2.874180 1_555
Na2 O7 2.883699 1_655
Na3 O49 2.329138 1_555
Na3 O48 2.431317 1_555
Na3 O70 2.467959 1_545
Na3 O71 2.580220 1_545
Na3 O13 2.589736 1_555
Na3 O34 2.754490 1_545
Na3 O8 2.873037 1_545
Na3 O3 2.878474 1_555
Na4 O62 2.417486 1_555
Na4 O47 2.433499 1_565
Na4 O61 2.467431 1_555
Na4 O45 2.626696 1_455
Na4 O26 2.693511 1_554
Na4 O16 2.716457 1_565
Na4 O11 2.770975 1_555
Na4 O18 2.792714 1_565
Na5 O60 2.392880 1_555
Na5 O45 2.413096 1_555
Na5 O46 2.506718 1_565
Na5 O62 2.535823 1_555
Na5 O24 2.709937 1_554
Na5 O17 2.720342 1_555
Na5 O9 2.765612 1_555
Na5 O19 2.784507 1_555
Na6 O38 2.338872 1_655
Na6 O37 2.444241 1_545
Na6 O59 2.472469 1_555
Na6 O2 2.553270 1_555
Na6 O57 2.585720 1_555
Na6 O23 2.792617 1_555
Na6 O30 2.874389 1_655
Na6 O28 2.899789 1_655
Na7 O36 2.394146 1_545
Na7 O57 2.473523 1_555
Na7 O38 2.474016 1_555
Na7 O0 2.492515 1_555
Na7 O58 2.540126 1_555
Na7 O21 2.861838 1_555
Na7 O31 2.879850 1_545
Na7 O29 2.881739 1_545
Na8 O37 2.365963 1_555
Na8 O36 2.418413 1_655
Na8 O58 2.505326 1_555
Na8 O59 2.585933 1_555
Na8 O1 2.604330 1_555
Na8 O22 2.790195 1_555
Na8 O27 2.872575 1_555
Na8 O32 2.876354 1_555
Na9 O38 2.516150 1_665
Na9 O44 2.516964 1_555
Na9 O42 2.526874 1_565
Na9 O36 2.542515 1_655
Na9 O37 2.576089 1_555
Na9 O43 2.600435 1_665
Na10 O39 2.442823 1_655
Na10 O41 2.512836 1_545
Na10 O40 2.516264 1_645
Na10 O46 2.624410 1_556
Na10 O47 2.661792 1_656
Na10 O45 2.717847 1_546
Na11 O50 2.494504 1_555
Na11 O56 2.533893 1_555
Na11 O49 2.534592 1_555
Na11 O48 2.544161 1_555
Na11 O54 2.555313 1_555
Na11 O55 2.557895 1_555
Na12 O53 2.269541 1_555
Na12 O52 2.452874 1_555
Na12 O51 2.459686 1_555
Na12 O57 2.685307 1_555
Na12 O58 2.705341 1_555
Na12 O59 2.782139 1_555
Na13 O60 2.505916 1_555
Na13 O61 2.545801 1_555
Na13 O62 2.567363 1_555
Na13 O68 2.581400 1_555
Na13 O67 2.607945 1_555
Na13 O66 2.608414 1_555
Na14 O65 2.528935 1_555
Na14 O64 2.530501 1_555
Na14 O69 2.562824 1_555
Na14 O70 2.573456 1_555
Na14 O71 2.581275 1_555
Na14 O63 2.608434 1_555
Ga0 O0 1.904357 1_555
Ga0 O2 1.994499 1_455
Ga0 O1 2.017222 1_445
Ga0 O38 2.040242 1_555
Ga0 O36 2.059317 1_545
Ga0 O37 2.059774 1_445
Ga1 O12 1.923753 1_555
Ga1 O14 1.925958 1_555
Ga1 O50 2.033572 1_555
Ga1 O49 2.043034 1_555
Ga1 O48 2.053931 1_555
Ga1 O13 2.076694 1_555
Ga2 O16 1.886546 1_555
Ga2 O17 1.900052 1_555
Ga2 O53 1.957276 1_555
Ga2 O15 1.963794 1_555
Ga2 O51 2.241453 1_555
Ga2 O52 2.256343 1_555
O0 Si0 1.623736 1_555
O1 P0 1.545830 1_555
O2 P1 1.536814 1_555
O3 Si1 1.637045 1_555
O3 Ta0 1.965793 1_545
O4 Si2 1.637621 1_555
O4 Ta0 1.959859 1_655
O5 Si3 1.633803 1_555
O5 Ta0 1.983352 1_645
O6 Si3 1.651894 1_565
O6 Ta1 1.937752 1_555
O7 Si1 1.641108 1_555
O7 Ta1 1.968902 1_445
O8 Si2 1.642220 1_455
O8 Ta1 1.974472 1_455
O9 P0 1.569707 1_555
O9 Ta2 2.046399 1_665
O10 P1 1.569571 1_455
O10 Ta2 1.996715 1_555
O11 Si0 1.675872 1_565
O11 Ta2 1.957270 1_565
O12 Si4 1.605683 1_555
O13 P2 1.536797 1_555
O14 Si5 1.607610 1_555
O15 Si6 1.610189 1_555
O16 Si7 1.603544 1_555
O17 Si8 1.604394 1_555
O18 Si8 1.637645 1_555
O18 Ta3 1.994349 1_554
O19 Si6 1.638772 1_555
O19 Ta3 1.996754 1_554
O20 Si7 1.632837 1_555
O20 Ta3 1.962284 1_554
O21 P2 1.580376 1_555
O21 Ta4 2.003438 1_555
O22 Si5 1.674682 1_555
O22 Ta4 1.915286 1_555
O23 Si4 1.675647 1_555
O23 Ta4 1.916980 1_555
O24 Si9 1.639571 1_555
O24 Ta5 1.962925 1_556
O25 Si10 1.639850 1_555
O25 Ta5 1.911864 1_556
O26 Si11 1.640780 1_555
O26 Ta5 1.959253 1_556
O27 Si12 1.627425 1_555
O27 Ta6 1.982705 1_555
O28 Si13 1.640943 1_555
O28 Ta6 1.940410 1_555
O29 Si14 1.627064 1_555
O29 Ta6 1.994215 1_555
O30 Si14 1.658524 1_555
O30 Ta7 1.980010 1_555
O31 Si12 1.659362 1_555
O31 Ta7 1.922068 1_555
O32 Si13 1.646332 1_555
O32 Ta7 1.968412 1_555
O33 Si10 1.654127 1_555
O33 Ta8 1.928780 1_555
O34 Si11 1.656718 1_555
O34 Ta8 1.935637 1_555
O35 Si9 1.657439 1_555
O35 Ta8 1.933179 1_555
O36 Si14 1.614472 1_555
O37 Si12 1.612252 1_555
O38 Si13 1.614372 1_555
O39 Si10 1.617567 1_555
O39 Ta0 2.001178 1_545
O40 Si11 1.623527 1_555
O40 Ta0 1.997989 1_555
O41 Si9 1.622704 1_555
O41 Ta0 1.993987 1_655
O42 Si4 1.641424 1_555
O42 Ta1 1.989090 1_545
O43 P2 1.540602 1_555
O43 Ta1 2.106032 1_445
O44 Si5 1.640967 1_555
O44 Ta1 1.989391 1_555
O45 Si6 1.690467 1_555
O45 Ta2 2.002011 1_665
O46 Si7 1.654014 1_555
O46 Ta2 1.991546 1_655
O47 Si8 1.660737 1_555
O47 Ta2 1.962445 1_555
O48 Si3 1.613332 1_555
O49 Si1 1.617157 1_555
O50 Si2 1.616529 1_555
O51 P0 1.526982 1_555
O52 P1 1.526598 1_555
O53 Si0 1.606449 1_555
O54 Si9 1.620716 1_555
O54 Ta3 1.999136 1_555
O55 Si10 1.618266 1_655
O55 Ta3 1.988282 1_555
O56 Si11 1.621358 1_545
O56 Ta3 1.995007 1_555
O57 Si12 1.648545 1_545
O57 Ta4 2.053625 1_555
O58 Si13 1.648622 1_555
O58 Ta4 2.057793 1_555
O59 Si14 1.660252 1_655
O59 Ta4 2.011174 1_555
O60 Si8 1.641283 1_555
O60 Ta5 2.004761 1_555
O61 Si6 1.649221 1_455
O61 Ta5 2.027055 1_555
O62 Si7 1.663182 1_565
O62 Ta5 2.046821 1_555
O63 P2 1.549476 1_565
O63 Ta6 2.072260 1_555
O64 Si5 1.648623 1_555
O64 Ta6 1.969281 1_555
O65 Si4 1.646652 1_455
O65 Ta6 1.965670 1_555
O66 Si0 1.698813 1_565
O66 Ta7 1.988986 1_555
O67 P0 1.570608 1_555
O67 Ta7 2.038520 1_555
O68 P1 1.589016 1_455
O68 Ta7 2.083689 1_555
O69 Si1 1.654759 1_555
O69 Ta8 2.046854 1_555
O70 Si2 1.654806 1_455
O70 Ta8 2.048794 1_555
O71 Si3 1.651518 1_565
O71 Ta8 2.042950 1_555
