# generated using pymatgen
data_MgBi4(WO6)2
_symmetry_space_group_name_H-M   'P 1'
_cell_length_a   3.98397154
_cell_length_b   8.76052866
_cell_length_c   8.46329001
_cell_angle_alpha   97.34209449
_cell_angle_beta   99.77323045
_cell_angle_gamma   92.65114368
_symmetry_Int_Tables_number   1
_chemical_formula_structural   MgBi4(WO6)2
_chemical_formula_sum   'Mg1 Bi4 W2 O12'
_cell_volume   288.01115096
_cell_formula_units_Z   1
loop_
 _symmetry_equiv_pos_site_id
 _symmetry_equiv_pos_as_xyz
  1  'x, y, z'
loop_
 _atom_site_type_symbol
 _atom_site_label
 _atom_site_symmetry_multiplicity
 _atom_site_fract_x
 _atom_site_fract_y
 _atom_site_fract_z
 _atom_site_occupancy
  Mg  Mg0  1  0.89563900  0.61817800  0.66029900  1
  Bi  Bi0  1  0.54224700  0.58963800  0.32809300  1
  Bi  Bi1  1  0.37224700  0.31951700  0.64781700  1
  Bi  Bi2  1  0.44448500  0.90512700  0.67365900  1
  Bi  Bi3  1  0.79457200  0.02647300  0.32184300  1
  W  W0  1  0.98957700  0.70696100  0.02056600  1
  W  W1  1  0.93398900  0.31812800  0.98756000  1
  O  O0  1  0.79372100  0.84881000  0.49738100  1
  O  O1  1  0.74054200  0.42072700  0.49118900  1
  O  O2  1  0.90878700  0.51516300  0.85870200  1
  O  O3  1  0.35690100  0.65349500  0.59280800  1
  O  O4  1  0.98146800  0.17871400  0.12952200  1
  O  O5  1  0.82755600  0.20212100  0.75975500  1
  O  O6  1  0.00512400  0.52012700  0.17146100  1
  O  O7  1  0.10758100  0.85569700  0.21322800  1
  O  O8  1  0.28139300  0.10168300  0.48250200  1
  O  O9  1  0.93280300  0.81581100  0.82794000  1
  O  O10  1  0.49923000  0.70616000  0.04135300  1
  O  O11  1  0.42547200  0.33028000  0.95838400  1
loop_
_geom_bond_atom_site_label_1
_geom_bond_atom_site_label_2
_geom_bond_distance
_geom_bond_site_symmetry_2
Mg0 O2 1.999632 1_555
Mg0 O3 2.036638 1_655
Mg0 O9 2.075975 1_555
Mg0 O1 2.095344 1_555
Mg0 O3 2.172338 1_555
Mg0 O0 2.597329 1_555
Bi0 O1 2.231378 1_555
Bi0 O6 2.327505 1_555
Bi0 O3 2.481318 1_555
Bi0 O6 2.501250 1_655
Bi0 O0 2.585030 1_555
Bi0 O10 2.732894 1_555
Bi1 O8 2.193638 1_555
Bi1 O5 2.254722 1_555
Bi1 O1 2.353001 1_555
Bi1 O11 2.589986 1_555
Bi1 O5 2.721169 1_455
Bi2 O3 2.216243 1_555
Bi2 O0 2.232730 1_555
Bi2 O9 2.375175 1_555
Bi2 O8 2.542284 1_565
Bi2 O9 2.736781 1_455
Bi2 O0 2.751591 1_455
Bi2 O5 2.898298 1_565
Bi3 O8 2.191350 1_655
Bi3 O7 2.201954 1_645
Bi3 O0 2.285117 1_545
Bi3 O4 2.420109 1_555
Bi3 O8 2.702271 1_555
O2 W0 2.003858 1_556
O2 W1 2.153816 1_555
O4 W1 1.813901 1_554
O5 W1 2.027692 1_555
O6 W1 2.175816 1_454
O6 W0 2.197841 1_455
O7 W0 1.928110 1_455
O9 W0 1.977446 1_556
O10 W0 1.990728 1_555
O10 W0 2.008497 1_455
O11 W1 2.008353 1_555
O11 W1 2.014413 1_455
