# generated using pymatgen
data_MgV2Cd2O7
_symmetry_space_group_name_H-M   'P 1'
_cell_length_a   5.46044211
_cell_length_b   5.93908675
_cell_length_c   5.93908673
_cell_angle_alpha   115.02397844
_cell_angle_beta   93.66111743
_cell_angle_gamma   93.66111839
_symmetry_Int_Tables_number   1
_chemical_formula_structural   MgV2Cd2O7
_chemical_formula_sum   'Mg1 V2 Cd2 O7'
_cell_volume   173.28746792
_cell_formula_units_Z   1
loop_
 _symmetry_equiv_pos_site_id
 _symmetry_equiv_pos_as_xyz
  1  'x, y, z'
loop_
 _atom_site_type_symbol
 _atom_site_label
 _atom_site_symmetry_multiplicity
 _atom_site_fract_x
 _atom_site_fract_y
 _atom_site_fract_z
 _atom_site_occupancy
  Mg  Mg0  1  0.38540666  0.09750230  0.09750230  1
  V  V0  1  0.88608816  0.25565027  0.25565027  1
  V  V1  1  0.11051274  0.72079142  0.72079142  1
  Cd  Cd0  1  0.51015636  0.33349220  0.69999712  1
  Cd  Cd1  1  0.51015636  0.69999712  0.33349220  1
  O  O0  1  0.32036296  0.94334611  0.66284634  1
  O  O1  1  0.66475451  0.34501979  0.06834219  1
  O  O2  1  0.66475451  0.06834219  0.34501979  1
  O  O3  1  0.32036296  0.66284634  0.94334611  1
  O  O4  1  0.01239744  0.99869470  0.99869470  1
  O  O5  1  0.80666001  0.56673852  0.56673852  1
  O  O6  1  0.22088734  0.39785703  0.39785703  1
loop_
_geom_bond_atom_site_label_1
_geom_bond_atom_site_label_2
_geom_bond_distance
_geom_bond_site_symmetry_2
Mg0 O4 2.059283 1_544
Mg0 O1 2.116708 1_555
Mg0 O2 2.116708 1_555
Mg0 O6 2.210985 1_555
Mg0 O0 2.338850 1_544
Mg0 O3 2.338850 1_544
Cd0 O3 2.246673 1_555
Cd0 O1 2.265639 1_556
Cd0 O2 2.285945 1_555
Cd0 O0 2.392347 1_545
Cd0 O5 2.443636 1_555
Cd0 O6 2.481233 1_555
Cd1 O0 2.246673 1_555
Cd1 O2 2.265639 1_565
Cd1 O1 2.285945 1_555
Cd1 O3 2.392347 1_554
Cd1 O5 2.443636 1_555
Cd1 O6 2.481233 1_555
O0 V1 1.849405 1_555
O1 V0 1.841099 1_555
O2 V0 1.841099 1_555
O3 V1 1.849405 1_555
O4 V0 1.852599 1_466
O4 V1 1.912208 1_555
O5 V1 1.825139 1_655
O5 V0 2.081354 1_555
O6 V0 1.941888 1_455
O6 V1 2.214377 1_555
