# generated using pymatgen
data_Fe2Se2O7
_symmetry_space_group_name_H-M   'P 1'
_cell_length_a   6.77930800
_cell_length_b   13.07031000
_cell_length_c   13.81222600
_cell_angle_alpha   90.00000000
_cell_angle_beta   90.00000000
_cell_angle_gamma   90.00000000
_symmetry_Int_Tables_number   1
_chemical_formula_structural   Fe2Se2O7
_chemical_formula_sum   'Fe16 Se16 O56'
_cell_volume   1223.86898582
_cell_formula_units_Z   8
loop_
 _symmetry_equiv_pos_site_id
 _symmetry_equiv_pos_as_xyz
  1  'x, y, z'
loop_
 _atom_site_type_symbol
 _atom_site_label
 _atom_site_symmetry_multiplicity
 _atom_site_fract_x
 _atom_site_fract_y
 _atom_site_fract_z
 _atom_site_occupancy
  Fe  Fe0  1  0.25000000  0.25000000  0.33548100  1
  Fe  Fe1  1  0.75000000  0.75000000  0.16451900  1
  Fe  Fe2  1  0.75000000  0.75000000  0.66451900  1
  Fe  Fe3  1  0.25000000  0.25000000  0.83548100  1
  Fe  Fe4  1  0.25000000  0.75000000  0.21058900  1
  Fe  Fe5  1  0.75000000  0.25000000  0.28941100  1
  Fe  Fe6  1  0.75000000  0.25000000  0.78941100  1
  Fe  Fe7  1  0.25000000  0.75000000  0.71058900  1
  Fe  Fe8  1  0.03176300  0.62140300  0.02672400  1
  Fe  Fe9  1  0.53176300  0.37859700  0.47327600  1
  Fe  Fe10  1  0.96823700  0.12140300  0.47327600  1
  Fe  Fe11  1  0.46823700  0.87859700  0.02672400  1
  Fe  Fe12  1  0.96823700  0.37859700  0.97327600  1
  Fe  Fe13  1  0.46823700  0.62140300  0.52672400  1
  Fe  Fe14  1  0.03176300  0.87859700  0.52672400  1
  Fe  Fe15  1  0.53176300  0.12140300  0.97327600  1
  Se  Se0  1  0.01196600  0.44797000  0.21655500  1
  Se  Se1  1  0.51196600  0.55203000  0.28344500  1
  Se  Se2  1  0.98803400  0.94797000  0.28344500  1
  Se  Se3  1  0.48803400  0.05203000  0.21655500  1
  Se  Se4  1  0.98803400  0.55203000  0.78344500  1
  Se  Se5  1  0.48803400  0.44797000  0.71655500  1
  Se  Se6  1  0.01196600  0.05203000  0.71655500  1
  Se  Se7  1  0.51196600  0.94797000  0.78344500  1
  Se  Se8  1  0.02628000  0.13497000  0.03566000  1
  Se  Se9  1  0.52628000  0.86503000  0.46434000  1
  Se  Se10  1  0.97372000  0.63497000  0.46434000  1
  Se  Se11  1  0.47372000  0.36503000  0.03566000  1
  Se  Se12  1  0.97372000  0.86503000  0.96434000  1
  Se  Se13  1  0.47372000  0.13497000  0.53566000  1
  Se  Se14  1  0.02628000  0.36503000  0.53566000  1
  Se  Se15  1  0.52628000  0.63497000  0.96434000  1
  O  O0  1  0.02246700  0.70394000  0.14594000  1
  O  O1  1  0.52246700  0.29606000  0.35406000  1
  O  O2  1  0.97753300  0.20394000  0.35406000  1
  O  O3  1  0.47753300  0.79606000  0.14594000  1
  O  O4  1  0.97753300  0.29606000  0.85406000  1
  O  O5  1  0.47753300  0.70394000  0.64594000  1
  O  O6  1  0.02246700  0.79606000  0.64594000  1
  O  O7  1  0.52246700  0.20394000  0.85406000  1
  O  O8  1  0.19514500  0.35977500  0.23198600  1
  O  O9  1  0.69514500  0.64022500  0.26801400  1
  O  O10  1  0.80485500  0.85977500  0.26801400  1
  O  O11  1  0.30485500  0.14022500  0.23198600  1
  O  O12  1  0.80485500  0.64022500  0.76801400  1
  O  O13  1  0.30485500  0.35977500  0.73198600  1
  O  O14  1  0.19514500  0.14022500  0.73198600  1
  O  O15  1  0.69514500  0.85977500  0.76801400  1
  O  O16  1  0.79768100  0.37570600  0.21959000  1
  O  O17  1  0.29768100  0.62429400  0.28041000  1
  O  O18  1  0.20231900  0.87570600  0.28041000  1
  O  O19  1  0.70231900  0.12429400  0.21959000  1
  O  O20  1  0.20231900  0.62429400  0.78041000  1
  O  O21  1  0.70231900  0.37570600  0.71959000  1
  O  O22  1  0.79768100  0.12429400  0.71959000  1
  O  O23  1  0.29768100  0.87570600  0.78041000  1
  O  O24  1  0.02016000  0.47377900  0.09026300  1
  O  O25  1  0.52016000  0.52622100  0.40973700  1
  O  O26  1  0.97984000  0.97377900  0.40973700  1
  O  O27  1  0.47984000  0.02622100  0.09026300  1
  O  O28  1  0.97984000  0.52622100  0.90973700  1
  O  O29  1  0.47984000  0.47377900  0.59026300  1
  O  O30  1  0.02016000  0.02622100  0.59026300  1
  O  O31  1  0.52016000  0.97377900  0.90973700  1
  O  O32  1  0.98181000  0.26116000  0.06139500  1
  O  O33  1  0.48181000  0.73884000  0.43860500  1
  O  O34  1  0.01819000  0.76116000  0.43860500  1
  O  O35  1  0.51819000  0.23884000  0.06139500  1
  O  O36  1  0.01819000  0.73884000  0.93860500  1
  O  O37  1  0.51819000  0.26116000  0.56139500  1
  O  O38  1  0.98181000  0.23884000  0.56139500  1
  O  O39  1  0.48181000  0.76116000  0.93860500  1
  O  O40  1  0.82786500  0.10184900  0.96312800  1
  O  O41  1  0.32786500  0.89815100  0.53687200  1
  O  O42  1  0.17213500  0.60184900  0.53687200  1
  O  O43  1  0.67213500  0.39815100  0.96312800  1
  O  O44  1  0.17213500  0.89815100  0.03687200  1
  O  O45  1  0.67213500  0.10184900  0.46312800  1
  O  O46  1  0.82786500  0.39815100  0.46312800  1
  O  O47  1  0.32786500  0.60184900  0.03687200  1
  O  O48  1  0.21484000  0.13810300  0.94678700  1
  O  O49  1  0.71484000  0.86189700  0.55321300  1
  O  O50  1  0.78516000  0.63810300  0.55321300  1
  O  O51  1  0.28516000  0.36189700  0.94678700  1
  O  O52  1  0.78516000  0.86189700  0.05321300  1
  O  O53  1  0.28516000  0.13810300  0.44678700  1
  O  O54  1  0.21484000  0.36189700  0.44678700  1
  O  O55  1  0.71484000  0.63810300  0.05321300  1
loop_
_geom_bond_atom_site_label_1
_geom_bond_atom_site_label_2
_geom_bond_distance
_geom_bond_site_symmetry_2
Fe0 O2 1.959642 1_455
Fe0 O1 1.959642 1_555
Fe0 O11 2.059220 1_555
Fe0 O8 2.059220 1_555
Fe0 O53 2.135264 1_555
Fe0 O54 2.135264 1_555
Fe1 O0 1.959642 1_655
Fe1 O3 1.959642 1_555
Fe1 O9 2.059220 1_555
Fe1 O10 2.059220 1_555
Fe1 O52 2.135264 1_555
Fe1 O55 2.135264 1_555
Fe2 O6 1.959642 1_655
Fe2 O5 1.959642 1_555
Fe2 O12 2.059220 1_555
Fe2 O15 2.059220 1_555
Fe2 O49 2.135264 1_555
Fe2 O50 2.135264 1_555
Fe3 O4 1.959642 1_455
Fe3 O7 1.959642 1_555
Fe3 O13 2.059220 1_555
Fe3 O14 2.059220 1_555
Fe3 O48 2.135264 1_555
Fe3 O51 2.135264 1_555
Fe4 O3 1.881259 1_555
Fe4 O0 1.881259 1_555
Fe4 O18 1.932363 1_555
Fe4 O17 1.932363 1_555
Fe5 O1 1.881259 1_555
Fe5 O2 1.881259 1_555
Fe5 O16 1.932363 1_555
Fe5 O19 1.932363 1_555
Fe6 O4 1.881259 1_555
Fe6 O7 1.881259 1_555
Fe6 O21 1.932363 1_555
Fe6 O22 1.932363 1_555
Fe7 O5 1.881259 1_555
Fe7 O6 1.881259 1_555
Fe7 O23 1.932363 1_555
Fe7 O20 1.932363 1_555
Fe8 O36 1.961092 1_554
Fe8 O0 1.969560 1_555
Fe8 O47 2.028420 1_555
Fe8 O28 2.069435 1_454
Fe8 O24 2.121163 1_555
Fe8 O55 2.190351 1_455
Fe9 O37 1.961092 1_555
Fe9 O1 1.969560 1_555
Fe9 O46 2.028420 1_555
Fe9 O29 2.069435 1_555
Fe9 O25 2.121163 1_555
Fe9 O54 2.190351 1_555
Fe10 O38 1.961092 1_555
Fe10 O2 1.969560 1_555
Fe10 O45 2.028420 1_555
Fe10 O30 2.069435 1_655
Fe10 O26 2.121163 1_545
Fe10 O53 2.190351 1_655
Fe11 O39 1.961092 1_554
Fe11 O3 1.969560 1_555
Fe11 O44 2.028420 1_555
Fe11 O31 2.069435 1_554
Fe11 O27 2.121163 1_565
Fe11 O52 2.190351 1_555
Fe12 O32 1.961092 1_556
Fe12 O4 1.969560 1_555
Fe12 O43 2.028420 1_555
Fe12 O24 2.069435 1_656
Fe12 O28 2.121163 1_555
Fe12 O51 2.190351 1_655
Fe13 O33 1.961092 1_555
Fe13 O5 1.969560 1_555
Fe13 O42 2.028420 1_555
Fe13 O25 2.069435 1_555
Fe13 O29 2.121163 1_555
Fe13 O50 2.190351 1_555
Fe14 O34 1.961092 1_555
Fe14 O6 1.969560 1_555
Fe14 O41 2.028420 1_555
Fe14 O26 2.069435 1_455
Fe14 O30 2.121163 1_565
Fe14 O49 2.190351 1_455
Fe15 O35 1.961092 1_556
Fe15 O7 1.969560 1_555
Fe15 O40 2.028420 1_555
Fe15 O27 2.069435 1_556
Fe15 O31 2.121163 1_545
Fe15 O48 2.190351 1_555
O8 Se0 1.707736 1_555
O9 Se1 1.707736 1_555
O10 Se2 1.707736 1_555
O11 Se3 1.707736 1_555
O12 Se4 1.707736 1_555
O13 Se5 1.707736 1_555
O14 Se6 1.707736 1_555
O15 Se7 1.707736 1_555
O16 Se0 1.733266 1_655
O17 Se1 1.733266 1_555
O18 Se2 1.733266 1_455
O19 Se3 1.733266 1_555
O20 Se4 1.733266 1_455
O21 Se5 1.733266 1_555
O22 Se6 1.733266 1_655
O23 Se7 1.733266 1_555
O24 Se0 1.777560 1_555
O25 Se1 1.777560 1_555
O26 Se2 1.777560 1_555
O27 Se3 1.777560 1_555
O28 Se4 1.777560 1_555
O29 Se5 1.777560 1_555
O30 Se6 1.777560 1_555
O31 Se7 1.777560 1_555
O32 Se8 1.713934 1_655
O33 Se9 1.713934 1_555
O34 Se10 1.713934 1_455
O35 Se11 1.713934 1_555
O36 Se12 1.713934 1_455
O37 Se13 1.713934 1_555
O38 Se14 1.713934 1_655
O39 Se15 1.713934 1_555
O40 Se8 1.732167 1_656
O41 Se9 1.732167 1_555
O42 Se10 1.732167 1_455
O43 Se11 1.732167 1_556
O44 Se12 1.732167 1_454
O45 Se13 1.732167 1_555
O46 Se14 1.732167 1_655
O47 Se15 1.732167 1_554
O48 Se8 1.772733 1_556
O49 Se9 1.772733 1_555
O50 Se10 1.772733 1_555
O51 Se11 1.772733 1_556
O52 Se12 1.772733 1_554
O53 Se13 1.772733 1_555
O54 Se14 1.772733 1_555
O55 Se15 1.772733 1_554
