# generated using pymatgen
data_Tb2Mg(NiO3)2
_symmetry_space_group_name_H-M   'P 1'
_cell_length_a   6.21094727
_cell_length_b   6.21087097
_cell_length_c   6.21088066
_cell_angle_alpha   53.34589305
_cell_angle_beta   53.34514622
_cell_angle_gamma   53.34530917
_symmetry_Int_Tables_number   1
_chemical_formula_structural   Tb2Mg(NiO3)2
_chemical_formula_sum   'Tb2 Mg1 Ni2 O6'
_cell_volume   143.01994517
_cell_formula_units_Z   1
loop_
 _symmetry_equiv_pos_site_id
 _symmetry_equiv_pos_as_xyz
  1  'x, y, z'
loop_
 _atom_site_type_symbol
 _atom_site_label
 _atom_site_symmetry_multiplicity
 _atom_site_fract_x
 _atom_site_fract_y
 _atom_site_fract_z
 _atom_site_occupancy
  Tb  Tb0  1  0.17199720  0.17199301  0.17199390  1
  Tb  Tb1  1  0.79950246  0.79950305  0.79949493  1
  Mg  Mg0  1  0.36668246  0.36668083  0.36667666  1
  Ni  Ni0  1  0.99214164  0.99211798  0.99212858  1
  Ni  Ni1  1  0.57165192  0.57166848  0.57167448  1
  O  O0  1  0.09734280  0.76109876  0.37453092  1
  O  O1  1  0.21999613  0.60570805  0.91435143  1
  O  O2  1  0.60570142  0.91436462  0.21999434  1
  O  O3  1  0.37453014  0.09734082  0.76110148  1
  O  O4  1  0.76109996  0.37453013  0.09734552  1
  O  O5  1  0.91435386  0.21999428  0.60570776  1
loop_
_geom_bond_atom_site_label_1
_geom_bond_atom_site_label_2
_geom_bond_distance
_geom_bond_site_symmetry_2
Mg0 O0 1.988494 1_555
Mg0 O4 1.988496 1_555
Mg0 O3 1.988534 1_555
Mg0 O2 2.717964 1_545
Mg0 O1 2.718055 1_554
Mg0 O5 2.718074 1_455
Ni0 O1 2.123342 1_655
Ni0 O5 2.123442 1_565
Ni0 O2 2.123452 1_556
Ni0 O3 2.188893 1_665
Ni0 O0 2.188899 1_656
Ni0 O4 2.188951 1_566
Ni1 O1 1.944346 1_555
Ni1 O5 1.944474 1_555
Ni1 O2 1.944486 1_555
O0 Tb1 2.200113 1_455
O0 Tb0 2.278955 1_565
O1 Tb0 2.269011 1_556
O1 Tb1 2.494881 1_455
O2 Tb0 2.268980 1_565
O2 Tb1 2.494877 1_554
O3 Tb1 2.200159 1_545
O3 Tb0 2.278922 1_556
O4 Tb1 2.200177 1_554
O4 Tb0 2.278970 1_655
O5 Tb0 2.268989 1_655
O5 Tb1 2.494842 1_545
