# generated using pymatgen
data_Na6La8Si3(S3O16)3
_symmetry_space_group_name_H-M   'P 1'
_cell_length_a   19.17899489
_cell_length_b   9.57850790
_cell_length_c   25.01704576
_cell_angle_alpha   89.98679695
_cell_angle_beta   89.49739647
_cell_angle_gamma   119.87845780
_symmetry_Int_Tables_number   1
_chemical_formula_structural   Na6La8Si3(S3O16)3
_chemical_formula_sum   'Na18 La24 Si9 S27 O144'
_cell_volume   3984.72297170
_cell_formula_units_Z   3
loop_
 _symmetry_equiv_pos_site_id
 _symmetry_equiv_pos_as_xyz
  1  'x, y, z'
loop_
 _atom_site_type_symbol
 _atom_site_label
 _atom_site_symmetry_multiplicity
 _atom_site_fract_x
 _atom_site_fract_y
 _atom_site_fract_z
 _atom_site_occupancy
  Na  Na0  1  0.00616237  0.65154150  0.25448884  1
  Na  Na1  1  0.50561976  0.36175842  0.73873026  1
  Na  Na2  1  0.16126949  0.30480074  0.91036701  1
  Na  Na3  1  0.66061705  0.30457458  0.91018607  1
  Na  Na4  1  0.16258955  0.02126379  0.41758303  1
  Na  Na5  1  0.65805635  0.00749614  0.41764086  1
  Na  Na6  1  0.99252616  0.97777702  0.49917905  1
  Na  Na7  1  0.49213363  0.00296045  0.50538131  1
  Na  Na8  1  0.99453955  0.01117075  0.99203484  1
  Na  Na9  1  0.49287239  0.00912377  0.99447045  1
  Na  Na10  1  0.32855739  0.33121188  0.82251067  1
  Na  Na11  1  0.84064349  0.33480706  0.82612031  1
  Na  Na12  1  0.34752790  0.36030366  0.33893210  1
  Na  Na13  1  0.82921087  0.32815209  0.33661657  1
  Na  Na14  1  0.17667873  0.69232115  0.17298764  1
  Na  Na15  1  0.66293472  0.68706747  0.17650103  1
  Na  Na16  1  0.16823092  0.64275499  0.67290740  1
  Na  Na17  1  0.66033724  0.63954394  0.66061398  1
  La  La0  1  0.00202375  0.99737616  0.34996933  1
  La  La1  1  0.50230870  0.99061146  0.34791269  1
  La  La2  1  0.00341931  0.01647234  0.84570476  1
  La  La3  1  0.50219030  0.00810823  0.84739292  1
  La  La4  1  0.00826634  0.01680185  0.65285170  1
  La  La5  1  0.50576956  0.01838773  0.64836868  1
  La  La6  1  0.00700571  0.00521571  0.15082229  1
  La  La7  1  0.50763262  0.99968350  0.15269219  1
  La  La8  1  0.32911318  0.33318041  0.68017863  1
  La  La9  1  0.82547753  0.33450265  0.68577351  1
  La  La10  1  0.32671470  0.31857591  0.18724866  1
  La  La11  1  0.82076541  0.31063477  0.18521908  1
  La  La12  1  0.34384364  0.33245725  0.98068376  1
  La  La13  1  0.84391445  0.33383465  0.98164394  1
  La  La14  1  0.35092107  0.35429308  0.48573185  1
  La  La15  1  0.84313875  0.35443301  0.48195550  1
  La  La16  1  0.16047616  0.65874206  0.01581753  1
  La  La17  1  0.65971200  0.65752812  0.01569301  1
  La  La18  1  0.16092086  0.66253206  0.51576984  1
  La  La19  1  0.65105619  0.64737965  0.51920104  1
  La  La20  1  0.16518151  0.66945614  0.31807091  1
  La  La21  1  0.65936878  0.66993139  0.31576196  1
  La  La22  1  0.15916468  0.64681944  0.81363672  1
  La  La23  1  0.66368715  0.65876797  0.81586694  1
  Si  Si0  1  0.14870710  0.99287418  0.25201984  1
  Si  Si1  1  0.65231961  0.99737412  0.25234930  1
  Si  Si2  1  0.15627042  0.30602900  0.75259590  1
  Si  Si3  1  0.65035112  0.30339784  0.75417443  1
  Si  Si4  1  0.48552758  0.33214747  0.58932667  1
  Si  Si5  1  0.01811538  0.36035699  0.91792161  1
  Si  Si6  1  0.51829995  0.36115673  0.91487653  1
  Si  Si7  1  0.01766633  0.67185767  0.41346608  1
  Si  Si8  1  0.51583140  0.67280720  0.41600197  1
  S  S0  1  0.34791242  0.69752028  0.24835799  1
  S  S1  1  0.85232447  0.69952414  0.24824251  1
  S  S2  1  0.99965638  0.30598984  0.24872933  1
  S  S3  1  0.49978090  0.30010542  0.24873491  1
  S  S4  1  0.99865989  0.69859333  0.74928824  1
  S  S5  1  0.49891470  0.69446204  0.74975497  1
  S  S6  1  0.35007706  0.00297957  0.75017746  1
  S  S7  1  0.84885293  0.00133957  0.74915164  1
  S  S8  1  0.98226892  0.33144948  0.58424045  1
  S  S9  1  0.18104092  0.02993112  0.57935428  1
  S  S10  1  0.68672320  0.03640638  0.58043269  1
  S  S11  1  0.33123005  0.63967200  0.58280467  1
  S  S12  1  0.83562318  0.64183433  0.58368112  1
  S  S13  1  0.48206773  0.63312646  0.08427508  1
  S  S14  1  0.98282446  0.63366980  0.08648824  1
  S  S15  1  0.33361645  0.02769491  0.08380409  1
  S  S16  1  0.83355987  0.02642416  0.08316082  1
  S  S17  1  0.18508958  0.33574622  0.08095452  1
  S  S18  1  0.68313159  0.33358537  0.07998070  1
  S  S19  1  0.31425291  0.66261258  0.91781260  1
  S  S20  1  0.81543150  0.66376453  0.91839752  1
  S  S21  1  0.16616813  0.97113557  0.91718991  1
  S  S22  1  0.66672474  0.97299145  0.91808056  1
  S  S23  1  0.31482475  0.96768833  0.41730598  1
  S  S24  1  0.81360191  0.96517831  0.41809950  1
  S  S25  1  0.16700696  0.36059441  0.41720344  1
  S  S26  1  0.66786404  0.36171468  0.41584381  1
  O  O0  1  0.10772815  0.01104716  0.30778731  1
  O  O1  1  0.61044339  0.01059724  0.30805673  1
  O  O2  1  0.39276362  0.77749223  0.29758307  1
  O  O3  1  0.90001019  0.78148359  0.29677591  1
  O  O4  1  0.49189850  0.20659040  0.29766059  1
  O  O5  1  0.99038931  0.21039188  0.29756134  1
  O  O6  1  0.11368266  0.21279172  0.80991888  1
  O  O7  1  0.61313868  0.20817153  0.81166726  1
  O  O8  1  0.49321670  0.77542293  0.79901899  1
  O  O9  1  0.99131788  0.77776238  0.79838424  1
  O  O10  1  0.39784504  0.01326388  0.79850719  1
  O  O11  1  0.89482981  0.01275581  0.79841035  1
  O  O12  1  0.38894390  0.98165547  0.70198956  1
  O  O13  1  0.89114203  0.98665705  0.70138741  1
  O  O14  1  0.09737205  0.19881370  0.70299224  1
  O  O15  1  0.58855897  0.20073208  0.70588230  1
  O  O16  1  0.00121989  0.79140208  0.70106863  1
  O  O17  1  0.50161773  0.78549356  0.70162515  1
  O  O18  1  0.39008799  0.79605634  0.20044792  1
  O  O19  1  0.89172911  0.80014055  0.20022584  1
  O  O20  1  0.00325746  0.21991507  0.20051438  1
  O  O21  1  0.50251888  0.21250071  0.20036287  1
  O  O22  1  0.08797523  0.97441712  0.20243118  1
  O  O23  1  0.59809845  0.99267883  0.20069598  1
  O  O24  1  0.44128508  0.33857241  0.64552273  1
  O  O25  1  0.94008017  0.34252155  0.63235212  1
  O  O26  1  0.22890928  0.11676360  0.62705268  1
  O  O27  1  0.73441427  0.12792588  0.62782233  1
  O  O28  1  0.32240759  0.54180345  0.63133457  1
  O  O29  1  0.82916890  0.54361606  0.63172473  1
  O  O30  1  0.43985033  0.53725094  0.13226097  1
  O  O31  1  0.94316352  0.54278192  0.13599591  1
  O  O32  1  0.32689727  0.11233292  0.13177153  1
  O  O33  1  0.82677741  0.10958384  0.13160850  1
  O  O34  1  0.23297885  0.34315100  0.12851497  1
  O  O35  1  0.73145415  0.34358095  0.12767482  1
  O  O36  1  0.22414390  0.32401898  0.03110351  1
  O  O37  1  0.72321123  0.32183842  0.03059583  1
  O  O38  1  0.43685532  0.55103790  0.03513985  1
  O  O39  1  0.93502714  0.54666423  0.03872932  1
  O  O40  1  0.33975961  0.12311250  0.03501957  1
  O  O41  1  0.84064324  0.12433073  0.03496585  1
  O  O42  1  0.21993500  0.11951667  0.52944185  1
  O  O43  1  0.72640697  0.12809812  0.53061278  1
  O  O44  1  0.33594636  0.55494484  0.53431336  1
  O  O45  1  0.84238978  0.55779320  0.53516664  1
  O  O46  1  0.43299153  0.32917255  0.53720344  1
  O  O47  1  0.93704722  0.32328689  0.53515614  1
  O  O48  1  0.27564828  0.68456535  0.96642673  1
  O  O49  1  0.77625185  0.68529909  0.96664624  1
  O  O50  1  0.07333987  0.45590845  0.97028343  1
  O  O51  1  0.57737123  0.46316041  0.96524190  1
  O  O52  1  0.16219471  0.87884353  0.96610844  1
  O  O53  1  0.66315439  0.87970498  0.96635711  1
  O  O54  1  0.27519391  0.86787573  0.46549210  1
  O  O55  1  0.77509514  0.86741974  0.46618114  1
  O  O56  1  0.16287779  0.44687454  0.46520781  1
  O  O57  1  0.66436799  0.44536995  0.46475400  1
  O  O58  1  0.07866368  0.68925821  0.46246772  1
  O  O59  1  0.57283642  0.69384486  0.46748802  1
  O  O60  1  0.05626385  0.65349202  0.35646114  1
  O  O61  1  0.56228460  0.65806039  0.36278043  1
  O  O62  1  0.26744589  0.88219965  0.36894512  1
  O  O63  1  0.76720747  0.88405478  0.36906605  1
  O  O64  1  0.17464010  0.45518035  0.36822057  1
  O  O65  1  0.67778662  0.45872241  0.36743060  1
  O  O66  1  0.06346278  0.46725666  0.86497347  1
  O  O67  1  0.55995452  0.46193299  0.85983065  1
  O  O68  1  0.17627896  0.89450469  0.86903914  1
  O  O69  1  0.67675355  0.89763773  0.86935546  1
  O  O70  1  0.26700367  0.65042069  0.86973049  1
  O  O71  1  0.76785524  0.64979184  0.87007685  1
  O  O72  1  0.01577787  0.84336732  0.41521968  1
  O  O73  1  0.51337737  0.84333434  0.41403261  1
  O  O74  1  0.39796683  0.99889260  0.41325527  1
  O  O75  1  0.89779673  0.99745936  0.41342582  1
  O  O76  1  0.09140762  0.19947993  0.41589080  1
  O  O77  1  0.59364575  0.20019780  0.41384111  1
  O  O78  1  0.01533520  0.18467491  0.91683847  1
  O  O79  1  0.51500544  0.18477756  0.91608790  1
  O  O80  1  0.09151173  0.98429828  0.91543000  1
  O  O81  1  0.59182316  0.98484781  0.91664150  1
  O  O82  1  0.39813306  0.79903520  0.91412591  1
  O  O83  1  0.89897259  0.80050761  0.91429281  1
  O  O84  1  0.49439220  0.16971381  0.58528508  1
  O  O85  1  0.99020690  0.18445393  0.58532227  1
  O  O86  1  0.09889272  0.01136961  0.58335176  1
  O  O87  1  0.60448398  0.01513083  0.58372544  1
  O  O88  1  0.40501670  0.79909298  0.58539544  1
  O  O89  1  0.90952076  0.80282550  0.58604357  1
  O  O90  1  0.48995548  0.79587146  0.08549946  1
  O  O91  1  0.99045500  0.79628670  0.08652049  1
  O  O92  1  0.40674556  0.01188706  0.08613715  1
  O  O93  1  0.90688662  0.01105634  0.08562133  1
  O  O94  1  0.10291562  0.19033365  0.08461715  1
  O  O95  1  0.60139781  0.18788922  0.08381696  1
  O  O96  1  0.35061323  0.15982350  0.74791767  1
  O  O97  1  0.84344070  0.15131421  0.74623316  1
  O  O98  1  0.24503603  0.31981069  0.74902119  1
  O  O99  1  0.74101680  0.32615968  0.74751319  1
  O  O100  1  0.42844453  0.52624150  0.74929226  1
  O  O101  1  0.92767654  0.53254752  0.74727206  1
  O  O102  1  0.34202967  0.53660639  0.24543719  1
  O  O103  1  0.85428435  0.54493493  0.24426270  1
  O  O104  1  0.42881595  0.32460955  0.24602386  1
  O  O105  1  0.93025674  0.33632925  0.24579194  1
  O  O106  1  0.23843974  0.15040870  0.24470637  1
  O  O107  1  0.74214952  0.16260016  0.24893085  1
  O  O108  1  0.31366128  0.50552214  0.92196797  1
  O  O109  1  0.81495797  0.50671130  0.92265286  1
  O  O110  1  0.42794404  0.33870858  0.92116166  1
  O  O111  1  0.92715366  0.33676642  0.92161266  1
  O  O112  1  0.23554608  0.14104478  0.92074239  1
  O  O113  1  0.73596386  0.14244641  0.92148583  1
  O  O114  1  0.31237325  0.12160706  0.42014615  1
  O  O115  1  0.81370700  0.12302215  0.42107430  1
  O  O116  1  0.23579763  0.32982841  0.41954137  1
  O  O117  1  0.73781095  0.33100951  0.41853311  1
  O  O118  1  0.42554730  0.51387725  0.41762429  1
  O  O119  1  0.92722428  0.51380110  0.41971046  1
  O  O120  1  0.17748932  0.48324785  0.08100277  1
  O  O121  1  0.67550018  0.48067357  0.07947891  1
  O  O122  1  0.06492627  0.65249322  0.08278453  1
  O  O123  1  0.56429144  0.65195338  0.08205473  1
  O  O124  1  0.26003185  0.86571154  0.08168117  1
  O  O125  1  0.76045213  0.86526039  0.08023435  1
  O  O126  1  0.17333375  0.86725318  0.57921604  1
  O  O127  1  0.68220931  0.87731567  0.58065980  1
  O  O128  1  0.25865833  0.65870533  0.58024629  1
  O  O129  1  0.76287142  0.65753095  0.58106027  1
  O  O130  1  0.06435943  0.47700731  0.58194789  1
  O  O131  1  0.57536549  0.49599829  0.58721033  1
  O  O132  1  0.15092632  0.82190310  0.25118032  1
  O  O133  1  0.66286968  0.83758848  0.24952904  1
  O  O134  1  0.26566161  0.67656300  0.25019987  1
  O  O135  1  0.76902931  0.66780516  0.25245142  1
  O  O136  1  0.07437061  0.46712830  0.25027019  1
  O  O137  1  0.57490285  0.45988670  0.24933166  1
  O  O138  1  0.16363226  0.48538586  0.74996994  1
  O  O139  1  0.65255388  0.47858635  0.75322757  1
  O  O140  1  0.07370458  0.68891923  0.75013401  1
  O  O141  1  0.57319445  0.67973627  0.75088775  1
  O  O142  1  0.26702109  0.86702629  0.75463960  1
  O  O143  1  0.76743795  0.85907122  0.75209402  1
loop_
_geom_bond_atom_site_label_1
_geom_bond_atom_site_label_2
_geom_bond_distance
_geom_bond_site_symmetry_2
Na0 O132 2.420777 1_555
Na0 O103 2.577337 1_455
Na0 O105 2.628539 1_455
Na0 O136 2.672552 1_555
Na0 O60 2.730686 1_555
Na1 O139 2.490259 1_555
Na1 O24 2.605119 1_555
Na1 O96 2.625027 1_555
Na1 O100 2.656986 1_555
Na1 O141 2.668948 1_555
Na1 O15 2.829604 1_555
Na2 O78 2.442783 1_555
Na2 O108 2.596055 1_555
Na2 O112 2.605681 1_555
Na2 O80 2.671181 1_545
Na2 O6 2.676618 1_555
Na3 O79 2.436702 1_555
Na3 O113 2.612018 1_555
Na3 O109 2.629547 1_555
Na3 O7 2.637993 1_555
Na3 O81 2.667594 1_545
Na4 O72 2.461285 1_545
Na4 O114 2.536268 1_555
Na4 O116 2.564370 1_555
Na4 O76 2.665038 1_555
Na4 O0 2.934217 1_555
Na4 O58 2.971797 1_545
Na4 O42 2.991686 1_555
Na5 O73 2.416094 1_545
Na5 O115 2.618542 1_555
Na5 O77 2.686224 1_555
Na5 O117 2.687146 1_555
Na5 O59 2.884885 1_545
Na5 O1 2.901953 1_555
Na6 O72 2.612462 1_655
Na6 O89 2.710086 1_555
Na6 O86 2.849742 1_665
Na6 O75 2.889307 1_555
Na6 O76 2.892022 1_665
Na6 O85 2.941644 1_565
Na7 O84 2.546166 1_555
Na7 O88 2.701953 1_545
Na7 O87 2.884770 1_555
Na7 O73 2.886556 1_545
Na7 O74 2.928812 1_545
Na7 O77 2.976440 1_555
Na8 O78 2.405181 1_655
Na8 O83 2.755567 1_545
Na8 O80 2.759087 1_645
Na8 O93 2.869962 1_556
Na9 O79 2.475566 1_555
Na9 O82 2.795351 1_545
Na9 O81 2.796726 1_545
Na9 O92 2.822280 1_556
Na9 O95 2.965264 1_556
Na9 O90 3.040273 1_546
Na10 O98 2.415653 1_555
Na10 O100 2.624159 1_555
Na10 O96 2.652488 1_555
Na11 O101 2.656167 1_555
Na11 O97 2.679522 1_555
Na11 O99 2.726407 1_555
Na11 O111 2.915266 1_555
Na12 O118 2.477586 1_555
Na12 O116 2.836285 1_555
Na12 O114 2.871921 1_555
Na12 O104 2.901315 1_555
Na12 O102 2.917804 1_555
Na13 O117 2.694084 1_555
Na13 O107 2.746360 1_555
Na13 O119 2.785113 1_555
Na13 O115 2.796114 1_555
Na13 O105 2.948895 1_555
Na13 O103 2.977314 1_555
Na14 O132 2.491184 1_555
Na14 O134 2.642117 1_555
Na14 O124 2.796517 1_555
Na14 O136 2.820537 1_555
Na14 O122 3.016983 1_555
Na14 O120 3.055925 1_555
Na15 O133 2.327958 1_555
Na15 O137 2.681274 1_555
Na15 O135 2.868157 1_555
Na15 O123 2.952933 1_555
Na15 O125 2.991610 1_555
Na16 O138 2.420712 1_555
Na16 O140 2.820001 1_555
Na16 O128 2.840791 1_555
Na16 O142 2.898303 1_555
Na16 O130 2.932118 1_555
Na17 O131 2.395760 1_555
Na17 O129 2.729712 1_555
Na17 O139 2.744144 1_555
Na17 O127 2.897439 1_555
Na17 O141 2.935478 1_555
La0 O0 2.222299 1_565
La0 O72 2.303153 1_555
La0 O3 2.427148 1_455
La0 O76 2.480062 1_565
La0 O5 2.527723 1_465
La0 O75 2.542033 1_455
La1 O1 2.213597 1_565
La1 O73 2.252712 1_555
La1 O2 2.437432 1_555
La1 O4 2.512925 1_565
La1 O77 2.523401 1_565
La1 O74 2.604607 1_555
La2 O6 2.194006 1_555
La2 O78 2.335893 1_555
La2 O11 2.389124 1_455
La2 O9 2.482066 1_445
La2 O80 2.561705 1_545
La2 O83 2.654358 1_445
La3 O7 2.214059 1_555
La3 O79 2.339189 1_555
La3 O10 2.375802 1_555
La3 O8 2.466640 1_545
La3 O81 2.537656 1_545
La3 O82 2.595859 1_545
La4 O14 2.145599 1_555
La4 O16 2.416564 1_545
La4 O13 2.430935 1_445
La4 O86 2.466562 1_555
La4 O85 2.473044 1_455
La4 O89 2.602035 1_445
La5 O15 2.218132 1_555
La5 O84 2.226952 1_555
La5 O12 2.470859 1_545
La5 O87 2.491140 1_555
La5 O17 2.564679 1_545
La5 O88 2.576615 1_545
La6 O22 2.157996 1_545
La6 O19 2.428603 1_445
La6 O20 2.434478 1_555
La6 O94 2.442623 1_555
La6 O91 2.463927 1_445
La6 O93 2.552014 1_455
La7 O23 2.146991 1_555
La7 O21 2.405304 1_565
La7 O18 2.425821 1_555
La7 O90 2.470589 1_555
La7 O95 2.483335 1_565
La7 O92 2.609901 1_565
La8 O24 2.288924 1_555
La8 O98 2.308277 1_555
La8 O28 2.400112 1_555
La8 O26 2.415320 1_555
La8 O96 2.547983 1_555
La8 O100 2.566666 1_555
La9 O99 2.200696 1_555
La9 O27 2.381173 1_555
La9 O29 2.387692 1_555
La9 O97 2.468906 1_555
La9 O101 2.481357 1_555
La9 O25 2.530463 1_555
La10 O106 2.183190 1_555
La10 O32 2.415963 1_555
La10 O34 2.431898 1_555
La10 O104 2.436741 1_555
La10 O102 2.442239 1_555
La10 O30 2.530990 1_555
La11 O107 2.156647 1_555
La11 O35 2.384877 1_555
La11 O33 2.395902 1_555
La11 O103 2.492485 1_555
La11 O105 2.511507 1_555
La11 O31 2.592072 1_555
La12 O110 2.164289 1_555
La12 O40 2.390638 1_556
La12 O38 2.396759 1_556
La12 O112 2.487178 1_555
La12 O108 2.492104 1_555
La12 O36 2.575297 1_556
La13 O111 2.172117 1_555
La13 O41 2.383741 1_556
La13 O39 2.396833 1_556
La13 O109 2.481501 1_555
La13 O113 2.487279 1_555
La13 O37 2.560697 1_556
La14 O46 2.146232 1_555
La14 O118 2.250427 1_555
La14 O44 2.407981 1_555
La14 O114 2.566597 1_555
La14 O42 2.624110 1_555
La14 O116 2.687147 1_555
La15 O119 2.204068 1_555
La15 O45 2.365431 1_555
La15 O47 2.383574 1_555
La15 O117 2.500665 1_555
La15 O43 2.511805 1_555
La15 O115 2.514279 1_555
La16 O50 2.159773 1_554
La16 O48 2.423781 1_554
La16 O52 2.433330 1_554
La16 O122 2.450575 1_555
La16 O120 2.479114 1_555
La16 O124 2.564407 1_555
La17 O51 2.158654 1_554
La17 O53 2.431869 1_554
La17 O49 2.435451 1_554
La17 O123 2.440795 1_555
La17 O121 2.454790 1_555
La17 O125 2.554433 1_555
La18 O58 2.184407 1_555
La18 O54 2.430974 1_555
La18 O56 2.438452 1_555
La18 O126 2.442164 1_555
La18 O130 2.448370 1_555
La18 O128 2.497678 1_555
La19 O59 2.195746 1_555
La19 O131 2.227766 1_555
La19 O57 2.480292 1_555
La19 O127 2.505652 1_555
La19 O55 2.609351 1_555
La19 O129 2.617968 1_555
La20 O60 2.226183 1_555
La20 O132 2.326352 1_555
La20 O62 2.383710 1_555
La20 O64 2.488615 1_555
La20 O136 2.521239 1_555
La20 O134 2.532428 1_555
La21 O61 2.148035 1_555
La21 O133 2.284364 1_555
La21 O63 2.466923 1_555
La21 O137 2.497098 1_555
La21 O65 2.570443 1_555
La21 O135 2.629940 1_555
La22 O66 2.188352 1_555
La22 O138 2.250772 1_555
La22 O140 2.465112 1_555
La22 O70 2.495583 1_555
La22 O142 2.550339 1_555
La22 O68 2.625058 1_555
La23 O67 2.223935 1_555
La23 O139 2.262704 1_555
La23 O71 2.461011 1_555
La23 O141 2.468133 1_555
La23 O143 2.514965 1_555
La23 O69 2.554294 1_555
O0 Si0 1.646688 1_545
O1 Si1 1.638626 1_545
O2 S0 1.485175 1_555
O3 S1 1.493821 1_555
O4 S3 1.478054 1_555
O5 S2 1.481885 1_555
O6 Si2 1.665329 1_555
O7 Si3 1.656154 1_555
O8 S5 1.488200 1_555
O9 S4 1.485675 1_555
O10 S6 1.496808 1_555
O11 S7 1.493703 1_555
O12 S6 1.478750 1_565
O13 S7 1.483966 1_565
O14 Si2 1.655287 1_555
O15 Si3 1.641839 1_555
O16 S4 1.484199 1_455
O17 S5 1.471780 1_555
O18 S0 1.484419 1_555
O19 S1 1.483510 1_555
O20 S2 1.481605 1_455
O21 S3 1.488134 1_555
O22 Si0 1.657480 1_555
O23 Si1 1.652347 1_555
O24 Si4 1.652684 1_555
O25 S8 1.477533 1_555
O26 S9 1.489100 1_555
O27 S10 1.493734 1_555
O28 S11 1.489707 1_555
O29 S12 1.491920 1_555
O30 S13 1.477047 1_555
O31 S14 1.481103 1_555
O32 S15 1.488517 1_555
O33 S16 1.490405 1_555
O34 S17 1.489496 1_555
O35 S18 1.490898 1_555
O36 S17 1.482052 1_555
O37 S18 1.483067 1_555
O38 S13 1.490294 1_555
O39 S14 1.490271 1_555
O40 S15 1.492770 1_555
O41 S16 1.490401 1_555
O42 S9 1.482345 1_555
O43 S10 1.490258 1_555
O44 S11 1.486645 1_555
O45 S12 1.496550 1_555
O46 Si4 1.646464 1_555
O47 S8 1.489076 1_555
O48 S19 1.486922 1_555
O49 S20 1.484171 1_555
O50 Si5 1.653627 1_555
O51 Si6 1.657855 1_555
O52 S21 1.488531 1_555
O53 S22 1.482845 1_555
O54 S23 1.484695 1_555
O55 S24 1.471053 1_555
O56 S25 1.481718 1_555
O57 S26 1.481984 1_555
O58 Si7 1.652311 1_555
O59 Si8 1.643244 1_555
O60 Si7 1.650461 1_555
O61 Si8 1.640459 1_555
O62 S23 1.496112 1_555
O63 S24 1.493647 1_555
O64 S25 1.485958 1_555
O65 S26 1.478433 1_555
O66 Si5 1.628294 1_555
O67 Si6 1.636500 1_555
O68 S21 1.471575 1_555
O69 S22 1.475949 1_555
O70 S19 1.481714 1_555
O71 S20 1.486456 1_555
O72 Si7 1.661727 1_555
O73 Si8 1.658078 1_555
O74 S23 1.471256 1_555
O75 S24 1.488616 1_555
O76 S25 1.502145 1_555
O77 S26 1.493105 1_555
O78 Si5 1.657090 1_555
O79 Si6 1.659137 1_555
O80 S21 1.499650 1_555
O81 S22 1.497090 1_555
O82 S19 1.485586 1_555
O83 S20 1.483048 1_555
O84 Si4 1.650208 1_555
O85 S8 1.489964 1_555
O86 S9 1.497337 1_555
O87 S10 1.487800 1_555
O88 S11 1.478944 1_555
O89 S12 1.487997 1_555
O90 S13 1.489630 1_555
O91 S14 1.490137 1_555
O92 S15 1.485422 1_555
O93 S16 1.486942 1_555
O94 S17 1.497517 1_555
O95 S18 1.493911 1_555
O96 S6 1.498285 1_555
O97 S7 1.492777 1_555
O98 Si2 1.642292 1_555
O99 Si3 1.648081 1_555
O100 S5 1.501215 1_555
O101 S4 1.493143 1_555
O102 S0 1.490187 1_555
O103 S1 1.503115 1_555
O104 S3 1.493988 1_555
O105 S2 1.499513 1_555
O106 Si0 1.636826 1_545
O107 Si1 1.661615 1_545
O108 S19 1.502641 1_555
O109 S20 1.503575 1_555
O110 Si6 1.642553 1_555
O111 Si5 1.645438 1_655
O112 S21 1.507202 1_545
O113 S22 1.503255 1_545
O114 S23 1.499969 1_545
O115 S24 1.512755 1_545
O116 S25 1.489841 1_555
O117 S26 1.511739 1_555
O118 Si8 1.640071 1_555
O119 Si7 1.644369 1_655
O120 S17 1.490827 1_555
O121 S18 1.487284 1_555
O122 S14 1.495033 1_455
O123 S13 1.495847 1_555
O124 S15 1.490498 1_565
O125 S16 1.483138 1_565
O126 S9 1.490106 1_565
O127 S10 1.482633 1_565
O128 S11 1.492971 1_555
O129 S12 1.477970 1_555
O130 S8 1.495759 1_455
O131 Si4 1.654945 1_555
O132 Si0 1.659394 1_555
O133 Si1 1.642169 1_555
O134 S0 1.487988 1_555
O135 S1 1.472724 1_555
O136 S2 1.494834 1_455
O137 S3 1.490572 1_555
O138 Si2 1.653417 1_555
O139 Si3 1.657562 1_555
O140 S4 1.487944 1_455
O141 S5 1.500375 1_555
O142 S6 1.475049 1_565
O143 S7 1.475975 1_565
