# generated using pymatgen
data_Na2Hf4In4Si3(S3O16)3
_symmetry_space_group_name_H-M   'P 1'
_cell_length_a   17.86290045
_cell_length_b   8.90659631
_cell_length_c   23.38356269
_cell_angle_alpha   89.83904999
_cell_angle_beta   90.36595858
_cell_angle_gamma   119.93710180
_symmetry_Int_Tables_number   1
_chemical_formula_structural   Na2Hf4In4Si3(S3O16)3
_chemical_formula_sum   'Na6 Hf12 In12 Si9 S27 O144'
_cell_volume   3223.82208977
_cell_formula_units_Z   3
loop_
 _symmetry_equiv_pos_site_id
 _symmetry_equiv_pos_as_xyz
  1  'x, y, z'
loop_
 _atom_site_type_symbol
 _atom_site_label
 _atom_site_symmetry_multiplicity
 _atom_site_fract_x
 _atom_site_fract_y
 _atom_site_fract_z
 _atom_site_occupancy
  Na  Na0  1  0.99385893  0.01241503  0.50123630  1
  Na  Na1  1  0.49547879  0.97932516  0.00634377  1
  Na  Na2  1  0.32646981  0.31768644  0.84340915  1
  Na  Na3  1  0.82284651  0.32887117  0.83165429  1
  Na  Na4  1  0.32664016  0.31885944  0.32958442  1
  Na  Na5  1  0.81675626  0.32046553  0.33683525  1
  Hf  Hf0  1  0.51124964  0.01533655  0.35567075  1
  Hf  Hf1  1  0.00381208  0.99701167  0.85874620  1
  Hf  Hf2  1  0.50579367  0.01795469  0.64649537  1
  Hf  Hf3  1  0.00524593  0.99243472  0.14696318  1
  Hf  Hf4  1  0.33650467  0.33447078  0.68288192  1
  Hf  Hf5  1  0.83479546  0.33609451  0.68452499  1
  Hf  Hf6  1  0.33633924  0.33622775  0.18598950  1
  Hf  Hf7  1  0.83139107  0.32889686  0.18653356  1
  Hf  Hf8  1  0.16202209  0.67579140  0.02404236  1
  Hf  Hf9  1  0.66167808  0.66584370  0.02548798  1
  Hf  Hf10  1  0.16327500  0.66122251  0.52315456  1
  Hf  Hf11  1  0.66232009  0.65222712  0.52042023  1
  In  In0  1  0.00345793  0.99974345  0.34917128  1
  In  In1  1  0.50431333  0.00842906  0.85047394  1
  In  In2  1  0.99859803  0.01224377  0.64883043  1
  In  In3  1  0.50181384  0.97868345  0.15100901  1
  In  In4  1  0.32947257  0.33113285  0.98373541  1
  In  In5  1  0.83601560  0.33897754  0.98507584  1
  In  In6  1  0.33546474  0.33068293  0.48179149  1
  In  In7  1  0.83016247  0.32723282  0.48097518  1
  In  In8  1  0.16505054  0.67412059  0.30946632  1
  In  In9  1  0.66848661  0.66400990  0.31255325  1
  In  In10  1  0.16956994  0.67904901  0.81594806  1
  In  In11  1  0.66394687  0.65541822  0.81019513  1
  Si  Si0  1  0.14955209  0.00805320  0.25249375  1
  Si  Si1  1  0.64944514  0.99879835  0.25181518  1
  Si  Si2  1  0.64986737  0.29239275  0.75223052  1
  Si  Si3  1  0.47866518  0.33460757  0.58154162  1
  Si  Si4  1  0.97577179  0.32710748  0.58131767  1
  Si  Si5  1  0.47367822  0.62652594  0.08019785  1
  Si  Si6  1  0.97548660  0.61961162  0.08304165  1
  Si  Si7  1  0.17419052  0.96603306  0.91573291  1
  Si  Si8  1  0.67283040  0.38353816  0.41477083  1
  S  S0  1  0.35391922  0.70518248  0.25226756  1
  S  S1  1  0.85562028  0.70807594  0.24795068  1
  S  S2  1  0.99738615  0.28697192  0.24995325  1
  S  S3  1  0.49688555  0.28210203  0.24882244  1
  S  S4  1  0.14675347  0.29467408  0.75286255  1
  S  S5  1  0.99955123  0.71294164  0.74959512  1
  S  S6  1  0.49498634  0.70516432  0.75011662  1
  S  S7  1  0.35301326  0.99894959  0.74817763  1
  S  S8  1  0.85554113  0.00425885  0.75223121  1
  S  S9  1  0.18666174  0.04230754  0.58227980  1
  S  S10  1  0.68685723  0.03886377  0.58419095  1
  S  S11  1  0.33348892  0.62523657  0.58373484  1
  S  S12  1  0.83432632  0.62847326  0.58313965  1
  S  S13  1  0.33576458  0.04095259  0.08422663  1
  S  S14  1  0.83354279  0.04087934  0.08369061  1
  S  S15  1  0.18655723  0.33424411  0.08399179  1
  S  S16  1  0.68607305  0.33132419  0.08115714  1
  S  S17  1  0.31569116  0.67276722  0.91499093  1
  S  S18  1  0.81133362  0.66396483  0.91589604  1
  S  S19  1  0.01944254  0.37437095  0.91506804  1
  S  S20  1  0.52251428  0.37641173  0.91769049  1
  S  S21  1  0.66857727  0.95730617  0.91757644  1
  S  S22  1  0.31087187  0.95598851  0.41624362  1
  S  S23  1  0.81732629  0.95889785  0.41666863  1
  S  S24  1  0.16755554  0.37870994  0.41797509  1
  S  S25  1  0.02289081  0.66934195  0.41738842  1
  S  S26  1  0.51821076  0.66422469  0.41619140  1
  O  O0  1  0.11463799  0.05368288  0.31080217  1
  O  O1  1  0.60052194  0.03100504  0.30694026  1
  O  O2  1  0.40938087  0.79080780  0.30252129  1
  O  O3  1  0.90545081  0.77373575  0.30220599  1
  O  O4  1  0.48194577  0.16999403  0.30010567  1
  O  O5  1  0.97743644  0.18254931  0.30331335  1
  O  O6  1  0.10217941  0.17891683  0.80255505  1
  O  O7  1  0.61402657  0.17446145  0.81017730  1
  O  O8  1  0.47550139  0.77047419  0.80286221  1
  O  O9  1  0.98754991  0.80033772  0.80046671  1
  O  O10  1  0.40298741  0.03551843  0.80203616  1
  O  O11  1  0.91218595  0.03002520  0.80240032  1
  O  O12  1  0.39947625  0.98214624  0.69919020  1
  O  O13  1  0.89037786  0.96981877  0.70014185  1
  O  O14  1  0.09672753  0.22046553  0.69997092  1
  O  O15  1  0.58802493  0.18655545  0.69754982  1
  O  O16  1  0.01133887  0.81658169  0.69763770  1
  O  O17  1  0.50236333  0.80891912  0.69974761  1
  O  O18  1  0.38645899  0.80775887  0.19960054  1
  O  O19  1  0.90266577  0.82239789  0.19931744  1
  O  O20  1  0.00461507  0.19651332  0.20000352  1
  O  O21  1  0.50377324  0.20019966  0.19629297  1
  O  O22  1  0.08810083  0.99013427  0.19764182  1
  O  O23  1  0.59707575  0.97435640  0.19316016  1
  O  O24  1  0.42899889  0.36168032  0.63773899  1
  O  O25  1  0.93115299  0.35445886  0.63868049  1
  O  O26  1  0.24166644  0.12911654  0.63380156  1
  O  O27  1  0.74404403  0.12829354  0.63480047  1
  O  O28  1  0.31399334  0.50386780  0.63379864  1
  O  O29  1  0.81976655  0.51611031  0.63455118  1
  O  O30  1  0.42874378  0.50799742  0.13672298  1
  O  O31  1  0.92557354  0.49141077  0.13646161  1
  O  O32  1  0.31982391  0.12485350  0.13395781  1
  O  O33  1  0.81387761  0.12187504  0.13225992  1
  O  O34  1  0.24397498  0.36084711  0.13379541  1
  O  O35  1  0.74036741  0.35406766  0.13187874  1
  O  O36  1  0.21617673  0.28509191  0.03247567  1
  O  O37  1  0.72021122  0.29217046  0.02912949  1
  O  O38  1  0.41958773  0.54097159  0.02243583  1
  O  O39  1  0.92261234  0.55424429  0.02341508  1
  O  O40  1  0.34890170  0.14054247  0.03123060  1
  O  O41  1  0.84988811  0.14210179  0.03047589  1
  O  O42  1  0.22079093  0.15165007  0.53126205  1
  O  O43  1  0.71726954  0.14882793  0.53323017  1
  O  O44  1  0.34919619  0.55311265  0.53205994  1
  O  O45  1  0.84782420  0.55253655  0.53165014  1
  O  O46  1  0.41844482  0.28999521  0.52618392  1
  O  O47  1  0.91748570  0.29622950  0.52539168  1
  O  O48  1  0.27082672  0.68681727  0.96564242  1
  O  O49  1  0.77229558  0.68797650  0.96747600  1
  O  O50  1  0.07336758  0.45442177  0.96632225  1
  O  O51  1  0.57846263  0.47022119  0.96803462  1
  O  O52  1  0.15955477  0.84128643  0.97091645  1
  O  O53  1  0.66459704  0.85124235  0.96822767  1
  O  O54  1  0.26845385  0.85420036  0.46884108  1
  O  O55  1  0.77258452  0.85746950  0.46876702  1
  O  O56  1  0.16366063  0.47608031  0.46928005  1
  O  O57  1  0.66096674  0.47931610  0.47182152  1
  O  O58  1  0.07852243  0.68717418  0.46874729  1
  O  O59  1  0.57146320  0.68845541  0.46863735  1
  O  O60  1  0.06265770  0.64843157  0.36556801  1
  O  O61  1  0.55611856  0.63400728  0.36568543  1
  O  O62  1  0.25625977  0.87337958  0.36548048  1
  O  O63  1  0.76886746  0.88142364  0.36430704  1
  O  O64  1  0.17720335  0.47663222  0.36528183  1
  O  O65  1  0.68748150  0.49567120  0.35776108  1
  O  O66  1  0.05759806  0.47850506  0.86290006  1
  O  O67  1  0.56137233  0.47622160  0.86496759  1
  O  O68  1  0.18951072  0.89265988  0.85641394  1
  O  O69  1  0.67819276  0.87902123  0.86438565  1
  O  O70  1  0.26608406  0.64836830  0.86115523  1
  O  O71  1  0.75904616  0.64160090  0.86404941  1
  O  O72  1  0.01734616  0.83074275  0.41665734  1
  O  O73  1  0.50976542  0.82124432  0.41000445  1
  O  O74  1  0.39575160  0.97018293  0.40942162  1
  O  O75  1  0.90499493  0.97019494  0.41486895  1
  O  O76  1  0.08721625  0.20799095  0.41821394  1
  O  O77  1  0.58271531  0.19689552  0.40801519  1
  O  O78  1  0.01179856  0.20011425  0.90676377  1
  O  O79  1  0.51668653  0.20335699  0.91657979  1
  O  O80  1  0.08494558  0.97743329  0.90542266  1
  O  O81  1  0.58753695  0.96557101  0.91727125  1
  O  O82  1  0.40245389  0.83718538  0.91139973  1
  O  O83  1  0.89858862  0.82223189  0.90719920  1
  O  O84  1  0.48898597  0.16737892  0.59592043  1
  O  O85  1  0.99303323  0.16339246  0.58642559  1
  O  O86  1  0.09827753  0.00818304  0.59161079  1
  O  O87  1  0.59837838  0.00492441  0.59675147  1
  O  O88  1  0.40816435  0.79223179  0.59766254  1
  O  O89  1  0.91290978  0.79959596  0.59191938  1
  O  O90  1  0.48718533  0.82039312  0.08288874  1
  O  O91  1  0.98880184  0.81095290  0.09556326  1
  O  O92  1  0.41297998  0.02507809  0.09345546  1
  O  O93  1  0.90849693  0.02275836  0.09664552  1
  O  O94  1  0.09823646  0.19286566  0.09613990  1
  O  O95  1  0.59648601  0.19125120  0.08808059  1
  O  O96  1  0.34074454  0.15382612  0.73867518  1
  O  O97  1  0.85118064  0.16749445  0.74534852  1
  O  O98  1  0.23347844  0.30817450  0.74700097  1
  O  O99  1  0.74587591  0.31322463  0.74089928  1
  O  O100  1  0.41727784  0.52505540  0.74154853  1
  O  O101  1  0.91879089  0.54076628  0.74464160  1
  O  O102  1  0.34997114  0.53263001  0.24520837  1
  O  O103  1  0.84796673  0.53423851  0.23881820  1
  O  O104  1  0.41674756  0.29915043  0.24461916  1
  O  O105  1  0.92187352  0.31434553  0.24129348  1
  O  O106  1  0.24502650  0.17905455  0.24041474  1
  O  O107  1  0.74510624  0.17738456  0.24491901  1
  O  O108  1  0.32806770  0.52075605  0.91827529  1
  O  O109  1  0.82199980  0.50875693  0.91888672  1
  O  O110  1  0.43626989  0.35723710  0.92216758  1
  O  O111  1  0.93065176  0.34648477  0.92014374  1
  O  O112  1  0.25507562  0.16131151  0.92234747  1
  O  O113  1  0.74605032  0.13373197  0.92333847  1
  O  O114  1  0.31886903  0.13185186  0.41941327  1
  O  O115  1  0.82968644  0.13627340  0.41998371  1
  O  O116  1  0.24530977  0.35814172  0.42415728  1
  O  O117  1  0.75556768  0.35348620  0.42094028  1
  O  O118  1  0.42879509  0.51233661  0.42178694  1
  O  O119  1  0.93711363  0.51570426  0.42251562  1
  O  O120  1  0.18330259  0.49486744  0.07410203  1
  O  O121  1  0.68657898  0.49862346  0.07235095  1
  O  O122  1  0.07085383  0.63512390  0.07456923  1
  O  O123  1  0.57030460  0.64262412  0.07106005  1
  O  O124  1  0.25836346  0.86439229  0.07712486  1
  O  O125  1  0.75627005  0.86571271  0.07443745  1
  O  O126  1  0.18589227  0.87591876  0.57466186  1
  O  O127  1  0.68358421  0.87267625  0.57584438  1
  O  O128  1  0.25601029  0.64452629  0.57562727  1
  O  O129  1  0.75834327  0.65178924  0.57661124  1
  O  O130  1  0.07178132  0.50268604  0.57082566  1
  O  O131  1  0.57217451  0.50854542  0.57398295  1
  O  O132  1  0.15525544  0.83333976  0.25403990  1
  O  O133  1  0.66166904  0.83499250  0.26226227  1
  O  O134  1  0.26496632  0.66920457  0.26057411  1
  O  O135  1  0.77023230  0.68968196  0.24954423  1
  O  O136  1  0.07719417  0.45546878  0.25600577  1
  O  O137  1  0.57171715  0.45398087  0.25588516  1
  O  O138  1  0.15706181  0.46720292  0.76177277  1
  O  O139  1  0.65624541  0.47930177  0.75430912  1
  O  O140  1  0.07368668  0.68656512  0.75704732  1
  O  O141  1  0.57333581  0.69159268  0.75598029  1
  O  O142  1  0.26748263  0.84183315  0.75063949  1
  O  O143  1  0.76781002  0.85900878  0.76073126  1
loop_
_geom_bond_atom_site_label_1
_geom_bond_atom_site_label_2
_geom_bond_distance
_geom_bond_site_symmetry_2
Na0 O85 2.410772 1_555
Na0 O75 2.471310 1_545
Na0 O76 2.589816 1_655
Na0 O72 2.722478 1_645
Na0 O89 2.731521 1_545
Na0 O86 2.822371 1_655
Na1 O90 2.238141 1_555
Na1 O95 2.654871 1_565
Na1 O92 2.670101 1_565
Na1 O82 2.676174 1_554
Na1 O81 2.702515 1_554
Na1 O79 2.786206 1_564
Na2 O112 2.283902 1_555
Na2 O108 2.510461 1_555
Na2 O110 2.574989 1_555
Na2 O98 2.767917 1_555
Na2 O96 2.931268 1_555
Na2 O100 2.958058 1_555
Na3 O99 2.487287 1_555
Na3 O109 2.602100 1_555
Na3 O113 2.671299 1_555
Na3 O97 2.674014 1_555
Na3 O101 2.726453 1_555
Na3 O111 2.768387 1_555
Na4 O106 2.487449 1_555
Na4 O102 2.624686 1_555
Na4 O104 2.625589 1_555
Na4 O114 2.637986 1_555
Na4 O116 2.770605 1_555
Na4 O118 2.789239 1_555
Na5 O117 2.345319 1_555
Na5 O107 2.496803 1_555
Na5 O115 2.622887 1_555
Na5 O119 2.809484 1_555
Na5 O103 2.849830 1_555
Na5 O105 2.945571 1_555
Hf0 O1 1.913392 1_555
Hf0 O77 1.916643 1_555
Hf0 O73 2.132057 1_545
Hf0 O4 2.135547 1_555
Hf0 O74 2.280384 1_545
Hf0 O2 2.282105 1_545
Hf1 O80 1.884959 1_555
Hf1 O78 2.074892 1_565
Hf1 O83 2.082493 1_455
Hf1 O9 2.123787 1_455
Hf1 O6 2.148252 1_565
Hf1 O11 2.225280 1_465
Hf2 O15 1.903668 1_555
Hf2 O84 1.909283 1_555
Hf2 O87 2.078110 1_555
Hf2 O12 2.156359 1_545
Hf2 O88 2.207964 1_545
Hf2 O17 2.212399 1_545
Hf3 O22 1.898148 1_555
Hf3 O91 1.917314 1_455
Hf3 O19 2.097231 1_455
Hf3 O94 2.100473 1_565
Hf3 O20 2.208059 1_565
Hf3 O93 2.209568 1_465
Hf4 O24 1.877243 1_555
Hf4 O28 2.084528 1_555
Hf4 O100 2.094847 1_555
Hf4 O96 2.098822 1_555
Hf4 O26 2.103973 1_555
Hf4 O98 2.300608 1_555
Hf5 O25 1.969812 1_555
Hf5 O99 2.001108 1_555
Hf5 O27 2.097318 1_555
Hf5 O29 2.103177 1_555
Hf5 O97 2.187428 1_555
Hf5 O101 2.192695 1_555
Hf6 O30 1.971339 1_555
Hf6 O106 1.994324 1_555
Hf6 O104 2.120700 1_555
Hf6 O32 2.136721 1_555
Hf6 O34 2.143286 1_555
Hf6 O102 2.149638 1_555
Hf7 O31 1.970157 1_555
Hf7 O107 2.000285 1_555
Hf7 O103 2.096362 1_555
Hf7 O105 2.109620 1_555
Hf7 O33 2.130884 1_555
Hf7 O35 2.159392 1_555
Hf8 O122 1.900703 1_555
Hf8 O52 1.942088 1_554
Hf8 O124 2.103130 1_555
Hf8 O120 2.169449 1_555
Hf8 O50 2.255704 1_554
Hf8 O48 2.344057 1_554
Hf9 O123 1.877894 1_555
Hf9 O121 2.064630 1_555
Hf9 O125 2.078145 1_555
Hf9 O53 2.103506 1_554
Hf9 O51 2.110177 1_554
Hf9 O49 2.329670 1_554
Hf10 O130 1.902254 1_555
Hf10 O58 2.070505 1_555
Hf10 O56 2.080713 1_555
Hf10 O128 2.119099 1_555
Hf10 O126 2.122748 1_555
Hf10 O54 2.211834 1_555
Hf11 O57 1.906852 1_555
Hf11 O131 1.938901 1_555
Hf11 O129 2.155555 1_555
Hf11 O59 2.167886 1_555
Hf11 O127 2.223219 1_555
Hf11 O55 2.259267 1_555
In0 O0 2.011969 1_565
In0 O5 2.180846 1_465
In0 O3 2.189405 1_455
In0 O75 2.256779 1_455
In0 O72 2.274179 1_555
In0 O76 2.345505 1_565
In1 O7 2.009640 1_555
In1 O8 2.216609 1_545
In1 O82 2.217559 1_545
In1 O10 2.241709 1_555
In1 O79 2.253937 1_555
In1 O81 2.308426 1_545
In2 O85 2.017986 1_555
In2 O13 2.148813 1_545
In2 O14 2.164035 1_655
In2 O16 2.184639 1_645
In2 O89 2.189892 1_545
In2 O86 2.248765 1_655
In3 O23 1.977985 1_555
In3 O90 2.057380 1_555
In3 O18 2.178028 1_555
In3 O21 2.226519 1_565
In3 O92 2.263633 1_565
In3 O95 2.330255 1_565
In4 O38 1.972622 1_556
In4 O112 2.023857 1_555
In4 O36 2.182059 1_556
In4 O40 2.192703 1_556
In4 O108 2.285455 1_555
In4 O110 2.314429 1_555
In5 O39 1.975937 1_556
In5 O37 2.162903 1_556
In5 O41 2.164035 1_556
In5 O113 2.249766 1_555
In5 O111 2.255427 1_555
In5 O109 2.259327 1_555
In6 O46 1.979989 1_555
In6 O118 2.165811 1_555
In6 O116 2.198431 1_555
In6 O114 2.199225 1_555
In6 O42 2.199227 1_555
In6 O44 2.211556 1_555
In7 O47 1.998923 1_555
In7 O117 2.021424 1_555
In7 O43 2.215154 1_555
In7 O45 2.215213 1_555
In7 O115 2.219429 1_555
In7 O119 2.270671 1_555
In8 O132 1.988930 1_555
In8 O134 2.144481 1_555
In8 O62 2.149312 1_555
In8 O60 2.174846 1_555
In8 O136 2.180911 1_555
In8 O64 2.282341 1_555
In9 O133 1.972339 1_555
In9 O65 1.993709 1_555
In9 O63 2.224707 1_555
In9 O137 2.236170 1_555
In9 O61 2.266844 1_555
In9 O135 2.268009 1_555
In10 O68 1.992820 1_555
In10 O70 2.147022 1_555
In10 O138 2.191778 1_555
In10 O66 2.201725 1_555
In10 O140 2.217830 1_555
In10 O142 2.232481 1_555
In11 O139 1.995251 1_555
In11 O67 2.155140 1_555
In11 O71 2.160371 1_555
In11 O143 2.173895 1_555
In11 O141 2.196075 1_555
In11 O69 2.267364 1_555
O0 Si0 1.637101 1_555
O1 Si1 1.665608 1_545
O2 S0 1.476498 1_555
O3 S1 1.487968 1_555
O4 S3 1.495883 1_555
O5 S2 1.489034 1_555
O6 S4 1.494287 1_555
O7 Si2 1.637401 1_555
O8 S6 1.480649 1_555
O9 S5 1.497308 1_555
O10 S7 1.478787 1_545
O11 S8 1.485702 1_555
O12 S7 1.469862 1_555
O13 S8 1.472155 1_565
O14 S4 1.471740 1_555
O15 Si2 1.641094 1_555
O16 S5 1.474953 1_455
O17 S6 1.460440 1_555
O18 S0 1.470383 1_555
O19 S1 1.479157 1_555
O20 S2 1.463241 1_455
O21 S3 1.467172 1_555
O22 Si0 1.638252 1_565
O23 Si1 1.608014 1_555
O24 Si3 1.673999 1_555
O25 Si4 1.644106 1_555
O26 S9 1.498840 1_555
O27 S10 1.502064 1_555
O28 S11 1.510838 1_555
O29 S12 1.500627 1_555
O30 Si5 1.632712 1_555
O31 Si6 1.627634 1_555
O32 S13 1.487718 1_555
O33 S14 1.481993 1_555
O34 S15 1.485964 1_555
O35 S16 1.476123 1_555
O36 S15 1.471397 1_555
O37 S16 1.482458 1_555
O38 Si5 1.610220 1_555
O39 Si6 1.616768 1_555
O40 S13 1.472189 1_555
O41 S14 1.477177 1_555
O42 S9 1.467468 1_555
O43 S10 1.464594 1_555
O44 S11 1.462892 1_555
O45 S12 1.461591 1_555
O46 Si3 1.596606 1_555
O47 Si4 1.602713 1_555
O48 S17 1.474382 1_555
O49 S18 1.465533 1_555
O50 S19 1.475533 1_555
O51 S20 1.496603 1_555
O52 Si7 1.635315 1_555
O53 S21 1.492656 1_555
O54 S22 1.492894 1_555
O55 S23 1.491509 1_555
O56 S24 1.504440 1_555
O57 Si8 1.656122 1_555
O58 S25 1.511070 1_555
O59 S26 1.495699 1_555
O60 S25 1.466943 1_555
O61 S26 1.455897 1_555
O62 S22 1.475043 1_555
O63 S23 1.455896 1_555
O64 S24 1.468066 1_555
O65 Si8 1.605980 1_555
O66 S19 1.478571 1_555
O67 S20 1.476780 1_555
O68 Si7 1.616916 1_555
O69 S21 1.479801 1_555
O70 S17 1.487376 1_555
O71 S18 1.477518 1_555
O72 S25 1.489479 1_555
O73 S26 1.486163 1_555
O74 S22 1.466951 1_555
O75 S23 1.519161 1_555
O76 S24 1.481091 1_555
O77 Si8 1.645283 1_555
O78 S19 1.501665 1_555
O79 S20 1.492397 1_555
O80 Si7 1.663231 1_555
O81 S21 1.485693 1_555
O82 S17 1.513018 1_555
O83 S18 1.505739 1_555
O84 Si3 1.623554 1_555
O85 Si4 1.637932 1_555
O86 S9 1.468904 1_555
O87 S10 1.484644 1_555
O88 S11 1.454157 1_555
O89 S12 1.482647 1_555
O90 Si5 1.621189 1_555
O91 Si6 1.626021 1_555
O92 S13 1.469583 1_555
O93 S14 1.456259 1_555
O94 S15 1.475196 1_555
O95 S16 1.467331 1_555
O96 S7 1.516442 1_545
O97 S8 1.502422 1_555
O98 S4 1.499946 1_555
O99 Si2 1.653408 1_555
O100 S6 1.521854 1_555
O101 S5 1.495657 1_555
O102 S0 1.512363 1_555
O103 S1 1.500579 1_555
O104 S3 1.515575 1_555
O105 S2 1.498125 1_555
O106 Si0 1.648999 1_555
O107 Si1 1.662891 1_545
O108 S17 1.478438 1_555
O109 S18 1.488058 1_555
O110 S20 1.467262 1_555
O111 S19 1.483382 1_655
O112 Si7 1.620806 1_545
O113 S21 1.493594 1_545
O114 S22 1.502172 1_545
O115 S23 1.484215 1_545
O116 S24 1.494921 1_555
O117 Si8 1.633590 1_555
O118 S26 1.497791 1_555
O119 S25 1.464007 1_655
O120 S15 1.477999 1_555
O121 S16 1.499214 1_555
O122 Si6 1.652154 1_455
O123 Si5 1.674192 1_555
O124 S13 1.496846 1_565
O125 S14 1.494929 1_565
O126 S9 1.486351 1_565
O127 S10 1.465436 1_565
O128 S11 1.488182 1_555
O129 S12 1.478895 1_555
O130 Si4 1.665328 1_455
O131 Si3 1.625043 1_555
O132 Si0 1.609661 1_565
O133 Si1 1.597241 1_555
O134 S0 1.469894 1_555
O135 S1 1.451200 1_555
O136 S2 1.472349 1_455
O137 S3 1.453881 1_555
O138 S4 1.468839 1_555
O139 Si2 1.611747 1_555
O140 S5 1.465126 1_455
O141 S6 1.469168 1_555
O142 S7 1.470561 1_555
O143 S8 1.465621 1_565
