# generated using pymatgen
data_MgCrCo3O8
_symmetry_space_group_name_H-M   'P 1'
_cell_length_a   5.79853539
_cell_length_b   5.79474267
_cell_length_c   5.85877809
_cell_angle_alpha   60.26946760
_cell_angle_beta   60.31254462
_cell_angle_gamma   59.52448159
_symmetry_Int_Tables_number   1
_chemical_formula_structural   MgCrCo3O8
_chemical_formula_sum   'Mg1 Cr1 Co3 O8'
_cell_volume   139.29714110
_cell_formula_units_Z   1
loop_
 _symmetry_equiv_pos_site_id
 _symmetry_equiv_pos_as_xyz
  1  'x, y, z'
loop_
 _atom_site_type_symbol
 _atom_site_label
 _atom_site_symmetry_multiplicity
 _atom_site_fract_x
 _atom_site_fract_y
 _atom_site_fract_z
 _atom_site_occupancy
  Mg  Mg0  1  0.00000000  0.00000000  0.00000000  1
  Cr  Cr0  1  0.50000000  0.50000000  0.50000000  1
  Co  Co0  1  0.00000000  0.50000000  0.50000000  1
  Co  Co1  1  0.50000000  0.00000000  0.50000000  1
  Co  Co2  1  0.50000000  0.50000000  0.00000000  1
  O  O0  1  0.24525600  0.24425600  0.30182200  1
  O  O1  1  0.25511600  0.25559600  0.71354900  1
  O  O2  1  0.24858300  0.70961000  0.25660300  1
  O  O3  1  0.70882700  0.24937300  0.25642300  1
  O  O4  1  0.29117300  0.75062700  0.74357700  1
  O  O5  1  0.75141700  0.29039000  0.74339700  1
  O  O6  1  0.74488400  0.74440400  0.28645100  1
  O  O7  1  0.75474400  0.75574400  0.69817800  1
loop_
_geom_bond_atom_site_label_1
_geom_bond_atom_site_label_2
_geom_bond_distance
_geom_bond_site_symmetry_2
Mg0 O2 2.084817 1_545
Mg0 O5 2.084817 1_454
Mg0 O3 2.088477 1_455
Mg0 O4 2.088477 1_544
Mg0 O1 2.120479 1_554
Mg0 O6 2.120479 1_445
Cr0 O6 2.027333 1_555
Cr0 O1 2.027333 1_555
Cr0 O4 2.042586 1_555
Cr0 O3 2.042586 1_555
Cr0 O5 2.044334 1_555
Cr0 O2 2.044334 1_555
Co0 O7 1.870853 1_455
Co0 O0 1.870853 1_555
Co0 O5 1.899593 1_455
Co0 O2 1.899593 1_555
Co0 O6 1.926176 1_455
Co0 O1 1.926176 1_555
Co1 O7 1.865891 1_545
Co1 O0 1.865891 1_555
Co1 O3 1.899687 1_555
Co1 O4 1.899687 1_545
Co1 O1 1.928795 1_555
Co1 O6 1.928795 1_545
Co2 O3 1.920034 1_555
Co2 O4 1.920034 1_554
Co2 O2 1.924804 1_555
Co2 O5 1.924804 1_554
Co2 O0 2.130503 1_555
Co2 O7 2.130503 1_554
