# generated using pymatgen
data_Eu4Mg(Cu2O5)2
_symmetry_space_group_name_H-M   'P 1'
_cell_length_a   5.33566018
_cell_length_b   5.59750871
_cell_length_c   8.97454807
_cell_angle_alpha   108.76381819
_cell_angle_beta   107.39635529
_cell_angle_gamma   89.05288714
_symmetry_Int_Tables_number   1
_chemical_formula_structural   Eu4Mg(Cu2O5)2
_chemical_formula_sum   'Eu4 Mg1 Cu4 O10'
_cell_volume   241.24070882
_cell_formula_units_Z   1
loop_
 _symmetry_equiv_pos_site_id
 _symmetry_equiv_pos_as_xyz
  1  'x, y, z'
loop_
 _atom_site_type_symbol
 _atom_site_label
 _atom_site_symmetry_multiplicity
 _atom_site_fract_x
 _atom_site_fract_y
 _atom_site_fract_z
 _atom_site_occupancy
  Eu  Eu0  1  0.60394700  0.13689300  0.22236400  1
  Eu  Eu1  1  0.40765900  0.88743000  0.79799000  1
  Eu  Eu2  1  0.10567200  0.59040200  0.20222600  1
  Eu  Eu3  1  0.88427000  0.41529900  0.77902700  1
  Mg  Mg0  1  0.03785400  0.51803000  0.50173800  1
  Cu  Cu0  1  0.01243200  0.01049400  0.00601200  1
  Cu  Cu1  1  0.50821200  0.50607500  0.99804600  1
  Cu  Cu2  1  0.26218400  0.11785700  0.49945400  1
  Cu  Cu3  1  0.67014700  0.87203400  0.50028600  1
  O  O0  1  0.25265800  0.25638100  0.98649800  1
  O  O1  1  0.27495900  0.76750000  0.02699000  1
  O  O2  1  0.74640400  0.24618400  0.97187100  1
  O  O3  1  0.76143700  0.76589500  0.01391800  1
  O  O4  1  0.17278400  0.22909400  0.30030000  1
  O  O5  1  0.92137800  0.76975100  0.69157600  1
  O  O6  1  0.73777200  0.57569500  0.31444800  1
  O  O7  1  0.36529200  0.43400700  0.68873600  1
  O  O8  1  0.84526100  0.17957500  0.49972000  1
  O  O9  1  0.30767100  0.78093000  0.49880100  1
loop_
_geom_bond_atom_site_label_1
_geom_bond_atom_site_label_2
_geom_bond_distance
_geom_bond_site_symmetry_2
Eu0 O8 2.371057 1_555
Eu0 O6 2.371706 1_555
Eu0 O1 2.525506 1_545
Eu0 O4 2.595909 1_555
Eu0 O3 2.627024 1_545
Eu0 O0 2.634058 1_554
Eu0 O2 2.815614 1_554
Eu0 O4 2.918507 1_655
Eu1 O7 2.395743 1_555
Eu1 O9 2.444147 1_555
Eu1 O2 2.480318 1_565
Eu1 O5 2.499632 1_455
Eu1 O0 2.518652 1_565
Eu1 O3 2.529745 1_556
Eu1 O1 2.636119 1_556
Eu1 O5 3.155963 1_555
Eu2 O9 2.424823 1_555
Eu2 O4 2.434319 1_555
Eu2 O6 2.472912 1_455
Eu2 O1 2.480687 1_555
Eu2 O3 2.519288 1_455
Eu2 O0 2.527811 1_554
Eu2 O2 2.617395 1_454
Eu3 O8 2.374223 1_555
Eu3 O5 2.387318 1_555
Eu3 O2 2.504148 1_555
Eu3 O3 2.616642 1_556
Eu3 O0 2.634585 1_655
Eu3 O7 2.653058 1_555
Eu3 O1 2.779180 1_656
Eu3 O7 2.926081 1_655
Mg0 O6 2.053227 1_455
Mg0 O5 2.081825 1_455
Mg0 O9 2.087232 1_555
Mg0 O8 2.162549 1_455
Mg0 O7 2.194851 1_555
Mg0 O4 2.293688 1_555
Cu0 O2 1.946086 1_454
Cu0 O1 1.947219 1_545
Cu0 O3 1.962918 1_445
Cu0 O0 1.978777 1_554
Cu0 O4 2.410191 1_555
Cu0 O5 2.602042 1_444
Cu1 O1 1.909528 1_556
Cu1 O2 1.919433 1_555
Cu1 O0 1.925821 1_555
Cu1 O3 1.943590 1_556
Cu1 O7 2.544394 1_555
Cu2 O9 1.895880 1_545
Cu2 O7 1.964532 1_555
Cu2 O4 2.001516 1_555
Cu2 O8 2.246165 1_455
Cu3 O8 1.974362 1_565
Cu3 O9 2.003396 1_555
Cu3 O6 2.055127 1_555
Cu3 O5 2.074314 1_555
