# generated using pymatgen
data_MgNi2(MoO4)2
_symmetry_space_group_name_H-M   'P 1'
_cell_length_a   4.98320303
_cell_length_b   5.11033855
_cell_length_c   5.66925089
_cell_angle_alpha   87.11884681
_cell_angle_beta   92.92474380
_cell_angle_gamma   90.71176562
_symmetry_Int_Tables_number   1
_chemical_formula_structural   MgNi2(MoO4)2
_chemical_formula_sum   'Mg1 Ni2 Mo2 O8'
_cell_volume   143.99497165
_cell_formula_units_Z   1
loop_
 _symmetry_equiv_pos_site_id
 _symmetry_equiv_pos_as_xyz
  1  'x, y, z'
loop_
 _atom_site_type_symbol
 _atom_site_label
 _atom_site_symmetry_multiplicity
 _atom_site_fract_x
 _atom_site_fract_y
 _atom_site_fract_z
 _atom_site_occupancy
  Mg  Mg0  1  0.55052700  0.57554500  0.01081900  1
  Ni  Ni0  1  0.53764400  0.24859200  0.63810200  1
  Ni  Ni1  1  0.49532700  0.76413000  0.40253800  1
  Mo  Mo0  1  0.00990100  0.23142900  0.18082900  1
  Mo  Mo1  1  0.03536300  0.77874700  0.83618400  1
  O  O0  1  0.77678900  0.91353300  0.62400600  1
  O  O1  1  0.33377900  0.60131700  0.69021100  1
  O  O2  1  0.26096700  0.09527200  0.40023900  1
  O  O3  1  0.71666700  0.40654000  0.33508300  1
  O  O4  1  0.78465200  0.91115900  0.10516400  1
  O  O5  1  0.20970300  0.59544700  0.15479300  1
  O  O6  1  0.25627000  0.08282400  0.91269600  1
  O  O7  1  0.83796700  0.40796700  0.86558600  1
loop_
_geom_bond_atom_site_label_1
_geom_bond_atom_site_label_2
_geom_bond_distance
_geom_bond_site_symmetry_2
Mg0 O7 1.919561 1_554
Mg0 O5 1.927490 1_555
Mg0 O1 2.065620 1_554
Mg0 O3 2.124541 1_555
Mg0 O4 2.137206 1_555
Ni0 O2 2.054976 1_555
Ni0 O3 2.097053 1_555
Ni0 O0 2.105368 1_545
Ni0 O7 2.108234 1_555
Ni0 O1 2.120883 1_555
Ni0 O6 2.273268 1_555
Ni1 O1 1.995262 1_555
Ni1 O0 2.004158 1_555
Ni1 O2 2.067150 1_565
Ni1 O5 2.151480 1_555
Ni1 O3 2.205811 1_555
Ni1 O4 2.362043 1_555
Mo0 O2 1.836437 1_555
Mo0 O3 1.985538 1_455
Mo0 O4 2.024470 1_445
Mo0 O5 2.101200 1_555
Mo0 O7 2.107818 1_454
Mo0 O6 2.173567 1_554
Mo1 O0 1.833652 1_455
Mo1 O6 1.947105 1_565
Mo1 O1 1.988189 1_555
Mo1 O7 2.127055 1_455
Mo1 O5 2.141222 1_556
Mo1 O4 2.159459 1_456
