# generated using pymatgen
data_SrAg5
_symmetry_space_group_name_H-M   'P 1'
_cell_length_a   5.71044569
_cell_length_b   5.71044573
_cell_length_c   4.60489563
_cell_angle_alpha   90.00000000
_cell_angle_beta   90.00000000
_cell_angle_gamma   119.99999369
_symmetry_Int_Tables_number   1
_chemical_formula_structural   SrAg5
_chemical_formula_sum   'Sr1 Ag5'
_cell_volume   130.04404353
_cell_formula_units_Z   1
loop_
 _symmetry_equiv_pos_site_id
 _symmetry_equiv_pos_as_xyz
  1  'x, y, z'
loop_
 _atom_site_type_symbol
 _atom_site_label
 _atom_site_symmetry_multiplicity
 _atom_site_fract_x
 _atom_site_fract_y
 _atom_site_fract_z
 _atom_site_occupancy
  Sr  Sr0  1  0.00000000  -0.00000000  -0.00000000  1
  Ag  Ag0  1  0.66666700  0.33333300  0.00000000  1
  Ag  Ag1  1  0.50000000  -0.00000000  0.50000000  1
  Ag  Ag2  1  0.50000000  0.50000000  0.50000000  1
  Ag  Ag3  1  0.00000000  0.50000000  0.50000000  1
  Ag  Ag4  1  0.33333300  0.66666700  -0.00000000  1
loop_
_geom_bond_atom_site_label_1
_geom_bond_atom_site_label_2
_geom_bond_distance
_geom_bond_site_symmetry_2
Ag0 Ag3 2.831730 1_654
Ag0 Ag3 2.831730 1_655
Ag0 Ag1 2.831730 1_555
Ag0 Ag1 2.831730 1_554
Ag0 Ag2 2.831733 1_555
Ag0 Ag2 2.831733 1_554
Ag0 Sr0 3.296924 1_655
Ag0 Ag4 3.296924 1_655
Ag0 Ag4 3.296924 1_545
Ag0 Sr0 3.296929 1_555
Ag0 Sr0 3.296929 1_665
Ag0 Ag4 3.296934 1_555
Ag1 Ag4 2.831730 1_545
Ag1 Ag4 2.831730 1_546
Ag1 Ag2 2.855223 1_545
Ag1 Ag2 2.855223 1_555
Ag1 Ag3 2.855223 1_655
Ag1 Ag3 2.855223 1_545
Ag1 Sr0 3.667910 1_655
Ag1 Sr0 3.667910 1_555
Ag1 Sr0 3.667910 1_556
Ag1 Sr0 3.667910 1_656
Ag2 Ag4 2.831733 1_556
Ag2 Ag4 2.831733 1_555
Ag2 Ag3 2.855223 1_555
Ag2 Ag3 2.855223 1_655
Ag2 Sr0 3.667910 1_555
Ag2 Sr0 3.667910 1_556
Ag2 Sr0 3.667910 1_666
Ag2 Sr0 3.667910 1_665
Ag3 Ag4 2.831730 1_555
Ag3 Ag4 2.831730 1_556
Ag3 Sr0 3.667910 1_556
Ag3 Sr0 3.667910 1_566
Ag3 Sr0 3.667910 1_565
Ag3 Sr0 3.667910 1_555
Ag4 Sr0 3.296924 1_565
Ag4 Sr0 3.296929 1_665
Ag4 Sr0 3.296929 1_555
