# generated using pymatgen
data_MgMo2(BrO)4
_symmetry_space_group_name_H-M   'P 1'
_cell_length_a   3.87389087
_cell_length_b   7.73992025
_cell_length_c   8.79094746
_cell_angle_alpha   102.64556896
_cell_angle_beta   102.34447169
_cell_angle_gamma   89.89822238
_symmetry_Int_Tables_number   1
_chemical_formula_structural   MgMo2(BrO)4
_chemical_formula_sum   'Mg1 Mo2 Br4 O4'
_cell_volume   250.96380077
_cell_formula_units_Z   1
loop_
 _symmetry_equiv_pos_site_id
 _symmetry_equiv_pos_as_xyz
  1  'x, y, z'
loop_
 _atom_site_type_symbol
 _atom_site_label
 _atom_site_symmetry_multiplicity
 _atom_site_fract_x
 _atom_site_fract_y
 _atom_site_fract_z
 _atom_site_occupancy
  Mg  Mg0  1  0.73992200  0.10877200  0.52562900  1
  Mo  Mo0  1  0.01137500  0.47411700  0.01533700  1
  Mo  Mo1  1  0.98892800  0.96716200  0.98509800  1
  Br  Br0  1  0.83569500  0.86585600  0.67424000  1
  Br  Br1  1  0.85976500  0.41244700  0.67994600  1
  Br  Br2  1  0.14597800  0.04389100  0.32478300  1
  Br  Br3  1  0.15315900  0.54345400  0.31260700  1
  O  O0  1  0.49319200  0.96882800  0.99373500  1
  O  O1  1  0.50430200  0.47191600  0.00912500  1
  O  O2  1  0.99598400  0.71299400  0.99792900  1
  O  O3  1  0.99286500  0.22483600  0.99057300  1
loop_
_geom_bond_atom_site_label_1
_geom_bond_atom_site_label_2
_geom_bond_distance
_geom_bond_site_symmetry_2
Mo0 O2 1.888108 1_454
Mo0 O3 1.893433 1_454
Mo0 O1 1.921900 1_555
Mo0 O1 1.953400 1_455
Mo1 O0 1.937989 1_555
Mo1 O0 1.938606 1_655
Mo1 O3 1.984402 1_565
Mo1 O2 1.994781 1_555
Br0 Mg0 2.499022 1_565
Br0 Mo1 2.608621 1_555
Br1 Mg0 2.432871 1_555
Br1 Mo0 2.812519 1_656
Br2 Mg0 2.557832 1_555
Br2 Mg0 2.576920 1_455
Br2 Mo1 2.843933 1_444
Br3 Mo0 2.488417 1_555
