# generated using pymatgen
data_Ba2MgMn3Tl2O10
_symmetry_space_group_name_H-M   'P 1'
_cell_length_a   3.66437465
_cell_length_b   3.81291702
_cell_length_c   20.34068154
_cell_angle_alpha   85.69170131
_cell_angle_beta   86.59939812
_cell_angle_gamma   89.73083311
_symmetry_Int_Tables_number   1
_chemical_formula_structural   Ba2MgMn3Tl2O10
_chemical_formula_sum   'Ba2 Mg1 Mn3 Tl2 O10'
_cell_volume   282.89703469
_cell_formula_units_Z   1
loop_
 _symmetry_equiv_pos_site_id
 _symmetry_equiv_pos_as_xyz
  1  'x, y, z'
loop_
 _atom_site_type_symbol
 _atom_site_label
 _atom_site_symmetry_multiplicity
 _atom_site_fract_x
 _atom_site_fract_y
 _atom_site_fract_z
 _atom_site_occupancy
  Ba  Ba0  1  0.18737640  0.15384738  0.25406002  1
  Ba  Ba1  1  0.80583673  0.81524486  0.76312676  1
  Mg  Mg0  1  0.79864899  0.36545594  0.63689108  1
  Mn  Mn0  1  0.26654726  0.27025245  0.87852851  1
  Mn  Mn1  1  0.72694011  0.70216830  0.13091891  1
  Mn  Mn2  1  0.26806672  0.72487255  0.99993049  1
  Tl  Tl0  1  0.63683558  0.53096802  0.40269802  1
  Tl  Tl1  1  0.30807339  0.82380719  0.52278796  1
  O  O0  1  0.27319401  0.77547844  0.86512770  1
  O  O1  1  0.29074823  0.34819350  0.68840708  1
  O  O2  1  0.77948290  0.28143914  0.84736589  1
  O  O3  1  0.82044341  0.88915423  0.59503164  1
  O  O4  1  0.75598141  0.71807673  0.03504178  1
  O  O5  1  0.21995990  0.69395765  0.15296556  1
  O  O6  1  0.67232619  0.64329253  0.29894550  1
  O  O7  1  0.71912972  0.19104372  0.15639215  1
  O  O8  1  0.11681998  0.17672054  0.42360132  1
  O  O9  1  0.27190906  0.23615884  0.97337563  1
loop_
_geom_bond_atom_site_label_1
_geom_bond_atom_site_label_2
_geom_bond_distance
_geom_bond_site_symmetry_2
Ba0 O7 2.695305 1_555
Ba0 O7 2.696417 1_455
Ba0 O6 2.770202 1_545
Ba0 O6 2.783581 1_445
Ba0 O5 2.796566 1_555
Ba0 O5 2.797902 1_545
Ba0 O6 2.810133 1_455
Ba0 O6 2.820252 1_555
Ba1 O2 2.557625 1_565
Ba1 O2 2.558563 1_555
Ba1 O0 2.759038 1_555
Ba1 O0 2.762677 1_655
Ba1 O1 2.948762 1_655
Ba1 O1 2.974257 1_665
Ba1 O1 3.134074 1_555
Ba1 O1 3.137220 1_565
Mg0 O3 2.062149 1_545
Mg0 O1 2.079814 1_555
Mg0 O3 2.111069 1_555
Mg0 O1 2.136987 1_655
Mn0 O9 1.925124 1_555
Mn0 O0 1.925256 1_555
Mn0 O0 1.926121 1_545
Mn0 O2 1.928343 1_455
Mn0 O2 1.947257 1_555
Mn1 O5 1.884934 1_555
Mn1 O5 1.886635 1_655
Mn1 O4 1.943187 1_555
Mn1 O7 1.971496 1_565
Mn1 O7 1.978498 1_555
Mn2 O4 1.963567 1_556
Mn2 O4 1.967377 1_456
Mn2 O9 1.978480 1_555
Mn2 O9 1.983335 1_565
O3 Tl1 2.270167 1_655
O3 Tl1 2.476540 1_555
O6 Tl0 2.118084 1_555
O8 Tl0 2.253632 1_455
O8 Tl0 2.340523 1_555
O8 Tl1 2.474522 1_545
