# generated using pymatgen
data_Na3YNbSi2PO12
_symmetry_space_group_name_H-M   'P 1'
_cell_length_a   16.11733713
_cell_length_b   27.81027818
_cell_length_c   9.18592448
_cell_angle_alpha   90.00000000
_cell_angle_beta   125.11816186
_cell_angle_gamma   90.00000000
_symmetry_Int_Tables_number   1
_chemical_formula_structural   Na3YNbSi2PO12
_chemical_formula_sum   'Na36 Y12 Nb12 Si24 P12 O144'
_cell_volume   3367.88686192
_cell_formula_units_Z   12
loop_
 _symmetry_equiv_pos_site_id
 _symmetry_equiv_pos_as_xyz
  1  'x, y, z'
loop_
 _atom_site_type_symbol
 _atom_site_label
 _atom_site_symmetry_multiplicity
 _atom_site_fract_x
 _atom_site_fract_y
 _atom_site_fract_z
 _atom_site_occupancy
  Na  Na0  1  0.24920235  0.25625285  0.00017911  1
  Na  Na1  1  0.24247443  0.58793643  0.00902759  1
  Na  Na2  1  0.24419615  0.91960486  0.01009330  1
  Na  Na3  1  0.74920235  0.24374715  0.50017911  1
  Na  Na4  1  0.74419615  0.58039514  0.51009330  1
  Na  Na5  1  0.74247443  0.91206357  0.50902759  1
  Na  Na6  1  0.74247443  0.08793643  0.00902759  1
  Na  Na7  1  0.74419615  0.41960486  0.01009330  1
  Na  Na8  1  0.74920235  0.75625285  0.00017911  1
  Na  Na9  1  0.24419615  0.08039514  0.51009330  1
  Na  Na10  1  0.24247443  0.41206357  0.50902759  1
  Na  Na11  1  0.24920235  0.74374715  0.50017911  1
  Na  Na12  1  0.49322918  0.02979001  0.75104266  1
  Na  Na13  1  0.49514497  0.36352575  0.75737211  1
  Na  Na14  1  0.49263099  0.69622098  0.74735831  1
  Na  Na15  1  0.49263099  0.30377902  0.24735831  1
  Na  Na16  1  0.49514497  0.63647425  0.25737211  1
  Na  Na17  1  0.49322918  0.97020999  0.25104266  1
  Na  Na18  1  0.99263099  0.19622098  0.74735831  1
  Na  Na19  1  0.99322918  0.52979001  0.75104266  1
  Na  Na20  1  0.99514497  0.86352575  0.75737211  1
  Na  Na21  1  0.99514497  0.13647425  0.25737211  1
  Na  Na22  1  0.99322918  0.47020999  0.25104266  1
  Na  Na23  1  0.99263099  0.80377902  0.24735831  1
  Na  Na24  1  0.82096755  0.64246377  0.19950979  1
  Na  Na25  1  0.81955749  0.97610774  0.20356882  1
  Na  Na26  1  0.19021562  0.30551000  0.29466073  1
  Na  Na27  1  0.19021562  0.69449000  0.79466073  1
  Na  Na28  1  0.81955749  0.02389226  0.70356882  1
  Na  Na29  1  0.82096755  0.35753623  0.69950979  1
  Na  Na30  1  0.32096755  0.14246377  0.19950979  1
  Na  Na31  1  0.31955749  0.47610774  0.20356882  1
  Na  Na32  1  0.69021562  0.80551000  0.29466073  1
  Na  Na33  1  0.69021562  0.19449000  0.79466073  1
  Na  Na34  1  0.31955749  0.52389226  0.70356882  1
  Na  Na35  1  0.32096755  0.85753623  0.69950979  1
  Y  Y0  1  0.89907663  0.25149206  0.94460937  1
  Y  Y1  1  0.89315473  0.58413285  0.93068218  1
  Y  Y2  1  0.89250393  0.91527848  0.93372322  1
  Y  Y3  1  0.89250393  0.08472152  0.43372322  1
  Y  Y4  1  0.89315473  0.41586715  0.43068218  1
  Y  Y5  1  0.89907663  0.74850794  0.44460937  1
  Y  Y6  1  0.39315473  0.08413285  0.93068218  1
  Y  Y7  1  0.39250393  0.41527848  0.93372322  1
  Y  Y8  1  0.39907663  0.75149206  0.94460937  1
  Y  Y9  1  0.39907663  0.24850794  0.44460937  1
  Y  Y10  1  0.39250393  0.58472152  0.43372322  1
  Y  Y11  1  0.39315473  0.91586715  0.43068218  1
  Nb  Nb0  1  0.10597363  0.24760452  0.56403327  1
  Nb  Nb1  1  0.10429464  0.58213505  0.56293133  1
  Nb  Nb2  1  0.10524495  0.91656834  0.56317724  1
  Nb  Nb3  1  0.10524495  0.08343166  0.06317724  1
  Nb  Nb4  1  0.10429464  0.41786495  0.06293133  1
  Nb  Nb5  1  0.10597363  0.75239548  0.06403327  1
  Nb  Nb6  1  0.60429464  0.08213505  0.56293133  1
  Nb  Nb7  1  0.60524495  0.41656834  0.56317724  1
  Nb  Nb8  1  0.60597363  0.74760452  0.56403327  1
  Nb  Nb9  1  0.60597363  0.25239548  0.06403327  1
  Nb  Nb10  1  0.60524495  0.58343166  0.06317724  1
  Nb  Nb11  1  0.60429464  0.91786495  0.06293133  1
  Si  Si0  1  0.34611348  0.29533984  0.74563583  1
  Si  Si1  1  0.34954287  0.62961866  0.75855909  1
  Si  Si2  1  0.34838705  0.96255434  0.75273670  1
  Si  Si3  1  0.64602312  0.30362903  0.74319817  1
  Si  Si4  1  0.64419275  0.63493705  0.74027563  1
  Si  Si5  1  0.64496757  0.96946449  0.74068719  1
  Si  Si6  1  0.64496757  0.03053551  0.24068719  1
  Si  Si7  1  0.64419275  0.36506295  0.24027563  1
  Si  Si8  1  0.64602312  0.69637097  0.24319817  1
  Si  Si9  1  0.34838705  0.03744566  0.25273670  1
  Si  Si10  1  0.34954287  0.37038134  0.25855909  1
  Si  Si11  1  0.34611348  0.70466016  0.24563583  1
  Si  Si12  1  0.84954287  0.12961866  0.75855909  1
  Si  Si13  1  0.84838705  0.46255434  0.75273670  1
  Si  Si14  1  0.84611348  0.79533984  0.74563583  1
  Si  Si15  1  0.14419275  0.13493705  0.74027563  1
  Si  Si16  1  0.14496757  0.46946449  0.74068719  1
  Si  Si17  1  0.14602312  0.80362903  0.74319817  1
  Si  Si18  1  0.14602312  0.19637097  0.24319817  1
  Si  Si19  1  0.14496757  0.53053551  0.24068719  1
  Si  Si20  1  0.14419275  0.86506295  0.24027563  1
  Si  Si21  1  0.84611348  0.20466016  0.24563583  1
  Si  Si22  1  0.84838705  0.53744566  0.25273670  1
  Si  Si23  1  0.84954287  0.87038134  0.25855909  1
  P  P0  1  0.01104724  0.31903602  0.75551567  1
  P  P1  1  0.00782207  0.65146098  0.74972275  1
  P  P2  1  0.00847719  0.98628075  0.74947655  1
  P  P3  1  0.00847719  0.01371925  0.24947655  1
  P  P4  1  0.00782207  0.34853902  0.24972275  1
  P  P5  1  0.01104724  0.68096398  0.25551567  1
  P  P6  1  0.50782207  0.15146098  0.74972275  1
  P  P7  1  0.50847719  0.48628075  0.74947655  1
  P  P8  1  0.51104724  0.81903602  0.75551567  1
  P  P9  1  0.51104724  0.18096398  0.25551567  1
  P  P10  1  0.50847719  0.51371925  0.24947655  1
  P  P11  1  0.50782207  0.84853902  0.24972275  1
  O  O0  1  0.14212392  0.19599740  0.74319037  1
  O  O1  1  0.14357799  0.53040490  0.74672819  1
  O  O2  1  0.14465632  0.86347600  0.74616579  1
  O  O3  1  0.84023837  0.18779914  0.75230701  1
  O  O4  1  0.84482026  0.52024512  0.74825751  1
  O  O5  1  0.84239244  0.85360597  0.74889252  1
  O  O6  1  0.84239244  0.14639403  0.24889252  1
  O  O7  1  0.84482026  0.47975488  0.24825751  1
  O  O8  1  0.84023837  0.81220086  0.25230701  1
  O  O9  1  0.14465632  0.13652400  0.24616579  1
  O  O10  1  0.14357799  0.46959510  0.24672819  1
  O  O11  1  0.14212392  0.80400260  0.24319037  1
  O  O12  1  0.64357799  0.03040490  0.74672819  1
  O  O13  1  0.64465632  0.36347600  0.74616579  1
  O  O14  1  0.64212392  0.69599740  0.74319037  1
  O  O15  1  0.34482026  0.02024512  0.74825751  1
  O  O16  1  0.34239244  0.35360597  0.74889252  1
  O  O17  1  0.34023837  0.68779914  0.75230701  1
  O  O18  1  0.34023837  0.31220086  0.25230701  1
  O  O19  1  0.34239244  0.64639403  0.24889252  1
  O  O20  1  0.34482026  0.97975488  0.24825751  1
  O  O21  1  0.64212392  0.30400260  0.24319037  1
  O  O22  1  0.64465632  0.63652400  0.24616579  1
  O  O23  1  0.64357799  0.96959510  0.24672819  1
  O  O24  1  0.44497122  0.17819142  0.57341539  1
  O  O25  1  0.44222094  0.51488485  0.57878077  1
  O  O26  1  0.44746829  0.85006268  0.59240873  1
  O  O27  1  0.56707642  0.18843195  0.90924441  1
  O  O28  1  0.56676761  0.52285151  0.91334481  1
  O  O29  1  0.57251700  0.85309019  0.92743808  1
  O  O30  1  0.57251700  0.14690981  0.42743808  1
  O  O31  1  0.56676761  0.47714849  0.41334481  1
  O  O32  1  0.56707642  0.81156805  0.40924441  1
  O  O33  1  0.44746829  0.14993732  0.09240873  1
  O  O34  1  0.44222094  0.48511515  0.07878077  1
  O  O35  1  0.44497122  0.82180858  0.07341539  1
  O  O36  1  0.94222094  0.01488485  0.57878077  1
  O  O37  1  0.94746829  0.35006268  0.59240873  1
  O  O38  1  0.94497122  0.67819142  0.57341539  1
  O  O39  1  0.06676761  0.02285151  0.91334481  1
  O  O40  1  0.07251700  0.35309019  0.92743808  1
  O  O41  1  0.06707642  0.68843195  0.90924441  1
  O  O42  1  0.06707642  0.31156805  0.40924441  1
  O  O43  1  0.07251700  0.64690981  0.42743808  1
  O  O44  1  0.06676761  0.97714849  0.41334481  1
  O  O45  1  0.94497122  0.32180858  0.07341539  1
  O  O46  1  0.94746829  0.64993732  0.09240873  1
  O  O47  1  0.94222094  0.98511515  0.07878077  1
  O  O48  1  0.24912587  0.27051897  0.73650620  1
  O  O49  1  0.25381452  0.60363494  0.75135825  1
  O  O50  1  0.25282798  0.93592753  0.74432230  1
  O  O51  1  0.74330061  0.28425500  0.75096359  1
  O  O52  1  0.74070731  0.61642141  0.74947537  1
  O  O53  1  0.74471518  0.95532885  0.74827853  1
  O  O54  1  0.74471518  0.04467115  0.24827853  1
  O  O55  1  0.74070731  0.38357859  0.24947537  1
  O  O56  1  0.74330061  0.71574500  0.25096359  1
  O  O57  1  0.25282798  0.06407247  0.24432230  1
  O  O58  1  0.25381452  0.39636506  0.25135825  1
  O  O59  1  0.24912587  0.72948103  0.23650620  1
  O  O60  1  0.75381452  0.10363494  0.75135825  1
  O  O61  1  0.75282798  0.43592753  0.74432230  1
  O  O62  1  0.74912587  0.77051897  0.73650620  1
  O  O63  1  0.24070731  0.11642141  0.74947537  1
  O  O64  1  0.24471518  0.45532885  0.74827853  1
  O  O65  1  0.24330061  0.78425500  0.75096359  1
  O  O66  1  0.24330061  0.21574500  0.25096359  1
  O  O67  1  0.24471518  0.54467115  0.24827853  1
  O  O68  1  0.24070731  0.88357859  0.24947537  1
  O  O69  1  0.74912587  0.22948103  0.23650620  1
  O  O70  1  0.75282798  0.56407247  0.24432230  1
  O  O71  1  0.75381452  0.89636506  0.25135825  1
  O  O72  1  0.33398984  0.28257285  0.56364041  1
  O  O73  1  0.34633453  0.60989480  0.59262864  1
  O  O74  1  0.34862132  0.94105314  0.59295178  1
  O  O75  1  0.63695879  0.28579736  0.91343089  1
  O  O76  1  0.63929563  0.61981273  0.91966237  1
  O  O77  1  0.64194848  0.95272217  0.92110434  1
  O  O78  1  0.64194848  0.04727783  0.42110434  1
  O  O79  1  0.63929563  0.38018727  0.41966237  1
  O  O80  1  0.63695879  0.71420264  0.41343089  1
  O  O81  1  0.34862132  0.05894686  0.09295178  1
  O  O82  1  0.34633453  0.39010520  0.09262864  1
  O  O83  1  0.33398984  0.71742715  0.06364041  1
  O  O84  1  0.84633453  0.10989480  0.59262864  1
  O  O85  1  0.84862132  0.44105314  0.59295178  1
  O  O86  1  0.83398984  0.78257285  0.56364041  1
  O  O87  1  0.13929563  0.11981273  0.91966237  1
  O  O88  1  0.14194848  0.45272217  0.92110434  1
  O  O89  1  0.13695879  0.78579736  0.91343089  1
  O  O90  1  0.13695879  0.21420264  0.41343089  1
  O  O91  1  0.14194848  0.54727783  0.42110434  1
  O  O92  1  0.13929563  0.88018727  0.41966237  1
  O  O93  1  0.83398984  0.21742715  0.06364041  1
  O  O94  1  0.84862132  0.55894686  0.09295178  1
  O  O95  1  0.84633453  0.89010520  0.09262864  1
  O  O96  1  0.45903316  0.27339625  0.92142226  1
  O  O97  1  0.46171243  0.60758061  0.93895611  1
  O  O98  1  0.46225052  0.93968385  0.93692457  1
  O  O99  1  0.54385357  0.28451434  0.56481609  1
  O  O100  1  0.53832160  0.62011928  0.56168411  1
  O  O101  1  0.54114360  0.95300430  0.56350829  1
  O  O102  1  0.54114360  0.04699570  0.06350829  1
  O  O103  1  0.53832160  0.37988072  0.06168411  1
  O  O104  1  0.54385357  0.71548566  0.06481609  1
  O  O105  1  0.46225052  0.06031615  0.43692457  1
  O  O106  1  0.46171243  0.39241939  0.43895611  1
  O  O107  1  0.45903316  0.72660375  0.42142226  1
  O  O108  1  0.96171243  0.10758061  0.93895611  1
  O  O109  1  0.96225052  0.43968385  0.93692457  1
  O  O110  1  0.95903316  0.77339625  0.92142226  1
  O  O111  1  0.03832160  0.12011928  0.56168411  1
  O  O112  1  0.04114360  0.45300430  0.56350829  1
  O  O113  1  0.04385357  0.78451434  0.56481609  1
  O  O114  1  0.04385357  0.21548566  0.06481609  1
  O  O115  1  0.04114360  0.54699570  0.06350829  1
  O  O116  1  0.03832160  0.87988072  0.06168411  1
  O  O117  1  0.95903316  0.22660375  0.42142226  1
  O  O118  1  0.96225052  0.56031615  0.43692457  1
  O  O119  1  0.96171243  0.89241939  0.43895611  1
  O  O120  1  0.08846245  0.28712079  0.74924380  1
  O  O121  1  0.09465218  0.62339139  0.75224903  1
  O  O122  1  0.08868305  0.95532412  0.74769802  1
  O  O123  1  0.93704876  0.28570821  0.76418995  1
  O  O124  1  0.94219000  0.61452358  0.76131784  1
  O  O125  1  0.93773724  0.95307674  0.76571706  1
  O  O126  1  0.93773724  0.04692326  0.26571706  1
  O  O127  1  0.94219000  0.38547642  0.26131784  1
  O  O128  1  0.93704876  0.71429179  0.26418995  1
  O  O129  1  0.08868305  0.04467588  0.24769802  1
  O  O130  1  0.09465218  0.37660861  0.25224903  1
  O  O131  1  0.08846245  0.71287921  0.24924380  1
  O  O132  1  0.59465218  0.12339139  0.75224903  1
  O  O133  1  0.58868305  0.45532412  0.74769802  1
  O  O134  1  0.58846245  0.78712079  0.74924380  1
  O  O135  1  0.44219000  0.11452358  0.76131784  1
  O  O136  1  0.43773724  0.45307674  0.76571706  1
  O  O137  1  0.43704876  0.78570821  0.76418995  1
  O  O138  1  0.43704876  0.21429179  0.26418995  1
  O  O139  1  0.43773724  0.54692326  0.26571706  1
  O  O140  1  0.44219000  0.88547642  0.26131784  1
  O  O141  1  0.58846245  0.21287921  0.24924380  1
  O  O142  1  0.58868305  0.54467588  0.24769802  1
  O  O143  1  0.59465218  0.87660861  0.25224903  1
loop_
_geom_bond_atom_site_label_1
_geom_bond_atom_site_label_2
_geom_bond_distance
_geom_bond_site_symmetry_2
Na0 O120 2.427208 1_554
Na0 O48 2.453659 1_554
Na0 O18 2.455200 1_555
Na0 O0 2.583006 1_554
Na0 O66 2.614807 1_555
Na0 O138 2.821675 1_555
Na1 O121 2.397201 1_554
Na1 O19 2.451287 1_555
Na1 O67 2.487527 1_555
Na1 O49 2.514776 1_554
Na1 O1 2.547038 1_554
Na1 O139 2.868346 1_555
Na2 O68 2.446342 1_555
Na2 O122 2.475484 1_554
Na2 O20 2.476396 1_555
Na2 O2 2.532431 1_554
Na2 O50 2.564447 1_554
Na2 O140 2.817263 1_555
Na3 O141 2.427208 1_555
Na3 O69 2.453659 1_555
Na3 O3 2.455200 1_555
Na3 O21 2.583006 1_555
Na3 O51 2.614807 1_555
Na3 O123 2.821675 1_555
Na4 O52 2.446342 1_555
Na4 O142 2.475484 1_555
Na4 O4 2.476396 1_555
Na4 O22 2.532431 1_555
Na4 O70 2.564447 1_555
Na4 O124 2.817263 1_555
Na5 O143 2.397201 1_555
Na5 O5 2.451287 1_555
Na5 O53 2.487527 1_555
Na5 O71 2.514776 1_555
Na5 O23 2.547038 1_555
Na5 O125 2.868346 1_555
Na6 O132 2.397201 1_554
Na6 O6 2.451287 1_555
Na6 O54 2.487527 1_555
Na6 O60 2.514776 1_554
Na6 O12 2.547038 1_554
Na6 O126 2.868346 1_555
Na7 O55 2.446342 1_555
Na7 O133 2.475484 1_554
Na7 O7 2.476396 1_555
Na7 O13 2.532431 1_554
Na7 O61 2.564447 1_554
Na7 O127 2.817263 1_555
Na8 O134 2.427208 1_554
Na8 O62 2.453659 1_554
Na8 O8 2.455200 1_555
Na8 O14 2.583006 1_554
Na8 O56 2.614807 1_555
Na8 O128 2.821675 1_555
Na9 O63 2.446342 1_555
Na9 O129 2.475484 1_555
Na9 O15 2.476396 1_555
Na9 O9 2.532431 1_555
Na9 O57 2.564447 1_555
Na9 O135 2.817263 1_555
Na10 O130 2.397201 1_555
Na10 O16 2.451287 1_555
Na10 O64 2.487527 1_555
Na10 O58 2.514776 1_555
Na10 O10 2.547038 1_555
Na10 O136 2.868346 1_555
Na11 O131 2.427208 1_555
Na11 O59 2.453659 1_555
Na11 O17 2.455200 1_555
Na11 O11 2.583006 1_555
Na11 O65 2.614807 1_555
Na11 O137 2.821675 1_555
Na12 O15 2.392105 1_555
Na12 O12 2.446296 1_555
Na12 O135 2.515524 1_555
Na12 O102 2.552180 1_556
Na12 O105 2.763755 1_555
Na12 O77 2.910554 1_545
Na13 O16 2.433681 1_555
Na13 O13 2.470379 1_555
Na13 O103 2.503442 1_556
Na13 O136 2.673175 1_555
Na13 O106 2.770920 1_555
Na13 O75 2.860454 1_555
Na14 O14 2.431662 1_555
Na14 O17 2.493616 1_555
Na14 O104 2.588940 1_556
Na14 O137 2.679411 1_555
Na14 O107 2.847107 1_555
Na14 O76 2.881606 1_555
Na15 O21 2.431662 1_555
Na15 O18 2.493616 1_555
Na15 O99 2.588940 1_555
Na15 O138 2.679411 1_555
Na15 O96 2.847107 1_554
Na15 O79 2.881606 1_555
Na16 O19 2.433681 1_555
Na16 O22 2.470379 1_555
Na16 O100 2.503442 1_555
Na16 O139 2.673175 1_555
Na16 O97 2.770920 1_554
Na16 O80 2.860454 1_555
Na17 O20 2.392105 1_555
Na17 O23 2.446296 1_555
Na17 O140 2.515524 1_555
Na17 O101 2.552180 1_555
Na17 O98 2.763755 1_554
Na17 O78 2.910554 1_565
Na18 O0 2.431662 1_655
Na18 O3 2.493616 1_555
Na18 O114 2.588940 1_656
Na18 O123 2.679411 1_555
Na18 O117 2.847107 1_555
Na18 O87 2.881606 1_655
Na19 O4 2.392105 1_555
Na19 O1 2.446296 1_655
Na19 O124 2.515524 1_555
Na19 O115 2.552180 1_656
Na19 O118 2.763755 1_555
Na19 O88 2.910554 1_655
Na20 O5 2.433681 1_555
Na20 O2 2.470379 1_655
Na20 O116 2.503442 1_656
Na20 O125 2.673175 1_555
Na20 O119 2.770920 1_555
Na20 O89 2.860454 1_655
Na21 O6 2.433681 1_555
Na21 O9 2.470379 1_655
Na21 O111 2.503442 1_655
Na21 O126 2.673175 1_555
Na21 O108 2.770920 1_554
Na21 O90 2.860454 1_655
Na22 O7 2.392105 1_555
Na22 O10 2.446296 1_655
Na22 O127 2.515524 1_555
Na22 O112 2.552180 1_655
Na22 O109 2.763755 1_554
Na22 O91 2.910554 1_655
Na23 O11 2.431662 1_655
Na23 O8 2.493616 1_555
Na23 O113 2.588940 1_655
Na23 O128 2.679411 1_555
Na23 O110 2.847107 1_554
Na23 O92 2.881606 1_655
Na24 O128 2.562159 1_555
Na24 O56 2.573793 1_555
Na24 O70 2.578459 1_555
Na24 O76 2.630318 1_554
Na24 O94 2.655808 1_555
Na24 O46 2.734200 1_555
Na24 O38 2.980058 1_555
Na25 O54 2.414432 1_565
Na25 O126 2.565426 1_565
Na25 O71 2.601670 1_555
Na25 O77 2.608488 1_554
Na25 O95 2.729708 1_555
Na25 O47 2.809389 1_555
Na26 O72 2.300906 1_555
Na26 O130 2.396519 1_555
Na26 O18 2.667376 1_555
Na26 O42 2.734710 1_555
Na26 O66 2.742306 1_555
Na26 O58 2.839417 1_555
Na27 O83 2.300906 1_556
Na27 O121 2.396519 1_555
Na27 O17 2.667376 1_555
Na27 O41 2.734710 1_555
Na27 O65 2.742306 1_555
Na27 O49 2.839417 1_555
Na28 O53 2.414432 1_545
Na28 O125 2.565426 1_545
Na28 O60 2.601670 1_555
Na28 O78 2.608488 1_555
Na28 O84 2.729708 1_555
Na28 O36 2.809389 1_555
Na29 O123 2.562159 1_555
Na29 O51 2.573793 1_555
Na29 O61 2.578459 1_555
Na29 O79 2.630318 1_555
Na29 O85 2.655808 1_555
Na29 O37 2.734200 1_555
Na29 O45 2.980058 1_556
Na30 O138 2.562159 1_555
Na30 O66 2.573793 1_555
Na30 O57 2.578459 1_555
Na30 O87 2.630318 1_554
Na30 O81 2.655808 1_555
Na30 O33 2.734200 1_555
Na30 O24 2.980058 1_555
Na31 O67 2.414432 1_555
Na31 O139 2.565426 1_555
Na31 O58 2.601670 1_555
Na31 O88 2.608488 1_554
Na31 O82 2.729708 1_555
Na31 O34 2.809389 1_555
Na32 O86 2.300906 1_555
Na32 O143 2.396519 1_555
Na32 O8 2.667376 1_555
Na32 O32 2.734710 1_555
Na32 O56 2.742306 1_555
Na32 O71 2.839417 1_555
Na33 O93 2.300906 1_556
Na33 O132 2.396519 1_555
Na33 O3 2.667376 1_555
Na33 O27 2.734710 1_555
Na33 O51 2.742306 1_555
Na33 O60 2.839417 1_555
Na34 O64 2.414432 1_555
Na34 O136 2.565426 1_555
Na34 O49 2.601670 1_555
Na34 O91 2.608488 1_555
Na34 O73 2.729708 1_555
Na34 O25 2.809389 1_555
Na35 O137 2.562159 1_555
Na35 O65 2.573793 1_555
Na35 O50 2.578459 1_555
Na35 O92 2.630318 1_555
Na35 O74 2.655808 1_555
Na35 O26 2.734200 1_555
Na35 O35 2.980058 1_556
Nb0 O90 1.954742 1_555
Nb0 O0 2.001123 1_555
Nb0 O48 2.008446 1_555
Nb0 O117 2.023987 1_455
Nb0 O42 2.133885 1_555
Nb0 O120 2.175854 1_555
Nb1 O118 1.974940 1_455
Nb1 O91 1.978637 1_555
Nb1 O1 2.022661 1_555
Nb1 O43 2.079197 1_555
Nb1 O49 2.088497 1_555
Nb1 O121 2.162369 1_555
Nb2 O92 1.973634 1_555
Nb2 O119 2.016841 1_455
Nb2 O44 2.033539 1_555
Nb2 O50 2.040301 1_555
Nb2 O2 2.044654 1_555
Nb2 O122 2.150927 1_555
Nb3 O87 1.973634 1_554
Nb3 O108 2.016841 1_454
Nb3 O39 2.033539 1_554
Nb3 O57 2.040301 1_555
Nb3 O9 2.044654 1_555
Nb3 O129 2.150927 1_555
Nb4 O109 1.974940 1_454
Nb4 O88 1.978637 1_554
Nb4 O10 2.022661 1_555
Nb4 O40 2.079197 1_554
Nb4 O58 2.088497 1_555
Nb4 O130 2.162369 1_555
Nb5 O89 1.954742 1_554
Nb5 O11 2.001123 1_555
Nb5 O59 2.008446 1_555
Nb5 O110 2.023987 1_454
Nb5 O41 2.133885 1_554
Nb5 O131 2.175854 1_555
Nb6 O105 1.974940 1_555
Nb6 O78 1.978637 1_555
Nb6 O12 2.022661 1_555
Nb6 O30 2.079197 1_555
Nb6 O60 2.088497 1_555
Nb6 O132 2.162369 1_555
Nb7 O79 1.973634 1_555
Nb7 O106 2.016841 1_555
Nb7 O31 2.033539 1_555
Nb7 O61 2.040301 1_555
Nb7 O13 2.044654 1_555
Nb7 O133 2.150927 1_555
Nb8 O80 1.954742 1_555
Nb8 O14 2.001123 1_555
Nb8 O62 2.008446 1_555
Nb8 O107 2.023987 1_555
Nb8 O32 2.133885 1_555
Nb8 O134 2.175854 1_555
Nb9 O75 1.954742 1_554
Nb9 O21 2.001123 1_555
Nb9 O69 2.008446 1_555
Nb9 O96 2.023987 1_554
Nb9 O27 2.133885 1_554
Nb9 O141 2.175854 1_555
Nb10 O76 1.973634 1_554
Nb10 O97 2.016841 1_554
Nb10 O28 2.033539 1_554
Nb10 O70 2.040301 1_555
Nb10 O22 2.044654 1_555
Nb10 O142 2.150927 1_555
Nb11 O98 1.974940 1_554
Nb11 O77 1.978637 1_554
Nb11 O23 2.022661 1_555
Nb11 O29 2.079197 1_554
Nb11 O71 2.088497 1_555
Nb11 O143 2.162369 1_555
O0 Si15 1.698946 1_555
O1 Si16 1.696247 1_555
O2 Si17 1.664937 1_555
O3 Si12 1.622915 1_555
O3 Y0 2.286912 1_555
O4 Si13 1.605106 1_555
O4 Y1 2.251627 1_555
O5 Si14 1.622419 1_555
O5 Y2 2.213357 1_555
O6 Si21 1.622419 1_555
O6 Y3 2.213357 1_555
O7 Si22 1.605106 1_555
O7 Y4 2.251627 1_555
O8 Si23 1.622915 1_555
O8 Y5 2.286912 1_555
O9 Si18 1.664937 1_555
O10 Si19 1.696247 1_555
O11 Si20 1.698946 1_555
O12 Si5 1.696247 1_545
O13 Si3 1.664937 1_555
O14 Si4 1.698946 1_555
O15 Si2 1.605106 1_545
O15 Y6 2.251627 1_555
O16 Si0 1.622419 1_555
O16 Y7 2.213357 1_555
O17 Si1 1.622915 1_555
O17 Y8 2.286912 1_555
O18 Si10 1.622915 1_555
O18 Y9 2.286912 1_555
O19 Si11 1.622419 1_555
O19 Y10 2.213357 1_555
O20 Si9 1.605106 1_565
O20 Y11 2.251627 1_555
O21 Si7 1.698946 1_555
O22 Si8 1.664937 1_555
O23 Si6 1.696247 1_565
O24 P6 1.521234 1_555
O24 Y9 2.182712 1_555
O25 P7 1.518322 1_555
O25 Y10 2.227378 1_555
O26 P8 1.507650 1_555
O26 Y11 2.196848 1_555
O27 P6 1.583151 1_555
O28 P7 1.598692 1_555
O29 P8 1.603869 1_555
O30 P9 1.603869 1_555
O31 P10 1.598692 1_555
O32 P11 1.583151 1_555
O33 P9 1.507650 1_555
O33 Y6 2.196848 1_554
O34 P10 1.518322 1_555
O34 Y7 2.227378 1_554
O35 P11 1.521234 1_555
O35 Y8 2.182712 1_554
O36 P2 1.518322 1_645
O36 Y3 2.227378 1_555
O37 P0 1.507650 1_655
O37 Y4 2.196848 1_555
O38 P1 1.521234 1_655
O38 Y5 2.182712 1_555
O39 P2 1.598692 1_545
O40 P0 1.603869 1_555
O41 P1 1.583151 1_555
O42 P4 1.583151 1_555
O43 P5 1.603869 1_555
O44 P3 1.598692 1_565
O45 P4 1.521234 1_655
O45 Y0 2.182712 1_554
O46 P5 1.507650 1_655
O46 Y1 2.196848 1_554
O47 P3 1.518322 1_665
O47 Y2 2.227378 1_554
O48 Si0 1.666200 1_555
O49 Si1 1.670217 1_555
O50 Si2 1.670160 1_555
O51 Si3 1.620149 1_555
O51 Y0 2.271481 1_555
O52 Si4 1.593990 1_555
O52 Y1 2.215537 1_555
O53 Si5 1.617099 1_555
O53 Y2 2.268865 1_555
O54 Si6 1.617099 1_555
O54 Y3 2.268865 1_555
O55 Si7 1.593990 1_555
O55 Y4 2.215537 1_555
O56 Si8 1.620149 1_555
O56 Y5 2.271481 1_555
O57 Si9 1.670160 1_555
O58 Si10 1.670217 1_555
O59 Si11 1.666200 1_555
O60 Si12 1.670217 1_555
O61 Si13 1.670160 1_555
O62 Si14 1.666200 1_555
O63 Si15 1.593990 1_555
O63 Y6 2.215537 1_555
O64 Si16 1.617099 1_555
O64 Y7 2.268865 1_555
O65 Si17 1.620149 1_555
O65 Y8 2.271481 1_555
O66 Si18 1.620149 1_555
O66 Y9 2.271481 1_555
O67 Si19 1.617099 1_555
O67 Y10 2.268865 1_555
O68 Si20 1.593990 1_555
O68 Y11 2.215537 1_555
O69 Si21 1.666200 1_555
O70 Si22 1.670160 1_555
O71 Si23 1.670217 1_555
O72 Si0 1.607266 1_555
O72 Y9 2.124419 1_555
O73 Si1 1.592524 1_555
O73 Y10 2.103388 1_555
O74 Si2 1.586914 1_555
O74 Y11 2.111539 1_555
O75 Si3 1.724935 1_555
O76 Si4 1.745891 1_555
O77 Si5 1.748880 1_555
O78 Si6 1.748880 1_555
O79 Si7 1.745891 1_555
O80 Si8 1.724935 1_555
O81 Si9 1.586914 1_555
O81 Y6 2.111539 1_554
O82 Si10 1.592524 1_555
O82 Y7 2.103388 1_554
O83 Si11 1.607266 1_555
O83 Y8 2.124419 1_554
O84 Si12 1.592524 1_555
O84 Y3 2.103388 1_555
O85 Si13 1.586914 1_555
O85 Y4 2.111539 1_555
O86 Si14 1.607266 1_555
O86 Y5 2.124419 1_555
O87 Si15 1.745891 1_555
O88 Si16 1.748880 1_555
O89 Si17 1.724935 1_555
O90 Si18 1.724935 1_555
O91 Si19 1.748880 1_555
O92 Si20 1.745891 1_555
O93 Si21 1.607266 1_555
O93 Y0 2.124419 1_554
O94 Si22 1.586914 1_555
O94 Y1 2.111539 1_554
O95 Si23 1.592524 1_555
O95 Y2 2.103388 1_554
O96 Si0 1.706152 1_555
O97 Si1 1.715589 1_555
O98 Si2 1.750047 1_555
O99 Si3 1.604608 1_555
O99 Y9 2.168498 1_555
O100 Si4 1.597530 1_555
O100 Y10 2.166980 1_555
O101 Si5 1.589079 1_555
O101 Y11 2.212732 1_555
O102 Si6 1.589079 1_555
O102 Y6 2.212732 1_554
O103 Si7 1.597530 1_555
O103 Y7 2.166980 1_554
O104 Si8 1.604608 1_555
O104 Y8 2.168498 1_554
O105 Si9 1.750047 1_555
O106 Si10 1.715589 1_555
O107 Si11 1.706152 1_555
O108 Si12 1.715589 1_555
O109 Si13 1.750047 1_555
O110 Si14 1.706152 1_555
O111 Si15 1.597530 1_555
O111 Y3 2.166980 1_455
O112 Si16 1.589079 1_555
O112 Y4 2.212732 1_455
O113 Si17 1.604608 1_555
O113 Y5 2.168498 1_455
O114 Si18 1.604608 1_555
O114 Y0 2.168498 1_454
O115 Si19 1.589079 1_555
O115 Y1 2.212732 1_454
O116 Si20 1.597530 1_555
O116 Y2 2.166980 1_454
O117 Si21 1.706152 1_555
O118 Si22 1.750047 1_555
O119 Si23 1.715589 1_555
O120 P0 1.559048 1_555
O121 P1 1.590931 1_555
O122 P2 1.561032 1_555
O123 P0 1.548284 1_655
O123 Y0 2.278970 1_555
O124 P1 1.521567 1_655
O124 Y1 2.274637 1_555
O125 P2 1.539662 1_655
O125 Y2 2.304933 1_555
O126 P3 1.539662 1_655
O126 Y3 2.304933 1_555
O127 P4 1.521567 1_655
O127 Y4 2.274637 1_555
O128 P5 1.548284 1_655
O128 Y5 2.278970 1_555
O129 P3 1.561032 1_555
O130 P4 1.590931 1_555
O131 P5 1.559048 1_555
O132 P6 1.590931 1_555
O133 P7 1.561032 1_555
O134 P8 1.559048 1_555
O135 P6 1.521567 1_555
O135 Y6 2.274637 1_555
O136 P7 1.539662 1_555
O136 Y7 2.304933 1_555
O137 P8 1.548284 1_555
O137 Y8 2.278970 1_555
O138 P9 1.548284 1_555
O138 Y9 2.278970 1_555
O139 P10 1.539662 1_555
O139 Y10 2.304933 1_555
O140 P11 1.521567 1_555
O140 Y11 2.274637 1_555
O141 P9 1.559048 1_555
O142 P10 1.561032 1_555
O143 P11 1.590931 1_555
