# generated using pymatgen
data_ZrGeP2SO12
_symmetry_space_group_name_H-M   'P 1'
_cell_length_a   8.60801771
_cell_length_b   8.65656050
_cell_length_c   22.39247528
_cell_angle_alpha   89.80039307
_cell_angle_beta   90.04224749
_cell_angle_gamma   119.91019929
_symmetry_Int_Tables_number   1
_chemical_formula_structural   ZrGeP2SO12
_chemical_formula_sum   'Zr6 Ge6 P12 S6 O72'
_cell_volume   1446.34070813
_cell_formula_units_Z   6
loop_
 _symmetry_equiv_pos_site_id
 _symmetry_equiv_pos_as_xyz
  1  'x, y, z'
loop_
 _atom_site_type_symbol
 _atom_site_label
 _atom_site_symmetry_multiplicity
 _atom_site_fract_x
 _atom_site_fract_y
 _atom_site_fract_z
 _atom_site_occupancy
  Zr  Zr0  1  0.99988910  0.00441393  0.35427218  1
  Zr  Zr1  1  0.99289581  0.00581912  0.64737245  1
  Zr  Zr2  1  0.01054801  0.00242922  0.13285164  1
  Zr  Zr3  1  0.66578860  0.33706629  0.69476513  1
  Zr  Zr4  1  0.67737756  0.33662691  0.47560902  1
  Zr  Zr5  1  0.32632867  0.67181036  0.30198609  1
  Ge  Ge0  1  0.00265525  0.00011113  0.85930494  1
  Ge  Ge1  1  0.67095617  0.33902220  0.17962614  1
  Ge  Ge2  1  0.65390301  0.33627872  0.97429950  1
  Ge  Ge3  1  0.33308656  0.66864318  0.01700483  1
  Ge  Ge4  1  0.33662084  0.67040223  0.52294333  1
  Ge  Ge5  1  0.35032318  0.67201971  0.81952139  1
  P  P0  1  0.30734639  0.03068758  0.24347364  1
  P  P1  1  0.97434321  0.27691788  0.24265633  1
  P  P2  1  0.27541320  0.29393177  0.76084369  1
  P  P3  1  0.70928067  0.98819569  0.75967738  1
  P  P4  1  0.97283340  0.35561905  0.58424282  1
  P  P5  1  0.64894212  0.61812136  0.58335469  1
  P  P6  1  0.95231635  0.59589274  0.07560418  1
  P  P7  1  0.40261121  0.36171544  0.07717827  1
  P  P8  1  0.62595661  0.67201168  0.91859138  1
  P  P9  1  0.33274843  0.95238643  0.91816472  1
  P  P10  1  0.61082609  0.93557320  0.41915647  1
  P  P11  1  0.06518423  0.68062834  0.41899998  1
  S  S0  1  0.72010853  0.69701494  0.24418120  1
  S  S1  1  0.01847377  0.72088163  0.75878730  1
  S  S2  1  0.37924955  0.03107458  0.58439002  1
  S  S3  1  0.64461103  0.04290414  0.07689695  1
  S  S4  1  0.04183335  0.37561090  0.91821984  1
  S  S5  1  0.32505297  0.38473461  0.41833584  1
  O  O0  1  0.22036410  0.05432270  0.29999340  1
  O  O1  1  0.82577520  0.77775362  0.29900548  1
  O  O2  1  0.94471237  0.16491614  0.29980787  1
  O  O3  1  0.19844324  0.16829237  0.81610094  1
  O  O4  1  0.97387300  0.79491702  0.81170018  1
  O  O5  1  0.83328894  0.02744784  0.81437076  1
  O  O6  1  0.78737079  0.94990326  0.70362578  1
  O  O7  1  0.15927869  0.20852513  0.70551657  1
  O  O8  1  0.05131475  0.82991337  0.70481642  1
  O  O9  1  0.79662481  0.81054798  0.19145776  1
  O  O10  1  0.00238275  0.18653092  0.18847379  1
  O  O11  1  0.18235565  0.98442534  0.18933833  1
  O  O12  1  0.87985978  0.37789179  0.63938521  1
  O  O13  1  0.49038023  0.11669247  0.63778058  1
  O  O14  1  0.62087552  0.50094766  0.63903654  1
  O  O15  1  0.87312153  0.47721007  0.13228929  1
  O  O16  1  0.61070106  0.12053136  0.13115073  1
  O  O17  1  0.52321564  0.39697122  0.13254784  1
  O  O18  1  0.46967128  0.30559332  0.02199154  1
  O  O19  1  0.83165913  0.51424622  0.02048530  1
  O  O20  1  0.68671792  0.15752078  0.02346200  1
  O  O21  1  0.45286896  0.14038441  0.53052843  1
  O  O22  1  0.67774518  0.53226052  0.52794474  1
  O  O23  1  0.85351347  0.31276700  0.52871045  1
  O  O24  1  0.54135605  0.71619399  0.97234605  1
  O  O25  1  0.16075336  0.45141681  0.97152816  1
  O  O26  1  0.28710301  0.82702154  0.97338308  1
  O  O27  1  0.53102773  0.82290168  0.47659616  1
  O  O28  1  0.29991214  0.46510808  0.47313212  1
  O  O29  1  0.17639577  0.70447695  0.47578256  1
  O  O30  1  0.14095008  0.64655204  0.36185718  1
  O  O31  1  0.50621634  0.84803816  0.36233201  1
  O  O32  1  0.35056055  0.48659273  0.36354092  1
  O  O33  1  0.11992029  0.49574376  0.86583369  1
  O  O34  1  0.37525792  0.86813589  0.86402977  1
  O  O35  1  0.49903678  0.62195657  0.86400481  1
  O  O36  1  0.05343543  0.84944052  0.41092620  1
  O  O37  1  0.79822596  0.95759478  0.41217765  1
  O  O38  1  0.15956248  0.21001173  0.41391128  1
  O  O39  1  0.02496562  0.19723036  0.91135446  1
  O  O40  1  0.16527422  0.97229174  0.90872652  1
  O  O41  1  0.81345416  0.83661541  0.90880883  1
  O  O42  1  0.00339582  0.19636173  0.59323365  1
  O  O43  1  0.19724885  0.00165648  0.59390034  1
  O  O44  1  0.81414534  0.80234032  0.59401394  1
  O  O45  1  0.97047467  0.78001300  0.08556427  1
  O  O46  1  0.79844556  0.01451674  0.08476951  1
  O  O47  1  0.21366249  0.20075902  0.08681339  1
  O  O48  1  0.68896493  0.15205191  0.74808706  1
  O  O49  1  0.46309411  0.31849094  0.74913750  1
  O  O50  1  0.86011306  0.54157782  0.75028854  1
  O  O51  1  0.71951707  0.52733319  0.23666875  1
  O  O52  1  0.80545055  0.29220615  0.23317769  1
  O  O53  1  0.48268130  0.20418943  0.23112860  1
  O  O54  1  0.64573062  0.50447012  0.92605327  1
  O  O55  1  0.86014865  0.35244042  0.92581242  1
  O  O56  1  0.50205450  0.13908767  0.92708921  1
  O  O57  1  0.62313810  0.11730506  0.42602777  1
  O  O58  1  0.48009490  0.35797289  0.42408693  1
  O  O59  1  0.87621676  0.51835031  0.42497539  1
  O  O60  1  0.39017774  0.53093539  0.06733290  1
  O  O61  1  0.13871565  0.61380604  0.06718440  1
  O  O62  1  0.47740661  0.86849972  0.07054165  1
  O  O63  1  0.37299596  0.85825847  0.57842601  1
  O  O64  1  0.48006791  0.63457664  0.57578699  1
  O  O65  1  0.15241503  0.52673509  0.57456074  1
  O  O66  1  0.34095695  0.87264462  0.25164302  1
  O  O67  1  0.53585272  0.66401139  0.25228001  1
  O  O68  1  0.14067492  0.46222643  0.25195893  1
  O  O69  1  0.28519150  0.47495123  0.77110613  1
  O  O70  1  0.17993329  0.70589057  0.76854696  1
  O  O71  1  0.52400865  0.81996103  0.76770130  1
loop_
_geom_bond_atom_site_label_1
_geom_bond_atom_site_label_2
_geom_bond_distance
_geom_bond_site_symmetry_2
Ge0 O3 1.855131 1_555
Ge0 O5 1.879934 1_455
Ge0 O40 1.890577 1_545
Ge0 O41 1.891388 1_445
Ge0 O4 1.981611 1_445
Ge0 O39 1.998434 1_555
Ge1 O52 1.845271 1_555
Ge1 O53 1.850897 1_555
Ge1 O15 1.871042 1_555
Ge1 O17 1.900237 1_555
Ge1 O51 1.948785 1_555
Ge1 O16 2.014880 1_555
Ge2 O18 1.818366 1_556
Ge2 O54 1.839294 1_555
Ge2 O19 1.855309 1_556
Ge2 O56 1.877583 1_555
Ge2 O55 2.025937 1_555
Ge2 O20 2.027272 1_556
Ge3 O61 1.869308 1_555
Ge3 O60 1.872616 1_555
Ge3 O26 1.876645 1_554
Ge3 O24 1.909813 1_554
Ge3 O62 1.960219 1_555
Ge3 O25 2.000705 1_554
Ge4 O64 1.843444 1_555
Ge4 O27 1.846650 1_555
Ge4 O65 1.850129 1_555
Ge4 O29 1.872403 1_555
Ge4 O63 1.947248 1_555
Ge4 O28 1.988831 1_555
Ge5 O71 1.817847 1_555
Ge5 O35 1.834974 1_555
Ge5 O69 1.859583 1_555
Ge5 O34 1.889343 1_555
Ge5 O70 1.991032 1_555
Ge5 O33 2.076367 1_555
O0 P0 1.536309 1_555
O0 Zr0 2.108984 1_455
O1 S0 1.480975 1_555
O1 Zr0 2.170054 1_565
O2 P1 1.545345 1_555
O2 Zr0 2.070959 1_555
O3 P2 1.557589 1_555
O4 S1 1.487736 1_655
O5 P3 1.547295 1_545
O6 P3 1.537353 1_555
O6 Zr1 2.023851 1_565
O7 P2 1.532432 1_555
O7 Zr1 2.081434 1_455
O8 S1 1.468940 1_555
O8 Zr1 2.230532 1_465
O9 S0 1.463236 1_555
O9 Zr2 2.193211 1_665
O10 P1 1.529022 1_455
O10 Zr2 2.054693 1_555
O11 P0 1.535977 1_565
O11 Zr2 2.009266 1_565
O12 P4 1.536019 1_555
O12 Zr3 2.099816 1_555
O13 S2 1.480260 1_555
O13 Zr3 2.165372 1_555
O14 P5 1.545672 1_555
O14 Zr3 2.062334 1_555
O15 P6 1.557284 1_555
O16 S3 1.488127 1_555
O17 P7 1.546914 1_555
O18 P7 1.543142 1_555
O19 P6 1.540695 1_555
O20 S3 1.476901 1_555
O21 S2 1.465195 1_555
O21 Zr4 2.201798 1_555
O22 P5 1.531035 1_555
O22 Zr4 2.061526 1_555
O23 P4 1.536302 1_555
O23 Zr4 2.015762 1_555
O24 P8 1.551704 1_555
O25 S4 1.495720 1_555
O26 P9 1.557915 1_555
O27 P10 1.549808 1_555
O28 S5 1.480879 1_555
O29 P11 1.542310 1_555
O30 P11 1.531468 1_555
O30 Zr5 2.011150 1_555
O31 P10 1.526008 1_555
O31 Zr5 2.050965 1_555
O32 S5 1.459785 1_555
O32 Zr5 2.198143 1_555
O33 S4 1.484887 1_555
O34 P9 1.551850 1_555
O35 P8 1.550828 1_555
O36 P11 1.524444 1_555
O36 Zr0 2.055610 1_465
O37 P10 1.535080 1_555
O37 Zr0 2.038869 1_565
O38 S5 1.476097 1_555
O38 Zr0 2.101066 1_455
O39 S4 1.485656 1_555
O40 P9 1.549083 1_555
O41 P8 1.545347 1_555
O42 P4 1.539491 1_455
O42 Zr1 2.008995 1_455
O43 S2 1.472031 1_555
O43 Zr1 2.143820 1_455
O44 P5 1.537162 1_555
O44 Zr1 2.051055 1_565
O45 P6 1.538993 1_555
O45 Zr2 2.073293 1_665
O46 S3 1.472710 1_555
O46 Zr2 2.165757 1_655
O47 P7 1.540032 1_555
O47 Zr2 2.015942 1_555
O48 P3 1.534482 1_545
O48 Zr3 2.082192 1_555
O49 P2 1.543260 1_555
O49 Zr3 2.067493 1_555
O50 S1 1.481623 1_655
O50 Zr3 2.130031 1_555
O51 S0 1.476529 1_555
O52 P1 1.538643 1_555
O53 P0 1.532054 1_555
O54 P8 1.550751 1_555
O55 S4 1.484041 1_655
O56 P9 1.558458 1_545
O57 P10 1.531394 1_545
O57 Zr4 2.045755 1_555
O58 S5 1.469455 1_555
O58 Zr4 2.134873 1_555
O59 P11 1.535380 1_655
O59 Zr4 1.998749 1_555
O60 P7 1.536213 1_555
O61 P6 1.544737 1_455
O62 S3 1.485019 1_565
O63 S2 1.476414 1_565
O64 P5 1.538878 1_555
O65 P4 1.531492 1_455
O66 P0 1.543313 1_565
O66 Zr5 2.019259 1_555
O67 S0 1.475909 1_555
O67 Zr5 2.149712 1_555
O68 P1 1.542077 1_455
O68 Zr5 2.054375 1_555
O69 P2 1.544779 1_555
O70 S1 1.474958 1_555
O71 P3 1.542390 1_555
