# generated using pymatgen
data_MgMn12O17F7
_symmetry_space_group_name_H-M   'P 1'
_cell_length_a   4.77282236
_cell_length_b   5.66361474
_cell_length_c   15.03459823
_cell_angle_alpha   89.37707841
_cell_angle_beta   90.51847998
_cell_angle_gamma   91.20867795
_symmetry_Int_Tables_number   1
_chemical_formula_structural   MgMn12O17F7
_chemical_formula_sum   'Mg1 Mn12 O17 F7'
_cell_volume   406.27639498
_cell_formula_units_Z   1
loop_
 _symmetry_equiv_pos_site_id
 _symmetry_equiv_pos_as_xyz
  1  'x, y, z'
loop_
 _atom_site_type_symbol
 _atom_site_label
 _atom_site_symmetry_multiplicity
 _atom_site_fract_x
 _atom_site_fract_y
 _atom_site_fract_z
 _atom_site_occupancy
  Mg  Mg0  1  0.97716700  0.58690200  0.75648800  1
  Mn  Mn0  1  0.04105000  0.16328200  0.40974900  1
  Mn  Mn1  1  0.02531000  0.82401000  0.24813700  1
  Mn  Mn2  1  0.99066800  0.18237500  0.08634400  1
  Mn  Mn3  1  0.02203500  0.12823000  0.74065300  1
  Mn  Mn4  1  0.05598100  0.81860900  0.56920300  1
  Mn  Mn5  1  0.96990100  0.86531000  0.92146900  1
  Mn  Mn6  1  0.47484700  0.34912000  0.92245700  1
  Mn  Mn7  1  0.51735500  0.33781700  0.58694200  1
  Mn  Mn8  1  0.49140700  0.36307000  0.25759700  1
  Mn  Mn9  1  0.47822800  0.64441200  0.09556400  1
  Mn  Mn10  1  0.51935900  0.62318900  0.42205500  1
  Mn  Mn11  1  0.47517800  0.65222400  0.75723400  1
  O  O0  1  0.23276900  0.11571400  0.30164400  1
  O  O1  1  0.24697300  0.08117700  0.63434600  1
  O  O2  1  0.18051100  0.13167000  0.97422200  1
  O  O3  1  0.20599900  0.88718900  0.13861200  1
  O  O4  1  0.26656800  0.87500200  0.46438400  1
  O  O5  1  0.18773700  0.87109200  0.80846400  1
  O  O6  1  0.30015000  0.38600500  0.47994700  1
  O  O7  1  0.26312900  0.40731900  0.15175600  1
  O  O8  1  0.28807600  0.59424300  0.31652500  1
  O  O9  1  0.26155400  0.60131500  0.65171900  1
  O  O10  1  0.25978700  0.38064000  0.81029500  1
  O  O11  1  0.69257900  0.39762900  0.03144200  1
  O  O12  1  0.71231200  0.61682800  0.19673700  1
  O  O13  1  0.73196000  0.37854900  0.36052700  1
  O  O14  1  0.74842300  0.60207200  0.52788200  1
  O  O15  1  0.71605500  0.62073100  0.86107400  1
  O  O16  1  0.74933200  0.35008900  0.69435100  1
  F  F0  1  0.24323800  0.62986100  0.98531300  1
  F  F1  1  0.74536300  0.13191500  0.19575300  1
  F  F2  1  0.80833400  0.10062300  0.51893200  1
  F  F3  1  0.78192900  0.86029200  0.35908400  1
  F  F4  1  0.71646200  0.88816500  0.02916200  1
  F  F5  1  0.74120400  0.11710300  0.84949600  1
  F  F6  1  0.76996600  0.84099100  0.68861000  1
loop_
_geom_bond_atom_site_label_1
_geom_bond_atom_site_label_2
_geom_bond_distance
_geom_bond_site_symmetry_2
Mg0 O16 1.949720 1_555
Mg0 O10 1.965907 1_655
Mg0 O15 2.028394 1_555
Mg0 O5 2.038680 1_655
Mg0 O9 2.088386 1_655
Mn0 O0 1.896936 1_555
Mn0 O6 2.042996 1_555
Mn0 O13 2.060796 1_455
Mn0 O4 2.127904 1_545
Mn1 O3 1.892918 1_555
Mn1 O12 2.032391 1_455
Mn1 O0 2.074241 1_565
Mn1 O8 2.083232 1_555
Mn2 O2 1.947877 1_654
Mn2 O7 2.053166 1_655
Mn2 O11 2.054693 1_555
Mn2 O3 2.120862 1_645
Mn3 O5 1.946146 1_545
Mn3 O16 1.947074 1_455
Mn3 O1 1.957168 1_555
Mn3 O10 2.090496 1_555
Mn4 O4 1.897340 1_555
Mn4 O1 1.989956 1_565
Mn4 O14 1.992200 1_455
Mn4 O9 2.003003 1_555
Mn5 O2 1.965412 1_665
Mn5 O5 1.999476 1_655
Mn5 O15 2.036613 1_555
Mn6 O11 1.951196 1_556
Mn6 O10 1.974577 1_555
Mn6 O2 2.005462 1_555
Mn6 O15 2.111175 1_555
Mn7 O6 1.925897 1_555
Mn7 O16 1.950710 1_555
Mn7 O14 2.040548 1_555
Mn7 O1 2.049628 1_555
Mn7 O9 2.190012 1_555
Mn8 O8 1.880241 1_555
Mn8 O13 1.920207 1_555
Mn8 O7 1.937399 1_555
Mn8 O0 1.961285 1_555
Mn8 O12 1.984771 1_555
Mn9 O7 1.871814 1_555
Mn9 O12 1.886215 1_555
Mn9 O11 2.009237 1_555
Mn9 O3 2.026725 1_555
Mn10 O6 1.894325 1_555
Mn10 O14 1.926385 1_555
Mn10 O8 1.931072 1_555
Mn10 O13 1.977183 1_555
Mn10 O4 2.000225 1_555
Mn11 O9 1.899356 1_555
Mn11 O15 1.939323 1_555
Mn11 O10 1.995141 1_555
Mn11 O5 2.030655 1_555
Mn11 O16 2.384557 1_555
F0 Mn9 1.994416 1_556
F0 Mn5 2.103426 1_455
F0 Mn6 2.183777 1_555
F1 Mn8 2.039957 1_555
F1 Mn2 2.041744 1_555
F1 Mn1 2.344345 1_645
F2 Mn0 2.014427 1_655
F2 Mn4 2.134629 1_645
F2 Mn7 2.216571 1_555
F3 Mn10 2.047667 1_555
F3 Mn1 2.055853 1_655
F3 Mn0 2.230765 1_665
F4 Mn9 2.029713 1_555
F4 Mn5 2.036687 1_554
F4 Mn2 2.268745 1_565
F5 Mn5 2.099221 1_545
F5 Mn3 2.124207 1_655
F5 Mn6 2.161761 1_555
F6 Mg0 2.024892 1_555
F6 Mn11 2.031220 1_555
F6 Mn3 2.152721 1_665
F6 Mn4 2.271352 1_655
