# generated using pymatgen
data_Na6TiZn3Si2(SO6)4
_symmetry_space_group_name_H-M   'P 1'
_cell_length_a   9.00925650
_cell_length_b   9.00359437
_cell_length_c   22.08263595
_cell_angle_alpha   89.40748660
_cell_angle_beta   89.86933039
_cell_angle_gamma   119.66830192
_symmetry_Int_Tables_number   1
_chemical_formula_structural   Na6TiZn3Si2(SO6)4
_chemical_formula_sum   'Na18 Ti3 Zn9 Si6 S12 O72'
_cell_volume   1556.28579646
_cell_formula_units_Z   3
loop_
 _symmetry_equiv_pos_site_id
 _symmetry_equiv_pos_as_xyz
  1  'x, y, z'
loop_
 _atom_site_type_symbol
 _atom_site_label
 _atom_site_symmetry_multiplicity
 _atom_site_fract_x
 _atom_site_fract_y
 _atom_site_fract_z
 _atom_site_occupancy
  Na  Na0  1  0.63208470  0.99693748  0.25628897  1
  Na  Na1  1  0.36924872  0.36683087  0.24458955  1
  Na  Na2  1  0.63951398  0.64327655  0.74101313  1
  Na  Na3  1  0.30796545  0.34115924  0.58913698  1
  Na  Na4  1  0.02982778  0.70298901  0.58397011  1
  Na  Na5  1  0.66614588  0.94841470  0.58412527  1
  Na  Na6  1  0.29487261  0.96610549  0.07783117  1
  Na  Na7  1  0.04905155  0.33867436  0.07692078  1
  Na  Na8  1  0.97970106  0.67405448  0.91531420  1
  Na  Na9  1  0.70863476  0.03416145  0.90661596  1
  Na  Na10  1  0.30906340  0.28940590  0.91630592  1
  Na  Na11  1  0.69773597  0.68315976  0.41953239  1
  Na  Na12  1  0.99034638  0.00148472  0.49622441  1
  Na  Na13  1  0.00638094  0.00754276  0.99749991  1
  Na  Na14  1  0.67232587  0.31238668  0.82488788  1
  Na  Na15  1  0.67679961  0.32506696  0.33358651  1
  Na  Na16  1  0.33639660  0.65762112  0.16292740  1
  Na  Na17  1  0.34423464  0.67288973  0.66881337  1
  Ti  Ti0  1  0.65161885  0.31979419  0.97908758  1
  Ti  Ti1  1  0.66901098  0.33183332  0.48006287  1
  Ti  Ti2  1  0.32705528  0.68417478  0.81620398  1
  Zn  Zn0  1  0.99308573  0.00546239  0.35085538  1
  Zn  Zn1  1  0.00152845  0.02149265  0.84712319  1
  Zn  Zn2  1  0.96849496  0.97675145  0.65543900  1
  Zn  Zn3  1  0.01255078  0.00682824  0.14784417  1
  Zn  Zn4  1  0.66078150  0.32239868  0.68533681  1
  Zn  Zn5  1  0.66377020  0.34692309  0.17789353  1
  Zn  Zn6  1  0.32533602  0.65159992  0.01349534  1
  Zn  Zn7  1  0.35792462  0.67128298  0.51226992  1
  Zn  Zn8  1  0.33873885  0.69039869  0.32692549  1
  Si  Si0  1  0.69517672  0.00020389  0.75094828  1
  Si  Si1  1  0.66593031  0.62187860  0.58528962  1
  Si  Si2  1  0.37148525  0.33985715  0.08623486  1
  Si  Si3  1  0.03626225  0.37308819  0.91938740  1
  Si  Si4  1  0.32760254  0.95696965  0.92133624  1
  Si  Si5  1  0.63842338  0.97209900  0.41620692  1
  S  S0  1  0.29070510  0.99444980  0.25046980  1
  S  S1  1  0.70924200  0.70526190  0.25022341  1
  S  S2  1  0.00069794  0.30077020  0.24837209  1
  S  S3  1  0.29629615  0.30116145  0.74998892  1
  S  S4  1  0.00574677  0.70743227  0.75128759  1
  S  S5  1  0.96107540  0.33785267  0.58156923  1
  S  S6  1  0.37347043  0.04166145  0.58244214  1
  S  S7  1  0.95452767  0.62585428  0.08337958  1
  S  S8  1  0.66775825  0.04170210  0.08506350  1
  S  S9  1  0.62360936  0.66134994  0.91723255  1
  S  S10  1  0.33422022  0.36617185  0.41639652  1
  S  S11  1  0.03614372  0.66215566  0.41880251  1
  O  O0  1  0.20085819  0.01698927  0.30250161  1
  O  O1  1  0.80144692  0.78202516  0.30711755  1
  O  O2  1  0.97216035  0.18753615  0.30152492  1
  O  O3  1  0.21808642  0.19900024  0.80563678  1
  O  O4  1  0.98799117  0.79293088  0.80513187  1
  O  O5  1  0.80143725  0.01326780  0.81150860  1
  O  O6  1  0.76207929  0.94712175  0.68957077  1
  O  O7  1  0.19786776  0.21821238  0.69447491  1
  O  O8  1  0.03470952  0.80793602  0.69398898  1
  O  O9  1  0.79672018  0.81692719  0.19693139  1
  O  O10  1  0.02785039  0.22457997  0.19204778  1
  O  O11  1  0.20093287  0.98137927  0.19250248  1
  O  O12  1  0.88424122  0.36185061  0.63644862  1
  O  O13  1  0.47902836  0.11143163  0.63637866  1
  O  O14  1  0.64079944  0.50531420  0.64479377  1
  O  O15  1  0.87696528  0.51673338  0.13769276  1
  O  O16  1  0.64819461  0.12315294  0.14036602  1
  O  O17  1  0.46958453  0.35130170  0.14843777  1
  O  O18  1  0.48479393  0.31548296  0.02784617  1
  O  O19  1  0.85605635  0.53890748  0.02767969  1
  O  O20  1  0.69066265  0.15490508  0.02961465  1
  O  O21  1  0.46694662  0.15127285  0.52796629  1
  O  O22  1  0.68270630  0.51334755  0.52523467  1
  O  O23  1  0.84618462  0.30984957  0.52786401  1
  O  O24  1  0.55052603  0.69503942  0.97076471  1
  O  O25  1  0.14759933  0.44249426  0.97969165  1
  O  O26  1  0.30587321  0.84843946  0.98186956  1
  O  O27  1  0.55532387  0.85336180  0.47617099  1
  O  O28  1  0.30630310  0.44049792  0.47196549  1
  O  O29  1  0.13181942  0.67680107  0.47468315  1
  O  O30  1  0.11195394  0.63140177  0.36449618  1
  O  O31  1  0.52788091  0.89988705  0.35449008  1
  O  O32  1  0.36327771  0.47657010  0.36175387  1
  O  O33  1  0.14399413  0.51077778  0.86286848  1
  O  O34  1  0.36943070  0.86548994  0.86303076  1
  O  O35  1  0.51676784  0.63206865  0.86227094  1
  O  O36  1  0.01275359  0.81314960  0.41288673  1
  O  O37  1  0.82607989  0.98545125  0.41153475  1
  O  O38  1  0.19187341  0.19187135  0.41029845  1
  O  O39  1  0.00469444  0.18010834  0.91262323  1
  O  O40  1  0.16456016  0.98241344  0.91041293  1
  O  O41  1  0.80096158  0.80403322  0.91034310  1
  O  O42  1  0.98295837  0.18442443  0.58377162  1
  O  O43  1  0.20741090  0.03989823  0.58538605  1
  O  O44  1  0.84260592  0.81003972  0.58233260  1
  O  O45  1  0.96549747  0.79584322  0.08627924  1
  O  O46  1  0.82682342  0.03141796  0.08590246  1
  O  O47  1  0.18508368  0.15843224  0.08278951  1
  O  O48  1  0.67223548  0.16614571  0.74371246  1
  O  O49  1  0.47377294  0.33027991  0.74811407  1
  O  O50  1  0.85071829  0.53759412  0.74781544  1
  O  O51  1  0.68862168  0.53020233  0.24721846  1
  O  O52  1  0.84156692  0.31355771  0.24367212  1
  O  O53  1  0.46776379  0.14937765  0.24940968  1
  O  O54  1  0.63480627  0.49892097  0.92295319  1
  O  O55  1  0.84624191  0.36500615  0.92486352  1
  O  O56  1  0.50768903  0.15030104  0.92475557  1
  O  O57  1  0.65632423  0.16603891  0.42780023  1
  O  O58  1  0.50117023  0.36187918  0.42197245  1
  O  O59  1  0.85591875  0.50681227  0.42294155  1
  O  O60  1  0.34723267  0.50563759  0.08035154  1
  O  O61  1  0.13079205  0.65141382  0.08121288  1
  O  O62  1  0.51316115  0.87488977  0.07953597  1
  O  O63  1  0.34014781  0.86321609  0.57600280  1
  O  O64  1  0.49191585  0.63867499  0.58098493  1
  O  O65  1  0.13091948  0.49423889  0.57303552  1
  O  O66  1  0.31001721  0.83888392  0.25418764  1
  O  O67  1  0.53196905  0.68496284  0.25203052  1
  O  O68  1  0.15807960  0.46974878  0.25537507  1
  O  O69  1  0.31036800  0.47489155  0.75412205  1
  O  O70  1  0.16231466  0.68752459  0.75571448  1
  O  O71  1  0.50396312  0.81544435  0.76092129  1
loop_
_geom_bond_atom_site_label_1
_geom_bond_atom_site_label_2
_geom_bond_distance
_geom_bond_site_symmetry_2
Na0 O31 2.342408 1_555
Na0 O53 2.471164 1_565
Na0 O67 2.491994 1_555
Na0 O66 2.522060 1_555
Na0 O52 2.534001 1_565
Na0 O16 2.764114 1_565
Na0 O2 2.859070 1_565
Na0 O9 2.993294 1_555
Na1 O17 2.338273 1_555
Na1 O67 2.496887 1_555
Na1 O51 2.501729 1_555
Na1 O68 2.506487 1_555
Na1 O53 2.519653 1_555
Na1 O32 2.788923 1_555
Na1 O10 2.931560 1_555
Na1 O0 3.005948 1_555
Na2 O71 2.444013 1_555
Na2 O49 2.453563 1_555
Na2 O14 2.475173 1_555
Na2 O50 2.517795 1_555
Na2 O69 2.590772 1_555
Na2 O6 2.633123 1_555
Na2 O35 2.876379 1_555
Na3 O64 2.355492 1_555
Na3 O43 2.399429 1_555
Na3 O7 2.543503 1_555
Na3 O42 2.548250 1_455
Na3 O65 2.595962 1_555
Na3 O28 2.731425 1_555
Na3 O14 2.890251 1_555
Na4 O44 2.320414 1_455
Na4 O63 2.434779 1_555
Na4 O65 2.474527 1_555
Na4 O8 2.608467 1_555
Na4 O29 2.634441 1_555
Na4 O43 2.638170 1_565
Na4 O12 2.903198 1_455
Na5 O64 2.432475 1_555
Na5 O44 2.458178 1_555
Na5 O6 2.487507 1_555
Na5 O27 2.572837 1_555
Na5 O42 2.580216 1_565
Na5 O63 2.649811 1_555
Na6 O47 2.384932 1_565
Na6 O26 2.402525 1_554
Na6 O61 2.463227 1_555
Na6 O62 2.478323 1_555
Na6 O45 2.584316 1_455
Na6 O11 2.694455 1_555
Na6 O18 2.938106 1_565
Na7 O25 2.323828 1_554
Na7 O60 2.342590 1_555
Na7 O47 2.473375 1_555
Na7 O46 2.490909 1_455
Na7 O61 2.536332 1_555
Na7 O10 2.702703 1_555
Na8 O41 2.416283 1_555
Na8 O55 2.430511 1_555
Na8 O40 2.430852 1_655
Na8 O4 2.633891 1_555
Na8 O54 2.703987 1_555
Na8 O19 2.731590 1_556
Na8 O33 2.806202 1_655
Na8 O26 2.959795 1_655
Na9 O5 2.302437 1_555
Na9 O39 2.322538 1_655
Na9 O56 2.531943 1_555
Na9 O41 2.587413 1_545
Na9 O55 2.635108 1_555
Na9 O34 2.832128 1_545
Na9 O20 2.969642 1_556
Na9 O24 2.992359 1_545
Na10 O40 2.407827 1_545
Na10 O39 2.413638 1_555
Na10 O3 2.587790 1_555
Na10 O54 2.592255 1_555
Na10 O56 2.649721 1_555
Na10 O25 2.826773 1_555
Na10 O18 2.879287 1_556
Na10 O35 2.939782 1_555
Na11 O37 2.376879 1_555
Na11 O36 2.480379 1_655
Na11 O58 2.536088 1_555
Na11 O59 2.606840 1_555
Na11 O1 2.635931 1_555
Na11 O22 2.743019 1_555
Na11 O27 2.745460 1_555
Na11 O32 2.947097 1_555
Na12 O37 2.348458 1_545
Na12 O44 2.451096 1_545
Na12 O42 2.574639 1_555
Na12 O38 2.582870 1_655
Na12 O36 2.589326 1_645
Na12 O43 2.680055 1_655
Na13 O47 2.426198 1_556
Na13 O39 2.427040 1_555
Na13 O40 2.469024 1_545
Na13 O46 2.610087 1_456
Na13 O45 2.614694 1_446
Na13 O41 2.686799 1_445
Na14 O48 2.234892 1_555
Na14 O50 2.506236 1_555
Na14 O49 2.528548 1_555
Na14 O55 2.618413 1_555
Na14 O56 2.639878 1_555
Na14 O54 2.873736 1_555
Na15 O57 2.467335 1_555
Na15 O52 2.509932 1_555
Na15 O53 2.575242 1_555
Na15 O59 2.577301 1_555
Na15 O51 2.606072 1_555
Na15 O58 2.634665 1_555
Na16 O60 2.321683 1_555
Na16 O62 2.565557 1_555
Na16 O61 2.570072 1_555
Na16 O67 2.575486 1_555
Na16 O68 2.614051 1_555
Na16 O66 2.689064 1_555
Na17 O64 2.456228 1_555
Na17 O71 2.468641 1_555
Na17 O69 2.491869 1_555
Na17 O70 2.567260 1_555
Na17 O63 2.669921 1_555
Na17 O65 2.789747 1_555
O0 S0 1.476413 1_545
O0 Zn0 2.109766 1_455
O1 S1 1.483430 1_555
O1 Zn0 2.137802 1_565
O2 S2 1.482429 1_655
O2 Zn0 2.044389 1_555
O3 S3 1.477730 1_555
O3 Zn1 2.018614 1_555
O4 S4 1.473742 1_655
O4 Zn1 2.213844 1_665
O5 Si0 1.617526 1_555
O5 Zn1 1.936274 1_655
O6 Si0 1.650336 1_565
O6 Zn2 1.896283 1_555
O7 S3 1.488361 1_555
O7 Zn2 2.310671 1_445
O8 S4 1.492978 1_555
O8 Zn2 2.064933 1_455
O9 S1 1.484504 1_555
O9 Zn3 2.130767 1_665
O10 S2 1.503267 1_555
O10 Zn3 2.142021 1_555
O11 S0 1.490025 1_555
O11 Zn3 2.072053 1_565
O12 S5 1.464296 1_555
O12 Zn4 2.149161 1_555
O13 S6 1.465223 1_555
O13 Zn4 2.104651 1_555
O14 Si1 1.616854 1_555
O14 Zn4 1.951917 1_555
O15 S7 1.477915 1_555
O15 Zn5 1.967705 1_555
O16 S8 1.485180 1_555
O16 Zn5 2.126215 1_555
O17 Si2 1.611466 1_555
O17 Zn5 1.886327 1_555
O18 Si2 1.724634 1_555
O18 Ti0 1.831323 1_554
O19 S7 1.500048 1_555
O19 Ti0 2.211660 1_554
O20 S8 1.531516 1_555
O20 Ti0 2.014249 1_554
O21 S6 1.509430 1_555
O21 Ti1 2.025292 1_555
O22 Si1 1.705441 1_555
O22 Ti1 1.875043 1_555
O23 S5 1.514885 1_555
O23 Ti1 2.004348 1_555
O24 S9 1.457582 1_555
O24 Zn6 2.087459 1_556
O25 Si3 1.603991 1_555
O25 Zn6 1.927680 1_556
O26 Si4 1.600765 1_555
O26 Zn6 1.985446 1_556
O27 Si5 1.621935 1_555
O27 Zn7 1.888403 1_555
O28 S10 1.482931 1_555
O28 Zn7 2.099896 1_555
O29 S11 1.476079 1_555
O29 Zn7 2.224404 1_555
O30 S11 1.473651 1_555
O30 Zn8 2.013397 1_555
O31 Si5 1.629563 1_555
O31 Zn8 1.917939 1_555
O32 S10 1.492883 1_555
O32 Zn8 2.176784 1_555
O33 Si3 1.675690 1_555
O33 Ti2 1.905062 1_555
O34 Si4 1.674856 1_555
O34 Ti2 1.816530 1_555
O35 S9 1.493258 1_555
O35 Ti2 2.228915 1_555
O36 S11 1.479776 1_555
O36 Zn0 2.271935 1_465
O37 Si5 1.637413 1_555
O37 Zn0 1.951722 1_565
O38 S10 1.462322 1_555
O38 Zn0 2.197279 1_455
O39 Si3 1.624351 1_555
O39 Zn1 2.033473 1_555
O40 Si4 1.613041 1_555
O40 Zn1 2.178361 1_565
O41 S9 1.479636 1_555
O41 Zn1 2.340331 1_665
O42 S5 1.489220 1_555
O42 Zn2 2.390490 1_545
O43 S6 1.489542 1_555
O43 Zn2 2.470732 1_445
O44 Si1 1.653978 1_555
O44 Zn2 2.125737 1_555
O45 S7 1.486152 1_555
O45 Zn3 2.212557 1_665
O46 S8 1.481223 1_555
O46 Zn3 2.256262 1_655
O47 Si2 1.667860 1_555
O47 Zn3 2.047418 1_555
O48 Si0 1.612890 1_555
O48 Zn4 1.938661 1_555
O49 S3 1.487121 1_555
O49 Zn4 2.207972 1_555
O50 S4 1.477683 1_655
O50 Zn4 2.317245 1_555
O51 S1 1.495180 1_555
O51 Zn5 2.191995 1_555
O52 S2 1.497739 1_655
O52 Zn5 2.289969 1_555
O53 S0 1.512371 1_545
O53 Zn5 2.365541 1_555
O54 S9 1.518934 1_555
O54 Ti0 2.088530 1_555
O55 Si3 1.681135 1_655
O55 Ti0 1.986880 1_555
O56 Si4 1.695723 1_545
O56 Ti0 1.880365 1_555
O57 Si5 1.694481 1_545
O57 Ti1 1.854891 1_555
O58 S10 1.528808 1_555
O58 Ti1 2.100443 1_555
O59 S11 1.532796 1_655
O59 Ti1 2.057087 1_555
O60 Si2 1.616017 1_555
O60 Zn6 2.040464 1_555
O61 S7 1.488179 1_455
O61 Zn6 2.300696 1_555
O62 S8 1.464326 1_565
O62 Zn6 2.395011 1_555
O63 S6 1.489664 1_565
O63 Zn7 2.305632 1_555
O64 Si1 1.650698 1_555
O64 Zn7 2.048403 1_555
O65 S5 1.489900 1_455
O65 Zn7 2.289132 1_555
O66 S0 1.495919 1_555
O66 Zn8 2.175827 1_555
O67 S1 1.515359 1_555
O67 Zn8 2.416856 1_555
O68 S2 1.489754 1_555
O68 Zn8 2.442944 1_555
O69 S3 1.509239 1_555
O69 Ti2 2.286171 1_555
O70 S4 1.510603 1_555
O70 Ti2 2.010107 1_555
O71 Si0 1.713820 1_565
O71 Ti2 1.877209 1_555
