# generated using pymatgen
data_MgTe4Mo3W(SeS)2
_symmetry_space_group_name_H-M   'P 1'
_cell_length_a   3.40266449
_cell_length_b   3.40271465
_cell_length_c   43.75159941
_cell_angle_alpha   90.11159009
_cell_angle_beta   89.91133417
_cell_angle_gamma   119.94447530
_symmetry_Int_Tables_number   1
_chemical_formula_structural   MgTe4Mo3W(SeS)2
_chemical_formula_sum   'Mg1 Te4 Mo3 W1 Se2 S2'
_cell_volume   438.94592702
_cell_formula_units_Z   1
loop_
 _symmetry_equiv_pos_site_id
 _symmetry_equiv_pos_as_xyz
  1  'x, y, z'
loop_
 _atom_site_type_symbol
 _atom_site_label
 _atom_site_symmetry_multiplicity
 _atom_site_fract_x
 _atom_site_fract_y
 _atom_site_fract_z
 _atom_site_occupancy
  Mg  Mg0  1  0.99592200  0.00565600  0.38339600  1
  Te  Te0  1  0.33277200  0.66752400  0.70101300  1
  Te  Te1  1  0.66723900  0.33273100  0.05048600  1
  Te  Te2  1  0.66622400  0.33491000  0.13595000  1
  Te  Te3  1  0.33377500  0.66560200  0.61498100  1
  Mo  Mo0  1  0.33320900  0.66726700  0.09323600  1
  Mo  Mo1  1  0.33465700  0.66446700  0.47481200  1
  Mo  Mo2  1  0.66655700  0.33345700  0.27605500  1
  W  W0  1  0.66682700  0.33308700  0.65799900  1
  Se  Se0  1  0.33265300  0.66781000  0.31391900  1
  Se  Se1  1  0.33335800  0.66603900  0.23850600  1
  S  S0  1  0.66853100  0.33069700  0.43988400  1
  S  S1  1  0.66827500  0.33075400  0.50872200  1
loop_
_geom_bond_atom_site_label_1
_geom_bond_atom_site_label_2
_geom_bond_distance
_geom_bond_site_symmetry_2
Mg0 S0 3.127807 1_555
Mg0 S0 3.170028 1_655
Mg0 S0 3.175402 1_545
Te0 W0 2.720643 1_455
Te0 W0 2.720792 1_565
Te0 W0 2.721236 1_555
Te3 W0 2.720621 1_555
Te3 W0 2.721094 1_455
Te3 W0 2.721318 1_565
Mo0 Te2 2.711001 1_555
Mo0 Te2 2.711997 1_455
Mo0 Te2 2.712487 1_565
Mo0 Te1 2.712593 1_565
Mo0 Te1 2.712715 1_455
Mo0 Te1 2.713436 1_555
Mo1 S1 2.460213 1_565
Mo1 S1 2.461234 1_455
Mo1 S1 2.465331 1_555
Mo1 S0 2.488316 1_555
Mo1 S0 2.489310 1_455
Mo1 S0 2.490411 1_565
Mo2 Se1 2.561040 1_555
Mo2 Se1 2.561219 1_655
Mo2 Se1 2.561765 1_545
Mo2 Se0 2.570053 1_545
Mo2 Se0 2.570167 1_655
Mo2 Se0 2.570387 1_555
