# generated using pymatgen
data_Na6NbGa3Si2(PO6)4
_symmetry_space_group_name_H-M   'P 1'
_cell_length_a   15.29297489
_cell_length_b   8.88679847
_cell_length_c   8.86946486
_cell_angle_alpha   90.22749190
_cell_angle_beta   124.77209012
_cell_angle_gamma   90.07176932
_symmetry_Int_Tables_number   1
_chemical_formula_structural   Na6NbGa3Si2(PO6)4
_chemical_formula_sum   'Na12 Nb2 Ga6 Si4 P8 O48'
_cell_volume   990.13943030
_cell_formula_units_Z   2
loop_
 _symmetry_equiv_pos_site_id
 _symmetry_equiv_pos_as_xyz
  1  'x, y, z'
loop_
 _atom_site_type_symbol
 _atom_site_label
 _atom_site_symmetry_multiplicity
 _atom_site_fract_x
 _atom_site_fract_y
 _atom_site_fract_z
 _atom_site_occupancy
  Na  Na0  1  0.25043926  0.74983713  0.99815156  1
  Na  Na1  1  0.74555863  0.75176645  0.48626615  1
  Na  Na2  1  0.75043926  0.24983713  0.99815156  1
  Na  Na3  1  0.24555863  0.25176645  0.48626615  1
  Na  Na4  1  0.49608204  0.09993827  0.73452818  1
  Na  Na5  1  0.50515041  0.88517658  0.25688856  1
  Na  Na6  1  0.99608204  0.59993827  0.73452818  1
  Na  Na7  1  0.00515041  0.38517658  0.25688856  1
  Na  Na8  1  0.19046659  0.93059160  0.28358438  1
  Na  Na9  1  0.80846944  0.07349382  0.71142356  1
  Na  Na10  1  0.69046659  0.43059160  0.28358438  1
  Na  Na11  1  0.30846944  0.57349382  0.71142356  1
  Nb  Nb0  1  0.89536008  0.74807636  0.93695857  1
  Nb  Nb1  1  0.39536008  0.24807636  0.93695857  1
  Ga  Ga0  1  0.10494421  0.75459702  0.56006629  1
  Ga  Ga1  1  0.89508463  0.24425319  0.43886206  1
  Ga  Ga2  1  0.10190965  0.25443182  0.05580458  1
  Ga  Ga3  1  0.60494421  0.25459702  0.56006629  1
  Ga  Ga4  1  0.39508463  0.74425319  0.43886206  1
  Ga  Ga5  1  0.60190965  0.75443182  0.05580458  1
  Si  Si0  1  0.35275329  0.88951834  0.75037541  1
  Si  Si1  1  0.65295703  0.09849765  0.25478890  1
  Si  Si2  1  0.85275329  0.38951834  0.75037541  1
  Si  Si3  1  0.15295703  0.59849765  0.25478890  1
  P  P0  1  0.00609945  0.96304459  0.75433073  1
  P  P1  1  0.99964018  0.04429661  0.25544191  1
  P  P2  1  0.50609945  0.46304459  0.75433073  1
  P  P3  1  0.49964018  0.54429661  0.25544191  1
  P  P4  1  0.64073321  0.89294412  0.74067611  1
  P  P5  1  0.35513455  0.10751414  0.26201348  1
  P  P6  1  0.14073321  0.39294412  0.74067611  1
  P  P7  1  0.85513455  0.60751414  0.26201348  1
  O  O0  1  0.14988982  0.56751564  0.74253407  1
  O  O1  1  0.84686918  0.57829807  0.76433835  1
  O  O2  1  0.85123892  0.43388619  0.24878023  1
  O  O3  1  0.15203819  0.41671346  0.23666225  1
  O  O4  1  0.64988982  0.06751564  0.74253407  1
  O  O5  1  0.34686918  0.07829807  0.76433835  1
  O  O6  1  0.35123892  0.93388619  0.24878023  1
  O  O7  1  0.65203819  0.91671346  0.23666225  1
  O  O8  1  0.43413218  0.56271768  0.58652929  1
  O  O9  1  0.57413546  0.55169686  0.93546197  1
  O  O10  1  0.56376365  0.43861939  0.41945348  1
  O  O11  1  0.43197009  0.44746179  0.07437319  1
  O  O12  1  0.93413218  0.06271768  0.58652929  1
  O  O13  1  0.07413546  0.05169686  0.93546197  1
  O  O14  1  0.06376365  0.93861939  0.41945348  1
  O  O15  1  0.93197009  0.94746179  0.07437319  1
  O  O16  1  0.25199620  0.81332053  0.73690457  1
  O  O17  1  0.74186215  0.83130610  0.75516204  1
  O  O18  1  0.74564945  0.19017767  0.25738776  1
  O  O19  1  0.25532770  0.16808337  0.24331742  1
  O  O20  1  0.75199620  0.31332053  0.73690457  1
  O  O21  1  0.24186215  0.33130610  0.75516204  1
  O  O22  1  0.24564945  0.69017767  0.25738776  1
  O  O23  1  0.75532770  0.66808337  0.24331742  1
  O  O24  1  0.35705560  0.87159227  0.57104120  1
  O  O25  1  0.64217983  0.85155330  0.90955647  1
  O  O26  1  0.64536635  0.13345664  0.42756982  1
  O  O27  1  0.35842395  0.15982546  0.09420474  1
  O  O28  1  0.85705560  0.37159227  0.57104120  1
  O  O29  1  0.14217983  0.35155330  0.90955647  1
  O  O30  1  0.14536635  0.63345664  0.42756982  1
  O  O31  1  0.85842395  0.65982546  0.09420474  1
  O  O32  1  0.45883438  0.82540186  0.93714450  1
  O  O33  1  0.54281025  0.83176150  0.55907380  1
  O  O34  1  0.53837191  0.17257313  0.07185071  1
  O  O35  1  0.45597319  0.16716367  0.43939874  1
  O  O36  1  0.95883438  0.32540186  0.93714450  1
  O  O37  1  0.04281025  0.33176150  0.55907380  1
  O  O38  1  0.03837191  0.67257313  0.07185071  1
  O  O39  1  0.95597319  0.66716367  0.43939874  1
  O  O40  1  0.07572732  0.84682534  0.74022084  1
  O  O41  1  0.92063909  0.86305509  0.76139712  1
  O  O42  1  0.92209389  0.15108503  0.26009605  1
  O  O43  1  0.08286858  0.13793226  0.24738098  1
  O  O44  1  0.57572732  0.34682534  0.74022084  1
  O  O45  1  0.42063909  0.36305509  0.76139712  1
  O  O46  1  0.42209389  0.65108503  0.26009605  1
  O  O47  1  0.58286858  0.63793226  0.24738098  1
loop_
_geom_bond_atom_site_label_1
_geom_bond_atom_site_label_2
_geom_bond_distance
_geom_bond_site_symmetry_2
Na0 O16 2.400245 1_555
Na0 O22 2.403095 1_556
Na0 O6 2.459509 1_556
Na0 O0 2.473452 1_555
Na0 O46 2.474767 1_556
Na0 O40 2.482896 1_555
Na1 O7 2.348371 1_555
Na1 O23 2.360804 1_555
Na1 O47 2.380467 1_555
Na1 O17 2.516223 1_555
Na1 O1 2.556834 1_555
Na1 O41 2.573632 1_555
Na2 O20 2.400245 1_555
Na2 O18 2.403095 1_556
Na2 O2 2.459509 1_556
Na2 O4 2.473452 1_555
Na2 O42 2.474767 1_556
Na2 O44 2.482896 1_555
Na3 O3 2.348371 1_555
Na3 O19 2.360804 1_555
Na3 O43 2.380467 1_555
Na3 O21 2.516223 1_555
Na3 O5 2.556834 1_555
Na3 O45 2.573632 1_555
Na4 O4 2.330699 1_555
Na4 O35 2.401482 1_555
Na4 O5 2.449793 1_555
Na4 O44 2.494429 1_555
Na4 O45 2.677941 1_555
Na4 O24 2.681466 1_545
Na4 O34 2.750050 1_556
Na4 O25 2.890954 1_545
Na5 O6 2.354247 1_555
Na5 O7 2.369663 1_555
Na5 O46 2.444788 1_555
Na5 O33 2.447591 1_555
Na5 O47 2.523266 1_555
Na5 O32 2.553903 1_554
Na5 O26 2.831441 1_565
Na6 O0 2.330699 1_655
Na6 O39 2.401482 1_555
Na6 O1 2.449793 1_555
Na6 O40 2.494429 1_655
Na6 O41 2.677941 1_555
Na6 O28 2.681466 1_555
Na6 O38 2.750050 1_656
Na6 O29 2.890954 1_655
Na7 O2 2.354247 1_455
Na7 O3 2.369663 1_555
Na7 O42 2.444788 1_455
Na7 O37 2.447591 1_555
Na7 O43 2.523266 1_555
Na7 O36 2.553903 1_454
Na7 O30 2.831441 1_555
Na8 O22 2.356921 1_555
Na8 O43 2.369710 1_565
Na8 O24 2.422989 1_555
Na8 O19 2.443494 1_565
Na8 O6 2.647055 1_555
Na8 O13 2.760897 1_564
Na8 O14 2.806235 1_555
Na9 O20 2.358555 1_555
Na9 O26 2.386458 1_555
Na9 O41 2.404957 1_545
Na9 O17 2.504444 1_545
Na9 O4 2.592955 1_555
Na9 O12 2.712421 1_555
Na9 O15 2.878116 1_546
Na10 O18 2.356921 1_555
Na10 O47 2.369710 1_555
Na10 O28 2.422989 1_555
Na10 O23 2.443494 1_555
Na10 O2 2.647055 1_555
Na10 O9 2.760897 1_554
Na10 O10 2.806235 1_555
Na11 O16 2.358555 1_555
Na11 O30 2.386458 1_555
Na11 O45 2.404957 1_555
Na11 O21 2.504444 1_555
Na11 O0 2.592955 1_555
Na11 O8 2.712421 1_555
Na11 O11 2.878116 1_556
Nb0 O38 1.921030 1_656
Nb0 O31 1.945630 1_556
Nb0 O1 1.963232 1_555
Nb0 O15 2.034840 1_556
Nb0 O41 2.077609 1_555
Nb0 O17 2.086609 1_555
Nb1 O34 1.921030 1_556
Nb1 O27 1.945630 1_556
Nb1 O5 1.963232 1_555
Nb1 O11 2.034840 1_556
Nb1 O45 2.077609 1_555
Nb1 O21 2.086609 1_555
Ga0 O30 1.934522 1_555
Ga0 O14 1.936325 1_555
Ga0 O16 1.938317 1_555
Ga0 O39 2.036475 1_455
Ga0 O40 2.056571 1_555
Ga0 O0 2.147352 1_555
Ga1 O28 1.939605 1_555
Ga1 O12 1.949800 1_555
Ga1 O18 1.959530 1_555
Ga1 O37 2.021616 1_655
Ga1 O42 2.026718 1_555
Ga1 O2 2.206333 1_555
Ga2 O36 1.917044 1_454
Ga2 O29 1.930165 1_554
Ga2 O3 1.953688 1_555
Ga2 O13 2.007831 1_554
Ga2 O19 2.103196 1_555
Ga2 O43 2.149758 1_555
Ga3 O26 1.934522 1_555
Ga3 O10 1.936325 1_555
Ga3 O20 1.938317 1_555
Ga3 O35 2.036475 1_555
Ga3 O44 2.056571 1_555
Ga3 O4 2.147352 1_555
Ga4 O24 1.939605 1_555
Ga4 O8 1.949800 1_555
Ga4 O22 1.959530 1_555
Ga4 O33 2.021616 1_555
Ga4 O46 2.026718 1_555
Ga4 O6 2.206333 1_555
Ga5 O32 1.917044 1_554
Ga5 O25 1.930165 1_554
Ga5 O7 1.953688 1_555
Ga5 O9 2.007831 1_554
Ga5 O23 2.103196 1_555
Ga5 O47 2.149758 1_555
O0 P6 1.556691 1_555
O1 Si2 1.688009 1_555
O2 P7 1.545484 1_555
O3 Si3 1.622074 1_555
O4 P4 1.556691 1_545
O5 Si0 1.688009 1_545
O6 P5 1.545484 1_565
O7 Si1 1.622074 1_565
O8 P2 1.534765 1_555
O9 P2 1.538018 1_555
O10 P3 1.531592 1_555
O11 P3 1.575366 1_555
O12 P0 1.534765 1_645
O13 P0 1.538018 1_545
O14 P1 1.531592 1_465
O15 P1 1.575366 1_565
O16 Si0 1.622918 1_555
O17 P4 1.576211 1_555
O18 Si1 1.622791 1_555
O19 P5 1.536562 1_555
O20 Si2 1.622918 1_555
O21 P6 1.576211 1_555
O22 Si3 1.622791 1_555
O23 P7 1.536562 1_555
O24 Si0 1.636183 1_555
O25 P4 1.531675 1_555
O26 Si1 1.630243 1_555
O27 P5 1.588942 1_555
O28 Si2 1.636183 1_555
O29 P6 1.531675 1_555
O30 Si3 1.630243 1_555
O31 P7 1.588942 1_555
O32 Si0 1.626384 1_555
O33 P4 1.540240 1_555
O34 Si1 1.704411 1_555
O35 P5 1.535691 1_555
O36 Si2 1.626384 1_555
O37 P6 1.540240 1_555
O38 Si3 1.704411 1_555
O39 P7 1.535691 1_555
O40 P0 1.539460 1_555
O41 P0 1.610149 1_655
O42 P1 1.538524 1_555
O43 P1 1.555378 1_455
O44 P2 1.539460 1_555
O45 P2 1.610149 1_555
O46 P3 1.538524 1_555
O47 P3 1.555378 1_555
