# generated using pymatgen
data_NbInP2SO12
_symmetry_space_group_name_H-M   'P 1'
_cell_length_a   8.87500730
_cell_length_b   8.90418315
_cell_length_c   22.88982194
_cell_angle_alpha   90.56683585
_cell_angle_beta   90.00000000
_cell_angle_gamma   119.89166850
_symmetry_Int_Tables_number   1
_chemical_formula_structural   NbInP2SO12
_chemical_formula_sum   'Nb6 In6 P12 S6 O72'
_cell_volume   1568.12479888
_cell_formula_units_Z   6
loop_
 _symmetry_equiv_pos_site_id
 _symmetry_equiv_pos_as_xyz
  1  'x, y, z'
loop_
 _atom_site_type_symbol
 _atom_site_label
 _atom_site_symmetry_multiplicity
 _atom_site_fract_x
 _atom_site_fract_y
 _atom_site_fract_z
 _atom_site_occupancy
  Nb  Nb0  1  0.99278812  0.00644213  0.64199636  1
  Nb  Nb1  1  0.01365401  0.00644213  0.14199636  1
  Nb  Nb2  1  0.65945512  0.33977513  0.97532936  1
  Nb  Nb3  1  0.68032101  0.33977513  0.47532936  1
  Nb  Nb4  1  0.32612112  0.67310913  0.30866336  1
  Nb  Nb5  1  0.34698701  0.67310913  0.80866336  1
  In  In0  1  0.99825508  0.00122937  0.35488938  1
  In  In1  1  0.00297428  0.00122937  0.85488938  1
  In  In2  1  0.66492208  0.33456237  0.68822238  1
  In  In3  1  0.66964128  0.33456237  0.18822238  1
  In  In4  1  0.33158808  0.66789637  0.02155638  1
  In  In5  1  0.33630728  0.66789637  0.52155638  1
  P  P0  1  0.28799268  0.00343778  0.25030351  1
  P  P1  1  0.00168848  0.28643742  0.25058017  1
  P  P2  1  0.28474895  0.28643742  0.75058017  1
  P  P3  1  0.71544510  0.00343778  0.75030351  1
  P  P4  1  0.95465968  0.33677078  0.58363651  1
  P  P5  1  0.66835548  0.61977042  0.58391317  1
  P  P6  1  0.95141595  0.61977042  0.08391317  1
  P  P7  1  0.38211210  0.33677078  0.08363651  1
  P  P8  1  0.62132568  0.67010478  0.91697051  1
  P  P9  1  0.33502148  0.95310442  0.91724717  1
  P  P10  1  0.61808195  0.95310442  0.41724717  1
  P  P11  1  0.04877810  0.67010478  0.41697051  1
  S  S0  1  0.70809050  0.71336327  0.24980198  1
  S  S1  1  0.00527277  0.71336327  0.74980198  1
  S  S2  1  0.37475750  0.04669627  0.58313498  1
  S  S3  1  0.67193977  0.04669627  0.08313498  1
  S  S4  1  0.04142350  0.38003027  0.91646898  1
  S  S5  1  0.33860577  0.38003027  0.41646898  1
  O  O0  1  0.20747216  0.02764669  0.30484023  1
  O  O1  1  0.81168044  0.78646226  0.30293450  1
  O  O2  1  0.97282410  0.18061959  0.30485140  1
  O  O3  1  0.20779548  0.18061959  0.80485140  1
  O  O4  1  0.97478182  0.78646226  0.80293450  1
  O  O5  1  0.82017453  0.02764669  0.80484023  1
  O  O6  1  0.80243036  0.96797075  0.69521913  1
  O  O7  1  0.16221922  0.19410848  0.69578192  1
  O  O8  1  0.03595208  0.82480980  0.69799877  1
  O  O9  1  0.78885772  0.82480980  0.19799877  1
  O  O10  1  0.03188926  0.19410848  0.19578192  1
  O  O11  1  0.16554039  0.96797075  0.19521913  1
  O  O12  1  0.87413916  0.36097969  0.63817323  1
  O  O13  1  0.47834744  0.11979526  0.63626750  1
  O  O14  1  0.63949110  0.51395259  0.63818440  1
  O  O15  1  0.87446248  0.51395259  0.13818440  1
  O  O16  1  0.64144882  0.11979526  0.13626750  1
  O  O17  1  0.48684153  0.36097969  0.13817323  1
  O  O18  1  0.46909736  0.30130375  0.02855213  1
  O  O19  1  0.82888622  0.52744148  0.02911492  1
  O  O20  1  0.70261908  0.15814280  0.03133177  1
  O  O21  1  0.45552472  0.15814280  0.53133177  1
  O  O22  1  0.69855626  0.52744148  0.52911492  1
  O  O23  1  0.83220739  0.30130375  0.52855213  1
  O  O24  1  0.54080516  0.69431369  0.97150723  1
  O  O25  1  0.14501344  0.45312926  0.96960150  1
  O  O26  1  0.30615710  0.84728659  0.97151840  1
  O  O27  1  0.54112848  0.84728659  0.47151840  1
  O  O28  1  0.30811482  0.45312926  0.46960150  1
  O  O29  1  0.15350753  0.69431369  0.47150723  1
  O  O30  1  0.13576336  0.63463775  0.36188613  1
  O  O31  1  0.49555222  0.86077548  0.36244892  1
  O  O32  1  0.36928508  0.49147680  0.36466577  1
  O  O33  1  0.12219072  0.49147680  0.86466577  1
  O  O34  1  0.36522226  0.86077548  0.86244892  1
  O  O35  1  0.49887339  0.63463775  0.86188613  1
  O  O36  1  0.01326368  0.81552761  0.40637871  1
  O  O37  1  0.80021809  0.98886732  0.40679063  1
  O  O38  1  0.19292475  0.20498034  0.40876306  1
  O  O39  1  0.01205559  0.20498034  0.90876306  1
  O  O40  1  0.18864923  0.98886732  0.90679063  1
  O  O41  1  0.80226393  0.81552761  0.90637871  1
  O  O42  1  0.96357123  0.16271108  0.59227827  1
  O  O43  1  0.19919536  0.03383736  0.59212423  1
  O  O44  1  0.84118429  0.80154876  0.59446775  1
  O  O45  1  0.96036447  0.80154876  0.09446775  1
  O  O46  1  0.83464200  0.03383736  0.09212423  1
  O  O47  1  0.19913984  0.16271108  0.09227827  1
  O  O48  1  0.67993068  0.14886061  0.73971171  1
  O  O49  1  0.46688509  0.32220032  0.74012363  1
  O  O50  1  0.85959175  0.53831334  0.74209606  1
  O  O51  1  0.67872259  0.53831334  0.24209606  1
  O  O52  1  0.85531623  0.32220032  0.24012363  1
  O  O53  1  0.46893093  0.14886061  0.23971171  1
  O  O54  1  0.63023823  0.49604408  0.92561127  1
  O  O55  1  0.86586236  0.36717036  0.92545723  1
  O  O56  1  0.50785129  0.13488176  0.92780075  1
  O  O57  1  0.62703147  0.13488176  0.42780075  1
  O  O58  1  0.50130900  0.36717036  0.42545723  1
  O  O59  1  0.86580684  0.49604408  0.42561127  1
  O  O60  1  0.34659668  0.48219461  0.07304571  1
  O  O61  1  0.13355109  0.65553432  0.07345763  1
  O  O62  1  0.52625775  0.87164734  0.07543006  1
  O  O63  1  0.34538859  0.87164734  0.57543006  1
  O  O64  1  0.52198223  0.65553432  0.57345763  1
  O  O65  1  0.13559693  0.48219461  0.57304571  1
  O  O66  1  0.29690423  0.82937808  0.25894527  1
  O  O67  1  0.53252836  0.70050436  0.25879123  1
  O  O68  1  0.17451729  0.46821576  0.26113475  1
  O  O69  1  0.29369747  0.46821576  0.76113475  1
  O  O70  1  0.16797500  0.70050436  0.75879123  1
  O  O71  1  0.53247284  0.82937808  0.75894527  1
loop_
_geom_bond_atom_site_label_1
_geom_bond_atom_site_label_2
_geom_bond_distance
_geom_bond_site_symmetry_2
Nb0 O42 1.920793 1_555
Nb0 O44 1.958680 1_545
Nb0 O6 1.971571 1_545
Nb0 O7 2.005977 1_655
Nb0 O43 2.068460 1_655
Nb0 O8 2.250364 1_645
Nb1 O47 1.920793 1_555
Nb1 O45 1.958680 1_445
Nb1 O11 1.971571 1_545
Nb1 O10 2.005977 1_555
Nb1 O46 2.068460 1_455
Nb1 O9 2.250364 1_445
Nb2 O54 1.920793 1_555
Nb2 O56 1.958680 1_555
Nb2 O18 1.971571 1_556
Nb2 O19 2.005977 1_556
Nb2 O55 2.068460 1_555
Nb2 O20 2.250364 1_556
Nb3 O59 1.920793 1_555
Nb3 O57 1.958680 1_555
Nb3 O23 1.971571 1_555
Nb3 O22 2.005977 1_555
Nb3 O58 2.068460 1_555
Nb3 O21 2.250364 1_555
Nb4 O66 1.920793 1_555
Nb4 O68 1.958680 1_555
Nb4 O30 1.971571 1_555
Nb4 O31 2.005977 1_555
Nb4 O67 2.068460 1_555
Nb4 O32 2.250364 1_555
Nb5 O71 1.920793 1_555
Nb5 O69 1.958680 1_555
Nb5 O35 1.971571 1_555
Nb5 O34 2.005977 1_555
Nb5 O70 2.068460 1_555
Nb5 O33 2.250364 1_555
In0 O2 2.075998 1_555
In0 O37 2.079021 1_545
In0 O0 2.094154 1_655
In0 O36 2.097385 1_645
In0 O1 2.147550 1_545
In0 O38 2.151423 1_655
In1 O3 2.075998 1_555
In1 O40 2.079021 1_545
In1 O5 2.094154 1_455
In1 O41 2.097385 1_445
In1 O4 2.147550 1_445
In1 O39 2.151423 1_555
In2 O14 2.075998 1_555
In2 O49 2.079021 1_555
In2 O12 2.094154 1_555
In2 O48 2.097385 1_555
In2 O13 2.147550 1_555
In2 O50 2.151423 1_555
In3 O15 2.075998 1_555
In3 O52 2.079021 1_555
In3 O17 2.094154 1_555
In3 O53 2.097385 1_555
In3 O16 2.147550 1_555
In3 O51 2.151423 1_555
In4 O26 2.075998 1_554
In4 O61 2.079021 1_555
In4 O24 2.094154 1_554
In4 O60 2.097385 1_555
In4 O25 2.147550 1_554
In4 O62 2.151423 1_555
In5 O27 2.075998 1_555
In5 O64 2.079021 1_555
In5 O29 2.094154 1_555
In5 O65 2.097385 1_555
In5 O28 2.147550 1_555
In5 O63 2.151423 1_555
O0 P0 1.504562 1_555
O1 S0 1.461473 1_555
O2 P1 1.509699 1_655
O3 P2 1.509699 1_555
O4 S1 1.461473 1_655
O5 P3 1.504562 1_555
O6 P3 1.587649 1_565
O7 P2 1.587534 1_555
O8 S1 1.489594 1_555
O9 S0 1.489594 1_555
O10 P1 1.587534 1_555
O11 P0 1.587649 1_565
O12 P4 1.504562 1_555
O13 S2 1.461473 1_555
O14 P5 1.509699 1_555
O15 P6 1.509699 1_555
O16 S3 1.461473 1_555
O17 P7 1.504562 1_555
O18 P7 1.587649 1_555
O19 P6 1.587534 1_555
O20 S3 1.489594 1_555
O21 S2 1.489594 1_555
O22 P5 1.587534 1_555
O23 P4 1.587649 1_555
O24 P8 1.504562 1_555
O25 S4 1.461473 1_555
O26 P9 1.509699 1_555
O27 P10 1.509699 1_555
O28 S5 1.461473 1_555
O29 P11 1.504562 1_555
O30 P11 1.587649 1_555
O31 P10 1.587534 1_555
O32 S5 1.489594 1_555
O33 S4 1.489594 1_555
O34 P9 1.587534 1_555
O35 P8 1.587649 1_555
O36 P11 1.499274 1_555
O37 P10 1.503357 1_555
O38 S5 1.455385 1_555
O39 S4 1.455389 1_555
O40 P9 1.503349 1_555
O41 P8 1.499280 1_555
O42 P4 1.604896 1_555
O43 S2 1.518493 1_555
O44 P5 1.596442 1_555
O45 P6 1.596446 1_555
O46 S3 1.518484 1_555
O47 P7 1.604901 1_555
O48 P3 1.499274 1_555
O49 P2 1.503357 1_555
O50 S1 1.455385 1_655
O51 S0 1.455389 1_555
O52 P1 1.503349 1_655
O53 P0 1.499280 1_555
O54 P8 1.604906 1_555
O55 S4 1.518477 1_655
O56 P9 1.596438 1_545
O57 P10 1.596430 1_545
O58 S5 1.518495 1_555
O59 P11 1.604897 1_655
O60 P7 1.499284 1_555
O61 P6 1.503342 1_455
O62 S3 1.455380 1_565
O63 S2 1.455374 1_565
O64 P5 1.503359 1_555
O65 P4 1.499273 1_455
O66 P0 1.604896 1_565
O67 S0 1.518493 1_555
O68 P1 1.596442 1_555
O69 P2 1.596446 1_555
O70 S1 1.518484 1_555
O71 P3 1.604901 1_565
