# generated using pymatgen
data_Na4TiSi3SnO12
_symmetry_space_group_name_H-M   'P 1'
_cell_length_a   9.05082818
_cell_length_b   9.05082787
_cell_length_c   22.38518752
_cell_angle_alpha   90.00000000
_cell_angle_beta   90.00000000
_cell_angle_gamma   120.00000114
_symmetry_Int_Tables_number   1
_chemical_formula_structural   Na4TiSi3SnO12
_chemical_formula_sum   'Na24 Ti6 Si18 Sn6 O72'
_cell_volume   1588.06395814
_cell_formula_units_Z   6
loop_
 _symmetry_equiv_pos_site_id
 _symmetry_equiv_pos_as_xyz
  1  'x, y, z'
loop_
 _atom_site_type_symbol
 _atom_site_label
 _atom_site_symmetry_multiplicity
 _atom_site_fract_x
 _atom_site_fract_y
 _atom_site_fract_z
 _atom_site_occupancy
  Na  Na0  1  0.63262868  0.99986989  0.25011933  1
  Na  Na1  1  0.36724122  0.36737132  0.25011933  1
  Na  Na2  1  0.00013011  0.63275878  0.25011933  1
  Na  Na3  1  0.63408373  0.63026035  0.74941654  1
  Na  Na4  1  0.99617662  0.36591627  0.74941654  1
  Na  Na5  1  0.36973965  0.00382338  0.74941654  1
  Na  Na6  1  0.29785688  0.33334600  0.58330067  1
  Na  Na7  1  0.03549012  0.70214312  0.58330067  1
  Na  Na8  1  0.66665400  0.96450988  0.58330067  1
  Na  Na9  1  0.29810114  0.96713591  0.08360106  1
  Na  Na10  1  0.66903577  0.70189886  0.08360106  1
  Na  Na11  1  0.03286409  0.33096423  0.08360106  1
  Na  Na12  1  0.96654539  0.66674257  0.91656627  1
  Na  Na13  1  0.70019618  0.03345461  0.91656627  1
  Na  Na14  1  0.33325743  0.29980382  0.91656627  1
  Na  Na15  1  0.96413407  0.29882936  0.41700004  1
  Na  Na16  1  0.33469429  0.03586593  0.41700004  1
  Na  Na17  1  0.70117064  0.66530571  0.41700004  1
  Na  Na18  1  0.00000000  -0.00000000  0.50018419  1
  Na  Na19  1  0.00000000  -0.00000000  0.00098560  1
  Na  Na20  1  0.66666700  0.33333300  0.83195887  1
  Na  Na21  1  0.66666700  0.33333300  0.33524559  1
  Na  Na22  1  0.33333300  0.66666700  0.16636782  1
  Na  Na23  1  0.33333300  0.66666700  0.66516804  1
  Ti  Ti0  1  0.00000000  -0.00000000  0.35200160  1
  Ti  Ti1  1  0.00000000  -0.00000000  0.64854380  1
  Ti  Ti2  1  0.00000000  -0.00000000  0.14840129  1
  Ti  Ti3  1  0.66666700  0.33333300  0.68324322  1
  Ti  Ti4  1  0.66666700  0.33333300  0.48319878  1
  Ti  Ti5  1  0.33333300  0.66666700  0.51763056  1
  Si  Si0  1  0.28653534  0.99978125  0.25009026  1
  Si  Si1  1  0.71324592  0.71346466  0.25009026  1
  Si  Si2  1  0.00021875  0.28675408  0.25009026  1
  Si  Si3  1  0.29291702  0.29014368  0.74849117  1
  Si  Si4  1  0.99722666  0.70708298  0.74849117  1
  Si  Si5  1  0.70985632  0.00277334  0.74849117  1
  Si  Si6  1  0.95635031  0.33341255  0.58328425  1
  Si  Si7  1  0.37706324  0.04364969  0.58328425  1
  Si  Si8  1  0.66658745  0.62293676  0.58328425  1
  Si  Si9  1  0.96020590  0.62902642  0.08387164  1
  Si  Si10  1  0.66882152  0.03979410  0.08387164  1
  Si  Si11  1  0.37097358  0.33117848  0.08387164  1
  Si  Si12  1  0.62663654  0.66686310  0.91653373  1
  Si  Si13  1  0.04022556  0.37336346  0.91653373  1
  Si  Si14  1  0.33313690  0.95977444  0.91653373  1
  Si  Si15  1  0.62587862  0.95983682  0.41770972  1
  Si  Si16  1  0.33395720  0.37412138  0.41770972  1
  Si  Si17  1  0.04016318  0.66604280  0.41770972  1
  Sn  Sn0  1  0.00000000  -0.00000000  0.85092297  1
  Sn  Sn1  1  0.66666700  0.33333300  0.18543897  1
  Sn  Sn2  1  0.66666700  0.33333300  0.98195080  1
  Sn  Sn3  1  0.33333300  0.66666700  0.01857308  1
  Sn  Sn4  1  0.33333300  0.66666700  0.31567172  1
  Sn  Sn5  1  0.33333300  0.66666700  0.81369574  1
  O  O0  1  0.19562142  0.03162924  0.30838399  1
  O  O1  1  0.83600782  0.80437858  0.30838399  1
  O  O2  1  0.96837076  0.16399218  0.30838399  1
  O  O3  1  0.21652274  0.17335768  0.80860797  1
  O  O4  1  0.95683494  0.78347726  0.80860797  1
  O  O5  1  0.82664232  0.04316506  0.80860797  1
  O  O6  1  0.80424122  0.96790753  0.69182258  1
  O  O7  1  0.16366631  0.19575878  0.69182258  1
  O  O8  1  0.03209247  0.83633369  0.69182258  1
  O  O9  1  0.80345374  0.83519512  0.19191373  1
  O  O10  1  0.03174138  0.19654626  0.19191373  1
  O  O11  1  0.16480488  0.96825862  0.19191373  1
  O  O12  1  0.86438144  0.36645511  0.64107178  1
  O  O13  1  0.50207468  0.13561856  0.64107178  1
  O  O14  1  0.63354489  0.49792532  0.64107178  1
  O  O15  1  0.88154808  0.50598066  0.14259365  1
  O  O16  1  0.62443358  0.11845192  0.14259365  1
  O  O17  1  0.49401934  0.37556642  0.14259365  1
  O  O18  1  0.44967502  0.28922868  0.02474306  1
  O  O19  1  0.83955466  0.55032498  0.02474306  1
  O  O20  1  0.71077132  0.16044534  0.02474306  1
  O  O21  1  0.46906977  0.16880543  0.52557136  1
  O  O22  1  0.69973665  0.53093023  0.52557136  1
  O  O23  1  0.83119457  0.30026335  0.52557136  1
  O  O24  1  0.54825748  0.70839808  0.97564635  1
  O  O25  1  0.16013960  0.45174252  0.97564635  1
  O  O26  1  0.29160192  0.83986040  0.97564635  1
  O  O27  1  0.53058933  0.83031159  0.47453396  1
  O  O28  1  0.29972127  0.46941067  0.47453396  1
  O  O29  1  0.16968841  0.70027873  0.47453396  1
  O  O30  1  0.11678831  0.62298149  0.35783955  1
  O  O31  1  0.50619218  0.88321169  0.35783955  1
  O  O32  1  0.37701851  0.49380782  0.35783955  1
  O  O33  1  0.11882389  0.49405743  0.85737647  1
  O  O34  1  0.37523254  0.88117611  0.85737647  1
  O  O35  1  0.50594257  0.62476746  0.85737647  1
  O  O36  1  0.02523800  0.83846799  0.41085131  1
  O  O37  1  0.81322999  0.97476200  0.41085131  1
  O  O38  1  0.16153201  0.18677001  0.41085131  1
  O  O39  1  0.02332313  0.18523465  0.91196646  1
  O  O40  1  0.16191152  0.97667687  0.91196646  1
  O  O41  1  0.81476535  0.83808848  0.91196646  1
  O  O42  1  0.97379617  0.16242113  0.59010573  1
  O  O43  1  0.18862496  0.02620383  0.59010573  1
  O  O44  1  0.83757887  0.81137504  0.59010573  1
  O  O45  1  0.97759895  0.81666231  0.09103952  1
  O  O46  1  0.83906336  0.02240105  0.09103952  1
  O  O47  1  0.18333769  0.16093664  0.09103952  1
  O  O48  1  0.69016202  0.17146619  0.74134330  1
  O  O49  1  0.48130516  0.30983798  0.74134330  1
  O  O50  1  0.82853381  0.51869484  0.74134330  1
  O  O51  1  0.69543895  0.52410567  0.24621336  1
  O  O52  1  0.82866772  0.30456105  0.24621336  1
  O  O53  1  0.47589433  0.17133228  0.24621336  1
  O  O54  1  0.64312152  0.49524229  0.92120950  1
  O  O55  1  0.85212177  0.35687848  0.92120950  1
  O  O56  1  0.50475771  0.14787823  0.92120950  1
  O  O57  1  0.64465718  0.14806771  0.42518649  1
  O  O58  1  0.50341153  0.35534282  0.42518649  1
  O  O59  1  0.85193229  0.49658847  0.42518649  1
  O  O60  1  0.35492852  0.50311742  0.07903180  1
  O  O61  1  0.14818790  0.64507148  0.07903180  1
  O  O62  1  0.49688258  0.85181210  0.07903180  1
  O  O63  1  0.35961604  0.85516237  0.57647991  1
  O  O64  1  0.49554533  0.64038396  0.57647991  1
  O  O65  1  0.14483763  0.50445467  0.57647991  1
  O  O66  1  0.30477713  0.82851521  0.25417980  1
  O  O67  1  0.52373708  0.69522287  0.25417980  1
  O  O68  1  0.17148479  0.47626292  0.25417980  1
  O  O69  1  0.30676169  0.47795632  0.75257615  1
  O  O70  1  0.17119363  0.69323831  0.75257615  1
  O  O71  1  0.52204368  0.82880637  0.75257615  1
loop_
_geom_bond_atom_site_label_1
_geom_bond_atom_site_label_2
_geom_bond_distance
_geom_bond_site_symmetry_2
Na0 O67 2.421744 1_555
Na0 O52 2.422343 1_565
Na0 O66 2.572267 1_555
Na0 O53 2.574835 1_565
Na0 O16 2.651523 1_565
Na0 O31 2.651538 1_555
Na0 O9 2.934948 1_555
Na0 O2 2.937300 1_565
Na1 O68 2.421753 1_555
Na1 O53 2.422350 1_555
Na1 O67 2.572268 1_555
Na1 O51 2.574843 1_555
Na1 O17 2.651526 1_555
Na1 O32 2.651539 1_555
Na1 O10 2.934948 1_555
Na1 O0 2.937300 1_555
Na2 O66 2.421746 1_555
Na2 O51 2.422342 1_455
Na2 O68 2.572260 1_555
Na2 O52 2.574843 1_455
Na2 O15 2.651525 1_455
Na2 O30 2.651535 1_555
Na2 O11 2.934948 1_555
Na2 O1 2.937300 1_455
Na3 O50 2.434493 1_555
Na3 O71 2.466740 1_555
Na3 O49 2.518942 1_555
Na3 O69 2.568663 1_555
Na3 O35 2.670274 1_555
Na3 O14 2.703874 1_555
Na3 O4 2.856749 1_555
Na3 O6 2.943910 1_555
Na4 O48 2.434486 1_555
Na4 O69 2.466731 1_655
Na4 O50 2.518934 1_555
Na4 O70 2.568663 1_655
Na4 O33 2.670273 1_655
Na4 O12 2.703870 1_555
Na4 O5 2.856749 1_555
Na4 O7 2.943910 1_655
Na5 O49 2.434485 1_555
Na5 O70 2.466732 1_545
Na5 O48 2.518941 1_555
Na5 O71 2.568655 1_545
Na5 O34 2.670271 1_545
Na5 O13 2.703872 1_555
Na5 O3 2.856749 1_555
Na5 O8 2.943910 1_545
Na6 O64 2.444390 1_555
Na6 O43 2.445424 1_555
Na6 O42 2.545905 1_455
Na6 O65 2.546495 1_555
Na6 O7 2.723013 1_555
Na6 O28 2.724732 1_555
Na6 O14 2.931983 1_555
Na6 O21 2.932038 1_555
Na7 O65 2.444376 1_555
Na7 O44 2.445432 1_455
Na7 O43 2.545905 1_565
Na7 O63 2.546479 1_555
Na7 O8 2.723015 1_555
Na7 O29 2.724724 1_555
Na7 O12 2.931983 1_455
Na7 O22 2.932038 1_455
Na8 O63 2.444393 1_555
Na8 O42 2.445425 1_565
Na8 O44 2.545897 1_555
Na8 O64 2.546479 1_555
Na8 O6 2.723011 1_555
Na8 O27 2.724728 1_555
Na8 O13 2.931983 1_565
Na8 O23 2.932038 1_565
Na9 O47 2.450570 1_565
Na9 O62 2.492934 1_555
Na9 O45 2.519242 1_455
Na9 O61 2.528495 1_555
Na9 O26 2.665066 1_554
Na9 O11 2.710451 1_555
Na9 O18 2.849053 1_565
Na9 O16 2.880643 1_565
Na10 O45 2.450562 1_555
Na10 O60 2.492948 1_555
Na10 O46 2.519242 1_565
Na10 O62 2.528511 1_555
Na10 O24 2.665073 1_554
Na10 O9 2.710449 1_555
Na10 O19 2.849053 1_555
Na10 O17 2.880643 1_555
Na11 O46 2.450563 1_455
Na11 O61 2.492950 1_555
Na11 O47 2.519234 1_555
Na11 O60 2.528496 1_555
Na11 O25 2.665069 1_554
Na11 O10 2.710447 1_555
Na11 O20 2.849053 1_455
Na11 O15 2.880643 1_455
Na12 O55 2.458506 1_555
Na12 O40 2.458861 1_655
Na12 O41 2.536379 1_555
Na12 O54 2.538752 1_555
Na12 O4 2.656529 1_555
Na12 O19 2.661609 1_556
Na12 O26 2.872264 1_655
Na12 O33 2.872636 1_655
Na13 O56 2.458489 1_555
Na13 O41 2.458868 1_545
Na13 O39 2.536387 1_655
Na13 O55 2.538752 1_555
Na13 O5 2.656533 1_555
Na13 O20 2.661606 1_556
Na13 O24 2.872264 1_545
Na13 O34 2.872636 1_545
Na14 O54 2.458503 1_555
Na14 O39 2.458860 1_555
Na14 O40 2.536387 1_545
Na14 O56 2.538768 1_555
Na14 O3 2.656531 1_555
Na14 O18 2.661614 1_556
Na14 O25 2.872264 1_555
Na14 O35 2.872636 1_555
Na15 O38 2.460008 1_655
Na15 O59 2.467024 1_555
Na15 O57 2.512149 1_555
Na15 O37 2.545840 1_545
Na15 O23 2.714829 1_555
Na15 O2 2.729336 1_555
Na15 O30 2.866475 1_655
Na15 O28 2.928895 1_655
Na16 O36 2.460001 1_545
Na16 O57 2.467041 1_555
Na16 O58 2.512150 1_555
Na16 O38 2.545832 1_555
Na16 O21 2.714833 1_555
Na16 O0 2.729332 1_555
Na16 O31 2.866475 1_545
Na16 O29 2.928895 1_545
Na17 O37 2.459999 1_555
Na17 O58 2.467038 1_555
Na17 O59 2.512165 1_555
Na17 O36 2.545840 1_655
Na17 O22 2.714837 1_555
Na17 O1 2.729334 1_555
Na17 O32 2.866475 1_555
Na17 O27 2.928895 1_555
Na18 O38 2.553920 1_555
Na18 O36 2.553920 1_545
Na18 O37 2.553920 1_445
Na18 O44 2.572496 1_445
Na18 O42 2.572496 1_455
Na18 O43 2.572496 1_555
Na19 O39 2.544070 1_554
Na19 O41 2.544070 1_444
Na19 O40 2.544070 1_544
Na19 O45 2.553799 1_445
Na19 O47 2.553799 1_555
Na19 O46 2.553799 1_455
Na20 O56 2.548865 1_555
Na20 O54 2.548865 1_555
Na20 O55 2.548865 1_555
Na20 O48 2.572482 1_555
Na20 O50 2.572482 1_555
Na20 O49 2.572482 1_555
Na21 O57 2.563372 1_555
Na21 O59 2.563372 1_555
Na21 O58 2.563372 1_555
Na21 O51 2.563505 1_555
Na21 O53 2.563505 1_555
Na21 O52 2.563505 1_555
Na22 O62 2.518105 1_555
Na22 O60 2.518105 1_555
Na22 O61 2.518105 1_555
Na22 O68 2.540697 1_555
Na22 O66 2.540697 1_555
Na22 O67 2.540697 1_555
Na23 O69 2.528392 1_555
Na23 O71 2.528392 1_555
Na23 O70 2.528392 1_555
Na23 O63 2.550047 1_555
Na23 O65 2.550047 1_555
Na23 O64 2.550047 1_555
O0 Si0 1.643215 1_545
O0 Ti0 1.913957 1_555
O1 Si1 1.643215 1_555
O1 Ti0 1.913957 1_665
O2 Si2 1.643215 1_655
O2 Ti0 1.913957 1_655
O3 Si3 1.635688 1_555
O3 Sn0 2.030940 1_555
O4 Si4 1.635688 1_555
O4 Sn0 2.030940 1_665
O5 Si5 1.635688 1_555
O5 Sn0 2.030940 1_655
O6 Si5 1.645632 1_565
O6 Ti1 1.909846 1_665
O7 Si3 1.645632 1_555
O7 Ti1 1.909846 1_555
O8 Si4 1.645632 1_455
O8 Ti1 1.909846 1_565
O9 Si1 1.636125 1_555
O9 Ti2 1.919565 1_665
O10 Si2 1.636125 1_555
O10 Ti2 1.919565 1_555
O11 Si0 1.636125 1_555
O11 Ti2 1.919565 1_565
O12 Si6 1.644572 1_555
O12 Ti3 1.909664 1_555
O13 Si7 1.644572 1_555
O13 Ti3 1.909664 1_555
O14 Si8 1.644572 1_555
O14 Ti3 1.909664 1_555
O15 Si9 1.637730 1_555
O15 Sn1 2.026085 1_555
O16 Si10 1.637730 1_555
O16 Sn1 2.026085 1_555
O17 Si11 1.637730 1_555
O17 Sn1 2.026085 1_555
O18 Si11 1.635215 1_555
O18 Sn2 2.037178 1_554
O19 Si9 1.635215 1_555
O19 Sn2 2.037178 1_554
O20 Si10 1.635215 1_555
O20 Sn2 2.037178 1_554
O21 Si7 1.643883 1_555
O21 Ti4 1.911132 1_555
O22 Si8 1.643883 1_555
O22 Ti4 1.911132 1_555
O23 Si6 1.643883 1_555
O23 Ti4 1.911132 1_555
O24 Si12 1.631633 1_555
O24 Sn3 2.028617 1_556
O25 Si13 1.631633 1_555
O25 Sn3 2.028617 1_556
O26 Si14 1.631633 1_555
O26 Sn3 2.028617 1_556
O27 Si15 1.650790 1_555
O27 Ti5 1.915080 1_555
O28 Si16 1.650790 1_555
O28 Ti5 1.915080 1_555
O29 Si17 1.650791 1_555
O29 Ti5 1.915080 1_555
O30 Si17 1.642958 1_555
O30 Sn4 2.028216 1_555
O31 Si15 1.642958 1_555
O31 Sn4 2.028216 1_555
O32 Si16 1.642958 1_555
O32 Sn4 2.028216 1_555
O33 Si13 1.635814 1_555
O33 Sn5 2.032981 1_555
O34 Si14 1.635814 1_555
O34 Sn5 2.032981 1_555
O35 Si12 1.635814 1_555
O35 Sn5 2.032981 1_555
O36 Si17 1.639535 1_555
O36 Ti0 2.063738 1_565
O37 Si15 1.639544 1_555
O37 Ti0 2.063738 1_665
O38 Si16 1.639540 1_555
O38 Ti0 2.063738 1_555
O39 Si13 1.634819 1_555
O39 Sn0 2.090129 1_555
O40 Si14 1.634810 1_555
O40 Sn0 2.090129 1_565
O41 Si12 1.634815 1_555
O41 Sn0 2.090129 1_665
O42 Si6 1.639429 1_555
O42 Ti1 2.068134 1_655
O43 Si7 1.639438 1_555
O43 Ti1 2.068134 1_555
O44 Si8 1.639434 1_555
O44 Ti1 2.068134 1_665
O45 Si9 1.633178 1_555
O45 Ti2 2.026558 1_665
O46 Si10 1.633170 1_555
O46 Ti2 2.026558 1_655
O47 Si11 1.633175 1_555
O47 Ti2 2.026558 1_555
O48 Si5 1.631158 1_555
O48 Ti3 2.048067 1_555
O49 Si3 1.631167 1_555
O49 Ti3 2.048067 1_555
O50 Si4 1.631163 1_555
O50 Ti3 2.048067 1_555
O51 Si1 1.641520 1_555
O51 Sn1 2.109576 1_555
O52 Si2 1.641512 1_655
O52 Sn1 2.109576 1_555
O53 Si0 1.641517 1_545
O53 Sn1 2.109576 1_555
O54 Si12 1.636383 1_555
O54 Sn2 2.086609 1_555
O55 Si13 1.636365 1_655
O55 Sn2 2.086609 1_555
O56 Si14 1.636372 1_545
O56 Sn2 2.086609 1_555
O57 Si15 1.633938 1_545
O57 Ti4 2.050300 1_555
O58 Si16 1.633956 1_555
O58 Ti4 2.050300 1_555
O59 Si17 1.633945 1_655
O59 Ti4 2.050300 1_555
O60 Si11 1.637237 1_555
O60 Sn3 2.085746 1_555
O61 Si9 1.637219 1_455
O61 Sn3 2.085746 1_555
O62 Si10 1.637227 1_565
O62 Sn3 2.085746 1_555
O63 Si7 1.639837 1_565
O63 Ti5 2.072858 1_555
O64 Si8 1.639855 1_555
O64 Ti5 2.072858 1_555
O65 Si6 1.639845 1_455
O65 Ti5 2.072858 1_555
O66 Si0 1.641455 1_555
O66 Sn4 2.118015 1_555
O67 Si1 1.641464 1_555
O67 Sn4 2.118015 1_555
O68 Si2 1.641460 1_555
O68 Sn4 2.118015 1_555
O69 Si3 1.643346 1_555
O69 Sn5 2.106229 1_555
O70 Si4 1.643337 1_455
O70 Sn5 2.106229 1_555
O71 Si5 1.643342 1_565
O71 Sn5 2.106229 1_555
