# generated using pymatgen
data_LiCrPO4
_symmetry_space_group_name_H-M   'P 1'
_cell_length_a   5.05403594
_cell_length_b   9.59451211
_cell_length_c   6.30092400
_cell_angle_alpha   90.00053918
_cell_angle_beta   89.99987983
_cell_angle_gamma   99.07222883
_symmetry_Int_Tables_number   1
_chemical_formula_structural   LiCrPO4
_chemical_formula_sum   'Li4 Cr4 P4 O16'
_cell_volume   301.71598724
_cell_formula_units_Z   4
loop_
 _symmetry_equiv_pos_site_id
 _symmetry_equiv_pos_as_xyz
  1  'x, y, z'
loop_
 _atom_site_type_symbol
 _atom_site_label
 _atom_site_symmetry_multiplicity
 _atom_site_fract_x
 _atom_site_fract_y
 _atom_site_fract_z
 _atom_site_occupancy
  Li  Li0  1  0.99939800  0.33312400  0.25000900  1
  Li  Li1  1  0.49942700  0.83316600  0.25000300  1
  Li  Li2  1  0.50062200  0.16690900  0.75001500  1
  Li  Li3  1  0.00061200  0.66687400  0.74999100  1
  Cr  Cr0  1  0.50005200  0.49984100  0.00026500  1
  Cr  Cr1  1  0.99967900  0.00031700  0.50015700  1
  Cr  Cr2  1  0.00045200  0.99966400  0.99998600  1
  Cr  Cr3  1  0.49985100  0.49999000  0.49946300  1
  P  P0  1  0.52573200  0.17508700  0.25003500  1
  P  P1  1  0.02577300  0.67518000  0.25000100  1
  P  P2  1  0.97423100  0.32490300  0.75003100  1
  P  P3  1  0.47420600  0.82481500  0.75000200  1
  O  O0  1  0.58965900  0.34044100  0.25003600  1
  O  O1  1  0.08963100  0.84047300  0.25002300  1
  O  O2  1  0.69420900  0.37587000  0.74999900  1
  O  O3  1  0.19421900  0.87583900  0.74996000  1
  O  O4  1  0.80579600  0.12417600  0.24998800  1
  O  O5  1  0.30581300  0.62421100  0.24997400  1
  O  O6  1  0.91038900  0.15956400  0.75007500  1
  O  O7  1  0.41041800  0.65953700  0.74997400  1
  O  O8  1  0.36701600  0.12232000  0.45207100  1
  O  O9  1  0.86711100  0.62235900  0.45201600  1
  O  O10  1  0.13289800  0.37765400  0.54793700  1
  O  O11  1  0.63278300  0.87764300  0.54794700  1
  O  O12  1  0.13290700  0.37767600  0.95209200  1
  O  O13  1  0.63287200  0.87765300  0.95203200  1
  O  O14  1  0.36709200  0.12235700  0.04794700  1
  O  O15  1  0.86715200  0.62235700  0.04797100  1
loop_
_geom_bond_atom_site_label_1
_geom_bond_atom_site_label_2
_geom_bond_distance
_geom_bond_site_symmetry_2
Li0 O12 2.017615 1_654
Li0 O10 2.017627 1_655
Li0 O0 2.083059 1_555
Li0 O4 2.087544 1_555
Li1 O11 2.017421 1_555
Li1 O13 2.017735 1_554
Li1 O1 2.083329 1_555
Li1 O5 2.087623 1_555
Li2 O14 2.017735 1_556
Li2 O8 2.017972 1_555
Li2 O6 2.083252 1_555
Li2 O2 2.087630 1_555
Li3 O15 2.017856 1_456
Li3 O9 2.017881 1_455
Li3 O7 2.083434 1_555
Li3 O3 2.087696 1_555
Cr0 O12 2.055046 1_554
Cr0 O15 2.055872 1_555
Cr0 O2 2.287432 1_554
Cr0 O5 2.287480 1_555
Cr0 O0 2.288959 1_555
Cr0 O7 2.293240 1_554
Cr1 O8 2.055092 1_655
Cr1 O11 2.055766 1_545
Cr1 O4 2.285690 1_555
Cr1 O6 2.288064 1_555
Cr1 O3 2.289295 1_645
Cr1 O1 2.294019 1_645
Cr2 O14 2.054951 1_566
Cr2 O13 2.055999 1_455
Cr2 O3 2.284559 1_555
Cr2 O1 2.288056 1_556
Cr2 O4 2.290631 1_466
Cr2 O6 2.293622 1_465
Cr3 O10 2.055243 1_555
Cr3 O9 2.055688 1_555
Cr3 O5 2.285183 1_555
Cr3 O0 2.288758 1_555
Cr3 O2 2.289982 1_555
Cr3 O7 2.292866 1_555
O0 P0 1.568341 1_555
O1 P1 1.567752 1_555
O2 P2 1.568528 1_555
O3 P3 1.568608 1_555
O4 P0 1.568486 1_555
O5 P1 1.568623 1_555
O6 P2 1.568180 1_555
O7 P3 1.567595 1_555
O8 P0 1.546696 1_555
O9 P1 1.546587 1_655
O10 P2 1.546843 1_455
O11 P3 1.546610 1_555
O12 P2 1.546740 1_455
O13 P3 1.546709 1_555
O14 P0 1.546694 1_555
O15 P1 1.546568 1_655
