# generated using pymatgen
data_CaTi4(CuO4)3
_symmetry_space_group_name_H-M   'P 1'
_cell_length_a   6.46060840
_cell_length_b   6.46060840
_cell_length_c   6.46060840
_cell_angle_alpha   109.47122063
_cell_angle_beta   109.47122063
_cell_angle_gamma   109.47122063
_symmetry_Int_Tables_number   1
_chemical_formula_structural   CaTi4(CuO4)3
_chemical_formula_sum   'Ca1 Ti4 Cu3 O12'
_cell_volume   207.58614451
_cell_formula_units_Z   1
loop_
 _symmetry_equiv_pos_site_id
 _symmetry_equiv_pos_as_xyz
  1  'x, y, z'
loop_
 _atom_site_type_symbol
 _atom_site_label
 _atom_site_symmetry_multiplicity
 _atom_site_fract_x
 _atom_site_fract_y
 _atom_site_fract_z
 _atom_site_occupancy
  Ca  Ca0  1  0.00000000  0.00000000  0.00000000  1
  Ti  Ti0  1  0.50000000  0.50000000  0.50000000  1
  Ti  Ti1  1  0.00000000  0.50000000  0.00000000  1
  Ti  Ti2  1  0.00000000  0.00000000  0.50000000  1
  Ti  Ti3  1  0.50000000  0.00000000  0.00000000  1
  Cu  Cu0  1  0.50000000  0.00000000  0.50000000  1
  Cu  Cu1  1  0.50000000  0.50000000  0.00000000  1
  Cu  Cu2  1  0.00000000  0.50000000  0.50000000  1
  O  O0  1  0.87448500  0.17718300  0.69730200  1
  O  O1  1  0.17718300  0.30269800  0.47988100  1
  O  O2  1  0.12551500  0.82281700  0.30269800  1
  O  O3  1  0.82281700  0.30269800  0.12551500  1
  O  O4  1  0.47988100  0.17718300  0.30269800  1
  O  O5  1  0.30269800  0.12551500  0.82281700  1
  O  O6  1  0.69730200  0.52011900  0.82281700  1
  O  O7  1  0.17718300  0.69730200  0.87448500  1
  O  O8  1  0.52011900  0.82281700  0.69730200  1
  O  O9  1  0.30269800  0.47988100  0.17718300  1
  O  O10  1  0.69730200  0.87448500  0.17718300  1
  O  O11  1  0.82281700  0.69730200  0.52011900  1
loop_
_geom_bond_atom_site_label_1
_geom_bond_atom_site_label_2
_geom_bond_distance
_geom_bond_site_symmetry_2
Ca0 O9 2.616559 1_555
Ca0 O2 2.616559 1_545
Ca0 O1 2.616559 1_555
Ca0 O6 2.616559 1_444
Ca0 O4 2.616559 1_555
Ca0 O11 2.616559 1_444
Ca0 O5 2.616559 1_554
Ca0 O8 2.616559 1_444
Ca0 O3 2.616559 1_455
Ca0 O0 2.616559 1_454
Ca0 O10 2.616559 1_445
Ca0 O7 2.616559 1_544
Cu0 O0 1.978281 1_555
Cu0 O8 1.978281 1_545
Cu0 O2 1.978281 1_545
Cu0 O4 1.978281 1_555
Cu1 O10 1.978281 1_555
Cu1 O6 1.978281 1_554
Cu1 O9 1.978281 1_555
Cu1 O5 1.978281 1_554
Cu2 O7 1.978281 1_555
Cu2 O3 1.978281 1_455
Cu2 O1 1.978281 1_555
Cu2 O11 1.978281 1_455
O0 Ti1 1.981900 1_656
O0 Ti2 1.981900 1_655
O1 Ti0 1.981900 1_555
O1 Ti2 1.981900 1_555
O2 Ti2 1.981900 1_565
O2 Ti1 1.981900 1_555
O3 Ti1 1.981900 1_655
O3 Ti3 1.981900 1_555
O4 Ti3 1.981900 1_555
O4 Ti0 1.981900 1_555
O5 Ti3 1.981900 1_556
O5 Ti2 1.981900 1_555
O6 Ti1 1.981900 1_656
O6 Ti0 1.981900 1_555
O7 Ti3 1.981900 1_566
O7 Ti1 1.981900 1_556
O8 Ti3 1.981900 1_566
O8 Ti0 1.981900 1_555
O9 Ti1 1.981900 1_555
O9 Ti0 1.981900 1_555
O10 Ti3 1.981900 1_565
O10 Ti2 1.981900 1_665
O11 Ti2 1.981900 1_665
O11 Ti0 1.981900 1_555
