# generated using pymatgen
data_K2LiAlH6
_symmetry_space_group_name_H-M   'P 1'
_cell_length_a   5.48874624
_cell_length_b   5.48926207
_cell_length_c   7.75684892
_cell_angle_alpha   90.00000000
_cell_angle_beta   90.00207298
_cell_angle_gamma   90.00000000
_symmetry_Int_Tables_number   1
_chemical_formula_structural   K2LiAlH6
_chemical_formula_sum   'K4 Li2 Al2 H12'
_cell_volume   233.70739301
_cell_formula_units_Z   2
loop_
 _symmetry_equiv_pos_site_id
 _symmetry_equiv_pos_as_xyz
  1  'x, y, z'
loop_
 _atom_site_type_symbol
 _atom_site_label
 _atom_site_symmetry_multiplicity
 _atom_site_fract_x
 _atom_site_fract_y
 _atom_site_fract_z
 _atom_site_occupancy
  K  K0  1  0.49999125  0.00000000  0.74998611  1
  K  K1  1  0.00000792  0.50000000  0.75001343  1
  K  K2  1  0.50000875  0.00000000  0.25001389  1
  K  K3  1  0.99999208  0.50000000  0.24998657  1
  Li  Li0  1  -0.00000000  0.00000000  0.50000000  1
  Li  Li1  1  0.50000000  0.50000000  -0.00000000  1
  Al  Al0  1  -0.00000000  0.00000000  -0.00000000  1
  Al  Al1  1  0.50000000  0.50000000  0.50000000  1
  H  H0  1  0.72791451  0.27212923  0.50000590  1
  H  H1  1  0.77208547  0.77212924  0.99999411  1
  H  H2  1  0.27208549  0.72787077  0.49999410  1
  H  H3  1  0.22791453  0.22787076  0.00000589  1
  H  H4  1  0.77208547  0.22787076  0.99999411  1
  H  H5  1  0.72791451  0.72787077  0.50000590  1
  H  H6  1  0.22791453  0.77212924  0.00000589  1
  H  H7  1  0.27208549  0.27212923  0.49999410  1
  H  H8  1  0.00001196  0.00000000  0.22805868  1
  H  H9  1  0.49998810  0.50000000  0.27194145  1
  H  H10  1  0.99998804  0.00000000  0.77194132  1
  H  H11  1  0.50001190  0.50000000  0.72805855  1
loop_
_geom_bond_atom_site_label_1
_geom_bond_atom_site_label_2
_geom_bond_distance
_geom_bond_site_symmetry_2
Al0 H10 1.769017 1_454
Al0 H8 1.769017 1_555
Al0 H1 1.769045 1_444
Al0 H4 1.769045 1_454
Al0 H6 1.769045 1_545
Al0 H3 1.769045 1_555
Al1 H11 1.769016 1_555
Al1 H9 1.769016 1_555
Al1 H0 1.769045 1_555
Al1 H5 1.769045 1_555
Al1 H2 1.769045 1_555
Al1 H7 1.769045 1_555
H0 Li0 2.112267 1_655
H0 K1 2.748739 1_655
H0 K3 2.748832 1_555
H0 K2 2.748877 1_555
H0 K0 2.748920 1_555
H1 Li1 2.112267 1_556
H1 K0 2.748744 1_565
H1 K2 2.748832 1_566
H1 K3 2.748882 1_556
H1 K1 2.748921 1_655
H2 Li0 2.112267 1_565
H2 K3 2.748739 1_455
H2 K1 2.748832 1_555
H2 K0 2.748877 1_565
H2 K2 2.748920 1_565
H3 Li1 2.112267 1_555
H3 K2 2.748744 1_555
H3 K0 2.748832 1_554
H3 K1 2.748882 1_554
H3 K3 2.748921 1_455
H4 Li1 2.112267 1_556
H4 K0 2.748744 1_555
H4 K2 2.748832 1_556
H4 K3 2.748882 1_556
H4 K1 2.748921 1_655
H5 Li0 2.112267 1_665
H5 K1 2.748739 1_655
H5 K3 2.748832 1_555
H5 K2 2.748877 1_565
H5 K0 2.748920 1_565
H6 Li1 2.112267 1_555
H6 K2 2.748744 1_565
H6 K0 2.748832 1_564
H6 K1 2.748882 1_554
H6 K3 2.748921 1_455
H7 Li0 2.112267 1_555
H7 K3 2.748739 1_455
H7 K1 2.748832 1_555
H7 K0 2.748877 1_555
H7 K2 2.748920 1_555
H8 Li0 2.109408 1_555
H8 K2 2.749628 1_555
H8 K2 2.749676 1_455
H8 K3 2.749896 1_445
H8 K3 2.749896 1_455
H9 Li1 2.109409 1_555
H9 K3 2.749624 1_455
H9 K3 2.749680 1_555
H9 K2 2.749896 1_555
H9 K2 2.749896 1_565
H10 Li0 2.109408 1_655
H10 K0 2.749628 1_555
H10 K0 2.749676 1_655
H10 K1 2.749896 1_645
H10 K1 2.749896 1_655
H11 Li1 2.109409 1_556
H11 K1 2.749624 1_655
H11 K1 2.749680 1_555
H11 K0 2.749896 1_555
H11 K0 2.749896 1_565
