# generated using pymatgen
data_Li2BPt3
_symmetry_space_group_name_H-M   'P 1'
_cell_length_a   6.79202276
_cell_length_b   6.79202276
_cell_length_c   6.79202276
_cell_angle_alpha   90.00000000
_cell_angle_beta   90.00000000
_cell_angle_gamma   90.00000000
_symmetry_Int_Tables_number   1
_chemical_formula_structural   Li2BPt3
_chemical_formula_sum   'Li8 B4 Pt12'
_cell_volume   313.32669494
_cell_formula_units_Z   4
loop_
 _symmetry_equiv_pos_site_id
 _symmetry_equiv_pos_as_xyz
  1  'x, y, z'
loop_
 _atom_site_type_symbol
 _atom_site_label
 _atom_site_symmetry_multiplicity
 _atom_site_fract_x
 _atom_site_fract_y
 _atom_site_fract_z
 _atom_site_occupancy
  Li  Li0  1  0.30251187  0.30251187  0.30251187  1
  Li  Li1  1  0.05251187  0.44748813  0.55251187  1
  Li  Li2  1  0.55251187  0.05251187  0.44748813  1
  Li  Li3  1  0.44748813  0.55251187  0.05251187  1
  Li  Li4  1  0.19748813  0.69748813  0.80251187  1
  Li  Li5  1  0.94748813  0.94748813  0.94748813  1
  Li  Li6  1  0.80251187  0.19748813  0.69748813  1
  Li  Li7  1  0.69748813  0.80251187  0.19748813  1
  B  B0  1  0.87500000  0.37500000  0.12500000  1
  B  B1  1  0.37500000  0.12500000  0.87500000  1
  B  B2  1  0.62500000  0.62500000  0.62500000  1
  B  B3  1  0.12500000  0.87500000  0.37500000  1
  Pt  Pt0  1  0.18747888  0.06252112  0.62500000  1
  Pt  Pt1  1  0.43747888  0.37500000  0.68747888  1
  Pt  Pt2  1  0.06252112  0.62500000  0.18747888  1
  Pt  Pt3  1  0.93747888  0.12500000  0.31252112  1
  Pt  Pt4  1  0.31252112  0.93747888  0.12500000  1
  Pt  Pt5  1  0.68747888  0.43747888  0.37500000  1
  Pt  Pt6  1  0.56252112  0.87500000  0.81252112  1
  Pt  Pt7  1  0.62500000  0.18747888  0.06252112  1
  Pt  Pt8  1  0.37500000  0.68747888  0.43747888  1
  Pt  Pt9  1  0.87500000  0.81252112  0.56252112  1
  Pt  Pt10  1  0.12500000  0.31252112  0.93747888  1
  Pt  Pt11  1  0.81252112  0.56252112  0.87500000  1
loop_
_geom_bond_atom_site_label_1
_geom_bond_atom_site_label_2
_geom_bond_distance
_geom_bond_site_symmetry_2
Li0 Li2 2.595389 1_555
Li0 Li3 2.595389 1_555
Li0 Li1 2.595389 1_555
Li0 Pt4 2.757760 1_545
Li0 Pt3 2.757760 1_455
Li0 Pt10 2.757760 1_554
Li0 Pt5 2.814146 1_555
Li0 Pt1 2.814146 1_555
Li0 Pt8 2.814146 1_555
Li0 Pt0 2.839900 1_555
Li0 Pt2 2.839900 1_555
Li0 Pt7 2.839900 1_555
Li1 Li6 2.595389 1_455
Li1 Li4 2.595389 1_555
Li1 Pt5 2.757760 1_455
Li1 Pt9 2.757760 1_455
Li1 Pt2 2.757760 1_555
Li1 Pt0 2.814146 1_555
Li1 Pt10 2.814146 1_555
Li1 Pt1 2.814146 1_555
Li1 Pt8 2.839900 1_555
Li1 Pt3 2.839900 1_455
Li1 Pt11 2.839900 1_455
Li2 Li6 2.595389 1_555
Li2 Li7 2.595389 1_545
Li2 Pt0 2.757760 1_555
Li2 Pt6 2.757760 1_545
Li2 Pt8 2.757760 1_545
Li2 Pt5 2.814146 1_555
Li2 Pt3 2.814146 1_555
Li2 Pt7 2.814146 1_555
Li2 Pt1 2.839900 1_555
Li2 Pt4 2.839900 1_545
Li2 Pt9 2.839900 1_545
Li3 Li4 2.595389 1_554
Li3 Li7 2.595389 1_555
Li3 Pt1 2.757760 1_554
Li3 Pt11 2.757760 1_554
Li3 Pt7 2.757760 1_555
Li3 Pt8 2.814146 1_555
Li3 Pt4 2.814146 1_555
Li3 Pt2 2.814146 1_555
Li3 Pt6 2.839900 1_554
Li3 Pt10 2.839900 1_554
Li3 Pt5 2.839900 1_555
Li4 Li5 2.595389 1_455
Li4 Pt0 2.757760 1_565
Li4 Pt8 2.757760 1_555
Li4 Pt6 2.757760 1_555
Li4 Pt11 2.814146 1_455
Li4 Pt2 2.814146 1_556
Li4 Pt10 2.814146 1_555
Li4 Pt1 2.839900 1_555
Li4 Pt4 2.839900 1_556
Li4 Pt9 2.839900 1_455
Li5 Li7 2.595389 1_556
Li5 Li6 2.595389 1_565
Li5 Pt3 2.757760 1_566
Li5 Pt4 2.757760 1_656
Li5 Pt10 2.757760 1_665
Li5 Pt11 2.814146 1_555
Li5 Pt9 2.814146 1_555
Li5 Pt6 2.814146 1_555
Li5 Pt2 2.839900 1_656
Li5 Pt7 2.839900 1_566
Li5 Pt0 2.839900 1_665
Li6 Pt1 2.757760 1_555
Li6 Pt7 2.757760 1_556
Li6 Pt11 2.757760 1_555
Li6 Pt3 2.814146 1_555
Li6 Pt0 2.814146 1_655
Li6 Pt9 2.814146 1_545
Li6 Pt6 2.839900 1_545
Li6 Pt5 2.839900 1_555
Li6 Pt10 2.839900 1_655
Li7 Pt2 2.757760 1_655
Li7 Pt5 2.757760 1_555
Li7 Pt9 2.757760 1_555
Li7 Pt4 2.814146 1_555
Li7 Pt6 2.814146 1_554
Li7 Pt7 2.814146 1_565
Li7 Pt3 2.839900 1_565
Li7 Pt11 2.839900 1_554
Li7 Pt8 2.839900 1_555
B0 Pt2 2.164597 1_655
B0 Pt7 2.164597 1_555
B0 Pt10 2.164597 1_654
B0 Pt3 2.164597 1_555
B0 Pt5 2.164597 1_555
B0 Pt11 2.164597 1_554
B1 Pt1 2.164597 1_555
B1 Pt10 2.164597 1_555
B1 Pt7 2.164597 1_556
B1 Pt0 2.164597 1_555
B1 Pt6 2.164597 1_545
B1 Pt4 2.164597 1_546
B2 Pt9 2.164597 1_555
B2 Pt6 2.164597 1_555
B2 Pt1 2.164597 1_555
B2 Pt8 2.164597 1_555
B2 Pt5 2.164597 1_555
B2 Pt11 2.164597 1_555
B3 Pt2 2.164597 1_555
B3 Pt3 2.164597 1_465
B3 Pt8 2.164597 1_555
B3 Pt9 2.164597 1_455
B3 Pt4 2.164597 1_555
B3 Pt0 2.164597 1_565
