# generated using pymatgen
data_Mo3Se4
_symmetry_space_group_name_H-M   'P 1'
_cell_length_a   6.75342150
_cell_length_b   6.75342150
_cell_length_c   6.75342214
_cell_angle_alpha   91.63846732
_cell_angle_beta   91.63846732
_cell_angle_gamma   91.63847326
_symmetry_Int_Tables_number   1
_chemical_formula_structural   Mo3Se4
_chemical_formula_sum   'Mo6 Se8'
_cell_volume   307.62965165
_cell_formula_units_Z   2
loop_
 _symmetry_equiv_pos_site_id
 _symmetry_equiv_pos_as_xyz
  1  'x, y, z'
loop_
 _atom_site_type_symbol
 _atom_site_label
 _atom_site_symmetry_multiplicity
 _atom_site_fract_x
 _atom_site_fract_y
 _atom_site_fract_z
 _atom_site_occupancy
  Mo  Mo0  1  0.45375500  0.58586900  0.77428600  1
  Mo  Mo1  1  0.77428600  0.45375500  0.58586900  1
  Mo  Mo2  1  0.58586900  0.77428600  0.45375500  1
  Mo  Mo3  1  0.54624500  0.41413100  0.22571400  1
  Mo  Mo4  1  0.22571400  0.54624500  0.41413100  1
  Mo  Mo5  1  0.41413100  0.22571400  0.54624500  1
  Se  Se0  1  0.78358600  0.78358600  0.78358600  1
  Se  Se1  1  0.21641400  0.21641400  0.21641400  1
  Se  Se2  1  0.25697400  0.87180300  0.61857800  1
  Se  Se3  1  0.61857800  0.25697400  0.87180300  1
  Se  Se4  1  0.87180300  0.61857800  0.25697400  1
  Se  Se5  1  0.74302600  0.12819700  0.38142200  1
  Se  Se6  1  0.38142200  0.74302600  0.12819700  1
  Se  Se7  1  0.12819700  0.38142300  0.74302600  1
loop_
_geom_bond_atom_site_label_1
_geom_bond_atom_site_label_2
_geom_bond_distance
_geom_bond_site_symmetry_2
Mo0 Se0 2.562362 1_555
Mo0 Se7 2.562830 1_555
Mo0 Se2 2.604558 1_555
Mo0 Se3 2.605658 1_555
Mo0 Se6 2.651238 1_556
Mo1 Se0 2.562362 1_555
Mo1 Se5 2.562833 1_555
Mo1 Se3 2.604558 1_555
Mo1 Se4 2.605658 1_555
Mo1 Se7 2.651237 1_655
Mo2 Se0 2.562362 1_555
Mo2 Se6 2.562833 1_555
Mo2 Se4 2.604558 1_555
Mo2 Se2 2.605658 1_555
Mo2 Se5 2.651238 1_565
Mo3 Se1 2.562362 1_555
Mo3 Se4 2.562833 1_555
Mo3 Se5 2.604558 1_555
Mo3 Se6 2.605658 1_555
Mo3 Se3 2.651238 1_554
Mo4 Se1 2.562362 1_555
Mo4 Se2 2.562833 1_555
Mo4 Se6 2.604558 1_555
Mo4 Se7 2.605655 1_555
Mo4 Se4 2.651238 1_455
Mo5 Se1 2.562362 1_555
Mo5 Se3 2.562833 1_555
Mo5 Se7 2.604561 1_555
Mo5 Se5 2.605658 1_555
Mo5 Se2 2.651238 1_545
