# generated using pymatgen
data_Na5Zn4PS5O24
_symmetry_space_group_name_H-M   'P 1'
_cell_length_a   8.92725920
_cell_length_b   8.93019560
_cell_length_c   22.25865398
_cell_angle_alpha   89.20696011
_cell_angle_beta   90.25087544
_cell_angle_gamma   120.00205772
_symmetry_Int_Tables_number   1
_chemical_formula_structural   Na5Zn4PS5O24
_chemical_formula_sum   'Na15 Zn12 P3 S15 O72'
_cell_volume   1536.58350655
_cell_formula_units_Z   3
loop_
 _symmetry_equiv_pos_site_id
 _symmetry_equiv_pos_as_xyz
  1  'x, y, z'
loop_
 _atom_site_type_symbol
 _atom_site_label
 _atom_site_symmetry_multiplicity
 _atom_site_fract_x
 _atom_site_fract_y
 _atom_site_fract_z
 _atom_site_occupancy
  Na  Na0  1  0.36228814  0.35743481  0.25151659  1
  Na  Na1  1  0.00306054  0.63980221  0.24737494  1
  Na  Na2  1  0.63494544  0.63956250  0.74571609  1
  Na  Na3  1  0.99442997  0.35817684  0.75317604  1
  Na  Na4  1  0.30984647  0.33988609  0.58429975  1
  Na  Na5  1  0.66870742  0.96350769  0.58595683  1
  Na  Na6  1  0.30068891  0.96823064  0.08602930  1
  Na  Na7  1  0.69892501  0.03181532  0.91443581  1
  Na  Na8  1  0.69827428  0.66582365  0.42059517  1
  Na  Na9  1  0.00905180  0.99083622  0.49929010  1
  Na  Na10  1  0.00007583  -0.00000939  0.00022275  1
  Na  Na11  1  0.65053520  0.32431601  0.83417496  1
  Na  Na12  1  0.65520967  0.29287005  0.33421171  1
  Na  Na13  1  0.34852497  0.67559673  0.16576732  1
  Na  Na14  1  0.33407005  0.68985229  0.66740098  1
  Zn  Zn0  1  0.01443094  0.01043656  0.34669364  1
  Zn  Zn1  1  0.00042210  0.00082607  0.84643041  1
  Zn  Zn2  1  0.98167345  0.97556540  0.65301029  1
  Zn  Zn3  1  0.99765129  0.99911346  0.15419496  1
  Zn  Zn4  1  0.66008361  0.32547705  0.67972911  1
  Zn  Zn5  1  0.66060337  0.31831909  0.18011675  1
  Zn  Zn6  1  0.67140875  0.34413810  0.98657521  1
  Zn  Zn7  1  0.67170576  0.34010488  0.48757875  1
  Zn  Zn8  1  0.32833518  0.65569587  0.01369747  1
  Zn  Zn9  1  0.33359689  0.66691365  0.51311381  1
  Zn  Zn10  1  0.33904808  0.68944867  0.31976352  1
  Zn  Zn11  1  0.34123290  0.68214623  0.82019417  1
  P  P0  1  0.29970461  0.00083988  0.24731700  1
  P  P1  1  0.69843062  0.00196467  0.75046301  1
  P  P2  1  0.66662946  0.63120191  0.58239203  1
  S  S0  1  0.70160788  0.70365717  0.25187419  1
  S  S1  1  0.99781987  0.29524929  0.25019477  1
  S  S2  1  0.29562674  0.29439941  0.74858978  1
  S  S3  1  0.00388616  0.70369682  0.75122074  1
  S  S4  1  0.96733935  0.33634267  0.58422124  1
  S  S5  1  0.36829733  0.03548574  0.58239284  1
  S  S6  1  0.96399419  0.63040248  0.08476878  1
  S  S7  1  0.66856122  0.03323994  0.08074903  1
  S  S8  1  0.36911122  0.33581984  0.08399087  1
  S  S9  1  0.63071238  0.66424035  0.91582311  1
  S  S10  1  0.03561110  0.36945008  0.91513071  1
  S  S11  1  0.33158941  0.96672881  0.91925298  1
  S  S12  1  0.63696995  0.97008135  0.41844146  1
  S  S13  1  0.33080243  0.36831841  0.41599486  1
  S  S14  1  0.03373868  0.66437270  0.41581261  1
  O  O0  1  0.21338640  0.03521182  0.30117627  1
  O  O1  1  0.80156151  0.78225348  0.30763803  1
  O  O2  1  0.96945381  0.19090477  0.30510247  1
  O  O3  1  0.21193623  0.18875254  0.80244175  1
  O  O4  1  0.97991383  0.78699342  0.80445230  1
  O  O5  1  0.81223306  0.03176059  0.80721875  1
  O  O6  1  0.78074420  0.97143740  0.69373747  1
  O  O7  1  0.19646531  0.21420965  0.69285754  1
  O  O8  1  0.03301125  0.80617735  0.69563289  1
  O  O9  1  0.78376310  0.81128565  0.19824367  1
  O  O10  1  0.02247904  0.21415107  0.19627875  1
  O  O11  1  0.19061018  0.96909990  0.18907385  1
  O  O12  1  0.89180329  0.35522749  0.64096756  1
  O  O13  1  0.47867244  0.10996550  0.63639576  1
  O  O14  1  0.63956379  0.51813312  0.63942587  1
  O  O15  1  0.88333657  0.53287504  0.14147245  1
  O  O16  1  0.63966285  0.11789509  0.13279601  1
  O  O17  1  0.46651709  0.35774232  0.14093045  1
  O  O18  1  0.45763957  0.30902429  0.03247147  1
  O  O19  1  0.86123393  0.54311943  0.03144509  1
  O  O20  1  0.69024131  0.13352216  0.02409401  1
  O  O21  1  0.45045954  0.14552543  0.52835936  1
  O  O22  1  0.68372202  0.54830921  0.52432247  1
  O  O23  1  0.85266469  0.30662075  0.53239662  1
  O  O24  1  0.54253279  0.69136555  0.96735796  1
  O  O25  1  0.13881217  0.45649096  0.96844328  1
  O  O26  1  0.31010074  0.86621120  0.97582325  1
  O  O27  1  0.55709092  0.86348521  0.47418122  1
  O  O28  1  0.31507646  0.45004967  0.47178849  1
  O  O29  1  0.14069283  0.68231719  0.46867421  1
  O  O30  1  0.11067077  0.64751343  0.35899476  1
  O  O31  1  0.52980249  0.88661259  0.36501629  1
  O  O32  1  0.35178548  0.47848110  0.36195108  1
  O  O33  1  0.11634429  0.46678974  0.85851000  1
  O  O34  1  0.36052432  0.88229167  0.86711303  1
  O  O35  1  0.53331473  0.64224827  0.85886449  1
  O  O36  1  0.01026108  0.81967923  0.41322453  1
  O  O37  1  0.80777898  0.97786940  0.41298828  1
  O  O38  1  0.17563322  0.19435463  0.41252101  1
  O  O39  1  0.01383963  0.19157745  0.91372847  1
  O  O40  1  0.17699279  0.98593196  0.91201722  1
  O  O41  1  0.80455269  0.82586888  0.91234412  1
  O  O42  1  0.98979042  0.18031287  0.58749863  1
  O  O43  1  0.19805083  0.02612045  0.58898620  1
  O  O44  1  0.82592925  0.81662815  0.58623453  1
  O  O45  1  0.98498296  0.80767410  0.08611282  1
  O  O46  1  0.82313168  0.01403178  0.08809491  1
  O  O47  1  0.19519726  0.17492136  0.08722634  1
  O  O48  1  0.68676050  0.16940603  0.74378311  1
  O  O49  1  0.47620846  0.32563901  0.74622775  1
  O  O50  1  0.84142268  0.53028364  0.74712926  1
  O  O51  1  0.69083724  0.53044805  0.24709291  1
  O  O52  1  0.84911681  0.32685503  0.24433018  1
  O  O53  1  0.48121997  0.16636183  0.24239180  1
  O  O54  1  0.65004245  0.50948921  0.92287622  1
  O  O55  1  0.85718970  0.34688038  0.91880519  1
  O  O56  1  0.49373057  0.14018974  0.92255042  1
  O  O57  1  0.65715182  0.14437625  0.42335270  1
  O  O58  1  0.49236438  0.35625227  0.41863717  1
  O  O59  1  0.85682402  0.50790857  0.42033295  1
  O  O60  1  0.35038308  0.49116138  0.07697759  1
  O  O61  1  0.14252046  0.65296886  0.08116392  1
  O  O62  1  0.50641036  0.85976439  0.07741431  1
  O  O63  1  0.34897035  0.86066850  0.57650282  1
  O  O64  1  0.49953000  0.64932354  0.57925543  1
  O  O65  1  0.14239450  0.49181488  0.57737928  1
  O  O66  1  0.31066587  0.83277073  0.25477497  1
  O  O67  1  0.52051397  0.67122003  0.25562316  1
  O  O68  1  0.16021292  0.46917891  0.25448372  1
  O  O69  1  0.30719816  0.46844450  0.75235846  1
  O  O70  1  0.15248438  0.67238819  0.75700114  1
  O  O71  1  0.51929187  0.83383660  0.75636610  1
loop_
_geom_bond_atom_site_label_1
_geom_bond_atom_site_label_2
_geom_bond_distance
_geom_bond_site_symmetry_2
Na0 O67 2.429669 1_555
Na0 O53 2.429673 1_555
Na0 O68 2.461231 1_555
Na0 O51 2.542824 1_555
Na0 O17 2.634784 1_555
Na0 O0 2.714489 1_555
Na0 O32 2.719665 1_555
Na0 O10 2.912134 1_555
Na1 O66 2.410200 1_555
Na1 O52 2.422187 1_455
Na1 O51 2.449618 1_455
Na1 O68 2.538526 1_555
Na1 O15 2.574948 1_455
Na1 O30 2.649164 1_555
Na1 O11 2.850346 1_555
Na2 O49 2.427686 1_555
Na2 O71 2.436588 1_555
Na2 O50 2.479632 1_555
Na2 O69 2.538497 1_555
Na2 O14 2.625177 1_555
Na2 O35 2.685178 1_555
Na2 O6 2.806562 1_555
Na2 O4 2.980652 1_555
Na3 O48 2.409110 1_555
Na3 O70 2.432637 1_655
Na3 O69 2.452848 1_655
Na3 O50 2.517592 1_555
Na3 O33 2.570470 1_655
Na3 O12 2.652504 1_555
Na3 O5 2.787133 1_555
Na4 O64 2.414449 1_555
Na4 O43 2.460541 1_555
Na4 O65 2.473806 1_555
Na4 O42 2.475196 1_455
Na4 O7 2.633086 1_555
Na4 O28 2.669955 1_555
Na4 O14 2.835523 1_555
Na4 O21 2.896753 1_555
Na5 O44 2.351870 1_555
Na5 O64 2.438691 1_555
Na5 O63 2.532528 1_555
Na5 O42 2.533157 1_565
Na5 O6 2.583348 1_555
Na5 O27 2.670291 1_555
Na5 O13 2.850516 1_565
Na5 O23 2.896640 1_565
Na6 O45 2.440864 1_455
Na6 O61 2.441976 1_555
Na6 O47 2.456523 1_565
Na6 O62 2.476911 1_555
Na6 O11 2.500875 1_555
Na6 O26 2.644749 1_554
Na6 O16 2.827267 1_565
Na6 O18 2.880300 1_565
Na7 O39 2.434721 1_655
Na7 O55 2.439846 1_555
Na7 O41 2.451715 1_545
Na7 O56 2.470940 1_555
Na7 O5 2.596205 1_555
Na7 O20 2.630990 1_556
Na7 O34 2.827691 1_545
Na7 O24 2.872367 1_545
Na8 O36 2.417175 1_655
Na8 O58 2.438049 1_555
Na8 O59 2.447160 1_555
Na8 O37 2.452286 1_555
Na8 O22 2.499617 1_555
Na8 O1 2.691099 1_555
Na8 O27 2.902301 1_555
Na8 O32 2.986729 1_555
Na9 O36 2.470623 1_555
Na9 O44 2.497792 1_455
Na9 O43 2.527525 1_565
Na9 O38 2.543596 1_565
Na9 O37 2.588417 1_455
Na9 O42 2.670859 1_465
Na10 O45 2.510502 1_445
Na10 O39 2.519828 1_554
Na10 O47 2.560825 1_555
Na10 O46 2.562904 1_455
Na10 O40 2.568498 1_544
Na10 O41 2.575021 1_444
Na11 O56 2.483037 1_555
Na11 O49 2.499060 1_555
Na11 O48 2.568386 1_555
Na11 O55 2.569230 1_555
Na11 O54 2.594299 1_555
Na11 O50 2.614718 1_555
Na12 O57 2.376032 1_555
Na12 O53 2.479356 1_555
Na12 O52 2.565028 1_555
Na12 O58 2.615617 1_555
Na12 O59 2.686447 1_555
Na12 O51 2.753070 1_555
Na13 O62 2.485076 1_555
Na13 O67 2.527882 1_555
Na13 O66 2.562553 1_555
Na13 O61 2.564723 1_555
Na13 O60 2.595508 1_555
Na13 O68 2.636814 1_555
Na14 O63 2.480369 1_555
Na14 O71 2.494869 1_555
Na14 O70 2.529147 1_555
Na14 O64 2.596527 1_555
Na14 O69 2.639901 1_555
Na14 O65 2.666909 1_555
O0 P0 1.542739 1_555
O0 Zn0 1.961282 1_555
O1 S0 1.489156 1_555
O1 Zn0 2.163629 1_665
O2 S1 1.470142 1_555
O2 Zn0 2.053814 1_655
O3 S2 1.468580 1_555
O3 Zn1 2.035238 1_555
O4 S3 1.479472 1_655
O4 Zn1 2.061865 1_665
O5 P1 1.557757 1_555
O5 Zn1 2.026118 1_655
O6 P1 1.557735 1_565
O6 Zn2 1.996967 1_555
O7 S2 1.488748 1_555
O7 Zn2 2.226198 1_445
O8 S3 1.472951 1_555
O8 Zn2 2.011978 1_455
O9 S0 1.468899 1_555
O9 Zn3 2.046612 1_555
O10 S1 1.482905 1_455
O10 Zn3 2.058292 1_445
O11 P0 1.559675 1_565
O11 Zn3 2.021425 1_455
O12 S4 1.485147 1_555
O12 Zn4 2.133971 1_555
O13 S5 1.488126 1_555
O13 Zn4 2.043954 1_555
O14 P2 1.553308 1_555
O14 Zn4 2.017258 1_555
O15 S6 1.490099 1_555
O15 Zn5 2.126986 1_555
O16 S7 1.483944 1_555
O16 Zn5 2.015863 1_555
O17 S8 1.492562 1_555
O17 Zn5 2.115453 1_555
O18 S8 1.483765 1_555
O18 Zn6 2.047831 1_554
O19 S6 1.469306 1_555
O19 Zn6 2.012367 1_554
O20 S7 1.492405 1_555
O20 Zn6 2.129501 1_554
O21 S5 1.484707 1_555
O21 Zn7 2.069836 1_555
O22 P2 1.543733 1_555
O22 Zn7 1.994816 1_555
O23 S4 1.474970 1_555
O23 Zn7 2.038392 1_555
O24 S9 1.483406 1_555
O24 Zn8 2.054483 1_556
O25 S10 1.470017 1_555
O25 Zn8 2.016565 1_556
O26 S11 1.492216 1_555
O26 Zn8 2.128932 1_556
O27 S12 1.500061 1_555
O27 Zn9 2.069704 1_555
O28 S13 1.491246 1_555
O28 Zn9 2.086092 1_555
O29 S14 1.471107 1_555
O29 Zn9 2.044806 1_555
O30 S14 1.486632 1_555
O30 Zn10 2.074224 1_555
O31 S12 1.478662 1_555
O31 Zn10 2.012499 1_555
O32 S13 1.494955 1_555
O32 Zn10 2.146729 1_555
O33 S10 1.488123 1_555
O33 Zn11 2.136562 1_555
O34 S11 1.484537 1_555
O34 Zn11 2.014241 1_555
O35 S9 1.492792 1_555
O35 Zn11 2.097103 1_555
O36 S14 1.503055 1_555
O36 Zn0 2.227905 1_565
O37 S12 1.496692 1_555
O37 Zn0 2.267350 1_665
O38 S13 1.479379 1_555
O38 Zn0 2.144725 1_555
O39 S10 1.501484 1_555
O39 Zn1 2.241648 1_555
O40 S11 1.481239 1_555
O40 Zn1 2.194941 1_565
O41 S9 1.501864 1_555
O41 Zn1 2.208623 1_665
O42 S4 1.504439 1_555
O42 Zn2 2.295516 1_545
O43 S5 1.487591 1_555
O43 Zn2 2.258355 1_445
O44 P2 1.555487 1_555
O44 Zn2 2.055146 1_555
O45 S6 1.498911 1_555
O45 Zn3 2.260274 1_555
O46 S7 1.481288 1_555
O46 Zn3 2.189029 1_545
O47 S8 1.499126 1_555
O47 Zn3 2.232996 1_445
O48 P1 1.555100 1_555
O48 Zn4 2.075086 1_555
O49 S2 1.493328 1_555
O49 Zn4 2.215659 1_555
O50 S3 1.505521 1_655
O50 Zn4 2.304385 1_555
O51 S0 1.506275 1_555
O51 Zn5 2.333930 1_555
O52 S1 1.493706 1_555
O52 Zn5 2.175905 1_555
O53 P0 1.557055 1_555
O53 Zn5 2.030151 1_555
O54 S9 1.482053 1_555
O54 Zn6 2.109133 1_555
O55 S10 1.504659 1_655
O55 Zn6 2.237637 1_555
O56 S11 1.503322 1_545
O56 Zn6 2.242094 1_555
O57 S12 1.480255 1_545
O57 Zn7 2.226244 1_555
O58 S13 1.499940 1_555
O58 Zn7 2.267632 1_555
O59 S14 1.499141 1_655
O59 Zn7 2.167954 1_555
O60 S8 1.484067 1_555
O60 Zn8 2.100267 1_555
O61 S6 1.505512 1_455
O61 Zn8 2.233340 1_555
O62 S7 1.503482 1_565
O62 Zn8 2.239252 1_555
O63 S5 1.490050 1_565
O63 Zn9 2.198149 1_555
O64 P2 1.580047 1_555
O64 Zn9 2.143282 1_555
O65 S4 1.489774 1_455
O65 Zn9 2.166815 1_555
O66 P0 1.558731 1_565
O66 Zn10 2.016113 1_555
O67 S0 1.495554 1_555
O67 Zn10 2.231492 1_555
O68 S1 1.508088 1_455
O68 Zn10 2.334021 1_555
O69 S2 1.508771 1_555
O69 Zn11 2.347353 1_555
O70 S3 1.490959 1_555
O70 Zn11 2.158967 1_555
O71 P1 1.556969 1_565
O71 Zn11 2.047760 1_555
