# generated using pymatgen
data_MgTi2O4
_symmetry_space_group_name_H-M   'P 1'
_cell_length_a   6.00562951
_cell_length_b   6.00566906
_cell_length_c   6.00568644
_cell_angle_alpha   60.00021293
_cell_angle_beta   59.99992397
_cell_angle_gamma   60.00001671
_symmetry_Int_Tables_number   1
_chemical_formula_structural   MgTi2O4
_chemical_formula_sum   'Mg2 Ti4 O8'
_cell_volume   153.16801835
_cell_formula_units_Z   2
loop_
 _symmetry_equiv_pos_site_id
 _symmetry_equiv_pos_as_xyz
  1  'x, y, z'
loop_
 _atom_site_type_symbol
 _atom_site_label
 _atom_site_symmetry_multiplicity
 _atom_site_fract_x
 _atom_site_fract_y
 _atom_site_fract_z
 _atom_site_occupancy
  Mg  Mg0  1  0.74999990  0.75000223  0.74999592  1
  Mg  Mg1  1  0.50000157  0.49999813  0.50000386  1
  Ti  Ti0  1  0.12500165  0.12500096  0.62499740  1
  Ti  Ti1  1  0.62500015  0.12500017  0.12500006  1
  Ti  Ti2  1  0.12500132  0.12500071  0.12499952  1
  Ti  Ti3  1  0.12500186  0.62499772  0.12500056  1
  O  O0  1  0.89892117  0.36699657  0.36700756  1
  O  O1  1  0.36699565  0.36700351  0.89892226  1
  O  O2  1  0.36702418  0.36702530  0.36703518  1
  O  O3  1  0.35107457  0.88300184  0.88299304  1
  O  O4  1  0.88300192  0.35107872  0.88299003  1
  O  O5  1  0.88300161  0.88299800  0.35107342  1
  O  O6  1  0.36699531  0.89891705  0.36701263  1
  O  O7  1  0.88297912  0.88297908  0.88296857  1
loop_
_geom_bond_atom_site_label_1
_geom_bond_atom_site_label_2
_geom_bond_distance
_geom_bond_site_symmetry_2
Mg0 O3 1.956159 1_555
Mg0 O5 1.956167 1_555
Mg0 O4 1.956168 1_555
Mg0 O7 1.956187 1_555
Mg1 O0 1.956131 1_555
Mg1 O2 1.956139 1_555
Mg1 O6 1.956146 1_555
Mg1 O1 1.956147 1_555
O0 Ti2 2.057617 1_655
O0 Ti0 2.057911 1_655
O0 Ti3 2.057955 1_655
O1 Ti2 2.057584 1_556
O1 Ti3 2.057918 1_556
O1 Ti1 2.057962 1_556
O2 Ti0 2.057801 1_555
O2 Ti3 2.057850 1_555
O2 Ti1 2.057862 1_555
O3 Ti2 2.057625 1_566
O3 Ti0 2.057905 1_565
O3 Ti3 2.057936 1_556
O4 Ti2 2.057641 1_656
O4 Ti0 2.057909 1_655
O4 Ti1 2.057947 1_556
O5 Ti2 2.057608 1_665
O5 Ti3 2.057922 1_655
O5 Ti1 2.057930 1_565
O6 Ti2 2.057632 1_565
O6 Ti0 2.057900 1_565
O6 Ti1 2.057980 1_565
O7 Ti0 2.057793 1_665
O7 Ti1 2.057831 1_566
O7 Ti3 2.057844 1_656
