# generated using pymatgen
data_HoPt2
_symmetry_space_group_name_H-M   'P 1'
_cell_length_a   5.39023827
_cell_length_b   5.39023817
_cell_length_c   5.39023809
_cell_angle_alpha   59.99999430
_cell_angle_beta   59.99999493
_cell_angle_gamma   59.99999599
_symmetry_Int_Tables_number   1
_chemical_formula_structural   HoPt2
_chemical_formula_sum   'Ho2 Pt4'
_cell_volume   110.74109692
_cell_formula_units_Z   2
loop_
 _symmetry_equiv_pos_site_id
 _symmetry_equiv_pos_as_xyz
  1  'x, y, z'
loop_
 _atom_site_type_symbol
 _atom_site_label
 _atom_site_symmetry_multiplicity
 _atom_site_fract_x
 _atom_site_fract_y
 _atom_site_fract_z
 _atom_site_occupancy
  Ho  Ho0  1  0.87500000  0.87500000  0.87500000  1
  Ho  Ho1  1  0.12500000  0.12500000  0.12500000  1
  Pt  Pt0  1  0.50000000  0.50000000  0.50000000  1
  Pt  Pt1  1  0.50000000  0.50000000  0.00000000  1
  Pt  Pt2  1  0.00000000  0.50000000  0.50000000  1
  Pt  Pt3  1  0.50000000  0.00000000  0.50000000  1
loop_
_geom_bond_atom_site_label_1
_geom_bond_atom_site_label_2
_geom_bond_distance
_geom_bond_site_symmetry_2
Ho0 Pt0 3.160307 1_556
Ho0 Pt0 3.160307 1_565
Ho0 Pt2 3.160307 1_656
Ho0 Pt3 3.160307 1_566
Ho0 Pt2 3.160307 1_665
Ho0 Pt0 3.160307 1_655
Ho0 Pt1 3.160307 1_566
Ho0 Pt3 3.160307 1_665
Ho0 Pt1 3.160307 1_656
Ho0 Pt2 3.160307 1_655
Ho0 Pt3 3.160307 1_565
Ho0 Pt1 3.160307 1_556
Ho0 Ho1 3.300833 1_665
Ho0 Ho1 3.300833 1_656
Ho0 Ho1 3.300833 1_566
Ho0 Ho1 3.300833 1_666
Ho1 Pt0 3.160307 1_554
Ho1 Pt0 3.160307 1_545
Ho1 Pt2 3.160307 1_554
Ho1 Pt3 3.160307 1_554
Ho1 Pt2 3.160307 1_545
Ho1 Pt0 3.160307 1_455
Ho1 Pt1 3.160307 1_545
Ho1 Pt3 3.160307 1_455
Ho1 Pt1 3.160307 1_455
Ho1 Pt2 3.160307 1_555
Ho1 Pt3 3.160307 1_555
Ho1 Pt1 3.160307 1_555
Pt0 Pt1 2.695119 1_555
Pt0 Pt1 2.695119 1_556
Pt0 Pt3 2.695119 1_565
Pt0 Pt3 2.695119 1_555
Pt0 Pt2 2.695119 1_555
Pt0 Pt2 2.695119 1_655
Pt1 Pt3 2.695119 1_555
Pt1 Pt3 2.695119 1_564
Pt1 Pt2 2.695119 1_654
Pt1 Pt2 2.695119 1_555
Pt2 Pt3 2.695119 1_555
Pt2 Pt3 2.695119 1_465
