# generated using pymatgen
data_Na4ZrSi3GeO12
_symmetry_space_group_name_H-M   'P 1'
_cell_length_a   9.02136942
_cell_length_b   9.02136911
_cell_length_c   22.17266313
_cell_angle_alpha   90.00000000
_cell_angle_beta   90.00000000
_cell_angle_gamma   120.00000113
_symmetry_Int_Tables_number   1
_chemical_formula_structural   Na4ZrSi3GeO12
_chemical_formula_sum   'Na24 Zr6 Si18 Ge6 O72'
_cell_volume   1562.76402578
_cell_formula_units_Z   6
loop_
 _symmetry_equiv_pos_site_id
 _symmetry_equiv_pos_as_xyz
  1  'x, y, z'
loop_
 _atom_site_type_symbol
 _atom_site_label
 _atom_site_symmetry_multiplicity
 _atom_site_fract_x
 _atom_site_fract_y
 _atom_site_fract_z
 _atom_site_occupancy
  Na  Na0  1  0.63703826  0.00054100  0.24881069  1
  Na  Na1  1  0.36350274  0.36296174  0.24881069  1
  Na  Na2  1  0.99945900  0.63649726  0.24881069  1
  Na  Na3  1  0.62927216  0.63170869  0.75403163  1
  Na  Na4  1  0.00243653  0.37072784  0.75403163  1
  Na  Na5  1  0.36829131  0.99756347  0.75403163  1
  Na  Na6  1  0.30038545  0.33322212  0.58366792  1
  Na  Na7  1  0.03283766  0.69961455  0.58366792  1
  Na  Na8  1  0.66677788  0.96716234  0.58366792  1
  Na  Na9  1  0.29328773  0.95854936  0.08061296  1
  Na  Na10  1  0.66526263  0.70671227  0.08061296  1
  Na  Na11  1  0.04145064  0.33473737  0.08061296  1
  Na  Na12  1  0.96008057  0.66608632  0.91742905  1
  Na  Na13  1  0.70600475  0.03991943  0.91742905  1
  Na  Na14  1  0.33391368  0.29399525  0.91742905  1
  Na  Na15  1  0.96492843  0.29626496  0.41514002  1
  Na  Na16  1  0.33133552  0.03507157  0.41514002  1
  Na  Na17  1  0.70373504  0.66866448  0.41514002  1
  Na  Na18  1  0.00000000  0.00000000  0.49988358  1
  Na  Na19  1  0.00000000  0.00000000  0.99731821  1
  Na  Na20  1  0.66666700  0.33333300  0.83783832  1
  Na  Na21  1  0.66666700  0.33333300  0.32894244  1
  Na  Na22  1  0.33333300  0.66666700  0.16536194  1
  Na  Na23  1  0.33333300  0.66666700  0.67010396  1
  Zr  Zr0  1  0.00000000  0.00000000  0.34742835  1
  Zr  Zr1  1  0.00000000  0.00000000  0.65228633  1
  Zr  Zr2  1  0.00000000  0.00000000  0.14544455  1
  Zr  Zr3  1  0.66666700  0.33333300  0.69103158  1
  Zr  Zr4  1  0.66666700  0.33333300  0.47774872  1
  Zr  Zr5  1  0.33333300  0.66666700  0.51887910  1
  Si  Si0  1  0.30636107  0.00072272  0.24784506  1
  Si  Si1  1  0.69436165  0.69363893  0.24784506  1
  Si  Si2  1  0.99927728  0.30563835  0.24784506  1
  Si  Si3  1  0.28627409  0.29605052  0.75798841  1
  Si  Si4  1  0.00977644  0.71372591  0.75798841  1
  Si  Si5  1  0.70394948  0.99022356  0.75798841  1
  Si  Si6  1  0.96129555  0.33184564  0.58430531  1
  Si  Si7  1  0.37055110  0.03870445  0.58430531  1
  Si  Si8  1  0.66815436  0.62944890  0.58430531  1
  Si  Si9  1  0.95172668  0.61085528  0.07969113  1
  Si  Si10  1  0.65912960  0.04827332  0.07969113  1
  Si  Si11  1  0.38914472  0.34087040  0.07969113  1
  Si  Si12  1  0.61990517  0.66680663  0.91793980  1
  Si  Si13  1  0.04690047  0.38009483  0.91793980  1
  Si  Si14  1  0.33319337  0.95309953  0.91793980  1
  Si  Si15  1  0.62114010  0.95350650  0.41214933  1
  Si  Si16  1  0.33236540  0.37885990  0.41214933  1
  Si  Si17  1  0.04649350  0.66763460  0.41214933  1
  Ge  Ge0  1  0.00000000  0.00000000  0.85626321  1
  Ge  Ge1  1  0.66666700  0.33333300  0.18281092  1
  Ge  Ge2  1  0.66666700  0.33333300  0.97890258  1
  Ge  Ge3  1  0.33333300  0.66666700  0.01863065  1
  Ge  Ge4  1  0.33333300  0.66666700  0.31144991  1
  Ge  Ge5  1  0.33333300  0.66666700  0.81804121  1
  O  O0  1  0.22348557  0.04173969  0.30661089  1
  O  O1  1  0.81825412  0.77651443  0.30661089  1
  O  O2  1  0.95826031  0.18174588  0.30661089  1
  O  O3  1  0.19401788  0.16406881  0.81450744  1
  O  O4  1  0.97005093  0.80598212  0.81450744  1
  O  O5  1  0.83593119  0.02994907  0.81450744  1
  O  O6  1  0.78063131  0.95578860  0.69585580  1
  O  O7  1  0.17515729  0.21936869  0.69585580  1
  O  O8  1  0.04421140  0.82484271  0.69585580  1
  O  O9  1  0.78321813  0.82279806  0.19064950  1
  O  O10  1  0.03957992  0.21678187  0.19064950  1
  O  O11  1  0.17720194  0.96042008  0.19064950  1
  O  O12  1  0.87178113  0.35853266  0.64398543  1
  O  O13  1  0.48675253  0.12821887  0.64398543  1
  O  O14  1  0.64146734  0.51324747  0.64398543  1
  O  O15  1  0.86691531  0.49335261  0.14052063  1
  O  O16  1  0.62643830  0.13308469  0.14052063  1
  O  O17  1  0.50664739  0.37356170  0.14052063  1
  O  O18  1  0.47174297  0.30128253  0.02020864  1
  O  O19  1  0.82954056  0.52825703  0.02020864  1
  O  O20  1  0.69871747  0.17045944  0.02020864  1
  O  O21  1  0.45757677  0.15245380  0.52369350  1
  O  O22  1  0.69487803  0.54242323  0.52369350  1
  O  O23  1  0.84754620  0.30512197  0.52369350  1
  O  O24  1  0.53541407  0.70799700  0.97718386  1
  O  O25  1  0.17258193  0.46458593  0.97718386  1
  O  O26  1  0.29200300  0.82741807  0.97718386  1
  O  O27  1  0.54447179  0.84722703  0.47466932  1
  O  O28  1  0.30275424  0.45552821  0.47466932  1
  O  O29  1  0.15277297  0.69724576  0.47466932  1
  O  O30  1  0.14146106  0.64002102  0.35390032  1
  O  O31  1  0.49855896  0.85853894  0.35390032  1
  O  O32  1  0.35997898  0.50144104  0.35390032  1
  O  O33  1  0.13169227  0.50491941  0.85900412  1
  O  O34  1  0.37322614  0.86830773  0.85900412  1
  O  O35  1  0.49508059  0.62677386  0.85900412  1
  O  O36  1  0.02598014  0.83703178  0.40975046  1
  O  O37  1  0.81105164  0.97401986  0.40975046  1
  O  O38  1  0.16296822  0.18894836  0.40975046  1
  O  O39  1  0.02655040  0.18593543  0.91310388  1
  O  O40  1  0.15938503  0.97344960  0.91310388  1
  O  O41  1  0.81406457  0.84061497  0.91310388  1
  O  O42  1  0.97666172  0.16049103  0.58714933  1
  O  O43  1  0.18382931  0.02333828  0.58714933  1
  O  O44  1  0.83950897  0.81617069  0.58714933  1
  O  O45  1  0.97315866  0.80291197  0.08455466  1
  O  O46  1  0.82975331  0.02684134  0.08455466  1
  O  O47  1  0.19708803  0.17024669  0.08455466  1
  O  O48  1  0.68555583  0.16133979  0.75370469  1
  O  O49  1  0.47578496  0.31444417  0.75370469  1
  O  O50  1  0.83866021  0.52421504  0.75370469  1
  O  O51  1  0.68140924  0.50653374  0.24026179  1
  O  O52  1  0.82512550  0.31859076  0.24026179  1
  O  O53  1  0.49346626  0.17487450  0.24026179  1
  O  O54  1  0.64022775  0.49305437  0.92213312  1
  O  O55  1  0.85282762  0.35977225  0.92213312  1
  O  O56  1  0.50694563  0.14717238  0.92213312  1
  O  O57  1  0.63786952  0.14206258  0.41403444  1
  O  O58  1  0.50419405  0.36213048  0.41403444  1
  O  O59  1  0.85793742  0.49580595  0.41403444  1
  O  O60  1  0.36911595  0.51461329  0.07581463  1
  O  O61  1  0.14549634  0.63088405  0.07581463  1
  O  O62  1  0.48538671  0.85450366  0.07581463  1
  O  O63  1  0.35344191  0.85121426  0.58278418  1
  O  O64  1  0.49777135  0.64655809  0.58278418  1
  O  O65  1  0.14878574  0.50222865  0.58278418  1
  O  O66  1  0.32085757  0.82712196  0.25464128  1
  O  O67  1  0.50626339  0.67914243  0.25464128  1
  O  O68  1  0.17287804  0.49373661  0.25464128  1
  O  O69  1  0.30370649  0.48628963  0.76221158  1
  O  O70  1  0.18258214  0.69629351  0.76221158  1
  O  O71  1  0.51371037  0.81741786  0.76221158  1
loop_
_geom_bond_atom_site_label_1
_geom_bond_atom_site_label_2
_geom_bond_distance
_geom_bond_site_symmetry_2
Na0 O66 2.477479 1_545
Na0 O53 2.494796 1_555
Na0 O52 2.505812 1_555
Na0 O67 2.528779 1_545
Na0 O31 2.651573 1_545
Na0 O16 2.705259 1_555
Na0 O2 2.824036 1_555
Na0 O9 2.843918 1_545
Na1 O67 2.477479 1_555
Na1 O51 2.494804 1_555
Na1 O53 2.505819 1_555
Na1 O68 2.528787 1_555
Na1 O32 2.651575 1_555
Na1 O17 2.705263 1_555
Na1 O0 2.824036 1_555
Na1 O10 2.843918 1_555
Na2 O68 2.477471 1_655
Na2 O52 2.494803 1_555
Na2 O51 2.505811 1_555
Na2 O66 2.528780 1_655
Na2 O30 2.651571 1_655
Na2 O15 2.705261 1_555
Na2 O1 2.824036 1_555
Na2 O11 2.843918 1_655
Na3 O71 2.381838 1_555
Na3 O49 2.479149 1_555
Na3 O50 2.518025 1_555
Na3 O69 2.554823 1_555
Na3 O35 2.613612 1_555
Na3 O14 2.688019 1_555
Na3 O6 2.843226 1_555
Na3 O4 2.981227 1_555
Na4 O69 2.381830 1_555
Na4 O50 2.479141 1_455
Na4 O48 2.518018 1_455
Na4 O70 2.554823 1_555
Na4 O33 2.613610 1_555
Na4 O12 2.688015 1_455
Na4 O7 2.843226 1_555
Na4 O5 2.981227 1_455
Na5 O70 2.381831 1_555
Na5 O48 2.479149 1_565
Na5 O49 2.518017 1_565
Na5 O71 2.554815 1_555
Na5 O34 2.613608 1_555
Na5 O13 2.688016 1_565
Na5 O8 2.843226 1_555
Na5 O3 2.981227 1_565
Na6 O43 2.446899 1_555
Na6 O64 2.475495 1_555
Na6 O65 2.506118 1_555
Na6 O42 2.532245 1_455
Na6 O28 2.652389 1_555
Na6 O7 2.712668 1_555
Na7 O44 2.446907 1_455
Na7 O65 2.475481 1_555
Na7 O63 2.506103 1_555
Na7 O43 2.532245 1_565
Na7 O29 2.652382 1_555
Na7 O8 2.712669 1_555
Na8 O42 2.446900 1_565
Na8 O63 2.475497 1_555
Na8 O64 2.506103 1_555
Na8 O44 2.532237 1_555
Na8 O27 2.652386 1_555
Na8 O6 2.712666 1_555
Na9 O62 2.349953 1_555
Na9 O47 2.462837 1_565
Na9 O45 2.502929 1_455
Na9 O61 2.566256 1_555
Na9 O26 2.577808 1_554
Na9 O11 2.658446 1_555
Na10 O60 2.349967 1_555
Na10 O45 2.462829 1_555
Na10 O46 2.502929 1_565
Na10 O62 2.566272 1_555
Na10 O24 2.577816 1_554
Na10 O9 2.658444 1_555
Na11 O61 2.349970 1_555
Na11 O46 2.462831 1_455
Na11 O47 2.502921 1_555
Na11 O60 2.566257 1_555
Na11 O25 2.577812 1_554
Na11 O10 2.658443 1_555
Na12 O55 2.430955 1_555
Na12 O40 2.438251 1_655
Na12 O54 2.503894 1_555
Na12 O41 2.509464 1_555
Na12 O19 2.581084 1_556
Na12 O4 2.587486 1_555
Na12 O33 2.905153 1_655
Na12 O26 2.912382 1_655
Na13 O56 2.430938 1_555
Na13 O41 2.438258 1_545
Na13 O55 2.503893 1_555
Na13 O39 2.509472 1_655
Na13 O20 2.581080 1_556
Na13 O5 2.587490 1_555
Na13 O34 2.905153 1_545
Na13 O24 2.912381 1_545
Na14 O54 2.430952 1_555
Na14 O39 2.438249 1_555
Na14 O56 2.503909 1_555
Na14 O40 2.509471 1_545
Na14 O18 2.581088 1_556
Na14 O3 2.587488 1_555
Na14 O35 2.905153 1_555
Na14 O25 2.912382 1_555
Na15 O38 2.423460 1_655
Na15 O59 2.431090 1_555
Na15 O37 2.521297 1_545
Na15 O57 2.556727 1_555
Na15 O2 2.607579 1_555
Na15 O23 2.646815 1_555
Na16 O36 2.423453 1_545
Na16 O57 2.431107 1_555
Na16 O38 2.521290 1_555
Na16 O58 2.556728 1_555
Na16 O0 2.607576 1_555
Na16 O21 2.646819 1_555
Na17 O37 2.423452 1_555
Na17 O58 2.431104 1_555
Na17 O36 2.521297 1_655
Na17 O59 2.556743 1_555
Na17 O1 2.607578 1_555
Na17 O22 2.646823 1_555
Na18 O44 2.487835 1_445
Na18 O42 2.487835 1_455
Na18 O43 2.487835 1_555
Na18 O38 2.560265 1_555
Na18 O36 2.560265 1_545
Na18 O37 2.560265 1_445
Na19 O39 2.440469 1_555
Na19 O41 2.440469 1_445
Na19 O40 2.440469 1_545
Na19 O45 2.555538 1_446
Na19 O47 2.555538 1_556
Na19 O46 2.555538 1_456
Na20 O56 2.443377 1_555
Na20 O54 2.443377 1_555
Na20 O55 2.443377 1_555
Na20 O50 2.486144 1_555
Na20 O48 2.486144 1_555
Na20 O49 2.486144 1_555
Na21 O51 2.473377 1_555
Na21 O53 2.473377 1_555
Na21 O52 2.473377 1_555
Na21 O57 2.481196 1_555
Na21 O59 2.481196 1_555
Na21 O58 2.481197 1_555
Na22 O68 2.487883 1_555
Na22 O66 2.487883 1_555
Na22 O67 2.487883 1_555
Na22 O62 2.524062 1_555
Na22 O60 2.524062 1_555
Na22 O61 2.524062 1_555
Na23 O63 2.500241 1_555
Na23 O65 2.500241 1_555
Na23 O64 2.500241 1_555
Na23 O69 2.540735 1_555
Na23 O71 2.540735 1_555
Na23 O70 2.540735 1_555
Ge0 O4 1.876391 1_445
Ge0 O3 1.876392 1_555
Ge0 O5 1.876392 1_455
Ge0 O39 2.014354 1_555
Ge0 O41 2.014354 1_445
Ge0 O40 2.014354 1_545
Ge1 O16 1.902326 1_555
Ge1 O15 1.902326 1_555
Ge1 O17 1.902326 1_555
Ge1 O51 1.968242 1_555
Ge1 O53 1.968242 1_555
Ge1 O52 1.968242 1_555
Ge2 O19 1.872491 1_556
Ge2 O20 1.872491 1_556
Ge2 O18 1.872491 1_556
Ge2 O56 2.015238 1_555
Ge2 O54 2.015238 1_555
Ge2 O55 2.015238 1_555
Ge3 O25 1.904555 1_554
Ge3 O26 1.904555 1_554
Ge3 O24 1.904555 1_554
Ge3 O62 2.009053 1_555
Ge3 O60 2.009053 1_555
Ge3 O61 2.009053 1_555
Ge4 O31 1.877180 1_555
Ge4 O32 1.877180 1_555
Ge4 O30 1.877180 1_555
Ge4 O68 1.964050 1_555
Ge4 O66 1.964050 1_555
Ge4 O67 1.964050 1_555
Ge5 O34 1.899689 1_555
Ge5 O33 1.899689 1_555
Ge5 O35 1.899689 1_555
Ge5 O69 1.953673 1_555
Ge5 O71 1.953673 1_555
Ge5 O70 1.953673 1_555
O0 Si0 1.634121 1_555
O0 Zr0 2.065560 1_555
O1 Si1 1.634121 1_555
O1 Zr0 2.065560 1_665
O2 Si2 1.634121 1_555
O2 Zr0 2.065560 1_655
O3 Si3 1.640075 1_555
O4 Si4 1.640075 1_655
O5 Si5 1.640075 1_545
O6 Si5 1.639471 1_555
O6 Zr1 2.054137 1_665
O7 Si3 1.639471 1_555
O7 Zr1 2.054137 1_555
O8 Si4 1.639471 1_555
O8 Zr1 2.054137 1_565
O9 Si1 1.635389 1_555
O9 Zr2 2.063606 1_665
O10 Si2 1.635388 1_455
O10 Zr2 2.063606 1_555
O11 Si0 1.635389 1_565
O11 Zr2 2.063606 1_565
O12 Si6 1.629583 1_555
O12 Zr3 2.035479 1_555
O13 Si7 1.629583 1_555
O13 Zr3 2.035479 1_555
O14 Si8 1.629583 1_555
O14 Zr3 2.035479 1_555
O15 Si9 1.648380 1_555
O16 Si10 1.648381 1_555
O17 Si11 1.648381 1_555
O18 Si11 1.639626 1_555
O19 Si9 1.639626 1_555
O20 Si10 1.639626 1_555
O21 Si7 1.633982 1_555
O21 Zr4 2.044639 1_555
O22 Si8 1.633982 1_555
O22 Zr4 2.044639 1_555
O23 Si6 1.633982 1_555
O23 Zr4 2.044639 1_555
O24 Si12 1.651620 1_555
O25 Si13 1.651620 1_555
O26 Si14 1.651620 1_555
O27 Si15 1.629771 1_555
O27 Zr5 2.034613 1_555
O28 Si16 1.629771 1_555
O28 Zr5 2.034613 1_555
O29 Si17 1.629771 1_555
O29 Zr5 2.034613 1_555
O30 Si17 1.636320 1_555
O31 Si15 1.636320 1_555
O32 Si16 1.636320 1_555
O33 Si13 1.642998 1_555
O34 Si14 1.642998 1_555
O35 Si12 1.642998 1_555
O36 Si17 1.629497 1_555
O36 Zr0 2.114354 1_565
O37 Si15 1.629506 1_555
O37 Zr0 2.114354 1_665
O38 Si16 1.629502 1_555
O38 Zr0 2.114354 1_555
O39 Si13 1.670832 1_555
O40 Si14 1.670824 1_555
O41 Si12 1.670829 1_555
O42 Si6 1.620848 1_555
O42 Zr1 2.128689 1_655
O43 Si7 1.620857 1_555
O43 Zr1 2.128689 1_555
O44 Si8 1.620853 1_555
O44 Zr1 2.128689 1_665
O45 Si9 1.648020 1_555
O45 Zr2 2.147590 1_665
O46 Si10 1.648011 1_555
O46 Zr2 2.147590 1_655
O47 Si11 1.648016 1_555
O47 Zr2 2.147590 1_555
O48 Si5 1.635766 1_545
O48 Zr3 2.152212 1_555
O49 Si3 1.635775 1_555
O49 Zr3 2.152212 1_555
O50 Si4 1.635771 1_655
O50 Zr3 2.152212 1_555
O51 Si1 1.641295 1_555
O52 Si2 1.641286 1_555
O53 Si0 1.641291 1_555
O54 Si12 1.669323 1_555
O55 Si13 1.669305 1_655
O56 Si14 1.669313 1_545
O57 Si15 1.631354 1_545
O57 Zr4 2.142989 1_555
O58 Si16 1.631372 1_555
O58 Zr4 2.142989 1_555
O59 Si17 1.631362 1_655
O59 Zr4 2.142989 1_555
O60 Si11 1.667328 1_555
O61 Si9 1.667310 1_455
O62 Si10 1.667318 1_565
O63 Si7 1.620120 1_565
O63 Zr5 2.123773 1_555
O64 Si8 1.620138 1_555
O64 Zr5 2.123773 1_555
O65 Si6 1.620128 1_455
O65 Zr5 2.123773 1_555
O66 Si0 1.642360 1_565
O67 Si1 1.642369 1_555
O68 Si2 1.642365 1_455
O69 Si3 1.645905 1_555
O70 Si4 1.645896 1_555
O71 Si5 1.645901 1_555
