# generated using pymatgen
data_Na4B2O5
_symmetry_space_group_name_H-M   'P 1'
_cell_length_a   6.61941309
_cell_length_b   6.61941309
_cell_length_c   6.19696838
_cell_angle_alpha   73.76450540
_cell_angle_beta   73.76450540
_cell_angle_gamma   73.76275236
_symmetry_Int_Tables_number   1
_chemical_formula_structural   Na4B2O5
_chemical_formula_sum   'Na8 B4 O10'
_cell_volume   244.25544047
_cell_formula_units_Z   2
loop_
 _symmetry_equiv_pos_site_id
 _symmetry_equiv_pos_as_xyz
  1  'x, y, z'
loop_
 _atom_site_type_symbol
 _atom_site_label
 _atom_site_symmetry_multiplicity
 _atom_site_fract_x
 _atom_site_fract_y
 _atom_site_fract_z
 _atom_site_occupancy
  Na  Na0  1  0.68483822  0.03246103  0.77284607  1
  Na  Na1  1  0.96753897  0.31516178  0.72715393  1
  Na  Na2  1  0.31516178  0.96753897  0.22715393  1
  Na  Na3  1  0.03246103  0.68483822  0.27284607  1
  Na  Na4  1  0.40403443  0.33018209  0.42380163  1
  Na  Na5  1  0.66981791  0.59596557  0.07619837  1
  Na  Na6  1  0.59596557  0.66981791  0.57619837  1
  Na  Na7  1  0.33018209  0.40403443  0.92380163  1
  B  B0  1  0.25324920  0.92966760  0.83359889  1
  B  B1  1  0.07033240  0.74675080  0.66640111  1
  B  B2  1  0.74675080  0.07033240  0.16640111  1
  B  B3  1  0.92966760  0.25324920  0.33359889  1
  O  O0  1  0.92919166  0.07080834  0.25000000  1
  O  O1  1  0.07080834  0.92919166  0.75000000  1
  O  O2  1  0.74183737  0.34780394  0.46093813  1
  O  O3  1  0.65219606  0.25816263  0.03906187  1
  O  O4  1  0.31451177  0.11978501  0.78556259  1
  O  O5  1  0.88021499  0.68548823  0.71443741  1
  O  O6  1  0.68548823  0.88021499  0.21443741  1
  O  O7  1  0.11978501  0.31451177  0.28556259  1
  O  O8  1  0.34780394  0.74183737  0.96093813  1
  O  O9  1  0.25816263  0.65219606  0.53906187  1
loop_
_geom_bond_atom_site_label_1
_geom_bond_atom_site_label_2
_geom_bond_distance
_geom_bond_site_symmetry_2
Na0 O4 2.339757 1_555
Na0 O5 2.370794 1_545
Na0 O1 2.426930 1_645
Na0 O3 2.449229 1_556
Na0 O2 2.451966 1_555
Na0 O6 2.639372 1_546
Na1 O5 2.339757 1_555
Na1 O4 2.370794 1_655
Na1 O1 2.426930 1_645
Na1 O2 2.449229 1_555
Na1 O3 2.451966 1_556
Na1 O7 2.639372 1_655
Na2 O6 2.339757 1_555
Na2 O7 2.370794 1_565
Na2 O0 2.426930 1_465
Na2 O8 2.449229 1_554
Na2 O9 2.451966 1_555
Na2 O4 2.639372 1_564
Na3 O7 2.339757 1_555
Na3 O6 2.370794 1_455
Na3 O0 2.426930 1_465
Na3 O9 2.449229 1_555
Na3 O8 2.451966 1_554
Na3 O5 2.639372 1_455
Na4 O4 2.299868 1_555
Na4 O9 2.302321 1_555
Na4 O7 2.311939 1_555
Na4 O2 2.348433 1_555
Na4 O3 2.572509 1_555
Na5 O5 2.299868 1_554
Na5 O8 2.302321 1_554
Na5 O6 2.311939 1_555
Na5 O3 2.348433 1_555
Na5 O2 2.572509 1_555
Na6 O6 2.299868 1_555
Na6 O2 2.302321 1_555
Na6 O5 2.311939 1_555
Na6 O9 2.348433 1_555
Na6 O8 2.572509 1_555
Na7 O7 2.299868 1_556
Na7 O3 2.302321 1_556
Na7 O4 2.311939 1_555
Na7 O8 2.348433 1_555
Na7 O9 2.572509 1_555
B0 O4 1.358387 1_565
B0 O8 1.361132 1_555
B0 O1 1.442115 1_555
B1 O5 1.358387 1_455
B1 O9 1.361132 1_555
B1 O1 1.442115 1_555
B2 O6 1.358387 1_545
B2 O3 1.361132 1_555
B2 O0 1.442115 1_555
B3 O7 1.358387 1_655
B3 O2 1.361132 1_555
B3 O0 1.442115 1_555
