# generated using pymatgen
data_MgV2Cr4O12
_symmetry_space_group_name_H-M   'P 1'
_cell_length_a   5.26284686
_cell_length_b   5.21445223
_cell_length_c   9.05587042
_cell_angle_alpha   85.21438802
_cell_angle_beta   93.63059099
_cell_angle_gamma   75.03161525
_symmetry_Int_Tables_number   1
_chemical_formula_structural   MgV2Cr4O12
_chemical_formula_sum   'Mg1 V2 Cr4 O12'
_cell_volume   238.31785597
_cell_formula_units_Z   1
loop_
 _symmetry_equiv_pos_site_id
 _symmetry_equiv_pos_as_xyz
  1  'x, y, z'
loop_
 _atom_site_type_symbol
 _atom_site_label
 _atom_site_symmetry_multiplicity
 _atom_site_fract_x
 _atom_site_fract_y
 _atom_site_fract_z
 _atom_site_occupancy
  Mg  Mg0  1  0.84137842  0.71958104  0.18999772  1
  V  V0  1  0.16761199  0.03679404  0.96150001  1
  V  V1  1  0.53073631  0.58032273  0.52677376  1
  Cr  Cr0  1  -0.00999714  0.14091581  0.35915113  1
  Cr  Cr1  1  0.96258456  0.94701921  0.67059115  1
  Cr  Cr2  1  0.43986819  0.44205472  0.16502128  1
  Cr  Cr3  1  0.55053832  0.47874966  0.84362189  1
  O  O0  1  0.16263017  0.81152176  0.11849234  1
  O  O1  1  0.17738546  0.84844005  0.49307945  1
  O  O2  1  0.25980692  0.80781171  0.81696059  1
  O  O3  1  0.34450175  0.29184432  0.97434827  1
  O  O4  1  0.14289509  0.37567409  0.28223070  1
  O  O5  1  0.39176236  0.39201871  0.64600920  1
  O  O6  1  0.67005641  0.57444810  0.03353092  1
  O  O7  1  0.57474736  0.61816809  0.33049013  1
  O  O8  1  0.70990924  0.71885363  0.65787599  1
  O  O9  1  0.72397659  0.10074895  0.23765617  1
  O  O10  1  0.81420916  0.24965281  0.52302808  1
  O  O11  1  0.85095385  0.15704757  0.84106922  1
loop_
_geom_bond_atom_site_label_1
_geom_bond_atom_site_label_2
_geom_bond_distance
_geom_bond_site_symmetry_2
Mg0 O6 1.939851 1_555
Mg0 O0 2.003293 1_655
Mg0 O9 2.015200 1_565
Mg0 O7 2.089159 1_555
Mg0 O4 2.131620 1_655
Cr0 O4 1.751777 1_555
Cr0 O9 1.791480 1_455
Cr0 O10 1.850175 1_455
Cr0 O1 1.879467 1_545
Cr1 O2 1.928996 1_655
Cr1 O10 1.940418 1_565
Cr1 O11 1.998147 1_565
Cr1 O8 2.004465 1_555
Cr1 O1 2.047964 1_655
Cr2 O6 1.959505 1_555
Cr2 O7 2.006055 1_555
Cr2 O4 2.029147 1_555
Cr2 O9 2.035002 1_555
Cr2 O3 2.041058 1_554
Cr2 O0 2.086309 1_555
Cr3 O6 1.941825 1_556
Cr3 O2 1.967620 1_555
Cr3 O11 1.988789 1_555
Cr3 O3 2.010749 1_555
Cr3 O5 2.060623 1_555
Cr3 O8 2.338845 1_555
O0 V0 1.773064 1_564
O1 V1 2.004965 1_555
O2 V0 1.848334 1_565
O3 V0 1.816763 1_555
O5 V1 1.720203 1_555
O7 V1 1.808146 1_555
O8 V1 1.781492 1_555
O10 V1 1.971615 1_555
O11 V0 1.864352 1_655
