# generated using pymatgen
data_Sc3As2
_symmetry_space_group_name_H-M   'P 1'
_cell_length_a   3.83119668
_cell_length_b   10.43635929
_cell_length_c   10.33871181
_cell_angle_alpha   89.99998295
_cell_angle_beta   90.00000000
_cell_angle_gamma   90.00000000
_symmetry_Int_Tables_number   1
_chemical_formula_structural   Sc3As2
_chemical_formula_sum   'Sc12 As8'
_cell_volume   413.38041729
_cell_formula_units_Z   4
loop_
 _symmetry_equiv_pos_site_id
 _symmetry_equiv_pos_as_xyz
  1  'x, y, z'
loop_
 _atom_site_type_symbol
 _atom_site_label
 _atom_site_symmetry_multiplicity
 _atom_site_fract_x
 _atom_site_fract_y
 _atom_site_fract_z
 _atom_site_occupancy
  Sc  Sc0  1  0.75000000  0.95203368  0.86711045  1
  Sc  Sc1  1  0.25000000  0.04796632  0.13288955  1
  Sc  Sc2  1  0.75000000  0.45203080  0.63288481  1
  Sc  Sc3  1  0.25000000  0.54796920  0.36711519  1
  Sc  Sc4  1  0.75000000  0.62821029  0.93646901  1
  Sc  Sc5  1  0.25000000  0.37178971  0.06353099  1
  Sc  Sc6  1  0.75000000  0.12819326  0.56353360  1
  Sc  Sc7  1  0.25000000  0.87180674  0.43646640  1
  Sc  Sc8  1  0.75000000  0.77587595  0.20285710  1
  Sc  Sc9  1  0.25000000  0.22412405  0.79714290  1
  Sc  Sc10  1  0.75000000  0.27585232  0.29715602  1
  Sc  Sc11  1  0.25000000  0.72414768  0.70284398  1
  As  As0  1  0.75000000  0.68681664  0.50472526  1
  As  As1  1  0.25000000  0.31318336  0.49527474  1
  As  As2  1  0.75000000  0.18681352  0.99527209  1
  As  As3  1  0.25000000  0.81318648  0.00472791  1
  As  As4  1  0.75000000  0.51406990  0.17823150  1
  As  As5  1  0.25000000  0.48593010  0.82176850  1
  As  As6  1  0.75000000  0.01408049  0.32178035  1
  As  As7  1  0.25000000  0.98591951  0.67821965  1
loop_
_geom_bond_atom_site_label_1
_geom_bond_atom_site_label_2
_geom_bond_distance
_geom_bond_site_symmetry_2
As0 Sc2 2.785615 1_555
As0 Sc3 2.791667 1_655
As0 Sc3 2.791667 1_555
As0 Sc7 2.809777 1_655
As0 Sc7 2.809777 1_555
As0 Sc11 2.831397 1_555
As0 Sc11 2.831397 1_655
As0 Sc8 3.256390 1_555
As1 Sc3 2.785615 1_555
As1 Sc2 2.791667 1_555
As1 Sc2 2.791667 1_455
As1 Sc6 2.809777 1_455
As1 Sc6 2.809777 1_555
As1 Sc10 2.831397 1_455
As1 Sc10 2.831397 1_555
As1 Sc9 3.256390 1_555
As2 Sc0 2.785571 1_545
As2 Sc1 2.791704 1_556
As2 Sc1 2.791704 1_656
As2 Sc5 2.809678 1_556
As2 Sc5 2.809678 1_656
As2 Sc9 2.831445 1_655
As2 Sc9 2.831445 1_555
As2 Sc10 3.256486 1_556
As3 Sc1 2.785571 1_565
As3 Sc0 2.791704 1_454
As3 Sc0 2.791704 1_554
As3 Sc4 2.809678 1_554
As3 Sc4 2.809678 1_454
As3 Sc8 2.831445 1_455
As3 Sc8 2.831445 1_555
As3 Sc11 3.256486 1_554
As4 Sc5 2.698270 1_555
As4 Sc5 2.698270 1_655
As4 Sc8 2.744138 1_555
As4 Sc3 2.758290 1_655
As4 Sc3 2.758290 1_555
As4 Sc4 2.768852 1_554
As4 Sc10 2.773544 1_555
As5 Sc4 2.698270 1_555
As5 Sc4 2.698270 1_455
As5 Sc9 2.744138 1_555
As5 Sc2 2.758290 1_455
As5 Sc2 2.758290 1_555
As5 Sc5 2.768852 1_556
As5 Sc11 2.773544 1_555
As6 Sc7 2.698167 1_545
As6 Sc7 2.698167 1_645
As6 Sc10 2.743781 1_555
As6 Sc1 2.758324 1_655
As6 Sc1 2.758324 1_555
As6 Sc6 2.768643 1_555
As6 Sc8 2.773417 1_545
As7 Sc6 2.698167 1_565
As7 Sc6 2.698167 1_465
As7 Sc11 2.743781 1_555
As7 Sc0 2.758324 1_455
As7 Sc0 2.758324 1_555
As7 Sc7 2.768643 1_555
As7 Sc9 2.773417 1_565
