# generated using pymatgen
data_Na3CaGe3P5SO24
_symmetry_space_group_name_H-M   'P 1'
_cell_length_a   8.62793468
_cell_length_b   8.57688349
_cell_length_c   22.15527102
_cell_angle_alpha   89.73442154
_cell_angle_beta   90.62035869
_cell_angle_gamma   119.87193942
_symmetry_Int_Tables_number   1
_chemical_formula_structural   Na3CaGe3P5SO24
_chemical_formula_sum   'Na9 Ca3 Ge9 P15 S3 O72'
_cell_volume   1421.59999753
_cell_formula_units_Z   3
loop_
 _symmetry_equiv_pos_site_id
 _symmetry_equiv_pos_as_xyz
  1  'x, y, z'
loop_
 _atom_site_type_symbol
 _atom_site_label
 _atom_site_symmetry_multiplicity
 _atom_site_fract_x
 _atom_site_fract_y
 _atom_site_fract_z
 _atom_site_occupancy
  Na  Na0  1  0.99108855  0.36740838  0.74729636  1
  Na  Na1  1  0.31382002  0.97621716  0.08525647  1
  Na  Na2  1  0.32563688  0.03441874  0.41310204  1
  Na  Na3  1  0.98885717  0.99942270  0.50004300  1
  Na  Na4  1  0.99055568  0.00090791  0.99831165  1
  Na  Na5  1  0.65629439  0.33321303  0.83248129  1
  Na  Na6  1  0.66964575  0.33561023  0.32922598  1
  Na  Na7  1  0.33338563  0.65726242  0.16582537  1
  Na  Na8  1  0.34406407  0.66963166  0.66556826  1
  Ca  Ca0  1  0.99165507  0.99857129  0.35859644  1
  Ca  Ca1  1  0.66165233  0.33674249  0.68621544  1
  Ca  Ca2  1  0.66494786  0.33128718  0.17983812  1
  Ge  Ge0  1  0.00105927  0.99906477  0.85587922  1
  Ge  Ge1  1  0.98508134  0.99583924  0.64991391  1
  Ge  Ge2  1  0.00210523  0.99671342  0.14608577  1
  Ge  Ge3  1  0.66857207  0.33422775  0.98037724  1
  Ge  Ge4  1  0.68437455  0.34877093  0.48121131  1
  Ge  Ge5  1  0.33460471  0.66423320  0.01342460  1
  Ge  Ge6  1  0.33376868  0.65891645  0.51890754  1
  Ge  Ge7  1  0.33104557  0.67258742  0.31679330  1
  Ge  Ge8  1  0.33710434  0.66988499  0.81478539  1
  P  P0  1  0.29084484  0.98971401  0.25279477  1
  P  P1  1  0.27697440  0.28323031  0.75474115  1
  P  P2  1  0.01273373  0.72772232  0.75400691  1
  P  P3  1  0.70898488  0.98482455  0.75474273  1
  P  P4  1  0.96891474  0.33502745  0.58352232  1
  P  P5  1  0.66680400  0.63459620  0.58159589  1
  P  P6  1  0.96637073  0.62739284  0.07973087  1
  P  P7  1  0.66773609  0.03138856  0.07941656  1
  P  P8  1  0.36847151  0.33953827  0.07984286  1
  P  P9  1  0.62166302  0.66487581  0.91606867  1
  P  P10  1  0.04176696  0.37778028  0.91514927  1
  P  P11  1  0.33595578  0.95823547  0.91616726  1
  P  P12  1  0.61156445  0.95610655  0.42226720  1
  P  P13  1  0.34997402  0.39356428  0.41896752  1
  P  P14  1  0.04616519  0.65146706  0.41999099  1
  S  S0  1  0.69753803  0.70994906  0.24967025  1
  S  S1  1  0.01388469  0.30218764  0.24955833  1
  S  S2  1  0.36382204  0.03055924  0.58027500  1
  O  O0  1  0.20935304  0.00956595  0.30948076  1
  O  O1  1  0.79907389  0.78952129  0.30388722  1
  O  O2  1  0.98976794  0.19971221  0.30363548  1
  O  O3  1  0.18709781  0.17137391  0.81155557  1
  O  O4  1  0.98343059  0.81251337  0.81063233  1
  O  O5  1  0.83282075  0.02021759  0.81007284  1
  O  O6  1  0.78656130  0.95346676  0.69491300  1
  O  O7  1  0.15565203  0.20363813  0.69603264  1
  O  O8  1  0.04051048  0.83920479  0.69455515  1
  O  O9  1  0.78145118  0.82342634  0.19300131  1
  O  O10  1  0.03721376  0.21503638  0.19284359  1
  O  O11  1  0.17256900  0.96176990  0.19149668  1
  O  O12  1  0.90777656  0.37386161  0.64187908  1
  O  O13  1  0.47060601  0.09953940  0.63451248  1
  O  O14  1  0.62127557  0.52813052  0.63825202  1
  O  O15  1  0.91120570  0.52713489  0.13750523  1
  O  O16  1  0.61054711  0.08673794  0.13512155  1
  O  O17  1  0.46866789  0.38219845  0.13807419  1
  O  O18  1  0.45538613  0.28878385  0.02618660  1
  O  O19  1  0.83730957  0.54109714  0.02423279  1
  O  O20  1  0.70759907  0.16103599  0.02412388  1
  O  O21  1  0.44665459  0.14599221  0.52518260  1
  O  O22  1  0.70491324  0.54611922  0.52531874  1
  O  O23  1  0.83793267  0.29641341  0.52796698  1
  O  O24  1  0.53885474  0.70249066  0.97142526  1
  O  O25  1  0.16462855  0.46441998  0.97037249  1
  O  O26  1  0.30148397  0.84195206  0.97344404  1
  O  O27  1  0.51585819  0.84060818  0.47678979  1
  O  O28  1  0.31918801  0.47684590  0.47491607  1
  O  O29  1  0.16673636  0.68347096  0.47527403  1
  O  O30  1  0.12526572  0.62060886  0.36080490  1
  O  O31  1  0.49417799  0.87863449  0.36265026  1
  O  O32  1  0.37803204  0.50725623  0.36008504  1
  O  O33  1  0.12231908  0.49384382  0.85722774  1
  O  O34  1  0.37157081  0.87222002  0.86059352  1
  O  O35  1  0.50043569  0.62654749  0.85938792  1
  O  O36  1  0.02752927  0.81689527  0.41955858  1
  O  O37  1  0.79364426  0.97767461  0.42170884  1
  O  O38  1  0.19232676  0.20513386  0.41782736  1
  O  O39  1  0.02204093  0.18737449  0.91014330  1
  O  O40  1  0.16586246  0.97703268  0.91034279  1
  O  O41  1  0.81112155  0.83331531  0.90985755  1
  O  O42  1  0.98490734  0.16003924  0.58880204  1
  O  O43  1  0.18499281  0.01614357  0.58563550  1
  O  O44  1  0.84205566  0.82319918  0.58819013  1
  O  O45  1  0.98779906  0.82240359  0.08610860  1
  O  O46  1  0.83973759  0.01604565  0.08892447  1
  O  O47  1  0.17975364  0.16070379  0.08639917  1
  O  O48  1  0.69372813  0.15243011  0.75135735  1
  O  O49  1  0.45894809  0.30398359  0.75244194  1
  O  O50  1  0.85506892  0.53860795  0.75196128  1
  O  O51  1  0.67427053  0.53142181  0.24459736  1
  O  O52  1  0.86384792  0.33282406  0.24418048  1
  O  O53  1  0.47687119  0.14598441  0.24669341  1
  O  O54  1  0.63845973  0.49318636  0.92458880  1
  O  O55  1  0.85469022  0.36035731  0.92349560  1
  O  O56  1  0.50552449  0.14690755  0.92417887  1
  O  O57  1  0.62125021  0.14472056  0.42713078  1
  O  O58  1  0.52328775  0.37630250  0.42480762  1
  O  O59  1  0.85997654  0.47782050  0.42433718  1
  O  O60  1  0.34172246  0.50127302  0.06670439  1
  O  O61  1  0.15963650  0.66248776  0.06715187  1
  O  O62  1  0.50015756  0.84306028  0.06649805  1
  O  O63  1  0.34041641  0.84651743  0.57281365  1
  O  O64  1  0.50468174  0.66474762  0.57084649  1
  O  O65  1  0.15760750  0.49951400  0.57186011  1
  O  O66  1  0.29591353  0.80628545  0.25560104  1
  O  O67  1  0.51862276  0.70133726  0.25308385  1
  O  O68  1  0.18738866  0.47901287  0.25336965  1
  O  O69  1  0.28640697  0.47261702  0.75909373  1
  O  O70  1  0.18767640  0.71190798  0.75864414  1
  O  O71  1  0.52335919  0.81155022  0.75998298  1
loop_
_geom_bond_atom_site_label_1
_geom_bond_atom_site_label_2
_geom_bond_distance
_geom_bond_site_symmetry_2
Na0 O69 2.252172 1_655
Na0 O50 2.294472 1_555
Na0 O48 2.298129 1_555
Na0 O12 2.444712 1_555
Na0 O70 2.583791 1_655
Na0 O33 2.670505 1_655
Na0 O7 2.704675 1_655
Na0 O5 2.935754 1_555
Na1 O61 2.367240 1_555
Na1 O47 2.380458 1_565
Na1 O62 2.430976 1_555
Na1 O45 2.440801 1_455
Na1 O16 2.490875 1_565
Na1 O11 2.636259 1_555
Na1 O18 2.670555 1_565
Na1 O26 2.715288 1_554
Na2 O57 2.253621 1_555
Na2 O38 2.271434 1_555
Na2 O36 2.311304 1_545
Na2 O0 2.462551 1_555
Na2 O58 2.567115 1_555
Na2 O31 2.670911 1_545
Na2 O21 2.672583 1_555
Na3 O37 2.347417 1_555
Na3 O44 2.412855 1_555
Na3 O42 2.416462 1_565
Na3 O43 2.484269 1_665
Na3 O36 2.510159 1_655
Na3 O38 2.542990 1_665
Na4 O46 2.442876 1_556
Na4 O39 2.448891 1_655
Na4 O41 2.459097 1_545
Na4 O45 2.462793 1_546
Na4 O47 2.465575 1_656
Na4 O40 2.550345 1_645
Na5 O49 2.370677 1_555
Na5 O50 2.500939 1_555
Na5 O48 2.505226 1_555
Na5 O54 2.512698 1_555
Na5 O56 2.515832 1_555
Na5 O55 2.565730 1_555
Na6 O53 2.454013 1_555
Na6 O51 2.498668 1_555
Na6 O52 2.543027 1_555
Na6 O59 2.564847 1_555
Na6 O58 2.589315 1_555
Na6 O57 2.620235 1_555
Na7 O67 2.402631 1_555
Na7 O68 2.406874 1_555
Na7 O66 2.478602 1_555
Na7 O60 2.596983 1_555
Na7 O61 2.650198 1_555
Na7 O62 2.684136 1_555
Na8 O71 2.515568 1_555
Na8 O64 2.539266 1_555
Na8 O63 2.557923 1_555
Na8 O69 2.559071 1_555
Na8 O65 2.577758 1_555
Na8 O70 2.599805 1_555
Ca0 O1 2.110387 1_555
Ca0 O2 2.113589 1_565
Ca0 O0 2.141922 1_665
Ca0 O37 2.156477 1_555
Ca0 O38 2.185259 1_665
Ca0 O36 2.190870 1_655
Ca1 O14 2.119099 1_555
Ca1 O13 2.192814 1_555
Ca1 O49 2.202904 1_555
Ca1 O12 2.223623 1_555
Ca1 O50 2.235371 1_555
Ca1 O48 2.250451 1_555
Ca2 O17 2.147949 1_555
Ca2 O16 2.151677 1_555
Ca2 O15 2.165404 1_555
Ca2 O53 2.194148 1_555
Ca2 O51 2.212302 1_555
Ca2 O52 2.214033 1_555
Ge0 O4 1.832293 1_455
Ge0 O3 1.839176 1_565
Ge0 O5 1.843519 1_465
Ge0 O40 1.934410 1_555
Ge0 O39 1.951605 1_565
Ge0 O41 1.960292 1_455
Ge1 O6 1.863684 1_555
Ge1 O8 1.905036 1_655
Ge1 O44 1.935838 1_555
Ge1 O7 1.938526 1_665
Ge1 O42 1.949601 1_565
Ge1 O43 2.187487 1_665
Ge2 O11 1.915567 1_555
Ge2 O46 1.945471 1_465
Ge2 O45 1.961414 1_455
Ge2 O47 1.988828 1_565
Ge2 O10 2.029151 1_565
Ge2 O9 2.030703 1_455
Ge3 O19 1.903666 1_556
Ge3 O20 1.933170 1_556
Ge3 O54 1.945317 1_555
Ge3 O56 1.959516 1_555
Ge3 O18 1.971755 1_556
Ge3 O55 1.974781 1_555
Ge4 O59 1.861795 1_555
Ge4 O22 1.887897 1_555
Ge4 O23 1.894379 1_555
Ge4 O58 1.958470 1_555
Ge4 O57 1.962389 1_555
Ge4 O21 2.157509 1_555
Ge5 O60 1.849151 1_555
Ge5 O25 1.865165 1_554
Ge5 O24 1.880353 1_554
Ge5 O62 1.890344 1_555
Ge5 O26 1.898835 1_554
Ge5 O61 1.926735 1_555
Ge6 O28 1.794466 1_555
Ge6 O29 1.823748 1_555
Ge6 O27 1.829452 1_555
Ge6 O64 1.841605 1_555
Ge6 O65 1.873352 1_555
Ge6 O63 1.985708 1_555
Ge7 O30 1.883293 1_555
Ge7 O66 1.888853 1_555
Ge7 O31 1.909010 1_555
Ge7 O32 1.909634 1_555
Ge7 O68 2.049706 1_555
Ge7 O67 2.078721 1_555
Ge8 O35 1.894402 1_555
Ge8 O71 1.901716 1_555
Ge8 O34 1.904151 1_555
Ge8 O70 1.939893 1_555
Ge8 O33 1.958442 1_555
Ge8 O69 1.961346 1_555
O0 P0 1.496988 1_545
O1 S0 1.437130 1_555
O2 S1 1.436902 1_655
O3 P1 1.541112 1_555
O4 P2 1.537915 1_655
O5 P3 1.545462 1_545
O6 P3 1.574558 1_555
O7 P1 1.587607 1_555
O8 P2 1.572747 1_555
O9 S0 1.534340 1_555
O10 S1 1.530417 1_555
O11 P0 1.634796 1_555
O12 P4 1.501527 1_555
O13 S2 1.443075 1_555
O14 P5 1.485425 1_555
O15 P6 1.483132 1_555
O16 P7 1.497975 1_555
O17 P8 1.486874 1_555
O18 P8 1.585650 1_555
O19 P6 1.567619 1_555
O20 P7 1.571937 1_555
O21 S2 1.511179 1_555
O22 P5 1.582647 1_555
O23 P4 1.581970 1_555
O24 P9 1.539788 1_555
O25 P10 1.538987 1_555
O26 P11 1.547397 1_555
O27 P12 1.522508 1_555
O28 P13 1.523681 1_555
O29 P14 1.532571 1_555
O30 P14 1.567740 1_555
O31 P12 1.587664 1_555
O32 P13 1.572017 1_555
O33 P10 1.561746 1_555
O34 P11 1.548258 1_555
O35 P9 1.553034 1_555
O36 P14 1.505390 1_555
O37 P12 1.487698 1_555
O38 P13 1.507496 1_555
O39 P10 1.559695 1_555
O40 P11 1.558124 1_555
O41 P9 1.558438 1_555
O42 P4 1.577846 1_555
O43 S2 1.491247 1_555
O44 P5 1.576489 1_555
O45 P6 1.595393 1_555
O46 P7 1.565728 1_555
O47 P8 1.593805 1_555
O48 P3 1.508886 1_545
O49 P1 1.490845 1_555
O50 P2 1.511584 1_655
O51 S0 1.446525 1_555
O52 S1 1.447133 1_655
O53 P0 1.500310 1_545
O54 P9 1.560281 1_555
O55 P10 1.558120 1_655
O56 P11 1.558621 1_545
O57 P12 1.581888 1_545
O58 P13 1.578247 1_555
O59 P14 1.557815 1_655
O60 P8 1.541419 1_555
O61 P6 1.567828 1_455
O62 P7 1.565388 1_565
O63 S2 1.497982 1_565
O64 P5 1.559720 1_555
O65 P4 1.557362 1_455
O66 P0 1.596386 1_555
O67 S0 1.510956 1_555
O68 S1 1.511653 1_555
O69 P1 1.588719 1_555
O70 P2 1.583564 1_555
O71 P3 1.555191 1_555
