# generated using pymatgen
data_YMgMo(WO4)2
_symmetry_space_group_name_H-M   'P 1'
_cell_length_a   5.29412219
_cell_length_b   6.79210859
_cell_length_c   6.92523140
_cell_angle_alpha   120.97217665
_cell_angle_beta   113.45588703
_cell_angle_gamma   93.80407456
_symmetry_Int_Tables_number   1
_chemical_formula_structural   YMgMo(WO4)2
_chemical_formula_sum   'Y1 Mg1 Mo1 W2 O8'
_cell_volume   183.86057097
_cell_formula_units_Z   1
loop_
 _symmetry_equiv_pos_site_id
 _symmetry_equiv_pos_as_xyz
  1  'x, y, z'
loop_
 _atom_site_type_symbol
 _atom_site_label
 _atom_site_symmetry_multiplicity
 _atom_site_fract_x
 _atom_site_fract_y
 _atom_site_fract_z
 _atom_site_occupancy
  Y  Y0  1  0.60684500  0.62442600  0.16263900  1
  Mg  Mg0  1  0.53854900  0.02222400  0.06702600  1
  Mo  Mo0  1  0.10609400  0.24599600  0.10227300  1
  W  W0  1  0.91029900  0.39406500  0.62930000  1
  W  W1  1  0.35652700  0.08449000  0.57646600  1
  O  O0  1  0.24826500  0.69796100  0.87664300  1
  O  O1  1  0.59220400  0.40262600  0.31877700  1
  O  O2  1  0.19866600  0.26621800  0.82790700  1
  O  O3  1  0.59355100  0.01871100  0.38800400  1
  O  O4  1  0.64184300  0.04928800  0.83894600  1
  O  O5  1  0.09557900  0.76429700  0.35086100  1
  O  O6  1  0.04354800  0.18750500  0.36430400  1
  O  O7  1  0.65152900  0.43110500  0.79479800  1
loop_
_geom_bond_atom_site_label_1
_geom_bond_atom_site_label_2
_geom_bond_distance
_geom_bond_site_symmetry_2
Mg0 O4 1.949564 1_554
Mg0 O0 1.974820 1_544
Mg0 O3 2.136970 1_555
Mg0 O1 2.160554 1_555
Mg0 O6 2.342576 1_655
Mo0 O4 2.154033 1_454
Mo0 O6 2.182480 1_555
Mo0 O2 2.206856 1_554
Mo0 O1 2.219473 1_555
O0 W0 1.956277 1_455
O0 Y0 2.434492 1_556
O1 W0 2.173129 1_555
O1 Y0 2.274320 1_555
O2 W1 2.082620 1_555
O2 W0 2.170251 1_455
O2 Y0 2.339321 1_556
O3 W1 2.062917 1_555
O3 W0 2.218379 1_555
O3 Y0 2.328776 1_545
O4 W1 1.988058 1_555
O5 W1 1.861477 1_565
O5 Y0 2.238460 1_455
O6 W0 2.084644 1_455
O6 W1 2.160476 1_555
O7 W1 2.058226 1_555
O7 W0 2.062177 1_555
O7 Y0 2.312471 1_556
