# generated using pymatgen
data_Sr2GeN2
_symmetry_space_group_name_H-M   'P 1'
_cell_length_a   11.78691578
_cell_length_b   11.78691578
_cell_length_c   5.39456733
_cell_angle_alpha   90.00000000
_cell_angle_beta   90.00000000
_cell_angle_gamma   90.00000000
_symmetry_Int_Tables_number   1
_chemical_formula_structural   Sr2GeN2
_chemical_formula_sum   'Sr16 Ge8 N16'
_cell_volume   749.47470311
_cell_formula_units_Z   8
loop_
 _symmetry_equiv_pos_site_id
 _symmetry_equiv_pos_as_xyz
  1  'x, y, z'
loop_
 _atom_site_type_symbol
 _atom_site_label
 _atom_site_symmetry_multiplicity
 _atom_site_fract_x
 _atom_site_fract_y
 _atom_site_fract_z
 _atom_site_occupancy
  Sr  Sr0  1  0.47800506  0.15160849  0.50000000  1
  Sr  Sr1  1  0.52199494  0.84839151  0.50000000  1
  Sr  Sr2  1  0.84839151  0.47800506  0.00000000  1
  Sr  Sr3  1  0.15160849  0.52199494  -0.00000000  1
  Sr  Sr4  1  0.65160849  0.97800506  -0.00000000  1
  Sr  Sr5  1  0.97800506  0.34839151  0.50000000  1
  Sr  Sr6  1  0.02199494  0.65160849  0.50000000  1
  Sr  Sr7  1  0.34839151  0.02199494  -0.00000000  1
  Sr  Sr8  1  0.13322469  0.08083254  0.50000000  1
  Sr  Sr9  1  0.86677531  0.91916746  0.50000000  1
  Sr  Sr10  1  0.91916746  0.13322469  0.00000000  1
  Sr  Sr11  1  0.08083254  0.86677531  -0.00000000  1
  Sr  Sr12  1  0.58083254  0.63322469  -0.00000000  1
  Sr  Sr13  1  0.63322469  0.41916746  0.50000000  1
  Sr  Sr14  1  0.36677531  0.58083254  0.50000000  1
  Sr  Sr15  1  0.41916746  0.36677531  0.00000000  1
  Ge  Ge0  1  0.15108886  0.25592929  -0.00000000  1
  Ge  Ge1  1  0.25592929  0.84891114  0.50000000  1
  Ge  Ge2  1  0.74407071  0.15108886  0.50000000  1
  Ge  Ge3  1  0.84891114  0.74407071  0.00000000  1
  Ge  Ge4  1  0.34891114  0.75592929  0.00000000  1
  Ge  Ge5  1  0.65108886  0.24407071  0.00000000  1
  Ge  Ge6  1  0.75592929  0.65108886  0.50000000  1
  Ge  Ge7  1  0.24407071  0.34891114  0.50000000  1
  N  N0  1  0.16546825  0.48787908  0.50000000  1
  N  N1  1  0.83453175  0.51212092  0.50000000  1
  N  N2  1  0.51212092  0.16546825  -0.00000000  1
  N  N3  1  0.48787908  0.83453175  0.00000000  1
  N  N4  1  0.98787908  0.66546825  0.00000000  1
  N  N5  1  0.66546825  0.01212092  0.50000000  1
  N  N6  1  0.33453175  0.98787908  0.50000000  1
  N  N7  1  0.01212092  0.33453175  -0.00000000  1
  N  N8  1  0.40107930  0.36606601  0.50000000  1
  N  N9  1  0.59892070  0.63393399  0.50000000  1
  N  N10  1  0.63393399  0.40107930  -0.00000000  1
  N  N11  1  0.36606601  0.59892070  0.00000000  1
  N  N12  1  0.86606601  0.90107930  -0.00000000  1
  N  N13  1  0.90107930  0.13393399  0.50000000  1
  N  N14  1  0.09892070  0.86606601  0.50000000  1
  N  N15  1  0.13393399  0.09892070  0.00000000  1
loop_
_geom_bond_atom_site_label_1
_geom_bond_atom_site_label_2
_geom_bond_distance
_geom_bond_site_symmetry_2
Ge0 N15 1.861661 1_555
Ge0 N7 1.881866 1_555
Ge1 N14 1.861661 1_555
Ge1 N6 1.881866 1_555
Ge2 N13 1.861661 1_555
Ge2 N5 1.881866 1_555
Ge3 N12 1.861661 1_555
Ge3 N4 1.881866 1_555
Ge4 N11 1.861661 1_555
Ge4 N3 1.881866 1_555
Ge5 N10 1.861661 1_555
Ge5 N2 1.881866 1_555
Ge6 N9 1.861661 1_555
Ge6 N1 1.881866 1_555
Ge7 N8 1.861661 1_555
Ge7 N0 1.881866 1_555
N0 Sr6 2.565974 1_555
N0 Sr14 2.613531 1_555
N0 Sr3 2.731982 1_555
N0 Sr3 2.731982 1_556
N0 Sr5 2.754187 1_455
N1 Sr5 2.565974 1_555
N1 Sr13 2.613531 1_555
N1 Sr2 2.731982 1_556
N1 Sr2 2.731982 1_555
N1 Sr6 2.754187 1_655
N2 Sr7 2.565974 1_555
N2 Sr15 2.613531 1_555
N2 Sr0 2.731982 1_555
N2 Sr0 2.731982 1_554
N2 Sr4 2.754187 1_545
N3 Sr4 2.565974 1_555
N3 Sr12 2.613531 1_555
N3 Sr1 2.731982 1_554
N3 Sr1 2.731982 1_555
N3 Sr7 2.754187 1_565
N4 Sr3 2.565974 1_655
N4 Sr11 2.613531 1_655
N4 Sr6 2.731982 1_655
N4 Sr6 2.731982 1_654
N4 Sr2 2.754187 1_555
N5 Sr1 2.565974 1_545
N5 Sr9 2.613531 1_545
N5 Sr4 2.731982 1_545
N5 Sr4 2.731982 1_546
N5 Sr0 2.754187 1_555
N6 Sr0 2.565974 1_565
N6 Sr8 2.613531 1_565
N6 Sr7 2.731982 1_566
N6 Sr7 2.731982 1_565
N6 Sr1 2.754187 1_555
N7 Sr2 2.565974 1_455
N7 Sr10 2.613531 1_455
N7 Sr5 2.731982 1_455
N7 Sr5 2.731982 1_454
N7 Sr3 2.754187 1_555
N8 Sr14 2.563523 1_555
N8 Sr0 2.685493 1_555
N8 Sr15 2.705710 1_556
N8 Sr15 2.705710 1_555
N8 Sr13 2.806951 1_555
N9 Sr13 2.563523 1_555
N9 Sr1 2.685493 1_555
N9 Sr12 2.705710 1_555
N9 Sr12 2.705710 1_556
N9 Sr14 2.806951 1_555
N10 Sr15 2.563523 1_555
N10 Sr2 2.685493 1_555
N10 Sr13 2.705710 1_554
N10 Sr13 2.705710 1_555
N10 Sr12 2.806951 1_555
N11 Sr12 2.563523 1_555
N11 Sr3 2.685493 1_555
N11 Sr14 2.705710 1_554
N11 Sr14 2.705710 1_555
N11 Sr15 2.806951 1_555
N12 Sr11 2.563523 1_655
N12 Sr4 2.685493 1_555
N12 Sr9 2.705710 1_555
N12 Sr9 2.705710 1_554
N12 Sr10 2.806951 1_565
N13 Sr9 2.563523 1_545
N13 Sr5 2.685493 1_555
N13 Sr10 2.705710 1_556
N13 Sr10 2.705710 1_555
N13 Sr8 2.806951 1_655
N14 Sr8 2.563523 1_565
N14 Sr6 2.685493 1_555
N14 Sr11 2.705710 1_556
N14 Sr11 2.705710 1_555
N14 Sr9 2.806951 1_455
N15 Sr10 2.563523 1_455
N15 Sr7 2.685493 1_555
N15 Sr8 2.705710 1_554
N15 Sr8 2.705710 1_555
N15 Sr11 2.806951 1_545
