# generated using pymatgen
data_Cu9(PO4)8
_symmetry_space_group_name_H-M   'P 1'
_cell_length_a   8.79099200
_cell_length_b   8.96234479
_cell_length_c   9.16673168
_cell_angle_alpha   111.43969221
_cell_angle_beta   99.46772482
_cell_angle_gamma   106.54172686
_symmetry_Int_Tables_number   1
_chemical_formula_structural   Cu9(PO4)8
_chemical_formula_sum   'Cu9 P8 O32'
_cell_volume   614.54623682
_cell_formula_units_Z   1
loop_
 _symmetry_equiv_pos_site_id
 _symmetry_equiv_pos_as_xyz
  1  'x, y, z'
loop_
 _atom_site_type_symbol
 _atom_site_label
 _atom_site_symmetry_multiplicity
 _atom_site_fract_x
 _atom_site_fract_y
 _atom_site_fract_z
 _atom_site_occupancy
  Cu  Cu0  1  0.79109300  0.27512900  0.06867700  1
  Cu  Cu1  1  0.71609400  0.88945300  0.44080400  1
  Cu  Cu2  1  0.35101600  0.68611000  0.44485900  1
  Cu  Cu3  1  0.00000000  0.50000000  0.50000000  1
  Cu  Cu4  1  0.64898400  0.31389000  0.55514100  1
  Cu  Cu5  1  0.00000000  0.00000000  0.00000000  1
  Cu  Cu6  1  0.28390600  0.11054700  0.55919600  1
  Cu  Cu7  1  0.20890700  0.72487100  0.93132300  1
  Cu  Cu8  1  0.50000000  0.50000000  0.00000000  1
  P  P0  1  0.59655200  0.06830200  0.71286100  1
  P  P1  1  0.83604000  0.62353500  0.89854800  1
  P  P2  1  0.35036300  0.57894500  0.73360300  1
  P  P3  1  0.03013200  0.88118100  0.64930100  1
  P  P4  1  0.96986800  0.11881900  0.35069900  1
  P  P5  1  0.64963700  0.42105500  0.26639700  1
  P  P6  1  0.16396000  0.37646500  0.10145200  1
  P  P7  1  0.40344800  0.93169800  0.28713900  1
  O  O0  1  0.09038500  0.74151100  0.54861200  1
  O  O1  1  0.28569300  0.48320800  0.03969600  1
  O  O2  1  0.57021800  0.91122100  0.27905000  1
  O  O3  1  0.88060400  0.93930500  0.34356700  1
  O  O4  1  0.58462600  0.24410200  0.11023300  1
  O  O5  1  0.59431200  0.55517800  0.22786500  1
  O  O6  1  0.18542000  0.19973400  0.06082400  1
  O  O7  1  0.84487000  0.46076000  0.28787700  1
  O  O8  1  0.30936900  0.93006500  0.12956900  1
  O  O9  1  0.69063100  0.06993500  0.87043100  1
  O  O10  1  0.98406500  0.34299000  0.00987400  1
  O  O11  1  0.71430700  0.51679200  0.96030400  1
  O  O12  1  0.42978200  0.08877900  0.72095000  1
  O  O13  1  0.11939600  0.06069500  0.65643300  1
  O  O14  1  0.41537400  0.75589800  0.88976700  1
  O  O15  1  0.40568800  0.44482200  0.77213500  1
  O  O16  1  0.81458000  0.80026600  0.93917600  1
  O  O17  1  0.15513000  0.53924000  0.71212300  1
  O  O18  1  0.71645100  0.20264400  0.67460300  1
  O  O19  1  0.28354900  0.79735600  0.32539700  1
  O  O20  1  0.80510500  0.53204900  0.70870900  1
  O  O21  1  0.15999500  0.16421200  0.41279300  1
  O  O22  1  0.44245500  0.11772200  0.43310300  1
  O  O23  1  0.39876500  0.58213200  0.58313900  1
  O  O24  1  0.06782200  0.88511800  0.82414500  1
  O  O25  1  0.90961500  0.25848900  0.45138800  1
  O  O26  1  0.60123500  0.41786800  0.41686100  1
  O  O27  1  0.55754500  0.88227800  0.56689700  1
  O  O28  1  0.84000500  0.83578800  0.58720700  1
  O  O29  1  0.19489500  0.46795100  0.29129100  1
  O  O30  1  0.93217800  0.11488200  0.17585500  1
  O  O31  1  0.01593500  0.65701000  0.99012600  1
loop_
_geom_bond_atom_site_label_1
_geom_bond_atom_site_label_2
_geom_bond_distance
_geom_bond_site_symmetry_2
Cu0 O10 1.868493 1_555
Cu0 O4 1.879984 1_555
Cu0 O9 1.889035 1_554
Cu0 O7 1.955667 1_555
Cu0 O30 2.492211 1_555
Cu1 O3 1.852812 1_555
Cu1 O28 1.873027 1_555
Cu1 O2 1.899879 1_555
Cu1 O27 1.953495 1_555
Cu2 O19 1.861784 1_555
Cu2 O29 1.874146 1_555
Cu2 O23 1.887483 1_555
Cu2 O27 1.927488 1_555
Cu3 O0 1.927191 1_555
Cu3 O25 1.927191 1_455
Cu3 O7 2.029547 1_455
Cu3 O17 2.029547 1_555
Cu4 O18 1.861784 1_555
Cu4 O20 1.874146 1_555
Cu4 O26 1.887483 1_555
Cu4 O22 1.927488 1_555
Cu5 O30 1.861875 1_455
Cu5 O24 1.861875 1_544
Cu5 O6 1.866041 1_555
Cu5 O16 1.866041 1_444
Cu6 O13 1.852812 1_555
Cu6 O21 1.873027 1_555
Cu6 O12 1.899879 1_555
Cu6 O22 1.953495 1_555
Cu7 O31 1.868493 1_555
Cu7 O14 1.879984 1_555
Cu7 O8 1.889035 1_556
Cu7 O17 1.955667 1_555
Cu7 O24 2.492211 1_555
Cu8 O5 1.933031 1_555
Cu8 O15 1.933031 1_554
Cu8 O11 1.951544 1_554
Cu8 O1 1.951544 1_555
O0 P3 1.546987 1_555
O1 P6 1.546983 1_555
O2 P7 1.538692 1_555
O3 P4 1.547847 1_565
O4 P5 1.563989 1_555
O5 P5 1.546940 1_555
O6 P6 1.563693 1_555
O7 P5 1.612726 1_555
O8 P7 1.534657 1_555
O9 P0 1.534657 1_555
O10 P6 1.550703 1_655
O11 P1 1.546983 1_555
O12 P0 1.538692 1_555
O13 P3 1.547847 1_545
O14 P2 1.563989 1_555
O15 P2 1.546940 1_555
O16 P1 1.563693 1_555
O17 P2 1.612726 1_555
O18 P0 1.546377 1_555
O19 P7 1.546377 1_555
O20 P1 1.564865 1_555
O21 P4 1.553585 1_455
O22 P7 1.606299 1_545
O23 P2 1.516307 1_555
O24 P3 1.567521 1_555
O25 P4 1.546987 1_555
O26 P5 1.516307 1_555
O27 P0 1.606299 1_565
O28 P3 1.553585 1_655
O29 P6 1.564865 1_555
O30 P4 1.567521 1_555
O31 P1 1.550703 1_455
