# generated using pymatgen
data_Na10Hf4Ti4Si9(SO16)3
_symmetry_space_group_name_H-M   'P 1'
_cell_length_a   17.97303149
_cell_length_b   9.00722125
_cell_length_c   22.60403010
_cell_angle_alpha   90.08823638
_cell_angle_beta   89.72841460
_cell_angle_gamma   120.03862704
_symmetry_Int_Tables_number   1
_chemical_formula_structural   Na10Hf4Ti4Si9(SO16)3
_chemical_formula_sum   'Na30 Hf12 Ti12 Si27 S9 O144'
_cell_volume   3167.77569137
_cell_formula_units_Z   3
loop_
 _symmetry_equiv_pos_site_id
 _symmetry_equiv_pos_as_xyz
  1  'x, y, z'
loop_
 _atom_site_type_symbol
 _atom_site_label
 _atom_site_symmetry_multiplicity
 _atom_site_fract_x
 _atom_site_fract_y
 _atom_site_fract_z
 _atom_site_occupancy
  Na  Na0  1  0.31942331  0.99886157  0.24996607  1
  Na  Na1  1  0.81826452  0.99684820  0.25079970  1
  Na  Na2  1  0.18441098  0.99290041  0.74616197  1
  Na  Na3  1  0.68411649  0.99932673  0.74609915  1
  Na  Na4  1  0.01781152  0.70359694  0.58101793  1
  Na  Na5  1  0.52065671  0.70413391  0.57990236  1
  Na  Na6  1  0.01879528  0.33021098  0.08026166  1
  Na  Na7  1  0.51506526  0.32804340  0.08161395  1
  Na  Na8  1  0.48317262  0.66195685  0.91633134  1
  Na  Na9  1  0.34853188  0.03114644  0.91686366  1
  Na  Na10  1  0.85098720  0.04238684  0.91365150  1
  Na  Na11  1  0.16657532  0.30802098  0.92047083  1
  Na  Na12  1  0.48360398  0.30357161  0.41630478  1
  Na  Na13  1  0.98213474  0.30279800  0.41647515  1
  Na  Na14  1  0.16722353  0.02825626  0.41909492  1
  Na  Na15  1  0.66410555  0.02966277  0.41633330  1
  Na  Na16  1  0.35266674  0.66987487  0.41645203  1
  Na  Na17  1  0.84916171  0.66423968  0.41658939  1
  Na  Na18  1  0.00146749  0.00348497  0.50091611  1
  Na  Na19  1  0.50261525  0.00739678  0.50182481  1
  Na  Na20  1  0.00622503  0.00054997  0.00158870  1
  Na  Na21  1  0.50666615  0.00676136  0.00088273  1
  Na  Na22  1  0.34300273  0.34428140  0.83138432  1
  Na  Na23  1  0.84435956  0.34563564  0.83030848  1
  Na  Na24  1  0.34003475  0.34912227  0.33062073  1
  Na  Na25  1  0.83882642  0.34889410  0.33231505  1
  Na  Na26  1  0.17290060  0.66163455  0.16878503  1
  Na  Na27  1  0.67156113  0.66218264  0.17014876  1
  Na  Na28  1  0.17527491  0.67366182  0.66713691  1
  Na  Na29  1  0.67525477  0.67009817  0.66239418  1
  Hf  Hf0  1  0.99459825  0.99460249  0.35254676  1
  Hf  Hf1  1  0.99672905  0.99432155  0.85010448  1
  Hf  Hf2  1  0.49621242  0.99833925  0.85300624  1
  Hf  Hf3  1  0.99384292  0.98397251  0.64486523  1
  Hf  Hf4  1  0.99738701  0.00863812  0.14818587  1
  Hf  Hf5  1  0.82801242  0.33371017  0.18821088  1
  Hf  Hf6  1  0.82777578  0.32017210  0.98134187  1
  Hf  Hf7  1  0.17404752  0.67301657  0.02029192  1
  Hf  Hf8  1  0.66498117  0.66660239  0.02249906  1
  Hf  Hf9  1  0.17511834  0.67801703  0.52043928  1
  Hf  Hf10  1  0.16794075  0.67135019  0.81489713  1
  Hf  Hf11  1  0.66031073  0.66967707  0.81040061  1
  Ti  Ti0  1  0.49170627  0.99327944  0.35198985  1
  Ti  Ti1  1  0.49243276  0.97391618  0.64522125  1
  Ti  Ti2  1  0.49297141  0.01596372  0.14740941  1
  Ti  Ti3  1  0.33630376  0.33226654  0.68443342  1
  Ti  Ti4  1  0.83167940  0.33418252  0.68544530  1
  Ti  Ti5  1  0.33216604  0.34061788  0.18606002  1
  Ti  Ti6  1  0.32616070  0.31403479  0.97842234  1
  Ti  Ti7  1  0.32855789  0.33803468  0.47896364  1
  Ti  Ti8  1  0.82372829  0.33214241  0.47876945  1
  Ti  Ti9  1  0.67461036  0.67963593  0.51769973  1
  Ti  Ti10  1  0.16613699  0.64883018  0.31632587  1
  Ti  Ti11  1  0.66392737  0.64664801  0.31594896  1
  Si  Si0  1  0.35563727  0.70862151  0.24906708  1
  Si  Si1  1  0.84884825  0.70164068  0.25153141  1
  Si  Si2  1  0.00301468  0.30498368  0.25127610  1
  Si  Si3  1  0.50012262  0.29544405  0.25127592  1
  Si  Si4  1  0.99701483  0.69637777  0.74789725  1
  Si  Si5  1  0.49394007  0.70058849  0.74821248  1
  Si  Si6  1  0.35572326  0.00411752  0.74692163  1
  Si  Si7  1  0.85250917  0.00524734  0.74943892  1
  Si  Si8  1  0.19004869  0.05042489  0.58391370  1
  Si  Si9  1  0.68776914  0.04457666  0.58450043  1
  Si  Si10  1  0.33041442  0.61356072  0.58478924  1
  Si  Si11  1  0.82677269  0.61236332  0.58184538  1
  Si  Si12  1  0.32974137  0.04651521  0.08603424  1
  Si  Si13  1  0.83173081  0.03697565  0.08511630  1
  Si  Si14  1  0.19022887  0.33154538  0.08365377  1
  Si  Si15  1  0.68230497  0.32600990  0.08491919  1
  Si  Si16  1  0.31343182  0.66010061  0.91617604  1
  Si  Si17  1  0.01967252  0.37707747  0.91784535  1
  Si  Si18  1  0.51953999  0.37284953  0.91912405  1
  Si  Si19  1  0.16284909  0.95454874  0.91787625  1
  Si  Si20  1  0.66611960  0.96019633  0.91598872  1
  Si  Si21  1  0.31176457  0.96081696  0.41281978  1
  Si  Si22  1  0.80859705  0.95714717  0.41486785  1
  Si  Si23  1  0.16635408  0.37597407  0.41831854  1
  Si  Si24  1  0.66328179  0.37676048  0.41843806  1
  Si  Si25  1  0.02227522  0.66219704  0.41786231  1
  Si  Si26  1  0.52444393  0.66758876  0.41775920  1
  S  S0  1  0.14714253  0.00016560  0.24952309  1
  S  S1  1  0.64048571  0.99510702  0.24999806  1
  S  S2  1  0.14629035  0.29260284  0.74814382  1
  S  S3  1  0.64502045  0.28975327  0.74735811  1
  S  S4  1  0.47743442  0.32973210  0.58255169  1
  S  S5  1  0.97566157  0.33157970  0.58277837  1
  S  S6  1  0.47513890  0.62465005  0.08376332  1
  S  S7  1  0.97820450  0.62511509  0.08363960  1
  S  S8  1  0.81071504  0.66452493  0.91577892  1
  O  O0  1  0.10745380  0.02428555  0.30423539  1
  O  O1  1  0.60334481  0.02199235  0.30541079  1
  O  O2  1  0.41471298  0.80133874  0.30936210  1
  O  O3  1  0.90716412  0.78883557  0.31090666  1
  O  O4  1  0.48541991  0.16421083  0.30760461  1
  O  O5  1  0.98669299  0.17977164  0.30877509  1
  O  O6  1  0.10619211  0.18630666  0.80304387  1
  O  O7  1  0.60631371  0.18242932  0.80159517  1
  O  O8  1  0.48519227  0.79174624  0.80776242  1
  O  O9  1  0.98443680  0.79474584  0.80512657  1
  O  O10  1  0.41086215  0.03600367  0.80759047  1
  O  O11  1  0.90823622  0.03268676  0.81012736  1
  O  O12  1  0.41164915  0.98491690  0.69196209  1
  O  O13  1  0.90370108  0.98339950  0.69372472  1
  O  O14  1  0.09269014  0.20613039  0.69650558  1
  O  O15  1  0.59235873  0.20973923  0.69509677  1
  O  O16  1  0.01702571  0.82493396  0.69041468  1
  O  O17  1  0.51381749  0.83064088  0.69082413  1
  O  O18  1  0.40782575  0.84228144  0.19449160  1
  O  O19  1  0.89948499  0.83122513  0.19589707  1
  O  O20  1  0.01777043  0.21529025  0.19203882  1
  O  O21  1  0.51338689  0.20225410  0.19187361  1
  O  O22  1  0.09314320  0.97864573  0.19776727  1
  O  O23  1  0.59000712  0.97944587  0.19770961  1
  O  O24  1  0.43458816  0.35648241  0.63555035  1
  O  O25  1  0.93375100  0.35665327  0.63570248  1
  O  O26  1  0.24858419  0.14300145  0.64237047  1
  O  O27  1  0.74792476  0.13832985  0.64237717  1
  O  O28  1  0.32550124  0.49405528  0.64016681  1
  O  O29  1  0.82160475  0.49365643  0.63854979  1
  O  O30  1  0.43507559  0.51065149  0.13615077  1
  O  O31  1  0.93622785  0.51468386  0.13621931  1
  O  O32  1  0.32549919  0.15186889  0.14382089  1
  O  O33  1  0.82243066  0.13077817  0.14381970  1
  O  O34  1  0.25352818  0.35658771  0.14017093  1
  O  O35  1  0.74554761  0.36157023  0.14064137  1
  O  O36  1  0.23948239  0.31424708  0.02453377  1
  O  O37  1  0.72998561  0.30590903  0.02626414  1
  O  O38  1  0.42667521  0.54765662  0.02895762  1
  O  O39  1  0.92612368  0.54713687  0.02992875  1
  O  O40  1  0.34978860  0.16822248  0.02644285  1
  O  O41  1  0.85112375  0.16076682  0.02656196  1
  O  O42  1  0.24122147  0.16782117  0.52469407  1
  O  O43  1  0.73720596  0.16555795  0.52549201  1
  O  O44  1  0.34966070  0.53128831  0.52462465  1
  O  O45  1  0.84654140  0.52561290  0.52334401  1
  O  O46  1  0.42602665  0.30529370  0.52838233  1
  O  O47  1  0.92589193  0.30719942  0.52820576  1
  O  O48  1  0.27172706  0.70572217  0.97274583  1
  O  O49  1  0.77108711  0.69354811  0.96939447  1
  O  O50  1  0.07888635  0.45621706  0.97748259  1
  O  O51  1  0.57621025  0.45960800  0.97810200  1
  O  O52  1  0.14946797  0.83594180  0.97470081  1
  O  O53  1  0.65199899  0.83433988  0.97181122  1
  O  O54  1  0.27259693  0.83422241  0.47032453  1
  O  O55  1  0.76444860  0.82842396  0.47227157  1
  O  O56  1  0.14557551  0.46121915  0.47411473  1
  O  O57  1  0.64705519  0.47239342  0.47395219  1
  O  O58  1  0.08038021  0.70068462  0.47750956  1
  O  O59  1  0.58424217  0.70240874  0.47678989  1
  O  O60  1  0.07249697  0.63131788  0.36208349  1
  O  O61  1  0.57109499  0.62984921  0.36170073  1
  O  O62  1  0.25002801  0.87424021  0.35564542  1
  O  O63  1  0.74881937  0.87154390  0.35708026  1
  O  O64  1  0.18713380  0.50301097  0.36042557  1
  O  O65  1  0.68648114  0.50409043  0.36049672  1
  O  O66  1  0.06818436  0.49333425  0.86011092  1
  O  O67  1  0.56587627  0.49954336  0.86232642  1
  O  O68  1  0.18708439  0.88328576  0.85805679  1
  O  O69  1  0.68558141  0.87525893  0.85752968  1
  O  O70  1  0.25076175  0.62020531  0.85974883  1
  O  O71  1  0.75939474  0.63986469  0.86288943  1
  O  O72  1  0.01317917  0.83373496  0.40999138  1
  O  O73  1  0.51369893  0.83778196  0.40853785  1
  O  O74  1  0.40815018  0.97929116  0.40731548  1
  O  O75  1  0.90483381  0.97607766  0.41302087  1
  O  O76  1  0.08554619  0.18308169  0.40970836  1
  O  O77  1  0.58148128  0.18479084  0.40892188  1
  O  O78  1  0.00764542  0.18194153  0.91142203  1
  O  O79  1  0.50461114  0.18014212  0.91233043  1
  O  O80  1  0.08458606  0.99521778  0.91035361  1
  O  O81  1  0.57995875  0.97257438  0.90970362  1
  O  O82  1  0.40778372  0.83255100  0.91087166  1
  O  O83  1  0.89668280  0.82487033  0.91148473  1
  O  O84  1  0.48746583  0.17825239  0.58988286  1
  O  O85  1  0.98780755  0.18183834  0.58941875  1
  O  O86  1  0.09440234  0.03187068  0.58648200  1
  O  O87  1  0.59135941  0.02411066  0.59113373  1
  O  O88  1  0.41984066  0.80422203  0.59036922  1
  O  O89  1  0.91644009  0.80129271  0.58646134  1
  O  O90  1  0.48730145  0.79634404  0.09164657  1
  O  O91  1  0.98948600  0.79748261  0.09054894  1
  O  O92  1  0.41873547  0.03310151  0.09211629  1
  O  O93  1  0.92116688  0.02686258  0.08731051  1
  O  O94  1  0.09558256  0.15784309  0.08832405  1
  O  O95  1  0.58699500  0.15259572  0.09270575  1
  O  O96  1  0.34047964  0.16945654  0.73895299  1
  O  O97  1  0.83644725  0.16890593  0.74168836  1
  O  O98  1  0.23173547  0.30201543  0.74446454  1
  O  O99  1  0.73129058  0.30341226  0.74297700  1
  O  O100  1  0.41150105  0.51084088  0.73936672  1
  O  O101  1  0.91092257  0.50959186  0.73884002  1
  O  O102  1  0.34613124  0.51930312  0.24099488  1
  O  O103  1  0.83955673  0.51369312  0.24700127  1
  O  O104  1  0.41075663  0.30016655  0.24399075  1
  O  O105  1  0.91284135  0.30663498  0.24534160  1
  O  O106  1  0.23422873  0.15672265  0.24470985  1
  O  O107  1  0.73039414  0.15145338  0.24630914  1
  O  O108  1  0.32535610  0.49369290  0.92564715  1
  O  O109  1  0.82396857  0.51673877  0.92303804  1
  O  O110  1  0.42465226  0.35857675  0.92540321  1
  O  O111  1  0.92376513  0.35503956  0.92192192  1
  O  O112  1  0.25165419  0.14620389  0.92487359  1
  O  O113  1  0.75364687  0.14727322  0.92064504  1
  O  O114  1  0.32473775  0.15259552  0.42307011  1
  O  O115  1  0.82079285  0.14800338  0.42527440  1
  O  O116  1  0.25466690  0.36277986  0.42350750  1
  O  O117  1  0.75083360  0.35978467  0.42437658  1
  O  O118  1  0.42842425  0.49573334  0.42508580  1
  O  O119  1  0.92620078  0.49059999  0.42333619  1
  O  O120  1  0.17380379  0.49492083  0.08143201  1
  O  O121  1  0.66596220  0.48956938  0.07986363  1
  O  O122  1  0.06269800  0.63428073  0.07912564  1
  O  O123  1  0.56181497  0.63472971  0.07990626  1
  O  O124  1  0.24579076  0.85738492  0.08273850  1
  O  O125  1  0.74805406  0.84841004  0.07859104  1
  O  O126  1  0.17450993  0.85427525  0.58020062  1
  O  O127  1  0.67346058  0.84923618  0.57661553  1
  O  O128  1  0.24633763  0.63414403  0.58147859  1
  O  O129  1  0.74242532  0.63308491  0.57586524  1
  O  O130  1  0.06144262  0.49176112  0.57935088  1
  O  O131  1  0.56178551  0.49084591  0.57925652  1
  O  O132  1  0.15789467  0.84856144  0.25378695  1
  O  O133  1  0.65338294  0.84518689  0.25431548  1
  O  O134  1  0.26374102  0.70473599  0.25696571  1
  O  O135  1  0.75769106  0.70201710  0.25768180  1
  O  O136  1  0.08913991  0.49411483  0.25804818  1
  O  O137  1  0.58598187  0.48288692  0.25855929  1
  O  O138  1  0.15602728  0.46274211  0.75340050  1
  O  O139  1  0.65679176  0.46325316  0.75552284  1
  O  O140  1  0.08543810  0.68752261  0.75365026  1
  O  O141  1  0.58387932  0.69279880  0.75112195  1
  O  O142  1  0.25988973  0.83374492  0.75031127  1
  O  O143  1  0.75761905  0.83104938  0.75404450  1
loop_
_geom_bond_atom_site_label_1
_geom_bond_atom_site_label_2
_geom_bond_distance
_geom_bond_site_symmetry_2
Na0 O134 2.321749 1_555
Na0 O104 2.370037 1_565
Na0 O132 2.516281 1_555
Na0 O106 2.561731 1_565
Na0 O62 2.664626 1_555
Na0 O32 2.743171 1_565
Na0 O18 2.881854 1_555
Na0 O4 2.898091 1_565
Na1 O135 2.316649 1_555
Na1 O105 2.437414 1_565
Na1 O133 2.568944 1_555
Na1 O107 2.578276 1_565
Na1 O63 2.678179 1_555
Na1 O33 2.687988 1_565
Na1 O19 2.837945 1_555
Na1 O5 2.938243 1_565
Na2 O142 2.419254 1_555
Na2 O140 2.420482 1_555
Na2 O96 2.440123 1_565
Na2 O98 2.471059 1_565
Na2 O26 2.661828 1_565
Na2 O68 2.725928 1_555
Na2 O16 2.898389 1_555
Na2 O6 3.015318 1_565
Na3 O97 2.376955 1_565
Na3 O141 2.429118 1_555
Na3 O99 2.429164 1_565
Na3 O143 2.466297 1_555
Na3 O27 2.631663 1_565
Na3 O69 2.762701 1_555
Na3 O7 2.921458 1_565
Na3 O17 2.934709 1_555
Na4 O89 2.389908 1_455
Na4 O130 2.398861 1_555
Na4 O126 2.438629 1_555
Na4 O86 2.564861 1_565
Na4 O58 2.596907 1_555
Na4 O16 2.704852 1_555
Na5 O131 2.378861 1_555
Na5 O127 2.379265 1_555
Na5 O88 2.404714 1_555
Na5 O87 2.513935 1_565
Na5 O59 2.594443 1_555
Na5 O17 2.780013 1_555
Na5 O44 2.944561 1_555
Na5 O24 2.987431 1_555
Na6 O93 2.401797 1_455
Na6 O120 2.413689 1_555
Na6 O122 2.441481 1_555
Na6 O94 2.548874 1_555
Na6 O50 2.570810 1_554
Na6 O20 2.728390 1_555
Na6 O41 2.882455 1_455
Na6 O31 3.001228 1_455
Na7 O92 2.346197 1_555
Na7 O121 2.349980 1_555
Na7 O123 2.452457 1_555
Na7 O95 2.506231 1_555
Na7 O51 2.601338 1_554
Na7 O21 2.733133 1_555
Na7 O40 2.863551 1_555
Na7 O30 2.938747 1_555
Na8 O110 2.395344 1_555
Na8 O81 2.449977 1_555
Na8 O108 2.465395 1_555
Na8 O82 2.509752 1_555
Na8 O8 2.712207 1_555
Na8 O38 2.740273 1_556
Na8 O67 2.827377 1_555
Na8 O53 2.916138 1_555
Na9 O79 2.430927 1_555
Na9 O112 2.437528 1_555
Na9 O82 2.501454 1_545
Na9 O110 2.562839 1_555
Na9 O10 2.698686 1_555
Na9 O40 2.761034 1_556
Na9 O48 2.834924 1_545
Na9 O68 2.850024 1_545
Na10 O113 2.372747 1_555
Na10 O78 2.442499 1_655
Na10 O111 2.447305 1_555
Na10 O83 2.475023 1_545
Na10 O11 2.570757 1_555
Na10 O41 2.764035 1_556
Na10 O69 2.874482 1_545
Na10 O49 3.000013 1_545
Na11 O80 2.450825 1_545
Na11 O108 2.485752 1_555
Na11 O78 2.499595 1_555
Na11 O112 2.589541 1_555
Na11 O36 2.684861 1_556
Na11 O70 2.795135 1_555
Na11 O50 2.829852 1_555
Na11 O6 2.872681 1_555
Na12 O118 2.394664 1_555
Na12 O114 2.476799 1_555
Na12 O77 2.479531 1_555
Na12 O74 2.539078 1_545
Na12 O46 2.735026 1_555
Na12 O4 2.764894 1_555
Na12 O61 2.828263 1_555
Na12 O57 2.863258 1_555
Na13 O119 2.365661 1_555
Na13 O115 2.517929 1_555
Na13 O75 2.550220 1_545
Na13 O76 2.577579 1_655
Na13 O5 2.691081 1_555
Na13 O47 2.723504 1_555
Na13 O60 2.843615 1_655
Na13 O56 2.862992 1_655
Na14 O72 2.434188 1_545
Na14 O114 2.470785 1_555
Na14 O76 2.489620 1_555
Na14 O116 2.611210 1_555
Na14 O42 2.719138 1_555
Na14 O0 2.807789 1_555
Na14 O62 2.870011 1_545
Na14 O58 2.875242 1_545
Na15 O73 2.377348 1_545
Na15 O115 2.471265 1_555
Na15 O77 2.503228 1_555
Na15 O117 2.581675 1_555
Na15 O1 2.726495 1_555
Na15 O43 2.779208 1_555
Na15 O63 2.878582 1_545
Na15 O59 2.893842 1_545
Na16 O116 2.428978 1_555
Na16 O74 2.453919 1_555
Na16 O73 2.511878 1_555
Na16 O118 2.548326 1_555
Na16 O2 2.677042 1_555
Na16 O44 2.735040 1_555
Na16 O54 2.802829 1_555
Na16 O64 2.875282 1_555
Na17 O117 2.412653 1_555
Na17 O75 2.466415 1_555
Na17 O72 2.556140 1_655
Na17 O119 2.560744 1_555
Na17 O3 2.620346 1_555
Na17 O45 2.708068 1_555
Na17 O65 2.836251 1_555
Na17 O55 2.884383 1_555
Na18 O86 2.489530 1_555
Na18 O89 2.566639 1_445
Na18 O75 2.574235 1_445
Na18 O76 2.585386 1_555
Na18 O72 2.629568 1_545
Na18 O85 2.650168 1_455
Na19 O87 2.535981 1_555
Na19 O77 2.585881 1_555
Na19 O84 2.609474 1_555
Na19 O88 2.612562 1_545
Na19 O73 2.666641 1_545
Na19 O74 2.666991 1_545
Na20 O94 2.484685 1_555
Na20 O80 2.505741 1_544
Na20 O93 2.545785 1_455
Na20 O78 2.606155 1_554
Na20 O91 2.633296 1_445
Na20 O83 2.727156 1_444
Na21 O95 2.497839 1_555
Na21 O81 2.540920 1_544
Na21 O79 2.552418 1_554
Na21 O82 2.644400 1_544
Na21 O92 2.673898 1_555
Na21 O90 2.695771 1_545
Na22 O100 2.495766 1_555
Na22 O110 2.554633 1_555
Na22 O96 2.601197 1_555
Na22 O108 2.619882 1_555
Na22 O98 2.697609 1_555
Na22 O112 2.718550 1_555
Na23 O101 2.470642 1_555
Na23 O111 2.497750 1_555
Na23 O97 2.516571 1_555
Na23 O113 2.661456 1_555
Na23 O99 2.726396 1_555
Na23 O109 2.729692 1_555
Na24 O104 2.485858 1_555
Na24 O102 2.511026 1_555
Na24 O118 2.598120 1_555
Na24 O116 2.633493 1_555
Na24 O114 2.663592 1_555
Na24 O106 2.667562 1_555
Na25 O103 2.431356 1_555
Na25 O105 2.501863 1_555
Na25 O119 2.518753 1_555
Na25 O117 2.639062 1_555
Na25 O115 2.685626 1_555
Na25 O107 2.701029 1_555
Na26 O120 2.483724 1_555
Na26 O134 2.486612 1_555
Na26 O124 2.506369 1_555
Na26 O136 2.514083 1_555
Na26 O132 2.653117 1_555
Na26 O122 2.763890 1_555
Na27 O135 2.431198 1_555
Na27 O121 2.535322 1_555
Na27 O137 2.541956 1_555
Na27 O125 2.581048 1_555
Na27 O133 2.639506 1_555
Na27 O123 2.767857 1_555
Na28 O142 2.397901 1_555
Na28 O128 2.436496 1_555
Na28 O126 2.557519 1_555
Na28 O140 2.572539 1_555
Na28 O138 2.622609 1_555
Na28 O130 2.734993 1_555
Na29 O129 2.402652 1_555
Na29 O127 2.535026 1_555
Na29 O143 2.540892 1_555
Na29 O131 2.651020 1_555
Na29 O141 2.658024 1_555
Na29 O139 2.720132 1_555
Hf0 O3 1.970577 1_555
Hf0 O5 2.006128 1_565
Hf0 O75 2.051722 1_555
Hf0 O72 2.095579 1_655
Hf0 O76 2.111520 1_665
Hf0 O0 2.194358 1_665
Hf1 O9 1.978077 1_555
Hf1 O11 2.007603 1_565
Hf1 O80 2.087049 1_655
Hf1 O78 2.116329 1_665
Hf1 O6 2.138281 1_665
Hf1 O83 2.173253 1_555
Hf2 O10 2.014732 1_565
Hf2 O82 2.019143 1_555
Hf2 O8 2.043252 1_555
Hf2 O79 2.061598 1_565
Hf2 O81 2.081057 1_555
Hf2 O7 2.171370 1_565
Hf3 O13 1.954291 1_555
Hf3 O16 1.972792 1_655
Hf3 O89 2.025983 1_555
Hf3 O86 2.095890 1_665
Hf3 O85 2.227239 1_565
Hf3 O14 2.230745 1_665
Hf4 O20 1.973959 1_655
Hf4 O19 1.996264 1_545
Hf4 O93 2.010161 1_555
Hf4 O94 2.088102 1_655
Hf4 O22 2.185331 1_645
Hf4 O91 2.249125 1_545
Hf5 O35 1.950439 1_555
Hf5 O103 2.023947 1_555
Hf5 O33 2.041980 1_555
Hf5 O105 2.107970 1_555
Hf5 O107 2.144538 1_555
Hf5 O31 2.152033 1_555
Hf6 O37 1.973353 1_556
Hf6 O41 1.973376 1_556
Hf6 O113 2.004045 1_555
Hf6 O111 2.077473 1_555
Hf6 O39 2.214402 1_556
Hf6 O109 2.237324 1_555
Hf7 O48 1.946603 1_554
Hf7 O52 2.017120 1_554
Hf7 O124 2.068597 1_555
Hf7 O50 2.083504 1_554
Hf7 O120 2.117310 1_555
Hf7 O122 2.274334 1_555
Hf8 O53 2.002661 1_554
Hf8 O51 2.014966 1_554
Hf8 O125 2.020443 1_555
Hf8 O121 2.063751 1_555
Hf8 O123 2.156332 1_555
Hf8 O49 2.156951 1_554
Hf9 O54 1.962263 1_555
Hf9 O56 2.037773 1_555
Hf9 O128 2.055029 1_555
Hf9 O58 2.060815 1_555
Hf9 O126 2.087105 1_555
Hf9 O130 2.304670 1_555
Hf10 O66 1.984835 1_555
Hf10 O68 2.013481 1_555
Hf10 O70 2.039145 1_555
Hf10 O140 2.091161 1_555
Hf10 O142 2.136715 1_555
Hf10 O138 2.258470 1_555
Hf11 O69 1.981548 1_555
Hf11 O67 1.997347 1_555
Hf11 O141 2.007636 1_555
Hf11 O143 2.057603 1_555
Hf11 O139 2.208091 1_555
Hf11 O71 2.269572 1_555
O0 S0 1.493811 1_555
O1 S1 1.492015 1_545
O1 Ti0 2.159325 1_545
O2 Si0 1.674748 1_555
O2 Ti0 1.855967 1_555
O3 Si1 1.643962 1_555
O4 Si3 1.666423 1_555
O4 Ti0 1.889380 1_545
O5 Si2 1.648311 1_655
O6 S2 1.510106 1_555
O7 S3 1.497915 1_555
O8 Si5 1.623152 1_555
O9 Si4 1.644326 1_555
O10 Si6 1.634606 1_555
O11 Si7 1.646283 1_555
O12 Si6 1.656840 1_565
O12 Ti1 1.833940 1_555
O13 Si7 1.625050 1_565
O14 S2 1.467578 1_555
O15 S3 1.461441 1_555
O15 Ti1 2.280545 1_545
O16 Si4 1.655809 1_455
O17 Si5 1.662494 1_555
O17 Ti1 1.838519 1_555
O18 Si0 1.647446 1_555
O18 Ti2 1.874756 1_565
O19 Si1 1.643852 1_555
O20 Si2 1.650379 1_555
O21 Si3 1.660771 1_555
O21 Ti2 1.828180 1_555
O22 S0 1.473048 1_565
O23 S1 1.456533 1_555
O23 Ti2 2.244288 1_565
O24 S4 1.504117 1_555
O24 Ti3 1.996347 1_555
O25 S5 1.486767 1_555
O25 Ti4 2.068850 1_555
O26 Si8 1.636958 1_555
O26 Ti3 1.901106 1_555
O27 Si9 1.639969 1_555
O27 Ti4 1.917216 1_555
O28 Si10 1.625206 1_555
O28 Ti3 1.857990 1_555
O29 Si11 1.642680 1_555
O29 Ti4 1.867256 1_555
O30 S6 1.493490 1_555
O30 Ti5 2.046664 1_555
O31 S7 1.488278 1_555
O32 Si12 1.637123 1_555
O32 Ti5 1.899589 1_555
O33 Si13 1.624310 1_555
O34 Si14 1.653244 1_555
O34 Ti5 1.819924 1_555
O35 Si15 1.621382 1_555
O36 Si14 1.649237 1_555
O36 Ti6 1.871082 1_554
O37 Si15 1.633662 1_555
O38 S6 1.475521 1_555
O38 Ti6 2.280946 1_554
O39 S7 1.481024 1_555
O40 Si12 1.658462 1_555
O40 Ti6 1.910663 1_554
O41 Si13 1.651559 1_555
O42 Si8 1.665804 1_555
O42 Ti7 1.860949 1_555
O43 Si9 1.667308 1_555
O43 Ti8 1.854259 1_555
O44 Si10 1.663543 1_555
O44 Ti7 1.891109 1_555
O45 Si11 1.660049 1_555
O45 Ti8 1.871691 1_555
O46 S4 1.485828 1_555
O46 Ti7 2.222705 1_555
O47 S5 1.477501 1_555
O47 Ti8 2.259209 1_555
O48 Si16 1.632009 1_555
O49 S8 1.490515 1_555
O50 Si17 1.645934 1_555
O51 Si18 1.624236 1_555
O52 Si19 1.610299 1_555
O53 Si20 1.629418 1_555
O54 Si21 1.636337 1_555
O55 Si22 1.652685 1_555
O55 Ti9 1.810996 1_555
O56 Si23 1.612242 1_555
O57 Si24 1.626771 1_555
O57 Ti9 1.944488 1_555
O58 Si25 1.636481 1_555
O59 Si26 1.645825 1_555
O59 Ti9 1.970673 1_555
O60 Si25 1.649629 1_555
O60 Ti10 1.909283 1_555
O61 Si26 1.642614 1_555
O61 Ti11 1.899370 1_555
O62 Si21 1.629029 1_555
O62 Ti10 2.031703 1_555
O63 Si22 1.623544 1_555
O63 Ti11 2.051606 1_555
O64 Si23 1.653298 1_555
O64 Ti10 1.834395 1_555
O65 Si24 1.650826 1_555
O65 Ti11 1.831945 1_555
O66 Si17 1.624558 1_555
O67 Si18 1.639206 1_555
O68 Si19 1.643698 1_555
O69 Si20 1.647483 1_555
O70 Si16 1.622244 1_555
O71 S8 1.460787 1_555
O72 Si25 1.643066 1_555
O73 Si26 1.651815 1_555
O73 Ti0 2.077576 1_555
O74 Si21 1.659397 1_555
O74 Ti0 1.904822 1_555
O75 Si22 1.651251 1_555
O76 Si23 1.625177 1_555
O77 Si24 1.629213 1_555
O77 Ti0 2.112210 1_545
O78 Si17 1.666197 1_555
O79 Si18 1.625339 1_555
O80 Si19 1.630957 1_555
O81 Si20 1.614211 1_555
O82 Si16 1.632274 1_555
O83 S8 1.499177 1_555
O84 S4 1.472701 1_555
O84 Ti1 2.265554 1_545
O85 S5 1.478185 1_555
O86 Si8 1.642530 1_555
O87 Si9 1.654328 1_555
O87 Ti1 2.009171 1_545
O88 Si10 1.669207 1_555
O88 Ti1 1.894396 1_555
O89 Si11 1.661130 1_555
O90 S6 1.460213 1_555
O90 Ti2 2.303042 1_565
O91 S7 1.469799 1_555
O92 Si12 1.669578 1_555
O92 Ti2 1.894402 1_555
O93 Si13 1.655891 1_555
O94 Si14 1.639191 1_555
O95 Si15 1.650557 1_555
O95 Ti2 1.949877 1_555
O96 Si6 1.653827 1_555
O96 Ti3 1.947179 1_555
O97 Si7 1.647528 1_555
O97 Ti4 1.993578 1_555
O98 S2 1.496985 1_555
O98 Ti3 2.216301 1_555
O99 S3 1.495561 1_555
O99 Ti4 2.121712 1_555
O100 Si5 1.619517 1_555
O100 Ti3 1.946525 1_555
O101 Si4 1.631668 1_555
O101 Ti4 1.933640 1_555
O102 Si0 1.636446 1_555
O102 Ti5 1.946189 1_555
O103 Si1 1.618896 1_555
O104 Si3 1.636968 1_555
O104 Ti5 2.092106 1_555
O105 Si2 1.634334 1_655
O106 S0 1.496437 1_555
O106 Ti5 2.159903 1_555
O107 S1 1.523855 1_545
O108 Si16 1.631382 1_555
O108 Ti6 2.017789 1_555
O109 S8 1.474485 1_555
O110 Si18 1.650270 1_555
O110 Ti6 2.000288 1_555
O111 Si17 1.635598 1_655
O112 Si19 1.672008 1_545
O112 Ti6 1.877919 1_555
O113 Si20 1.634724 1_545
O114 Si21 1.639504 1_545
O114 Ti7 2.066476 1_555
O115 Si22 1.637259 1_545
O115 Ti8 2.030436 1_555
O116 Si23 1.654661 1_555
O116 Ti7 1.922944 1_555
O117 Si24 1.661469 1_555
O117 Ti8 1.906020 1_555
O118 Si26 1.650875 1_555
O118 Ti7 2.038274 1_555
O119 Si25 1.646953 1_655
O119 Ti8 2.085917 1_555
O120 Si14 1.640258 1_555
O121 Si15 1.644315 1_555
O122 S7 1.482034 1_455
O123 S6 1.516516 1_555
O124 Si12 1.616016 1_565
O125 Si13 1.616258 1_565
O126 Si8 1.646895 1_565
O127 Si9 1.655329 1_565
O127 Ti9 2.032896 1_555
O128 Si10 1.614014 1_555
O129 Si11 1.623760 1_555
O129 Ti9 1.979534 1_555
O130 S5 1.495602 1_455
O131 S4 1.485434 1_555
O131 Ti9 2.338369 1_555
O132 S0 1.475157 1_565
O132 Ti10 2.352323 1_555
O133 S1 1.483490 1_555
O133 Ti11 2.350375 1_555
O134 Si0 1.643294 1_555
O134 Ti10 2.055888 1_555
O135 Si1 1.645296 1_555
O135 Ti11 1.990705 1_555
O136 Si2 1.637982 1_555
O136 Ti10 1.916580 1_555
O137 Si3 1.628514 1_555
O137 Ti11 1.940010 1_555
O138 S2 1.457526 1_555
O139 S3 1.479691 1_555
O140 Si4 1.636409 1_455
O141 Si5 1.654337 1_555
O142 Si6 1.637185 1_565
O143 Si7 1.643498 1_565
