# generated using pymatgen
data_SiP3H29C10BrN
_symmetry_space_group_name_H-M   'P 1'
_cell_length_a   11.26573600
_cell_length_b   11.95920000
_cell_length_c   15.37697569
_cell_angle_alpha   78.49293078
_cell_angle_beta   90.00000000
_cell_angle_gamma   90.00000000
_symmetry_Int_Tables_number   1
_chemical_formula_structural   SiP3H29C10BrN
_chemical_formula_sum   'Si4 P12 H116 C40 Br4 N4'
_cell_volume   2030.08596157
_cell_formula_units_Z   4
loop_
 _symmetry_equiv_pos_site_id
 _symmetry_equiv_pos_as_xyz
  1  'x, y, z'
loop_
 _atom_site_type_symbol
 _atom_site_label
 _atom_site_symmetry_multiplicity
 _atom_site_fract_x
 _atom_site_fract_y
 _atom_site_fract_z
 _atom_site_occupancy
  Si  Si0  1  0.59973800  0.74854100  0.09174400  1
  Si  Si1  1  0.90026200  0.24854100  0.09174400  1
  Si  Si2  1  0.09973800  0.75145900  0.90825600  1
  Si  Si3  1  0.40026200  0.25145900  0.90825600  1
  P  P0  1  0.92648700  0.33911600  0.26820300  1
  P  P1  1  0.45556600  0.72615400  0.36776800  1
  P  P2  1  0.04443400  0.22615400  0.36776800  1
  P  P3  1  0.54443400  0.27384600  0.63223200  1
  P  P4  1  0.95556600  0.77384600  0.63223200  1
  P  P5  1  0.72606300  0.75714500  0.75281100  1
  P  P6  1  0.77393700  0.25714500  0.75281100  1
  P  P7  1  0.27393700  0.24285500  0.24718900  1
  P  P8  1  0.57351300  0.83911600  0.26820300  1
  P  P9  1  0.07351300  0.66088400  0.73179700  1
  P  P10  1  0.42648700  0.16088400  0.73179700  1
  P  P11  1  0.22606300  0.74285500  0.24718900  1
  H  H0  1  0.52475900  0.59153200  0.02137800  1
  H  H1  1  0.02475900  0.90846800  0.97862200  1
  H  H2  1  0.47524100  0.40846800  0.97862200  1
  H  H3  1  0.97524100  0.09153200  0.02137800  1
  H  H4  1  0.40428000  0.65928700  0.06504400  1
  H  H5  1  0.90428000  0.84071300  0.93495600  1
  H  H6  1  0.59572000  0.34071300  0.93495600  1
  H  H7  1  0.09572000  0.15928700  0.06504400  1
  H  H8  1  0.49546400  0.56045200  0.13682400  1
  H  H9  1  0.99546400  0.93954800  0.86317600  1
  H  H10  1  0.50453600  0.43954800  0.86317600  1
  H  H11  1  0.00453600  0.06045200  0.13682400  1
  H  H12  1  0.78217200  0.64233700  0.06098400  1
  H  H13  1  0.28217200  0.85766300  0.93901600  1
  H  H14  1  0.21782800  0.35766300  0.93901600  1
  H  H15  1  0.71782800  0.14233700  0.06098400  1
  H  H16  1  0.75003300  0.61725900  0.17632200  1
  H  H17  1  0.25003300  0.88274100  0.82367800  1
  H  H18  1  0.24996700  0.38274100  0.82367800  1
  H  H19  1  0.74996700  0.11725900  0.17632200  1
  H  H20  1  0.81921200  0.74709900  0.12365000  1
  H  H21  1  0.31921200  0.75290100  0.87635000  1
  H  H22  1  0.18078800  0.25290100  0.87635000  1
  H  H23  1  0.68078800  0.24709900  0.12365000  1
  H  H24  1  0.51507500  0.89508000  0.96872500  1
  H  H25  1  0.01507500  0.60492000  0.03127500  1
  H  H26  1  0.48492500  0.10492000  0.03127500  1
  H  H27  1  0.98492500  0.39508000  0.96872500  1
  H  H28  1  0.06838000  0.17282300  0.52384100  1
  H  H29  1  0.56838000  0.32717700  0.47615900  1
  H  H30  1  0.93162000  0.82717700  0.47615900  1
  H  H31  1  0.43162000  0.67282300  0.52384100  1
  H  H32  1  0.91496300  0.19876300  0.49376300  1
  H  H33  1  0.41496300  0.30123700  0.50623700  1
  H  H34  1  0.08503700  0.80123700  0.50623700  1
  H  H35  1  0.58503700  0.69876300  0.49376300  1
  H  H36  1  0.01601500  0.31741200  0.49276800  1
  H  H37  1  0.51601500  0.18258800  0.50723200  1
  H  H38  1  0.98398500  0.68258800  0.50723200  1
  H  H39  1  0.48398500  0.81741200  0.49276800  1
  H  H40  1  0.63432500  0.82166300  0.92889700  1
  H  H41  1  0.13432500  0.67833700  0.07110300  1
  H  H42  1  0.36567500  0.17833700  0.07110300  1
  H  H43  1  0.86567500  0.32166300  0.92889700  1
  H  H44  1  0.24289300  0.20433000  0.40551800  1
  H  H45  1  0.74289300  0.29567000  0.59448200  1
  H  H46  1  0.75710700  0.79567000  0.59448200  1
  H  H47  1  0.25710700  0.70433000  0.40551800  1
  H  H48  1  0.21076700  0.35200800  0.36529700  1
  H  H49  1  0.71076700  0.14799200  0.63470300  1
  H  H50  1  0.78923300  0.64799200  0.63470300  1
  H  H51  1  0.28923300  0.85200800  0.36529700  1
  H  H52  1  0.66388100  0.92852600  0.99098400  1
  H  H53  1  0.16388100  0.57147400  0.00901600  1
  H  H54  1  0.33611900  0.07147400  0.00901600  1
  H  H55  1  0.83611900  0.42852600  0.99098400  1
  H  H56  1  0.71717300  0.36346100  0.27202500  1
  H  H57  1  0.21717300  0.13653900  0.72797500  1
  H  H58  1  0.28282700  0.63653900  0.72797500  1
  H  H59  1  0.78282700  0.86346100  0.27202500  1
  H  H60  1  0.77846000  0.34928400  0.38090100  1
  H  H61  1  0.27846000  0.15071600  0.61909900  1
  H  H62  1  0.22154000  0.65071600  0.61909900  1
  H  H63  1  0.72154000  0.84928400  0.38090100  1
  H  H64  1  0.75694200  0.22450000  0.33309100  1
  H  H65  1  0.25694200  0.27550000  0.66690900  1
  H  H66  1  0.24305800  0.77550000  0.66690900  1
  H  H67  1  0.74305800  0.72450000  0.33309100  1
  H  H68  1  0.54735200  0.99037400  0.35029500  1
  H  H69  1  0.04735200  0.50962600  0.64970500  1
  H  H70  1  0.45264800  0.00962600  0.64970500  1
  H  H71  1  0.95264800  0.49037400  0.35029500  1
  H  H72  1  0.29951200  0.37890200  0.10916400  1
  H  H73  1  0.79951200  0.12109800  0.89083600  1
  H  H74  1  0.70048800  0.62109800  0.89083600  1
  H  H75  1  0.20048800  0.87890200  0.10916400  1
  H  H76  1  0.27955600  0.45443700  0.19718800  1
  H  H77  1  0.77955600  0.04556300  0.80281200  1
  H  H78  1  0.72044400  0.54556300  0.80281200  1
  H  H79  1  0.22044400  0.95443700  0.19718800  1
  H  H80  1  0.15511500  0.38960300  0.15289400  1
  H  H81  1  0.65511500  0.11039700  0.84710600  1
  H  H82  1  0.84488500  0.61039700  0.84710600  1
  H  H83  1  0.34488500  0.88960300  0.15289400  1
  H  H84  1  0.43483700  0.99458800  0.26564900  1
  H  H85  1  0.93483700  0.50541200  0.73435100  1
  H  H86  1  0.56516300  0.00541200  0.73435100  1
  H  H87  1  0.06516300  0.49458800  0.26564900  1
  H  H88  1  0.48757900  0.25989800  0.22614100  1
  H  H89  1  0.98757900  0.24010200  0.77385900  1
  H  H90  1  0.51242100  0.74010200  0.77385900  1
  H  H91  1  0.01242100  0.75989800  0.22614100  1
  H  H92  1  0.45307900  0.19770500  0.33815200  1
  H  H93  1  0.95307900  0.30229500  0.66184800  1
  H  H94  1  0.54692100  0.80229500  0.66184800  1
  H  H95  1  0.04692100  0.69770500  0.33815200  1
  H  H96  1  0.43989500  0.34894800  0.30006600  1
  H  H97  1  0.93989500  0.15105200  0.69993400  1
  H  H98  1  0.56010500  0.65105200  0.69993400  1
  H  H99  1  0.06010500  0.84894800  0.30006600  1
  H  H100  1  0.58190700  0.04175500  0.23560000  1
  H  H101  1  0.08190700  0.45824500  0.76440000  1
  H  H102  1  0.41809300  0.95824500  0.76440000  1
  H  H103  1  0.91809300  0.54175500  0.23560000  1
  H  H104  1  0.08535400  0.02809800  0.39571900  1
  H  H105  1  0.58535400  0.47190200  0.60428100  1
  H  H106  1  0.91464600  0.97190200  0.60428100  1
  H  H107  1  0.41464600  0.52809800  0.39571900  1
  H  H108  1  0.04181500  0.07959400  0.28179400  1
  H  H109  1  0.54181500  0.42040600  0.71820600  1
  H  H110  1  0.95818500  0.92040600  0.71820600  1
  H  H111  1  0.45818500  0.57959400  0.28179400  1
  H  H112  1  0.93053000  0.05678500  0.36914400  1
  H  H113  1  0.43053000  0.44321500  0.63085600  1
  H  H114  1  0.06947000  0.94321500  0.63085600  1
  H  H115  1  0.56947000  0.55678500  0.36914400  1
  C  C0  1  0.97104200  0.47955700  0.28209600  1
  C  C1  1  0.47104200  0.02044300  0.71790400  1
  C  C2  1  0.02895800  0.52044300  0.71790400  1
  C  C3  1  0.52895800  0.97955700  0.28209600  1
  C  C4  1  0.47741100  0.58284600  0.35115400  1
  C  C5  1  0.97741100  0.91715400  0.64884600  1
  C  C6  1  0.52258900  0.41715400  0.64884600  1
  C  C7  1  0.02258900  0.08284600  0.35115400  1
  C  C8  1  0.07200500  0.76531300  0.28178900  1
  C  C9  1  0.57200500  0.73468700  0.71821100  1
  C  C10  1  0.92799500  0.23468700  0.71821100  1
  C  C11  1  0.42799500  0.26531300  0.28178900  1
  C  C12  1  0.25036500  0.88048700  0.17041100  1
  C  C13  1  0.75036500  0.61951300  0.82958900  1
  C  C14  1  0.74963500  0.11951300  0.82958900  1
  C  C15  1  0.24963500  0.38048700  0.17041100  1
  C  C16  1  0.00385100  0.12946200  0.07757700  1
  C  C17  1  0.39645500  0.14194600  0.01470600  1
  C  C18  1  0.10354500  0.64194600  0.01470600  1
  C  C19  1  0.60354500  0.85805400  0.98529400  1
  C  C20  1  0.71891700  0.81536500  0.31930000  1
  C  C21  1  0.21891700  0.68463500  0.68070000  1
  C  C22  1  0.28108300  0.18463500  0.68070000  1
  C  C23  1  0.78108300  0.31536500  0.31930000  1
  C  C24  1  0.30071600  0.76563800  0.35118200  1
  C  C25  1  0.80071600  0.73436200  0.64881800  1
  C  C26  1  0.69928400  0.23436200  0.64881800  1
  C  C27  1  0.19928400  0.26563800  0.35118200  1
  C  C28  1  0.49364500  0.73016500  0.48106500  1
  C  C29  1  0.99364500  0.76983500  0.51893500  1
  C  C30  1  0.50635500  0.26983500  0.51893500  1
  C  C31  1  0.00635500  0.23016500  0.48106500  1
  C  C32  1  0.74783500  0.18326600  0.11520100  1
  C  C33  1  0.24783500  0.31673400  0.88479900  1
  C  C34  1  0.25216500  0.81673400  0.88479900  1
  C  C35  1  0.75216500  0.68326600  0.11520100  1
  C  C36  1  0.49614900  0.62946200  0.07757700  1
  C  C37  1  0.99614900  0.87053800  0.92242300  1
  C  C38  1  0.50385100  0.37053800  0.92242300  1
  C  C39  1  0.89645500  0.35805400  0.98529400  1
  Br  Br0  1  0.27345200  0.98647600  0.51238300  1
  Br  Br1  1  0.77345200  0.51352400  0.48761700  1
  Br  Br2  1  0.72654800  0.01352400  0.48761700  1
  Br  Br3  1  0.22654800  0.48647600  0.51238300  1
  N  N0  1  0.44776500  0.18648400  0.82500500  1
  N  N1  1  0.55223500  0.81351600  0.17499500  1
  N  N2  1  0.05223500  0.68648400  0.82500500  1
  N  N3  1  0.94776500  0.31351600  0.17499500  1
loop_
_geom_bond_atom_site_label_1
_geom_bond_atom_site_label_2
_geom_bond_distance
_geom_bond_site_symmetry_2
C0 H87 1.096568 1_655
C0 H103 1.099142 1_555
C0 H71 1.101618 1_555
C0 P0 1.806010 1_555
C1 H86 1.096568 1_555
C1 H102 1.099142 1_545
C1 H70 1.101618 1_555
C1 P10 1.806010 1_555
C2 H85 1.096568 1_455
C2 H101 1.099142 1_555
C2 H69 1.101618 1_555
C2 P9 1.806010 1_555
C3 H84 1.096568 1_555
C3 H100 1.099142 1_565
C3 H68 1.101618 1_555
C3 P8 1.806010 1_555
C4 H111 1.096585 1_555
C4 H115 1.102210 1_555
C4 H107 1.104200 1_555
C4 P1 1.799389 1_555
C5 H110 1.096585 1_555
C5 H114 1.102210 1_655
C5 H106 1.104200 1_555
C5 P4 1.799389 1_555
C6 H109 1.096585 1_555
C6 H113 1.102210 1_555
C6 H105 1.104200 1_555
C6 P3 1.799389 1_555
C7 H108 1.096585 1_555
C7 H112 1.102210 1_455
C7 H104 1.104200 1_555
C7 P2 1.799389 1_555
C8 H95 1.097798 1_555
C8 H91 1.099595 1_555
C8 H99 1.099786 1_555
C8 P11 1.850525 1_555
C9 H94 1.097798 1_555
C9 H90 1.099595 1_555
C9 H98 1.099786 1_555
C9 P5 1.850525 1_555
C10 H93 1.097798 1_555
C10 H89 1.099595 1_555
C10 H97 1.099786 1_555
C10 P6 1.850525 1_555
C11 H92 1.097798 1_555
C11 H88 1.099595 1_555
C11 H96 1.099786 1_555
C11 P7 1.850525 1_555
C12 H83 1.098454 1_555
C12 H75 1.100086 1_555
C12 H79 1.100264 1_555
C12 P11 1.844641 1_555
C13 H82 1.098454 1_555
C13 H74 1.100086 1_555
C13 H78 1.100264 1_555
C13 P5 1.844641 1_555
C14 H81 1.098454 1_555
C14 H73 1.100086 1_555
C14 H77 1.100264 1_555
C14 P6 1.844641 1_555
C15 H80 1.098454 1_555
C15 H72 1.100086 1_555
C15 H76 1.100264 1_555
C15 P7 1.844641 1_555
C16 H7 1.099138 1_555
C16 H11 1.100543 1_555
C16 H3 1.101290 1_455
C16 Si1 1.887105 1_455
C17 H26 1.099702 1_555
C17 H54 1.099728 1_555
C17 H42 1.101041 1_555
C17 Si3 1.881799 1_554
C18 H25 1.099702 1_555
C18 H53 1.099728 1_555
C18 H41 1.101041 1_555
C18 Si2 1.881799 1_554
C19 H24 1.099702 1_555
C19 H52 1.099728 1_555
C19 H40 1.101041 1_555
C19 Si0 1.881799 1_556
C20 H67 1.099023 1_555
C20 H59 1.100390 1_555
C20 H63 1.102716 1_555
C20 P8 1.814471 1_555
C21 H66 1.099023 1_555
C21 H58 1.100390 1_555
C21 H62 1.102716 1_555
C21 P9 1.814471 1_555
C22 H65 1.099023 1_555
C22 H57 1.100390 1_555
C22 H61 1.102716 1_555
C22 P10 1.814471 1_555
C23 H64 1.099023 1_555
C23 H56 1.100390 1_555
C23 H60 1.102716 1_555
C23 P0 1.814471 1_555
C24 H51 1.104630 1_555
C24 H47 1.110235 1_555
C24 P1 1.811973 1_555
C24 P11 1.874167 1_555
C25 H50 1.104630 1_555
C25 H46 1.110235 1_555
C25 P4 1.811973 1_555
C25 P5 1.874167 1_555
C26 H49 1.104630 1_555
C26 H45 1.110235 1_555
C26 P3 1.811973 1_555
C26 P6 1.874167 1_555
C27 H48 1.104630 1_555
C27 H44 1.110235 1_555
C27 P2 1.811973 1_555
C27 P7 1.874167 1_555
C28 H39 1.099016 1_555
C28 H35 1.099988 1_555
C28 H31 1.100555 1_555
C28 P1 1.804110 1_555
C29 H38 1.099016 1_555
C29 H34 1.099988 1_655
C29 H30 1.100555 1_555
C29 P4 1.804110 1_555
C30 H37 1.099016 1_555
C30 H33 1.099988 1_555
C30 H29 1.100555 1_555
C30 P3 1.804110 1_555
C31 H36 1.099016 1_555
C31 H32 1.099988 1_455
C31 H28 1.100555 1_555
C31 P2 1.804110 1_555
C32 H23 1.099884 1_555
C32 H19 1.100471 1_555
C32 H15 1.100784 1_555
C32 Si1 1.891015 1_555
C33 H22 1.099884 1_555
C33 H18 1.100471 1_555
C33 H14 1.100784 1_555
C33 Si3 1.891015 1_555
C34 H21 1.099884 1_555
C34 H17 1.100471 1_555
C34 H13 1.100784 1_555
C34 Si2 1.891015 1_555
C35 H20 1.099884 1_555
C35 H16 1.100471 1_555
C35 H12 1.100784 1_555
C35 Si0 1.891015 1_555
C36 H4 1.099138 1_555
C36 H8 1.100543 1_555
C36 H0 1.101290 1_555
C36 Si0 1.887105 1_555
C37 H5 1.099138 1_555
C37 H9 1.100543 1_555
C37 H1 1.101290 1_655
C37 Si2 1.887105 1_655
C38 H6 1.099138 1_555
C38 H10 1.100543 1_555
C38 H2 1.101290 1_555
C38 Si3 1.887105 1_555
C39 H27 1.099702 1_555
C39 H55 1.099728 1_555
C39 H43 1.101041 1_555
C39 Si1 1.881799 1_556
N0 P10 1.542884 1_555
N0 Si3 1.710513 1_555
N1 P8 1.542884 1_555
N1 Si0 1.710513 1_555
N2 P9 1.542884 1_555
N2 Si2 1.710513 1_555
N3 P0 1.542884 1_555
N3 Si1 1.710513 1_555
