# generated using pymatgen
data_Na8Mg(CoO4)2
_symmetry_space_group_name_H-M   'P 1'
_cell_length_a   5.77124100
_cell_length_b   5.77560665
_cell_length_c   9.08256156
_cell_angle_alpha   69.92683781
_cell_angle_beta   79.46876453
_cell_angle_gamma   70.92017148
_symmetry_Int_Tables_number   1
_chemical_formula_structural   Na8Mg(CoO4)2
_chemical_formula_sum   'Na8 Mg1 Co2 O8'
_cell_volume   267.88157107
_cell_formula_units_Z   1
loop_
 _symmetry_equiv_pos_site_id
 _symmetry_equiv_pos_as_xyz
  1  'x, y, z'
loop_
 _atom_site_type_symbol
 _atom_site_label
 _atom_site_symmetry_multiplicity
 _atom_site_fract_x
 _atom_site_fract_y
 _atom_site_fract_z
 _atom_site_occupancy
  Na  Na0  1  0.92141193  0.83772604  0.32911549  1
  Na  Na1  1  0.41247225  0.51845950  0.95240609  1
  Na  Na2  1  0.42735572  0.32381993  0.29724190  1
  Na  Na3  1  0.57781696  0.17339537  0.81012542  1
  Na  Na4  1  0.91742699  0.27844417  0.52795680  1
  Na  Na5  1  0.42995652  0.92411673  0.16799644  1
  Na  Na6  1  0.92969633  0.44159272  0.13418480  1
  Na  Na7  1  0.98120534  0.56373792  0.75064735  1
  Mg  Mg0  1  0.30243680  0.95934524  0.64692854  1
  Co  Co0  1  0.01946553  0.01139394  0.99178909  1
  Co  Co1  1  0.43866356  0.59820714  0.50230872  1
  O  O0  1  0.72119125  0.16688875  0.09749699  1
  O  O1  1  0.67395444  0.56415240  0.34358961  1
  O  O2  1  0.21227214  0.94500899  0.44494028  1
  O  O3  1  0.30625911  0.32592428  0.57874581  1
  O  O4  1  0.57102422  0.63219186  0.68034742  1
  O  O5  1  0.20292385  0.23899192  0.95736885  1
  O  O6  1  0.00000196  0.95250676  0.79602358  1
  O  O7  1  0.17731611  0.69430435  0.13268482  1
loop_
_geom_bond_atom_site_label_1
_geom_bond_atom_site_label_2
_geom_bond_distance
_geom_bond_site_symmetry_2
Na0 O7 2.302567 1_655
Na0 O1 2.411943 1_555
Na0 O2 2.466037 1_655
Na0 O0 2.466182 1_565
Na1 O7 2.232143 1_556
Na1 O5 2.296992 1_555
Na1 O0 2.385445 1_556
Na1 O4 2.413885 1_555
Na2 O7 2.338633 1_555
Na2 O0 2.447003 1_555
Na2 O1 2.457838 1_555
Na2 O3 2.527505 1_555
Na2 O2 2.698011 1_545
Na3 O5 2.316765 1_555
Na3 O6 2.355111 1_645
Na3 O4 2.493482 1_555
Na3 O3 2.584403 1_555
Na4 O1 2.224604 1_555
Na4 O2 2.357555 1_645
Na4 O3 2.488227 1_655
Na4 O6 2.527889 1_645
Na4 O4 2.888952 1_555
Na5 O1 2.340871 1_555
Na5 O5 2.377829 1_564
Na5 O7 2.391419 1_555
Na5 O0 2.394187 1_565
Na5 O2 2.621832 1_555
Na6 O1 2.347725 1_555
Na6 O7 2.348541 1_655
Na6 O5 2.364896 1_654
Na6 O0 2.415355 1_555
Na7 O5 2.360574 1_655
Na7 O4 2.436236 1_555
Na7 O6 2.456450 1_655
Na7 O3 2.561312 1_655
Mg0 O4 1.982071 1_555
Mg0 O3 1.998028 1_565
Mg0 O6 2.006537 1_555
Mg0 O2 2.030932 1_555
Co0 O5 1.858367 1_555
Co0 O7 1.883656 1_546
Co0 O0 1.915365 1_456
Co0 O6 1.950092 1_545
Co1 O1 1.806994 1_555
Co1 O3 1.838810 1_555
Co1 O2 1.952454 1_555
Co1 O4 2.001080 1_555
