# generated using pymatgen
data_TiPO4
_symmetry_space_group_name_H-M   'P 1'
_cell_length_a   4.97029200
_cell_length_b   6.02749500
_cell_length_c   10.00506200
_cell_angle_alpha   90.00000000
_cell_angle_beta   90.00000000
_cell_angle_gamma   90.00000000
_symmetry_Int_Tables_number   1
_chemical_formula_structural   TiPO4
_chemical_formula_sum   'Ti4 P4 O16'
_cell_volume   299.73575126
_cell_formula_units_Z   4
loop_
 _symmetry_equiv_pos_site_id
 _symmetry_equiv_pos_as_xyz
  1  'x, y, z'
loop_
 _atom_site_type_symbol
 _atom_site_label
 _atom_site_symmetry_multiplicity
 _atom_site_fract_x
 _atom_site_fract_y
 _atom_site_fract_z
 _atom_site_occupancy
  Ti  Ti0  1  0.01814600  0.75000000  0.26945800  1
  Ti  Ti1  1  0.48185400  0.75000000  0.76945800  1
  Ti  Ti2  1  0.98185400  0.25000000  0.73054200  1
  Ti  Ti3  1  0.51814600  0.25000000  0.23054200  1
  P  P0  1  0.58332500  0.75000000  0.09914300  1
  P  P1  1  0.91667500  0.75000000  0.59914300  1
  P  P2  1  0.41667500  0.25000000  0.90085700  1
  P  P3  1  0.08332500  0.25000000  0.40085700  1
  O  O0  1  0.72040400  0.25000000  0.87654200  1
  O  O1  1  0.22651100  0.45028300  0.32816200  1
  O  O2  1  0.72651100  0.54971700  0.17183800  1
  O  O3  1  0.77348900  0.95028300  0.67183800  1
  O  O4  1  0.27348900  0.04971700  0.82816200  1
  O  O5  1  0.77348900  0.54971700  0.67183800  1
  O  O6  1  0.27348900  0.45028300  0.82816200  1
  O  O7  1  0.22651100  0.04971700  0.32816200  1
  O  O8  1  0.27959600  0.75000000  0.12345800  1
  O  O9  1  0.77959600  0.25000000  0.37654200  1
  O  O10  1  0.72651100  0.95028300  0.17183800  1
  O  O11  1  0.22040400  0.75000000  0.62345800  1
  O  O12  1  0.64440700  0.75000000  0.94924700  1
  O  O13  1  0.35559300  0.25000000  0.05075300  1
  O  O14  1  0.14440700  0.25000000  0.55075300  1
  O  O15  1  0.85559300  0.75000000  0.44924700  1
loop_
_geom_bond_atom_site_label_1
_geom_bond_atom_site_label_2
_geom_bond_distance
_geom_bond_site_symmetry_2
O0 P2 1.529098 1_555
O0 Ti2 1.955100 1_555
O1 P3 1.578866 1_555
O1 Ti3 2.124231 1_555
O1 Ti0 2.163585 1_555
O2 P0 1.578866 1_555
O2 Ti0 2.124231 1_655
O2 Ti3 2.163585 1_555
O3 P1 1.578866 1_555
O3 Ti1 2.124231 1_555
O3 Ti2 2.163585 1_565
O4 P2 1.578866 1_555
O4 Ti2 2.124231 1_455
O4 Ti1 2.163585 1_545
O5 P1 1.578866 1_555
O5 Ti1 2.124231 1_555
O5 Ti2 2.163585 1_555
O6 P2 1.578866 1_555
O6 Ti2 2.124231 1_455
O6 Ti1 2.163585 1_555
O7 P3 1.578866 1_555
O7 Ti3 2.124231 1_555
O7 Ti0 2.163585 1_545
O8 P0 1.529098 1_555
O8 Ti0 1.955100 1_555
O9 P3 1.529098 1_655
O9 Ti3 1.955100 1_555
O10 P0 1.578866 1_555
O10 Ti0 2.124231 1_655
O10 Ti3 2.163585 1_565
O11 P1 1.529098 1_455
O11 Ti1 1.955100 1_555
O12 P0 1.530139 1_556
O12 Ti1 1.971913 1_555
O13 P2 1.530139 1_554
O13 Ti3 1.971913 1_555
O14 P3 1.530139 1_555
O14 Ti2 1.971913 1_455
O15 P1 1.530139 1_555
O15 Ti0 1.971913 1_655
