# generated using pymatgen
data_Rb2Mg(FeS2)2
_symmetry_space_group_name_H-M   'P 1'
_cell_length_a   5.09741310
_cell_length_b   9.00344075
_cell_length_c   7.74391848
_cell_angle_alpha   125.54367769
_cell_angle_beta   109.21558828
_cell_angle_gamma   90.00000000
_symmetry_Int_Tables_number   1
_chemical_formula_structural   Rb2Mg(FeS2)2
_chemical_formula_sum   'Rb2 Mg1 Fe2 S4'
_cell_volume   264.46753501
_cell_formula_units_Z   1
loop_
 _symmetry_equiv_pos_site_id
 _symmetry_equiv_pos_as_xyz
  1  'x, y, z'
loop_
 _atom_site_type_symbol
 _atom_site_label
 _atom_site_symmetry_multiplicity
 _atom_site_fract_x
 _atom_site_fract_y
 _atom_site_fract_z
 _atom_site_occupancy
  Rb  Rb0  1  0.29666475  0.43929863  0.59332950  1
  Rb  Rb1  1  0.70333525  0.84596914  0.40667050  1
  Mg  Mg0  1  0.50000000  0.22476920  1.00000000  1
  Fe  Fe0  1  0.75320194  0.96291754  0.00000000  1
  Fe  Fe1  1  0.24679806  0.96291754  0.00000000  1
  S  S0  1  0.65090600  0.14927338  0.30181101  1
  S  S1  1  0.34909400  0.84746138  0.69818900  1
  S  S2  1  0.00000000  0.17298291  0.00000000  1
  S  S3  1  1.00000000  0.77404028  1.00000000  1
loop_
_geom_bond_atom_site_label_1
_geom_bond_atom_site_label_2
_geom_bond_distance
_geom_bond_site_symmetry_2
Rb0 S1 3.259323 1_555
Rb0 S0 3.317383 1_455
Rb0 S0 3.317387 1_555
Rb0 S2 3.429987 1_555
Rb0 S3 3.658884 1_455
Rb0 S3 3.658885 1_555
Rb1 S0 3.259332 1_565
Rb1 S1 3.317387 1_655
Rb1 S1 3.317390 1_555
Rb1 S2 3.429987 1_666
Rb1 S3 3.658885 1_554
Rb1 S3 3.658885 1_454
Mg0 S2 2.591003 1_556
Mg0 S2 2.591003 1_656
Mg0 S0 2.679524 1_556
Mg0 S1 2.679531 1_545
Fe0 S3 2.115301 1_554
Fe0 S0 2.189182 1_565
Fe0 S1 2.189184 1_554
Fe0 S2 2.271498 1_665
Fe0 Mg0 2.687742 1_564
Fe1 S3 2.115301 1_454
Fe1 S1 2.189181 1_554
Fe1 S0 2.189185 1_565
Fe1 S2 2.271498 1_565
Fe1 Mg0 2.687742 1_564
