# generated using pymatgen
data_Na4Y2Mg2SiS5O24
_symmetry_space_group_name_H-M   'P 1'
_cell_length_a   9.12324446
_cell_length_b   9.05488546
_cell_length_c   23.29378806
_cell_angle_alpha   89.86234208
_cell_angle_beta   89.96623627
_cell_angle_gamma   119.92272814
_symmetry_Int_Tables_number   1
_chemical_formula_structural   Na4Y2Mg2SiS5O24
_chemical_formula_sum   'Na12 Y6 Mg6 Si3 S15 O72'
_cell_volume   1667.77892354
_cell_formula_units_Z   3
loop_
 _symmetry_equiv_pos_site_id
 _symmetry_equiv_pos_as_xyz
  1  'x, y, z'
loop_
 _atom_site_type_symbol
 _atom_site_label
 _atom_site_symmetry_multiplicity
 _atom_site_fract_x
 _atom_site_fract_y
 _atom_site_fract_z
 _atom_site_occupancy
  Na  Na0  1  0.99224201  0.62921144  0.23849608  1
  Na  Na1  1  0.98512563  0.34185696  0.76196720  1
  Na  Na2  1  0.37220720  0.99428136  0.75255650  1
  Na  Na3  1  0.65360115  0.97518798  0.59143994  1
  Na  Na4  1  0.67893581  0.68269969  0.07634015  1
  Na  Na5  1  0.33852881  0.03525971  0.42222509  1
  Na  Na6  1  0.01864841  0.00293830  0.49899187  1
  Na  Na7  1  0.01500243  0.98962471  0.00455754  1
  Na  Na8  1  0.66659721  0.32748245  0.84400536  1
  Na  Na9  1  0.66677108  0.33348470  0.33010128  1
  Na  Na10  1  0.31344237  0.66225015  0.16531648  1
  Na  Na11  1  0.35924937  0.69057370  0.67042267  1
  Y  Y0  1  0.98392446  0.99453638  0.85448069  1
  Y  Y1  1  0.00258311  0.99611525  0.64713101  1
  Y  Y2  1  0.00572373  0.00384414  0.15006469  1
  Y  Y3  1  0.65728079  0.32634702  0.68123529  1
  Y  Y4  1  0.31548250  0.66759379  0.02167837  1
  Y  Y5  1  0.32880194  0.66681519  0.51311572  1
  Mg  Mg0  1  0.99379315  0.00220565  0.34758065  1
  Mg  Mg1  1  0.67132148  0.33105451  0.17992336  1
  Mg  Mg2  1  0.67833761  0.34418724  0.98640536  1
  Mg  Mg3  1  0.65864009  0.33142374  0.48212571  1
  Mg  Mg4  1  0.33980537  0.66344883  0.31716083  1
  Mg  Mg5  1  0.35659722  0.68059126  0.81995736  1
  Si  Si0  1  0.69148844  0.99296369  0.74665546  1
  Si  Si1  1  0.36436884  0.03330943  0.57724483  1
  Si  Si2  1  0.95227673  0.62153150  0.08852331  1
  S  S0  1  0.30129791  0.99794445  0.25590445  1
  S  S1  1  0.69936640  0.70242137  0.25340877  1
  S  S2  1  0.00133104  0.30320074  0.25482356  1
  S  S3  1  0.29543016  0.30481134  0.75297175  1
  S  S4  1  0.00889595  0.69819226  0.75319071  1
  S  S5  1  0.95785942  0.33428990  0.58017969  1
  S  S6  1  0.66826215  0.62924351  0.57797345  1
  S  S7  1  0.66746265  0.04681424  0.08311664  1
  S  S8  1  0.38582192  0.33224480  0.08284188  1
  S  S9  1  0.62072746  0.65071106  0.91916206  1
  S  S10  1  0.03248563  0.37666145  0.91357073  1
  S  S11  1  0.34490296  0.97485917  0.91397453  1
  S  S12  1  0.63597089  0.96663122  0.41324971  1
  S  S13  1  0.33228124  0.36281108  0.41215276  1
  S  S14  1  0.02912475  0.66792303  0.41109433  1
  O  O0  1  0.22024532  0.02214479  0.30758892  1
  O  O1  1  0.81820948  0.79719637  0.30066248  1
  O  O2  1  0.98680293  0.19620867  0.30454543  1
  O  O3  1  0.21781047  0.18757483  0.80220230  1
  O  O4  1  0.98912678  0.78341372  0.80386036  1
  O  O5  1  0.83104337  0.03112519  0.79710231  1
  O  O6  1  0.77110128  0.97809100  0.68484919  1
  O  O7  1  0.19288752  0.22561064  0.70026013  1
  O  O8  1  0.03751781  0.80572315  0.70107473  1
  O  O9  1  0.77077346  0.79894900  0.19834158  1
  O  O10  1  0.02382337  0.22793567  0.20115660  1
  O  O11  1  0.18912990  0.96878382  0.20484245  1
  O  O12  1  0.89093916  0.35644225  0.63599224  1
  O  O13  1  0.46808824  0.11593534  0.63816044  1
  O  O14  1  0.65951236  0.54415998  0.63333389  1
  O  O15  1  0.87178591  0.52943010  0.14984209  1
  O  O16  1  0.64457858  0.12350392  0.13556203  1
  O  O17  1  0.48170350  0.34402062  0.13504835  1
  O  O18  1  0.45971928  0.30852249  0.03023404  1
  O  O19  1  0.83214559  0.53084347  0.03368140  1
  O  O20  1  0.67624855  0.13969339  0.03039309  1
  O  O21  1  0.46447929  0.14112819  0.52051588  1
  O  O22  1  0.68404369  0.53892613  0.52874138  1
  O  O23  1  0.85130158  0.32645466  0.53201126  1
  O  O24  1  0.54540949  0.67142046  0.97267759  1
  O  O25  1  0.13671738  0.46526009  0.96411583  1
  O  O26  1  0.32383805  0.86760725  0.96488768  1
  O  O27  1  0.56713844  0.87135130  0.46872621  1
  O  O28  1  0.30976272  0.43647533  0.46623405  1
  O  O29  1  0.14038637  0.69867773  0.46270381  1
  O  O30  1  0.11225757  0.64337463  0.36031522  1
  O  O31  1  0.51443386  0.87060991  0.36676018  1
  O  O32  1  0.34807368  0.47184864  0.36304827  1
  O  O33  1  0.11639559  0.46998812  0.85990316  1
  O  O34  1  0.35528015  0.88898632  0.86065514  1
  O  O35  1  0.52075002  0.64419346  0.86828485  1
  O  O36  1  0.01998378  0.82788935  0.40594310  1
  O  O37  1  0.80497831  0.98556088  0.40471654  1
  O  O38  1  0.18261407  0.18669336  0.40688004  1
  O  O39  1  0.01723958  0.20415014  0.91365431  1
  O  O40  1  0.19197100  0.99433582  0.91168071  1
  O  O41  1  0.79504202  0.80424759  0.91525590  1
  O  O42  1  0.95935901  0.16959939  0.58178222  1
  O  O43  1  0.17496539  0.01065742  0.58116297  1
  O  O44  1  0.81656720  0.80640604  0.57910889  1
  O  O45  1  0.97104402  0.81696941  0.08844397  1
  O  O46  1  0.82417418  0.03203755  0.08703013  1
  O  O47  1  0.20724698  0.18945057  0.08728969  1
  O  O48  1  0.67617279  0.16987804  0.74890221  1
  O  O49  1  0.46779829  0.33014300  0.74657067  1
  O  O50  1  0.85527394  0.52829548  0.74726586  1
  O  O51  1  0.68629329  0.53192685  0.25000216  1
  O  O52  1  0.84597816  0.31900857  0.25100592  1
  O  O53  1  0.47060375  0.14827122  0.24691041  1
  O  O54  1  0.63549055  0.49532934  0.92071903  1
  O  O55  1  0.86217364  0.35794144  0.91813480  1
  O  O56  1  0.49912739  0.14263473  0.91928614  1
  O  O57  1  0.64696956  0.13673490  0.41721418  1
  O  O58  1  0.48737433  0.34583621  0.41590243  1
  O  O59  1  0.86021095  0.51710056  0.42041803  1
  O  O60  1  0.38148404  0.49677750  0.07967889  1
  O  O61  1  0.14544071  0.64880430  0.08513622  1
  O  O62  1  0.52352070  0.86583119  0.08018903  1
  O  O63  1  0.35886838  0.84634529  0.57792348  1
  O  O64  1  0.51389230  0.64574803  0.57518334  1
  O  O65  1  0.13351950  0.47647914  0.57548310  1
  O  O66  1  0.30987118  0.83749825  0.26096255  1
  O  O67  1  0.53011652  0.68478721  0.26149688  1
  O  O68  1  0.15114755  0.47942736  0.25977528  1
  O  O69  1  0.29934284  0.46845292  0.76133302  1
  O  O70  1  0.15794051  0.67553140  0.75882168  1
  O  O71  1  0.50271236  0.83066359  0.75643685  1
loop_
_geom_bond_atom_site_label_1
_geom_bond_atom_site_label_2
_geom_bond_distance
_geom_bond_site_symmetry_2
Na0 O15 2.304269 1_555
Na0 O52 2.451820 1_555
Na0 O68 2.479148 1_655
Na0 O51 2.486723 1_555
Na0 O66 2.604268 1_655
Na0 O11 2.787822 1_655
Na1 O48 2.467113 1_555
Na1 O69 2.500709 1_655
Na1 O50 2.522622 1_555
Na1 O5 2.569840 1_555
Na1 O33 2.571846 1_655
Na1 O70 2.620347 1_655
Na2 O71 2.319496 1_555
Na2 O48 2.413667 1_565
Na2 O70 2.557684 1_555
Na2 O34 2.667294 1_555
Na2 O49 2.716730 1_565
Na2 O13 2.846252 1_565
Na2 O8 2.913717 1_555
Na2 O3 2.975285 1_565
Na3 O63 2.358718 1_555
Na3 O6 2.420557 1_555
Na3 O42 2.455426 1_565
Na3 O64 2.622829 1_555
Na3 O44 2.626264 1_555
Na3 O13 2.798132 1_565
Na3 O27 2.992113 1_555
Na4 O45 2.330189 1_555
Na4 O60 2.376083 1_555
Na4 O19 2.598910 1_555
Na4 O62 2.667294 1_555
Na4 O24 2.684343 1_554
Na4 O46 2.765184 1_565
Na5 O58 2.441763 1_555
Na5 O38 2.444488 1_555
Na5 O57 2.489159 1_555
Na5 O21 2.529058 1_555
Na5 O36 2.583791 1_545
Na5 O29 2.816576 1_545
Na5 O0 2.861162 1_555
Na5 O31 2.976787 1_545
Na6 O43 2.367868 1_555
Na6 O44 2.599127 1_445
Na6 O38 2.665678 1_555
Na6 O42 2.667623 1_455
Na6 O36 2.691866 1_545
Na6 O37 2.889293 1_445
Na7 O45 2.404600 1_455
Na7 O47 2.630327 1_565
Na7 O40 2.686220 1_554
Na7 O46 2.745132 1_465
Na7 O41 2.798726 1_454
Na7 O39 2.863231 1_564
Na8 O56 2.375360 1_555
Na8 O55 2.399251 1_555
Na8 O54 2.454872 1_555
Na8 O48 2.662925 1_555
Na8 O50 2.863633 1_555
Na8 O49 2.913662 1_555
Na9 O52 2.509225 1_555
Na9 O51 2.530995 1_555
Na9 O53 2.606921 1_555
Na9 O58 2.620231 1_555
Na9 O57 2.642964 1_555
Na9 O59 2.720060 1_555
Na10 O61 2.381314 1_555
Na10 O68 2.703221 1_555
Na10 O62 2.730693 1_555
Na10 O60 2.747820 1_555
Na10 O66 2.747989 1_555
Na10 O67 2.928079 1_555
Na11 O71 2.386520 1_555
Na11 O63 2.573392 1_555
Na11 O70 2.715940 1_555
Na11 O64 2.765657 1_555
Na11 O69 2.776664 1_555
Na11 O65 2.988806 1_555
Mg0 O2 2.048968 1_555
Mg0 O1 2.061938 1_545
Mg0 O37 2.121019 1_545
Mg0 O36 2.182434 1_645
Mg0 O0 2.189396 1_655
Mg0 O38 2.192960 1_655
Mg1 O15 1.943539 1_555
Mg1 O16 2.052180 1_555
Mg1 O17 2.074437 1_555
Mg1 O52 2.338416 1_555
Mg1 O53 2.342626 1_555
Mg1 O51 2.399660 1_555
Mg2 O19 1.919121 1_556
Mg2 O20 2.105844 1_556
Mg2 O18 2.116147 1_556
Mg2 O54 2.211635 1_555
Mg2 O55 2.268248 1_555
Mg2 O56 2.342674 1_555
Mg3 O21 1.962688 1_555
Mg3 O22 2.082968 1_555
Mg3 O23 2.126707 1_555
Mg3 O58 2.245736 1_555
Mg3 O59 2.274939 1_555
Mg3 O57 2.287157 1_555
Mg4 O32 2.068794 1_555
Mg4 O67 2.096331 1_555
Mg4 O31 2.103050 1_555
Mg4 O68 2.162855 1_555
Mg4 O66 2.166084 1_555
Mg4 O30 2.230110 1_555
Mg5 O71 1.998421 1_555
Mg5 O35 2.027645 1_555
Mg5 O34 2.119152 1_555
Mg5 O69 2.199976 1_555
Mg5 O33 2.263748 1_555
Mg5 O70 2.288098 1_555
O0 S0 1.485309 1_545
O1 S1 1.483667 1_555
O2 S2 1.471025 1_655
O3 S3 1.478738 1_555
O3 Y0 2.314522 1_445
O4 S4 1.471075 1_655
O4 Y0 2.269025 1_555
O5 Si0 1.638925 1_545
O5 Y0 2.074279 1_545
O6 Si0 1.647943 1_555
O6 Y1 2.216259 1_655
O7 S3 1.494448 1_555
O7 Y1 2.297759 1_545
O8 S4 1.493409 1_555
O8 Y1 2.278344 1_555
O9 S1 1.503094 1_555
O9 Y2 2.306721 1_665
O10 S2 1.487499 1_555
O10 Y2 2.288790 1_555
O11 S0 1.505006 1_555
O11 Y2 2.249276 1_565
O12 S5 1.491878 1_555
O12 Y3 2.268388 1_555
O13 Si1 1.664023 1_555
O13 Y3 2.084791 1_555
O14 S6 1.482100 1_555
O14 Y3 2.254912 1_555
O15 Si2 1.630026 1_555
O16 S7 1.471954 1_555
O17 S8 1.471138 1_555
O18 S8 1.465308 1_555
O19 Si2 1.617483 1_555
O20 S7 1.466184 1_555
O21 Si1 1.623663 1_555
O22 S6 1.458248 1_555
O23 S5 1.463528 1_555
O24 S9 1.479851 1_555
O24 Y4 2.372501 1_556
O25 S10 1.476100 1_555
O25 Y4 2.201758 1_556
O26 S11 1.481408 1_555
O26 Y4 2.210545 1_556
O27 S12 1.503924 1_555
O27 Y5 2.279853 1_555
O28 S13 1.488140 1_555
O28 Y5 2.285307 1_555
O29 S14 1.508039 1_555
O29 Y5 2.216426 1_555
O30 S14 1.480591 1_555
O31 S12 1.484002 1_555
O32 S13 1.468459 1_555
O33 S10 1.487063 1_555
O34 S11 1.494695 1_555
O35 S9 1.479144 1_555
O36 S14 1.496372 1_555
O37 S12 1.477205 1_555
O38 S13 1.500466 1_555
O39 S10 1.497542 1_555
O39 Y0 2.243288 1_445
O40 S11 1.492035 1_555
O40 Y0 2.320419 1_455
O41 S9 1.504538 1_555
O41 Y0 2.228383 1_555
O42 S5 1.498501 1_555
O42 Y1 2.355326 1_645
O43 Si1 1.637810 1_555
O43 Y1 2.154422 1_545
O44 S6 1.496530 1_555
O44 Y1 2.334379 1_655
O45 Si2 1.690780 1_555
O45 Y2 2.121745 1_665
O46 S7 1.503746 1_555
O46 Y2 2.321084 1_655
O47 S8 1.494775 1_555
O47 Y2 2.290272 1_555
O48 Si0 1.676955 1_545
O48 Y3 2.180535 1_555
O49 S3 1.479012 1_555
O49 Y3 2.315643 1_555
O50 S4 1.483299 1_655
O50 Y3 2.386184 1_555
O51 S1 1.490224 1_555
O52 S2 1.496558 1_655
O53 S0 1.477573 1_545
O54 S9 1.479128 1_555
O55 S10 1.480296 1_655
O56 S11 1.473612 1_545
O57 S12 1.495836 1_545
O58 S13 1.500134 1_555
O59 S14 1.478374 1_655
O60 S8 1.511579 1_555
O60 Y4 2.345287 1_555
O61 Si2 1.654814 1_455
O61 Y4 2.086467 1_555
O62 S7 1.506117 1_565
O62 Y4 2.301711 1_555
O63 Si1 1.668510 1_565
O63 Y5 2.136411 1_555
O64 S6 1.489987 1_555
O64 Y5 2.302406 1_555
O65 S5 1.475984 1_455
O65 Y5 2.275209 1_555
O66 S0 1.497748 1_555
O67 S1 1.482833 1_555
O68 S2 1.500968 1_555
O69 S3 1.477645 1_555
O70 S4 1.478758 1_555
O71 Si0 1.628072 1_555
