# generated using pymatgen
data_Na6Ca8Ta4Si3(S5O24)3
_symmetry_space_group_name_H-M   'P 1'
_cell_length_a   9.12311664
_cell_length_b   9.11138190
_cell_length_c   23.72858703
_cell_angle_alpha   89.81337022
_cell_angle_beta   90.24458979
_cell_angle_gamma   119.85215204
_symmetry_Int_Tables_number   1
_chemical_formula_structural   Na6Ca8Ta4Si3(S5O24)3
_chemical_formula_sum   'Na6 Ca8 Ta4 Si3 S15 O72'
_cell_volume   1710.68777510
_cell_formula_units_Z   1
loop_
 _symmetry_equiv_pos_site_id
 _symmetry_equiv_pos_as_xyz
  1  'x, y, z'
loop_
 _atom_site_type_symbol
 _atom_site_label
 _atom_site_symmetry_multiplicity
 _atom_site_fract_x
 _atom_site_fract_y
 _atom_site_fract_z
 _atom_site_occupancy
  Na  Na0  1  0.97404407  0.97155822  0.48659172  1
  Na  Na1  1  0.00697266  0.03112278  0.99762779  1
  Na  Na2  1  0.66619556  0.32719602  0.82864862  1
  Na  Na3  1  0.67340045  0.33703421  0.33410699  1
  Na  Na4  1  0.33326505  0.65780681  0.17559152  1
  Na  Na5  1  0.34195462  0.67503707  0.65130532  1
  Ca  Ca0  1  0.99323533  0.99684548  0.35206393  1
  Ca  Ca1  1  0.99803383  0.00430638  0.85207826  1
  Ca  Ca2  1  0.99638284  0.99745082  0.64231177  1
  Ca  Ca3  1  0.00018553  0.00123520  0.15318308  1
  Ca  Ca4  1  0.66639787  0.33069409  0.68433933  1
  Ca  Ca5  1  0.66686343  0.33345415  0.18958974  1
  Ca  Ca6  1  0.33083031  0.66105403  0.01980908  1
  Ca  Ca7  1  0.33766245  0.67336913  0.51718113  1
  Ta  Ta0  1  0.67474620  0.33578749  0.97988169  1
  Ta  Ta1  1  0.67336435  0.33369819  0.47655531  1
  Ta  Ta2  1  0.33188268  0.67507710  0.32460382  1
  Ta  Ta3  1  0.32130700  0.65691422  0.81858363  1
  Si  Si0  1  0.03401725  0.36938387  0.92074788  1
  Si  Si1  1  0.63250167  0.96657689  0.42144837  1
  Si  Si2  1  0.03608852  0.66715985  0.42150381  1
  S  S0  1  0.29962594  0.98524230  0.25274032  1
  S  S1  1  0.68345043  0.69903680  0.25187982  1
  S  S2  1  0.01756139  0.31662633  0.25180846  1
  S  S3  1  0.30170115  0.30981483  0.75428870  1
  S  S4  1  0.00823671  0.70015993  0.75447201  1
  S  S5  1  0.68573263  0.98729057  0.75446863  1
  S  S6  1  0.95130222  0.32837719  0.58039576  1
  S  S7  1  0.37648485  0.04890913  0.58150291  1
  S  S8  1  0.66858574  0.61972125  0.58114180  1
  S  S9  1  0.94957786  0.62540026  0.08062642  1
  S  S10  1  0.67355208  0.05074934  0.08007055  1
  S  S11  1  0.37883897  0.32625460  0.07973667  1
  S  S12  1  0.61846733  0.65286671  0.91705485  1
  S  S13  1  0.34650852  0.96466690  0.91707369  1
  S  S14  1  0.34600603  0.38116632  0.41707799  1
  O  O0  1  0.21694687  0.00781126  0.30110171  1
  O  O1  1  0.79012890  0.78375699  0.30016466  1
  O  O2  1  0.99739442  0.21153218  0.30038199  1
  O  O3  1  0.22063109  0.20682820  0.80372093  1
  O  O4  1  0.98824113  0.78078196  0.80431781  1
  O  O5  1  0.79276767  0.01060040  0.80329593  1
  O  O6  1  0.75103822  0.95591799  0.70210165  1
  O  O7  1  0.20328692  0.24840487  0.70247763  1
  O  O8  1  0.03937296  0.79789091  0.70266502  1
  O  O9  1  0.75410646  0.79467366  0.19840786  1
  O  O10  1  0.03792410  0.24276471  0.19840036  1
  O  O11  1  0.20407918  0.95883971  0.19936497  1
  O  O12  1  0.86887258  0.33820986  0.63204281  1
  O  O13  1  0.46508179  0.13087358  0.63429949  1
  O  O14  1  0.66746033  0.53332421  0.63376110  1
  O  O15  1  0.86496308  0.52740631  0.13028498  1
  O  O16  1  0.66363025  0.13597845  0.12999244  1
  O  O17  1  0.47140624  0.33114233  0.13049144  1
  O  O18  1  0.48145065  0.32316680  0.02750528  1
  O  O19  1  0.83897402  0.51859428  0.02743181  1
  O  O20  1  0.67809276  0.16119807  0.02683579  1
  O  O21  1  0.47783429  0.15444904  0.53152457  1
  O  O22  1  0.67018540  0.51755393  0.53065767  1
  O  O23  1  0.84304485  0.32531221  0.52936031  1
  O  O24  1  0.55062643  0.68412299  0.96780646  1
  O  O25  1  0.14094872  0.46241964  0.97399486  1
  O  O26  1  0.32869113  0.87078263  0.96828272  1
  O  O27  1  0.55481190  0.85434063  0.47501252  1
  O  O28  1  0.31789469  0.44961913  0.46795195  1
  O  O29  1  0.13413909  0.67245880  0.47613346  1
  O  O30  1  0.14007658  0.63578266  0.36399471  1
  O  O31  1  0.49577933  0.85856293  0.36447797  1
  O  O32  1  0.37148837  0.49822515  0.36602518  1
  O  O33  1  0.14284327  0.50342845  0.86374692  1
  O  O34  1  0.37125631  0.87489625  0.86641299  1
  O  O35  1  0.50525340  0.63130408  0.86660732  1
  O  O36  1  0.00189772  0.81753254  0.40971105  1
  O  O37  1  0.82282544  0.02479978  0.40786488  1
  O  O38  1  0.21058119  0.21202958  0.40450962  1
  O  O39  1  0.99302690  0.18026219  0.91171119  1
  O  O40  1  0.20207542  0.98870062  0.90722553  1
  O  O41  1  0.79083488  0.78678046  0.90637392  1
  O  O42  1  0.95535134  0.16896420  0.57807943  1
  O  O43  1  0.20940916  0.03904201  0.57967957  1
  O  O44  1  0.82401334  0.78740194  0.57838848  1
  O  O45  1  0.95215377  0.78722532  0.07672246  1
  O  O46  1  0.83074272  0.04404939  0.07660953  1
  O  O47  1  0.21220360  0.17087953  0.07650602  1
  O  O48  1  0.65455825  0.13142515  0.75035237  1
  O  O49  1  0.47704204  0.34463242  0.75006393  1
  O  O50  1  0.87122249  0.52347493  0.75028551  1
  O  O51  1  0.65713343  0.52493107  0.24763405  1
  O  O52  1  0.87194122  0.34648812  0.24757599  1
  O  O53  1  0.47526557  0.12706407  0.24791254  1
  O  O54  1  0.62005282  0.48576161  0.92273354  1
  O  O55  1  0.84206466  0.36466018  0.92685504  1
  O  O56  1  0.50619926  0.13846625  0.92106644  1
  O  O57  1  0.62275012  0.14994454  0.42897743  1
  O  O58  1  0.51136804  0.37845547  0.42181099  1
  O  O59  1  0.84288788  0.48365869  0.42700689  1
  O  O60  1  0.36633739  0.48044282  0.07675511  1
  O  O61  1  0.11732071  0.64397716  0.07547632  1
  O  O62  1  0.52247124  0.88540787  0.07391739  1
  O  O63  1  0.35861231  0.87884035  0.58047330  1
  O  O64  1  0.51469198  0.63417140  0.58024674  1
  O  O65  1  0.12111689  0.47667086  0.57768023  1
  O  O66  1  0.31139844  0.82245493  0.26083587  1
  O  O67  1  0.51001854  0.68294733  0.25968227  1
  O  O68  1  0.17790105  0.48816160  0.25875768  1
  O  O69  1  0.31838755  0.48870919  0.76594520  1
  O  O70  1  0.17578877  0.69157362  0.76498784  1
  O  O71  1  0.51266695  0.82801314  0.76645900  1
loop_
_geom_bond_atom_site_label_1
_geom_bond_atom_site_label_2
_geom_bond_distance
_geom_bond_site_symmetry_2
Na0 O36 2.395347 1_655
Na0 O37 2.503325 1_565
Na0 O44 2.673712 1_555
Na0 O42 2.882854 1_565
Na0 O43 2.919206 1_665
Na0 O38 2.924375 1_665
Na1 O39 2.484104 1_455
Na1 O47 2.498476 1_556
Na1 O46 2.515315 1_456
Na1 O45 2.754144 1_446
Na1 O40 2.939737 1_545
Na1 O41 3.026200 1_445
Na2 O48 2.544804 1_555
Na2 O49 2.593033 1_555
Na2 O50 2.613885 1_555
Na2 O56 2.720400 1_555
Na2 O55 2.747576 1_555
Na2 O54 2.807684 1_555
Na3 O59 2.639806 1_555
Na3 O58 2.691720 1_555
Na3 O52 2.716507 1_555
Na3 O57 2.717846 1_555
Na3 O51 2.718572 1_555
Na3 O53 2.768002 1_555
Na4 O68 2.472958 1_555
Na4 O67 2.498397 1_555
Na4 O66 2.588994 1_555
Na4 O60 2.952783 1_555
Na4 O61 3.042271 1_555
Na4 O62 3.088687 1_555
Na5 O63 2.448897 1_555
Na5 O64 2.464962 1_555
Na5 O65 2.596781 1_555
Ca0 O37 2.156161 1_565
Ca0 O36 2.158628 1_655
Ca0 O1 2.265877 1_555
Ca0 O2 2.289656 1_565
Ca0 O38 2.334323 1_665
Ca0 O0 2.335602 1_665
Ca1 O39 2.159355 1_555
Ca1 O5 2.222168 1_555
Ca1 O3 2.263014 1_655
Ca1 O4 2.296337 1_545
Ca1 O41 2.331456 1_545
Ca1 O40 2.332214 1_645
Ca2 O43 2.327482 1_665
Ca2 O44 2.332122 1_555
Ca2 O42 2.338209 1_565
Ca2 O8 2.489780 1_655
Ca2 O6 2.519205 1_555
Ca2 O7 2.555579 1_665
Ca3 O10 2.317460 1_555
Ca3 O11 2.346351 1_545
Ca3 O9 2.352630 1_445
Ca3 O46 2.532780 1_455
Ca3 O45 2.539990 1_445
Ca3 O47 2.544843 1_555
Ca4 O13 2.182746 1_555
Ca4 O14 2.194745 1_555
Ca4 O12 2.202230 1_555
Ca4 O48 2.355718 1_555
Ca4 O49 2.382297 1_555
Ca4 O50 2.398143 1_555
Ca5 O17 2.255686 1_555
Ca5 O51 2.262616 1_555
Ca5 O52 2.272802 1_555
Ca5 O15 2.279354 1_555
Ca5 O16 2.280679 1_555
Ca5 O53 2.288722 1_555
Ca6 O25 2.081771 1_554
Ca6 O60 2.269654 1_555
Ca6 O26 2.273446 1_554
Ca6 O24 2.277626 1_554
Ca6 O61 2.298285 1_555
Ca6 O62 2.307339 1_555
Ca7 O29 2.089406 1_555
Ca7 O27 2.097364 1_555
Ca7 O28 2.280560 1_555
Ca7 O63 2.335925 1_555
Ca7 O64 2.350633 1_555
Ca7 O65 2.378728 1_555
O0 S0 1.446184 1_545
O1 S1 1.450549 1_555
O2 S2 1.448597 1_655
O3 S3 1.453506 1_555
O4 S4 1.453525 1_655
O5 S5 1.458247 1_545
O6 S5 1.469318 1_555
O7 S3 1.457932 1_555
O8 S4 1.459057 1_555
O9 S1 1.491747 1_555
O10 S2 1.491807 1_555
O11 S0 1.485120 1_555
O12 S6 1.466658 1_555
O13 S7 1.475479 1_555
O14 S8 1.471190 1_555
O15 S9 1.447865 1_555
O16 S10 1.446146 1_555
O17 S11 1.455962 1_555
O18 S11 1.565105 1_555
O18 Ta0 2.052873 1_554
O19 S9 1.605615 1_555
O19 Ta0 1.950791 1_554
O20 S10 1.600231 1_555
O20 Ta0 1.951736 1_554
O21 S7 1.517499 1_555
O21 Ta1 2.157871 1_555
O22 S8 1.524042 1_555
O22 Ta1 2.125520 1_555
O23 S6 1.550900 1_555
O23 Ta1 2.018102 1_555
O24 S12 1.448616 1_555
O25 Si0 1.561995 1_555
O26 S13 1.446084 1_555
O27 Si1 1.562442 1_555
O28 S14 1.441810 1_555
O29 Si2 1.558966 1_555
O30 Si2 1.768479 1_555
O30 Ta2 1.857945 1_555
O31 Si1 1.767493 1_555
O31 Ta2 1.853528 1_555
O32 S14 1.551216 1_555
O32 Ta2 2.063823 1_555
O33 Si0 1.760771 1_555
O33 Ta3 1.869073 1_555
O34 S13 1.535455 1_555
O34 Ta3 2.132985 1_555
O35 S12 1.525547 1_555
O35 Ta3 2.130963 1_555
O36 Si2 1.573213 1_555
O37 Si1 1.576983 1_545
O38 S14 1.447296 1_555
O39 Si0 1.585975 1_655
O40 S13 1.457098 1_555
O41 S12 1.455021 1_555
O42 S6 1.472418 1_555
O43 S7 1.482004 1_555
O44 S8 1.480729 1_555
O45 S9 1.465527 1_555
O46 S10 1.468065 1_555
O47 S11 1.475911 1_555
O48 S5 1.478463 1_545
O49 S3 1.471580 1_555
O50 S4 1.469912 1_655
O51 S1 1.485244 1_555
O52 S2 1.485794 1_655
O53 S0 1.479793 1_545
O54 S12 1.535292 1_555
O54 Ta0 2.148491 1_555
O55 Si0 1.736855 1_655
O55 Ta0 1.896566 1_555
O56 S13 1.530419 1_545
O56 Ta0 2.188683 1_555
O57 Si1 1.726624 1_545
O57 Ta1 1.878589 1_555
O58 S14 1.524723 1_555
O58 Ta1 2.148975 1_555
O59 Si2 1.727992 1_655
O59 Ta1 1.882145 1_555
O60 S11 1.466446 1_555
O61 S9 1.459147 1_455
O62 S10 1.457114 1_565
O63 S7 1.475468 1_565
O64 S8 1.474017 1_555
O65 S6 1.465027 1_455
O66 S0 1.550783 1_555
O66 Ta2 2.088491 1_555
O67 S1 1.526650 1_555
O67 Ta2 2.219017 1_555
O68 S2 1.527515 1_555
O68 Ta2 2.220790 1_555
O69 S3 1.584944 1_555
O69 Ta3 1.970064 1_555
O70 S4 1.587659 1_555
O70 Ta3 1.969742 1_555
O71 S5 1.549192 1_555
O71 Ta3 2.074693 1_555
