# generated using pymatgen
data_Na3TaGaSi2PO12
_symmetry_space_group_name_H-M   'P 1'
_cell_length_a   8.92119452
_cell_length_b   8.92119421
_cell_length_c   22.29825504
_cell_angle_alpha   89.22306333
_cell_angle_beta   90.77693666
_cell_angle_gamma   119.56059774
_symmetry_Int_Tables_number   1
_chemical_formula_structural   Na3TaGaSi2PO12
_chemical_formula_sum   'Na18 Ta6 Ga6 Si12 P6 O72'
_cell_volume   1543.47637112
_cell_formula_units_Z   6
loop_
 _symmetry_equiv_pos_site_id
 _symmetry_equiv_pos_as_xyz
  1  'x, y, z'
loop_
 _atom_site_type_symbol
 _atom_site_label
 _atom_site_symmetry_multiplicity
 _atom_site_fract_x
 _atom_site_fract_y
 _atom_site_fract_z
 _atom_site_occupancy
  Na  Na0  1  0.99793138  0.99584381  0.49505112  1
  Na  Na1  1  0.00415619  0.00206862  0.99505112  1
  Na  Na2  1  0.66459838  0.32917681  0.82838412  1
  Na  Na3  1  0.67082319  0.33540162  0.32838412  1
  Na  Na4  1  0.33126438  0.66251081  0.16171812  1
  Na  Na5  1  0.33748919  0.66873562  0.66171812  1
  Na  Na6  1  0.64255040  0.00949783  0.24930740  1
  Na  Na7  1  0.98965805  0.62675411  0.24864596  1
  Na  Na8  1  0.99050217  0.35744960  0.74930740  1
  Na  Na9  1  0.37324589  0.01034195  0.74864596  1
  Na  Na10  1  0.30921740  0.34283083  0.58264040  1
  Na  Na11  1  0.65632505  0.96008711  0.58197896  1
  Na  Na12  1  0.65716917  0.69078260  0.08264040  1
  Na  Na13  1  0.03991289  0.34367495  0.08197896  1
  Na  Na14  1  0.97588340  0.67616483  0.91597440  1
  Na  Na15  1  0.32299105  0.29342111  0.91531296  1
  Na  Na16  1  0.32383517  0.02411660  0.41597440  1
  Na  Na17  1  0.70657889  0.67700895  0.41531296  1
  Ta  Ta0  1  0.99734346  0.99523896  0.64621921  1
  Ta  Ta1  1  0.00476104  0.00265654  0.14621921  1
  Ta  Ta2  1  0.66401046  0.32857196  0.97955221  1
  Ta  Ta3  1  0.67142804  0.33598954  0.47955221  1
  Ta  Ta4  1  0.33067646  0.66190596  0.31288621  1
  Ta  Ta5  1  0.33809404  0.66932354  0.81288621  1
  Ga  Ga0  1  0.98638124  0.99452865  0.35171016  1
  Ga  Ga1  1  0.00547135  0.01361876  0.85171016  1
  Ga  Ga2  1  0.65304824  0.32786165  0.68504316  1
  Ga  Ga3  1  0.67213835  0.34695176  0.18504316  1
  Ga  Ga4  1  0.31971424  0.66119565  0.01837716  1
  Ga  Ga5  1  0.33880435  0.68028576  0.51837716  1
  Si  Si0  1  0.70869999  0.70460265  0.25101515  1
  Si  Si1  1  0.99734728  0.28735373  0.25081289  1
  Si  Si2  1  0.29539735  0.29130001  0.75101515  1
  Si  Si3  1  0.71264627  0.00265272  0.75081289  1
  Si  Si4  1  0.37536699  0.03793565  0.58434815  1
  Si  Si5  1  0.66401428  0.62068673  0.58414589  1
  Si  Si6  1  0.96206435  0.62463301  0.08434815  1
  Si  Si7  1  0.37931327  0.33598572  0.08414589  1
  Si  Si8  1  0.04203299  0.37126965  0.91768215  1
  Si  Si9  1  0.33068028  0.95402073  0.91747989  1
  Si  Si10  1  0.62873035  0.95796701  0.41768215  1
  Si  Si11  1  0.04597927  0.66931972  0.41747989  1
  P  P0  1  0.29297565  0.00708597  0.25290673  1
  P  P1  1  0.99291403  0.70702435  0.75290673  1
  P  P2  1  0.95964265  0.34041897  0.58623973  1
  P  P3  1  0.65958103  0.04035735  0.08623973  1
  P  P4  1  0.62630865  0.67375297  0.91957373  1
  P  P5  1  0.32624703  0.37369135  0.41957373  1
  O  O0  1  0.21091766  0.02939320  0.30899496  1
  O  O1  1  0.82938480  0.78857069  0.30964820  1
  O  O2  1  0.96394158  0.16244388  0.30740041  1
  O  O3  1  0.21142931  0.17061520  0.80964820  1
  O  O4  1  0.97060680  0.78908234  0.80899496  1
  O  O5  1  0.83755612  0.03605842  0.80740041  1
  O  O6  1  0.79950611  0.96905818  0.69018493  1
  O  O7  1  0.16515778  0.19954801  0.69170996  1
  O  O8  1  0.03017625  0.83072543  0.69676134  1
  O  O9  1  0.80045199  0.83484222  0.19170996  1
  O  O10  1  0.03094182  0.20049389  0.19018493  1
  O  O11  1  0.16927457  0.96982375  0.19676134  1
  O  O12  1  0.87758466  0.36272620  0.64232796  1
  O  O13  1  0.49605180  0.12190369  0.64298120  1
  O  O14  1  0.63060858  0.49577688  0.64073341  1
  O  O15  1  0.87809631  0.50394820  0.14298120  1
  O  O16  1  0.63727380  0.12241534  0.14232796  1
  O  O17  1  0.50422312  0.36939142  0.14073341  1
  O  O18  1  0.46617311  0.30239118  0.02351793  1
  O  O19  1  0.83182478  0.53288101  0.02504296  1
  O  O20  1  0.69684325  0.16405843  0.03009434  1
  O  O21  1  0.46711899  0.16817522  0.52504296  1
  O  O22  1  0.69760882  0.53382689  0.52351793  1
  O  O23  1  0.83594157  0.30315675  0.53009434  1
  O  O24  1  0.54425066  0.69606020  0.97566196  1
  O  O25  1  0.16271780  0.45523769  0.97631520  1
  O  O26  1  0.29727458  0.82911088  0.97406741  1
  O  O27  1  0.54476231  0.83728220  0.47631520  1
  O  O28  1  0.30393980  0.45574934  0.47566196  1
  O  O29  1  0.17088912  0.70272542  0.47406741  1
  O  O30  1  0.13283911  0.63572518  0.35685193  1
  O  O31  1  0.49849078  0.86621501  0.35837696  1
  O  O32  1  0.36350925  0.49739243  0.36342834  1
  O  O33  1  0.13378499  0.50150922  0.85837696  1
  O  O34  1  0.36427482  0.86716089  0.85685193  1
  O  O35  1  0.50260757  0.63649075  0.86342834  1
  O  O36  1  0.02651086  0.84145315  0.40990066  1
  O  O37  1  0.81618447  0.97414603  0.41108281  1
  O  O38  1  0.17787762  0.19116352  0.41031237  1
  O  O39  1  0.02585397  0.18381553  0.91108281  1
  O  O40  1  0.15854685  0.97348914  0.90990066  1
  O  O41  1  0.80883648  0.82212238  0.91031237  1
  O  O42  1  0.96938067  0.16691649  0.58901712  1
  O  O43  1  0.18723637  0.03303613  0.58992761  1
  O  O44  1  0.83526603  0.81706727  0.58939101  1
  O  O45  1  0.96696387  0.81276363  0.08992761  1
  O  O46  1  0.83308351  0.03061933  0.08901712  1
  O  O47  1  0.18293273  0.16473397  0.08939101  1
  O  O48  1  0.69317786  0.17478615  0.74323366  1
  O  O49  1  0.48285147  0.30747903  0.74441581  1
  O  O50  1  0.84454462  0.52449652  0.74364537  1
  O  O51  1  0.69252097  0.51714853  0.24441581  1
  O  O52  1  0.82521385  0.30682214  0.24323366  1
  O  O53  1  0.47550348  0.15545538  0.24364537  1
  O  O54  1  0.63604767  0.50024949  0.92235012  1
  O  O55  1  0.85390337  0.36636913  0.92326061  1
  O  O56  1  0.50193303  0.15040027  0.92272401  1
  O  O57  1  0.63363087  0.14609663  0.42326061  1
  O  O58  1  0.49975051  0.36395233  0.42235012  1
  O  O59  1  0.84959973  0.49806697  0.42272401  1
  O  O60  1  0.35984386  0.50812015  0.07656766  1
  O  O61  1  0.14951747  0.64081303  0.07774981  1
  O  O62  1  0.51121062  0.85783052  0.07697937  1
  O  O63  1  0.35918697  0.85048253  0.57774981  1
  O  O64  1  0.49187985  0.64015614  0.57656766  1
  O  O65  1  0.14216948  0.48878938  0.57697937  1
  O  O66  1  0.30271367  0.83358349  0.25568412  1
  O  O67  1  0.52056937  0.69970313  0.25659461  1
  O  O68  1  0.16859903  0.48373427  0.25605801  1
  O  O69  1  0.30029687  0.47943063  0.75659461  1
  O  O70  1  0.16641651  0.69728633  0.75568412  1
  O  O71  1  0.51626573  0.83140097  0.75605801  1
loop_
_geom_bond_atom_site_label_1
_geom_bond_atom_site_label_2
_geom_bond_distance
_geom_bond_site_symmetry_2
Na0 O37 2.406223 1_555
Na0 O36 2.449027 1_655
Na0 O38 2.533101 1_665
Na0 O44 2.604407 1_555
Na0 O43 2.609053 1_665
Na0 O42 2.696111 1_565
Na1 O39 2.406223 1_555
Na1 O40 2.449027 1_545
Na1 O41 2.533101 1_445
Na1 O47 2.604407 1_556
Na1 O45 2.609053 1_446
Na1 O46 2.696111 1_456
Na2 O49 2.406223 1_555
Na2 O48 2.449027 1_555
Na2 O50 2.533101 1_555
Na2 O56 2.604407 1_555
Na2 O55 2.609053 1_555
Na2 O54 2.696111 1_555
Na3 O51 2.406223 1_555
Na3 O52 2.449027 1_555
Na3 O53 2.533101 1_555
Na3 O59 2.604407 1_555
Na3 O57 2.609053 1_555
Na3 O58 2.696111 1_555
Na4 O61 2.406223 1_555
Na4 O60 2.449027 1_555
Na4 O62 2.533101 1_555
Na4 O68 2.604407 1_555
Na4 O67 2.609053 1_555
Na4 O66 2.696111 1_555
Na5 O63 2.406223 1_555
Na5 O64 2.449027 1_555
Na5 O65 2.533101 1_555
Na5 O71 2.604407 1_555
Na5 O69 2.609053 1_555
Na5 O70 2.696111 1_555
Na6 O52 2.332575 1_555
Na6 O53 2.416073 1_555
Na6 O67 2.423629 1_545
Na6 O16 2.585722 1_555
Na6 O66 2.643045 1_545
Na6 O31 2.753196 1_545
Na6 O2 2.801367 1_555
Na6 O9 2.886285 1_545
Na7 O51 2.330252 1_555
Na7 O66 2.478003 1_655
Na7 O52 2.487203 1_555
Na7 O68 2.490075 1_655
Na7 O15 2.583170 1_555
Na7 O30 2.698227 1_655
Na7 O1 2.849783 1_555
Na7 O11 2.896316 1_655
Na8 O48 2.332575 1_555
Na8 O50 2.416073 1_555
Na8 O69 2.423629 1_655
Na8 O12 2.585722 1_555
Na8 O70 2.643045 1_655
Na8 O33 2.753196 1_655
Na8 O5 2.801367 1_555
Na8 O7 2.886285 1_655
Na9 O49 2.330251 1_555
Na9 O70 2.478003 1_545
Na9 O48 2.487203 1_555
Na9 O71 2.490075 1_545
Na9 O13 2.583170 1_555
Na9 O34 2.698227 1_545
Na9 O3 2.849783 1_555
Na9 O8 2.896316 1_545
Na10 O64 2.332580 1_555
Na10 O65 2.416088 1_555
Na10 O43 2.423629 1_555
Na10 O28 2.585707 1_555
Na10 O42 2.643045 1_455
Na10 O7 2.753196 1_555
Na10 O14 2.801367 1_555
Na10 O21 2.886285 1_555
Na11 O63 2.330260 1_555
Na11 O42 2.478003 1_565
Na11 O64 2.487194 1_555
Na11 O44 2.490075 1_555
Na11 O27 2.583149 1_555
Na11 O6 2.698227 1_555
Na11 O13 2.849783 1_565
Na11 O23 2.896316 1_565
Na12 O60 2.332580 1_555
Na12 O62 2.416088 1_555
Na12 O45 2.423629 1_555
Na12 O24 2.585707 1_554
Na12 O46 2.643045 1_565
Na12 O9 2.753196 1_555
Na12 O17 2.801367 1_555
Na12 O19 2.886285 1_555
Na13 O61 2.330260 1_555
Na13 O46 2.478003 1_455
Na13 O60 2.487195 1_555
Na13 O47 2.490075 1_555
Na13 O25 2.583149 1_554
Na13 O10 2.698227 1_555
Na13 O15 2.849783 1_455
Na13 O20 2.896316 1_455
Na14 O40 2.332575 1_655
Na14 O41 2.416073 1_555
Na14 O55 2.423637 1_555
Na14 O4 2.585722 1_555
Na14 O54 2.643036 1_555
Na14 O19 2.753176 1_556
Na14 O26 2.801367 1_655
Na14 O33 2.886285 1_655
Na15 O39 2.330252 1_555
Na15 O54 2.478007 1_555
Na15 O40 2.487203 1_545
Na15 O56 2.490089 1_555
Na15 O3 2.583170 1_555
Na15 O18 2.698213 1_556
Na15 O25 2.849783 1_555
Na15 O35 2.896316 1_555
Na16 O36 2.332575 1_545
Na16 O38 2.416073 1_555
Na16 O57 2.423637 1_555
Na16 O0 2.585722 1_555
Na16 O58 2.643036 1_555
Na16 O21 2.753176 1_555
Na16 O29 2.801367 1_545
Na16 O31 2.886285 1_545
Na17 O37 2.330251 1_555
Na17 O58 2.478007 1_555
Na17 O36 2.487203 1_655
Na17 O59 2.490089 1_555
Na17 O1 2.583170 1_555
Na17 O22 2.698213 1_555
Na17 O27 2.849783 1_555
Na17 O32 2.896316 1_555
Ga0 O2 1.873682 1_565
Ga0 O1 1.920748 1_555
Ga0 O37 1.966411 1_555
Ga0 O36 2.024460 1_655
Ga0 O0 2.108424 1_665
Ga0 O38 2.178996 1_665
Ga1 O5 1.873682 1_455
Ga1 O3 1.920748 1_555
Ga1 O39 1.966411 1_555
Ga1 O40 2.024460 1_545
Ga1 O4 2.108424 1_445
Ga1 O41 2.178996 1_445
Ga2 O14 1.873682 1_555
Ga2 O13 1.920748 1_555
Ga2 O49 1.966411 1_555
Ga2 O48 2.024460 1_555
Ga2 O12 2.108424 1_555
Ga2 O50 2.178996 1_555
Ga3 O17 1.873682 1_555
Ga3 O15 1.920748 1_555
Ga3 O51 1.966411 1_555
Ga3 O52 2.024460 1_555
Ga3 O16 2.108424 1_555
Ga3 O53 2.178996 1_555
Ga4 O26 1.873682 1_554
Ga4 O25 1.920748 1_554
Ga4 O61 1.966411 1_555
Ga4 O60 2.024460 1_555
Ga4 O24 2.108424 1_554
Ga4 O62 2.178996 1_555
Ga5 O29 1.873682 1_555
Ga5 O27 1.920748 1_555
Ga5 O63 1.966411 1_555
Ga5 O64 2.024460 1_555
Ga5 O28 2.108424 1_555
Ga5 O65 2.178996 1_555
O0 P0 1.521515 1_555
O1 Si0 1.619341 1_555
O2 Si1 1.602223 1_555
O3 Si2 1.619341 1_555
O4 P1 1.521515 1_555
O5 Si3 1.602223 1_555
O6 Si3 1.669267 1_565
O6 Ta0 1.940274 1_555
O7 Si2 1.678702 1_555
O7 Ta0 1.977109 1_445
O8 P1 1.583531 1_455
O8 Ta0 1.969848 1_455
O9 Si0 1.678702 1_555
O9 Ta1 1.977109 1_665
O10 Si1 1.669267 1_455
O10 Ta1 1.940274 1_555
O11 P0 1.583531 1_565
O11 Ta1 1.969848 1_565
O12 P2 1.521515 1_555
O13 Si4 1.619341 1_555
O14 Si5 1.602223 1_555
O15 Si6 1.619341 1_555
O16 P3 1.521515 1_555
O17 Si7 1.602223 1_555
O18 Si7 1.669267 1_555
O18 Ta2 1.940274 1_554
O19 Si6 1.678702 1_555
O19 Ta2 1.977109 1_554
O20 P3 1.583531 1_555
O20 Ta2 1.969848 1_554
O21 Si4 1.678702 1_555
O21 Ta3 1.977109 1_555
O22 Si5 1.669267 1_555
O22 Ta3 1.940274 1_555
O23 P2 1.583531 1_555
O23 Ta3 1.969848 1_555
O24 P4 1.521515 1_555
O25 Si8 1.619341 1_555
O26 Si9 1.602223 1_555
O27 Si10 1.619341 1_555
O28 P5 1.521515 1_555
O29 Si11 1.602223 1_555
O30 Si11 1.669267 1_555
O30 Ta4 1.940274 1_555
O31 Si10 1.678702 1_555
O31 Ta4 1.977109 1_555
O32 P5 1.583531 1_555
O32 Ta4 1.969848 1_555
O33 Si8 1.678702 1_555
O33 Ta5 1.977109 1_555
O34 Si9 1.669267 1_555
O34 Ta5 1.940274 1_555
O35 P4 1.583531 1_555
O35 Ta5 1.969848 1_555
O36 Si11 1.634696 1_555
O37 Si10 1.614639 1_555
O38 P5 1.523571 1_555
O39 Si8 1.614639 1_555
O40 Si9 1.634696 1_555
O41 P4 1.523571 1_555
O42 P2 1.592844 1_555
O42 Ta0 2.085719 1_545
O43 Si4 1.663544 1_555
O43 Ta0 2.010392 1_445
O44 Si5 1.666389 1_555
O44 Ta0 1.990017 1_555
O45 Si6 1.663544 1_555
O45 Ta1 2.010392 1_665
O46 P3 1.592845 1_555
O46 Ta1 2.085719 1_655
O47 Si7 1.666389 1_555
O47 Ta1 1.990017 1_555
O48 Si3 1.634696 1_555
O49 Si2 1.614639 1_555
O50 P1 1.523571 1_555
O51 Si0 1.614639 1_555
O52 Si1 1.634696 1_555
O53 P0 1.523571 1_555
O54 P4 1.592858 1_555
O54 Ta2 2.085719 1_555
O55 Si8 1.663529 1_655
O55 Ta2 2.010392 1_555
O56 Si9 1.666386 1_545
O56 Ta2 1.990017 1_555
O57 Si10 1.663529 1_545
O57 Ta3 2.010392 1_555
O58 P5 1.592858 1_555
O58 Ta3 2.085719 1_555
O59 Si11 1.666386 1_655
O59 Ta3 1.990017 1_555
O60 Si7 1.634708 1_555
O61 Si6 1.614624 1_455
O62 P3 1.523565 1_565
O63 Si4 1.614624 1_565
O64 Si5 1.634708 1_555
O65 P2 1.523565 1_455
O66 P0 1.592844 1_565
O66 Ta4 2.085719 1_555
O67 Si0 1.663544 1_555
O67 Ta4 2.010392 1_555
O68 Si1 1.666389 1_455
O68 Ta4 1.990017 1_555
O69 Si2 1.663544 1_555
O69 Ta5 2.010392 1_555
O70 P1 1.592845 1_455
O70 Ta5 2.085719 1_555
O71 Si3 1.666389 1_565
O71 Ta5 1.990017 1_555
