# generated using pymatgen
data_NaNb2Al2P5SO24
_symmetry_space_group_name_H-M   'P 1'
_cell_length_a   8.58329634
_cell_length_b   8.56756632
_cell_length_c   22.09110021
_cell_angle_alpha   89.97876689
_cell_angle_beta   90.16890258
_cell_angle_gamma   119.91073758
_symmetry_Int_Tables_number   1
_chemical_formula_structural   NaNb2Al2P5SO24
_chemical_formula_sum   'Na3 Nb6 Al6 P15 S3 O72'
_cell_volume   1408.14460092
_cell_formula_units_Z   3
loop_
 _symmetry_equiv_pos_site_id
 _symmetry_equiv_pos_as_xyz
  1  'x, y, z'
loop_
 _atom_site_type_symbol
 _atom_site_label
 _atom_site_symmetry_multiplicity
 _atom_site_fract_x
 _atom_site_fract_y
 _atom_site_fract_z
 _atom_site_occupancy
  Na  Na0  1  0.00001543  0.99931584  0.00541285  1
  Na  Na1  1  0.66644074  0.33322261  0.83258224  1
  Na  Na2  1  0.66756216  0.33076356  0.34028912  1
  Nb  Nb0  1  0.00503412  0.00723237  0.36148433  1
  Nb  Nb1  1  0.99881928  -0.00019877  0.85328211  1
  Nb  Nb2  1  0.66615284  0.32790173  0.19007518  1
  Nb  Nb3  1  0.33167129  0.66644280  0.02827898  1
  Nb  Nb4  1  0.33875030  0.66791701  0.52639250  1
  Nb  Nb5  1  0.33415324  0.66611078  0.80609825  1
  Al  Al0  1  0.99346264  0.99301977  0.64408076  1
  Al  Al1  1  0.01019946  0.00731143  0.14611719  1
  Al  Al2  1  0.66419483  0.33726108  0.68686487  1
  Al  Al3  1  0.66764904  0.33402334  0.98052157  1
  Al  Al4  1  0.67030959  0.34177585  0.47938182  1
  Al  Al5  1  0.32425834  0.66605092  0.31297380  1
  P  P0  1  0.27577403  0.98468252  0.24906760  1
  P  P1  1  0.01706316  0.29243810  0.24888121  1
  P  P2  1  0.28838432  0.27716987  0.74324421  1
  P  P3  1  0.98894983  0.70856413  0.74405351  1
  P  P4  1  0.71959518  0.01297536  0.74358151  1
  P  P5  1  0.68319097  0.61777827  0.58467061  1
  P  P6  1  0.94094324  0.62653533  0.08205096  1
  P  P7  1  0.68544775  0.05644029  0.08120829  1
  P  P8  1  0.37614484  0.31705224  0.08108166  1
  P  P9  1  0.61817794  0.65601772  0.91834745  1
  P  P10  1  0.03735007  0.38211010  0.91775290  1
  P  P11  1  0.34463627  0.96290679  0.91775499  1
  P  P12  1  0.60720459  0.95806994  0.41531433  1
  P  P13  1  0.35258920  0.39643047  0.41522184  1
  P  P14  1  0.04204558  0.65065717  0.41605281  1
  S  S0  1  0.70822926  0.72076117  0.24934018  1
  S  S1  1  0.94049749  0.32197107  0.58453936  1
  S  S2  1  0.38180958  0.06097395  0.58447115  1
  O  O0  1  0.19477112  0.02687890  0.30581461  1
  O  O1  1  0.82318792  0.79469223  0.30402030  1
  O  O2  1  0.97018038  0.16886186  0.30588596  1
  O  O3  1  0.20122617  0.16483420  0.80308708  1
  O  O4  1  0.96117774  0.79508549  0.80371557  1
  O  O5  1  0.83266647  0.04064338  0.80359407  1
  O  O6  1  0.80483099  0.97457785  0.69073018  1
  O  O7  1  0.16546427  0.19096652  0.69001811  1
  O  O8  1  0.02869604  0.83276859  0.69121461  1
  O  O9  1  0.79407312  0.82516096  0.19493257  1
  O  O10  1  0.03161957  0.19753159  0.19303875  1
  O  O11  1  0.16466312  0.96468973  0.19302787  1
  O  O12  1  0.86353018  0.35808085  0.63836072  1
  O  O13  1  0.49629108  0.13466532  0.63840934  1
  O  O14  1  0.63818199  0.49711217  0.64019873  1
  O  O15  1  0.86199837  0.50720863  0.13937073  1
  O  O16  1  0.64477907  0.13484558  0.13911752  1
  O  O17  1  0.49297616  0.35514558  0.13891894  1
  O  O18  1  0.46671984  0.29357208  0.02585810  1
  O  O19  1  0.82797811  0.53637850  0.02625668  1
  O  O20  1  0.70971673  0.17235190  0.02628578  1
  O  O21  1  0.46427688  0.16534470  0.52949464  1
  O  O22  1  0.70443367  0.52985710  0.52764450  1
  O  O23  1  0.83330106  0.29516082  0.52958388  1
  O  O24  1  0.53314995  0.69277981  0.97368274  1
  O  O25  1  0.15867486  0.46665758  0.97358532  1
  O  O26  1  0.30780602  0.84141808  0.97346891  1
  O  O27  1  0.52955472  0.84044841  0.47344359  1
  O  O28  1  0.31176693  0.47310069  0.47308459  1
  O  O29  1  0.16049100  0.69143093  0.47363116  1
  O  O30  1  0.12848011  0.62388888  0.36020191  1
  O  O31  1  0.49259161  0.86846836  0.35987028  1
  O  O32  1  0.37627068  0.50941590  0.35967571  1
  O  O33  1  0.12923326  0.49476101  0.86056508  1
  O  O34  1  0.36545391  0.87047277  0.86058904  1
  O  O35  1  0.50532594  0.63460599  0.86072593  1
  O  O36  1  0.02230088  0.82208123  0.40756262  1
  O  O37  1  0.79618689  0.97295623  0.40733962  1
  O  O38  1  0.17755006  0.20555080  0.40927385  1
  O  O39  1  0.02207797  0.19374911  0.91053393  1
  O  O40  1  0.17192678  0.97853911  0.91028421  1
  O  O41  1  0.80605089  0.82856530  0.91060698  1
  O  O42  1  0.96762296  0.16668785  0.59211039  1
  O  O43  1  0.20145659  0.03762207  0.59203817  1
  O  O44  1  0.84186001  0.80772191  0.59311212  1
  O  O45  1  0.96623137  0.81268579  0.09227799  1
  O  O46  1  0.84477159  0.03006478  0.09230369  1
  O  O47  1  0.18943743  0.15648872  0.09008145  1
  O  O48  1  0.69406515  0.17503145  0.73822329  1
  O  O49  1  0.47507720  0.30038634  0.73975665  1
  O  O50  1  0.82738189  0.52089229  0.73990603  1
  O  O51  1  0.68907669  0.53459540  0.24447756  1
  O  O52  1  0.84276957  0.31249384  0.24342850  1
  O  O53  1  0.46817934  0.16091726  0.24368539  1
  O  O54  1  0.63802670  0.49127935  0.92501180  1
  O  O55  1  0.85329132  0.36229763  0.92485172  1
  O  O56  1  0.50912545  0.14684797  0.92499661  1
  O  O57  1  0.63436502  0.14506427  0.42719182  1
  O  O58  1  0.51056348  0.36607391  0.42539183  1
  O  O59  1  0.85590928  0.48851802  0.42588088  1
  O  O60  1  0.35955456  0.49062009  0.07499563  1
  O  O61  1  0.13090086  0.64271435  0.07534611  1
  O  O62  1  0.51098759  0.86825838  0.07508948  1
  O  O63  1  0.36054850  0.87459929  0.57781258  1
  O  O64  1  0.50912593  0.63901009  0.57514736  1
  O  O65  1  0.12472259  0.48807275  0.57742349  1
  O  O66  1  0.30265969  0.82636752  0.26036462  1
  O  O67  1  0.53099499  0.69964042  0.25787919  1
  O  O68  1  0.17832338  0.47497415  0.26025972  1
  O  O69  1  0.30466797  0.46508651  0.75624029  1
  O  O70  1  0.16036796  0.69321462  0.75726518  1
  O  O71  1  0.53292988  0.84144950  0.75694161  1
loop_
_geom_bond_atom_site_label_1
_geom_bond_atom_site_label_2
_geom_bond_distance
_geom_bond_site_symmetry_2
Na0 O47 2.399103 1_565
Na0 O45 2.421100 1_455
Na0 O46 2.427973 1_465
Na0 O41 2.617438 1_454
Na0 O39 2.624709 1_564
Na0 O40 2.627885 1_554
Na1 O55 2.524220 1_555
Na1 O54 2.529195 1_555
Na1 O56 2.530688 1_555
Na1 O50 2.546401 1_555
Na1 O49 2.549866 1_555
Na1 O48 2.561972 1_555
Na2 O59 2.412513 1_555
Na2 O57 2.418022 1_555
Na2 O58 2.421535 1_555
Na2 O53 2.664162 1_555
Na2 O52 2.668076 1_555
Na2 O51 2.691038 1_555
Nb0 O38 1.917575 1_555
Nb0 O36 1.951111 1_545
Nb0 O37 1.952252 1_445
Nb0 O2 1.981252 1_455
Nb0 O0 1.982740 1_555
Nb0 O1 2.125809 1_445
Nb1 O3 1.951264 1_655
Nb1 O4 1.952891 1_545
Nb1 O5 1.961976 1_555
Nb1 O39 2.017379 1_655
Nb1 O41 2.020838 1_545
Nb1 O40 2.021213 1_645
Nb2 O16 1.932410 1_555
Nb2 O15 1.968454 1_555
Nb2 O17 1.969006 1_555
Nb2 O52 1.973233 1_555
Nb2 O53 1.980648 1_555
Nb2 O51 2.066808 1_555
Nb3 O60 1.936091 1_555
Nb3 O61 1.937299 1_555
Nb3 O62 1.940569 1_555
Nb3 O25 2.012643 1_554
Nb3 O26 2.014650 1_554
Nb3 O24 2.029571 1_554
Nb4 O64 1.926565 1_555
Nb4 O27 1.957308 1_555
Nb4 O28 1.959764 1_555
Nb4 O29 2.009200 1_555
Nb4 O63 2.032428 1_555
Nb4 O65 2.051290 1_555
Nb5 O70 1.943830 1_555
Nb5 O71 1.949485 1_555
Nb5 O69 1.951540 1_555
Nb5 O35 2.018073 1_555
Nb5 O34 2.029125 1_555
Nb5 O33 2.032888 1_555
Al0 O44 1.847649 1_555
Al0 O6 1.860910 1_555
Al0 O8 1.863286 1_655
Al0 O7 1.892355 1_665
Al0 O42 1.976743 1_565
Al0 O43 1.996595 1_665
Al1 O11 1.854588 1_545
Al1 O10 1.861596 1_555
Al1 O47 1.892565 1_555
Al1 O45 1.925799 1_445
Al1 O46 1.932185 1_455
Al1 O9 2.040345 1_445
Al2 O14 1.814056 1_555
Al2 O49 1.897227 1_555
Al2 O50 1.898434 1_555
Al2 O48 1.907180 1_555
Al2 O13 1.932138 1_555
Al2 O12 1.952848 1_555
Al3 O18 1.873868 1_556
Al3 O19 1.879889 1_556
Al3 O20 1.888558 1_556
Al3 O54 1.929296 1_555
Al3 O55 1.932999 1_555
Al3 O56 1.934712 1_555
Al4 O22 1.829715 1_555
Al4 O59 1.878269 1_555
Al4 O58 1.902828 1_555
Al4 O57 1.935354 1_555
Al4 O23 1.973419 1_555
Al4 O21 1.995544 1_555
Al5 O30 1.856746 1_555
Al5 O66 1.876999 1_555
Al5 O68 1.884897 1_555
Al5 O32 1.912686 1_555
Al5 O31 1.913634 1_555
Al5 O67 2.053321 1_555
O0 P0 1.562618 1_545
O1 S0 1.484651 1_555
O2 P1 1.563909 1_655
O3 P2 1.587593 1_555
O4 P3 1.588157 1_555
O5 P4 1.587108 1_555
O6 P4 1.500659 1_565
O7 P2 1.502460 1_555
O8 P3 1.500217 1_455
O9 S0 1.461070 1_555
O10 P1 1.517090 1_555
O11 P0 1.517152 1_555
O12 S1 1.467835 1_555
O13 S2 1.469323 1_555
O14 P5 1.525222 1_555
O15 P6 1.555944 1_555
O16 P7 1.564214 1_555
O17 P8 1.552729 1_555
O18 P8 1.514890 1_555
O19 P6 1.517470 1_555
O20 P7 1.515250 1_555
O21 S2 1.465826 1_555
O22 P5 1.525357 1_555
O23 S1 1.468350 1_555
O24 P9 1.536533 1_555
O25 P10 1.539877 1_555
O26 P11 1.539917 1_555
O27 P12 1.563010 1_555
O28 P13 1.555954 1_555
O29 P14 1.553073 1_555
O30 P14 1.516765 1_555
O31 P12 1.515820 1_555
O32 P13 1.512757 1_555
O33 P10 1.547700 1_555
O34 P11 1.548256 1_555
O35 P9 1.551754 1_555
O36 P14 1.571236 1_555
O37 P12 1.572841 1_555
O38 P13 1.580373 1_555
O39 P10 1.560783 1_555
O40 P11 1.561820 1_555
O41 P9 1.561736 1_555
O42 S1 1.469920 1_555
O43 S2 1.468664 1_555
O44 P5 1.525205 1_555
O45 P6 1.515408 1_555
O46 P7 1.512428 1_555
O47 P8 1.517630 1_555
O48 P4 1.514236 1_555
O49 P2 1.515306 1_555
O50 P3 1.514088 1_555
O51 S0 1.523508 1_555
O52 P1 1.592915 1_655
O53 P0 1.592324 1_545
O54 P9 1.510721 1_555
O55 P10 1.511049 1_655
O56 P11 1.510749 1_545
O57 P12 1.522283 1_545
O58 P13 1.518735 1_555
O59 P14 1.522435 1_655
O60 P8 1.568632 1_555
O61 P6 1.573396 1_455
O62 P7 1.565634 1_565
O63 S2 1.521198 1_565
O64 P5 1.605833 1_555
O65 S1 1.519004 1_455
O66 P0 1.505609 1_555
O67 S0 1.452472 1_555
O68 P1 1.504734 1_555
O69 P2 1.571532 1_555
O70 P3 1.567707 1_455
O71 P4 1.571005 1_565
