# generated using pymatgen
data_Na3Zr2Ti2SiP5O24
_symmetry_space_group_name_H-M   'P 1'
_cell_length_a   8.86272951
_cell_length_b   8.82692297
_cell_length_c   22.87132239
_cell_angle_alpha   90.00006637
_cell_angle_beta   89.96238253
_cell_angle_gamma   119.80846006
_symmetry_Int_Tables_number   1
_chemical_formula_structural   Na3Zr2Ti2SiP5O24
_chemical_formula_sum   'Na9 Zr6 Ti6 Si3 P15 O72'
_cell_volume   1552.50714632
_cell_formula_units_Z   3
loop_
 _symmetry_equiv_pos_site_id
 _symmetry_equiv_pos_as_xyz
  1  'x, y, z'
loop_
 _atom_site_type_symbol
 _atom_site_label
 _atom_site_symmetry_multiplicity
 _atom_site_fract_x
 _atom_site_fract_y
 _atom_site_fract_z
 _atom_site_occupancy
  Na  Na0  1  0.36718608  0.00251978  0.74955516  1
  Na  Na1  1  0.66867540  0.96840139  0.58454395  1
  Na  Na2  1  0.66721298  0.69825947  0.08304840  1
  Na  Na3  1  0.00700686  0.00008277  0.50106171  1
  Na  Na4  1  0.00741708  0.00501737  0.99713671  1
  Na  Na5  1  0.67258238  0.33957193  0.83440377  1
  Na  Na6  1  0.66667204  0.33326648  0.33337368  1
  Na  Na7  1  0.32566471  0.66625164  0.16741420  1
  Na  Na8  1  0.32801731  0.65627334  0.66670416  1
  Zr  Zr0  1  0.99980272  0.99939729  0.35258526  1
  Zr  Zr1  1  0.00719455  0.00351224  0.14604279  1
  Zr  Zr2  1  0.32368902  0.66643813  0.01883323  1
  Zr  Zr3  1  0.32702637  0.66428747  0.52090418  1
  Zr  Zr4  1  0.33340054  0.66724757  0.31431647  1
  Zr  Zr5  1  0.33622585  0.66395995  0.81395871  1
  Ti  Ti0  1  0.99244404  0.00006411  0.85176705  1
  Ti  Ti1  1  0.00465938  0.99887045  0.64804920  1
  Ti  Ti2  1  0.67041935  0.32964270  0.68555881  1
  Ti  Ti3  1  0.67378690  0.33653452  0.18604656  1
  Ti  Ti4  1  0.66958573  0.33702426  0.98076254  1
  Ti  Ti5  1  0.65778157  0.32995758  0.48193007  1
  Si  Si0  1  0.71876210  0.00505463  0.74785142  1
  Si  Si1  1  0.37505154  0.05187645  0.58490998  1
  Si  Si2  1  0.95152089  0.61448616  0.08334778  1
  P  P0  1  0.30025294  0.00707842  0.24915455  1
  P  P1  1  0.70702865  0.70190468  0.24828538  1
  P  P2  1  0.99461019  0.29307507  0.24914769  1
  P  P3  1  0.28488684  0.28263841  0.74917443  1
  P  P4  1  0.99159202  0.71130622  0.74982366  1
  P  P5  1  0.94898599  0.33028664  0.58394152  1
  P  P6  1  0.67200172  0.61804654  0.58450015  1
  P  P7  1  0.66651141  0.05323610  0.08324218  1
  P  P8  1  0.38703741  0.33211368  0.08293447  1
  P  P9  1  0.63267025  0.66660645  0.91764902  1
  P  P10  1  0.03374967  0.36710921  0.91632622  1
  P  P11  1  0.33319807  0.96810295  0.91553258  1
  P  P12  1  0.62621168  0.96515832  0.41851229  1
  P  P13  1  0.33872439  0.37377452  0.41769768  1
  P  P14  1  0.03281983  0.65917187  0.41772052  1
  O  O0  1  0.21273601  0.03328317  0.30370906  1
  O  O1  1  0.82109363  0.78796182  0.30270854  1
  O  O2  1  0.96648390  0.17982268  0.30394711  1
  O  O3  1  0.20137976  0.16616051  0.80388180  1
  O  O4  1  0.97114267  0.80218810  0.80461563  1
  O  O5  1  0.83936461  0.02897362  0.80583441  1
  O  O6  1  0.80977282  0.97565333  0.69003554  1
  O  O7  1  0.17002630  0.19405870  0.69460167  1
  O  O8  1  0.03006801  0.83253685  0.69528964  1
  O  O9  1  0.78856595  0.81578006  0.19299204  1
  O  O10  1  0.02662812  0.20921532  0.19486417  1
  O  O11  1  0.18136630  0.97248366  0.19524353  1
  O  O12  1  0.86290258  0.35943645  0.63896491  1
  O  O13  1  0.50335257  0.14174122  0.64206239  1
  O  O14  1  0.64383905  0.50326337  0.63871982  1
  O  O15  1  0.85233775  0.49417625  0.14061285  1
  O  O16  1  0.63903344  0.13662994  0.13841635  1
  O  O17  1  0.49957116  0.36180617  0.13779064  1
  O  O18  1  0.47117460  0.30597065  0.02753724  1
  O  O19  1  0.82441787  0.52054164  0.02671593  1
  O  O20  1  0.69070755  0.16387058  0.02830461  1
  O  O21  1  0.47614603  0.17238935  0.52738991  1
  O  O22  1  0.69658634  0.53221076  0.52889611  1
  O  O23  1  0.83375509  0.30051329  0.52964399  1
  O  O24  1  0.55260962  0.69904962  0.97328693  1
  O  O25  1  0.15148363  0.45188326  0.97063710  1
  O  O26  1  0.30194675  0.84754828  0.96939455  1
  O  O27  1  0.54434102  0.85059762  0.47365289  1
  O  O28  1  0.30666003  0.45784924  0.47189744  1
  O  O29  1  0.15235494  0.69398974  0.47149143  1
  O  O30  1  0.12030030  0.63312828  0.36302327  1
  O  O31  1  0.51230854  0.87898069  0.36399935  1
  O  O32  1  0.36717130  0.48678753  0.36276273  1
  O  O33  1  0.11838868  0.48450563  0.86223549  1
  O  O34  1  0.36438462  0.88246853  0.86051491  1
  O  O35  1  0.51406541  0.63557962  0.86368477  1
  O  O36  1  0.01854994  0.82604365  0.41099715  1
  O  O37  1  0.80699128  0.98111670  0.41111884  1
  O  O38  1  0.17515855  0.19200015  0.41096949  1
  O  O39  1  0.01988536  0.18603933  0.90789304  1
  O  O40  1  0.16783007  0.98205729  0.90737503  1
  O  O41  1  0.81385075  0.83039510  0.90775377  1
  O  O42  1  0.96369999  0.16310667  0.59110870  1
  O  O43  1  0.18239611  0.02839785  0.59265328  1
  O  O44  1  0.83149377  0.80566444  0.59074165  1
  O  O45  1  0.96038022  0.80381074  0.08774926  1
  O  O46  1  0.82760018  0.02776161  0.08860272  1
  O  O47  1  0.20230645  0.17326116  0.08781877  1
  O  O48  1  0.69114517  0.17629565  0.74155843  1
  O  O49  1  0.46711354  0.29996699  0.74184401  1
  O  O50  1  0.83158432  0.53043105  0.74165244  1
  O  O51  1  0.68772999  0.51914165  0.24115620  1
  O  O52  1  0.82955651  0.30880538  0.24173733  1
  O  O53  1  0.47966640  0.16920948  0.24087182  1
  O  O54  1  0.64741707  0.50001452  0.92468663  1
  O  O55  1  0.85288722  0.34959469  0.92567521  1
  O  O56  1  0.49828137  0.14616392  0.92514153  1
  O  O57  1  0.64530480  0.14785727  0.42599262  1
  O  O58  1  0.50399550  0.35783119  0.42528623  1
  O  O59  1  0.85330071  0.49692283  0.42621846  1
  O  O60  1  0.37346255  0.50112228  0.07711354  1
  O  O61  1  0.14405268  0.63681709  0.07965402  1
  O  O62  1  0.50810499  0.86439415  0.07757084  1
  O  O63  1  0.36814178  0.86317621  0.57885652  1
  O  O64  1  0.51035685  0.64359491  0.57817670  1
  O  O65  1  0.13209069  0.49192095  0.57925487  1
  O  O66  1  0.31481411  0.84036172  0.25569578  1
  O  O67  1  0.52600709  0.68550054  0.25554793  1
  O  O68  1  0.15844014  0.47481054  0.25573319  1
  O  O69  1  0.30330292  0.46541429  0.75468472  1
  O  O70  1  0.16094041  0.69885858  0.75571833  1
  O  O71  1  0.52026105  0.83816309  0.75495008  1
loop_
_geom_bond_atom_site_label_1
_geom_bond_atom_site_label_2
_geom_bond_distance
_geom_bond_site_symmetry_2
Na0 O49 2.323131 1_555
Na0 O70 2.382051 1_545
Na0 O71 2.432587 1_545
Na0 O48 2.500127 1_555
Na0 O13 2.744534 1_555
Na0 O34 2.745491 1_545
Na0 O3 2.810267 1_555
Na0 O8 2.875140 1_545
Na1 O42 2.312108 1_565
Na1 O63 2.348395 1_555
Na1 O64 2.492120 1_555
Na1 O44 2.495380 1_555
Na1 O6 2.704353 1_555
Na1 O27 2.755440 1_555
Na1 O23 2.836277 1_565
Na1 O13 2.906002 1_565
Na2 O45 2.285649 1_555
Na2 O60 2.306670 1_555
Na2 O62 2.492149 1_555
Na2 O46 2.527033 1_565
Na2 O24 2.710008 1_554
Na2 O9 2.729496 1_555
Na2 O17 2.864561 1_555
Na2 O19 2.869245 1_555
Na3 O43 2.546567 1_555
Na3 O36 2.601846 1_545
Na3 O38 2.611992 1_555
Na3 O44 2.629362 1_445
Na3 O42 2.647190 1_455
Na3 O37 2.666812 1_445
Na4 O39 2.560416 1_555
Na4 O40 2.561172 1_545
Na4 O41 2.621776 1_445
Na4 O45 2.624086 1_446
Na4 O47 2.635311 1_556
Na4 O46 2.696303 1_456
Na5 O54 2.575382 1_555
Na5 O55 2.604397 1_555
Na5 O48 2.617002 1_555
Na5 O50 2.638165 1_555
Na5 O56 2.642262 1_555
Na5 O49 2.700368 1_555
Na6 O52 2.613252 1_555
Na6 O58 2.617554 1_555
Na6 O51 2.621118 1_555
Na6 O57 2.625437 1_555
Na6 O53 2.634068 1_555
Na6 O59 2.638352 1_555
Na7 O61 2.505102 1_555
Na7 O66 2.568011 1_555
Na7 O68 2.576528 1_555
Na7 O67 2.636191 1_555
Na7 O62 2.660790 1_555
Na7 O60 2.679958 1_555
Na8 O69 2.562776 1_555
Na8 O65 2.572978 1_555
Na8 O71 2.615160 1_555
Na8 O63 2.617654 1_555
Na8 O64 2.626622 1_555
Na8 O70 2.651064 1_555
O0 P0 1.545658 1_555
O0 Zr0 2.082434 1_445
O1 P1 1.544839 1_555
O1 Zr0 2.087241 1_555
O2 P2 1.544076 1_555
O2 Zr0 2.080637 1_545
O3 P3 1.553277 1_555
O3 Ti0 2.018939 1_455
O4 P4 1.546303 1_555
O4 Ti0 1.980351 1_565
O5 Si0 1.650218 1_555
O5 Ti0 1.831792 1_555
O6 Si0 1.635000 1_565
O6 Ti1 1.895616 1_655
O7 P3 1.554298 1_555
O7 Ti1 1.934325 1_545
O8 P4 1.566432 1_455
O8 Ti1 1.924259 1_555
O9 P1 1.551936 1_555
O9 Zr1 2.111513 1_665
O10 P2 1.542152 1_455
O10 Zr1 2.064623 1_555
O11 P0 1.550998 1_565
O11 Zr1 2.036348 1_565
O12 P5 1.557528 1_555
O12 Ti2 1.914828 1_555
O13 Si1 1.654100 1_555
O13 Ti2 1.869041 1_555
O14 P6 1.541038 1_555
O14 Ti2 1.977637 1_555
O15 Si2 1.638981 1_555
O15 Ti3 1.824506 1_555
O16 P7 1.539933 1_555
O16 Ti3 1.963488 1_555
O17 P8 1.542489 1_555
O17 Ti3 1.999138 1_555
O18 P8 1.544165 1_555
O18 Ti4 1.957068 1_554
O19 Si2 1.645437 1_555
O19 Ti4 1.844889 1_554
O20 P7 1.539443 1_555
O20 Ti4 1.959120 1_554
O21 Si1 1.648007 1_555
O21 Ti5 1.838127 1_555
O22 P6 1.550036 1_555
O22 Ti5 1.961985 1_555
O23 P5 1.545663 1_555
O23 Ti5 2.023869 1_555
O24 P9 1.551000 1_555
O24 Zr2 2.168150 1_556
O25 P10 1.554705 1_555
O25 Zr2 2.063888 1_556
O26 P11 1.559863 1_555
O26 Zr2 2.043992 1_556
O27 P12 1.552044 1_555
O27 Zr3 2.104793 1_555
O28 P13 1.541871 1_555
O28 Zr3 2.069445 1_555
O29 P14 1.551528 1_555
O29 Zr3 2.036730 1_555
O30 P14 1.547541 1_555
O30 Zr4 2.080963 1_555
O31 P12 1.546085 1_555
O31 Zr4 2.086734 1_555
O32 P13 1.544945 1_555
O32 Zr4 2.080649 1_555
O33 P10 1.546919 1_555
O33 Zr5 2.100570 1_555
O34 P11 1.561540 1_555
O34 Zr5 2.106651 1_555
O35 P9 1.555239 1_555
O35 Zr5 2.057996 1_555
O36 P14 1.547416 1_555
O36 Zr0 2.099262 1_455
O37 P12 1.546203 1_555
O37 Zr0 2.112164 1_555
O38 P13 1.545120 1_555
O38 Zr0 2.112958 1_445
O39 P10 1.552935 1_555
O39 Ti0 2.001315 1_455
O40 P11 1.542024 1_555
O40 Ti0 2.075378 1_465
O41 P9 1.552842 1_555
O41 Ti0 2.007116 1_565
O42 P5 1.553343 1_555
O42 Ti1 2.110270 1_645
O43 Si1 1.624040 1_555
O43 Ti1 1.934869 1_545
O44 P6 1.560122 1_555
O44 Ti1 2.093373 1_655
O45 Si2 1.636645 1_555
O45 Zr1 2.081004 1_665
O46 P7 1.556690 1_555
O46 Zr1 2.155614 1_655
O47 P8 1.541579 1_555
O47 Zr1 2.104665 1_555
O48 Si0 1.653245 1_555
O48 Ti2 1.937484 1_555
O49 P3 1.553660 1_555
O49 Ti2 2.121356 1_555
O50 P4 1.531128 1_555
O50 Ti2 2.076744 1_555
O51 P1 1.544046 1_555
O51 Ti3 2.001054 1_555
O52 P2 1.546004 1_555
O52 Ti3 1.981523 1_555
O53 P0 1.532829 1_555
O53 Ti3 2.045614 1_555
O54 P9 1.548046 1_555
O54 Ti4 2.008660 1_555
O55 P10 1.546672 1_655
O55 Ti4 2.014194 1_555
O56 P11 1.540595 1_545
O56 Ti4 2.054542 1_555
O57 P12 1.545100 1_545
O57 Ti5 2.013990 1_555
O58 P13 1.549421 1_555
O58 Ti5 1.983001 1_555
O59 P14 1.534413 1_655
O59 Ti5 2.063110 1_555
O60 P8 1.560835 1_555
O60 Zr2 2.177488 1_555
O61 Si2 1.619586 1_455
O61 Zr2 2.030101 1_555
O62 P7 1.562037 1_565
O62 Zr2 2.166294 1_555
O63 Si1 1.641914 1_565
O63 Zr3 2.082367 1_555
O64 P6 1.563852 1_555
O64 Zr3 2.164959 1_555
O65 P5 1.542219 1_455
O65 Zr3 2.112901 1_555
O66 P0 1.547083 1_565
O66 Zr4 2.100055 1_555
O67 P1 1.546341 1_555
O67 Zr4 2.114254 1_555
O68 P2 1.545590 1_455
O68 Zr4 2.114024 1_555
O69 P3 1.543905 1_555
O69 Zr5 2.118141 1_555
O70 P4 1.564332 1_455
O70 Zr5 2.181993 1_555
O71 Si0 1.647576 1_565
O71 Zr5 2.085627 1_555
