# generated using pymatgen
data_Na4MgMn4O8
_symmetry_space_group_name_H-M   'P 1'
_cell_length_a   3.04790519
_cell_length_b   6.82364688
_cell_length_c   11.33987341
_cell_angle_alpha   105.63800840
_cell_angle_beta   97.15101659
_cell_angle_gamma   90.12890663
_symmetry_Int_Tables_number   1
_chemical_formula_structural   Na4MgMn4O8
_chemical_formula_sum   'Na4 Mg1 Mn4 O8'
_cell_volume   225.18981122
_cell_formula_units_Z   1
loop_
 _symmetry_equiv_pos_site_id
 _symmetry_equiv_pos_as_xyz
  1  'x, y, z'
loop_
 _atom_site_type_symbol
 _atom_site_label
 _atom_site_symmetry_multiplicity
 _atom_site_fract_x
 _atom_site_fract_y
 _atom_site_fract_z
 _atom_site_occupancy
  Na  Na0  1  0.43954768  0.40544969  0.46908751  1
  Na  Na1  1  0.21288803  0.65677047  0.99365405  1
  Na  Na2  1  0.04071065  0.77087985  0.71848215  1
  Na  Na3  1  0.82401563  0.02604036  0.22035417  1
  Mg  Mg0  1  0.80099965  0.39678545  0.17507167  1
  Mn  Mn0  1  0.55270182  0.30194512  0.74102080  1
  Mn  Mn1  1  0.36149878  0.70979185  0.30348661  1
  Mn  Mn2  1  0.16034847  0.06970211  0.94669681  1
  Mn  Mn3  1  0.95505868  0.01861112  0.52130789  1
  O  O0  1  0.00540522  0.35731778  0.63509605  1
  O  O1  1  0.79122853  0.68015447  0.16028422  1
  O  O2  1  0.63499652  0.86482482  0.89474440  1
  O  O3  1  0.40097476  0.02499291  0.40169500  1
  O  O4  1  0.10572122  0.30221413  0.85623343  1
  O  O5  1  0.89045056  0.54801571  0.36370215  1
  O  O6  1  0.50234333  0.97437329  0.62687355  1
  O  O7  1  0.28053248  0.21504287  0.13333454  1
loop_
_geom_bond_atom_site_label_1
_geom_bond_atom_site_label_2
_geom_bond_distance
_geom_bond_site_symmetry_2
Na0 O5 2.300634 1_555
Na0 O5 2.304692 1_455
Na0 O0 2.480684 1_655
Na0 O3 2.498851 1_555
Na0 O0 2.520757 1_555
Na1 O1 2.385494 1_456
Na1 O1 2.389570 1_556
Na1 O2 2.477554 1_555
Na1 O4 2.495110 1_555
Na1 O2 2.598807 1_455
Na2 O2 2.421444 1_455
Na2 O6 2.462385 1_455
Na2 O2 2.467716 1_555
Na2 O6 2.473814 1_555
Na2 O0 2.721048 1_555
Na3 O1 2.271517 1_545
Na3 O7 2.364948 1_655
Na3 O7 2.381123 1_555
Na3 O3 2.535508 1_655
Na3 O3 2.561113 1_555
Mg0 O7 1.939615 1_655
Mg0 O7 1.940673 1_555
Mg0 O1 1.985365 1_555
Mg0 O5 2.092429 1_555
Mn0 O4 1.999609 1_655
Mn0 O4 2.001202 1_555
Mn0 O0 2.028997 1_555
Mn0 O0 2.035779 1_655
Mn0 O6 2.254882 1_545
Mn1 O5 2.095104 1_455
Mn1 O5 2.103413 1_555
Mn1 O3 2.134219 1_565
Mn1 O1 2.178793 1_555
Mn1 O1 2.194920 1_455
Mn2 O2 2.042467 1_545
Mn2 O2 2.043640 1_445
Mn2 O7 2.066604 1_556
Mn2 O4 2.105572 1_555
Mn3 O6 2.001640 1_645
Mn3 O6 2.008060 1_545
Mn3 O3 2.038529 1_555
Mn3 O3 2.044367 1_655
Mn3 O0 2.317664 1_655
