# generated using pymatgen
data_BaC20
_symmetry_space_group_name_H-M   'P 1'
_cell_length_a   11.47532500
_cell_length_b   11.47532500
_cell_length_c   11.47532500
_cell_angle_alpha   90.00000000
_cell_angle_beta   90.00000000
_cell_angle_gamma   90.00000000
_symmetry_Int_Tables_number   1
_chemical_formula_structural   BaC20
_chemical_formula_sum   'Ba6 C120'
_cell_volume   1511.10618425
_cell_formula_units_Z   6
loop_
 _symmetry_equiv_pos_site_id
 _symmetry_equiv_pos_as_xyz
  1  'x, y, z'
loop_
 _atom_site_type_symbol
 _atom_site_label
 _atom_site_symmetry_multiplicity
 _atom_site_fract_x
 _atom_site_fract_y
 _atom_site_fract_z
 _atom_site_occupancy
  Ba  Ba0  1  0.25000000  0.00000000  0.50000000  1
  Ba  Ba1  1  0.75000000  0.00000000  0.50000000  1
  Ba  Ba2  1  0.00000000  0.50000000  0.25000000  1
  Ba  Ba3  1  0.00000000  0.50000000  0.75000000  1
  Ba  Ba4  1  0.50000000  0.75000000  0.00000000  1
  Ba  Ba5  1  0.50000000  0.25000000  0.00000000  1
  C  C0  1  0.00000000  0.30492700  0.06220600  1
  C  C1  1  0.50000000  0.43779400  0.80492700  1
  C  C2  1  0.50000000  0.56220600  0.19507300  1
  C  C3  1  0.56220600  0.80492700  0.50000000  1
  C  C4  1  0.43779400  0.80492700  0.50000000  1
  C  C5  1  0.19507300  0.50000000  0.56220600  1
  C  C6  1  0.80492700  0.50000000  0.56220600  1
  C  C7  1  0.06220600  0.00000000  0.30492700  1
  C  C8  1  0.30492700  0.06220600  0.00000000  1
  C  C9  1  0.69507300  0.93779400  0.00000000  1
  C  C10  1  0.06220600  0.00000000  0.69507300  1
  C  C11  1  0.69507300  0.06220600  0.00000000  1
  C  C12  1  0.93779400  0.00000000  0.30492700  1
  C  C13  1  0.93779400  0.00000000  0.69507300  1
  C  C14  1  0.30492700  0.93779400  0.00000000  1
  C  C15  1  0.00000000  0.69507300  0.93779400  1
  C  C16  1  0.00000000  0.30492700  0.93779400  1
  C  C17  1  0.00000000  0.69507300  0.06220600  1
  C  C18  1  0.80492700  0.50000000  0.43779400  1
  C  C19  1  0.19507300  0.50000000  0.43779400  1
  C  C20  1  0.56220600  0.19507300  0.50000000  1
  C  C21  1  0.43779400  0.19507300  0.50000000  1
  C  C22  1  0.50000000  0.56220600  0.80492700  1
  C  C23  1  0.50000000  0.43779400  0.19507300  1
  C  C24  1  0.12511700  0.10215300  0.26556700  1
  C  C25  1  0.62511700  0.23443300  0.60215300  1
  C  C26  1  0.62511700  0.76556700  0.39784700  1
  C  C27  1  0.76556700  0.60215300  0.37488300  1
  C  C28  1  0.23443300  0.60215300  0.62511700  1
  C  C29  1  0.39784700  0.62511700  0.76556700  1
  C  C30  1  0.60215300  0.37488300  0.76556700  1
  C  C31  1  0.26556700  0.12511700  0.10215300  1
  C  C32  1  0.10215300  0.26556700  0.12511700  1
  C  C33  1  0.89784700  0.73443300  0.12511700  1
  C  C34  1  0.26556700  0.87488300  0.89784700  1
  C  C35  1  0.89784700  0.26556700  0.87488300  1
  C  C36  1  0.73443300  0.87488300  0.10215300  1
  C  C37  1  0.73443300  0.12511700  0.89784700  1
  C  C38  1  0.10215300  0.73443300  0.87488300  1
  C  C39  1  0.12511700  0.89784700  0.73443300  1
  C  C40  1  0.87488300  0.10215300  0.73443300  1
  C  C41  1  0.87488300  0.89784700  0.26556700  1
  C  C42  1  0.60215300  0.62511700  0.23443300  1
  C  C43  1  0.39784700  0.37488300  0.23443300  1
  C  C44  1  0.76556700  0.39784700  0.62511700  1
  C  C45  1  0.23443300  0.39784700  0.37488300  1
  C  C46  1  0.37488300  0.76556700  0.60215300  1
  C  C47  1  0.37488300  0.23443300  0.39784700  1
  C  C48  1  0.87488300  0.89784700  0.73443300  1
  C  C49  1  0.37488300  0.76556700  0.39784700  1
  C  C50  1  0.37488300  0.23443300  0.60215300  1
  C  C51  1  0.23443300  0.39784700  0.62511700  1
  C  C52  1  0.76556700  0.39784700  0.37488300  1
  C  C53  1  0.60215300  0.37488300  0.23443300  1
  C  C54  1  0.39784700  0.62511700  0.23443300  1
  C  C55  1  0.73443300  0.87488300  0.89784700  1
  C  C56  1  0.89784700  0.73443300  0.87488300  1
  C  C57  1  0.10215300  0.26556700  0.87488300  1
  C  C58  1  0.73443300  0.12511700  0.10215300  1
  C  C59  1  0.10215300  0.73443300  0.12511700  1
  C  C60  1  0.26556700  0.12511700  0.89784700  1
  C  C61  1  0.26556700  0.87488300  0.10215300  1
  C  C62  1  0.89784700  0.26556700  0.12511700  1
  C  C63  1  0.87488300  0.10215300  0.26556700  1
  C  C64  1  0.12511700  0.89784700  0.26556700  1
  C  C65  1  0.12511700  0.10215300  0.73443300  1
  C  C66  1  0.39784700  0.37488300  0.76556700  1
  C  C67  1  0.60215300  0.62511700  0.76556700  1
  C  C68  1  0.23443300  0.60215300  0.37488300  1
  C  C69  1  0.76556700  0.60215300  0.62511700  1
  C  C70  1  0.62511700  0.23443300  0.39784700  1
  C  C71  1  0.62511700  0.76556700  0.60215300  1
  C  C72  1  0.06282000  0.20223600  0.22665200  1
  C  C73  1  0.56282000  0.27334800  0.70223600  1
  C  C74  1  0.56282000  0.72665200  0.29776400  1
  C  C75  1  0.72665200  0.70223600  0.43718000  1
  C  C76  1  0.27334800  0.70223600  0.56282000  1
  C  C77  1  0.29776400  0.56282000  0.72665200  1
  C  C78  1  0.70223600  0.43718000  0.72665200  1
  C  C79  1  0.22665200  0.06282000  0.20223600  1
  C  C80  1  0.20223600  0.22665200  0.06282000  1
  C  C81  1  0.79776400  0.77334800  0.06282000  1
  C  C82  1  0.22665200  0.93718000  0.79776400  1
  C  C83  1  0.79776400  0.22665200  0.93718000  1
  C  C84  1  0.77334800  0.93718000  0.20223600  1
  C  C85  1  0.77334800  0.06282000  0.79776400  1
  C  C86  1  0.20223600  0.77334800  0.93718000  1
  C  C87  1  0.06282000  0.79776400  0.77334800  1
  C  C88  1  0.93718000  0.20223600  0.77334800  1
  C  C89  1  0.93718000  0.79776400  0.22665200  1
  C  C90  1  0.70223600  0.56282000  0.27334800  1
  C  C91  1  0.29776400  0.43718000  0.27334800  1
  C  C92  1  0.72665200  0.29776400  0.56282000  1
  C  C93  1  0.27334800  0.29776400  0.43718000  1
  C  C94  1  0.43718000  0.72665200  0.70223600  1
  C  C95  1  0.43718000  0.27334800  0.29776400  1
  C  C96  1  0.93718000  0.79776400  0.77334800  1
  C  C97  1  0.43718000  0.72665200  0.29776400  1
  C  C98  1  0.43718000  0.27334800  0.70223600  1
  C  C99  1  0.27334800  0.29776400  0.56282000  1
  C  C100  1  0.72665200  0.29776400  0.43718000  1
  C  C101  1  0.70223600  0.43718000  0.27334800  1
  C  C102  1  0.29776400  0.56282000  0.27334800  1
  C  C103  1  0.77334800  0.93718000  0.79776400  1
  C  C104  1  0.79776400  0.77334800  0.93718000  1
  C  C105  1  0.20223600  0.22665200  0.93718000  1
  C  C106  1  0.77334800  0.06282000  0.20223600  1
  C  C107  1  0.20223600  0.77334800  0.06282000  1
  C  C108  1  0.22665200  0.06282000  0.79776400  1
  C  C109  1  0.22665200  0.93718000  0.20223600  1
  C  C110  1  0.79776400  0.22665200  0.06282000  1
  C  C111  1  0.93718000  0.20223600  0.22665200  1
  C  C112  1  0.06282000  0.79776400  0.22665200  1
  C  C113  1  0.06282000  0.20223600  0.77334800  1
  C  C114  1  0.29776400  0.43718000  0.72665200  1
  C  C115  1  0.70223600  0.56282000  0.72665200  1
  C  C116  1  0.27334800  0.70223600  0.43718000  1
  C  C117  1  0.72665200  0.70223600  0.56282000  1
  C  C118  1  0.56282000  0.27334800  0.29776400  1
  C  C119  1  0.56282000  0.72665200  0.70223600  1
loop_
_geom_bond_atom_site_label_1
_geom_bond_atom_site_label_2
_geom_bond_distance
_geom_bond_site_symmetry_2
Ba0 C21 3.107251 1_555
Ba0 C10 3.107251 1_555
Ba0 C4 3.107251 1_545
Ba0 C7 3.107251 1_555
Ba0 C46 3.265730 1_545
Ba0 C50 3.265730 1_555
Ba0 C49 3.265730 1_545
Ba0 C47 3.265730 1_555
Ba0 C64 3.265730 1_545
Ba0 C39 3.265730 1_545
Ba0 C65 3.265730 1_555
Ba0 C24 3.265730 1_555
Ba1 C13 3.107251 1_555
Ba1 C12 3.107251 1_555
Ba1 C20 3.107251 1_555
Ba1 C3 3.107251 1_545
Ba1 C63 3.265730 1_555
Ba1 C40 3.265730 1_555
Ba1 C41 3.265730 1_545
Ba1 C48 3.265730 1_545
Ba1 C71 3.265730 1_545
Ba1 C25 3.265730 1_555
Ba1 C26 3.265730 1_545
Ba1 C70 3.265730 1_555
Ba2 C19 3.107251 1_555
Ba2 C17 3.107251 1_555
Ba2 C18 3.107251 1_455
Ba2 C0 3.107251 1_555
Ba2 C68 3.265730 1_555
Ba2 C27 3.265730 1_455
Ba2 C45 3.265730 1_555
Ba2 C52 3.265730 1_455
Ba2 C33 3.265730 1_455
Ba2 C32 3.265730 1_555
Ba2 C59 3.265730 1_555
Ba2 C62 3.265730 1_455
Ba3 C15 3.107251 1_555
Ba3 C16 3.107251 1_555
Ba3 C5 3.107251 1_555
Ba3 C6 3.107251 1_455
Ba3 C57 3.265730 1_555
Ba3 C38 3.265730 1_555
Ba3 C56 3.265730 1_455
Ba3 C35 3.265730 1_455
Ba3 C28 3.265730 1_555
Ba3 C69 3.265730 1_455
Ba3 C44 3.265730 1_455
Ba3 C51 3.265730 1_555
Ba4 C9 3.107251 1_555
Ba4 C14 3.107251 1_555
Ba4 C2 3.107251 1_555
Ba4 C22 3.107251 1_554
Ba4 C36 3.265730 1_555
Ba4 C61 3.265730 1_555
Ba4 C34 3.265730 1_554
Ba4 C55 3.265730 1_554
Ba4 C67 3.265730 1_554
Ba4 C42 3.265730 1_555
Ba4 C54 3.265730 1_555
Ba4 C29 3.265730 1_554
Ba5 C11 3.107251 1_555
Ba5 C23 3.107251 1_555
Ba5 C1 3.107251 1_554
Ba5 C8 3.107251 1_555
Ba5 C30 3.265730 1_554
Ba5 C53 3.265730 1_555
Ba5 C66 3.265730 1_554
Ba5 C43 3.265730 1_555
Ba5 C37 3.265730 1_554
Ba5 C60 3.265730 1_554
Ba5 C58 3.265730 1_555
Ba5 C31 3.265730 1_555
C0 C16 1.427668 1_554
C0 C32 1.448904 1_555
C0 C62 1.448904 1_455
C1 C22 1.427668 1_555
C1 C30 1.448904 1_555
C1 C66 1.448904 1_555
C2 C23 1.427668 1_555
C2 C42 1.448904 1_555
C2 C54 1.448904 1_555
C3 C4 1.427668 1_555
C3 C71 1.448904 1_555
C4 C46 1.448904 1_555
C4 C49 1.448904 1_555
C5 C51 1.448904 1_555
C6 C69 1.448904 1_555
C10 C13 1.427668 1_455
C10 C65 1.448904 1_555
C10 C39 1.448904 1_545
C11 C9 1.427668 1_545
C11 C58 1.448904 1_555
C11 C37 1.448904 1_554
C12 C7 1.427668 1_655
C12 C63 1.448904 1_555
C12 C41 1.448904 1_545
C13 C40 1.448904 1_555
C13 C48 1.448904 1_545
C14 C8 1.427668 1_565
C14 C61 1.448904 1_555
C14 C34 1.448904 1_554
C15 C17 1.427668 1_556
C15 C38 1.448904 1_555
C15 C56 1.448904 1_455
C16 C57 1.448904 1_555
C16 C35 1.448904 1_455
C17 C59 1.448904 1_555
C17 C33 1.448904 1_455
C18 C6 1.427668 1_555
C18 C27 1.448904 1_555
C18 C52 1.448904 1_555
C19 C5 1.427668 1_555
C19 C68 1.448904 1_555
C19 C45 1.448904 1_555
C20 C21 1.427668 1_555
C20 C25 1.448904 1_555
C20 C70 1.448904 1_555
C21 C50 1.448904 1_555
C21 C47 1.448904 1_555
C22 C67 1.448904 1_555
C22 C29 1.448904 1_555
C23 C53 1.448904 1_555
C23 C43 1.448904 1_555
C24 C72 1.424600 1_555
C24 C79 1.445493 1_555
C24 C7 1.448904 1_555
C25 C73 1.424600 1_555
C25 C92 1.445493 1_555
C26 C74 1.424600 1_555
C26 C75 1.445493 1_555
C26 C3 1.448904 1_555
C27 C75 1.424600 1_555
C27 C90 1.445493 1_555
C28 C76 1.424600 1_555
C28 C77 1.445493 1_555
C28 C5 1.448904 1_555
C29 C77 1.424600 1_555
C29 C94 1.445493 1_555
C30 C78 1.424600 1_555
C30 C73 1.445493 1_555
C31 C79 1.424600 1_555
C31 C80 1.445493 1_555
C31 C8 1.448904 1_555
C32 C80 1.424600 1_555
C32 C72 1.445493 1_555
C33 C81 1.424600 1_555
C33 C89 1.445493 1_555
C34 C82 1.424600 1_555
C34 C86 1.445493 1_555
C35 C83 1.424600 1_555
C35 C88 1.445493 1_555
C36 C84 1.424600 1_555
C36 C81 1.445493 1_555
C36 C9 1.448904 1_555
C37 C85 1.424600 1_555
C37 C83 1.445493 1_555
C38 C86 1.424600 1_555
C38 C87 1.445493 1_555
C39 C87 1.424600 1_555
C39 C82 1.445493 1_555
C40 C88 1.424600 1_555
C40 C85 1.445493 1_555
C41 C89 1.424600 1_555
C41 C84 1.445493 1_555
C42 C90 1.424600 1_555
C42 C74 1.445493 1_555
C43 C91 1.424600 1_555
C43 C95 1.445493 1_555
C44 C92 1.424600 1_555
C44 C78 1.445493 1_555
C44 C6 1.448904 1_555
C45 C93 1.424600 1_555
C45 C91 1.445493 1_555
C46 C94 1.424600 1_555
C46 C76 1.445493 1_555
C47 C95 1.424600 1_555
C47 C93 1.445493 1_555
C48 C96 1.424600 1_555
C49 C97 1.424600 1_555
C50 C98 1.424600 1_555
C50 C99 1.445493 1_555
C51 C99 1.424600 1_555
C54 C97 1.445493 1_555
C55 C9 1.448904 1_556
C56 C96 1.445493 1_555
C60 C8 1.448904 1_556
C64 C7 1.448904 1_565
C66 C98 1.445493 1_555
C73 C98 1.441760 1_555
C74 C97 1.441760 1_555
C87 C96 1.441760 1_455
C93 C99 1.441760 1_555
C100 C52 1.424600 1_555
C100 C92 1.441760 1_555
C100 C70 1.445493 1_555
C101 C53 1.424600 1_555
C101 C90 1.441760 1_555
C101 C52 1.445493 1_555
C102 C54 1.424600 1_555
C102 C91 1.441760 1_555
C102 C68 1.445493 1_555
C103 C55 1.424600 1_555
C103 C85 1.441760 1_565
C103 C48 1.445493 1_555
C104 C56 1.424600 1_555
C104 C81 1.441760 1_556
C104 C55 1.445493 1_555
C105 C57 1.424600 1_555
C105 C80 1.441760 1_556
C105 C60 1.445493 1_555
C106 C58 1.424600 1_555
C106 C84 1.441760 1_545
C106 C63 1.445493 1_555
C107 C59 1.424600 1_555
C107 C86 1.441760 1_554
C107 C61 1.445493 1_555
C108 C60 1.424600 1_555
C108 C82 1.441760 1_545
C108 C65 1.445493 1_555
C109 C61 1.424600 1_555
C109 C79 1.441760 1_565
C109 C64 1.445493 1_555
C110 C62 1.424600 1_555
C110 C83 1.441760 1_554
C110 C58 1.445493 1_555
C111 C63 1.424600 1_555
C111 C72 1.441760 1_655
C111 C62 1.445493 1_555
C112 C64 1.424600 1_555
C112 C89 1.441760 1_455
C112 C59 1.445493 1_555
C113 C65 1.424600 1_555
C113 C88 1.441760 1_455
C113 C57 1.445493 1_555
C114 C66 1.424600 1_555
C114 C77 1.441760 1_555
C114 C51 1.445493 1_555
C115 C67 1.424600 1_555
C115 C78 1.441760 1_555
C115 C69 1.445493 1_555
C116 C68 1.424600 1_555
C116 C76 1.441760 1_555
C116 C49 1.445493 1_555
C117 C69 1.424600 1_555
C117 C75 1.441760 1_555
C117 C71 1.445493 1_555
C118 C70 1.424600 1_555
C118 C95 1.441760 1_555
C118 C53 1.445493 1_555
C119 C71 1.424600 1_555
C119 C94 1.441760 1_555
C119 C67 1.445493 1_555
