# generated using pymatgen
data_Na5HfGa3(PO4)6
_symmetry_space_group_name_H-M   'P 1'
_cell_length_a   8.79341516
_cell_length_b   8.78391353
_cell_length_c   22.11762967
_cell_angle_alpha   89.89823905
_cell_angle_beta   90.03962015
_cell_angle_gamma   119.99217363
_symmetry_Int_Tables_number   1
_chemical_formula_structural   Na5HfGa3(PO4)6
_chemical_formula_sum   'Na15 Hf3 Ga9 P18 O72'
_cell_volume   1479.61386443
_cell_formula_units_Z   3
loop_
 _symmetry_equiv_pos_site_id
 _symmetry_equiv_pos_as_xyz
  1  'x, y, z'
loop_
 _atom_site_type_symbol
 _atom_site_label
 _atom_site_symmetry_multiplicity
 _atom_site_fract_x
 _atom_site_fract_y
 _atom_site_fract_z
 _atom_site_occupancy
  Na  Na0  1  0.63354493  0.99959588  0.25315924  1
  Na  Na1  1  0.36603900  0.36708349  0.25365786  1
  Na  Na2  1  0.00049830  0.63454119  0.25321792  1
  Na  Na3  1  0.63895306  0.63269579  0.74745811  1
  Na  Na4  1  0.99808920  0.36200294  0.74766830  1
  Na  Na5  1  0.03091938  0.69985881  0.58138175  1
  Na  Na6  1  0.66546196  0.96796094  0.58099084  1
  Na  Na7  1  0.66551306  0.69829599  0.08191896  1
  Na  Na8  1  0.03160948  0.33136045  0.08213599  1
  Na  Na9  1  0.01213139  0.01335942  0.49530270  1
  Na  Na10  1  0.01103425  0.99866210  0.99552840  1
  Na  Na11  1  0.65376754  0.31925116  0.83176400  1
  Na  Na12  1  0.66650930  0.33344922  0.33513088  1
  Na  Na13  1  0.33206441  0.67747864  0.16537420  1
  Na  Na14  1  0.33287903  0.66464302  0.66112903  1
  Hf  Hf0  1  0.66536388  0.33306221  0.97859208  1
  Hf  Hf1  1  0.66389773  0.33232515  0.47728015  1
  Hf  Hf2  1  0.33405793  0.67345399  0.81405195  1
  Ga  Ga0  1  0.00022402  -0.00045300  0.35465552  1
  Ga  Ga1  1  0.00246665  0.00144794  0.85320274  1
  Ga  Ga2  1  0.00764594  0.00634778  0.64823096  1
  Ga  Ga3  1  0.00520943  0.99912430  0.15011933  1
  Ga  Ga4  1  0.65893376  0.32704442  0.68314545  1
  Ga  Ga5  1  0.66538754  0.33113897  0.18286402  1
  Ga  Ga6  1  0.33265576  0.67304337  0.01548109  1
  Ga  Ga7  1  0.33250619  0.65976675  0.51416904  1
  Ga  Ga8  1  0.33322909  0.66661109  0.31963905  1
  P  P0  1  0.28973470  0.00032573  0.25046369  1
  P  P1  1  0.71061727  0.70995309  0.24935809  1
  P  P2  1  -0.00075878  0.28965979  0.24938188  1
  P  P3  1  0.29073812  0.28100802  0.74980830  1
  P  P4  1  0.99526112  0.71141518  0.74781950  1
  P  P5  1  0.71690580  0.00680651  0.74788130  1
  P  P6  1  0.96384010  0.33456146  0.58570642  1
  P  P7  1  0.37135018  0.03966177  0.58483474  1
  P  P8  1  0.66285794  0.62653030  0.58606571  1
  P  P9  1  0.96531166  0.63138801  0.08606407  1
  P  P10  1  0.66325114  0.03530427  0.08650579  1
  P  P11  1  0.36925230  0.33063519  0.08610285  1
  P  P12  1  0.63203646  0.67753654  0.91782761  1
  P  P13  1  0.04521645  0.36855380  0.91819422  1
  P  P14  1  0.32254801  0.95545322  0.91853682  1
  P  P15  1  0.62641246  0.95062290  0.41557321  1
  P  P16  1  0.32436816  0.37410942  0.41434285  1
  P  P17  1  0.04926363  0.67510627  0.41578952  1
  O  O0  1  0.20877171  0.04088682  0.30539957  1
  O  O1  1  0.83426596  0.79449186  0.30338141  1
  O  O2  1  0.96071302  0.16574199  0.30340864  1
  O  O3  1  0.20787161  0.17357395  0.80722041  1
  O  O4  1  0.96269104  0.79659859  0.80319264  1
  O  O5  1  0.83424902  0.03954076  0.80360082  1
  O  O6  1  0.79218184  0.96863193  0.69017439  1
  O  O7  1  0.17226036  0.20703365  0.69381830  1
  O  O8  1  0.02456216  0.81650415  0.68903207  1
  O  O9  1  0.78618223  0.82211639  0.19088470  1
  O  O10  1  0.03534009  0.21406697  0.19091688  1
  O  O11  1  0.17238086  0.95964547  0.19389213  1
  O  O12  1  0.88317050  0.37019362  0.64324572  1
  O  O13  1  0.49261686  0.12115331  0.64007429  1
  O  O14  1  0.63643132  0.51874728  0.64457548  1
  O  O15  1  0.88296933  0.51317553  0.14340802  1
  O  O16  1  0.63574250  0.11705378  0.14478368  1
  O  O17  1  0.48677153  0.36726212  0.14328007  1
  O  O18  1  0.46129875  0.30595816  0.03080111  1
  O  O19  1  0.84086215  0.54025007  0.03164681  1
  O  O20  1  0.69800969  0.16010879  0.03224557  1
  O  O21  1  0.45880600  0.15376200  0.52844972  1
  O  O22  1  0.69665990  0.53600526  0.53197288  1
  O  O23  1  0.83898016  0.30129422  0.53146771  1
  O  O24  1  0.54312001  0.69635811  0.97540334  1
  O  O25  1  0.15389481  0.45714240  0.97559427  1
  O  O26  1  0.29986099  0.84472901  0.97465478  1
  O  O27  1  0.54071611  0.84488901  0.47387592  1
  O  O28  1  0.30106388  0.46135865  0.47044170  1
  O  O29  1  0.15589768  0.69658279  0.47387451  1
  O  O30  1  0.12692648  0.64327480  0.35741542  1
  O  O31  1  0.51689714  0.87239071  0.35730520  1
  O  O32  1  0.35680316  0.48107858  0.35501209  1
  O  O33  1  0.12937732  0.48117916  0.86047696  1
  O  O34  1  0.35322498  0.87228773  0.86152190  1
  O  O35  1  0.51980439  0.64953903  0.86024212  1
  O  O36  1  0.02979628  0.84011659  0.41056439  1
  O  O37  1  0.81053537  0.96973076  0.41039572  1
  O  O38  1  0.15989067  0.18931092  0.40960212  1
  O  O39  1  0.02651456  0.18597360  0.91213826  1
  O  O40  1  0.15837160  0.97318533  0.91142454  1
  O  O41  1  0.81431446  0.84181123  0.91141335  1
  O  O42  1  0.97509046  0.16445489  0.59053403  1
  O  O43  1  0.18477935  0.01611494  0.59003656  1
  O  O44  1  0.83191502  0.81273969  0.58938598  1
  O  O45  1  0.97539287  0.81140185  0.09119023  1
  O  O46  1  0.83251841  0.01959469  0.09052993  1
  O  O47  1  0.18363712  0.16826247  0.09080714  1
  O  O48  1  0.69705163  0.17184724  0.74245255  1
  O  O49  1  0.47934397  0.31070632  0.74369305  1
  O  O50  1  0.83049473  0.52198664  0.74418065  1
  O  O51  1  0.68909237  0.52153631  0.24348621  1
  O  O52  1  0.83233725  0.31112079  0.24385696  1
  O  O53  1  0.47768268  0.16729998  0.24363785  1
  O  O54  1  0.64802648  0.50891729  0.92184393  1
  O  O55  1  0.86084098  0.35278155  0.92249207  1
  O  O56  1  0.49101338  0.13978866  0.92262035  1
  O  O57  1  0.64588797  0.13743232  0.42078178  1
  O  O58  1  0.49231306  0.35616681  0.42055754  1
  O  O59  1  0.86293265  0.50775967  0.42150745  1
  O  O60  1  0.35257474  0.49875485  0.07926018  1
  O  O61  1  0.14490386  0.64221366  0.07821455  1
  O  O62  1  0.50251995  0.84978146  0.07871237  1
  O  O63  1  0.35216334  0.85349773  0.57812528  1
  O  O64  1  0.50183073  0.65171155  0.57814939  1
  O  O65  1  0.14442904  0.50265303  0.57745181  1
  O  O66  1  0.31330846  0.83569559  0.25663330  1
  O  O67  1  0.52363464  0.68850806  0.25544003  1
  O  O68  1  0.16400883  0.47730865  0.25542067  1
  O  O69  1  0.31352744  0.47225502  0.75508534  1
  O  O70  1  0.15692627  0.68249076  0.75346577  1
  O  O71  1  0.53219292  0.83733095  0.75404329  1
loop_
_geom_bond_atom_site_label_1
_geom_bond_atom_site_label_2
_geom_bond_distance
_geom_bond_site_symmetry_2
Na0 O67 2.400580 1_555
Na0 O52 2.408775 1_565
Na0 O66 2.440297 1_555
Na0 O53 2.471801 1_565
Na0 O31 2.540638 1_555
Na0 O16 2.604202 1_565
Na0 O2 2.728644 1_565
Na0 O9 2.868998 1_555
Na1 O68 2.411411 1_555
Na1 O53 2.411764 1_555
Na1 O67 2.445816 1_555
Na1 O51 2.471384 1_555
Na1 O32 2.474684 1_555
Na1 O17 2.662505 1_555
Na1 O0 2.731483 1_555
Na1 O10 2.877836 1_555
Na2 O51 2.410913 1_455
Na2 O66 2.415579 1_555
Na2 O68 2.441753 1_555
Na2 O52 2.470211 1_455
Na2 O30 2.542606 1_555
Na2 O15 2.647179 1_455
Na2 O1 2.720799 1_455
Na2 O11 2.799175 1_555
Na3 O50 2.329328 1_555
Na3 O71 2.412823 1_555
Na3 O49 2.451171 1_555
Na3 O14 2.483172 1_555
Na3 O69 2.484205 1_555
Na3 O35 2.738999 1_555
Na3 O4 2.756867 1_555
Na3 O6 2.853456 1_555
Na4 O48 2.321721 1_555
Na4 O70 2.441777 1_655
Na4 O69 2.443966 1_655
Na4 O50 2.494517 1_555
Na4 O12 2.535620 1_555
Na4 O33 2.729658 1_655
Na4 O5 2.745759 1_555
Na4 O7 2.776654 1_655
Na5 O65 2.394523 1_555
Na5 O44 2.410911 1_455
Na5 O43 2.414163 1_565
Na5 O63 2.448414 1_555
Na5 O8 2.605392 1_555
Na5 O29 2.626410 1_555
Na5 O22 2.770709 1_455
Na5 O12 2.858777 1_455
Na6 O42 2.395603 1_565
Na6 O64 2.407376 1_555
Na6 O63 2.415668 1_555
Na6 O44 2.455562 1_555
Na6 O27 2.608574 1_555
Na6 O6 2.657652 1_555
Na6 O23 2.761397 1_565
Na6 O13 2.807530 1_565
Na7 O62 2.395015 1_555
Na7 O45 2.397410 1_555
Na7 O60 2.413721 1_555
Na7 O46 2.452741 1_565
Na7 O24 2.585937 1_554
Na7 O9 2.639931 1_555
Na7 O19 2.772911 1_555
Na7 O17 2.861320 1_555
Na8 O61 2.394863 1_555
Na8 O47 2.406202 1_555
Na8 O46 2.409225 1_455
Na8 O60 2.445981 1_555
Na8 O25 2.595444 1_554
Na8 O10 2.622247 1_555
Na8 O20 2.770465 1_455
Na8 O15 2.862267 1_455
Na9 O38 2.378054 1_555
Na9 O36 2.469691 1_545
Na9 O37 2.476855 1_445
Na9 O43 2.579668 1_555
Na9 O42 2.597520 1_455
Na9 O44 2.673290 1_445
Na10 O40 2.341708 1_555
Na10 O39 2.427564 1_565
Na10 O41 2.444109 1_455
Na10 O47 2.590373 1_566
Na10 O45 2.598782 1_456
Na10 O46 2.684687 1_466
Na11 O49 2.456379 1_555
Na11 O48 2.495234 1_555
Na11 O56 2.511695 1_555
Na11 O50 2.562017 1_555
Na11 O54 2.616034 1_555
Na11 O55 2.624888 1_555
Na12 O57 2.502587 1_555
Na12 O58 2.503412 1_555
Na12 O59 2.517801 1_555
Na12 O52 2.555701 1_555
Na12 O51 2.556997 1_555
Na12 O53 2.562247 1_555
Na13 O62 2.436580 1_555
Na13 O61 2.451301 1_555
Na13 O66 2.504458 1_555
Na13 O60 2.533557 1_555
Na13 O68 2.576005 1_555
Na13 O67 2.578417 1_555
Na14 O64 2.400353 1_555
Na14 O65 2.417374 1_555
Na14 O63 2.420611 1_555
Na14 O70 2.614835 1_555
Na14 O69 2.627501 1_555
Na14 O71 2.635159 1_555
Hf0 O56 2.041541 1_555
Hf0 O18 2.045692 1_556
Hf0 O54 2.052554 1_555
Hf0 O20 2.056154 1_556
Hf0 O55 2.056395 1_555
Hf0 O19 2.065873 1_556
Hf1 O21 2.040085 1_555
Hf1 O58 2.051020 1_555
Hf1 O22 2.058912 1_555
Hf1 O57 2.062416 1_555
Hf1 O59 2.063822 1_555
Hf1 O23 2.072877 1_555
Hf2 O34 1.973097 1_555
Hf2 O35 2.023761 1_555
Hf2 O33 2.025724 1_555
Hf2 O70 2.085282 1_555
Hf2 O71 2.087647 1_555
Hf2 O69 2.132091 1_555
Ga0 O38 1.972744 1_555
Ga0 O36 1.978737 1_545
Ga0 O37 1.983858 1_445
Ga0 O0 2.004320 1_555
Ga0 O1 2.009250 1_445
Ga0 O2 2.009289 1_455
Ga1 O3 1.962023 1_555
Ga1 O40 1.983943 1_545
Ga1 O4 1.990199 1_445
Ga1 O5 1.998719 1_455
Ga1 O39 2.008855 1_555
Ga1 O41 2.009558 1_445
Ga2 O7 1.916414 1_555
Ga2 O8 1.964624 1_545
Ga2 O6 1.983411 1_445
Ga2 O43 1.989715 1_555
Ga2 O42 2.007456 1_455
Ga2 O44 2.086078 1_445
Ga3 O11 1.930021 1_555
Ga3 O9 1.985806 1_455
Ga3 O10 1.988646 1_565
Ga3 O47 2.013800 1_565
Ga3 O45 2.015303 1_455
Ga3 O46 2.084405 1_465
Ga4 O13 1.917558 1_555
Ga4 O14 1.982473 1_555
Ga4 O12 2.016062 1_555
Ga4 O49 2.020774 1_555
Ga4 O48 2.035014 1_555
Ga4 O50 2.110253 1_555
Ga5 O16 1.956748 1_555
Ga5 O17 1.956904 1_555
Ga5 O15 1.979330 1_555
Ga5 O53 2.055156 1_555
Ga5 O52 2.064089 1_555
Ga5 O51 2.073000 1_555
Ga6 O26 1.898002 1_554
Ga6 O25 1.967081 1_554
Ga6 O24 1.968624 1_554
Ga6 O61 2.068602 1_555
Ga6 O62 2.069680 1_555
Ga6 O60 2.150449 1_555
Ga7 O28 1.890248 1_555
Ga7 O29 1.951871 1_555
Ga7 O27 1.952216 1_555
Ga7 O65 2.076851 1_555
Ga7 O64 2.080024 1_555
Ga7 O63 2.154259 1_555
Ga8 O32 1.908926 1_555
Ga8 O31 1.911695 1_555
Ga8 O30 1.913324 1_555
Ga8 O66 2.104979 1_555
Ga8 O68 2.127988 1_555
Ga8 O67 2.129996 1_555
O0 P0 1.538336 1_555
O1 P1 1.534759 1_555
O2 P2 1.534511 1_655
O3 P3 1.530852 1_555
O4 P4 1.536173 1_555
O5 P5 1.539167 1_555
O6 P5 1.550561 1_565
O7 P3 1.537999 1_555
O8 P4 1.538676 1_455
O9 P1 1.557874 1_555
O10 P2 1.558246 1_555
O11 P0 1.545738 1_565
O12 P6 1.563772 1_555
O13 P7 1.542849 1_555
O14 P8 1.549563 1_555
O15 P9 1.567170 1_555
O16 P10 1.553374 1_555
O17 P11 1.561389 1_555
O18 P11 1.541400 1_555
O19 P9 1.553317 1_555
O20 P10 1.548009 1_555
O21 P7 1.541910 1_555
O22 P8 1.546669 1_555
O23 P6 1.551983 1_555
O24 P12 1.546504 1_555
O25 P13 1.545615 1_555
O26 P14 1.525901 1_555
O27 P15 1.546183 1_555
O28 P16 1.526306 1_555
O29 P17 1.545197 1_555
O30 P17 1.550773 1_555
O31 P15 1.549294 1_555
O32 P16 1.553846 1_555
O33 P13 1.555916 1_555
O34 P14 1.548351 1_555
O35 P12 1.553505 1_555
O36 P17 1.546275 1_555
O37 P15 1.546342 1_555
O38 P16 1.546284 1_555
O39 P13 1.534311 1_555
O40 P14 1.535448 1_555
O41 P12 1.535802 1_555
O42 P6 1.549526 1_555
O43 P7 1.551933 1_555
O44 P8 1.568438 1_555
O45 P9 1.543202 1_555
O46 P10 1.564457 1_555
O47 P11 1.543189 1_555
O48 P5 1.548847 1_555
O49 P3 1.550669 1_555
O50 P4 1.569843 1_555
O51 P1 1.574605 1_555
O52 P2 1.575042 1_655
O53 P0 1.575287 1_555
O54 P12 1.558574 1_555
O55 P13 1.559620 1_655
O56 P14 1.557783 1_545
O57 P15 1.566813 1_545
O58 P16 1.567495 1_555
O59 P17 1.566236 1_655
O60 P11 1.562335 1_555
O61 P9 1.543804 1_455
O62 P10 1.543029 1_565
O63 P7 1.565095 1_565
O64 P8 1.548297 1_555
O65 P6 1.546104 1_455
O66 P0 1.565804 1_565
O67 P1 1.564478 1_555
O68 P2 1.564240 1_555
O69 P3 1.593717 1_555
O70 P4 1.569013 1_455
O71 P5 1.566871 1_565
