# generated using pymatgen
data_Na14Ca4Si7Ge4S5O48
_symmetry_space_group_name_H-M   'P 1'
_cell_length_a   18.29708259
_cell_length_b   9.14606268
_cell_length_c   22.29537108
_cell_angle_alpha   89.93057829
_cell_angle_beta   88.94987712
_cell_angle_gamma   119.96462939
_symmetry_Int_Tables_number   1
_chemical_formula_structural   Na14Ca4Si7Ge4S5O48
_chemical_formula_sum   'Na42 Ca12 Si21 Ge12 S15 O144'
_cell_volume   3231.55827724
_cell_formula_units_Z   3
loop_
 _symmetry_equiv_pos_site_id
 _symmetry_equiv_pos_as_xyz
  1  'x, y, z'
loop_
 _atom_site_type_symbol
 _atom_site_label
 _atom_site_symmetry_multiplicity
 _atom_site_fract_x
 _atom_site_fract_y
 _atom_site_fract_z
 _atom_site_occupancy
  Na  Na0  1  0.80877810  0.99272366  0.25358193  1
  Na  Na1  1  0.17827169  0.34557052  0.25822360  1
  Na  Na2  1  0.69195389  0.36453001  0.25215966  1
  Na  Na3  1  0.99679576  0.63476131  0.24658367  1
  Na  Na4  1  0.49439757  0.63076009  0.25021662  1
  Na  Na5  1  0.31137700  0.62459704  0.73593969  1
  Na  Na6  1  0.99433123  0.35762360  0.74316324  1
  Na  Na7  1  0.50164911  0.36572886  0.74127952  1
  Na  Na8  1  0.19043241  0.01607253  0.74486486  1
  Na  Na9  1  0.68021000  0.01166434  0.75126222  1
  Na  Na10  1  0.14888980  0.32928610  0.58461122  1
  Na  Na11  1  0.66788428  0.34672526  0.57414510  1
  Na  Na12  1  0.33977897  0.99136706  0.57656745  1
  Na  Na13  1  0.83826624  0.99170552  0.57962495  1
  Na  Na14  1  0.16499798  0.98799016  0.08158526  1
  Na  Na15  1  0.64859220  0.96771482  0.09284558  1
  Na  Na16  1  0.33617380  0.68111534  0.08965478  1
  Na  Na17  1  0.83774230  0.68870963  0.08407178  1
  Na  Na18  1  0.48338710  0.67451634  0.92542749  1
  Na  Na19  1  0.96858947  0.66712714  0.92353134  1
  Na  Na20  1  0.35665762  0.04431586  0.91489740  1
  Na  Na21  1  0.85236651  0.04156721  0.91164500  1
  Na  Na22  1  0.16503932  0.28415319  0.91455336  1
  Na  Na23  1  0.67261138  0.28095603  0.90877641  1
  Na  Na24  1  0.47218747  0.27786761  0.42520072  1
  Na  Na25  1  0.97236556  0.27040057  0.42671732  1
  Na  Na26  1  0.17073626  0.06628291  0.40793085  1
  Na  Na27  1  0.67186272  0.03663261  0.41115867  1
  Na  Na28  1  0.35405317  0.66568992  0.41157053  1
  Na  Na29  1  0.85129199  0.67677260  0.41964106  1
  Na  Na30  1  0.99343400  0.99024407  0.50123180  1
  Na  Na31  1  0.50222969  0.99318503  0.50291740  1
  Na  Na32  1  0.99732180  0.00304061  0.00457048  1
  Na  Na33  1  0.50257197  0.00815412  0.00598206  1
  Na  Na34  1  0.32537785  0.31772256  0.81852453  1
  Na  Na35  1  0.82125254  0.33634865  0.82710519  1
  Na  Na36  1  0.32352650  0.30983233  0.33042367  1
  Na  Na37  1  0.82356876  0.31243931  0.32856361  1
  Na  Na38  1  0.16251810  0.66489909  0.17122277  1
  Na  Na39  1  0.66343671  0.66155875  0.16772113  1
  Na  Na40  1  0.16282638  0.66498647  0.66481161  1
  Na  Na41  1  0.66291621  0.66142262  0.66825265  1
  Ca  Ca0  1  0.00200414  0.00257553  0.35223980  1
  Ca  Ca1  1  0.49149905  0.98862026  0.34846843  1
  Ca  Ca2  1  0.99106604  0.99570107  0.84720039  1
  Ca  Ca3  1  0.50860474  0.01052775  0.84715685  1
  Ca  Ca4  1  0.34112175  0.33612961  0.67283692  1
  Ca  Ca5  1  0.83900580  0.34031669  0.17532164  1
  Ca  Ca6  1  0.33230981  0.32152917  0.99735915  1
  Ca  Ca7  1  0.83025310  0.33422341  0.98439766  1
  Ca  Ca8  1  0.33042935  0.32895744  0.48406764  1
  Ca  Ca9  1  0.83032661  0.33461857  0.49269051  1
  Ca  Ca10  1  0.66905355  0.67448919  0.30918509  1
  Ca  Ca11  1  0.16889581  0.66451176  0.80621567  1
  Si  Si0  1  0.16173322  -0.00101457  0.25138937  1
  Si  Si1  1  0.64285058  0.00044948  0.24698336  1
  Si  Si2  1  0.34672241  0.67674432  0.24977425  1
  Si  Si3  1  0.85614639  0.70784743  0.24747571  1
  Si  Si4  1  0.14392647  0.28428802  0.74822454  1
  Si  Si5  1  0.66368135  0.32981054  0.75162505  1
  Si  Si6  1  0.35764325  0.00228146  0.74861049  1
  Si  Si7  1  0.84779304  0.01938517  0.75014397  1
  Si  Si8  1  0.49705304  0.34925304  0.58036465  1
  Si  Si9  1  0.98463351  0.34107019  0.58453782  1
  Si  Si10  1  0.67425682  0.02936771  0.58796562  1
  Si  Si11  1  0.84434445  0.64918217  0.58347026  1
  Si  Si12  1  0.48388981  0.62989560  0.08285884  1
  Si  Si13  1  0.99310475  0.64775079  0.08134511  1
  Si  Si14  1  0.34347869  0.03685116  0.08126228  1
  Si  Si15  1  0.17508949  0.31977679  0.08529510  1
  Si  Si16  1  0.80607278  0.66512429  0.92097746  1
  Si  Si17  1  0.66612716  0.94374795  0.91389899  1
  Si  Si18  1  0.30610791  0.94861894  0.42149687  1
  Si  Si19  1  0.81140509  0.96153163  0.41979593  1
  Si  Si20  1  0.16695508  0.39049364  0.41422889  1
  Ge  Ge0  1  0.98642393  0.01211601  0.65283155  1
  Ge  Ge1  1  0.51972301  0.07323460  0.65274828  1
  Ge  Ge2  1  0.01826168  0.97151433  0.15373663  1
  Ge  Ge3  1  0.48539273  0.96200722  0.15350253  1
  Ge  Ge4  1  0.82721473  0.32531703  0.67510781  1
  Ge  Ge5  1  0.32704575  0.32845542  0.17558113  1
  Ge  Ge6  1  0.17388915  0.66515511  0.03439088  1
  Ge  Ge7  1  0.65939669  0.66926091  0.01633531  1
  Ge  Ge8  1  0.15776932  0.64951781  0.51483365  1
  Ge  Ge9  1  0.68179272  0.69513341  0.53468850  1
  Ge  Ge10  1  0.19137608  0.69512056  0.31233006  1
  Ge  Ge11  1  0.69229341  0.69145540  0.81118409  1
  S  S0  1  0.00344523  0.29929840  0.25093709  1
  S  S1  1  0.49078230  0.28342819  0.24520321  1
  S  S2  1  0.99293608  0.69841386  0.74756797  1
  S  S3  1  0.50210687  0.70174123  0.75349673  1
  S  S4  1  0.17103527  0.00840770  0.58280853  1
  S  S5  1  0.32940320  0.65132441  0.58067273  1
  S  S6  1  0.82774944  0.00787086  0.07857170  1
  S  S7  1  0.67090084  0.33530753  0.08106866  1
  S  S8  1  0.30940435  0.66297116  0.92255906  1
  S  S9  1  0.02827699  0.38372956  0.92326890  1
  S  S10  1  0.52491662  0.38576812  0.91689282  1
  S  S11  1  0.16839980  0.95881489  0.91879506  1
  S  S12  1  0.66549101  0.37022828  0.41774694  1
  S  S13  1  0.02742081  0.66493448  0.41594165  1
  S  S14  1  0.52319991  0.66944210  0.42068946  1
  O  O0  1  0.12911144  0.05544670  0.30895355  1
  O  O1  1  0.61058598  0.03714367  0.30973557  1
  O  O2  1  0.39913866  0.74018003  0.30987082  1
  O  O3  1  0.90445948  0.78350736  0.30870936  1
  O  O4  1  0.48015476  0.20394622  0.30483642  1
  O  O5  1  0.99682322  0.22140668  0.30988459  1
  O  O6  1  0.11380398  0.19154890  0.81313800  1
  O  O7  1  0.63164217  0.21083888  0.81025130  1
  O  O8  1  0.49342939  0.76311209  0.81350967  1
  O  O9  1  0.98490899  0.75938238  0.80782015  1
  O  O10  1  0.39895814  0.01403183  0.81304442  1
  O  O11  1  0.89824498  0.05893451  0.81127443  1
  O  O12  1  0.42074389  0.99193679  0.69141337  1
  O  O13  1  0.89496445  0.98716258  0.69267511  1
  O  O14  1  0.07926423  0.15577629  0.69332237  1
  O  O15  1  0.59517658  0.24786586  0.69590172  1
  O  O16  1  -0.00186371  0.81235561  0.69897189  1
  O  O17  1  0.51381807  0.82302022  0.70627650  1
  O  O18  1  0.39222988  0.80109032  0.19068964  1
  O  O19  1  0.91725359  0.84454833  0.18772211  1
  O  O20  1  0.01655458  0.20447862  0.20232206  1
  O  O21  1  0.49553661  0.17942112  0.19614546  1
  O  O22  1  0.09633871  0.94675290  0.19337943  1
  O  O23  1  0.58021335  0.00239654  0.18932041  1
  O  O24  1  0.46735397  0.38488673  0.64364938  1
  O  O25  1  0.93340746  0.36251232  0.64294665  1
  O  O26  1  0.22593816  0.08849947  0.63511214  1
  O  O27  1  0.74794163  0.12783444  0.63924596  1
  O  O28  1  0.32103240  0.55201412  0.63537185  1
  O  O29  1  0.82081976  0.49108806  0.63119361  1
  O  O30  1  0.43023456  0.50043537  0.13936016  1
  O  O31  1  0.96286824  0.55060848  0.14387404  1
  O  O32  1  0.31723238  0.14654694  0.12722878  1
  O  O33  1  0.81820735  0.08960307  0.13247121  1
  O  O34  1  0.24964550  0.36970096  0.13562173  1
  O  O35  1  0.72603670  0.36210966  0.13266854  1
  O  O36  1  0.19871295  0.26322376  0.02320550  1
  O  O37  1  0.70955831  0.30933989  0.02584754  1
  O  O38  1  0.43204928  0.57827319  0.02193107  1
  O  O39  1  0.93086294  0.57555929  0.02540766  1
  O  O40  1  0.36076495  0.11419664  0.01488294  1
  O  O41  1  0.83198464  0.10250069  0.02399427  1
  O  O42  1  0.21110169  0.11500917  0.52853628  1
  O  O43  1  0.69682250  0.13766824  0.52716286  1
  O  O44  1  0.33323438  0.56121425  0.52713486  1
  O  O45  1  0.86072703  0.60233096  0.51763376  1
  O  O46  1  0.43066904  0.29043308  0.52660283  1
  O  O47  1  0.93106648  0.28701396  0.52506124  1
  O  O48  1  0.26513945  0.67515059  0.97959339  1
  O  O49  1  0.74904034  0.66726787  0.98055414  1
  O  O50  1  0.08310521  0.48031918  0.97422866  1
  O  O51  1  0.57167146  0.47158255  0.97260028  1
  O  O52  1  0.17030022  0.86590468  0.97306390  1
  O  O53  1  0.65495582  0.83303193  0.97652204  1
  O  O54  1  0.24948723  0.83244982  0.48178174  1
  O  O55  1  0.75658768  0.83701383  0.48221334  1
  O  O56  1  0.15779006  0.47879947  0.47776868  1
  O  O57  1  0.66539853  0.46455024  0.47129603  1
  O  O58  1  0.07368297  0.67250100  0.47256456  1
  O  O59  1  0.57546766  0.67457241  0.47064837  1
  O  O60  1  0.07094999  0.65445628  0.36134634  1
  O  O61  1  0.55627458  0.65311950  0.36179201  1
  O  O62  1  0.25494366  0.86062632  0.35904532  1
  O  O63  1  0.76084672  0.87961601  0.35955911  1
  O  O64  1  0.17048340  0.50544535  0.35353299  1
  O  O65  1  0.66504411  0.45432122  0.36125868  1
  O  O66  1  0.06417279  0.46835622  0.86585731  1
  O  O67  1  0.56824739  0.47834320  0.86178886  1
  O  O68  1  0.17130761  0.87567321  0.86328173  1
  O  O69  1  0.66837283  0.83369481  0.85371308  1
  O  O70  1  0.26260137  0.65475646  0.86982494  1
  O  O71  1  0.75467196  0.65077264  0.85870959  1
  O  O72  1  0.02353343  0.82276502  0.41784940  1
  O  O73  1  0.51659518  0.82603894  0.42283032  1
  O  O74  1  0.39641027  0.95719965  0.42560633  1
  O  O75  1  0.90108275  0.96675282  0.42687225  1
  O  O76  1  0.08480328  0.20520082  0.41890452  1
  O  O77  1  0.58777349  0.19970419  0.42187614  1
  O  O78  1  0.01938904  0.21215046  0.92549980  1
  O  O79  1  0.51688924  0.21529590  0.91931031  1
  O  O80  1  0.08932374  0.96863778  0.92270630  1
  O  O81  1  0.58274776  0.96382289  0.91831495  1
  O  O82  1  0.39447303  0.81635695  0.92340995  1
  O  O83  1  0.89679235  0.83762185  0.92444895  1
  O  O84  1  0.51022089  0.17724560  0.58720729  1
  O  O85  1  0.00197017  0.17830549  0.59736652  1
  O  O86  1  0.08776511  0.99487929  0.58999310  1
  O  O87  1  0.58095944  0.00125983  0.61176671  1
  O  O88  1  0.40271261  0.82201095  0.58135840  1
  O  O89  1  0.92292412  0.84350630  0.59979624  1
  O  O90  1  0.49907141  0.82480097  0.09570124  1
  O  O91  1  0.00866194  0.84625915  0.08711246  1
  O  O92  1  0.42140545  0.00045089  0.09846996  1
  O  O93  1  0.90104393  0.98341259  0.07986141  1
  O  O94  1  0.08230927  0.16053290  0.10790379  1
  O  O95  1  0.58704725  0.18424144  0.08800780  1
  O  O96  1  0.34716706  0.16733041  0.74256535  1
  O  O97  1  0.83685714  0.18618284  0.73730621  1
  O  O98  1  0.23982637  0.31969870  0.73785191  1
  O  O99  1  0.75221879  0.33621565  0.73296856  1
  O  O100  1  0.42313760  0.53604991  0.74635637  1
  O  O101  1  0.92113391  0.52426593  0.74242258  1
  O  O102  1  0.33598869  0.48816042  0.23619530  1
  O  O103  1  0.84487179  0.52120699  0.24264538  1
  O  O104  1  0.41858823  0.31471240  0.23874797  1
  O  O105  1  0.92393246  0.30491825  0.24419163  1
  O  O106  1  0.25156257  0.16824637  0.23193760  1
  O  O107  1  0.73871781  0.15464296  0.23744822  1
  O  O108  1  0.31669074  0.50844970  0.92440882  1
  O  O109  1  0.81490943  0.49788618  0.91711330  1
  O  O110  1  0.43952116  0.36907452  0.91846672  1
  O  O111  1  0.94288569  0.36410945  0.92847049  1
  O  O112  1  0.24424471  0.13324403  0.91671207  1
  O  O113  1  0.75252655  0.12456332  0.91122722  1
  O  O114  1  0.31405093  0.13253247  0.41800724  1
  O  O115  1  0.82008201  0.14699105  0.42286783  1
  O  O116  1  0.25380140  0.38375341  0.41141311  1
  O  O117  1  0.74312358  0.35503483  0.41529702  1
  O  O118  1  0.43624637  0.52072515  0.42512565  1
  O  O119  1  0.94223973  0.51493170  0.41811862  1
  O  O120  1  0.17405036  0.50233995  0.08079225  1
  O  O121  1  0.66549852  0.49351135  0.07725010  1
  O  O122  1  0.09254158  0.68413264  0.07125440  1
  O  O123  1  0.58230185  0.65560926  0.07682654  1
  O  O124  1  0.25540369  0.83849024  0.08068011  1
  O  O125  1  0.74677465  0.83465308  0.07918511  1
  O  O126  1  0.16478566  0.83966129  0.57803883  1
  O  O127  1  0.67174694  0.84517296  0.58480501  1
  O  O128  1  0.24879728  0.66158221  0.58106479  1
  O  O129  1  0.75615055  0.66790804  0.58552159  1
  O  O130  1  0.08356198  0.51185970  0.57725637  1
  O  O131  1  0.59578065  0.50796394  0.56813973  1
  O  O132  1  0.16125797  0.81447373  0.25929818  1
  O  O133  1  0.63691278  0.81821256  0.23845829  1
  O  O134  1  0.25160573  0.65974141  0.25221870  1
  O  O135  1  0.76621170  0.69902040  0.23697398  1
  O  O136  1  0.07704761  0.47535174  0.24854105  1
  O  O137  1  0.57112811  0.44903246  0.24266528  1
  O  O138  1  0.14054417  0.45840484  0.74002852  1
  O  O139  1  0.66223816  0.51198463  0.75913932  1
  O  O140  1  0.07374206  0.69322806  0.74447802  1
  O  O141  1  0.57642825  0.67553487  0.75117636  1
  O  O142  1  0.26786853  0.83060608  0.73790450  1
  O  O143  1  0.75216821  0.84691501  0.75195994  1
loop_
_geom_bond_atom_site_label_1
_geom_bond_atom_site_label_2
_geom_bond_distance
_geom_bond_site_symmetry_2
Na0 O107 2.424410 1_565
Na0 O135 2.425407 1_555
Na0 O63 2.536528 1_555
Na0 O105 2.570776 1_565
Na0 O133 2.752515 1_555
Na0 O33 2.816100 1_565
Na1 O134 2.493186 1_555
Na1 O102 2.541002 1_555
Na1 O0 2.588543 1_555
Na1 O64 2.622677 1_555
Na1 O106 2.630229 1_555
Na1 O136 2.663821 1_555
Na1 O20 2.880766 1_555
Na1 O34 2.967444 1_555
Na2 O103 2.428857 1_555
Na2 O107 2.481277 1_555
Na2 O135 2.673625 1_555
Na2 O65 2.682966 1_555
Na2 O137 2.693164 1_555
Na2 O35 2.727608 1_555
Na2 O1 2.880565 1_555
Na3 O31 2.408467 1_555
Na3 O103 2.436946 1_555
Na3 O136 2.534651 1_655
Na3 O105 2.620399 1_555
Na3 O132 2.632252 1_655
Na3 O22 2.754594 1_655
Na3 O60 2.881739 1_655
Na3 O3 2.972958 1_555
Na4 O133 2.305585 1_555
Na4 O104 2.520811 1_555
Na4 O102 2.541184 1_555
Na4 O137 2.661759 1_555
Na4 O61 2.717543 1_555
Na4 O2 2.732955 1_555
Na4 O30 2.761052 1_555
Na5 O28 2.367614 1_555
Na5 O142 2.383910 1_555
Na5 O98 2.417216 1_555
Na5 O100 2.561766 1_555
Na5 O138 2.707794 1_555
Na6 O138 2.353991 1_655
Na6 O101 2.481281 1_555
Na6 O97 2.505769 1_555
Na6 O25 2.525440 1_555
Na6 O140 2.660879 1_655
Na6 O11 2.820326 1_555
Na6 O66 2.997290 1_655
Na7 O24 2.306828 1_555
Na7 O141 2.467657 1_555
Na7 O96 2.481202 1_555
Na7 O139 2.588335 1_555
Na7 O100 2.594789 1_555
Na7 O15 2.626030 1_555
Na7 O67 2.938979 1_555
Na8 O98 2.457558 1_555
Na8 O96 2.484353 1_555
Na8 O26 2.521204 1_555
Na8 O140 2.642070 1_545
Na8 O142 2.702287 1_545
Na8 O68 2.872422 1_545
Na9 O143 2.446771 1_545
Na9 O97 2.501134 1_555
Na9 O99 2.604625 1_555
Na9 O141 2.688045 1_545
Na9 O7 2.723585 1_555
Na9 O27 2.732537 1_555
Na9 O69 2.744914 1_545
Na9 O17 2.849670 1_545
Na10 O85 2.340308 1_555
Na10 O130 2.498866 1_555
Na10 O128 2.651224 1_555
Na10 O86 2.682702 1_545
Na10 O56 2.706709 1_555
Na10 O14 2.806043 1_555
Na10 O42 2.980224 1_555
Na10 O28 3.012982 1_555
Na11 O131 2.425417 1_555
Na11 O43 2.455474 1_555
Na11 O84 2.512124 1_555
Na11 O57 2.543281 1_555
Na11 O129 2.565063 1_555
Na11 O29 2.763188 1_555
Na11 O87 2.853290 1_555
Na11 O15 2.935395 1_555
Na12 O88 2.349978 1_555
Na12 O128 2.618461 1_555
Na12 O46 2.620894 1_565
Na12 O54 2.654172 1_555
Na12 O84 2.721039 1_565
Na12 O126 2.781435 1_555
Na12 O26 2.929725 1_565
Na12 O12 2.980323 1_555
Na13 O89 2.561293 1_555
Na13 O129 2.567502 1_555
Na13 O55 2.639371 1_555
Na13 O85 2.641886 1_665
Na13 O47 2.644447 1_565
Na13 O127 2.645812 1_555
Na13 O13 2.751271 1_555
Na13 O27 2.833263 1_565
Na14 O122 2.422056 1_555
Na14 O91 2.482057 1_555
Na14 O36 2.612073 1_565
Na14 O124 2.620015 1_555
Na14 O32 2.640022 1_565
Na14 O52 2.686347 1_554
Na14 O22 2.709726 1_555
Na14 O94 2.734677 1_565
Na15 O90 2.370320 1_555
Na15 O123 2.511342 1_555
Na15 O23 2.567480 1_565
Na15 O125 2.639288 1_555
Na15 O95 2.726389 1_565
Na15 O33 2.881253 1_565
Na15 O53 2.897758 1_554
Na16 O18 2.509327 1_555
Na16 O124 2.535921 1_555
Na16 O92 2.542373 1_565
Na16 O120 2.586340 1_555
Na16 O90 2.594475 1_555
Na16 O34 2.664237 1_555
Na16 O48 2.785691 1_554
Na16 O38 2.792239 1_555
Na17 O93 2.343548 1_555
Na17 O125 2.605682 1_555
Na17 O91 2.714338 1_655
Na17 O39 2.714353 1_555
Na17 O121 2.746000 1_555
Na17 O19 2.747406 1_555
Na17 O49 2.796373 1_554
Na17 O35 2.843661 1_555
Na18 O38 2.319883 1_556
Na18 O81 2.348358 1_555
Na18 O110 2.497650 1_555
Na18 O82 2.538200 1_555
Na18 O8 2.597342 1_555
Na18 O108 2.642966 1_555
Na19 O39 2.386930 1_556
Na19 O109 2.447577 1_555
Na19 O83 2.490612 1_555
Na19 O80 2.529427 1_655
Na19 O111 2.570879 1_555
Na19 O9 2.677949 1_555
Na20 O40 2.311958 1_556
Na20 O10 2.446173 1_555
Na20 O82 2.511290 1_545
Na20 O79 2.545894 1_555
Na20 O112 2.561611 1_555
Na20 O110 2.575646 1_555
Na21 O113 2.302007 1_555
Na21 O11 2.352600 1_555
Na21 O83 2.396539 1_545
Na21 O111 2.594434 1_555
Na21 O41 2.626934 1_556
Na21 O78 2.672412 1_655
Na22 O78 2.412050 1_555
Na22 O6 2.449063 1_555
Na22 O112 2.451145 1_555
Na22 O80 2.505129 1_545
Na22 O108 2.508646 1_555
Na22 O36 2.540840 1_556
Na23 O7 2.319921 1_555
Na23 O109 2.368197 1_555
Na23 O113 2.505805 1_555
Na23 O81 2.526540 1_545
Na23 O79 2.607676 1_555
Na23 O37 2.688543 1_556
Na24 O46 2.392989 1_555
Na24 O114 2.517965 1_555
Na24 O74 2.541948 1_545
Na24 O77 2.548328 1_555
Na24 O118 2.612530 1_555
Na24 O4 2.787183 1_555
Na25 O47 2.335900 1_555
Na25 O75 2.407355 1_545
Na25 O76 2.414737 1_655
Na25 O115 2.431554 1_555
Na25 O119 2.564530 1_555
Na25 O5 2.710462 1_555
Na26 O0 2.333729 1_555
Na26 O114 2.393430 1_555
Na26 O76 2.475600 1_555
Na26 O72 2.499674 1_545
Na26 O116 2.518619 1_555
Na26 O42 2.778742 1_555
Na27 O115 2.394569 1_555
Na27 O73 2.520741 1_545
Na27 O117 2.530051 1_555
Na27 O1 2.543332 1_555
Na27 O77 2.632203 1_555
Na27 O43 2.716477 1_555
Na27 O63 2.882307 1_545
Na28 O116 2.299844 1_555
Na28 O2 2.377436 1_555
Na28 O74 2.398713 1_555
Na28 O118 2.473548 1_555
Na28 O73 2.594238 1_555
Na28 O44 2.700228 1_555
Na29 O45 2.322556 1_555
Na29 O75 2.341539 1_555
Na29 O117 2.602990 1_555
Na29 O3 2.640772 1_555
Na29 O119 2.723953 1_555
Na29 O72 2.740115 1_655
Na30 O75 2.321826 1_555
Na30 O89 2.540486 1_555
Na30 O76 2.573856 1_665
Na30 O72 2.630160 1_655
Na30 O86 2.636178 1_655
Na30 O85 2.707343 1_665
Na31 O88 2.419529 1_555
Na31 O73 2.446460 1_555
Na31 O84 2.481702 1_565
Na31 O77 2.493405 1_565
Na31 O74 2.513036 1_555
Na31 O87 2.827083 1_565
Na32 O93 2.351230 1_545
Na32 O91 2.406397 1_645
Na32 O78 2.474471 1_654
Na32 O83 2.492073 1_544
Na32 O80 2.584944 1_644
Na32 O94 2.775344 1_655
Na33 O95 2.439546 1_555
Na33 O92 2.499091 1_555
Na33 O81 2.574444 1_544
Na33 O90 2.587946 1_545
Na33 O79 2.620834 1_554
Na33 O82 2.655907 1_544
Na34 O96 2.334030 1_555
Na34 O98 2.411858 1_555
Na34 O100 2.468717 1_555
Na34 O112 2.685652 1_555
Na34 O110 2.956473 1_555
Na34 O108 2.985707 1_555
Na35 O99 2.469031 1_555
Na35 O113 2.514452 1_555
Na35 O97 2.520647 1_555
Na35 O109 2.528500 1_555
Na35 O101 2.566422 1_555
Na36 O116 2.474937 1_555
Na36 O114 2.484306 1_555
Na36 O106 2.577156 1_555
Na36 O102 2.593913 1_555
Na36 O104 2.645177 1_555
Na36 O118 2.937310 1_555
Na37 O107 2.550387 1_555
Na37 O117 2.554998 1_555
Na37 O115 2.570115 1_555
Na37 O103 2.586020 1_555
Na37 O105 2.629714 1_555
Na37 O119 2.877868 1_555
Na38 O136 2.368208 1_555
Na38 O132 2.400913 1_555
Na38 O134 2.470790 1_555
Na38 O120 2.573921 1_555
Na38 O124 2.579780 1_555
Na38 O122 2.639435 1_555
Na39 O133 2.334017 1_555
Na39 O135 2.345569 1_555
Na39 O137 2.456024 1_555
Na39 O125 2.489690 1_555
Na39 O123 2.518622 1_555
Na39 O121 2.548526 1_555
Na40 O138 2.397113 1_555
Na40 O142 2.420071 1_555
Na40 O128 2.429623 1_555
Na40 O130 2.440659 1_555
Na40 O140 2.488772 1_555
Na40 O126 2.495821 1_555
Na41 O139 2.439210 1_555
Na41 O127 2.453995 1_555
Na41 O141 2.456905 1_555
Na41 O129 2.469664 1_555
Na41 O143 2.525848 1_555
Na41 O131 2.616634 1_555
Ca0 O3 2.153566 1_445
Ca0 O5 2.257153 1_455
Ca0 O76 2.285466 1_555
Ca0 O0 2.316732 1_555
Ca0 O75 2.359579 1_445
Ca0 O72 2.379481 1_545
Ca1 O1 2.157456 1_565
Ca1 O2 2.231978 1_555
Ca1 O4 2.297604 1_565
Ca1 O74 2.336043 1_555
Ca1 O73 2.423773 1_555
Ca1 O77 2.494992 1_565
Ca2 O6 2.178181 1_665
Ca2 O11 2.211417 1_565
Ca2 O9 2.284765 1_555
Ca2 O83 2.329342 1_555
Ca2 O78 2.500370 1_665
Ca2 O80 2.584928 1_655
Ca3 O10 2.173580 1_555
Ca3 O7 2.215847 1_555
Ca3 O8 2.268167 1_545
Ca3 O81 2.279458 1_545
Ca3 O79 2.418879 1_555
Ca3 O82 2.561831 1_545
Ca4 O24 2.207328 1_555
Ca4 O96 2.232402 1_555
Ca4 O98 2.276319 1_555
Ca4 O28 2.337459 1_555
Ca4 O26 2.362219 1_555
Ca4 O100 2.374561 1_555
Ca5 O103 2.199145 1_555
Ca5 O31 2.216142 1_555
Ca5 O107 2.226636 1_555
Ca5 O33 2.337207 1_555
Ca5 O105 2.337940 1_555
Ca5 O35 2.387409 1_555
Ca6 O38 2.214406 1_556
Ca6 O40 2.238633 1_556
Ca6 O36 2.288488 1_556
Ca6 O112 2.477249 1_555
Ca6 O108 2.479529 1_555
Ca6 O110 2.480040 1_555
Ca7 O109 2.235981 1_555
Ca7 O39 2.259311 1_556
Ca7 O37 2.281518 1_556
Ca7 O111 2.284488 1_555
Ca7 O41 2.309889 1_556
Ca7 O113 2.393616 1_555
Ca8 O114 2.229647 1_555
Ca8 O118 2.249617 1_555
Ca8 O46 2.257406 1_555
Ca8 O42 2.286298 1_555
Ca8 O44 2.309726 1_555
Ca8 O116 2.371520 1_555
Ca9 O47 2.226585 1_555
Ca9 O115 2.258142 1_555
Ca9 O45 2.295218 1_555
Ca9 O43 2.309719 1_555
Ca9 O117 2.440459 1_555
Ca9 O119 2.484395 1_555
Ca10 O63 2.128057 1_555
Ca10 O61 2.275931 1_555
Ca10 O65 2.291684 1_555
Ca10 O135 2.301825 1_555
Ca10 O133 2.315489 1_555
Ca10 O137 2.464959 1_555
Ca11 O142 2.247657 1_555
Ca11 O138 2.249030 1_555
Ca11 O66 2.263895 1_555
Ca11 O70 2.280461 1_555
Ca11 O68 2.296410 1_555
Ca11 O140 2.353419 1_555
Ge0 O13 1.790286 1_545
Ge0 O14 1.804570 1_655
Ge0 O89 1.841515 1_545
Ge0 O85 1.863093 1_655
Ge0 O16 2.199279 1_645
Ge0 O86 2.371335 1_645
Ge1 O12 1.780982 1_545
Ge1 O87 1.795636 1_555
Ge1 O15 1.797891 1_555
Ge1 O84 1.800451 1_555
Ge2 O19 1.772278 1_455
Ge2 O22 1.800641 1_555
Ge2 O94 1.825991 1_565
Ge2 O91 1.833674 1_555
Ge2 O20 2.405225 1_565
Ge3 O23 1.787593 1_565
Ge3 O18 1.788384 1_555
Ge3 O92 1.860817 1_565
Ge3 O90 1.898419 1_555
Ge3 O21 2.129504 1_565
Ge3 O95 2.416587 1_565
Ge4 O27 1.853227 1_555
Ge4 O29 1.857102 1_555
Ge4 O99 1.905025 1_555
Ge4 O25 1.921783 1_555
Ge4 O97 1.949989 1_555
Ge4 O101 2.343936 1_555
Ge5 O34 1.876365 1_555
Ge5 O106 1.882465 1_555
Ge5 O30 1.914538 1_555
Ge5 O32 1.917153 1_555
Ge5 O102 1.939277 1_555
Ge5 O104 2.258544 1_555
Ge6 O122 1.770481 1_555
Ge6 O120 1.813425 1_555
Ge6 O124 1.871179 1_555
Ge6 O48 2.015213 1_554
Ge6 O50 2.167560 1_554
Ge6 O52 2.315737 1_554
Ge7 O53 1.777389 1_554
Ge7 O49 1.819065 1_554
Ge7 O123 1.891628 1_555
Ge7 O51 1.989651 1_554
Ge7 O125 2.116413 1_555
Ge7 O121 2.149482 1_555
Ge8 O56 1.767648 1_555
Ge8 O54 1.818103 1_555
Ge8 O130 1.893274 1_555
Ge8 O58 1.917063 1_555
Ge8 O126 2.194578 1_555
Ge8 O128 2.207639 1_555
Ge9 O55 1.757617 1_555
Ge9 O131 1.796147 1_555
Ge9 O127 1.847586 1_555
Ge9 O129 1.895196 1_555
Ge9 O59 2.365526 1_555
Ge9 O57 2.434332 1_555
Ge10 O62 1.737370 1_555
Ge10 O64 1.822170 1_555
Ge10 O134 1.848903 1_555
Ge10 O132 1.874822 1_555
Ge11 O71 1.741111 1_555
Ge11 O69 1.827463 1_555
Ge11 O143 1.830784 1_555
Ge11 O139 1.862661 1_555
O0 Si0 1.597347 1_555
O1 Si1 1.608526 1_555
O2 Si2 1.595253 1_555
O3 Si3 1.599875 1_555
O4 S1 1.476797 1_555
O5 S0 1.468039 1_655
O6 Si4 1.618209 1_555
O7 Si5 1.602320 1_555
O8 S3 1.487817 1_555
O9 S2 1.487778 1_555
O10 Si6 1.614243 1_555
O11 Si7 1.598225 1_555
O12 Si6 1.738854 1_565
O13 Si7 1.639503 1_565
O14 Si4 1.716704 1_555
O15 Si5 1.672491 1_555
O16 S2 1.470850 1_455
O17 S3 1.461554 1_555
O18 Si2 1.652950 1_555
O19 Si3 1.770051 1_555
O20 S0 1.478167 1_555
O21 S1 1.480021 1_555
O22 Si0 1.679252 1_565
O23 Si1 1.743836 1_555
O24 Si8 1.594436 1_555
O25 Si9 1.659008 1_555
O26 S4 1.488463 1_555
O27 Si10 1.667938 1_555
O28 S5 1.478931 1_555
O29 Si11 1.663099 1_555
O30 Si12 1.656063 1_555
O31 Si13 1.586411 1_555
O32 Si14 1.659290 1_555
O33 S6 1.469097 1_555
O34 Si15 1.662390 1_555
O35 S7 1.482403 1_555
O36 Si15 1.604312 1_555
O37 S7 1.486304 1_555
O38 Si12 1.602910 1_555
O39 Si13 1.609724 1_555
O40 Si14 1.596095 1_555
O41 S6 1.470624 1_555
O42 S4 1.484186 1_555
O43 Si10 1.599066 1_555
O44 S5 1.471721 1_555
O45 Si11 1.594288 1_555
O46 Si8 1.613590 1_555
O47 Si9 1.590175 1_555
O48 S8 1.529073 1_555
O49 Si16 1.680287 1_555
O50 S9 1.495533 1_555
O51 S10 1.503681 1_555
O52 S11 1.488569 1_555
O53 Si17 1.672097 1_555
O54 Si18 1.689570 1_555
O55 Si19 1.744575 1_555
O56 Si20 1.678290 1_555
O57 S12 1.474273 1_555
O58 S13 1.515216 1_555
O59 S14 1.466907 1_555
O60 S13 1.471786 1_555
O61 S14 1.474602 1_555
O62 Si18 1.661531 1_555
O63 Si19 1.605107 1_555
O64 Si20 1.693020 1_555
O65 S12 1.477186 1_555
O66 S9 1.458716 1_555
O67 S10 1.464940 1_555
O68 S11 1.467388 1_555
O69 Si17 1.690565 1_555
O70 S8 1.447127 1_555
O71 Si16 1.659536 1_555
O72 S13 1.480961 1_555
O73 S14 1.497017 1_555
O74 Si18 1.618822 1_555
O75 Si19 1.628116 1_555
O76 Si20 1.609809 1_555
O77 S12 1.497475 1_555
O78 S9 1.495368 1_555
O79 S10 1.492036 1_555
O80 S11 1.494766 1_555
O81 Si17 1.626410 1_555
O82 S8 1.486954 1_555
O83 Si16 1.624606 1_555
O84 Si8 1.713373 1_555
O85 Si9 1.694855 1_455
O86 S4 1.471400 1_565
O87 Si10 1.670287 1_555
O88 S5 1.464776 1_555
O89 Si11 1.681254 1_555
O90 Si12 1.687120 1_555
O91 Si13 1.696912 1_455
O92 Si14 1.668815 1_555
O93 S6 1.466432 1_565
O94 Si15 1.659587 1_555
O95 S7 1.469736 1_555
O96 Si6 1.619612 1_555
O97 Si7 1.659882 1_555
O98 Si4 1.629285 1_555
O99 Si5 1.637442 1_555
O100 S3 1.493760 1_555
O101 S2 1.480451 1_555
O102 Si2 1.664400 1_555
O103 Si3 1.617894 1_555
O104 S1 1.493951 1_555
O105 S0 1.491494 1_655
O106 Si0 1.648214 1_555
O107 Si1 1.620306 1_555
O108 S8 1.484945 1_555
O109 Si16 1.618642 1_555
O110 S10 1.491838 1_555
O111 S9 1.483246 1_655
O112 S11 1.502996 1_545
O113 Si17 1.619354 1_545
O114 Si18 1.616060 1_545
O115 Si19 1.624421 1_545
O116 Si20 1.620795 1_555
O117 S12 1.494764 1_555
O118 S14 1.491078 1_555
O119 S13 1.474717 1_655
O120 Si15 1.682209 1_555
O121 S7 1.501180 1_555
O122 Si13 1.688675 1_455
O123 Si12 1.698168 1_555
O124 Si14 1.723036 1_565
O125 S6 1.536127 1_565
O126 S4 1.493623 1_565
O127 Si10 1.663811 1_565
O128 S5 1.523752 1_555
O129 Si11 1.705525 1_555
O130 Si9 1.704991 1_455
O131 Si8 1.675165 1_555
O132 Si0 1.692210 1_565
O133 Si1 1.626844 1_565
O134 Si2 1.667977 1_555
O135 Si3 1.628070 1_555
O136 S0 1.496735 1_555
O137 S1 1.493638 1_555
O138 Si4 1.634436 1_555
O139 Si5 1.688008 1_555
O140 S2 1.503105 1_455
O141 S3 1.494121 1_555
O142 Si6 1.630774 1_565
O143 Si7 1.670763 1_565
