# generated using pymatgen
data_Na5Sc3Sn(PO4)6
_symmetry_space_group_name_H-M   'P 1'
_cell_length_a   8.98034035
_cell_length_b   8.96982300
_cell_length_c   22.68610940
_cell_angle_alpha   89.96256674
_cell_angle_beta   89.99583746
_cell_angle_gamma   120.01160226
_symmetry_Int_Tables_number   1
_chemical_formula_structural   Na5Sc3Sn(PO4)6
_chemical_formula_sum   'Na15 Sc9 Sn3 P18 O72'
_cell_volume   1582.40045294
_cell_formula_units_Z   3
loop_
 _symmetry_equiv_pos_site_id
 _symmetry_equiv_pos_as_xyz
  1  'x, y, z'
loop_
 _atom_site_type_symbol
 _atom_site_label
 _atom_site_symmetry_multiplicity
 _atom_site_fract_x
 _atom_site_fract_y
 _atom_site_fract_z
 _atom_site_occupancy
  Na  Na0  1  0.63713127  0.99960723  0.25448221  1
  Na  Na1  1  0.36284284  0.36406207  0.25511291  1
  Na  Na2  1  0.99991568  0.63714120  0.25472656  1
  Na  Na3  1  0.64562077  0.63750618  0.74933320  1
  Na  Na4  1  0.99535042  0.35763899  0.74978988  1
  Na  Na5  1  0.03247076  0.70193451  0.58117767  1
  Na  Na6  1  0.66572228  0.96579854  0.58079194  1
  Na  Na7  1  0.66588932  0.70061110  0.08125624  1
  Na  Na8  1  0.03319602  0.33011255  0.08137538  1
  Na  Na9  1  0.01399917  0.01519637  0.49455335  1
  Na  Na10  1  0.01404027  0.99885037  0.99337937  1
  Na  Na11  1  0.65211851  0.31755289  0.83498114  1
  Na  Na12  1  0.66673095  0.33344549  0.34041298  1
  Na  Na13  1  0.33234249  0.67985973  0.16546293  1
  Na  Na14  1  0.33321767  0.66553569  0.66325344  1
  Sc  Sc0  1  0.99859856  0.99877785  0.35567670  1
  Sc  Sc1  1  0.00148171  0.00024702  0.85435952  1
  Sc  Sc2  1  0.00977114  0.00749195  0.64953470  1
  Sc  Sc3  1  0.00689638  0.99919917  0.14765596  1
  Sc  Sc4  1  0.65705799  0.32600653  0.68503591  1
  Sc  Sc5  1  0.66386858  0.33021996  0.18337490  1
  Sc  Sc6  1  0.33272901  0.67315831  0.01542392  1
  Sc  Sc7  1  0.33251700  0.65869087  0.51469942  1
  Sc  Sc8  1  0.33331039  0.66644878  0.32229212  1
  Sn  Sn0  1  0.66436630  0.33152352  0.97931000  1
  Sn  Sn1  1  0.66354887  0.33318298  0.48056699  1
  Sn  Sn2  1  0.33367407  0.67298836  0.81969970  1
  P  P0  1  0.29332745  0.99904477  0.25096704  1
  P  P1  1  0.70551231  0.70647817  0.24863714  1
  P  P2  1  0.00093801  0.29449613  0.24882223  1
  P  P3  1  0.29411455  0.29822561  0.75307942  1
  P  P4  1  0.00475812  0.70671061  0.74991825  1
  P  P5  1  0.70382211  0.99603723  0.75025585  1
  P  P6  1  0.95718078  0.33211598  0.58453072  1
  P  P7  1  0.37223433  0.04018406  0.58178645  1
  P  P8  1  0.66749581  0.62774008  0.58491328  1
  P  P9  1  0.95780067  0.62528294  0.08322222  1
  P  P10  1  0.66734858  0.03971605  0.08384404  1
  P  P11  1  0.37245358  0.33223964  0.08265220  1
  P  P12  1  0.62865183  0.66335026  0.91751540  1
  P  P13  1  0.03393664  0.37098922  0.91786840  1
  P  P14  1  0.33666133  0.96636147  0.91714817  1
  P  P15  1  0.63136867  0.96803614  0.41816436  1
  P  P16  1  0.33651595  0.36807473  0.41591430  1
  P  P17  1  0.03209049  0.66339267  0.41832980  1
  O  O0  1  0.20890352  0.03043966  0.30407778  1
  O  O1  1  0.82519498  0.79575167  0.30075387  1
  O  O2  1  0.97130938  0.17490790  0.30093205  1
  O  O3  1  0.20740069  0.19007755  0.80722401  1
  O  O4  1  0.97726659  0.79677410  0.80235673  1
  O  O5  1  0.82126424  0.02291584  0.80280936  1
  O  O6  1  0.77976485  0.96398928  0.69322041  1
  O  O7  1  0.18064920  0.21918713  0.69773826  1
  O  O8  1  0.02982896  0.80838688  0.69217630  1
  O  O9  1  0.78369226  0.81229608  0.19121684  1
  O  O10  1  0.02891681  0.21654143  0.19142931  1
  O  O11  1  0.18091065  0.96831386  0.19543343  1
  O  O12  1  0.87553872  0.36015109  0.64058359  1
  O  O13  1  0.48894425  0.12661439  0.63549001  1
  O  O14  1  0.64455614  0.52277191  0.64138968  1
  O  O15  1  0.87655323  0.51638230  0.13941130  1
  O  O16  1  0.64423284  0.12030176  0.14052218  1
  O  O17  1  0.48109244  0.35961619  0.13872534  1
  O  O18  1  0.45960373  0.30621395  0.02812699  1
  O  O19  1  0.83663995  0.53900431  0.02957325  1
  O  O20  1  0.70186617  0.16099823  0.03027730  1
  O  O21  1  0.45280636  0.14977398  0.52584501  1
  O  O22  1  0.70232389  0.54203568  0.53101358  1
  O  O23  1  0.83616180  0.29638131  0.53058448  1
  O  O24  1  0.53793556  0.67969296  0.97269476  1
  O  O25  1  0.14126423  0.46184851  0.97296340  1
  O  O26  1  0.31818286  0.85575130  0.97110883  1
  O  O27  1  0.54148366  0.86281964  0.47399876  1
  O  O28  1  0.32046547  0.46349608  0.46955301  1
  O  O29  1  0.13697741  0.67863906  0.47416272  1
  O  O30  1  0.11698969  0.64051850  0.36179320  1
  O  O31  1  0.52409946  0.88234443  0.36161811  1
  O  O32  1  0.35958975  0.47155686  0.35831753  1
  O  O33  1  0.11545354  0.48006806  0.86019354  1
  O  O34  1  0.36950960  0.88907854  0.86014157  1
  O  O35  1  0.51963014  0.63629143  0.85994042  1
  O  O36  1  0.01212285  0.82285529  0.41344894  1
  O  O37  1  0.81068347  0.98777724  0.41334699  1
  O  O38  1  0.17705940  0.18896841  0.41253437  1
  O  O39  1  0.01605464  0.19318760  0.91268344  1
  O  O40  1  0.17690117  0.98348609  0.91192165  1
  O  O41  1  0.80648546  0.82333294  0.91213210  1
  O  O42  1  0.97074140  0.16756239  0.58950866  1
  O  O43  1  0.18911667  0.01326124  0.58790031  1
  O  O44  1  0.83212481  0.80887582  0.58861153  1
  O  O45  1  0.97109454  0.80311114  0.08739582  1
  O  O46  1  0.83159761  0.02306540  0.08715437  1
  O  O47  1  0.18848340  0.17629328  0.08655340  1
  O  O48  1  0.68622393  0.15836404  0.74507593  1
  O  O49  1  0.47960012  0.33112831  0.74654343  1
  O  O50  1  0.84298558  0.52267139  0.74572285  1
  O  O51  1  0.68380826  0.52298893  0.24405403  1
  O  O52  1  0.83902061  0.31571626  0.24435860  1
  O  O53  1  0.47601449  0.16047919  0.24457236  1
  O  O54  1  0.64298750  0.49718714  0.92040785  1
  O  O55  1  0.85347399  0.35680024  0.92097159  1
  O  O56  1  0.50174955  0.14651224  0.92112204  1
  O  O57  1  0.64557871  0.14888443  0.42085428  1
  O  O58  1  0.50384545  0.35631461  0.42041866  1
  O  O59  1  0.85145629  0.49633145  0.42145222  1
  O  O60  1  0.35768385  0.49783648  0.07762239  1
  O  O61  1  0.13348179  0.63462501  0.07677516  1
  O  O62  1  0.51050831  0.85657468  0.07780247  1
  O  O63  1  0.35595779  0.85922019  0.57721053  1
  O  O64  1  0.51071734  0.65373760  0.57814199  1
  O  O65  1  0.13319003  0.49795796  0.57728440  1
  O  O66  1  0.31438499  0.83757001  0.25635943  1
  O  O67  1  0.52429797  0.68765437  0.25516341  1
  O  O68  1  0.16240263  0.47689133  0.25513436  1
  O  O69  1  0.31021953  0.48290592  0.75739866  1
  O  O70  1  0.16436749  0.67900012  0.75617382  1
  O  O71  1  0.52392371  0.82630744  0.75683476  1
loop_
_geom_bond_atom_site_label_1
_geom_bond_atom_site_label_2
_geom_bond_distance
_geom_bond_site_symmetry_2
Na0 O67 2.453632 1_555
Na0 O52 2.497219 1_565
Na0 O66 2.510114 1_555
Na0 O53 2.512855 1_565
Na0 O31 2.640504 1_555
Na0 O16 2.790553 1_565
Na0 O2 2.805568 1_565
Na0 O9 2.971554 1_555
Na1 O68 2.467125 1_555
Na1 O53 2.506357 1_555
Na1 O51 2.508437 1_555
Na1 O67 2.513404 1_555
Na1 O32 2.538387 1_555
Na1 O0 2.820871 1_555
Na1 O17 2.853590 1_555
Na1 O10 2.977328 1_555
Na2 O66 2.475871 1_655
Na2 O51 2.501658 1_555
Na2 O52 2.507811 1_555
Na2 O68 2.508714 1_655
Na2 O30 2.640941 1_655
Na2 O1 2.794838 1_555
Na2 O15 2.836908 1_555
Na2 O11 2.905159 1_655
Na3 O49 2.383428 1_555
Na3 O71 2.437857 1_555
Na3 O50 2.456727 1_555
Na3 O69 2.617253 1_555
Na3 O14 2.655070 1_555
Na3 O35 2.750239 1_555
Na3 O4 2.846853 1_555
Na3 O6 2.848438 1_555
Na4 O48 2.439143 1_555
Na4 O50 2.469431 1_555
Na4 O69 2.471810 1_655
Na4 O70 2.501541 1_655
Na4 O12 2.705657 1_555
Na4 O33 2.731588 1_655
Na4 O7 2.788307 1_655
Na4 O5 2.864403 1_555
Na5 O65 2.414361 1_555
Na5 O43 2.423079 1_565
Na5 O44 2.431510 1_455
Na5 O63 2.517453 1_555
Na5 O29 2.648574 1_555
Na5 O8 2.697976 1_555
Na5 O22 2.809133 1_455
Na5 O12 2.978825 1_455
Na6 O42 2.420537 1_565
Na6 O64 2.424642 1_555
Na6 O63 2.449228 1_555
Na6 O44 2.519853 1_555
Na6 O27 2.634384 1_555
Na6 O6 2.751629 1_555
Na6 O23 2.808559 1_565
Na6 O13 2.904077 1_565
Na7 O45 2.419987 1_555
Na7 O62 2.421353 1_555
Na7 O60 2.437200 1_555
Na7 O46 2.508583 1_565
Na7 O24 2.684487 1_554
Na7 O9 2.699844 1_555
Na7 O19 2.837756 1_555
Na7 O17 2.953977 1_555
Na8 O47 2.405567 1_555
Na8 O61 2.412773 1_555
Na8 O46 2.427295 1_455
Na8 O60 2.525145 1_555
Na8 O10 2.688911 1_555
Na8 O25 2.689924 1_554
Na8 O20 2.825925 1_455
Na8 O15 2.976178 1_455
Na9 O38 2.397615 1_555
Na9 O36 2.517397 1_545
Na9 O37 2.517930 1_445
Na9 O43 2.643053 1_555
Na9 O42 2.682169 1_455
Na9 O44 2.759774 1_445
Na10 O40 2.403031 1_555
Na10 O39 2.520839 1_565
Na10 O41 2.533555 1_455
Na10 O47 2.639314 1_566
Na10 O45 2.664230 1_456
Na10 O46 2.759239 1_466
Na11 O56 2.432984 1_555
Na11 O54 2.548537 1_555
Na11 O55 2.562002 1_555
Na11 O49 2.574723 1_555
Na11 O48 2.594968 1_555
Na11 O50 2.695053 1_555
Na12 O58 2.403398 1_555
Na12 O57 2.405906 1_555
Na12 O59 2.417838 1_555
Na12 O52 2.722822 1_555
Na12 O53 2.722974 1_555
Na12 O51 2.725253 1_555
Na13 O62 2.546709 1_555
Na13 O66 2.551739 1_555
Na13 O61 2.584307 1_555
Na13 O68 2.645231 1_555
Na13 O67 2.645304 1_555
Na13 O60 2.657917 1_555
Na14 O64 2.539449 1_555
Na14 O63 2.551626 1_555
Na14 O65 2.567712 1_555
Na14 O70 2.634499 1_555
Na14 O69 2.635284 1_555
Na14 O71 2.655878 1_555
O0 P0 1.523061 1_545
O0 Sc0 2.116707 1_445
O1 P1 1.527992 1_555
O1 Sc0 2.111928 1_555
O2 P2 1.527009 1_655
O2 Sc0 2.117359 1_545
O3 P3 1.516199 1_555
O3 Sc1 2.076027 1_555
O4 P4 1.526275 1_655
O4 Sc1 2.091877 1_665
O5 P5 1.529076 1_545
O5 Sc1 2.087447 1_655
O6 P5 1.555131 1_555
O6 Sc2 2.143319 1_665
O7 P3 1.547842 1_555
O7 Sc2 2.060198 1_555
O8 P4 1.546415 1_555
O8 Sc2 2.115987 1_565
O9 P1 1.556388 1_555
O9 Sc3 2.107357 1_655
O10 P2 1.556992 1_555
O10 Sc3 2.107792 1_545
O11 P0 1.550683 1_555
O11 Sc3 2.031389 1_555
O12 P6 1.550006 1_555
O12 Sc4 2.087708 1_555
O13 P7 1.540272 1_555
O13 Sc4 2.010768 1_555
O14 P8 1.541055 1_555
O14 Sc4 2.074616 1_555
O15 P9 1.548127 1_555
O15 Sc5 2.058688 1_555
O16 P10 1.539535 1_555
O16 Sc5 2.047410 1_555
O17 P11 1.546365 1_555
O17 Sc5 2.054886 1_555
O18 P11 1.542759 1_555
O18 Sn0 2.059398 1_554
O19 P9 1.556657 1_555
O19 Sn0 2.068829 1_554
O20 P10 1.554738 1_555
O20 Sn0 2.074361 1_554
O21 P7 1.545043 1_555
O21 Sn1 2.055779 1_555
O22 P8 1.557460 1_555
O22 Sn1 2.071427 1_555
O23 P6 1.560080 1_555
O23 Sn1 2.076306 1_555
O24 P12 1.540044 1_555
O24 Sc6 2.056868 1_556
O25 P13 1.539849 1_555
O25 Sc6 2.054103 1_556
O26 P14 1.531062 1_555
O26 Sc6 1.980438 1_556
O27 P15 1.543674 1_555
O27 Sc7 2.070509 1_555
O28 P16 1.535853 1_555
O28 Sc7 1.984695 1_555
O29 P17 1.543312 1_555
O29 Sc7 2.067760 1_555
O30 P17 1.557282 1_555
O30 Sc8 2.044124 1_555
O31 P15 1.557293 1_555
O31 Sc8 2.040846 1_555
O32 P16 1.554934 1_555
O32 Sc8 2.047075 1_555
O33 P13 1.576973 1_555
O33 Sn2 2.069809 1_555
O34 P14 1.563892 1_555
O34 Sn2 2.020065 1_555
O35 P12 1.576824 1_555
O35 Sn2 2.068861 1_555
O36 P17 1.531891 1_555
O36 Sc0 2.100381 1_455
O37 P15 1.533328 1_555
O37 Sc0 2.098132 1_555
O38 P16 1.528485 1_555
O38 Sc0 2.100178 1_445
O39 P13 1.525521 1_555
O39 Sc1 2.130589 1_555
O40 P14 1.521997 1_555
O40 Sc1 2.108671 1_565
O41 P12 1.527031 1_555
O41 Sc1 2.125927 1_665
O42 P6 1.544605 1_555
O42 Sc2 2.130659 1_655
O43 P7 1.544170 1_555
O43 Sc2 2.113752 1_555
O44 P8 1.558808 1_555
O44 Sc2 2.188516 1_665
O45 P9 1.541826 1_555
O45 Sc3 2.122120 1_655
O46 P10 1.556915 1_555
O46 Sc3 2.178303 1_645
O47 P11 1.543373 1_555
O47 Sc3 2.123571 1_545
O48 P5 1.545579 1_545
O48 Sc4 2.139253 1_555
O49 P3 1.546561 1_555
O49 Sc4 2.135842 1_555
O50 P4 1.563935 1_655
O50 Sc4 2.202780 1_555
O51 P1 1.561087 1_555
O51 Sc5 2.147145 1_555
O52 P2 1.561306 1_655
O52 Sc5 2.147050 1_555
O53 P0 1.559686 1_545
O53 Sc5 2.125801 1_555
O54 P12 1.560177 1_555
O54 Sn0 2.076873 1_555
O55 P13 1.562431 1_655
O55 Sn0 2.073920 1_555
O56 P14 1.555945 1_545
O56 Sn0 2.051340 1_555
O57 P15 1.563495 1_545
O57 Sn1 2.080872 1_555
O58 P16 1.561467 1_555
O58 Sn1 2.063855 1_555
O59 P17 1.565284 1_655
O59 Sn1 2.077118 1_555
O60 P11 1.560069 1_555
O60 Sc6 2.205458 1_555
O61 P9 1.544401 1_455
O61 Sc6 2.153740 1_555
O62 P10 1.544976 1_565
O62 Sc6 2.152676 1_555
O63 P7 1.558795 1_565
O63 Sc7 2.217067 1_555
O64 P8 1.545524 1_555
O64 Sc7 2.169284 1_555
O65 P6 1.544601 1_455
O65 Sc7 2.171167 1_555
O66 P0 1.556391 1_555
O66 Sc8 2.209111 1_555
O67 P1 1.556860 1_555
O67 Sc8 2.229338 1_555
O68 P2 1.557855 1_555
O68 Sc8 2.227336 1_555
O69 P3 1.592238 1_555
O69 Sn2 2.143119 1_555
O70 P4 1.578854 1_555
O70 Sn2 2.115131 1_555
O71 P5 1.577763 1_555
O71 Sn2 2.119168 1_555
