# generated using pymatgen
data_Sc3TaSiS5O24
_symmetry_space_group_name_H-M   'P 1'
_cell_length_a   8.88054728
_cell_length_b   8.88714187
_cell_length_c   22.84885331
_cell_angle_alpha   90.20946172
_cell_angle_beta   90.06614384
_cell_angle_gamma   120.04713154
_symmetry_Int_Tables_number   1
_chemical_formula_structural   Sc3TaSiS5O24
_chemical_formula_sum   'Sc9 Ta3 Si3 S15 O72'
_cell_volume   1560.93545804
_cell_formula_units_Z   3
loop_
 _symmetry_equiv_pos_site_id
 _symmetry_equiv_pos_as_xyz
  1  'x, y, z'
loop_
 _atom_site_type_symbol
 _atom_site_label
 _atom_site_symmetry_multiplicity
 _atom_site_fract_x
 _atom_site_fract_y
 _atom_site_fract_z
 _atom_site_occupancy
  Sc  Sc0  1  0.01209773  0.00329391  0.35243436  1
  Sc  Sc1  1  0.99295177  0.99884840  0.85913256  1
  Sc  Sc2  1  0.99910492  0.99888206  0.64620903  1
  Sc  Sc3  1  0.00950713  0.99682971  0.14356427  1
  Sc  Sc4  1  0.66811077  0.33369854  0.68868000  1
  Sc  Sc5  1  0.65670703  0.32351354  0.18832396  1
  Sc  Sc6  1  0.66579283  0.33260249  0.47849649  1
  Sc  Sc7  1  0.33707752  0.65982593  0.02016455  1
  Sc  Sc8  1  0.33336789  0.66594217  0.52277654  1
  Ta  Ta0  1  0.67303709  0.33909208  0.97540701  1
  Ta  Ta1  1  0.33389609  0.67088147  0.30848583  1
  Ta  Ta2  1  0.33035654  0.65716321  0.81570062  1
  Si  Si0  1  0.28994544  0.00686757  0.24905084  1
  Si  Si1  1  0.62387599  0.66921096  0.91893432  1
  Si  Si2  1  0.04661121  0.37560745  0.91875557  1
  S  S0  1  0.71238157  0.71072176  0.25032218  1
  S  S1  1  0.99838970  0.28820053  0.25046174  1
  S  S2  1  0.29009436  0.28996928  0.75018640  1
  S  S3  1  0.00234943  0.71108061  0.75002120  1
  S  S4  1  0.70770621  0.99883516  0.74997265  1
  S  S5  1  0.95573037  0.33241890  0.58332977  1
  S  S6  1  0.37688978  0.04431367  0.58335053  1
  S  S7  1  0.66723004  0.62267262  0.58343605  1
  S  S8  1  0.95538643  0.62078780  0.08389755  1
  S  S9  1  0.66657643  0.04428134  0.08321205  1
  S  S10  1  0.37876957  0.33367757  0.08326124  1
  S  S11  1  0.33372169  0.95437656  0.91764330  1
  S  S12  1  0.62201888  0.95381015  0.41691697  1
  S  S13  1  0.33324372  0.37914646  0.41702772  1
  S  S14  1  0.04551170  0.66624896  0.41689271  1
  O  O0  1  0.20026035  0.02762075  0.30780716  1
  O  O1  1  0.81461807  0.79098643  0.30363868  1
  O  O2  1  0.97116651  0.18386065  0.30343263  1
  O  O3  1  0.21369996  0.18445630  0.80165797  1
  O  O4  1  0.97303464  0.78849124  0.80163805  1
  O  O5  1  0.81668707  0.03015466  0.80131377  1
  O  O6  1  0.78614885  0.96715243  0.69693409  1
  O  O7  1  0.18061555  0.21371958  0.69698013  1
  O  O8  1  0.03145526  0.81961813  0.69688376  1
  O  O9  1  0.77933046  0.82023543  0.19848726  1
  O  O10  1  0.03652440  0.21774993  0.19841366  1
  O  O11  1  0.16350866  0.96030390  0.19304298  1
  O  O12  1  0.87565490  0.36294359  0.63551653  1
  O  O13  1  0.48756686  0.12488301  0.63564636  1
  O  O14  1  0.63723541  0.51280858  0.63549811  1
  O  O15  1  0.87262354  0.51245905  0.13547789  1
  O  O16  1  0.64144292  0.12854501  0.13551247  1
  O  O17  1  0.48830821  0.36158728  0.13555523  1
  O  O18  1  0.46434545  0.30470355  0.03072679  1
  O  O19  1  0.83811855  0.53076556  0.03018580  1
  O  O20  1  0.69194771  0.15877240  0.03042119  1
  O  O21  1  0.45807749  0.15401216  0.53076845  1
  O  O22  1  0.69620698  0.54166392  0.53063033  1
  O  O23  1  0.84539637  0.30351618  0.53058688  1
  O  O24  1  0.53499458  0.70051104  0.97396577  1
  O  O25  1  0.16164102  0.47059540  0.97429080  1
  O  O26  1  0.30523251  0.84916879  0.96920233  1
  O  O27  1  0.53823797  0.84418168  0.46866723  1
  O  O28  1  0.30695215  0.46251024  0.46925093  1
  O  O29  1  0.15629158  0.69493075  0.46883262  1
  O  O30  1  0.13298426  0.63798821  0.36395583  1
  O  O31  1  0.50547057  0.86514179  0.36366515  1
  O  O32  1  0.36090526  0.49152310  0.36427984  1
  O  O33  1  0.13680970  0.50654350  0.85916610  1
  O  O34  1  0.36765069  0.87397072  0.86328770  1
  O  O35  1  0.49416994  0.63503922  0.85934597  1
  O  O36  1  0.02507101  0.81802186  0.40844450  1
  O  O37  1  0.79224533  0.97195252  0.40729248  1
  O  O38  1  0.17760349  0.20813336  0.40935218  1
  O  O39  1  0.02438742  0.19181097  0.90462371  1
  O  O40  1  0.18655804  0.97805734  0.90636902  1
  O  O41  1  0.81196482  0.82443267  0.90481147  1
  O  O42  1  0.97475457  0.17785228  0.59178422  1
  O  O43  1  0.20312181  0.02533960  0.59179906  1
  O  O44  1  0.82222407  0.79679047  0.59175803  1
  O  O45  1  0.96348221  0.79045203  0.08829170  1
  O  O46  1  0.82359563  0.03037980  0.09048425  1
  O  O47  1  0.20555643  0.17719323  0.08950241  1
  O  O48  1  0.68663322  0.15247255  0.74016846  1
  O  O49  1  0.46630716  0.31600397  0.74042811  1
  O  O50  1  0.84943647  0.53519913  0.74020580  1
  O  O51  1  0.68710662  0.53699579  0.24246953  1
  O  O52  1  0.85362090  0.31958480  0.24275219  1
  O  O53  1  0.48366084  0.16581862  0.24126447  1
  O  O54  1  0.63372912  0.48822668  0.92876306  1
  O  O55  1  0.85180616  0.35724888  0.92816912  1
  O  O56  1  0.49458650  0.13003600  0.92539794  1
  O  O57  1  0.63490808  0.12540746  0.42367565  1
  O  O58  1  0.48989477  0.36263285  0.42435888  1
  O  O59  1  0.87350576  0.50814983  0.42357978  1
  O  O60  1  0.36142294  0.48761792  0.07678381  1
  O  O61  1  0.12679099  0.64236654  0.07492939  1
  O  O62  1  0.51054834  0.87508604  0.07548943  1
  O  O63  1  0.35833191  0.87045517  0.57442976  1
  O  O64  1  0.51212224  0.64159887  0.57462991  1
  O  O65  1  0.12956672  0.48799458  0.57458267  1
  O  O66  1  0.31011037  0.82784266  0.26388610  1
  O  O67  1  0.52940004  0.68855029  0.26222039  1
  O  O68  1  0.16246160  0.46852931  0.26233214  1
  O  O69  1  0.30824238  0.46916524  0.75791833  1
  O  O70  1  0.16154835  0.69392504  0.75784844  1
  O  O71  1  0.52993949  0.84276059  0.75848917  1
loop_
_geom_bond_atom_site_label_1
_geom_bond_atom_site_label_2
_geom_bond_distance
_geom_bond_site_symmetry_2
O0 Si0 1.618166 1_555
O0 Sc0 1.876821 1_555
O1 S0 1.469604 1_555
O1 Sc0 2.131925 1_665
O2 S1 1.472267 1_555
O2 Sc0 2.134753 1_655
O3 S2 1.447593 1_555
O3 Sc1 2.252118 1_445
O4 S3 1.451255 1_655
O4 Sc1 2.214126 1_555
O5 S4 1.454471 1_545
O5 Sc1 2.169559 1_545
O6 S4 1.493004 1_555
O6 Sc2 2.114885 1_555
O7 S2 1.487901 1_555
O7 Sc2 2.118229 1_445
O8 S3 1.493640 1_555
O8 Sc2 2.105313 1_455
O9 S0 1.460834 1_555
O9 Sc3 2.241418 1_655
O10 S1 1.459043 1_455
O10 Sc3 2.234393 1_545
O11 Si0 1.611571 1_565
O11 Sc3 1.922899 1_555
O12 S5 1.481178 1_555
O12 Sc4 2.113742 1_555
O13 S6 1.480807 1_555
O13 Sc4 2.117152 1_555
O14 S7 1.479220 1_555
O14 Sc4 2.129778 1_555
O15 S8 1.468922 1_555
O15 Sc5 2.179475 1_555
O16 S9 1.483276 1_555
O16 Sc5 2.055693 1_555
O17 S10 1.479527 1_555
O17 Sc5 2.076106 1_555
O18 S10 1.510133 1_555
O18 Ta0 2.137011 1_554
O19 S8 1.544749 1_555
O19 Ta0 2.024060 1_554
O20 S9 1.523494 1_555
O20 Ta0 2.111899 1_554
O21 S6 1.490098 1_555
O21 Sc6 2.106006 1_555
O22 S7 1.490027 1_555
O22 Sc6 2.103438 1_555
O23 S5 1.490406 1_555
O23 Sc6 2.106682 1_555
O24 Si1 1.581479 1_555
O24 Sc7 1.924803 1_556
O25 Si2 1.578574 1_555
O25 Sc7 1.927080 1_556
O26 S11 1.448418 1_555
O26 Sc7 2.181175 1_556
O27 S12 1.478337 1_555
O27 Sc8 2.116895 1_555
O28 S13 1.481427 1_555
O28 Sc8 2.092323 1_555
O29 S14 1.478240 1_555
O29 Sc8 2.112340 1_555
O30 S14 1.524741 1_555
O30 Ta1 2.088261 1_555
O31 S12 1.531664 1_555
O31 Ta1 2.058419 1_555
O32 S13 1.508025 1_555
O32 Ta1 2.149541 1_555
O33 Si2 1.711781 1_555
O33 Ta2 1.855270 1_555
O34 S11 1.534233 1_555
O34 Ta2 2.085494 1_555
O35 Si1 1.707575 1_555
O35 Ta2 1.853102 1_555
O36 S14 1.461699 1_555
O36 Sc0 2.137102 1_565
O37 S12 1.454836 1_555
O37 Sc0 2.219059 1_665
O38 S13 1.464531 1_555
O38 Sc0 2.112910 1_555
O39 Si2 1.576216 1_555
O39 Sc1 1.898958 1_445
O40 S11 1.446954 1_555
O40 Sc1 2.114340 1_455
O41 Si1 1.579281 1_555
O41 Sc1 1.896341 1_555
O42 S5 1.478870 1_555
O42 Sc2 2.116893 1_545
O43 S6 1.478974 1_555
O43 Sc2 2.112847 1_445
O44 S7 1.479697 1_555
O44 Sc2 2.096408 1_555
O45 S8 1.476183 1_555
O45 Sc3 2.087371 1_655
O46 S9 1.469491 1_555
O46 Sc3 2.185545 1_645
O47 S10 1.476557 1_555
O47 Sc3 2.085930 1_545
O48 S4 1.485778 1_545
O48 Sc4 2.069729 1_555
O49 S2 1.480085 1_555
O49 Sc4 2.087705 1_555
O50 S3 1.486162 1_655
O50 Sc4 2.068416 1_555
O51 S0 1.455036 1_555
O51 Sc5 2.161516 1_555
O52 S1 1.456224 1_555
O52 Sc5 2.159217 1_555
O53 Si0 1.598602 1_555
O53 Sc5 1.910185 1_555
O54 Si1 1.669935 1_555
O54 Ta0 1.867383 1_555
O55 Si2 1.668579 1_655
O55 Ta0 1.860122 1_555
O56 S11 1.507757 1_545
O56 Ta0 2.073808 1_555
O57 S12 1.478525 1_545
O57 Sc6 2.124017 1_555
O58 S13 1.479521 1_555
O58 Sc6 2.111127 1_555
O59 S14 1.477706 1_655
O59 Sc6 2.132784 1_555
O60 S10 1.459378 1_555
O60 Sc7 2.099472 1_555
O61 S8 1.450668 1_455
O61 Sc7 2.189499 1_555
O62 S9 1.457085 1_565
O62 Sc7 2.158114 1_555
O63 S6 1.482793 1_565
O63 Sc8 2.079831 1_555
O64 S7 1.482480 1_555
O64 Sc8 2.076520 1_555
O65 S5 1.483254 1_455
O65 Sc8 2.080891 1_555
O66 Si0 1.722624 1_565
O66 Ta1 1.825898 1_555
O67 S0 1.560144 1_555
O67 Ta1 1.972032 1_555
O68 S1 1.556409 1_455
O68 Ta1 1.976001 1_555
O69 S2 1.527815 1_555
O69 Ta2 2.056161 1_555
O70 S3 1.506472 1_555
O70 Ta2 2.142526 1_555
O71 S4 1.504607 1_555
O71 Ta2 2.159710 1_555
