# generated using pymatgen
data_Ce(IO3)4
_symmetry_space_group_name_H-M   'P 1'
_cell_length_a   9.93009537
_cell_length_b   9.93009537
_cell_length_c   5.31744050
_cell_angle_alpha   90.00000000
_cell_angle_beta   90.00000000
_cell_angle_gamma   90.00000000
_symmetry_Int_Tables_number   1
_chemical_formula_structural   Ce(IO3)4
_chemical_formula_sum   'Ce2 I8 O24'
_cell_volume   524.33576030
_cell_formula_units_Z   2
loop_
 _symmetry_equiv_pos_site_id
 _symmetry_equiv_pos_as_xyz
  1  'x, y, z'
loop_
 _atom_site_type_symbol
 _atom_site_label
 _atom_site_symmetry_multiplicity
 _atom_site_fract_x
 _atom_site_fract_y
 _atom_site_fract_z
 _atom_site_occupancy
  Ce  Ce0  1  -0.00000000  -0.00000000  0.00000000  1
  Ce  Ce1  1  0.50000000  0.50000000  0.50000000  1
  I  I0  1  0.00119880  0.27652202  0.53353637  1
  I  I1  1  0.77652202  0.49880120  0.03353637  1
  I  I2  1  0.22347798  0.50119880  0.03353637  1
  I  I3  1  -0.00119880  0.72347798  0.53353637  1
  I  I4  1  0.49880120  0.22347798  0.96646363  1
  I  I5  1  0.72347798  0.00119880  0.46646363  1
  I  I6  1  0.27652202  -0.00119880  0.46646363  1
  I  I7  1  0.50119880  0.77652202  0.96646363  1
  O  O0  1  0.07256922  0.15518340  0.30927403  1
  O  O1  1  0.65518340  0.42743078  0.80927403  1
  O  O2  1  0.34481660  0.57256922  0.80927403  1
  O  O3  1  0.92743078  0.84481660  0.30927403  1
  O  O4  1  0.42743078  0.34481660  0.19072597  1
  O  O5  1  0.84481660  0.07256922  0.69072597  1
  O  O6  1  0.15518340  0.92743078  0.69072597  1
  O  O7  1  0.57256922  0.65518340  0.19072597  1
  O  O8  1  0.08136650  0.19512721  0.80098611  1
  O  O9  1  0.69512721  0.41863350  0.30098611  1
  O  O10  1  0.62167001  0.90928333  0.00617468  1
  O  O11  1  0.40928333  0.87832999  0.50617468  1
  O  O12  1  0.59071667  0.12167001  0.50617468  1
  O  O13  1  0.37832999  0.09071667  0.00617468  1
  O  O14  1  0.87832999  0.59071667  0.49382532  1
  O  O15  1  0.09071667  0.62167001  0.99382532  1
  O  O16  1  0.90928333  0.37832999  0.99382532  1
  O  O17  1  0.12167001  0.40928333  0.49382532  1
  O  O18  1  0.58136650  0.69512721  0.69901389  1
  O  O19  1  0.19512721  0.91863350  0.19901389  1
  O  O20  1  0.80487279  0.08136650  0.19901389  1
  O  O21  1  0.41863350  0.30487279  0.69901389  1
  O  O22  1  0.91863350  0.80487279  0.80098611  1
  O  O23  1  0.30487279  0.58136650  0.30098611  1
loop_
_geom_bond_atom_site_label_1
_geom_bond_atom_site_label_2
_geom_bond_distance
_geom_bond_site_symmetry_2
Ce0 O22 2.350984 1_444
Ce0 O8 2.350984 1_554
Ce0 O19 2.350984 1_545
Ce0 O20 2.350984 1_455
Ce0 O6 2.366107 1_544
Ce0 O0 2.366107 1_555
Ce0 O5 2.366107 1_454
Ce0 O3 2.366107 1_445
Ce1 O21 2.350984 1_555
Ce1 O18 2.350984 1_555
Ce1 O9 2.350984 1_555
Ce1 O23 2.350984 1_555
Ce1 O1 2.366107 1_555
Ce1 O7 2.366107 1_555
Ce1 O4 2.366107 1_555
Ce1 O2 2.366107 1_555
I0 O17 1.792680 1_555
I0 O8 1.819208 1_555
I0 O0 1.837425 1_555
I1 O16 1.792680 1_554
I1 O9 1.819208 1_555
I1 O1 1.837425 1_554
I2 O15 1.792680 1_554
I2 O23 1.819208 1_555
I2 O2 1.837425 1_554
I3 O14 1.792680 1_455
I3 O22 1.819208 1_455
I3 O3 1.837425 1_455
I4 O13 1.792680 1_556
I4 O21 1.819208 1_555
I4 O4 1.837425 1_556
I5 O12 1.792680 1_555
I5 O20 1.819208 1_555
I5 O5 1.837425 1_555
I6 O11 1.792680 1_545
I6 O19 1.819208 1_545
I6 O6 1.837425 1_545
I7 O10 1.792680 1_556
I7 O18 1.819208 1_555
I7 O7 1.837425 1_556
