# generated using pymatgen
data_Na2MgV2(OF)4
_symmetry_space_group_name_H-M   'P 1'
_cell_length_a   3.87964567
_cell_length_b   6.75129849
_cell_length_c   7.26401115
_cell_angle_alpha   119.48043594
_cell_angle_beta   90.00399254
_cell_angle_gamma   90.00771581
_symmetry_Int_Tables_number   1
_chemical_formula_structural   Na2MgV2(OF)4
_chemical_formula_sum   'Na2 Mg1 V2 O4 F4'
_cell_volume   165.62904887
_cell_formula_units_Z   1
loop_
 _symmetry_equiv_pos_site_id
 _symmetry_equiv_pos_as_xyz
  1  'x, y, z'
loop_
 _atom_site_type_symbol
 _atom_site_label
 _atom_site_symmetry_multiplicity
 _atom_site_fract_x
 _atom_site_fract_y
 _atom_site_fract_z
 _atom_site_occupancy
  Na  Na0  1  0.25902700  0.35768300  0.81764900  1
  Na  Na1  1  0.75928000  0.66918000  0.20006500  1
  Mg  Mg0  1  0.75901800  0.39089100  0.49776900  1
  V  V0  1  0.75896000  0.89809100  0.78924400  1
  V  V1  1  0.25921200  0.11216400  0.16339000  1
  O  O0  1  0.75883800  0.70093600  0.52822700  1
  O  O1  1  0.25909300  0.28887800  0.45240200  1
  O  O2  1  0.25893800  0.94120100  0.85932400  1
  O  O3  1  0.75902100  0.09772600  0.13071100  1
  F  F0  1  0.25957200  0.39718900  0.14104200  1
  F  F1  1  0.75909000  0.59255400  0.81685700  1
  F  F2  1  0.75903100  0.15873500  0.74437600  1
  F  F3  1  0.25912400  0.83477600  0.18301700  1
loop_
_geom_bond_atom_site_label_1
_geom_bond_atom_site_label_2
_geom_bond_distance
_geom_bond_site_symmetry_2
Na0 O1 2.458045 1_555
Na1 O0 2.285896 1_555
Mg0 O0 1.993650 1_555
Mg0 O1 2.029995 1_555
Mg0 O1 2.030772 1_655
Mg0 O3 2.415047 1_555
O0 V0 1.697839 1_555
O1 V1 1.834546 1_555
O2 V1 1.923935 1_566
O2 V0 1.990054 1_455
O2 V0 1.990366 1_555
O3 V1 1.950187 1_555
O3 V1 1.951602 1_655
O3 V0 2.163003 1_544
F0 V1 2.009155 1_555
F0 Na0 2.229993 1_554
F0 Na1 2.557017 1_555
F0 Na1 2.559155 1_455
F1 Mg0 2.029797 1_555
F1 V0 2.168524 1_555
F1 Na0 2.507229 1_655
F1 Na0 2.507277 1_555
F1 Na1 2.568821 1_556
F2 V0 1.940929 1_545
F2 Na0 2.268420 1_655
F2 Na0 2.268819 1_555
F3 V1 1.946852 1_565
F3 Na1 2.271897 1_455
F3 Na1 2.273172 1_555
