# generated using pymatgen
data_MgV5O12
_symmetry_space_group_name_H-M   'P 1'
_cell_length_a   5.03102823
_cell_length_b   5.10032439
_cell_length_c   8.97928690
_cell_angle_alpha   85.16639386
_cell_angle_beta   91.14118691
_cell_angle_gamma   67.86388295
_symmetry_Int_Tables_number   1
_chemical_formula_structural   MgV5O12
_chemical_formula_sum   'Mg1 V5 O12'
_cell_volume   212.33188557
_cell_formula_units_Z   1
loop_
 _symmetry_equiv_pos_site_id
 _symmetry_equiv_pos_as_xyz
  1  'x, y, z'
loop_
 _atom_site_type_symbol
 _atom_site_label
 _atom_site_symmetry_multiplicity
 _atom_site_fract_x
 _atom_site_fract_y
 _atom_site_fract_z
 _atom_site_occupancy
  Mg  Mg0  1  0.27061200  0.95423000  0.94079900  1
  V  V0  1  0.06275900  0.07332900  0.26734600  1
  V  V1  1  0.97612800  0.55654000  0.98790800  1
  V  V2  1  0.49148800  0.95321300  0.51777300  1
  V  V3  1  0.42798600  0.43814200  0.24096000  1
  V  V4  1  0.59279200  0.49438400  0.74153200  1
  O  O0  1  0.91065900  0.28464500  0.85828900  1
  O  O1  1  0.27825500  0.89756500  0.65052300  1
  O  O2  1  0.21923500  0.29225600  0.38445800  1
  O  O3  1  0.27793300  0.21247000  0.10976800  1
  O  O4  1  0.30397500  0.56066800  0.87168500  1
  O  O5  1  0.55174600  0.25705100  0.63418700  1
  O  O6  1  0.38799900  0.76315100  0.36733300  1
  O  O7  1  0.74146800  0.43679400  0.14733600  1
  O  O8  1  0.68058200  0.82280300  0.89715900  1
  O  O9  1  0.78818200  0.66047500  0.59724200  1
  O  O10  1  0.75372100  0.08002100  0.35972400  1
  O  O11  1  0.12556200  0.76584700  0.12597700  1
loop_
_geom_bond_atom_site_label_1
_geom_bond_atom_site_label_2
_geom_bond_distance
_geom_bond_site_symmetry_2
Mg0 O8 1.972714 1_555
Mg0 O0 2.025982 1_465
Mg0 O4 2.098264 1_555
Mg0 O3 2.099808 1_566
Mg0 O11 2.127908 1_556
O0 V4 1.804409 1_555
O0 V1 1.996787 1_555
O1 V2 1.695778 1_555
O1 V4 2.147908 1_555
O2 V3 1.948876 1_555
O2 V0 1.949285 1_555
O2 V2 2.024894 1_545
O3 V3 2.032319 1_555
O3 V0 2.036746 1_555
O3 V1 2.045613 1_454
O4 V4 1.831796 1_555
O4 V1 1.975126 1_455
O5 V4 1.677510 1_555
O5 V2 2.049510 1_545
O6 V2 1.899626 1_555
O6 V0 1.933276 1_565
O6 V3 2.037323 1_555
O7 V3 1.799933 1_555
O7 V1 2.068688 1_554
O7 V0 2.132214 1_655
O8 V1 1.721226 1_555
O8 V4 2.425089 1_555
O9 V2 1.750706 1_555
O9 V4 1.963640 1_555
O10 V0 1.767117 1_655
O10 V3 2.122595 1_555
O10 V2 2.176196 1_545
O11 V3 1.976024 1_555
O11 V1 2.008133 1_454
O11 V0 2.036826 1_565
