# generated using pymatgen
data_MgTiCo5O12
_symmetry_space_group_name_H-M   'P 1'
_cell_length_a   5.04787974
_cell_length_b   4.99292677
_cell_length_c   10.13766316
_cell_angle_alpha   82.47090861
_cell_angle_beta   84.47457975
_cell_angle_gamma   59.29370769
_symmetry_Int_Tables_number   1
_chemical_formula_structural   MgTiCo5O12
_chemical_formula_sum   'Mg1 Ti1 Co5 O12'
_cell_volume   217.66015744
_cell_formula_units_Z   1
loop_
 _symmetry_equiv_pos_site_id
 _symmetry_equiv_pos_as_xyz
  1  'x, y, z'
loop_
 _atom_site_type_symbol
 _atom_site_label
 _atom_site_symmetry_multiplicity
 _atom_site_fract_x
 _atom_site_fract_y
 _atom_site_fract_z
 _atom_site_occupancy
  Mg  Mg0  1  0.00611917  0.23713756  0.24400379  1
  Ti  Ti0  1  0.99232214  0.99628581  0.97378706  1
  Co  Co0  1  0.16813016  0.67731316  0.50359812  1
  Co  Co1  1  0.66671796  0.64600304  0.00340461  1
  Co  Co2  1  0.33178405  0.31395655  0.00017633  1
  Co  Co3  1  0.83492800  0.34215381  0.51053298  1
  Co  Co4  1  0.49694072  0.01353986  0.50080090  1
  O  O0  1  0.98781621  0.61178703  0.10099779  1
  O  O1  1  0.35661960  0.65803503  0.90798177  1
  O  O2  1  0.16616185  0.34040138  0.39719028  1
  O  O3  1  0.50844726  0.69605776  0.41015297  1
  O  O4  1  0.49459755  0.31403367  0.59482487  1
  O  O5  1  0.16475970  0.01254524  0.60075138  1
  O  O6  1  0.82504628  0.66138519  0.59230678  1
  O  O7  1  0.69628966  0.29397088  0.10750525  1
  O  O8  1  0.32143184  0.96715208  0.10054833  1
  O  O9  1  0.97313045  0.36201463  0.89460672  1
  O  O10  1  0.65926756  0.99709641  0.90340483  1
  O  O11  1  0.84323884  0.04663089  0.40342527  1
loop_
_geom_bond_atom_site_label_1
_geom_bond_atom_site_label_2
_geom_bond_distance
_geom_bond_site_symmetry_2
Mg0 O2 2.051093 1_555
Mg0 O7 2.074132 1_455
Mg0 O11 2.081513 1_455
Mg0 O8 2.083815 1_545
Mg0 O0 2.179002 1_455
Co0 O6 1.906920 1_455
Co0 O4 1.913701 1_555
Co0 O3 1.919596 1_555
Co0 O11 1.965371 1_465
Co0 O5 2.042450 1_565
Co0 O2 2.118522 1_555
Co1 O9 1.860354 1_554
Co1 O7 1.871284 1_555
Co1 O1 1.889452 1_554
Co1 O10 1.891134 1_554
Co1 O0 1.901832 1_555
Co1 O8 1.951388 1_555
Co2 O1 1.901909 1_554
Co2 O10 1.903040 1_544
Co2 O8 1.912298 1_545
Co2 O0 1.921040 1_455
Co2 O9 2.083947 1_454
Co2 O7 2.179207 1_555
Co3 O5 1.848623 1_655
Co3 O6 1.867443 1_555
Co3 O4 1.906162 1_555
Co3 O11 1.925048 1_555
Co3 O2 1.932290 1_655
Co3 O3 1.936904 1_555
Co4 O4 1.874622 1_555
Co4 O5 1.875743 1_555
Co4 O6 1.894617 1_545
Co4 O3 1.907364 1_545
Co4 O2 1.913177 1_555
Co4 O11 1.994354 1_555
O0 Ti0 2.176997 1_554
O1 Ti0 1.888436 1_455
O7 Ti0 2.037009 1_544
O8 Ti0 2.132563 1_454
O9 Ti0 1.854290 1_545
O10 Ti0 1.886509 1_555
