# generated using pymatgen
data_Mn3Cu3O8
_symmetry_space_group_name_H-M   'P 1'
_cell_length_a   8.45445200
_cell_length_b   8.45445200
_cell_length_c   8.45445200
_cell_angle_alpha   90.00000000
_cell_angle_beta   90.00000000
_cell_angle_gamma   90.00000000
_symmetry_Int_Tables_number   1
_chemical_formula_structural   Mn3Cu3O8
_chemical_formula_sum   'Mn12 Cu12 O32'
_cell_volume   604.30527932
_cell_formula_units_Z   4
loop_
 _symmetry_equiv_pos_site_id
 _symmetry_equiv_pos_as_xyz
  1  'x, y, z'
loop_
 _atom_site_type_symbol
 _atom_site_label
 _atom_site_symmetry_multiplicity
 _atom_site_fract_x
 _atom_site_fract_y
 _atom_site_fract_z
 _atom_site_occupancy
  Mn  Mn0  1  0.12060500  0.12939500  0.62500000  1
  Mn  Mn1  1  0.87939500  0.62939500  0.87500000  1
  Mn  Mn2  1  0.62939500  0.87500000  0.87939500  1
  Mn  Mn3  1  0.37060500  0.37500000  0.62060500  1
  Mn  Mn4  1  0.37500000  0.62060500  0.37060500  1
  Mn  Mn5  1  0.62500000  0.12060500  0.12939500  1
  Mn  Mn6  1  0.62060500  0.37060500  0.37500000  1
  Mn  Mn7  1  0.37939500  0.87060500  0.12500000  1
  Mn  Mn8  1  0.12939500  0.62500000  0.12060500  1
  Mn  Mn9  1  0.87060500  0.12500000  0.37939500  1
  Mn  Mn10  1  0.87500000  0.87939500  0.62939500  1
  Mn  Mn11  1  0.12500000  0.37939500  0.87060500  1
  Cu  Cu0  1  0.25714600  0.75714600  0.74285400  1
  Cu  Cu1  1  0.74285400  0.25714600  0.75714600  1
  Cu  Cu2  1  0.75714600  0.74285400  0.25714600  1
  Cu  Cu3  1  0.24285400  0.24285400  0.24285400  1
  Cu  Cu4  1  0.49285400  0.99285400  0.50714600  1
  Cu  Cu5  1  0.99285400  0.50714600  0.49285400  1
  Cu  Cu6  1  0.50714600  0.49285400  0.99285400  1
  Cu  Cu7  1  0.00714600  0.00714600  0.00714600  1
  Cu  Cu8  1  0.87500000  0.37500000  0.12500000  1
  Cu  Cu9  1  0.12500000  0.87500000  0.37500000  1
  Cu  Cu10  1  0.37500000  0.12500000  0.87500000  1
  Cu  Cu11  1  0.62500000  0.62500000  0.62500000  1
  O  O0  1  0.37715000  0.61021000  0.60388900  1
  O  O1  1  0.62285000  0.11021000  0.89611100  1
  O  O2  1  0.11021000  0.89611100  0.62285000  1
  O  O3  1  0.88979000  0.39611100  0.87715000  1
  O  O4  1  0.39611100  0.87715000  0.88979000  1
  O  O5  1  0.60388900  0.37715000  0.61021000  1
  O  O6  1  0.87715000  0.88979000  0.39611100  1
  O  O7  1  0.12285000  0.38979000  0.10388900  1
  O  O8  1  0.61021000  0.60388900  0.37715000  1
  O  O9  1  0.38979000  0.10388900  0.12285000  1
  O  O10  1  0.89611100  0.62285000  0.11021000  1
  O  O11  1  0.10388900  0.12285000  0.38979000  1
  O  O12  1  0.63979000  0.87285000  0.64611100  1
  O  O13  1  0.13979000  0.62715000  0.35388900  1
  O  O14  1  0.36021000  0.37285000  0.85388900  1
  O  O15  1  0.86021000  0.12715000  0.14611100  1
  O  O16  1  0.62715000  0.35388900  0.13979000  1
  O  O17  1  0.37285000  0.85388900  0.36021000  1
  O  O18  1  0.87285000  0.64611100  0.63979000  1
  O  O19  1  0.12715000  0.14611100  0.86021000  1
  O  O20  1  0.35388900  0.13979000  0.62715000  1
  O  O21  1  0.85388900  0.36021000  0.37285000  1
  O  O22  1  0.64611100  0.63979000  0.87285000  1
  O  O23  1  0.14611100  0.86021000  0.12715000  1
  O  O24  1  0.63299200  0.13299200  0.36700800  1
  O  O25  1  0.36700800  0.63299200  0.13299200  1
  O  O26  1  0.13299200  0.36700800  0.63299200  1
  O  O27  1  0.86700800  0.86700800  0.86700800  1
  O  O28  1  0.11700800  0.61700800  0.88299200  1
  O  O29  1  0.61700800  0.88299200  0.11700800  1
  O  O30  1  0.88299200  0.11700800  0.61700800  1
  O  O31  1  0.38299200  0.38299200  0.38299200  1
loop_
_geom_bond_atom_site_label_1
_geom_bond_atom_site_label_2
_geom_bond_distance
_geom_bond_site_symmetry_2
Mn0 O20 1.974329 1_555
Mn0 O2 1.974329 1_545
Mn0 O11 1.994355 1_555
Mn0 O19 1.994355 1_555
Mn0 O26 2.012750 1_555
Mn0 O30 2.012750 1_455
Mn1 O3 1.974329 1_555
Mn1 O22 1.974329 1_555
Mn1 O10 1.994355 1_556
Mn1 O18 1.994355 1_555
Mn1 O27 2.012750 1_555
Mn1 O28 2.012750 1_655
Mn2 O4 1.974329 1_555
Mn2 O12 1.974329 1_555
Mn2 O1 1.994355 1_565
Mn2 O22 1.994355 1_555
Mn2 O29 2.012750 1_556
Mn2 O27 2.012750 1_555
Mn3 O5 1.974329 1_555
Mn3 O14 1.974329 1_555
Mn3 O20 1.994355 1_555
Mn3 O0 1.994355 1_555
Mn3 O31 2.012750 1_555
Mn3 O26 2.012750 1_555
Mn4 O0 1.974329 1_555
Mn4 O17 1.974329 1_555
Mn4 O13 1.994355 1_555
Mn4 O8 1.994355 1_555
Mn4 O31 2.012750 1_555
Mn4 O25 2.012750 1_555
Mn5 O16 1.974329 1_555
Mn5 O1 1.974329 1_554
Mn5 O9 1.994355 1_555
Mn5 O15 1.994355 1_555
Mn5 O24 2.012750 1_555
Mn5 O29 2.012750 1_545
Mn6 O8 1.974329 1_555
Mn6 O21 1.974329 1_555
Mn6 O16 1.994355 1_555
Mn6 O5 1.994355 1_555
Mn6 O31 2.012750 1_555
Mn6 O24 2.012750 1_555
Mn7 O9 1.974329 1_565
Mn7 O23 1.974329 1_555
Mn7 O17 1.994355 1_555
Mn7 O4 1.994355 1_554
Mn7 O25 2.012750 1_555
Mn7 O29 2.012750 1_555
Mn8 O13 1.974329 1_555
Mn8 O10 1.974329 1_455
Mn8 O7 1.994355 1_555
Mn8 O23 1.994355 1_555
Mn8 O25 2.012750 1_555
Mn8 O28 2.012750 1_554
Mn9 O11 1.974329 1_655
Mn9 O15 1.974329 1_555
Mn9 O21 1.994355 1_555
Mn9 O6 1.994355 1_545
Mn9 O24 2.012750 1_555
Mn9 O30 2.012750 1_555
Mn10 O6 1.974329 1_555
Mn10 O18 1.974329 1_555
Mn10 O2 1.994355 1_655
Mn10 O12 1.994355 1_555
Mn10 O27 2.012750 1_555
Mn10 O30 2.012750 1_565
Mn11 O7 1.974329 1_556
Mn11 O19 1.974329 1_555
Mn11 O14 1.994355 1_555
Mn11 O3 1.994355 1_455
Mn11 O26 2.012750 1_555
Mn11 O28 2.012750 1_555
Cu0 O4 1.988188 1_555
Cu0 O0 1.988188 1_555
Cu0 O2 1.988188 1_555
Cu0 O28 2.052116 1_555
Cu1 O1 1.988188 1_555
Cu1 O5 1.988188 1_555
Cu1 O3 1.988188 1_555
Cu1 O30 2.052116 1_555
Cu2 O6 1.988188 1_555
Cu2 O8 1.988188 1_555
Cu2 O10 1.988188 1_555
Cu2 O29 2.052116 1_555
Cu3 O11 1.988188 1_555
Cu3 O7 1.988188 1_555
Cu3 O9 1.988188 1_555
Cu3 O31 2.052116 1_555
Cu4 O12 1.988188 1_555
Cu4 O17 1.988188 1_555
Cu4 O20 1.988188 1_565
Cu4 O24 2.052116 1_565
Cu5 O18 1.988188 1_555
Cu5 O21 1.988188 1_555
Cu5 O13 1.988188 1_655
Cu5 O26 2.052116 1_655
Cu6 O22 1.988188 1_555
Cu6 O14 1.988188 1_555
Cu6 O16 1.988188 1_556
Cu6 O25 2.052116 1_556
Cu7 O15 1.988188 1_455
Cu7 O23 1.988188 1_545
Cu7 O19 1.988188 1_554
Cu7 O27 2.052116 1_444
Cu8 O7 2.106737 1_655
Cu8 O15 2.106737 1_555
Cu8 O21 2.106737 1_555
Cu8 O3 2.106737 1_554
Cu8 O16 2.106737 1_555
Cu8 O10 2.106737 1_555
Cu9 O11 2.106737 1_565
Cu9 O23 2.106737 1_555
Cu9 O6 2.106737 1_455
Cu9 O13 2.106737 1_555
Cu9 O17 2.106737 1_555
Cu9 O2 2.106737 1_555
Cu10 O9 2.106737 1_556
Cu10 O19 2.106737 1_555
Cu10 O4 2.106737 1_545
Cu10 O20 2.106737 1_555
Cu10 O14 2.106737 1_555
Cu10 O1 2.106737 1_555
Cu11 O5 2.106737 1_555
Cu11 O12 2.106737 1_555
Cu11 O18 2.106737 1_555
Cu11 O22 2.106737 1_555
Cu11 O0 2.106737 1_555
Cu11 O8 2.106737 1_555
