# generated using pymatgen
data_K2CeTa5O15
_symmetry_space_group_name_H-M   'P 1'
_cell_length_a   12.70428000
_cell_length_b   12.70428000
_cell_length_c   3.95227600
_cell_angle_alpha   90.00000000
_cell_angle_beta   90.00000000
_cell_angle_gamma   90.00000000
_symmetry_Int_Tables_number   1
_chemical_formula_structural   K2CeTa5O15
_chemical_formula_sum   'K4 Ce2 Ta10 O30'
_cell_volume   637.89232827
_cell_formula_units_Z   2
loop_
 _symmetry_equiv_pos_site_id
 _symmetry_equiv_pos_as_xyz
  1  'x, y, z'
loop_
 _atom_site_type_symbol
 _atom_site_label
 _atom_site_symmetry_multiplicity
 _atom_site_fract_x
 _atom_site_fract_y
 _atom_site_fract_z
 _atom_site_occupancy
  K  K0  1  0.66909400  0.16909400  0.00000000  1
  K  K1  1  0.16909400  0.33090600  0.00000000  1
  K  K2  1  0.83090600  0.66909400  0.00000000  1
  K  K3  1  0.33090600  0.83090600  0.00000000  1
  Ce  Ce0  1  0.00000000  0.00000000  0.00000000  1
  Ce  Ce1  1  0.50000000  0.50000000  0.00000000  1
  Ta  Ta0  1  0.21341700  0.07644900  0.50000000  1
  Ta  Ta1  1  0.57644900  0.71341700  0.50000000  1
  Ta  Ta2  1  0.92355100  0.21341700  0.50000000  1
  Ta  Ta3  1  0.28658300  0.57644900  0.50000000  1
  Ta  Ta4  1  0.07644900  0.78658300  0.50000000  1
  Ta  Ta5  1  0.71341700  0.42355100  0.50000000  1
  Ta  Ta6  1  0.42355100  0.28658300  0.50000000  1
  Ta  Ta7  1  0.00000000  0.50000000  0.50000000  1
  Ta  Ta8  1  0.78658300  0.92355100  0.50000000  1
  Ta  Ta9  1  0.50000000  0.00000000  0.50000000  1
  O  O0  1  0.80694700  0.92383100  0.00000000  1
  O  O1  1  0.49857000  0.84266100  0.50000000  1
  O  O2  1  0.13201700  0.93885900  0.50000000  1
  O  O3  1  0.06114100  0.13201700  0.50000000  1
  O  O4  1  0.78396500  0.28396500  0.50000000  1
  O  O5  1  0.07616900  0.80694700  0.00000000  1
  O  O6  1  0.86798300  0.06114100  0.50000000  1
  O  O7  1  0.56114100  0.36798300  0.50000000  1
  O  O8  1  0.19305300  0.07616900  0.00000000  1
  O  O9  1  0.43885900  0.63201700  0.50000000  1
  O  O10  1  0.42383100  0.30694700  0.00000000  1
  O  O11  1  0.57616900  0.69305300  0.00000000  1
  O  O12  1  0.50143000  0.15733900  0.50000000  1
  O  O13  1  0.84266100  0.50143000  0.50000000  1
  O  O14  1  0.15733900  0.49857000  0.50000000  1
  O  O15  1  0.63201700  0.56114100  0.50000000  1
  O  O16  1  0.00143000  0.34266100  0.50000000  1
  O  O17  1  0.28396500  0.21603500  0.50000000  1
  O  O18  1  0.71603500  0.78396500  0.50000000  1
  O  O19  1  0.34266100  0.99857000  0.50000000  1
  O  O20  1  0.50000000  0.00000000  0.00000000  1
  O  O21  1  0.36798300  0.43885900  0.50000000  1
  O  O22  1  0.65733900  0.00143000  0.50000000  1
  O  O23  1  0.30694700  0.57616900  0.00000000  1
  O  O24  1  0.21603500  0.71603500  0.50000000  1
  O  O25  1  0.93885900  0.86798300  0.50000000  1
  O  O26  1  0.00000000  0.50000000  0.00000000  1
  O  O27  1  0.92383100  0.19305300  0.00000000  1
  O  O28  1  0.99857000  0.65733900  0.50000000  1
  O  O29  1  0.69305300  0.42383100  0.00000000  1
loop_
_geom_bond_atom_site_label_1
_geom_bond_atom_site_label_2
_geom_bond_distance
_geom_bond_site_symmetry_2
K0 O4 2.857367 1_554
K0 O4 2.857367 1_555
K0 O12 2.909388 1_554
K0 O12 2.909388 1_555
K0 O22 2.909388 1_555
K0 O22 2.909388 1_554
K0 O20 3.038038 1_555
K0 O29 3.250533 1_555
K0 O27 3.250533 1_555
K1 O17 2.857367 1_555
K1 O17 2.857367 1_554
K1 O16 2.909388 1_555
K1 O16 2.909388 1_554
K1 O14 2.909388 1_554
K1 O14 2.909388 1_555
K1 O26 3.038038 1_555
K1 O10 3.250533 1_555
K1 O8 3.250533 1_555
K2 O18 2.857367 1_554
K2 O18 2.857367 1_555
K2 O28 2.909388 1_554
K2 O28 2.909388 1_555
K2 O13 2.909388 1_555
K2 O13 2.909388 1_554
K2 O26 3.038038 1_655
K2 O0 3.250533 1_555
K2 O11 3.250533 1_555
K3 O24 2.857367 1_555
K3 O24 2.857367 1_554
K3 O19 2.909388 1_555
K3 O19 2.909388 1_554
K3 O1 2.909388 1_555
K3 O1 2.909388 1_554
K3 O20 3.038038 1_565
K3 O23 3.250533 1_555
K3 O5 3.250533 1_555
Ce0 O5 2.636595 1_545
Ce0 O27 2.636595 1_455
Ce0 O8 2.636595 1_555
Ce0 O0 2.636595 1_445
Ce0 O2 2.705809 1_544
Ce0 O6 2.705809 1_455
Ce0 O3 2.705809 1_554
Ce0 O6 2.705809 1_454
Ce0 O2 2.705809 1_545
Ce0 O25 2.705809 1_445
Ce0 O3 2.705809 1_555
Ce0 O25 2.705809 1_444
Ce1 O10 2.636595 1_555
Ce1 O29 2.636595 1_555
Ce1 O11 2.636595 1_555
Ce1 O23 2.636595 1_555
Ce1 O21 2.705809 1_555
Ce1 O21 2.705809 1_554
Ce1 O15 2.705809 1_554
Ce1 O9 2.705809 1_554
Ce1 O15 2.705809 1_555
Ce1 O7 2.705809 1_555
Ce1 O7 2.705809 1_554
Ce1 O9 2.705809 1_555
O0 Ta8 1.993004 1_554
O0 Ta8 1.993004 1_555
O1 Ta1 1.917006 1_555
O1 Ta9 1.998961 1_565
O2 Ta0 2.030976 1_565
O2 Ta4 2.059339 1_555
O3 Ta2 2.030976 1_455
O3 Ta0 2.059339 1_555
O4 Ta2 1.986962 1_555
O4 Ta5 1.986962 1_555
O5 Ta4 1.993004 1_555
O5 Ta4 1.993004 1_554
O6 Ta8 2.030976 1_545
O6 Ta2 2.059339 1_555
O7 Ta6 2.030976 1_555
O7 Ta5 2.059339 1_555
O8 Ta0 1.993004 1_554
O8 Ta0 1.993004 1_555
O9 Ta1 2.030976 1_555
O9 Ta3 2.059339 1_555
O10 Ta6 1.993004 1_555
O10 Ta6 1.993004 1_554
O11 Ta1 1.993004 1_555
O11 Ta1 1.993004 1_554
O12 Ta6 1.917006 1_555
O12 Ta9 1.998961 1_555
O13 Ta5 1.917006 1_555
O13 Ta7 1.998961 1_655
O14 Ta3 1.917006 1_555
O14 Ta7 1.998961 1_555
O15 Ta5 2.030976 1_555
O15 Ta1 2.059339 1_555
O16 Ta2 1.917006 1_455
O16 Ta7 1.998961 1_555
O17 Ta6 1.986962 1_555
O17 Ta0 1.986962 1_555
O18 Ta1 1.986962 1_555
O18 Ta8 1.986962 1_555
O19 Ta0 1.917006 1_565
O19 Ta9 1.998961 1_565
O20 Ta9 1.976138 1_554
O20 Ta9 1.976138 1_555
O21 Ta3 2.030976 1_555
O21 Ta6 2.059339 1_555
O22 Ta8 1.917006 1_545
O22 Ta9 1.998961 1_555
O23 Ta3 1.993004 1_555
O23 Ta3 1.993004 1_554
O24 Ta3 1.986962 1_555
O24 Ta4 1.986962 1_555
O25 Ta4 2.030976 1_655
O25 Ta8 2.059339 1_555
O26 Ta7 1.976138 1_554
O26 Ta7 1.976138 1_555
O27 Ta2 1.993004 1_554
O27 Ta2 1.993004 1_555
O28 Ta4 1.917006 1_655
O28 Ta7 1.998961 1_655
O29 Ta5 1.993004 1_554
O29 Ta5 1.993004 1_555
