# generated using pymatgen
data_LiGa5O8
_symmetry_space_group_name_H-M   'P 1'
_cell_length_a   8.22190352
_cell_length_b   8.22190352
_cell_length_c   8.22190352
_cell_angle_alpha   90.00000000
_cell_angle_beta   90.00000000
_cell_angle_gamma   90.00000000
_symmetry_Int_Tables_number   1
_chemical_formula_structural   LiGa5O8
_chemical_formula_sum   'Li4 Ga20 O32'
_cell_volume   555.79819076
_cell_formula_units_Z   4
loop_
 _symmetry_equiv_pos_site_id
 _symmetry_equiv_pos_as_xyz
  1  'x, y, z'
loop_
 _atom_site_type_symbol
 _atom_site_label
 _atom_site_symmetry_multiplicity
 _atom_site_fract_x
 _atom_site_fract_y
 _atom_site_fract_z
 _atom_site_occupancy
  Li  Li0  1  0.62500000  0.62500000  0.62500000  1
  Li  Li1  1  0.37500000  0.12500000  0.87500000  1
  Li  Li2  1  0.87500000  0.37500000  0.12500000  1
  Li  Li3  1  0.12500000  0.87500000  0.37500000  1
  Ga  Ga0  1  0.12500000  0.36598511  0.88401489  1
  Ga  Ga1  1  0.25329909  0.25329909  0.25329909  1
  Ga  Ga2  1  0.00329909  0.49670091  0.50329909  1
  Ga  Ga3  1  0.49670091  0.50329909  0.00329909  1
  Ga  Ga4  1  0.50329909  0.00329909  0.49670091  1
  Ga  Ga5  1  0.75329909  0.24670091  0.74670091  1
  Ga  Ga6  1  0.24670091  0.74670091  0.75329909  1
  Ga  Ga7  1  0.74670091  0.75329909  0.24670091  1
  Ga  Ga8  1  0.99670091  0.99670091  0.99670091  1
  Ga  Ga9  1  0.62500000  0.13401489  0.11598511  1
  Ga  Ga10  1  0.61598511  0.87500000  0.86598511  1
  Ga  Ga11  1  0.63401489  0.38401489  0.37500000  1
  Ga  Ga12  1  0.36598511  0.88401489  0.12500000  1
  Ga  Ga13  1  0.88401489  0.12500000  0.36598511  1
  Ga  Ga14  1  0.11598511  0.62500000  0.13401489  1
  Ga  Ga15  1  0.38401489  0.37500000  0.63401489  1
  Ga  Ga16  1  0.86598511  0.61598511  0.87500000  1
  Ga  Ga17  1  0.13401489  0.11598511  0.62500000  1
  Ga  Ga18  1  0.37500000  0.63401489  0.38401489  1
  Ga  Ga19  1  0.87500000  0.86598511  0.61598511  1
  O  O0  1  0.87315985  0.88463743  0.38127625  1
  O  O1  1  0.13127625  0.86536257  0.12315985  1
  O  O2  1  0.63127625  0.63463743  0.87684015  1
  O  O3  1  0.86536257  0.12315985  0.13127625  1
  O  O4  1  0.13463743  0.62315985  0.36872375  1
  O  O5  1  0.12315985  0.13127625  0.86536257  1
  O  O6  1  0.37684015  0.86872375  0.36536257  1
  O  O7  1  0.38127625  0.87315985  0.88463743  1
  O  O8  1  0.88127625  0.62684015  0.11536257  1
  O  O9  1  0.61872375  0.37315985  0.61536257  1
  O  O10  1  0.62684015  0.11536257  0.88127625  1
  O  O11  1  0.61536257  0.61872375  0.37315985  1
  O  O12  1  0.11536257  0.88127625  0.62684015  1
  O  O13  1  0.11325270  0.61325270  0.88674730  1
  O  O14  1  0.88463743  0.38127625  0.87315985  1
  O  O15  1  0.37315985  0.61536257  0.61872375  1
  O  O16  1  0.12684015  0.38463743  0.11872375  1
  O  O17  1  0.38463743  0.11872375  0.12684015  1
  O  O18  1  0.87684015  0.63127625  0.63463743  1
  O  O19  1  0.62315985  0.36872375  0.13463743  1
  O  O20  1  0.38674730  0.38674730  0.38674730  1
  O  O21  1  0.13674730  0.36325270  0.63674730  1
  O  O22  1  0.63674730  0.13674730  0.36325270  1
  O  O23  1  0.36325270  0.63674730  0.13674730  1
  O  O24  1  0.61325270  0.88674730  0.11325270  1
  O  O25  1  0.88674730  0.11325270  0.61325270  1
  O  O26  1  0.63463743  0.87684015  0.63127625  1
  O  O27  1  0.86325270  0.86325270  0.86325270  1
  O  O28  1  0.11872375  0.12684015  0.38463743  1
  O  O29  1  0.86872375  0.36536257  0.37684015  1
  O  O30  1  0.36872375  0.13463743  0.62315985  1
  O  O31  1  0.36536257  0.37684015  0.86872375  1
loop_
_geom_bond_atom_site_label_1
_geom_bond_atom_site_label_2
_geom_bond_distance
_geom_bond_site_symmetry_2
Li0 O15 2.072763 1_555
Li0 O11 2.072763 1_555
Li0 O9 2.072763 1_555
Li0 O2 2.072763 1_555
Li0 O26 2.072763 1_555
Li0 O18 2.072763 1_555
Li1 O7 2.072763 1_545
Li1 O5 2.072763 1_555
Li1 O31 2.072763 1_555
Li1 O17 2.072763 1_556
Li1 O30 2.072763 1_555
Li1 O10 2.072763 1_555
Li2 O14 2.072763 1_554
Li2 O29 2.072763 1_555
Li2 O3 2.072763 1_555
Li2 O8 2.072763 1_555
Li2 O16 2.072763 1_655
Li2 O19 2.072763 1_555
Li3 O0 2.072763 1_455
Li3 O6 2.072763 1_555
Li3 O1 2.072763 1_555
Li3 O4 2.072763 1_555
Li3 O12 2.072763 1_555
Li3 O28 2.072763 1_565
Ga0 O5 1.935897 1_555
Ga0 O16 1.935897 1_556
Ga0 O14 1.982243 1_455
Ga0 O31 1.982243 1_555
Ga0 O13 2.035427 1_555
Ga0 O21 2.035427 1_555
Ga1 O17 1.863167 1_555
Ga1 O16 1.863167 1_555
Ga1 O28 1.863167 1_555
Ga1 O20 1.900403 1_555
Ga2 O18 1.863167 1_455
Ga2 O4 1.863167 1_555
Ga2 O29 1.863167 1_455
Ga2 O21 1.900403 1_555
Ga3 O2 1.863167 1_554
Ga3 O19 1.863167 1_555
Ga3 O31 1.863167 1_554
Ga3 O23 1.900403 1_555
Ga4 O26 1.863167 1_545
Ga4 O30 1.863167 1_555
Ga4 O6 1.863167 1_545
Ga4 O22 1.900403 1_555
Ga5 O10 1.863167 1_555
Ga5 O14 1.863167 1_555
Ga5 O9 1.863167 1_555
Ga5 O25 1.900403 1_555
Ga6 O12 1.863167 1_555
Ga6 O7 1.863167 1_555
Ga6 O15 1.863167 1_555
Ga6 O13 1.900403 1_555
Ga7 O8 1.863167 1_555
Ga7 O0 1.863167 1_555
Ga7 O11 1.863167 1_555
Ga7 O24 1.900403 1_555
Ga8 O5 1.863167 1_665
Ga8 O1 1.863167 1_656
Ga8 O3 1.863167 1_566
Ga8 O27 1.900403 1_555
Ga9 O19 1.935897 1_555
Ga9 O10 1.935897 1_554
Ga9 O17 1.982243 1_555
Ga9 O3 1.982243 1_555
Ga9 O22 2.035427 1_555
Ga9 O24 2.035427 1_545
Ga10 O7 1.935897 1_555
Ga10 O26 1.935897 1_555
Ga10 O2 1.982243 1_555
Ga10 O10 1.982243 1_565
Ga10 O27 2.035427 1_555
Ga10 O24 2.035427 1_556
Ga11 O29 1.935897 1_555
Ga11 O11 1.935897 1_555
Ga11 O19 1.982243 1_555
Ga11 O9 1.982243 1_555
Ga11 O22 2.035427 1_555
Ga11 O20 2.035427 1_555
Ga12 O1 1.935897 1_555
Ga12 O17 1.935897 1_565
Ga12 O7 1.982243 1_554
Ga12 O6 1.982243 1_555
Ga12 O23 2.035427 1_555
Ga12 O24 2.035427 1_555
Ga13 O3 1.935897 1_555
Ga13 O28 1.935897 1_655
Ga13 O0 1.982243 1_545
Ga13 O29 1.982243 1_555
Ga13 O25 2.035427 1_555
Ga13 O22 2.035427 1_555
Ga14 O8 1.935897 1_455
Ga14 O4 1.935897 1_555
Ga14 O16 1.982243 1_555
Ga14 O1 1.982243 1_555
Ga14 O23 2.035427 1_555
Ga14 O13 2.035427 1_554
Ga15 O9 1.935897 1_555
Ga15 O31 1.935897 1_555
Ga15 O30 1.982243 1_555
Ga15 O15 1.982243 1_555
Ga15 O21 2.035427 1_555
Ga15 O20 2.035427 1_555
Ga16 O14 1.935897 1_555
Ga16 O2 1.935897 1_555
Ga16 O18 1.982243 1_555
Ga16 O8 1.982243 1_556
Ga16 O27 2.035427 1_555
Ga16 O13 2.035427 1_655
Ga17 O30 1.935897 1_555
Ga17 O12 1.935897 1_545
Ga17 O28 1.982243 1_555
Ga17 O5 1.982243 1_555
Ga17 O21 2.035427 1_555
Ga17 O25 2.035427 1_455
Ga18 O15 1.935897 1_555
Ga18 O6 1.935897 1_555
Ga18 O4 1.982243 1_555
Ga18 O11 1.982243 1_555
Ga18 O23 2.035427 1_555
Ga18 O20 2.035427 1_555
Ga19 O18 1.935897 1_555
Ga19 O0 1.935897 1_555
Ga19 O26 1.982243 1_555
Ga19 O12 1.982243 1_655
Ga19 O27 2.035427 1_555
Ga19 O25 2.035427 1_565
