# generated using pymatgen
data_PrZnSn
_symmetry_space_group_name_H-M   'P 1'
_cell_length_a   4.54074026
_cell_length_b   4.54074036
_cell_length_c   16.98520842
_cell_angle_alpha   90.00000000
_cell_angle_beta   90.00000000
_cell_angle_gamma   119.99999929
_symmetry_Int_Tables_number   1
_chemical_formula_structural   PrZnSn
_chemical_formula_sum   'Pr4 Zn4 Sn4'
_cell_volume   303.28773279
_cell_formula_units_Z   4
loop_
 _symmetry_equiv_pos_site_id
 _symmetry_equiv_pos_as_xyz
  1  'x, y, z'
loop_
 _atom_site_type_symbol
 _atom_site_label
 _atom_site_symmetry_multiplicity
 _atom_site_fract_x
 _atom_site_fract_y
 _atom_site_fract_z
 _atom_site_occupancy
  Pr  Pr0  1  -0.00000000  0.00000000  0.75000000  1
  Pr  Pr1  1  -0.00000000  0.00000000  0.25000000  1
  Pr  Pr2  1  -0.00000000  0.00000000  0.50000000  1
  Pr  Pr3  1  -0.00000000  0.00000000  -0.00000000  1
  Zn  Zn0  1  0.66666700  0.33333300  0.84375021  1
  Zn  Zn1  1  0.66666700  0.33333300  0.65624979  1
  Zn  Zn2  1  0.33333300  0.66666700  0.15624979  1
  Zn  Zn3  1  0.33333300  0.66666700  0.34375021  1
  Sn  Sn0  1  0.66666700  0.33333300  0.11666262  1
  Sn  Sn1  1  0.66666700  0.33333300  0.38333738  1
  Sn  Sn2  1  0.33333300  0.66666700  0.88333738  1
  Sn  Sn3  1  0.33333300  0.66666700  0.61666262  1
loop_
_geom_bond_atom_site_label_1
_geom_bond_atom_site_label_2
_geom_bond_distance
_geom_bond_site_symmetry_2
Pr0 Zn1 3.067310 1_455
Pr0 Zn0 3.067310 1_455
Pr0 Zn1 3.067314 1_555
Pr0 Zn0 3.067314 1_555
Pr0 Zn1 3.067314 1_445
Pr0 Zn0 3.067314 1_445
Pr0 Sn3 3.464378 1_545
Pr0 Sn2 3.464378 1_545
Pr0 Sn3 3.464381 1_445
Pr0 Sn2 3.464381 1_445
Pr0 Sn3 3.464381 1_555
Pr0 Sn2 3.464381 1_555
Pr1 Zn3 3.067310 1_545
Pr1 Zn2 3.067310 1_545
Pr1 Zn2 3.067314 1_445
Pr1 Zn3 3.067314 1_445
Pr1 Zn3 3.067314 1_555
Pr1 Zn2 3.067314 1_555
Pr1 Sn0 3.464378 1_455
Pr1 Sn1 3.464378 1_455
Pr1 Sn1 3.464381 1_555
Pr1 Sn0 3.464381 1_555
Pr1 Sn0 3.464381 1_445
Pr1 Sn1 3.464381 1_445
Pr2 Sn1 3.286222 1_455
Pr2 Sn3 3.286222 1_545
Pr2 Sn1 3.286225 1_555
Pr2 Sn3 3.286225 1_445
Pr2 Sn1 3.286225 1_445
Pr2 Sn3 3.286225 1_555
Pr3 Sn2 3.286222 1_544
Pr3 Sn0 3.286222 1_455
Pr3 Sn2 3.286225 1_444
Pr3 Sn0 3.286225 1_555
Pr3 Sn2 3.286225 1_554
Pr3 Sn0 3.286225 1_445
Sn0 Zn2 2.706451 1_655
Sn0 Zn2 2.706451 1_545
Sn0 Zn2 2.706459 1_555
Sn1 Zn3 2.706451 1_655
Sn1 Zn3 2.706451 1_545
Sn1 Zn3 2.706459 1_555
Sn2 Zn0 2.706451 1_455
Sn2 Zn0 2.706451 1_565
Sn2 Zn0 2.706459 1_555
Sn3 Zn1 2.706451 1_455
Sn3 Zn1 2.706451 1_565
Sn3 Zn1 2.706459 1_555
