# generated using pymatgen
data_ZrO2
_symmetry_space_group_name_H-M   'P 1'
_cell_length_a   5.15398784
_cell_length_b   5.22810872
_cell_length_c   5.32969616
_cell_angle_alpha   90.00000000
_cell_angle_beta   99.43692258
_cell_angle_gamma   90.00000000
_symmetry_Int_Tables_number   1
_chemical_formula_structural   ZrO2
_chemical_formula_sum   'Zr4 O8'
_cell_volume   141.66836533
_cell_formula_units_Z   4
loop_
 _symmetry_equiv_pos_site_id
 _symmetry_equiv_pos_as_xyz
  1  'x, y, z'
loop_
 _atom_site_type_symbol
 _atom_site_label
 _atom_site_symmetry_multiplicity
 _atom_site_fract_x
 _atom_site_fract_y
 _atom_site_fract_z
 _atom_site_occupancy
  Zr  Zr0  1  0.72369083  0.95785343  0.79040241  1
  Zr  Zr1  1  0.72369083  0.54214657  0.29040241  1
  Zr  Zr2  1  0.27630917  0.45785343  0.70959759  1
  Zr  Zr3  1  0.27630917  0.04214657  0.20959759  1
  O  O0  1  0.06920860  0.16628806  0.84382813  1
  O  O1  1  0.06920860  0.33371194  0.34382813  1
  O  O2  1  0.55069697  0.25742044  0.02139567  1
  O  O3  1  0.44930303  0.75742044  0.47860433  1
  O  O4  1  0.55069697  0.24257956  0.52139567  1
  O  O5  1  0.44930303  0.74257956  0.97860433  1
  O  O6  1  0.93079140  0.66628806  0.65617187  1
  O  O7  1  0.93079140  0.83371194  0.15617187  1
loop_
_geom_bond_atom_site_label_1
_geom_bond_atom_site_label_2
_geom_bond_distance
_geom_bond_site_symmetry_2
O0 Zr2 2.055516 1_555
O0 Zr0 2.067248 1_445
O0 Zr3 2.162991 1_556
O1 Zr3 2.055516 1_555
O1 Zr1 2.067248 1_455
O1 Zr2 2.162991 1_555
O2 Zr1 2.155738 1_555
O2 Zr3 2.176677 1_555
O2 Zr2 2.255858 1_554
O2 Zr0 2.263509 1_544
O3 Zr3 2.155738 1_565
O3 Zr1 2.176677 1_555
O3 Zr0 2.255858 1_555
O3 Zr2 2.263509 1_555
O4 Zr0 2.155738 1_545
O4 Zr2 2.176677 1_555
O4 Zr3 2.255858 1_555
O4 Zr1 2.263509 1_555
O5 Zr2 2.155738 1_555
O5 Zr0 2.176677 1_555
O5 Zr1 2.255858 1_556
O5 Zr3 2.263509 1_566
O6 Zr0 2.055516 1_555
O6 Zr2 2.067248 1_655
O6 Zr1 2.162991 1_555
O7 Zr1 2.055516 1_555
O7 Zr3 2.067248 1_665
O7 Zr0 2.162991 1_554
