# generated using pymatgen
data_MgV2Cr2O8
_symmetry_space_group_name_H-M   'P 1'
_cell_length_a   5.22119159
_cell_length_b   5.22116757
_cell_length_c   6.22247000
_cell_angle_alpha   90.00052200
_cell_angle_beta   90.00048152
_cell_angle_gamma   114.28528868
_symmetry_Int_Tables_number   1
_chemical_formula_structural   MgV2Cr2O8
_chemical_formula_sum   'Mg1 V2 Cr2 O8'
_cell_volume   154.61833443
_cell_formula_units_Z   1
loop_
 _symmetry_equiv_pos_site_id
 _symmetry_equiv_pos_as_xyz
  1  'x, y, z'
loop_
 _atom_site_type_symbol
 _atom_site_label
 _atom_site_symmetry_multiplicity
 _atom_site_fract_x
 _atom_site_fract_y
 _atom_site_fract_z
 _atom_site_occupancy
  Mg  Mg0  1  0.66031000  0.33973100  0.75000100  1
  V  V0  1  0.64393400  0.35606800  0.25000000  1
  V  V1  1  0.33508500  0.66492300  0.75000100  1
  Cr  Cr0  1  0.00301500  0.99698700  0.49659000  1
  Cr  Cr1  1  0.00301800  0.99699600  0.00340600  1
  O  O0  1  0.74475800  0.75708100  0.74999800  1
  O  O1  1  0.25923900  0.21062100  0.25000400  1
  O  O2  1  0.78937200  0.74076300  0.24999700  1
  O  O3  1  0.24294500  0.25525100  0.75000200  1
  O  O4  1  0.22847400  0.77147900  0.98136700  1
  O  O5  1  0.77318500  0.22680700  0.47998800  1
  O  O6  1  0.77318200  0.22680400  0.02001200  1
  O  O7  1  0.22848300  0.77148700  0.51863200  1
loop_
_geom_bond_atom_site_label_1
_geom_bond_atom_site_label_2
_geom_bond_distance
_geom_bond_site_symmetry_2
Mg0 O6 1.950287 1_556
Mg0 O5 1.950297 1_555
Mg0 O0 2.037739 1_555
Mg0 O3 2.037789 1_555
Cr0 O7 1.982657 1_555
Cr0 O5 2.018631 1_465
Cr0 O1 2.039803 1_565
Cr0 O2 2.039815 1_455
Cr0 O0 2.117622 1_455
Cr0 O3 2.117662 1_565
Cr1 O4 1.982678 1_554
Cr1 O6 2.018606 1_465
Cr1 O1 2.039807 1_565
Cr1 O2 2.039863 1_455
Cr1 O0 2.117610 1_454
Cr1 O3 2.117635 1_564
O0 V1 1.990018 1_555
O1 V0 1.832040 1_555
O2 V0 1.832033 1_555
O3 V1 1.990022 1_555
O4 V1 1.716608 1_555
O5 V0 1.825804 1_555
O6 V0 1.825803 1_555
O7 V1 1.716622 1_555
