# generated using pymatgen
data_Na6Mg8Nb4Si3(S5O24)3
_symmetry_space_group_name_H-M   'P 1'
_cell_length_a   8.74955391
_cell_length_b   8.74421019
_cell_length_c   22.85654915
_cell_angle_alpha   89.97102215
_cell_angle_beta   90.09398588
_cell_angle_gamma   119.91278268
_symmetry_Int_Tables_number   1
_chemical_formula_structural   Na6Mg8Nb4Si3(S5O24)3
_chemical_formula_sum   'Na6 Mg8 Nb4 Si3 S15 O72'
_cell_volume   1515.75215385
_cell_formula_units_Z   1
loop_
 _symmetry_equiv_pos_site_id
 _symmetry_equiv_pos_as_xyz
  1  'x, y, z'
loop_
 _atom_site_type_symbol
 _atom_site_label
 _atom_site_symmetry_multiplicity
 _atom_site_fract_x
 _atom_site_fract_y
 _atom_site_fract_z
 _atom_site_occupancy
  Na  Na0  1  0.99092658  0.98752057  0.49313021  1
  Na  Na1  1  0.00374782  0.01383674  0.99833487  1
  Na  Na2  1  0.66777308  0.33125178  0.82832108  1
  Na  Na3  1  0.67021822  0.33496422  0.33032829  1
  Na  Na4  1  0.33326937  0.66275566  0.16684241  1
  Na  Na5  1  0.33724517  0.67044822  0.65713110  1
  Mg  Mg0  1  0.99462806  0.99607538  0.35293701  1
  Mg  Mg1  1  0.99802169  0.00478510  0.85127210  1
  Mg  Mg2  1  0.99757890  0.99830437  0.64329265  1
  Mg  Mg3  1  0.99989444  0.00097932  0.15175665  1
  Mg  Mg4  1  0.66590686  0.33163135  0.68083550  1
  Mg  Mg5  1  0.66698884  0.33427683  0.18789271  1
  Mg  Mg6  1  0.33011642  0.66021733  0.01976522  1
  Mg  Mg7  1  0.33554912  0.67099841  0.51917369  1
  Nb  Nb0  1  0.67412441  0.33492695  0.98079692  1
  Nb  Nb1  1  0.67307520  0.33247994  0.47646493  1
  Nb  Nb2  1  0.32952337  0.67410497  0.31765644  1
  Nb  Nb3  1  0.32173015  0.65820884  0.81286794  1
  Si  Si0  1  0.04664317  0.36637423  0.92094329  1
  Si  Si1  1  0.62861396  0.95343734  0.42013930  1
  Si  Si2  1  0.04890144  0.68054053  0.42084594  1
  S  S0  1  0.29155942  0.00329375  0.24915009  1
  S  S1  1  0.70815803  0.70642277  0.24892189  1
  S  S2  1  0.99960026  0.29021895  0.24912036  1
  S  S3  1  0.29339857  0.28598971  0.74984385  1
  S  S4  1  0.99385487  0.71021446  0.75019153  1
  S  S5  1  0.71112902  0.00365374  0.75003385  1
  S  S6  1  0.96036030  0.33418658  0.58505582  1
  S  S7  1  0.37435808  0.04136610  0.58548188  1
  S  S8  1  0.66427242  0.62344723  0.58506668  1
  S  S9  1  0.96057973  0.62795804  0.08568332  1
  S  S10  1  0.66554019  0.03889272  0.08512137  1
  S  S11  1  0.37538400  0.33364802  0.08519167  1
  S  S12  1  0.62365522  0.66940842  0.91784764  1
  S  S13  1  0.33009777  0.95432482  0.91782248  1
  S  S14  1  0.32976377  0.37639293  0.41821981  1
  O  O0  1  0.21073487  0.02430963  0.30163640  1
  O  O1  1  0.81298258  0.78824858  0.30098212  1
  O  O2  1  0.97895557  0.18726575  0.30154776  1
  O  O3  1  0.21276419  0.18589417  0.80323635  1
  O  O4  1  0.97697365  0.79071002  0.80406170  1
  O  O5  1  0.81345626  0.02389822  0.80307483  1
  O  O6  1  0.78436959  0.96901403  0.69777180  1
  O  O7  1  0.18443026  0.21584540  0.69782122  1
  O  O8  1  0.02818596  0.81794011  0.69815053  1
  O  O9  1  0.78412653  0.81276389  0.19535237  1
  O  O10  1  0.02626741  0.21203832  0.19554879  1
  O  O11  1  0.18586063  0.97277246  0.19573251  1
  O  O12  1  0.87572595  0.35853674  0.63693926  1
  O  O13  1  0.48136000  0.12669304  0.63798485  1
  O  O14  1  0.64450314  0.51824330  0.63789998  1
  O  O15  1  0.87213090  0.51478141  0.13539946  1
  O  O16  1  0.64070256  0.12529028  0.13537660  1
  O  O17  1  0.48470759  0.35397165  0.13588404  1
  O  O18  1  0.46853130  0.31288024  0.03010638  1
  O  O19  1  0.84611873  0.53521002  0.03011868  1
  O  O20  1  0.68834891  0.15408030  0.02985433  1
  O  O21  1  0.46438452  0.15328125  0.53219321  1
  O  O22  1  0.68678547  0.53379465  0.53173696  1
  O  O23  1  0.84606291  0.31133276  0.53118039  1
  O  O24  1  0.54600300  0.69725340  0.96985788  1
  O  O25  1  0.16012127  0.46829356  0.97516772  1
  O  O26  1  0.31303582  0.85310347  0.97007671  1
  O  O27  1  0.54025176  0.83511524  0.47703201  1
  O  O28  1  0.30588103  0.45454130  0.47044185  1
  O  O29  1  0.15629076  0.68716460  0.47770224  1
  O  O30  1  0.13174981  0.63150933  0.35999390  1
  O  O31  1  0.49808599  0.86207257  0.36043198  1
  O  O32  1  0.36636598  0.49199692  0.36385838  1
  O  O33  1  0.13900031  0.50009723  0.86031034  1
  O  O34  1  0.36562910  0.87629822  0.86398019  1
  O  O35  1  0.51078799  0.63945963  0.86432835  1
  O  O36  1  0.02363905  0.84382988  0.40819470  1
  O  O37  1  0.82871124  0.00166520  0.40828933  1
  O  O38  1  0.18185795  0.20245002  0.40709237  1
  O  O39  1  0.01031095  0.17292332  0.90989416  1
  O  O40  1  0.17468235  0.97215908  0.90847330  1
  O  O41  1  0.80162677  0.81530923  0.90811139  1
  O  O42  1  0.96926866  0.17040153  0.58848143  1
  O  O43  1  0.19970936  0.02969245  0.58929620  1
  O  O44  1  0.82582503  0.79868810  0.58877894  1
  O  O45  1  0.96860520  0.80001880  0.08696147  1
  O  O46  1  0.82764530  0.02768321  0.08682568  1
  O  O47  1  0.20067747  0.17248406  0.08695353  1
  O  O48  1  0.68382973  0.15666932  0.74435160  1
  O  O49  1  0.47427730  0.31690610  0.74420663  1
  O  O50  1  0.84560374  0.52829728  0.74507906  1
  O  O51  1  0.68596249  0.52730680  0.24263001  1
  O  O52  1  0.84436178  0.31553594  0.24301884  1
  O  O53  1  0.47246238  0.15543268  0.24290004  1
  O  O54  1  0.63102248  0.49957680  0.92304900  1
  O  O55  1  0.84678939  0.35935409  0.92623277  1
  O  O56  1  0.49284447  0.13652593  0.92262231  1
  O  O57  1  0.63002821  0.14545736  0.42602913  1
  O  O58  1  0.49748189  0.36516175  0.42305198  1
  O  O59  1  0.84925334  0.49443558  0.42637356  1
  O  O60  1  0.36327869  0.49455141  0.07787481  1
  O  O61  1  0.13525523  0.64630720  0.07734276  1
  O  O62  1  0.50722350  0.86643167  0.07512466  1
  O  O63  1  0.35739565  0.86584733  0.58088894  1
  O  O64  1  0.50391812  0.63733402  0.57942515  1
  O  O65  1  0.13593853  0.48972615  0.57838076  1
  O  O66  1  0.30919409  0.83567386  0.25417744  1
  O  O67  1  0.52373412  0.68401842  0.25492238  1
  O  O68  1  0.16526627  0.47222747  0.25419882  1
  O  O69  1  0.31424863  0.47441906  0.75802846  1
  O  O70  1  0.16454196  0.69410036  0.75713900  1
  O  O71  1  0.52566845  0.83816051  0.75934682  1
loop_
_geom_bond_atom_site_label_1
_geom_bond_atom_site_label_2
_geom_bond_distance
_geom_bond_site_symmetry_2
Na0 O36 2.406731 1_655
Na0 O37 2.440478 1_565
Na0 O38 2.658157 1_665
Na0 O44 2.687083 1_555
Na0 O43 2.760456 1_665
Na0 O42 2.765879 1_565
Na1 O39 2.437733 1_555
Na1 O47 2.569721 1_556
Na1 O46 2.583836 1_456
Na1 O45 2.668052 1_446
Na1 O40 2.672583 1_545
Na1 O41 2.706191 1_445
Na2 O48 2.500296 1_555
Na2 O50 2.518384 1_555
Na2 O49 2.521112 1_555
Na2 O55 2.669681 1_555
Na2 O56 2.701015 1_555
Na2 O54 2.726761 1_555
Na3 O52 2.569306 1_555
Na3 O51 2.575280 1_555
Na3 O53 2.595044 1_555
Na3 O59 2.651552 1_555
Na3 O57 2.659316 1_555
Na3 O58 2.693450 1_555
Na4 O68 2.546921 1_555
Na4 O67 2.558333 1_555
Na4 O66 2.576323 1_555
Na4 O60 2.599475 1_555
Na4 O61 2.635754 1_555
Na4 O62 2.680726 1_555
Na5 O63 2.384272 1_555
Na5 O64 2.407320 1_555
Na5 O65 2.460867 1_555
Na5 O70 2.806185 1_555
Na5 O71 2.811829 1_555
Na5 O69 2.819686 1_555
Mg0 O36 1.940656 1_655
Mg0 O37 1.946102 1_565
Mg0 O1 2.086622 1_555
Mg0 O2 2.102265 1_565
Mg0 O38 2.125908 1_665
Mg0 O0 2.133658 1_665
Mg1 O39 1.952519 1_655
Mg1 O5 2.027918 1_555
Mg1 O3 2.069061 1_655
Mg1 O4 2.088047 1_545
Mg1 O41 2.133367 1_545
Mg1 O40 2.147728 1_645
Mg2 O44 2.058508 1_555
Mg2 O43 2.061306 1_665
Mg2 O42 2.065014 1_565
Mg2 O8 2.132934 1_655
Mg2 O6 2.151033 1_555
Mg2 O7 2.176839 1_665
Mg3 O10 2.009360 1_655
Mg3 O11 2.028129 1_645
Mg3 O9 2.042369 1_545
Mg3 O46 2.207199 1_555
Mg3 O45 2.208548 1_545
Mg3 O47 2.215352 1_655
Mg4 O13 1.971930 1_555
Mg4 O14 1.990824 1_555
Mg4 O12 2.001819 1_555
Mg4 O48 2.170044 1_555
Mg4 O49 2.172157 1_555
Mg4 O50 2.209935 1_555
Mg5 O51 2.040539 1_555
Mg5 O17 2.062501 1_555
Mg5 O52 2.066389 1_555
Mg5 O53 2.067268 1_555
Mg5 O15 2.081365 1_555
Mg5 O16 2.101263 1_555
Mg6 O25 1.890762 1_554
Mg6 O60 2.088723 1_555
Mg6 O24 2.090614 1_554
Mg6 O26 2.099004 1_554
Mg6 O61 2.110434 1_555
Mg6 O62 2.112538 1_555
Mg7 O29 1.895937 1_555
Mg7 O27 1.906788 1_555
Mg7 O28 2.098016 1_555
Mg7 O64 2.139811 1_555
Mg7 O63 2.146156 1_555
Mg7 O65 2.153749 1_555
Nb0 O55 1.888761 1_555
Nb0 O20 1.991861 1_556
Nb0 O19 1.992609 1_556
Nb0 O18 2.050319 1_556
Nb0 O54 2.120190 1_555
Nb0 O56 2.131787 1_555
Nb1 O59 1.876019 1_555
Nb1 O57 1.879191 1_555
Nb1 O23 2.040047 1_555
Nb1 O58 2.088998 1_555
Nb1 O22 2.121396 1_555
Nb1 O21 2.136321 1_555
Nb2 O31 1.847100 1_555
Nb2 O30 1.852524 1_555
Nb2 O32 2.064931 1_555
Nb2 O66 2.092959 1_555
Nb2 O68 2.179632 1_555
Nb2 O67 2.193620 1_555
Nb3 O33 1.855550 1_555
Nb3 O70 2.009194 1_555
Nb3 O69 2.013704 1_555
Nb3 O71 2.088378 1_555
Nb3 O35 2.100126 1_555
Nb3 O34 2.102212 1_555
O0 S0 1.451091 1_555
O1 S1 1.453210 1_555
O2 S2 1.454802 1_555
O3 S3 1.462529 1_555
O4 S4 1.462354 1_555
O5 S5 1.463307 1_555
O6 S5 1.458002 1_565
O7 S3 1.453566 1_555
O8 S4 1.452666 1_455
O9 S1 1.480113 1_555
O10 S2 1.477147 1_455
O11 S0 1.472301 1_565
O12 S6 1.469827 1_555
O13 S7 1.474387 1_555
O14 S8 1.474892 1_555
O15 S9 1.451707 1_555
O16 S10 1.450117 1_555
O17 S11 1.454663 1_555
O18 S11 1.560012 1_555
O19 S9 1.568580 1_555
O20 S10 1.564960 1_555
O21 S7 1.514853 1_555
O22 S8 1.514903 1_555
O23 S6 1.534043 1_555
O24 S12 1.449833 1_555
O25 Si0 1.559065 1_555
O26 S13 1.449102 1_555
O27 Si1 1.601032 1_555
O28 S14 1.442015 1_555
O29 Si2 1.586446 1_555
O30 Si2 1.719787 1_555
O31 Si1 1.700285 1_555
O32 S14 1.531473 1_555
O33 Si0 1.732197 1_555
O34 S13 1.513376 1_555
O35 S12 1.509510 1_555
O36 Si2 1.576493 1_555
O37 Si1 1.606685 1_545
O38 S14 1.445337 1_555
O39 Si0 1.578009 1_555
O40 S13 1.459313 1_555
O41 S12 1.456506 1_555
O42 S6 1.474626 1_555
O43 S7 1.482552 1_555
O44 S8 1.480797 1_555
O45 S9 1.471081 1_555
O46 S10 1.470138 1_555
O47 S11 1.475087 1_555
O48 S5 1.477374 1_555
O49 S3 1.472499 1_555
O50 S4 1.472535 1_555
O51 S1 1.486015 1_555
O52 S2 1.487478 1_555
O53 S0 1.481871 1_555
O54 S12 1.522798 1_555
O55 Si0 1.723289 1_655
O56 S13 1.521509 1_545
O57 Si1 1.678401 1_545
O58 S14 1.522653 1_555
O59 Si2 1.697335 1_655
O60 S11 1.472105 1_555
O61 S9 1.467733 1_455
O62 S10 1.470050 1_565
O63 S7 1.470206 1_565
O64 S8 1.472811 1_555
O65 S6 1.466207 1_455
O66 S0 1.552619 1_565
O67 S1 1.531794 1_555
O68 S2 1.531756 1_455
O69 S3 1.575909 1_555
O70 S4 1.576229 1_455
O71 S5 1.559287 1_565
