# generated using pymatgen
data_Li4Al3Si3ClO12
_symmetry_space_group_name_H-M   'P 1'
_cell_length_a   8.53221700
_cell_length_b   8.53221700
_cell_length_c   8.53221700
_cell_angle_alpha   90.00000000
_cell_angle_beta   90.00000000
_cell_angle_gamma   90.00000000
_symmetry_Int_Tables_number   1
_chemical_formula_structural   Li4Al3Si3ClO12
_chemical_formula_sum   'Li8 Al6 Si6 Cl2 O24'
_cell_volume   621.13453553
_cell_formula_units_Z   2
loop_
 _symmetry_equiv_pos_site_id
 _symmetry_equiv_pos_as_xyz
  1  'x, y, z'
loop_
 _atom_site_type_symbol
 _atom_site_label
 _atom_site_symmetry_multiplicity
 _atom_site_fract_x
 _atom_site_fract_y
 _atom_site_fract_z
 _atom_site_occupancy
  Li  Li0  1  0.17427300  0.17427300  0.17427300  1
  Li  Li1  1  0.67427300  0.67427300  0.67427300  1
  Li  Li2  1  0.82572700  0.17427300  0.82572700  1
  Li  Li3  1  0.32572700  0.67427300  0.32572700  1
  Li  Li4  1  0.32572700  0.32572700  0.67427300  1
  Li  Li5  1  0.67427300  0.32572700  0.32572700  1
  Li  Li6  1  0.82572700  0.82572700  0.17427300  1
  Li  Li7  1  0.17427300  0.82572700  0.82572700  1
  Al  Al0  1  0.00000000  0.75000000  0.50000000  1
  Al  Al1  1  0.25000000  0.50000000  0.00000000  1
  Al  Al2  1  0.50000000  0.00000000  0.75000000  1
  Al  Al3  1  0.50000000  0.00000000  0.25000000  1
  Al  Al4  1  0.00000000  0.25000000  0.50000000  1
  Al  Al5  1  0.75000000  0.50000000  0.00000000  1
  Si  Si0  1  0.75000000  0.00000000  0.50000000  1
  Si  Si1  1  0.50000000  0.25000000  0.00000000  1
  Si  Si2  1  0.00000000  0.50000000  0.75000000  1
  Si  Si3  1  0.00000000  0.50000000  0.25000000  1
  Si  Si4  1  0.50000000  0.75000000  0.00000000  1
  Si  Si5  1  0.25000000  0.00000000  0.50000000  1
  Cl  Cl0  1  0.50000000  0.50000000  0.50000000  1
  Cl  Cl1  1  0.00000000  0.00000000  0.00000000  1
  O  O0  1  0.64383300  0.90885600  0.63241300  1
  O  O1  1  0.64383300  0.09114400  0.36758700  1
  O  O2  1  0.90885600  0.63241300  0.64383300  1
  O  O3  1  0.09114400  0.63241300  0.35616700  1
  O  O4  1  0.63241300  0.64383300  0.90885600  1
  O  O5  1  0.36758700  0.35616700  0.90885600  1
  O  O6  1  0.85616700  0.86758700  0.40885600  1
  O  O7  1  0.85616700  0.13241300  0.59114400  1
  O  O8  1  0.14383300  0.86758700  0.59114400  1
  O  O9  1  0.13241300  0.59114400  0.85616700  1
  O  O10  1  0.59114400  0.14383300  0.86758700  1
  O  O11  1  0.59114400  0.85616700  0.13241300  1
  O  O12  1  0.86758700  0.40885600  0.85616700  1
  O  O13  1  0.40885600  0.85616700  0.86758700  1
  O  O14  1  0.14383300  0.13241300  0.40885600  1
  O  O15  1  0.35616700  0.90885600  0.36758700  1
  O  O16  1  0.35616700  0.09114400  0.63241300  1
  O  O17  1  0.09114400  0.36758700  0.64383300  1
  O  O18  1  0.90885600  0.36758700  0.35616700  1
  O  O19  1  0.63241300  0.35616700  0.09114400  1
  O  O20  1  0.36758700  0.64383300  0.09114400  1
  O  O21  1  0.40885600  0.14383300  0.13241300  1
  O  O22  1  0.13241300  0.40885600  0.14383300  1
  O  O23  1  0.86758700  0.59114400  0.14383300  1
loop_
_geom_bond_atom_site_label_1
_geom_bond_atom_site_label_2
_geom_bond_distance
_geom_bond_site_symmetry_2
Li0 O22 2.049652 1_555
Li0 O21 2.049652 1_555
Li0 O14 2.049652 1_555
Li1 O2 2.049652 1_555
Li1 O4 2.049652 1_555
Li1 O0 2.049652 1_555
Li2 O7 2.049652 1_555
Li2 O10 2.049652 1_555
Li2 O12 2.049652 1_555
Li3 O15 2.049652 1_555
Li3 O3 2.049652 1_555
Li3 O20 2.049652 1_555
Li4 O5 2.049652 1_555
Li4 O16 2.049652 1_555
Li4 O17 2.049652 1_555
Li5 O19 2.049652 1_555
Li5 O1 2.049652 1_555
Li5 O18 2.049652 1_555
Li6 O11 2.049652 1_555
Li6 O23 2.049652 1_555
Li6 O6 2.049652 1_555
Li7 O9 2.049652 1_555
Li7 O8 2.049652 1_555
Li7 O13 2.049652 1_555
Al0 O6 1.765610 1_455
Al0 O3 1.765610 1_555
Al0 O2 1.765610 1_455
Al0 O8 1.765610 1_555
Al1 O20 1.765610 1_555
Al1 O5 1.765610 1_554
Al1 O9 1.765610 1_554
Al1 O22 1.765610 1_555
Al2 O0 1.765610 1_545
Al2 O13 1.765610 1_545
Al2 O16 1.765610 1_555
Al2 O10 1.765610 1_555
Al3 O21 1.765610 1_555
Al3 O1 1.765610 1_555
Al3 O15 1.765610 1_545
Al3 O11 1.765610 1_545
Al4 O18 1.765610 1_455
Al4 O7 1.765610 1_455
Al4 O14 1.765610 1_555
Al4 O17 1.765610 1_555
Al5 O12 1.765610 1_554
Al5 O19 1.765610 1_555
Al5 O4 1.765610 1_554
Al5 O23 1.765610 1_555
Cl0 Li3 2.575447 1_555
Cl0 Li5 2.575447 1_555
Cl0 Li1 2.575447 1_555
Cl0 Li4 2.575447 1_555
Cl1 Li0 2.575447 1_555
Cl1 Li6 2.575447 1_445
Cl1 Li7 2.575447 1_544
Cl1 Li2 2.575447 1_454
O0 Si0 1.643684 1_565
O1 Si0 1.643684 1_555
O2 Si2 1.643684 1_655
O3 Si3 1.643684 1_555
O4 Si4 1.643684 1_556
O5 Si1 1.643684 1_556
O6 Si0 1.643684 1_565
O7 Si0 1.643684 1_555
O8 Si5 1.643684 1_565
O9 Si2 1.643684 1_555
O10 Si1 1.643684 1_556
O11 Si4 1.643684 1_555
O12 Si2 1.643684 1_655
O13 Si4 1.643684 1_556
O14 Si5 1.643684 1_555
O15 Si5 1.643684 1_565
O16 Si5 1.643684 1_555
O17 Si2 1.643684 1_555
O18 Si3 1.643684 1_655
O19 Si1 1.643684 1_555
O20 Si4 1.643684 1_555
O21 Si1 1.643684 1_555
O22 Si3 1.643684 1_555
O23 Si3 1.643684 1_655
