# generated using pymatgen
data_La2NiO4
_symmetry_space_group_name_H-M   'P 1'
_cell_length_a   3.92409000
_cell_length_b   3.92409000
_cell_length_c   6.84756580
_cell_angle_alpha   106.65043031
_cell_angle_beta   106.65043031
_cell_angle_gamma   90.00000000
_symmetry_Int_Tables_number   1
_chemical_formula_structural   La2NiO4
_chemical_formula_sum   'La2 Ni1 O4'
_cell_volume   96.39734809
_cell_formula_units_Z   1
loop_
 _symmetry_equiv_pos_site_id
 _symmetry_equiv_pos_as_xyz
  1  'x, y, z'
loop_
 _atom_site_type_symbol
 _atom_site_label
 _atom_site_symmetry_multiplicity
 _atom_site_fract_x
 _atom_site_fract_y
 _atom_site_fract_z
 _atom_site_occupancy
  La  La0  1  0.36347300  0.36347300  0.72694600  1
  La  La1  1  0.63652700  0.63652700  0.27305400  1
  Ni  Ni0  1  0.00000000  0.00000000  0.00000000  1
  O  O0  1  0.17899300  0.17899300  0.35798600  1
  O  O1  1  0.82100700  0.82100700  0.64201400  1
  O  O2  1  0.50000000  0.00000000  0.00000000  1
  O  O3  1  0.00000000  0.50000000  0.00000000  1
loop_
_geom_bond_atom_site_label_1
_geom_bond_atom_site_label_2
_geom_bond_distance
_geom_bond_site_symmetry_2
La0 O0 2.309758 1_555
La0 O2 2.602222 1_556
La0 O3 2.602222 1_556
La0 O2 2.602222 1_566
La0 O3 2.602222 1_656
La0 O1 2.825232 1_555
La0 O1 2.825232 1_545
La0 O1 2.825232 1_455
La0 O1 2.825232 1_445
La1 O1 2.309758 1_555
La1 O3 2.602222 1_655
La1 O2 2.602222 1_565
La1 O2 2.602222 1_555
La1 O3 2.602222 1_555
La1 O0 2.825232 1_665
La1 O0 2.825232 1_565
La1 O0 2.825232 1_655
La1 O0 2.825232 1_555
Ni0 O3 1.962045 1_555
Ni0 O3 1.962045 1_545
Ni0 O2 1.962045 1_455
Ni0 O2 1.962045 1_555
Ni0 O0 2.241059 1_555
Ni0 O1 2.241059 1_444
