# generated using pymatgen
data_ScAl(SO4)3
_symmetry_space_group_name_H-M   'P 1'
_cell_length_a   8.54383423
_cell_length_b   8.54383397
_cell_length_c   22.23360716
_cell_angle_alpha   90.00000000
_cell_angle_beta   90.00000000
_cell_angle_gamma   120.00000097
_symmetry_Int_Tables_number   1
_chemical_formula_structural   ScAl(SO4)3
_chemical_formula_sum   'Sc6 Al6 S18 O72'
_cell_volume   1405.54957774
_cell_formula_units_Z   6
loop_
 _symmetry_equiv_pos_site_id
 _symmetry_equiv_pos_as_xyz
  1  'x, y, z'
loop_
 _atom_site_type_symbol
 _atom_site_label
 _atom_site_symmetry_multiplicity
 _atom_site_fract_x
 _atom_site_fract_y
 _atom_site_fract_z
 _atom_site_occupancy
  Sc  Sc0  1  0.00000000  0.00000000  0.85199972  1
  Sc  Sc1  1  0.66666700  0.33333300  0.98133328  1
  Sc  Sc2  1  0.33333300  0.66666700  0.02622227  1
  Sc  Sc3  1  0.33333300  0.66666700  0.52264286  1
  Sc  Sc4  1  0.33333300  0.66666700  0.31069114  1
  Sc  Sc5  1  0.33333300  0.66666700  0.80711173  1
  Al  Al0  1  0.00000000  0.00000000  0.35227556  1
  Al  Al1  1  0.00000000  0.00000000  0.64459268  1
  Al  Al2  1  0.00000000  0.00000000  0.14777134  1
  Al  Al3  1  0.66666700  0.33333300  0.68556166  1
  Al  Al4  1  0.66666700  0.33333300  0.18874032  1
  Al  Al5  1  0.66666700  0.33333300  0.48105744  1
  S  S0  1  0.28668003  0.00994214  0.24820533  1
  S  S1  1  0.72326211  0.71331997  0.24820533  1
  S  S2  1  0.99005786  0.27673789  0.24820533  1
  S  S3  1  0.29453643  0.28352584  0.74440539  1
  S  S4  1  0.98898941  0.70546357  0.74440539  1
  S  S5  1  0.71647416  0.01101059  0.74440539  1
  S  S6  1  0.94340489  0.32339086  0.58512767  1
  S  S7  1  0.37998697  0.05659511  0.58512767  1
  S  S8  1  0.67660914  0.62001303  0.58512767  1
  S  S9  1  0.95019284  0.62786943  0.08892761  1
  S  S10  1  0.67767759  0.04980716  0.08892761  1
  S  S11  1  0.37213057  0.32232241  0.08892761  1
  S  S12  1  0.62332346  0.66666700  0.91666700  1
  S  S13  1  0.04334254  0.37667654  0.91666700  1
  S  S14  1  0.33333300  0.95665746  0.91666700  1
  S  S15  1  0.63592524  0.96925924  0.41666700  1
  S  S16  1  0.33333300  0.36407476  0.41666700  1
  S  S17  1  0.03074076  0.66666700  0.41666700  1
  O  O0  1  0.20474913  0.03994535  0.30274311  1
  O  O1  1  0.83519622  0.79525087  0.30274311  1
  O  O2  1  0.96005465  0.16480378  0.30274311  1
  O  O3  1  0.22086179  0.17612417  0.80003161  1
  O  O4  1  0.95526239  0.77913821  0.80003161  1
  O  O5  1  0.82387583  0.04473761  0.80003161  1
  O  O6  1  0.80521683  0.97787904  0.69289672  1
  O  O7  1  0.17266221  0.19478317  0.69289672  1
  O  O8  1  0.02212096  0.82733779  0.69289672  1
  O  O9  1  0.80631255  0.82937261  0.19516124  1
  O  O10  1  0.02306006  0.19368745  0.19516124  1
  O  O11  1  0.17062739  0.97693994  0.19516124  1
  O  O12  1  0.86035445  0.35639306  0.63817176  1
  O  O13  1  0.49603961  0.13964555  0.63817176  1
  O  O14  1  0.64360694  0.50396039  0.63817176  1
  O  O15  1  0.86145017  0.50599521  0.14043628  1
  O  O16  1  0.64454604  0.13854983  0.14043628  1
  O  O17  1  0.49400479  0.35545396  0.14043628  1
  O  O18  1  0.44580521  0.28859539  0.03330139  1
  O  O19  1  0.84279117  0.55419479  0.03330139  1
  O  O20  1  0.71140461  0.15720883  0.03330139  1
  O  O21  1  0.46191787  0.16852922  0.53058989  1
  O  O22  1  0.70661235  0.53808213  0.53058989  1
  O  O23  1  0.83147078  0.29338765  0.53058989  1
  O  O24  1  0.54117686  0.69548282  0.97086617  1
  O  O25  1  0.15430496  0.45882314  0.97086617  1
  O  O26  1  0.30451718  0.84569504  0.97086617  1
  O  O27  1  0.55623669  0.85101251  0.47006141  1
  O  O28  1  0.29477482  0.44376331  0.47006141  1
  O  O29  1  0.14898749  0.70522518  0.47006141  1
  O  O30  1  0.11042931  0.62810882  0.36327259  1
  O  O31  1  0.51767851  0.88957069  0.36327259  1
  O  O32  1  0.37189118  0.48232149  0.36327259  1
  O  O33  1  0.12548914  0.48763896  0.86246783  1
  O  O34  1  0.36214882  0.87451086  0.86246783  1
  O  O35  1  0.51236104  0.63785118  0.86246783  1
  O  O36  1  0.01229255  0.82716810  0.40479114  1
  O  O37  1  0.81487554  0.98770745  0.40479114  1
  O  O38  1  0.17283190  0.18512446  0.40479114  1
  O  O39  1  0.02543797  0.19765274  0.90988535  1
  O  O40  1  0.17221477  0.97456203  0.90988535  1
  O  O41  1  0.80234726  0.82778523  0.90988535  1
  O  O42  1  0.96237789  0.16221116  0.59425331  1
  O  O43  1  0.19983327  0.03762211  0.59425331  1
  O  O44  1  0.83778884  0.80016673  0.59425331  1
  O  O45  1  0.97084918  0.80772627  0.09824924  1
  O  O46  1  0.83687709  0.02915082  0.09824924  1
  O  O47  1  0.19227373  0.16312291  0.09824924  1
  O  O48  1  0.69581782  0.17021009  0.73508376  1
  O  O49  1  0.47439327  0.30418218  0.73508376  1
  O  O50  1  0.82978991  0.52560673  0.73508376  1
  O  O51  1  0.70428911  0.53316627  0.23907969  1
  O  O52  1  0.82887816  0.29571089  0.23907969  1
  O  O53  1  0.46683373  0.17112184  0.23907969  1
  O  O54  1  0.64122903  0.50554777  0.92344765  1
  O  O55  1  0.86431974  0.35877097  0.92344765  1
  O  O56  1  0.49445223  0.13568026  0.92344765  1
  O  O57  1  0.65437445  0.14820854  0.42854186  1
  O  O58  1  0.49383510  0.34562555  0.42854186  1
  O  O59  1  0.85179146  0.50616490  0.42854186  1
  O  O60  1  0.35523431  0.48469992  0.08194353  1
  O  O61  1  0.12946460  0.64476569  0.08194353  1
  O  O62  1  0.51530008  0.87053540  0.08194353  1
  O  O63  1  0.36112858  0.87620330  0.57754771  1
  O  O64  1  0.51507373  0.63887142  0.57754771  1
  O  O65  1  0.12379670  0.48492627  0.57754771  1
  O  O66  1  0.30553742  0.84840773  0.25578629  1
  O  O67  1  0.54286930  0.69446258  0.25578629  1
  O  O68  1  0.15159227  0.45713070  0.25578629  1
  O  O69  1  0.31143169  0.46279860  0.75139047  1
  O  O70  1  0.15136592  0.68856831  0.75139047  1
  O  O71  1  0.53720140  0.84863408  0.75139047  1
loop_
_geom_bond_atom_site_label_1
_geom_bond_atom_site_label_2
_geom_bond_distance
_geom_bond_site_symmetry_2
Al0 O36 1.926115 1_545
Al0 O38 1.926115 1_555
Al0 O37 1.926115 1_445
Al0 O1 1.947428 1_445
Al0 O2 1.947428 1_455
Al0 O0 1.947429 1_555
Al1 O7 1.908967 1_555
Al1 O8 1.908967 1_545
Al1 O6 1.908967 1_445
Al1 O44 1.929301 1_445
Al1 O42 1.929301 1_455
Al1 O43 1.929301 1_555
Al2 O10 1.887175 1_555
Al2 O9 1.887175 1_445
Al2 O11 1.887175 1_545
Al2 O45 1.887817 1_445
Al2 O47 1.887817 1_555
Al2 O46 1.887817 1_455
Al3 O13 1.887175 1_555
Al3 O14 1.887175 1_555
Al3 O12 1.887175 1_555
Al3 O50 1.887817 1_555
Al3 O48 1.887817 1_555
Al3 O49 1.887817 1_555
Al4 O16 1.908967 1_555
Al4 O15 1.908967 1_555
Al4 O17 1.908967 1_555
Al4 O51 1.929301 1_555
Al4 O53 1.929301 1_555
Al4 O52 1.929301 1_555
Al5 O58 1.926115 1_555
Al5 O59 1.926115 1_555
Al5 O57 1.926115 1_555
Al5 O22 1.947428 1_555
Al5 O21 1.947428 1_555
Al5 O23 1.947429 1_555
O0 S0 1.485088 1_555
O1 S1 1.485088 1_555
O2 S2 1.485088 1_555
O3 S3 1.479949 1_555
O3 Sc0 2.078620 1_555
O4 S4 1.479949 1_555
O4 Sc0 2.078620 1_665
O5 S5 1.479949 1_555
O5 Sc0 2.078620 1_655
O6 S5 1.476876 1_565
O7 S3 1.476876 1_555
O8 S4 1.476876 1_455
O9 S1 1.474436 1_555
O10 S2 1.474436 1_455
O11 S0 1.474436 1_565
O12 S6 1.474436 1_555
O13 S7 1.474436 1_555
O14 S8 1.474436 1_555
O15 S9 1.476876 1_555
O16 S10 1.476876 1_555
O17 S11 1.476876 1_555
O18 S11 1.479949 1_555
O18 Sc1 2.078620 1_554
O19 S9 1.479949 1_555
O19 Sc1 2.078620 1_554
O20 S10 1.479949 1_555
O20 Sc1 2.078620 1_554
O21 S7 1.485088 1_555
O22 S8 1.485088 1_555
O23 S6 1.485088 1_555
O24 S12 1.475847 1_555
O24 Sc2 2.071620 1_556
O25 S13 1.475847 1_555
O25 Sc2 2.071620 1_556
O26 S14 1.475847 1_555
O26 Sc2 2.071620 1_556
O27 S15 1.485159 1_555
O27 Sc3 2.115375 1_555
O28 S16 1.485159 1_555
O28 Sc3 2.115375 1_555
O29 S17 1.485159 1_555
O29 Sc3 2.115375 1_555
O30 S17 1.485159 1_555
O30 Sc4 2.115375 1_555
O31 S15 1.485159 1_555
O31 Sc4 2.115375 1_555
O32 S16 1.485159 1_555
O32 Sc4 2.115375 1_555
O33 S13 1.475847 1_555
O33 Sc5 2.071620 1_555
O34 S14 1.475847 1_555
O34 Sc5 2.071620 1_555
O35 S12 1.475847 1_555
O35 Sc5 2.071620 1_555
O36 S17 1.480254 1_555
O37 S15 1.480263 1_555
O38 S16 1.480259 1_555
O39 S13 1.466860 1_555
O39 Sc0 2.046546 1_555
O40 S14 1.466851 1_555
O40 Sc0 2.046546 1_565
O41 S12 1.466856 1_555
O41 Sc0 2.046546 1_665
O42 S6 1.478870 1_555
O43 S7 1.478879 1_555
O44 S8 1.478875 1_555
O45 S9 1.471138 1_555
O46 S10 1.471130 1_555
O47 S11 1.471135 1_555
O48 S5 1.471130 1_555
O49 S3 1.471139 1_555
O50 S4 1.471135 1_555
O51 S1 1.478879 1_555
O52 S2 1.478870 1_555
O53 S0 1.478875 1_555
O54 S12 1.466862 1_555
O54 Sc1 2.046546 1_555
O55 S13 1.466845 1_655
O55 Sc1 2.046546 1_555
O56 S14 1.466852 1_545
O56 Sc1 2.046546 1_555
O57 S15 1.480247 1_545
O58 S16 1.480264 1_555
O59 S17 1.480254 1_655
O60 S11 1.473058 1_555
O60 Sc2 2.068296 1_555
O61 S9 1.473041 1_455
O61 Sc2 2.068296 1_555
O62 S10 1.473048 1_565
O62 Sc2 2.068296 1_555
O63 S7 1.476972 1_565
O63 Sc3 2.080002 1_555
O64 S8 1.476989 1_555
O64 Sc3 2.080002 1_555
O65 S6 1.476980 1_455
O65 Sc3 2.080002 1_555
O66 S0 1.476978 1_565
O66 Sc4 2.080002 1_555
O67 S1 1.476987 1_555
O67 Sc4 2.080002 1_555
O68 S2 1.476983 1_455
O68 Sc4 2.080002 1_555
O69 S3 1.473055 1_555
O69 Sc5 2.068296 1_555
O70 S4 1.473047 1_455
O70 Sc5 2.068296 1_555
O71 S5 1.473052 1_565
O71 Sc5 2.068296 1_555
