# generated using pymatgen
data_MgCo(NiO2)4
_symmetry_space_group_name_H-M   'P 1'
_cell_length_a   11.43164799
_cell_length_b   11.43165456
_cell_length_c   17.55904347
_cell_angle_alpha   16.82822462
_cell_angle_beta   16.82824572
_cell_angle_gamma   29.82243747
_symmetry_Int_Tables_number   1
_chemical_formula_structural   MgCo(NiO2)4
_chemical_formula_sum   'Mg1 Co1 Ni4 O8'
_cell_volume   156.65828540
_cell_formula_units_Z   1
loop_
 _symmetry_equiv_pos_site_id
 _symmetry_equiv_pos_as_xyz
  1  'x, y, z'
loop_
 _atom_site_type_symbol
 _atom_site_label
 _atom_site_symmetry_multiplicity
 _atom_site_fract_x
 _atom_site_fract_y
 _atom_site_fract_z
 _atom_site_occupancy
  Mg  Mg0  1  0.62658850  0.62658851  0.02797528  1
  Co  Co0  1  0.49870895  0.49870894  0.00986624  1
  Ni  Ni0  1  0.00195185  0.50279427  0.00590986  1
  Ni  Ni1  1  -0.00145311  -0.00145311  0.00987119  1
  Ni  Ni2  1  0.37387396  0.37387394  -0.00969100  1
  Ni  Ni3  1  0.50279424  0.00195184  0.00590989  1
  O  O0  1  0.13581291  0.69084344  0.52276308  1
  O  O1  1  0.86036206  0.31146916  0.49501356  1
  O  O2  1  0.79394802  0.79394902  0.54523057  1
  O  O3  1  0.20802906  0.20802807  0.46802361  1
  O  O4  1  0.60414998  0.60414997  0.59708521  1
  O  O5  1  0.39292096  0.39292098  0.42463589  1
  O  O6  1  0.69084444  0.13581291  0.52276209  1
  O  O7  1  0.31146820  0.86036207  0.49501452  1
loop_
_geom_bond_atom_site_label_1
_geom_bond_atom_site_label_2
_geom_bond_distance
_geom_bond_site_symmetry_2
Mg0 O3 1.914458 1_555
Mg0 O5 1.982360 1_555
Mg0 O7 2.045218 1_654
Mg0 O1 2.045218 1_564
Co0 O6 1.888287 1_564
Co0 O0 1.888290 1_654
Co0 O7 1.895654 1_545
Co0 O1 1.895657 1_455
Co0 O3 1.900367 1_555
Co0 O2 1.919174 1_554
Ni0 O4 1.891848 1_554
Ni0 O5 1.899640 1_455
Ni0 O6 1.955964 1_455
Ni0 O7 1.958914 1_554
Ni0 O3 2.084104 1_564
Ni0 O2 2.102360 1_445
Ni1 O5 2.034381 1_554
Ni1 O4 2.062220 1_445
Ni1 O1 2.105916 1_445
Ni1 O7 2.105918 1_445
Ni1 O0 2.126701 1_554
Ni1 O6 2.126703 1_554
Ni2 O2 1.876629 1_554
Ni2 O4 1.991692 1_554
Ni2 O6 2.048481 1_455
Ni2 O0 2.048481 1_545
Ni3 O4 1.891848 1_554
Ni3 O5 1.899640 1_545
Ni3 O0 1.955970 1_545
Ni3 O1 1.958920 1_554
Ni3 O3 2.084108 1_654
Ni3 O2 2.102365 1_445
