# generated using pymatgen
data_MgFe2(CoO4)2
_symmetry_space_group_name_H-M   'P 1'
_cell_length_a   5.36442764
_cell_length_b   5.77093951
_cell_length_c   4.87736258
_cell_angle_alpha   96.21295982
_cell_angle_beta   85.29789048
_cell_angle_gamma   104.97687678
_symmetry_Int_Tables_number   1
_chemical_formula_structural   MgFe2(CoO4)2
_chemical_formula_sum   'Mg1 Fe2 Co2 O8'
_cell_volume   144.77697350
_cell_formula_units_Z   1
loop_
 _symmetry_equiv_pos_site_id
 _symmetry_equiv_pos_as_xyz
  1  'x, y, z'
loop_
 _atom_site_type_symbol
 _atom_site_label
 _atom_site_symmetry_multiplicity
 _atom_site_fract_x
 _atom_site_fract_y
 _atom_site_fract_z
 _atom_site_occupancy
  Mg  Mg0  1  0.37393176  0.03937695  0.61663248  1
  Fe  Fe0  1  0.19726260  0.72757422  0.08546696  1
  Fe  Fe1  1  0.79299445  0.09395046  0.05649510  1
  Co  Co0  1  0.21394930  0.42799835  0.51694515  1
  Co  Co1  1  0.75920612  0.65469609  0.51038992  1
  O  O0  1  0.07447708  0.21809792  0.75390040  1
  O  O1  1  0.11269998  0.72043679  0.70836758  1
  O  O2  1  0.42582547  0.57345162  0.25700795  1
  O  O3  1  0.43697243  0.04141298  0.19907361  1
  O  O4  1  0.64396818  0.89317715  0.73593792  1
  O  O5  1  0.53930649  0.41184650  0.66573310  1
  O  O6  1  0.93698550  0.42796658  0.27816221  1
  O  O7  1  0.92297664  0.87715739  0.25651260  1
loop_
_geom_bond_atom_site_label_1
_geom_bond_atom_site_label_2
_geom_bond_distance
_geom_bond_site_symmetry_2
Mg0 O4 2.006247 1_545
Mg0 O3 2.037742 1_555
Mg0 O1 2.072211 1_545
Mg0 O5 2.098220 1_555
Mg0 O0 2.150136 1_555
Fe0 O1 1.923812 1_554
Fe0 O2 1.971639 1_555
Fe0 O7 1.976232 1_455
Fe0 O3 1.984108 1_565
Fe0 O6 2.170511 1_455
Fe1 O3 1.936921 1_555
Fe1 O4 1.939097 1_544
Fe1 O7 1.956977 1_545
Fe1 O0 2.067824 1_654
Fe1 O6 2.096997 1_555
Co0 O0 1.748025 1_555
Co0 O2 1.762033 1_555
Co0 O6 1.961461 1_455
Co0 O5 1.971793 1_555
Co0 O1 2.016039 1_555
Co1 O5 1.777226 1_555
Co1 O4 1.867340 1_555
Co1 O7 1.880437 1_555
Co1 O6 2.012841 1_555
Co1 O1 2.126342 1_655
Co1 O2 2.179227 1_555
