# generated using pymatgen
data_K6Mg(BiO4)2
_symmetry_space_group_name_H-M   'P 1'
_cell_length_a   6.51210714
_cell_length_b   6.91659012
_cell_length_c   7.94009573
_cell_angle_alpha   96.19140025
_cell_angle_beta   95.15041717
_cell_angle_gamma   104.52675493
_symmetry_Int_Tables_number   1
_chemical_formula_structural   K6Mg(BiO4)2
_chemical_formula_sum   'K6 Mg1 Bi2 O8'
_cell_volume   341.63651273
_cell_formula_units_Z   1
loop_
 _symmetry_equiv_pos_site_id
 _symmetry_equiv_pos_as_xyz
  1  'x, y, z'
loop_
 _atom_site_type_symbol
 _atom_site_label
 _atom_site_symmetry_multiplicity
 _atom_site_fract_x
 _atom_site_fract_y
 _atom_site_fract_z
 _atom_site_occupancy
  K  K0  1  0.57971079  0.79019798  0.06872442  1
  K  K1  1  0.83121776  0.11422626  0.87112951  1
  K  K2  1  0.62953709  0.86656588  0.50198572  1
  K  K3  1  0.25484869  0.20297495  0.49212094  1
  K  K4  1  0.32404910  0.22104208  0.98441147  1
  K  K5  1  0.10348671  0.80400742  0.16468866  1
  Mg  Mg0  1  0.74023474  0.52067397  0.80510214  1
  Bi  Bi0  1  0.78765809  0.32474164  0.28372268  1
  Bi  Bi1  1  0.19139095  0.65847188  0.68703145  1
  O  O0  1  0.94867838  0.78425223  0.79165071  1
  O  O1  1  0.95097832  0.11270313  0.20389187  1
  O  O2  1  0.42588623  0.50270855  0.76298843  1
  O  O3  1  0.74771731  0.45233434  0.04407594  1
  O  O4  1  0.42029054  0.93092552  0.77997252  1
  O  O5  1  0.49702772  0.09567051  0.26284357  1
  O  O6  1  0.21278986  0.65356537  0.43077655  1
  O  O7  1  0.93449773  0.38493829  0.67321642  1
loop_
_geom_bond_atom_site_label_1
_geom_bond_atom_site_label_2
_geom_bond_distance
_geom_bond_site_symmetry_2
K0 O5 2.673372 1_565
K0 O4 2.800482 1_554
K0 O3 2.814008 1_555
K0 O1 2.878409 1_565
K0 O2 2.893686 1_554
K1 O7 2.573009 1_555
K1 O0 2.616104 1_545
K1 O4 2.654158 1_545
K1 O1 2.688781 1_556
K1 O3 2.780204 1_556
K2 O6 2.719273 1_555
K2 O4 2.749402 1_555
K2 O5 2.811041 1_565
K2 O0 3.154532 1_555
K3 O5 2.676464 1_555
K3 O2 2.759314 1_555
K3 O1 2.793214 1_455
K3 O7 3.077178 1_455
K3 O6 3.279763 1_555
K3 O4 3.380493 1_545
K4 O4 2.676801 1_545
K4 O5 2.713815 1_556
K4 O2 2.761549 1_555
K4 O3 2.789848 1_556
K4 O1 3.103127 1_456
K5 O1 2.572530 1_465
K5 O6 2.574667 1_555
K5 O5 2.820196 1_565
K5 O3 2.910900 1_455
K5 O0 3.019216 1_454
Mg0 O0 2.001028 1_555
Mg0 O3 2.003652 1_556
Mg0 O2 2.014519 1_555
Mg0 O7 2.049385 1_555
Bi0 O1 2.094474 1_555
Bi0 O5 2.121903 1_555
Bi0 O3 2.203564 1_555
Bi1 O6 2.049125 1_555
Bi1 O4 2.100249 1_555
Bi1 O2 2.157882 1_555
Bi1 O0 2.171349 1_455
Bi1 O7 2.173603 1_455
