# generated using pymatgen
data_Na4Sc2Zn2SiS5O24
_symmetry_space_group_name_H-M   'P 1'
_cell_length_a   8.95511600
_cell_length_b   8.91818285
_cell_length_c   22.56102072
_cell_angle_alpha   89.89000244
_cell_angle_beta   89.87426577
_cell_angle_gamma   120.22037023
_symmetry_Int_Tables_number   1
_chemical_formula_structural   Na4Sc2Zn2SiS5O24
_chemical_formula_sum   'Na12 Sc6 Zn6 Si3 S15 O72'
_cell_volume   1556.91382921
_cell_formula_units_Z   3
loop_
 _symmetry_equiv_pos_site_id
 _symmetry_equiv_pos_as_xyz
  1  'x, y, z'
loop_
 _atom_site_type_symbol
 _atom_site_label
 _atom_site_symmetry_multiplicity
 _atom_site_fract_x
 _atom_site_fract_y
 _atom_site_fract_z
 _atom_site_occupancy
  Na  Na0  1  0.99396466  0.62917188  0.24096855  1
  Na  Na1  1  0.99219861  0.35427009  0.76044509  1
  Na  Na2  1  0.36907139  0.99351362  0.75319980  1
  Na  Na3  1  0.65876021  0.97580332  0.59047440  1
  Na  Na4  1  0.67693846  0.68454204  0.07636194  1
  Na  Na5  1  0.33873622  0.03740321  0.42172070  1
  Na  Na6  1  0.01634288  0.00298968  0.49861986  1
  Na  Na7  1  0.01872822  0.99746605  0.00226640  1
  Na  Na8  1  0.66621730  0.33499889  0.84430410  1
  Na  Na9  1  0.66651587  0.33323305  0.33053335  1
  Na  Na10  1  0.31885999  0.66176536  0.16598016  1
  Na  Na11  1  0.35095515  0.67551466  0.66937794  1
  Sc  Sc0  1  0.98444732  0.99782890  0.85360115  1
  Sc  Sc1  1  0.99945135  0.99579176  0.64654497  1
  Sc  Sc2  1  0.00425342  0.00157127  0.14936884  1
  Sc  Sc3  1  0.65745048  0.32035588  0.68258202  1
  Sc  Sc4  1  0.31739413  0.66773170  0.01946958  1
  Sc  Sc5  1  0.33034604  0.66924887  0.51707084  1
  Zn  Zn0  1  0.99602752  0.00421841  0.34784939  1
  Zn  Zn1  1  0.67493652  0.33143861  0.17456923  1
  Zn  Zn2  1  0.67984493  0.34582737  0.98944677  1
  Zn  Zn3  1  0.65394016  0.33094367  0.48629469  1
  Zn  Zn4  1  0.33796207  0.66233251  0.31676168  1
  Zn  Zn5  1  0.36381893  0.68797854  0.82086610  1
  Si  Si0  1  0.69983337  0.99530431  0.74687235  1
  Si  Si1  1  0.36225184  0.03248172  0.57901365  1
  Si  Si2  1  0.96204399  0.62981708  0.08765040  1
  S  S0  1  0.30166693  0.00307549  0.25360619  1
  S  S1  1  0.70011146  0.70362906  0.25179884  1
  S  S2  1  0.99967070  0.29805138  0.25316234  1
  S  S3  1  0.29208893  0.29364963  0.75082084  1
  S  S4  1  0.99633757  0.70278256  0.75137386  1
  S  S5  1  0.96278494  0.33613431  0.58259941  1
  S  S6  1  0.66668251  0.62729127  0.58082264  1
  S  S7  1  0.66582672  0.03607647  0.08286002  1
  S  S8  1  0.37278713  0.33211632  0.08247257  1
  S  S9  1  0.62820055  0.65834784  0.91841433  1
  S  S10  1  0.03886722  0.37448892  0.91278430  1
  S  S11  1  0.33773089  0.97394493  0.91484834  1
  S  S12  1  0.63335979  0.96265333  0.41522273  1
  S  S13  1  0.33314229  0.37010720  0.41429382  1
  S  S14  1  0.03170366  0.66306632  0.41389805  1
  O  O0  1  0.22765284  0.02341676  0.31040605  1
  O  O1  1  0.81332374  0.79239561  0.30349380  1
  O  O2  1  0.99094625  0.20365485  0.30800482  1
  O  O3  1  0.21477957  0.18018314  0.80359071  1
  O  O4  1  0.98346907  0.78963820  0.80525093  1
  O  O5  1  0.83415430  0.02876041  0.80171275  1
  O  O6  1  0.78695550  0.98097001  0.68509865  1
  O  O7  1  0.18627657  0.20661141  0.69754537  1
  O  O8  1  0.02557196  0.81396726  0.69843755  1
  O  O9  1  0.78578953  0.80345002  0.19611551  1
  O  O10  1  0.01221105  0.20795273  0.19978155  1
  O  O11  1  0.18225464  0.98130375  0.20347560  1
  O  O12  1  0.88808717  0.36007957  0.63872578  1
  O  O13  1  0.48752659  0.12597980  0.63756410  1
  O  O14  1  0.65441556  0.52801162  0.63479509  1
  O  O15  1  0.88982548  0.52802951  0.15026614  1
  O  O16  1  0.63032365  0.10504838  0.13697809  1
  O  O17  1  0.47885377  0.35920808  0.13586372  1
  O  O18  1  0.44156452  0.29585037  0.02879861  1
  O  O19  1  0.82625654  0.54687961  0.03365594  1
  O  O20  1  0.68538227  0.13608915  0.02901549  1
  O  O21  1  0.44632039  0.13762181  0.51794198  1
  O  O22  1  0.69338012  0.55264369  0.52693709  1
  O  O23  1  0.85360259  0.31509673  0.53135621  1
  O  O24  1  0.54509262  0.67677879  0.97271731  1
  O  O25  1  0.14623676  0.47005266  0.96447114  1
  O  O26  1  0.31932246  0.85775160  0.96511926  1
  O  O27  1  0.54998550  0.86433991  0.47168410  1
  O  O28  1  0.32133193  0.45881872  0.46838639  1
  O  O29  1  0.14998173  0.68509325  0.46492353  1
  O  O30  1  0.10759097  0.64340102  0.35798105  1
  O  O31  1  0.51798884  0.87232816  0.36455515  1
  O  O32  1  0.34288477  0.46629320  0.36022280  1
  O  O33  1  0.12120622  0.46945968  0.85663847  1
  O  O34  1  0.35210681  0.89777392  0.85739990  1
  O  O35  1  0.52858491  0.64423432  0.86445430  1
  O  O36  1  0.02725887  0.82918409  0.41312834  1
  O  O37  1  0.80406410  0.97474431  0.41134588  1
  O  O38  1  0.17694326  0.19029483  0.41417227  1
  O  O39  1  0.02888386  0.20104818  0.91274764  1
  O  O40  1  0.17802573  0.98745112  0.91364619  1
  O  O41  1  0.80437889  0.81989422  0.91460509  1
  O  O42  1  0.97288052  0.17399034  0.58639278  1
  O  O43  1  0.17031371  0.00634582  0.58779405  1
  O  O44  1  0.81522828  0.80918151  0.58505882  1
  O  O45  1  0.98462537  0.82813196  0.09274673  1
  O  O46  1  0.82455688  0.02079543  0.08944062  1
  O  O47  1  0.19202986  0.18743630  0.09074153  1
  O  O48  1  0.68642160  0.17663766  0.74630973  1
  O  O49  1  0.46798586  0.31699232  0.74447283  1
  O  O50  1  0.83731350  0.53114210  0.74602591  1
  O  O51  1  0.68141841  0.52860356  0.24905887  1
  O  O52  1  0.84287568  0.31549375  0.25069818  1
  O  O53  1  0.47479950  0.15466986  0.24468273  1
  O  O54  1  0.64720515  0.50392112  0.92066527  1
  O  O55  1  0.86383820  0.35006221  0.91743407  1
  O  O56  1  0.49283822  0.14612241  0.92166825  1
  O  O57  1  0.65076764  0.13782872  0.41781193  1
  O  O58  1  0.49026560  0.35167377  0.41606996  1
  O  O59  1  0.85851513  0.51056385  0.42265312  1
  O  O60  1  0.36662091  0.49743956  0.07572846  1
  O  O61  1  0.15529035  0.65452696  0.07728699  1
  O  O62  1  0.51922190  0.85147335  0.07671607  1
  O  O63  1  0.35633916  0.84196900  0.57702195  1
  O  O64  1  0.50656595  0.64074754  0.57816348  1
  O  O65  1  0.13995491  0.48647316  0.57747302  1
  O  O66  1  0.30497222  0.83614617  0.25456816  1
  O  O67  1  0.52977248  0.69295810  0.25532971  1
  O  O68  1  0.15636502  0.47781448  0.25293943  1
  O  O69  1  0.29864054  0.46148622  0.75627481  1
  O  O70  1  0.14766740  0.67652735  0.75460538  1
  O  O71  1  0.50363286  0.83073648  0.75329759  1
loop_
_geom_bond_atom_site_label_1
_geom_bond_atom_site_label_2
_geom_bond_distance
_geom_bond_site_symmetry_2
Na0 O15 2.244882 1_555
Na0 O52 2.427071 1_555
Na0 O68 2.446730 1_655
Na0 O66 2.467578 1_655
Na0 O51 2.478232 1_555
Na0 O30 2.811363 1_655
Na0 O11 2.841432 1_655
Na1 O48 2.397589 1_555
Na1 O69 2.410599 1_655
Na1 O33 2.434072 1_655
Na1 O70 2.486999 1_655
Na1 O50 2.592328 1_555
Na1 O5 2.673014 1_555
Na1 O12 2.910734 1_555
Na2 O71 2.306590 1_555
Na2 O48 2.468343 1_565
Na2 O34 2.477658 1_555
Na2 O70 2.506154 1_555
Na2 O49 2.563277 1_565
Na2 O13 2.835759 1_565
Na2 O3 2.879035 1_565
Na2 O8 2.935749 1_555
Na3 O63 2.366897 1_555
Na3 O6 2.415652 1_555
Na3 O42 2.457355 1_565
Na3 O44 2.506445 1_555
Na3 O64 2.601652 1_555
Na3 O13 2.709143 1_565
Na3 O27 2.857709 1_555
Na3 O23 2.939189 1_565
Na4 O45 2.413078 1_555
Na4 O60 2.416480 1_555
Na4 O19 2.423840 1_555
Na4 O62 2.515506 1_555
Na4 O24 2.607118 1_554
Na4 O46 2.615673 1_565
Na4 O17 2.856645 1_555
Na4 O9 2.890715 1_555
Na5 O21 2.364196 1_555
Na5 O58 2.425330 1_555
Na5 O38 2.444650 1_555
Na5 O36 2.460850 1_545
Na5 O57 2.469262 1_555
Na5 O0 2.683163 1_555
Na5 O29 2.883385 1_545
Na5 O31 2.963865 1_545
Na6 O43 2.433209 1_555
Na6 O38 2.458855 1_555
Na6 O36 2.509085 1_545
Na6 O44 2.621483 1_445
Na6 O42 2.646554 1_455
Na6 O37 2.662780 1_445
Na7 O45 2.462116 1_455
Na7 O40 2.481297 1_554
Na7 O47 2.577395 1_565
Na7 O41 2.659416 1_454
Na7 O39 2.683735 1_564
Na7 O46 2.699187 1_465
Na8 O54 2.352303 1_555
Na8 O56 2.374566 1_555
Na8 O55 2.376220 1_555
Na8 O48 2.680046 1_555
Na8 O50 2.756060 1_555
Na8 O49 2.825221 1_555
Na9 O52 2.450224 1_555
Na9 O51 2.486953 1_555
Na9 O58 2.547834 1_555
Na9 O53 2.551316 1_555
Na9 O57 2.583072 1_555
Na9 O59 2.658527 1_555
Na10 O61 2.464137 1_555
Na10 O68 2.495956 1_555
Na10 O66 2.575670 1_555
Na10 O62 2.655696 1_555
Na10 O60 2.667429 1_555
Na10 O67 2.682949 1_555
Na11 O71 2.342313 1_555
Na11 O63 2.542280 1_555
Na11 O64 2.588000 1_555
Na11 O69 2.605323 1_555
Na11 O70 2.648143 1_555
Na11 O65 2.745128 1_555
O0 S0 1.494178 1_555
O0 Zn0 2.163244 1_455
O1 S1 1.488483 1_555
O1 Zn0 2.037167 1_565
O2 S2 1.474819 1_555
O2 Zn0 2.012243 1_555
O3 S3 1.485663 1_555
O3 Sc0 2.185934 1_445
O4 S4 1.477710 1_555
O4 Sc0 2.151442 1_555
O5 Si0 1.647229 1_545
O5 Sc0 1.907188 1_545
O6 Si0 1.632080 1_555
O6 Sc1 2.033286 1_555
O7 S3 1.487698 1_555
O7 Sc1 2.123245 1_445
O8 S4 1.486893 1_455
O8 Sc1 2.104878 1_455
O9 S1 1.504427 1_555
O9 Sc2 2.136740 1_665
O10 S2 1.484118 1_455
O10 Sc2 2.136035 1_555
O11 S0 1.502500 1_565
O11 Sc2 2.088402 1_565
O12 S5 1.495868 1_555
O12 Sc3 2.150212 1_555
O13 Si1 1.663679 1_555
O13 Sc3 1.926191 1_555
O14 S6 1.475155 1_555
O14 Sc3 2.153089 1_555
O15 Si2 1.624199 1_555
O15 Zn1 1.916505 1_555
O16 S7 1.472488 1_555
O16 Zn1 2.037468 1_555
O17 S8 1.478734 1_555
O17 Zn1 2.085874 1_555
O18 S8 1.465974 1_555
O18 Zn2 2.138429 1_554
O19 Si2 1.616857 1_555
O19 Zn2 1.890736 1_554
O20 S7 1.462733 1_555
O20 Zn2 2.094100 1_554
O21 Si1 1.619968 1_555
O21 Zn3 1.923978 1_555
O22 S6 1.462995 1_555
O22 Zn3 2.044529 1_555
O23 S5 1.465904 1_555
O23 Zn3 2.124208 1_555
O24 S9 1.483838 1_555
O24 Sc4 2.258646 1_556
O25 S10 1.481376 1_555
O25 Sc4 2.072079 1_556
O26 S11 1.486603 1_555
O26 Sc4 2.082813 1_556
O27 S12 1.510423 1_555
O27 Sc5 2.117482 1_555
O28 S13 1.487886 1_555
O28 Sc5 2.142563 1_555
O29 S14 1.510787 1_555
O29 Sc5 2.061645 1_555
O30 S14 1.483626 1_555
O30 Zn4 2.188524 1_555
O31 S12 1.481198 1_555
O31 Zn4 2.060364 1_555
O32 S13 1.466890 1_555
O32 Zn4 2.022665 1_555
O33 S10 1.492884 1_555
O33 Zn5 2.212133 1_555
O34 S11 1.499526 1_555
O34 Zn5 2.096204 1_555
O35 S9 1.478514 1_555
O35 Zn5 1.969949 1_555
O36 S14 1.501965 1_555
O36 Zn0 2.261944 1_465
O37 S12 1.479721 1_555
O37 Zn0 2.146929 1_565
O38 S13 1.506702 1_555
O38 Zn0 2.220656 1_455
O39 S10 1.503765 1_555
O39 Sc0 2.123490 1_445
O40 S11 1.494732 1_555
O40 Sc0 2.240565 1_455
O41 S9 1.510942 1_555
O41 Sc0 2.102045 1_555
O42 S5 1.495881 1_555
O42 Sc1 2.190365 1_545
O43 Si1 1.625721 1_555
O43 Sc1 1.988111 1_445
O44 S6 1.496314 1_555
O44 Sc1 2.161176 1_555
O45 Si2 1.680162 1_555
O45 Sc2 1.946829 1_665
O46 S7 1.502324 1_555
O46 Sc2 2.175622 1_655
O47 S8 1.488321 1_555
O47 Sc2 2.121480 1_555
O48 Si0 1.680849 1_545
O48 Sc3 2.026459 1_555
O49 S3 1.487896 1_555
O49 Sc3 2.183468 1_555
O50 S4 1.480796 1_555
O50 Sc3 2.269219 1_555
O51 S1 1.485148 1_555
O51 Zn1 2.414227 1_555
O52 S2 1.489635 1_555
O52 Zn1 2.336156 1_555
O53 S0 1.469574 1_555
O53 Zn1 2.309404 1_555
O54 S9 1.471038 1_555
O54 Zn2 2.211276 1_555
O55 S10 1.473326 1_655
O55 Zn2 2.298094 1_555
O56 S11 1.471605 1_545
O56 Zn2 2.309557 1_555
O57 S12 1.491160 1_545
O57 Zn3 2.305473 1_555
O58 S13 1.497168 1_555
O58 Zn3 2.230361 1_555
O59 S14 1.472536 1_655
O59 Zn3 2.238138 1_555
O60 S8 1.510343 1_555
O60 Sc4 2.186501 1_555
O61 Si2 1.646859 1_455
O61 Sc4 1.908324 1_555
O62 S7 1.509669 1_565
O62 Sc4 2.157980 1_555
O63 Si1 1.673696 1_565
O63 Sc5 1.976036 1_555
O64 S6 1.499176 1_555
O64 Sc5 2.206046 1_555
O65 S5 1.478328 1_455
O65 Sc5 2.145833 1_555
O66 S0 1.503938 1_565
O66 Zn4 2.216615 1_555
O67 S1 1.481745 1_555
O67 Zn4 2.112292 1_555
O68 S2 1.508162 1_455
O68 Zn4 2.179747 1_555
O69 S3 1.473541 1_555
O69 Zn5 2.317856 1_555
O70 S4 1.488770 1_455
O70 Zn5 2.409619 1_555
O71 Si0 1.632267 1_555
O71 Zn5 1.972786 1_555
