# generated using pymatgen
data_MgFe2(CoO4)2
_symmetry_space_group_name_H-M   'P 1'
_cell_length_a   4.82357821
_cell_length_b   5.93490441
_cell_length_c   4.89485918
_cell_angle_alpha   89.83398025
_cell_angle_beta   77.92607545
_cell_angle_gamma   89.83793056
_symmetry_Int_Tables_number   1
_chemical_formula_structural   MgFe2(CoO4)2
_chemical_formula_sum   'Mg1 Fe2 Co2 O8'
_cell_volume   137.02670769
_cell_formula_units_Z   1
loop_
 _symmetry_equiv_pos_site_id
 _symmetry_equiv_pos_as_xyz
  1  'x, y, z'
loop_
 _atom_site_type_symbol
 _atom_site_label
 _atom_site_symmetry_multiplicity
 _atom_site_fract_x
 _atom_site_fract_y
 _atom_site_fract_z
 _atom_site_occupancy
  Mg  Mg0  1  0.24839894  0.92486734  0.49861290  1
  Fe  Fe0  1  0.25031252  0.63630977  -0.00004642  1
  Fe  Fe1  1  0.74927784  0.06707658  -0.00102186  1
  Co  Co0  1  0.25090834  0.39332170  0.50038138  1
  Co  Co1  1  0.74975095  0.64856483  0.50068987  1
  O  O0  1  0.04898162  0.17142511  0.72971578  1
  O  O1  1  0.03658448  0.63924852  0.70356398  1
  O  O2  1  0.46432584  0.63926614  0.29675623  1
  O  O3  1  0.45081939  0.17186344  0.27043794  1
  O  O4  1  0.54033275  0.86260574  0.76726033  1
  O  O5  1  0.51218520  0.43123841  0.72579157  1
  O  O6  1  0.98874598  0.43236717  0.27576244  1
  O  O7  1  0.95937615  0.86279723  0.23209584  1
loop_
_geom_bond_atom_site_label_1
_geom_bond_atom_site_label_2
_geom_bond_distance
_geom_bond_site_symmetry_2
Mg0 O3 1.972821 1_565
Mg0 O0 1.972959 1_565
Mg0 O1 2.120113 1_555
Mg0 O2 2.122108 1_555
Mg0 O7 2.132538 1_455
Mg0 O4 2.148855 1_555
Fe0 O1 1.947656 1_554
Fe0 O2 1.950458 1_555
Fe0 O6 2.041098 1_455
Fe0 O5 2.041909 1_554
Fe0 O4 2.096017 1_554
Fe0 O7 2.097256 1_455
Fe1 O0 1.847641 1_654
Fe1 O3 1.850505 1_555
Fe1 O7 2.065856 1_545
Fe1 O4 2.065914 1_544
Co0 O6 1.854773 1_455
Co0 O5 1.855027 1_555
Co0 O3 1.863200 1_555
Co0 O0 1.866662 1_555
Co0 O2 1.937680 1_555
Co0 O1 1.938537 1_555
Co1 O2 1.862980 1_555
Co1 O1 1.864796 1_655
Co1 O6 1.912162 1_555
Co1 O5 1.913820 1_555
Co1 O4 1.946174 1_555
Co1 O7 1.951654 1_555
