# generated using pymatgen
data_MgMn4O7F
_symmetry_space_group_name_H-M   'P 1'
_cell_length_a   5.20769002
_cell_length_b   6.15908677
_cell_length_c   5.05222734
_cell_angle_alpha   89.96261681
_cell_angle_beta   71.42012815
_cell_angle_gamma   89.00777460
_symmetry_Int_Tables_number   1
_chemical_formula_structural   MgMn4O7F
_chemical_formula_sum   'Mg1 Mn4 O7 F1'
_cell_volume   153.57730036
_cell_formula_units_Z   1
loop_
 _symmetry_equiv_pos_site_id
 _symmetry_equiv_pos_as_xyz
  1  'x, y, z'
loop_
 _atom_site_type_symbol
 _atom_site_label
 _atom_site_symmetry_multiplicity
 _atom_site_fract_x
 _atom_site_fract_y
 _atom_site_fract_z
 _atom_site_occupancy
  Mg  Mg0  1  0.50269076  0.09194464  0.26702937  1
  Mn  Mn0  1  0.90520765  0.85233005  0.60387695  1
  Mn  Mn1  1  0.00850674  0.35396178  0.24880533  1
  Mn  Mn2  1  0.50751564  0.35662290  0.76973705  1
  Mn  Mn3  1  0.49346897  0.59747160  0.27134258  1
  O  O0  1  0.27101211  0.15639929  0.01111559  1
  O  O1  1  0.30441421  0.83467657  0.46794193  1
  O  O2  1  0.30021803  0.37469012  0.50098502  1
  O  O3  1  0.27397810  0.56720866  0.03269636  1
  O  O4  1  0.71522378  0.36691885  0.02934547  1
  O  O5  1  0.74360056  0.57140489  0.49309682  1
  O  O6  1  0.75866357  0.14510014  0.50386013  1
  F  F0  1  0.72939088  0.83841650  0.03766940  1
loop_
_geom_bond_atom_site_label_1
_geom_bond_atom_site_label_2
_geom_bond_distance
_geom_bond_site_symmetry_2
Mg0 O1 1.998483 1_545
Mg0 O0 2.064403 1_555
Mg0 O6 2.085151 1_555
Mg0 O2 2.164820 1_555
Mg0 O4 2.179580 1_555
Mn0 O1 1.971779 1_655
Mn0 O6 2.070303 1_565
Mn0 O5 2.089770 1_555
Mn1 O0 1.920849 1_555
Mn1 O3 1.981800 1_555
Mn1 O6 1.998889 1_455
Mn1 O5 2.018213 1_455
Mn1 O4 2.154822 1_455
Mn1 O2 2.277646 1_555
Mn2 O0 1.902203 1_556
Mn2 O4 1.949596 1_556
Mn2 O3 1.960699 1_556
Mn2 O2 1.987745 1_555
Mn2 O6 2.008965 1_555
Mn2 O5 2.042998 1_555
Mn3 O1 1.849112 1_555
Mn3 O2 1.882371 1_555
Mn3 O3 1.918565 1_555
Mn3 O4 1.972447 1_555
Mn3 O5 1.974910 1_555
F0 Mg0 2.059506 1_565
F0 Mn3 2.059620 1_555
F0 Mn0 2.091074 1_554
