# generated using pymatgen
data_MgMo(WO4)2
_symmetry_space_group_name_H-M   'P 1'
_cell_length_a   5.07236324
_cell_length_b   6.63864485
_cell_length_c   6.54684875
_cell_angle_alpha   106.94070534
_cell_angle_beta   123.26126785
_cell_angle_gamma   91.71923400
_symmetry_Int_Tables_number   1
_chemical_formula_structural   MgMo(WO4)2
_chemical_formula_sum   'Mg1 Mo1 W2 O8'
_cell_volume   171.30465540
_cell_formula_units_Z   1
loop_
 _symmetry_equiv_pos_site_id
 _symmetry_equiv_pos_as_xyz
  1  'x, y, z'
loop_
 _atom_site_type_symbol
 _atom_site_label
 _atom_site_symmetry_multiplicity
 _atom_site_fract_x
 _atom_site_fract_y
 _atom_site_fract_z
 _atom_site_occupancy
  Mg  Mg0  1  0.60471800  0.86628900  0.09628100  1
  Mo  Mo0  1  0.12489000  0.22718400  0.09839200  1
  W  W0  1  0.89551100  0.39273600  0.61029400  1
  W  W1  1  0.35157600  0.06159200  0.58453900  1
  O  O0  1  0.20239700  0.64007000  0.84128900  1
  O  O1  1  0.56631900  0.48275700  0.37106600  1
  O  O2  1  0.18018900  0.18570000  0.79290200  1
  O  O3  1  0.50589300  0.07614000  0.34002700  1
  O  O4  1  0.68482500  0.97907100  0.87453000  1
  O  O5  1  0.03927000  0.81770000  0.33273600  1
  O  O6  1  0.06974800  0.26786300  0.40989000  1
  O  O7  1  0.74632200  0.35667600  0.81758500  1
loop_
_geom_bond_atom_site_label_1
_geom_bond_atom_site_label_2
_geom_bond_distance
_geom_bond_site_symmetry_2
Mg0 O0 1.955739 1_554
Mg0 O5 1.987401 1_655
Mg0 O4 2.023755 1_554
Mg0 O3 2.088626 1_565
Mo0 O2 2.110337 1_554
Mo0 O6 2.149255 1_555
Mo0 O4 2.151201 1_444
Mo0 O1 2.168275 1_555
Mo0 O3 2.220374 1_555
Mo0 O7 2.225707 1_454
O0 W0 1.795413 1_455
O1 W0 1.826185 1_555
O2 W1 1.996049 1_555
O2 W0 2.141606 1_455
O3 W1 2.155121 1_555
O3 W0 2.280726 1_555
O4 W1 1.975677 1_565
O5 W1 1.809604 1_565
O6 W0 1.967675 1_455
O6 W1 2.112592 1_555
O7 W0 1.943361 1_555
O7 W1 2.201449 1_555
