# generated using pymatgen
data_Na3MgSn(PO4)3
_symmetry_space_group_name_H-M   'P 1'
_cell_length_a   15.49801900
_cell_length_b   8.96406487
_cell_length_c   8.93755480
_cell_angle_alpha   90.00000000
_cell_angle_beta   124.76570655
_cell_angle_gamma   90.00000000
_symmetry_Int_Tables_number   1
_chemical_formula_structural   Na3MgSn(PO4)3
_chemical_formula_sum   'Na12 Mg4 Sn4 P12 O48'
_cell_volume   1020.00552460
_cell_formula_units_Z   4
loop_
 _symmetry_equiv_pos_site_id
 _symmetry_equiv_pos_as_xyz
  1  'x, y, z'
loop_
 _atom_site_type_symbol
 _atom_site_label
 _atom_site_symmetry_multiplicity
 _atom_site_fract_x
 _atom_site_fract_y
 _atom_site_fract_z
 _atom_site_occupancy
  Na  Na0  1  0.25260371  0.72392673  0.98889232  1
  Na  Na1  1  0.75260371  0.77607327  0.48889232  1
  Na  Na2  1  0.75260371  0.22392673  0.98889232  1
  Na  Na3  1  0.25260371  0.27607327  0.48889232  1
  Na  Na4  1  0.50334608  0.11341063  0.74860005  1
  Na  Na5  1  0.50334608  0.88658937  0.24860005  1
  Na  Na6  1  0.00334608  0.61341063  0.74860005  1
  Na  Na7  1  0.00334608  0.38658937  0.24860005  1
  Na  Na8  1  0.18362645  0.94184357  0.28426146  1
  Na  Na9  1  0.18362645  0.05815643  0.78426146  1
  Na  Na10  1  0.68362645  0.44184357  0.28426146  1
  Na  Na11  1  0.68362645  0.55815643  0.78426146  1
  Mg  Mg0  1  0.10267214  0.75045656  0.56059121  1
  Mg  Mg1  1  0.10267214  0.24954344  0.06059121  1
  Mg  Mg2  1  0.60267214  0.25045656  0.56059121  1
  Mg  Mg3  1  0.60267214  0.74954344  0.06059121  1
  Sn  Sn0  1  0.89751679  0.75650011  0.94831573  1
  Sn  Sn1  1  0.89751679  0.24349989  0.44831573  1
  Sn  Sn2  1  0.39751679  0.25650011  0.94831573  1
  Sn  Sn3  1  0.39751679  0.74349989  0.44831573  1
  P  P0  1  -0.00001321  0.95182725  0.75949046  1
  P  P1  1  -0.00001321  0.04817275  0.25949046  1
  P  P2  1  0.49998679  0.45182725  0.75949046  1
  P  P3  1  0.49998679  0.54817275  0.25949046  1
  P  P4  1  0.35396602  0.90018902  0.76328248  1
  P  P5  1  0.64705575  0.89170217  0.74891408  1
  P  P6  1  0.64705575  0.10829783  0.24891408  1
  P  P7  1  0.35396602  0.09981098  0.26328248  1
  P  P8  1  0.85396602  0.40018902  0.76328248  1
  P  P9  1  0.14705575  0.39170217  0.74891408  1
  P  P10  1  0.14705575  0.60829783  0.24891408  1
  P  P11  1  0.85396602  0.59981098  0.26328248  1
  O  O0  1  0.15261530  0.56160548  0.74150563  1
  O  O1  1  0.84669050  0.57760219  0.75846747  1
  O  O2  1  0.84669050  0.42239781  0.25846747  1
  O  O3  1  0.15261530  0.43839452  0.24150563  1
  O  O4  1  0.65261530  0.06160548  0.74150563  1
  O  O5  1  0.34669050  0.07760219  0.75846747  1
  O  O6  1  0.34669050  0.92239781  0.25846747  1
  O  O7  1  0.65261530  0.93839452  0.24150563  1
  O  O8  1  0.43205021  0.54688917  0.58111204  1
  O  O9  1  0.56252195  0.54708243  0.92881413  1
  O  O10  1  0.56252195  0.45291757  0.42881413  1
  O  O11  1  0.43205021  0.45311083  0.08111204  1
  O  O12  1  0.93205021  0.04688917  0.58111204  1
  O  O13  1  0.06252195  0.04708243  0.92881413  1
  O  O14  1  0.06252195  0.95291757  0.42881413  1
  O  O15  1  0.93205021  0.95311083  0.08111204  1
  O  O16  1  0.25679218  0.83953504  0.74761394  1
  O  O17  1  0.73984933  0.81273362  0.75416974  1
  O  O18  1  0.73984933  0.18726638  0.25416974  1
  O  O19  1  0.25679218  0.16046496  0.24761394  1
  O  O20  1  0.75679218  0.33953504  0.74761394  1
  O  O21  1  0.23984933  0.31273362  0.75416974  1
  O  O22  1  0.23984933  0.68726638  0.25416974  1
  O  O23  1  0.75679218  0.66046496  0.24761394  1
  O  O24  1  0.35002169  0.87052133  0.58384784  1
  O  O25  1  0.64245821  0.84068164  0.90520062  1
  O  O26  1  0.64245821  0.15931836  0.40520062  1
  O  O27  1  0.35002169  0.12947867  0.08384784  1
  O  O28  1  0.85002169  0.37052133  0.58384784  1
  O  O29  1  0.14245821  0.34068164  0.90520062  1
  O  O30  1  0.14245821  0.65931836  0.40520062  1
  O  O31  1  0.85002169  0.62947867  0.08384784  1
  O  O32  1  0.45616502  0.84781321  0.93272009  1
  O  O33  1  0.54772197  0.82912114  0.56261598  1
  O  O34  1  0.54772197  0.17087886  0.06261598  1
  O  O35  1  0.45616502  0.15218679  0.43272009  1
  O  O36  1  0.95616502  0.34781321  0.93272009  1
  O  O37  1  0.04772197  0.32912114  0.56261598  1
  O  O38  1  0.04772197  0.67087886  0.06261598  1
  O  O39  1  0.95616502  0.65218679  0.43272009  1
  O  O40  1  0.07597450  0.84960682  0.74720629  1
  O  O41  1  0.91636540  0.84780180  0.75437842  1
  O  O42  1  0.91636540  0.15219820  0.25437842  1
  O  O43  1  0.07597450  0.15039318  0.24720629  1
  O  O44  1  0.57597450  0.34960682  0.74720629  1
  O  O45  1  0.41636540  0.34780180  0.75437842  1
  O  O46  1  0.41636540  0.65219820  0.25437842  1
  O  O47  1  0.57597450  0.65039318  0.24720629  1
loop_
_geom_bond_atom_site_label_1
_geom_bond_atom_site_label_2
_geom_bond_distance
_geom_bond_site_symmetry_2
Na0 O0 2.345149 1_555
Na0 O46 2.370032 1_556
Na0 O16 2.426529 1_555
Na0 O22 2.510550 1_556
Na0 O40 2.585557 1_555
Na0 O6 2.662662 1_556
Na1 O7 2.345149 1_555
Na1 O41 2.370032 1_555
Na1 O23 2.426529 1_555
Na1 O17 2.510550 1_555
Na1 O47 2.585557 1_555
Na1 O1 2.662662 1_555
Na2 O4 2.345149 1_555
Na2 O42 2.370032 1_556
Na2 O20 2.426529 1_555
Na2 O18 2.510550 1_556
Na2 O44 2.585557 1_555
Na2 O2 2.662662 1_556
Na3 O3 2.345149 1_555
Na3 O45 2.370032 1_555
Na3 O19 2.426529 1_555
Na3 O21 2.510550 1_555
Na3 O43 2.585557 1_555
Na3 O5 2.662662 1_555
Na4 O4 2.395553 1_555
Na4 O44 2.401245 1_555
Na4 O5 2.499891 1_555
Na4 O35 2.504324 1_555
Na4 O45 2.512738 1_555
Na4 O34 2.532540 1_556
Na5 O7 2.395553 1_555
Na5 O47 2.401245 1_555
Na5 O6 2.499891 1_555
Na5 O32 2.504324 1_554
Na5 O46 2.512738 1_555
Na5 O33 2.532540 1_555
Na6 O0 2.395553 1_555
Na6 O40 2.401245 1_555
Na6 O1 2.499891 1_455
Na6 O39 2.504324 1_455
Na6 O41 2.512738 1_455
Na6 O38 2.532540 1_556
Na7 O3 2.395553 1_555
Na7 O43 2.401245 1_555
Na7 O2 2.499891 1_455
Na7 O36 2.504324 1_454
Na7 O42 2.512738 1_455
Na7 O37 2.532540 1_555
Na8 O19 2.378486 1_565
Na8 O43 2.399567 1_565
Na8 O22 2.511287 1_555
Na8 O24 2.520647 1_555
Na8 O6 2.671057 1_555
Na8 O13 2.775777 1_564
Na8 O14 2.822595 1_555
Na9 O16 2.378486 1_545
Na9 O40 2.399567 1_545
Na9 O21 2.511287 1_555
Na9 O27 2.520647 1_556
Na9 O5 2.671057 1_555
Na9 O14 2.775777 1_545
Na9 O13 2.822595 1_555
Na10 O23 2.378486 1_555
Na10 O47 2.399567 1_555
Na10 O18 2.511287 1_555
Na10 O28 2.520647 1_555
Na10 O2 2.671057 1_555
Na10 O9 2.775777 1_554
Na10 O10 2.822595 1_555
Na11 O20 2.378486 1_555
Na11 O44 2.399567 1_555
Na11 O17 2.511287 1_555
Na11 O31 2.520647 1_556
Na11 O1 2.671057 1_555
Na11 O10 2.775777 1_555
Na11 O9 2.822595 1_555
Mg0 O30 1.988229 1_555
Mg0 O14 2.057256 1_555
Mg0 O39 2.068383 1_455
Mg0 O40 2.128380 1_555
Mg0 O16 2.140922 1_555
Mg0 O0 2.156870 1_555
Mg1 O29 1.988229 1_554
Mg1 O13 2.057256 1_554
Mg1 O36 2.068383 1_454
Mg1 O43 2.128380 1_555
Mg1 O19 2.140922 1_555
Mg1 O3 2.156870 1_555
Mg2 O26 1.988229 1_555
Mg2 O10 2.057256 1_555
Mg2 O35 2.068383 1_555
Mg2 O44 2.128380 1_555
Mg2 O20 2.140922 1_555
Mg2 O4 2.156870 1_555
Mg3 O25 1.988229 1_554
Mg3 O9 2.057256 1_554
Mg3 O32 2.068383 1_554
Mg3 O47 2.128380 1_555
Mg3 O23 2.140922 1_555
Mg3 O7 2.156870 1_555
O0 P9 1.529025 1_555
O1 P8 1.593180 1_555
O1 Sn0 2.132362 1_555
O2 P11 1.593180 1_555
O2 Sn1 2.132362 1_555
O3 P10 1.529025 1_555
O4 P5 1.529025 1_545
O5 P4 1.593180 1_545
O5 Sn2 2.132362 1_555
O6 P7 1.593180 1_565
O6 Sn3 2.132362 1_555
O7 P6 1.529025 1_565
O8 P2 1.569099 1_555
O8 Sn3 2.019120 1_555
O9 P2 1.511925 1_555
O10 P3 1.511925 1_555
O11 P3 1.569099 1_555
O11 Sn2 2.019120 1_554
O12 P0 1.569099 1_645
O12 Sn1 2.019120 1_555
O13 P0 1.511925 1_545
O14 P1 1.511925 1_565
O15 P1 1.569099 1_665
O15 Sn0 2.019120 1_554
O16 P4 1.530605 1_555
O17 P5 1.579379 1_555
O17 Sn0 2.097704 1_555
O18 P6 1.579379 1_555
O18 Sn1 2.097704 1_555
O19 P7 1.530605 1_555
O20 P8 1.530605 1_555
O21 P9 1.579379 1_555
O21 Sn2 2.097704 1_555
O22 P10 1.579379 1_555
O22 Sn3 2.097704 1_555
O23 P11 1.530605 1_555
O24 P4 1.592023 1_555
O24 Sn3 2.079052 1_555
O25 P5 1.509588 1_555
O26 P6 1.509588 1_555
O27 P7 1.592023 1_555
O27 Sn2 2.079052 1_554
O28 P8 1.592023 1_555
O28 Sn1 2.079052 1_555
O29 P9 1.509588 1_555
O30 P10 1.509588 1_555
O31 P11 1.592023 1_555
O31 Sn0 2.079052 1_554
O32 P4 1.512271 1_555
O33 P5 1.591783 1_555
O33 Sn3 2.083180 1_555
O34 P6 1.591783 1_555
O34 Sn2 2.083180 1_554
O35 P7 1.512271 1_555
O36 P8 1.512271 1_555
O37 P9 1.591783 1_555
O37 Sn1 2.083180 1_455
O38 P10 1.591783 1_555
O38 Sn0 2.083180 1_454
O39 P11 1.512271 1_555
O40 P0 1.544673 1_555
O41 P0 1.575953 1_655
O41 Sn0 2.082553 1_555
O42 P1 1.575953 1_655
O42 Sn1 2.082553 1_555
O43 P1 1.544673 1_555
O44 P2 1.544673 1_555
O45 P2 1.575953 1_555
O45 Sn2 2.082553 1_555
O46 P3 1.575953 1_555
O46 Sn3 2.082553 1_555
O47 P3 1.544673 1_555
