# generated using pymatgen
data_Na3Al2Ga2P3(SO8)3
_symmetry_space_group_name_H-M   'P 1'
_cell_length_a   8.48376762
_cell_length_b   8.48245559
_cell_length_c   21.89748438
_cell_angle_alpha   89.09362309
_cell_angle_beta   90.80389982
_cell_angle_gamma   120.09155168
_symmetry_Int_Tables_number   1
_chemical_formula_structural   Na3Al2Ga2P3(SO8)3
_chemical_formula_sum   'Na9 Al6 Ga6 P9 S9 O72'
_cell_volume   1363.22859640
_cell_formula_units_Z   3
loop_
 _symmetry_equiv_pos_site_id
 _symmetry_equiv_pos_as_xyz
  1  'x, y, z'
loop_
 _atom_site_type_symbol
 _atom_site_label
 _atom_site_symmetry_multiplicity
 _atom_site_fract_x
 _atom_site_fract_y
 _atom_site_fract_z
 _atom_site_occupancy
  Na  Na0  1  0.36137602  0.36165135  0.25104060  1
  Na  Na1  1  0.69462837  0.02836646  0.91661937  1
  Na  Na2  1  0.97097529  0.30475270  0.41679972  1
  Na  Na3  1  0.00305011  0.99772608  0.50057176  1
  Na  Na4  1  0.00185854  0.99626101  0.00045658  1
  Na  Na5  1  0.66318525  0.33541648  0.83280453  1
  Na  Na6  1  0.66660361  0.33334596  0.33344548  1
  Na  Na7  1  0.33220382  0.67478994  0.16615853  1
  Na  Na8  1  0.33343854  0.66672899  0.66681412  1
  Al  Al0  1  0.99708350  0.99209035  0.85199582  1
  Al  Al1  1  0.99109995  0.00567694  0.64864064  1
  Al  Al2  1  0.67562017  0.32731492  0.68534772  1
  Al  Al3  1  0.34577898  0.68193896  0.01776752  1
  Al  Al4  1  0.31878250  0.65436357  0.51876057  1
  Al  Al5  1  0.34891742  0.68028097  0.81515396  1
  Ga  Ga0  1  0.01407012  0.00299343  0.35165423  1
  Ga  Ga1  1  0.99904916  0.00482578  0.14877197  1
  Ga  Ga2  1  0.66892438  0.31741239  0.18477763  1
  Ga  Ga3  1  0.66004397  0.33139219  0.98122062  1
  Ga  Ga4  1  0.66902090  0.34060428  0.48245120  1
  Ga  Ga5  1  0.32004844  0.66419415  0.31571578  1
  P  P0  1  0.28943856  0.99574941  0.24887236  1
  P  P1  1  0.99660388  0.28903837  0.25053293  1
  P  P2  1  0.71171147  -0.00019774  0.75007209  1
  P  P3  1  0.95742176  0.33345819  0.58409367  1
  P  P4  1  0.66570787  0.03950133  0.08248261  1
  P  P5  1  0.62024466  0.66309361  0.91651882  1
  P  P6  1  0.32541693  0.95153429  0.91573641  1
  P  P7  1  0.33902222  0.38074111  0.41761791  1
  P  P8  1  0.04491839  0.67166477  0.41793623  1
  S  S0  1  0.71114927  0.71112218  0.25018646  1
  S  S1  1  0.28864214  0.28891865  0.74985623  1
  S  S2  1  0.00035063  0.71189386  0.74935845  1
  S  S3  1  0.37537646  0.04214024  0.58421678  1
  S  S4  1  0.66653368  0.62419087  0.58481751  1
  S  S5  1  0.95934246  0.62347980  0.08297504  1
  S  S6  1  0.37524211  0.33657122  0.08320349  1
  S  S7  1  0.05253850  0.38378077  0.91605735  1
  S  S8  1  0.61783364  0.95048802  0.41786007  1
  O  O0  1  0.21374591  0.04091177  0.30543470  1
  O  O1  1  0.82203288  0.78785696  0.30557599  1
  O  O2  1  0.96175761  0.17272706  0.30925507  1
  O  O3  1  0.20718817  0.17299826  0.80513132  1
  O  O4  1  0.96826254  0.79227412  0.80432648  1
  O  O5  1  0.83136395  0.03382517  0.80845035  1
  O  O6  1  0.79842845  0.96630126  0.69444267  1
  O  O7  1  0.17521224  0.20591467  0.69472431  1
  O  O8  1  0.03345302  0.82789242  0.69441330  1
  O  O9  1  0.78743091  0.82163789  0.19420893  1
  O  O10  1  0.03988519  0.20999909  0.19446384  1
  O  O11  1  0.17053891  0.96261939  0.19170499  1
  O  O12  1  0.86810535  0.36750252  0.63906586  1
  O  O13  1  0.49162907  0.12732701  0.63883941  1
  O  O14  1  0.63291659  0.50538555  0.63924742  1
  O  O15  1  0.87925600  0.51214853  0.13869465  1
  O  O16  1  0.62793972  0.12015479  0.13840899  1
  O  O17  1  0.48774906  0.37152369  0.13947515  1
  O  O18  1  0.45520820  0.30158792  0.02910539  1
  O  O19  1  0.84367474  0.54484674  0.02772298  1
  O  O20  1  0.70385824  0.15973311  0.02410535  1
  O  O21  1  0.45140215  0.15570883  0.52841376  1
  O  O22  1  0.70173239  0.54949257  0.52931920  1
  O  O23  1  0.84044365  0.29514468  0.52497319  1
  O  O24  1  0.53765670  0.70231997  0.97272919  1
  O  O25  1  0.16129747  0.46177620  0.97210430  1
  O  O26  1  0.29538402  0.83483670  0.97328182  1
  O  O27  1  0.53588397  0.83843559  0.47299219  1
  O  O28  1  0.30099635  0.46715982  0.47259230  1
  O  O29  1  0.16560538  0.70280803  0.47403236  1
  O  O30  1  0.11899025  0.62572220  0.36112133  1
  O  O31  1  0.51063212  0.87670314  0.36136009  1
  O  O32  1  0.37199762  0.49280724  0.35786296  1
  O  O33  1  0.13148399  0.49505185  0.86061309  1
  O  O34  1  0.36688524  0.86876223  0.86026159  1
  O  O35  1  0.50143763  0.63091401  0.85973717  1
  O  O36  1  0.02111873  0.83815173  0.41044051  1
  O  O37  1  0.80310199  0.97396017  0.41210601  1
  O  O38  1  0.16179118  0.19222659  0.41176155  1
  O  O39  1  0.02695512  0.19638107  0.90963551  1
  O  O40  1  0.15937617  0.97673232  0.90627900  1
  O  O41  1  0.81088326  0.83870164  0.90807198  1
  O  O42  1  0.97841951  0.16303333  0.59276057  1
  O  O43  1  0.19203453  0.02150232  0.59270133  1
  O  O44  1  0.83244280  0.80624974  0.59251221  1
  O  O45  1  0.97742197  0.80585531  0.08916841  1
  O  O46  1  0.83767454  0.02131021  0.09003237  1
  O  O47  1  0.19458018  0.17026814  0.08907754  1
  O  O48  1  0.69030546  0.17062794  0.74140642  1
  O  O49  1  0.47245585  0.30951451  0.74167783  1
  O  O50  1  0.83408017  0.52934195  0.74193942  1
  O  O51  1  0.68830022  0.52632339  0.24329689  1
  O  O52  1  0.83049464  0.31308562  0.24410451  1
  O  O53  1  0.47733789  0.17434397  0.24267603  1
  O  O54  1  0.64492691  0.49613143  0.92434729  1
  O  O55  1  0.86541451  0.35846926  0.92163751  1
  O  O56  1  0.50220795  0.14169022  0.92275767  1
  O  O57  1  0.64185403  0.13689399  0.42304660  1
  O  O58  1  0.50515655  0.35556116  0.42495889  1
  O  O59  1  0.85537090  0.49535933  0.42412128  1
  O  O60  1  0.35526392  0.49900876  0.07459959  1
  O  O61  1  0.13980777  0.63842397  0.07533479  1
  O  O62  1  0.49448316  0.85011801  0.07483330  1
  O  O63  1  0.36126388  0.86201574  0.57659678  1
  O  O64  1  0.50384755  0.64441666  0.57598235  1
  O  O65  1  0.14781263  0.50455520  0.57592900  1
  O  O66  1  0.31395742  0.83029552  0.25670614  1
  O  O67  1  0.52723784  0.68953035  0.25587491  1
  O  O68  1  0.17294110  0.47720497  0.25601764  1
  O  O69  1  0.30481681  0.47013063  0.75740024  1
  O  O70  1  0.16207708  0.68965198  0.75807889  1
  O  O71  1  0.52003241  0.82946004  0.75790858  1
loop_
_geom_bond_atom_site_label_1
_geom_bond_atom_site_label_2
_geom_bond_distance
_geom_bond_site_symmetry_2
Na0 O53 2.259963 1_555
Na0 O68 2.260050 1_555
Na0 O51 2.406921 1_555
Na0 O67 2.409808 1_555
Na0 O32 2.587141 1_555
Na0 O0 2.629019 1_555
Na0 O10 2.658190 1_555
Na0 O17 2.664903 1_555
Na1 O56 2.278330 1_555
Na1 O41 2.280775 1_545
Na1 O55 2.426696 1_555
Na1 O39 2.445282 1_655
Na1 O20 2.603441 1_556
Na1 O5 2.641590 1_555
Na1 O24 2.679023 1_545
Na1 O34 2.696079 1_545
Na2 O38 2.258687 1_655
Na2 O59 2.281312 1_555
Na2 O57 2.420801 1_555
Na2 O37 2.431033 1_545
Na2 O2 2.607023 1_555
Na2 O23 2.611674 1_555
Na2 O30 2.643024 1_655
Na2 O28 2.705353 1_655
Na3 O36 2.460090 1_555
Na3 O38 2.462018 1_565
Na3 O37 2.499602 1_455
Na3 O43 2.505800 1_565
Na3 O44 2.531234 1_455
Na3 O42 2.545630 1_465
Na4 O45 2.449774 1_455
Na4 O47 2.489841 1_565
Na4 O46 2.493866 1_465
Na4 O41 2.515138 1_454
Na4 O40 2.525125 1_554
Na4 O39 2.534692 1_564
Na5 O56 2.483554 1_555
Na5 O54 2.491512 1_555
Na5 O49 2.493011 1_555
Na5 O55 2.519443 1_555
Na5 O50 2.520471 1_555
Na5 O48 2.536986 1_555
Na6 O52 2.473184 1_555
Na6 O53 2.484265 1_555
Na6 O59 2.487159 1_555
Na6 O51 2.493192 1_555
Na6 O57 2.495560 1_555
Na6 O58 2.504991 1_555
Na7 O66 2.447728 1_555
Na7 O62 2.456905 1_555
Na7 O61 2.477533 1_555
Na7 O68 2.491157 1_555
Na7 O67 2.514363 1_555
Na7 O60 2.584431 1_555
Na8 O65 2.481818 1_555
Na8 O71 2.489508 1_555
Na8 O63 2.493976 1_555
Na8 O69 2.505490 1_555
Na8 O64 2.539477 1_555
Na8 O70 2.553914 1_555
Al0 O40 1.858672 1_655
Al0 O5 1.860640 1_565
Al0 O41 1.907601 1_555
Al0 O4 1.911914 1_555
Al0 O3 1.960566 1_665
Al0 O39 2.068823 1_665
Al1 O6 1.810320 1_545
Al1 O42 1.838228 1_555
Al1 O7 1.921621 1_655
Al1 O8 1.973163 1_645
Al1 O44 1.979920 1_545
Al1 O43 2.061150 1_655
Al2 O12 1.813087 1_555
Al2 O48 1.843639 1_555
Al2 O13 1.925149 1_555
Al2 O14 1.980424 1_555
Al2 O50 1.997476 1_555
Al2 O49 2.075543 1_555
Al3 O26 1.821581 1_554
Al3 O62 1.842722 1_555
Al3 O24 1.846582 1_554
Al3 O25 2.005296 1_554
Al3 O60 2.006059 1_555
Al3 O61 2.044276 1_555
Al4 O29 1.817675 1_555
Al4 O28 1.836475 1_555
Al4 O65 1.854215 1_555
Al4 O27 1.988274 1_555
Al4 O64 2.028917 1_555
Al4 O63 2.063385 1_555
Al5 O35 1.815956 1_555
Al5 O34 1.832030 1_555
Al5 O71 1.854408 1_555
Al5 O33 1.989478 1_555
Al5 O70 2.036789 1_555
Al5 O69 2.075148 1_555
Ga0 O0 1.867852 1_555
Ga0 O36 1.908015 1_545
Ga0 O2 1.928406 1_455
Ga0 O38 1.970498 1_555
Ga0 O1 2.008326 1_445
Ga0 O37 2.151862 1_445
Ga1 O10 1.894928 1_655
Ga1 O11 1.897883 1_645
Ga1 O46 1.919684 1_555
Ga1 O9 1.957406 1_545
Ga1 O47 2.024413 1_655
Ga1 O45 2.082811 1_545
Ga2 O16 1.847156 1_555
Ga2 O52 1.888621 1_555
Ga2 O53 1.937311 1_555
Ga2 O15 1.993251 1_555
Ga2 O17 2.051230 1_555
Ga2 O51 2.140832 1_555
Ga3 O20 1.905230 1_556
Ga3 O54 1.907959 1_555
Ga3 O18 1.945625 1_556
Ga3 O56 1.969177 1_555
Ga3 O19 1.981798 1_556
Ga3 O55 2.108017 1_555
Ga4 O23 1.908847 1_555
Ga4 O58 1.912155 1_555
Ga4 O59 1.943345 1_555
Ga4 O22 1.956098 1_555
Ga4 O21 1.994976 1_555
Ga4 O57 2.096289 1_555
Ga5 O30 1.866473 1_555
Ga5 O66 1.915992 1_555
Ga5 O32 1.936007 1_555
Ga5 O68 1.953729 1_555
Ga5 O31 1.987873 1_555
Ga5 O67 2.128340 1_555
O0 P0 1.541817 1_545
O1 S0 1.469241 1_555
O2 P1 1.546705 1_555
O3 S1 1.487908 1_555
O4 S2 1.486295 1_655
O5 P2 1.558641 1_555
O6 P2 1.533493 1_565
O7 S1 1.481249 1_555
O8 S2 1.479717 1_555
O9 S0 1.475694 1_555
O10 P1 1.541851 1_455
O11 P0 1.534595 1_555
O12 P3 1.537075 1_555
O13 S3 1.484960 1_555
O14 S4 1.483517 1_555
O15 S5 1.478359 1_555
O16 P4 1.525715 1_555
O17 S6 1.487300 1_555
O18 S6 1.478903 1_555
O19 S5 1.485775 1_555
O20 P4 1.555096 1_555
O21 S3 1.482901 1_555
O22 S4 1.480480 1_555
O23 P3 1.555735 1_555
O24 P5 1.545186 1_555
O25 S7 1.475490 1_555
O26 P6 1.532733 1_555
O27 S8 1.472700 1_555
O28 P7 1.538347 1_555
O29 P8 1.526677 1_555
O30 P8 1.541885 1_555
O31 S8 1.473661 1_555
O32 P7 1.548636 1_555
O33 S7 1.471770 1_555
O34 P6 1.542411 1_555
O35 P5 1.528430 1_555
O36 P8 1.529620 1_555
O37 S8 1.488941 1_555
O38 P7 1.557024 1_555
O39 S7 1.501329 1_555
O40 P6 1.537922 1_555
O41 P5 1.566111 1_555
O42 P3 1.551186 1_555
O43 S3 1.489483 1_555
O44 S4 1.488733 1_555
O45 S5 1.484325 1_555
O46 P4 1.548474 1_555
O47 S6 1.478971 1_555
O48 P2 1.556554 1_555
O49 S1 1.492675 1_555
O50 S2 1.491707 1_655
O51 S0 1.489798 1_555
O52 P1 1.526150 1_555
O53 P0 1.559644 1_545
O54 P5 1.538730 1_555
O55 S7 1.498019 1_655
O56 P6 1.565365 1_545
O57 S8 1.495486 1_545
O58 P7 1.533762 1_555
O59 P8 1.558509 1_655
O60 S6 1.479128 1_555
O61 S5 1.483240 1_455
O62 P4 1.542887 1_565
O63 S3 1.483481 1_565
O64 S4 1.483474 1_555
O65 P3 1.548051 1_455
O66 P0 1.525289 1_555
O67 S0 1.483797 1_555
O68 P1 1.551341 1_455
O69 S1 1.484841 1_555
O70 S2 1.485147 1_555
O71 P2 1.550952 1_565
