# generated using pymatgen
data_MgV4P2O13
_symmetry_space_group_name_H-M   'P 1'
_cell_length_a   5.27505178
_cell_length_b   5.17637863
_cell_length_c   8.92292131
_cell_angle_alpha   94.45022248
_cell_angle_beta   99.70098982
_cell_angle_gamma   82.28551019
_symmetry_Int_Tables_number   1
_chemical_formula_structural   MgV4P2O13
_chemical_formula_sum   'Mg1 V4 P2 O13'
_cell_volume   237.61144863
_cell_formula_units_Z   1
loop_
 _symmetry_equiv_pos_site_id
 _symmetry_equiv_pos_as_xyz
  1  'x, y, z'
loop_
 _atom_site_type_symbol
 _atom_site_label
 _atom_site_symmetry_multiplicity
 _atom_site_fract_x
 _atom_site_fract_y
 _atom_site_fract_z
 _atom_site_occupancy
  Mg  Mg0  1  0.26247500  0.45643700  0.55679000  1
  V  V0  1  0.24503700  0.02042200  0.69559600  1
  V  V1  1  0.02088300  0.88141800  0.34250000  1
  V  V2  1  0.58783300  0.49264300  0.93714700  1
  V  V3  1  0.39654100  0.26534000  0.27643500  1
  P  P0  1  0.01339900  0.96006800  0.99806000  1
  P  P1  1  0.76332300  0.58598300  0.59662900  1
  O  O0  1  0.96541900  0.77495400  0.56811900  1
  O  O1  1  0.21646500  0.85631600  0.89149800  1
  O  O2  1  0.11820900  0.53000900  0.32229200  1
  O  O3  1  0.26757100  0.07594700  0.46976400  1
  O  O4  1  0.42026800  0.30619000  0.76639000  1
  O  O5  1  0.17048900  0.99579600  0.16700500  1
  O  O6  1  0.58118700  0.72611400  0.70716400  1
  O  O7  1  0.58042300  0.51797400  0.45027600  1
  O  O8  1  0.46823500  0.43049300  0.09284800  1
  O  O9  1  0.71038200  0.03636200  0.29685400  1
  O  O10  1  0.89358500  0.23397300  0.95266100  1
  O  O11  1  0.93538200  0.34330700  0.65554600  1
  O  O12  1  0.82337200  0.76803300  0.00704100  1
loop_
_geom_bond_atom_site_label_1
_geom_bond_atom_site_label_2
_geom_bond_distance
_geom_bond_site_symmetry_2
Mg0 O3 2.058728 1_555
Mg0 O4 2.079137 1_555
Mg0 O0 2.125554 1_455
Mg0 O7 2.131984 1_555
Mg0 O2 2.147453 1_555
Mg0 O11 2.227175 1_455
Mg0 O6 2.480870 1_555
O0 P1 1.602511 1_555
O0 V0 2.190301 1_665
O0 V1 2.203672 1_655
O1 P0 1.565098 1_555
O1 V0 2.038011 1_565
O1 V2 2.531280 1_555
O2 V1 1.826067 1_555
O2 V3 1.943063 1_555
O3 V1 1.916552 1_545
O3 V0 2.082563 1_555
O3 V3 2.288411 1_555
O4 V0 1.861968 1_555
O4 V2 1.892427 1_555
O5 P0 1.603206 1_554
O5 V1 2.027628 1_555
O5 V3 2.040819 1_565
O6 P1 1.563093 1_555
O6 V0 2.171011 1_565
O6 V2 2.454023 1_555
O7 P1 1.534724 1_555
O7 V3 2.139121 1_555
O8 V2 1.688471 1_554
O8 V3 2.017490 1_555
O9 V1 1.721946 1_645
O9 V3 1.893117 1_555
O10 P0 1.528424 1_645
O10 V2 1.946036 1_555
O11 P1 1.521093 1_555
O11 V0 2.179989 1_655
O12 P0 1.518654 1_654
O12 V2 2.010280 1_554
