# generated using pymatgen
data_Mn3(PO4)4
_symmetry_space_group_name_H-M   'P 1'
_cell_length_a   7.60376800
_cell_length_b   7.49004700
_cell_length_c   10.03486118
_cell_angle_alpha   90.00000000
_cell_angle_beta   93.23591436
_cell_angle_gamma   90.00000000
_symmetry_Int_Tables_number   1
_chemical_formula_structural   Mn3(PO4)4
_chemical_formula_sum   'Mn6 P8 O32'
_cell_volume   570.60000101
_cell_formula_units_Z   2
loop_
 _symmetry_equiv_pos_site_id
 _symmetry_equiv_pos_as_xyz
  1  'x, y, z'
loop_
 _atom_site_type_symbol
 _atom_site_label
 _atom_site_symmetry_multiplicity
 _atom_site_fract_x
 _atom_site_fract_y
 _atom_site_fract_z
 _atom_site_occupancy
  Mn  Mn0  1  0.97104600  0.01544200  0.25027800  1
  Mn  Mn1  1  0.98402400  0.97687800  0.75229600  1
  Mn  Mn2  1  0.51597600  0.47687800  0.49770400  1
  Mn  Mn3  1  0.52895400  0.51544200  0.99972200  1
  Mn  Mn4  1  0.40505900  0.86053300  0.44464300  1
  Mn  Mn5  1  0.09494100  0.36053300  0.80535700  1
  P  P0  1  0.19080700  0.17090200  0.02404200  1
  P  P1  1  0.31592200  0.70642100  0.74065300  1
  P  P2  1  0.30919300  0.67090200  0.22595800  1
  P  P3  1  0.70159400  0.29655500  0.76607300  1
  P  P4  1  0.69991100  0.32522500  0.25772100  1
  P  P5  1  0.80008900  0.82522500  0.99227900  1
  P  P6  1  0.18407800  0.20642100  0.50934700  1
  P  P7  1  0.79840600  0.79655500  0.48392700  1
  O  O0  1  0.54891900  0.36965300  0.14848100  1
  O  O1  1  0.95108100  0.86965300  0.10151900  1
  O  O2  1  0.93806700  0.85615100  0.59402000  1
  O  O3  1  0.89025500  0.81836100  0.35199600  1
  O  O4  1  0.84298800  0.45774400  0.26937600  1
  O  O5  1  0.90506200  0.80189700  0.85914000  1
  O  O6  1  0.04216500  0.14345100  0.89828300  1
  O  O7  1  0.03649600  0.15479300  0.40789400  1
  O  O8  1  0.09859500  0.20480000  0.65163700  1
  O  O9  1  0.08570200  0.19233600  0.14962700  1
  O  O10  1  0.17299500  0.55964600  0.72683200  1
  O  O11  1  0.16406600  0.54212400  0.22090700  1
  O  O12  1  0.22578600  0.88624700  0.76310200  1
  O  O13  1  0.24150900  0.36685900  0.96389400  1
  O  O14  1  0.25849100  0.86685900  0.28610600  1
  O  O15  1  0.27421400  0.38624700  0.48689800  1
  O  O16  1  0.32700500  0.05964600  0.52316800  1
  O  O17  1  0.40140500  0.70480000  0.59836300  1
  O  O18  1  0.33593400  0.04212400  0.02909300  1
  O  O19  1  0.74578700  0.62393500  0.02084100  1
  O  O20  1  0.46350400  0.65479300  0.84210600  1
  O  O21  1  0.45783500  0.64345100  0.35171700  1
  O  O22  1  0.56193300  0.35615100  0.65598000  1
  O  O23  1  0.41429800  0.69233600  0.10037300  1
  O  O24  1  0.60974500  0.31836100  0.89800400  1
  O  O25  1  0.65701200  0.95774400  0.98062400  1
  O  O26  1  0.59493800  0.30189700  0.39086000  1
  O  O27  1  0.63565900  0.92529900  0.48075000  1
  O  O28  1  0.73660900  0.60465200  0.51491600  1
  O  O29  1  0.76339100  0.10465200  0.73508400  1
  O  O30  1  0.75421300  0.12393500  0.22915900  1
  O  O31  1  0.86434100  0.42529900  0.76925000  1
loop_
_geom_bond_atom_site_label_1
_geom_bond_atom_site_label_2
_geom_bond_distance
_geom_bond_site_symmetry_2
Mn0 O30 1.839615 1_555
Mn0 O1 1.848846 1_545
Mn0 O9 1.906592 1_655
Mn0 O3 1.915480 1_545
Mn0 O7 1.936452 1_655
Mn0 O14 2.460937 1_645
Mn1 O5 1.816705 1_555
Mn1 O2 1.843841 1_555
Mn1 O29 1.930677 1_565
Mn1 O6 1.955771 1_665
Mn1 O12 1.956890 1_655
Mn1 O8 2.189277 1_665
Mn2 O26 1.816705 1_555
Mn2 O22 1.843841 1_555
Mn2 O28 1.930677 1_555
Mn2 O21 1.955771 1_555
Mn2 O15 1.956890 1_555
Mn2 O17 2.189277 1_555
Mn3 O19 1.839615 1_556
Mn3 O0 1.848846 1_556
Mn3 O23 1.906592 1_556
Mn3 O24 1.915480 1_555
Mn3 O20 1.936452 1_555
Mn3 O13 2.460937 1_555
Mn4 O16 1.802815 1_565
Mn4 O27 1.835591 1_555
Mn4 O14 1.890787 1_555
Mn4 O21 1.927840 1_555
Mn4 O17 1.935381 1_555
Mn5 O10 1.802815 1_555
Mn5 O31 1.835591 1_455
Mn5 O13 1.890787 1_555
Mn5 O6 1.927840 1_555
Mn5 O8 1.935381 1_555
O0 P4 1.577490 1_555
O1 P5 1.577490 1_554
O2 P7 1.554044 1_555
O3 P7 1.539986 1_555
O4 P4 1.472445 1_555
O5 P5 1.604060 1_555
O6 P0 1.658695 1_556
O7 P6 1.521941 1_555
O8 P6 1.601937 1_555
O9 P0 1.538299 1_555
O10 P1 1.546574 1_555
O11 P2 1.464362 1_555
O12 P1 1.533645 1_555
O13 P0 1.641167 1_556
O14 P2 1.641167 1_555
O15 P6 1.533645 1_555
O16 P6 1.546574 1_555
O17 P1 1.601937 1_555
O18 P0 1.464362 1_555
O19 P5 1.593446 1_554
O20 P1 1.521941 1_555
O21 P2 1.658695 1_555
O22 P3 1.554044 1_555
O23 P2 1.538299 1_555
O24 P3 1.539986 1_555
O25 P5 1.472445 1_555
O26 P4 1.604060 1_555
O27 P7 1.567743 1_555
O28 P7 1.549195 1_555
O29 P3 1.549195 1_555
O30 P4 1.593446 1_555
O31 P3 1.567743 1_555
