# generated using pymatgen
data_Fe2P2H9NO11
_symmetry_space_group_name_H-M   'P 1'
_cell_length_a   9.80683700
_cell_length_b   9.93411200
_cell_length_c   12.37384032
_cell_angle_alpha   52.14482408
_cell_angle_beta   90.00000000
_cell_angle_gamma   90.00000000
_symmetry_Int_Tables_number   1
_chemical_formula_structural   Fe2P2H9NO11
_chemical_formula_sum   'Fe8 P8 H36 N4 O44'
_cell_volume   951.80960565
_cell_formula_units_Z   4
loop_
 _symmetry_equiv_pos_site_id
 _symmetry_equiv_pos_as_xyz
  1  'x, y, z'
loop_
 _atom_site_type_symbol
 _atom_site_label
 _atom_site_symmetry_multiplicity
 _atom_site_fract_x
 _atom_site_fract_y
 _atom_site_fract_z
 _atom_site_occupancy
  Fe  Fe0  1  0.26495000  0.79205700  0.81051500  1
  Fe  Fe1  1  0.76495000  0.20794300  0.68948500  1
  Fe  Fe2  1  0.73505000  0.20794300  0.18948500  1
  Fe  Fe3  1  0.23505000  0.79205700  0.31051500  1
  Fe  Fe4  1  0.04329600  0.48617800  0.12918300  1
  Fe  Fe5  1  0.54329600  0.51382200  0.37081700  1
  Fe  Fe6  1  0.95670400  0.51382200  0.87081700  1
  Fe  Fe7  1  0.45670400  0.48617800  0.62918300  1
  P  P0  1  0.31936000  0.66491900  0.12765700  1
  P  P1  1  0.81936000  0.33508100  0.37234300  1
  P  P2  1  0.68064000  0.33508100  0.87234300  1
  P  P3  1  0.18064000  0.66491900  0.62765700  1
  P  P4  1  0.95844800  0.84791100  0.85419000  1
  P  P5  1  0.45844800  0.15208900  0.64581000  1
  P  P6  1  0.04155200  0.15208900  0.14581000  1
  P  P7  1  0.54155200  0.84791100  0.35419000  1
  H  H0  1  0.35201300  0.17102800  0.10183900  1
  H  H1  1  0.85201300  0.82897200  0.39816100  1
  H  H2  1  0.64798700  0.82897200  0.89816100  1
  H  H3  1  0.14798700  0.17102800  0.60183900  1
  H  H4  1  0.41529800  0.31791400  0.95802800  1
  H  H5  1  0.91529800  0.68208600  0.54197200  1
  H  H6  1  0.58470200  0.68208600  0.04197200  1
  H  H7  1  0.08470200  0.31791400  0.45802800  1
  H  H8  1  0.22308400  0.17037700  0.33092500  1
  H  H9  1  0.72308400  0.82962300  0.16907500  1
  H  H10  1  0.77691600  0.82962300  0.66907500  1
  H  H11  1  0.27691600  0.17037700  0.83092500  1
  H  H12  1  0.26885500  0.99980300  0.49357800  1
  H  H13  1  0.76885500  0.00019700  0.00642200  1
  H  H14  1  0.73114500  0.00019700  0.50642200  1
  H  H15  1  0.23114500  0.99980300  0.99357800  1
  H  H16  1  0.47253500  0.58521600  0.81326700  1
  H  H17  1  0.97253500  0.41478400  0.68673300  1
  H  H18  1  0.52746500  0.41478400  0.18673300  1
  H  H19  1  0.02746500  0.58521600  0.31326700  1
  H  H20  1  0.47894100  0.33143400  0.11326500  1
  H  H21  1  0.97894100  0.66856600  0.38673500  1
  H  H22  1  0.52105900  0.66856600  0.88673500  1
  H  H23  1  0.02105900  0.33143400  0.61326500  1
  H  H24  1  0.36012100  0.18323700  0.41146700  1
  H  H25  1  0.86012100  0.81676300  0.08853300  1
  H  H26  1  0.63987900  0.81676300  0.58853300  1
  H  H27  1  0.13987900  0.18323700  0.91146700  1
  H  H28  1  0.36341900  0.05982300  0.35792600  1
  H  H29  1  0.86341900  0.94017700  0.14207400  1
  H  H30  1  0.63658100  0.94017700  0.64207400  1
  H  H31  1  0.13658100  0.05982300  0.85792600  1
  H  H32  1  0.29570600  0.46563900  0.47195400  1
  H  H33  1  0.79570600  0.53436100  0.02804600  1
  H  H34  1  0.70429400  0.53436100  0.52804600  1
  H  H35  1  0.20429400  0.46563900  0.97195400  1
  N  N0  1  0.30429200  0.10548000  0.39853500  1
  N  N1  1  0.80429200  0.89452000  0.10146500  1
  N  N2  1  0.69570800  0.89452000  0.60146500  1
  N  N3  1  0.19570800  0.10548000  0.89853500  1
  O  O0  1  0.36172600  0.29562200  0.03511800  1
  O  O1  1  0.86172600  0.70437800  0.46488200  1
  O  O2  1  0.63827400  0.70437800  0.96488200  1
  O  O3  1  0.13827400  0.29562200  0.53511800  1
  O  O4  1  0.47344500  0.27546600  0.48626100  1
  O  O5  1  0.97344500  0.72453400  0.01373900  1
  O  O6  1  0.52655500  0.72453400  0.51373900  1
  O  O7  1  0.02655500  0.27546600  0.98626100  1
  O  O8  1  0.44771600  0.66683400  0.83070400  1
  O  O9  1  0.94771600  0.33316600  0.66929600  1
  O  O10  1  0.55228400  0.33316600  0.16929600  1
  O  O11  1  0.05228400  0.66683400  0.33070400  1
  O  O12  1  0.28586000  0.51883300  0.69239100  1
  O  O13  1  0.78586000  0.48116700  0.80760900  1
  O  O14  1  0.71414000  0.48116700  0.30760900  1
  O  O15  1  0.21414000  0.51883300  0.19239100  1
  O  O16  1  0.33163800  0.76485300  0.97220500  1
  O  O17  1  0.83163800  0.23514700  0.52779500  1
  O  O18  1  0.66836200  0.23514700  0.02779500  1
  O  O19  1  0.16836200  0.76485300  0.47220500  1
  O  O20  1  0.40046600  0.92977900  0.28890400  1
  O  O21  1  0.90046600  0.07022100  0.21109600  1
  O  O22  1  0.59953400  0.07022100  0.71109600  1
  O  O23  1  0.09953400  0.92977900  0.78890400  1
  O  O24  1  0.28170100  0.79420000  0.15377100  1
  O  O25  1  0.78170100  0.20580000  0.34622900  1
  O  O26  1  0.71829900  0.20580000  0.84622900  1
  O  O27  1  0.21829900  0.79420000  0.65377100  1
  O  O28  1  0.35867400  0.56142300  0.43961800  1
  O  O29  1  0.85867400  0.43857700  0.06038200  1
  O  O30  1  0.64132600  0.43857700  0.56038200  1
  O  O31  1  0.14132600  0.56142300  0.93961800  1
  O  O32  1  0.46200700  0.58284700  0.19338600  1
  O  O33  1  0.96200700  0.41715300  0.30661400  1
  O  O34  1  0.53799300  0.41715300  0.80661400  1
  O  O35  1  0.03799300  0.58284700  0.69338600  1
  O  O36  1  0.35574500  0.01510700  0.68017200  1
  O  O37  1  0.85574500  0.98489300  0.81982800  1
  O  O38  1  0.64425500  0.98489300  0.31982800  1
  O  O39  1  0.14425500  0.01510700  0.18017200  1
  O  O40  1  0.40648700  0.25090000  0.69842800  1
  O  O41  1  0.90648700  0.74910000  0.80157200  1
  O  O42  1  0.59351300  0.74910000  0.30157200  1
  O  O43  1  0.09351300  0.25090000  0.19842800  1
loop_
_geom_bond_atom_site_label_1
_geom_bond_atom_site_label_2
_geom_bond_distance
_geom_bond_site_symmetry_2
Fe0 O16 1.959603 1_555
Fe0 O36 1.979318 1_565
Fe0 O27 1.980111 1_555
Fe0 O23 2.031221 1_555
Fe0 O8 2.107373 1_555
Fe0 O31 2.186090 1_555
Fe1 O17 1.959603 1_555
Fe1 O37 1.979318 1_545
Fe1 O26 1.980111 1_555
Fe1 O22 2.031221 1_555
Fe1 O9 2.107373 1_555
Fe1 O30 2.186090 1_555
Fe2 O18 1.959603 1_555
Fe2 O38 1.979318 1_545
Fe2 O25 1.980111 1_555
Fe2 O21 2.031221 1_555
Fe2 O10 2.107373 1_555
Fe2 O29 2.186090 1_555
Fe3 O19 1.959603 1_555
Fe3 O39 1.979318 1_565
Fe3 O24 1.980111 1_555
Fe3 O20 2.031221 1_555
Fe3 O11 2.107373 1_555
Fe3 O28 2.186090 1_555
Fe4 O15 1.958431 1_555
Fe4 O5 1.991271 1_455
Fe4 O43 1.995403 1_555
Fe4 O33 2.019461 1_455
Fe4 O29 2.172691 1_455
Fe4 O31 2.198425 1_554
Fe5 O14 1.958431 1_555
Fe5 O4 1.991271 1_555
Fe5 O42 1.995403 1_555
Fe5 O32 2.019461 1_555
Fe5 O28 2.172691 1_555
Fe5 O30 2.198425 1_555
Fe6 O13 1.958431 1_555
Fe6 O7 1.991271 1_655
Fe6 O41 1.995403 1_555
Fe6 O35 2.019461 1_655
Fe6 O31 2.172691 1_655
Fe6 O29 2.198425 1_556
Fe7 O12 1.958431 1_555
Fe7 O6 1.991271 1_555
Fe7 O40 1.995403 1_555
Fe7 O34 2.019461 1_555
Fe7 O30 2.172691 1_555
Fe7 O28 2.198425 1_555
H0 O0 0.984118 1_555
H1 O1 0.984118 1_555
H2 O2 0.984118 1_555
H3 O3 0.984118 1_555
H4 O0 0.987783 1_556
H5 O1 0.987783 1_555
H6 O2 0.987783 1_554
H7 O3 0.987783 1_555
H8 N0 1.042978 1_555
H9 N1 1.042978 1_555
H10 N2 1.042978 1_555
H11 N3 1.042978 1_555
H12 N0 1.044346 1_565
H13 N1 1.044346 1_545
H14 N2 1.044346 1_545
H15 N3 1.044346 1_565
H16 O8 0.988892 1_555
H17 O9 0.988892 1_555
H18 O10 0.988892 1_555
H19 O11 0.988892 1_555
H20 O10 1.006463 1_555
H21 O11 1.006463 1_655
H22 O8 1.006463 1_555
H23 O9 1.006463 1_455
H24 N0 1.036218 1_555
H25 N1 1.036218 1_555
H26 N2 1.036218 1_555
H27 N3 1.036218 1_555
H28 N0 1.036417 1_555
H29 N1 1.036417 1_555
H30 N2 1.036417 1_555
H31 N3 1.036417 1_555
H32 O28 0.989723 1_555
H33 O29 0.989723 1_555
H34 O30 0.989723 1_555
H35 O31 0.989723 1_555
O4 P5 1.565771 1_555
O5 P4 1.565771 1_554
O6 P7 1.565771 1_555
O7 P6 1.565771 1_556
O12 P3 1.544586 1_555
O13 P2 1.544586 1_555
O14 P1 1.544586 1_555
O15 P0 1.544586 1_555
O16 P0 1.535037 1_556
O17 P1 1.535037 1_555
O18 P2 1.535037 1_554
O19 P3 1.535037 1_555
O20 P7 1.556291 1_555
O21 P6 1.556291 1_655
O22 P5 1.556291 1_555
O23 P4 1.556291 1_455
O24 P0 1.549048 1_555
O25 P1 1.549048 1_555
O26 P2 1.549048 1_555
O27 P3 1.549048 1_555
O32 P0 1.571411 1_555
O33 P1 1.571411 1_555
O34 P2 1.571411 1_555
O35 P3 1.571411 1_555
O36 P5 1.528676 1_555
O37 P4 1.528676 1_555
O38 P7 1.528676 1_555
O39 P6 1.528676 1_555
O40 P5 1.559331 1_555
O41 P4 1.559331 1_555
O42 P7 1.559331 1_555
O43 P6 1.559331 1_555
