# generated using pymatgen
data_CaV2P2O9
_symmetry_space_group_name_H-M   'P 1'
_cell_length_a   6.54399900
_cell_length_b   7.47302000
_cell_length_c   14.36389000
_cell_angle_alpha   90.00000000
_cell_angle_beta   90.00000000
_cell_angle_gamma   90.00000000
_symmetry_Int_Tables_number   1
_chemical_formula_structural   CaV2P2O9
_chemical_formula_sum   'Ca4 V8 P8 O36'
_cell_volume   702.44356681
_cell_formula_units_Z   4
loop_
 _symmetry_equiv_pos_site_id
 _symmetry_equiv_pos_as_xyz
  1  'x, y, z'
loop_
 _atom_site_type_symbol
 _atom_site_label
 _atom_site_symmetry_multiplicity
 _atom_site_fract_x
 _atom_site_fract_y
 _atom_site_fract_z
 _atom_site_occupancy
  Ca  Ca0  1  0.25000000  0.88838700  0.27856700  1
  Ca  Ca1  1  0.25000000  0.61161300  0.77856700  1
  Ca  Ca2  1  0.75000000  0.38838700  0.22143300  1
  Ca  Ca3  1  0.75000000  0.11161300  0.72143300  1
  V  V0  1  0.25000000  0.35161400  0.38116500  1
  V  V1  1  0.75000000  0.64838600  0.61883500  1
  V  V2  1  0.75000000  0.85161400  0.11883500  1
  V  V3  1  0.25000000  0.14838600  0.88116500  1
  V  V4  1  0.00000000  0.00000000  0.50000000  1
  V  V5  1  0.00000000  0.50000000  0.00000000  1
  V  V6  1  0.50000000  0.50000000  0.00000000  1
  V  V7  1  0.50000000  0.00000000  0.50000000  1
  P  P0  1  0.75000000  0.35944200  0.43289700  1
  P  P1  1  0.25000000  0.64055800  0.56710300  1
  P  P2  1  0.25000000  0.85944200  0.06710300  1
  P  P3  1  0.75000000  0.14055800  0.93289700  1
  P  P4  1  0.25000000  0.38891000  0.19192500  1
  P  P5  1  0.25000000  0.11109000  0.69192500  1
  P  P6  1  0.75000000  0.88891000  0.30807500  1
  P  P7  1  0.75000000  0.61109000  0.80807500  1
  O  O0  1  0.55427800  0.60532000  0.86973000  1
  O  O1  1  0.05427800  0.39468000  0.13027000  1
  O  O2  1  0.44572200  0.10532000  0.63027000  1
  O  O3  1  0.94572200  0.89468000  0.36973000  1
  O  O4  1  0.44572200  0.39468000  0.13027000  1
  O  O5  1  0.94572200  0.60532000  0.86973000  1
  O  O6  1  0.55427800  0.89468000  0.36973000  1
  O  O7  1  0.05427800  0.10532000  0.63027000  1
  O  O8  1  0.75000000  0.32714100  0.98234000  1
  O  O9  1  0.25000000  0.67285900  0.01766000  1
  O  O10  1  0.25000000  0.82714100  0.51766000  1
  O  O11  1  0.75000000  0.17285900  0.48234000  1
  O  O12  1  0.25000000  0.12429800  0.44574000  1
  O  O13  1  0.75000000  0.87570200  0.55426000  1
  O  O14  1  0.75000000  0.62429800  0.05426000  1
  O  O15  1  0.25000000  0.37570200  0.94574000  1
  O  O16  1  0.25000000  0.21541500  0.25169300  1
  O  O17  1  0.75000000  0.78458500  0.74830700  1
  O  O18  1  0.75000000  0.71541500  0.24830700  1
  O  O19  1  0.25000000  0.28458500  0.75169300  1
  O  O20  1  0.93537400  0.13047300  0.86688000  1
  O  O21  1  0.43537400  0.86952700  0.13312000  1
  O  O22  1  0.06462600  0.63047300  0.63312000  1
  O  O23  1  0.56462600  0.36952700  0.36688000  1
  O  O24  1  0.06462600  0.86952700  0.13312000  1
  O  O25  1  0.56462600  0.13047300  0.86688000  1
  O  O26  1  0.93537400  0.36952700  0.36688000  1
  O  O27  1  0.43537400  0.63047300  0.63312000  1
  O  O28  1  0.25000000  0.49857400  0.49163400  1
  O  O29  1  0.75000000  0.04118200  0.23425700  1
  O  O30  1  0.75000000  0.45881800  0.73425700  1
  O  O31  1  0.25000000  0.54118200  0.26574300  1
  O  O32  1  0.25000000  0.00142600  0.99163400  1
  O  O33  1  0.75000000  0.99857400  0.00836600  1
  O  O34  1  0.75000000  0.50142600  0.50836600  1
  O  O35  1  0.25000000  0.95881800  0.76574300  1
loop_
_geom_bond_atom_site_label_1
_geom_bond_atom_site_label_2
_geom_bond_distance
_geom_bond_site_symmetry_2
Ca0 O6 2.383641 1_555
Ca0 O3 2.383641 1_455
Ca0 O21 2.419946 1_555
Ca0 O24 2.419946 1_555
Ca0 O16 2.474185 1_565
Ca0 O31 2.601200 1_555
Ca1 O0 2.383641 1_555
Ca1 O5 2.383641 1_455
Ca1 O27 2.419946 1_555
Ca1 O22 2.419946 1_555
Ca1 O19 2.474185 1_555
Ca1 O35 2.601200 1_555
Ca2 O4 2.383641 1_555
Ca2 O1 2.383641 1_655
Ca2 O26 2.419946 1_555
Ca2 O23 2.419946 1_555
Ca2 O18 2.474185 1_555
Ca2 O29 2.601200 1_555
Ca3 O2 2.383641 1_555
Ca3 O7 2.383641 1_655
Ca3 O25 2.419946 1_555
Ca3 O20 2.419946 1_555
Ca3 O17 2.474185 1_545
Ca3 O30 2.601200 1_555
O0 P7 1.557760 1_555
O0 V6 2.060814 1_556
O1 P4 1.557760 1_555
O1 V5 2.060814 1_555
O2 P5 1.557760 1_555
O2 V7 2.060814 1_555
O3 P6 1.557760 1_555
O3 V4 2.060814 1_665
O4 P4 1.557760 1_555
O4 V6 2.060814 1_555
O5 P7 1.557760 1_555
O5 V5 2.060814 1_656
O6 P6 1.557760 1_555
O6 V7 2.060814 1_565
O7 P5 1.557760 1_555
O7 V4 2.060814 1_555
O8 P3 1.564786 1_555
O8 V5 2.099889 1_656
O8 V6 2.099889 1_556
O9 P2 1.564786 1_555
O9 V5 2.099889 1_555
O9 V6 2.099889 1_555
O10 P1 1.564786 1_555
O10 V7 2.099889 1_565
O10 V4 2.099889 1_565
O11 P0 1.564786 1_555
O11 V7 2.099889 1_555
O11 V4 2.099889 1_655
O12 V0 1.935472 1_555
O12 V7 2.036359 1_555
O12 V4 2.036359 1_555
O13 V1 1.935472 1_555
O13 V7 2.036359 1_565
O13 V4 2.036359 1_665
O14 V2 1.935472 1_555
O14 V6 2.036359 1_555
O14 V5 2.036359 1_655
O15 V3 1.935472 1_555
O15 V5 2.036359 1_556
O15 V6 2.036359 1_556
O16 P4 1.554998 1_555
O16 V0 2.120028 1_555
O17 P7 1.554998 1_555
O17 V1 2.120028 1_555
O18 P6 1.554998 1_555
O18 V2 2.120028 1_555
O19 P5 1.554998 1_555
O19 V3 2.120028 1_555
O20 P3 1.541577 1_555
O20 V3 2.073437 1_655
O21 P2 1.541577 1_555
O21 V2 2.073437 1_555
O22 P1 1.541577 1_555
O22 V1 2.073437 1_455
O23 P0 1.541577 1_555
O23 V0 2.073437 1_555
O24 P2 1.541577 1_555
O24 V2 2.073437 1_455
O25 P3 1.541577 1_555
O25 V3 2.073437 1_555
O26 P0 1.541577 1_555
O26 V0 2.073437 1_655
O27 P1 1.541577 1_555
O27 V1 2.073437 1_555
O28 P1 1.516886 1_555
O28 V0 1.929752 1_555
O29 P6 1.555363 1_545
O29 V2 2.180722 1_545
O30 P7 1.555363 1_555
O30 V1 2.180722 1_555
O31 P4 1.555363 1_555
O31 V0 2.180722 1_555
O32 P2 1.516886 1_546
O32 V3 1.929752 1_555
O33 P3 1.516886 1_564
O33 V2 1.929752 1_555
O34 P0 1.516886 1_555
O34 V1 1.929752 1_555
O35 P5 1.555363 1_565
O35 V3 2.180722 1_565
