# generated using pymatgen
data_MgTiCo5O12
_symmetry_space_group_name_H-M   'P 1'
_cell_length_a   4.94377152
_cell_length_b   4.95119970
_cell_length_c   10.00187158
_cell_angle_alpha   93.99072001
_cell_angle_beta   97.16407776
_cell_angle_gamma   60.63061772
_symmetry_Int_Tables_number   1
_chemical_formula_structural   MgTiCo5O12
_chemical_formula_sum   'Mg1 Ti1 Co5 O12'
_cell_volume   211.68061813
_cell_formula_units_Z   1
loop_
 _symmetry_equiv_pos_site_id
 _symmetry_equiv_pos_as_xyz
  1  'x, y, z'
loop_
 _atom_site_type_symbol
 _atom_site_label
 _atom_site_symmetry_multiplicity
 _atom_site_fract_x
 _atom_site_fract_y
 _atom_site_fract_z
 _atom_site_occupancy
  Mg  Mg0  1  0.41245477  0.33441032  0.25257747  1
  Ti  Ti0  1  0.01320542  0.99642569  0.98495465  1
  Co  Co0  1  0.16239509  0.65342235  0.50765102  1
  Co  Co1  1  0.68376071  0.66469336  0.00883859  1
  Co  Co2  1  0.34649548  0.33121100  0.99442661  1
  Co  Co3  1  0.82622300  0.31824075  0.50093017  1
  Co  Co4  1  0.49648724  0.98724277  0.50121180  1
  O  O0  1  0.05333681  0.65047042  0.10546551  1
  O  O1  1  0.34201288  0.65899054  0.90282706  1
  O  O2  1  0.14792048  0.31774660  0.40157582  1
  O  O3  1  0.46958575  0.63994248  0.40140286  1
  O  O4  1  0.55085387  0.28988925  0.60019495  1
  O  O5  1  0.17844956  0.99743429  0.59301896  1
  O  O6  1  0.84069544  0.65997758  0.59322259  1
  O  O7  1  0.69183745  0.33801748  0.10483218  1
  O  O8  1  0.37757439  0.01148341  0.10521225  1
  O  O9  1  0.97522567  0.34861910  0.90322131  1
  O  O10  1  0.65350030  0.98226633  0.90365103  1
  O  O11  1  0.76548469  0.01951629  0.39103517  1
loop_
_geom_bond_atom_site_label_1
_geom_bond_atom_site_label_2
_geom_bond_distance
_geom_bond_site_symmetry_2
Mg0 O11 2.103155 1_555
Mg0 O2 2.132390 1_555
Mg0 O3 2.141197 1_555
Mg0 O7 2.151437 1_555
Mg0 O8 2.153515 1_555
Mg0 O0 2.170174 1_555
Co0 O6 1.883612 1_455
Co0 O5 1.884078 1_555
Co0 O3 1.932195 1_555
Co0 O2 1.935268 1_555
Co0 O4 2.045136 1_555
Co0 O11 2.175090 1_465
Co1 O10 1.887285 1_554
Co1 O1 1.890861 1_554
Co1 O9 1.891816 1_554
Co1 O7 1.919052 1_555
Co1 O0 1.928760 1_655
Co1 O8 1.937222 1_565
Co2 O1 1.907951 1_555
Co2 O9 1.909630 1_455
Co2 O10 1.914719 1_545
Co2 O7 1.927796 1_556
Co2 O8 1.928866 1_556
Co2 O0 1.934572 1_556
Co3 O4 1.844639 1_555
Co3 O5 1.869256 1_645
Co3 O6 1.898681 1_555
Co3 O11 1.900765 1_555
Co3 O3 1.914398 1_555
Co3 O2 1.976591 1_655
Co4 O4 1.849312 1_565
Co4 O6 1.865624 1_555
Co4 O5 1.895705 1_555
Co4 O11 1.899179 1_565
Co4 O2 1.916536 1_565
Co4 O3 1.980752 1_555
O0 Ti0 2.078601 1_554
O1 Ti0 1.893824 1_555
O7 Ti0 2.092712 1_644
O8 Ti0 2.067851 1_544
O9 Ti0 1.892956 1_645
O10 Ti0 1.892671 1_655
