# generated using pymatgen
data_Na4Ca2In2SiS5O24
_symmetry_space_group_name_H-M   'P 1'
_cell_length_a   9.20037410
_cell_length_b   9.21790741
_cell_length_c   23.30455623
_cell_angle_alpha   90.29158412
_cell_angle_beta   89.59396159
_cell_angle_gamma   120.06850526
_symmetry_Int_Tables_number   1
_chemical_formula_structural   Na4Ca2In2SiS5O24
_chemical_formula_sum   'Na12 Ca6 In6 Si3 S15 O72'
_cell_volume   1710.39924478
_cell_formula_units_Z   3
loop_
 _symmetry_equiv_pos_site_id
 _symmetry_equiv_pos_as_xyz
  1  'x, y, z'
loop_
 _atom_site_type_symbol
 _atom_site_label
 _atom_site_symmetry_multiplicity
 _atom_site_fract_x
 _atom_site_fract_y
 _atom_site_fract_z
 _atom_site_occupancy
  Na  Na0  1  0.00237794  0.63817890  0.23692722  1
  Na  Na1  1  0.99161378  0.35166041  0.75983998  1
  Na  Na2  1  0.37772872  0.00238020  0.74743389  1
  Na  Na3  1  0.65581148  0.97595765  0.59427534  1
  Na  Na4  1  0.68475616  0.68326565  0.07550561  1
  Na  Na5  1  0.33468061  0.03433896  0.42796722  1
  Na  Na6  1  0.02426278  0.00520141  0.50582702  1
  Na  Na7  1  0.01928711  0.99449570  0.00425294  1
  Na  Na8  1  0.66531561  0.33013000  0.84172182  1
  Na  Na9  1  0.66560278  0.33370373  0.32786628  1
  Na  Na10  1  0.31296945  0.66138148  0.15732849  1
  Na  Na11  1  0.35700950  0.68534844  0.66614287  1
  Ca  Ca0  1  0.99507736  0.00554594  0.35212740  1
  Ca  Ca1  1  0.67242571  0.33228202  0.17534146  1
  Ca  Ca2  1  0.67686460  0.33862593  0.98708122  1
  Ca  Ca3  1  0.66063531  0.33200187  0.48560162  1
  Ca  Ca4  1  0.33806696  0.66076095  0.31293070  1
  Ca  Ca5  1  0.35206585  0.67782377  0.81632305  1
  In  In0  1  0.98217491  0.99537175  0.85150676  1
  In  In1  1  -0.00016872  0.99304746  0.64936167  1
  In  In2  1  0.00799540  0.00648277  0.14903803  1
  In  In3  1  0.66192009  0.32387402  0.67909484  1
  In  In4  1  0.32033132  0.67126690  0.01379457  1
  In  In5  1  0.32819321  0.66631711  0.51892621  1
  Si  Si0  1  0.70857025  0.00737265  0.74392906  1
  Si  Si1  1  0.35380073  0.02102535  0.58149478  1
  Si  Si2  1  0.97856379  0.64747631  0.08768297  1
  S  S0  1  0.30006102  0.00316775  0.25271574  1
  S  S1  1  0.70418087  0.70194014  0.24742575  1
  S  S2  1  0.99735188  0.29830472  0.24773691  1
  S  S3  1  0.29360837  0.28598309  0.74975047  1
  S  S4  1  0.99145786  0.69820735  0.75068038  1
  S  S5  1  0.97267085  0.33715084  0.58485567  1
  S  S6  1  0.66345897  0.63151216  0.58568348  1
  S  S7  1  0.66430110  0.01808089  0.08173776  1
  S  S8  1  0.35930831  0.33704467  0.08176864  1
  S  S9  1  0.63815454  0.67312360  0.91962833  1
  S  S10  1  0.03778958  0.36196883  0.91260034  1
  S  S11  1  0.32218382  0.97134096  0.91132210  1
  S  S12  1  0.62861818  0.96001504  0.42054262  1
  S  S13  1  0.33130369  0.36941046  0.42040138  1
  S  S14  1  0.03714989  0.66788008  0.41606602  1
  O  O0  1  0.22625230  0.01426755  0.30820057  1
  O  O1  1  0.80625792  0.79491718  0.29748110  1
  O  O2  1  0.99907982  0.21018849  0.29970064  1
  O  O3  1  0.21852382  0.17559178  0.80065880  1
  O  O4  1  0.97376871  0.77694325  0.80355541  1
  O  O5  1  0.83919614  0.04624435  0.79752354  1
  O  O6  1  0.79417722  0.99325254  0.68351486  1
  O  O7  1  0.19588472  0.20651796  0.69701166  1
  O  O8  1  0.02830956  0.80831576  0.70004773  1
  O  O9  1  0.78834172  0.79565487  0.19289246  1
  O  O10  1  0.00185148  0.20818219  0.19484266  1
  O  O11  1  0.19056278  0.99288758  0.20395202  1
  O  O12  1  0.90394580  0.36288603  0.64053506  1
  O  O13  1  0.47928630  0.11239531  0.63793391  1
  O  O14  1  0.65759171  0.54048733  0.63905877  1
  O  O15  1  0.91305272  0.55329388  0.14908354  1
  O  O16  1  0.63303218  0.08761420  0.13417199  1
  O  O17  1  0.45827834  0.35802467  0.13384113  1
  O  O18  1  0.43098730  0.30401822  0.03023242  1
  O  O19  1  0.83807289  0.55094283  0.03833402  1
  O  O20  1  0.67742313  0.11384952  0.02993357  1
  O  O21  1  0.43046677  0.11919211  0.52192046  1
  O  O22  1  0.68231596  0.55388120  0.53393660  1
  O  O23  1  0.86629606  0.32443038  0.53647486  1
  O  O24  1  0.55103917  0.68284277  0.97321521  1
  O  O25  1  0.14295380  0.45639654  0.96232654  1
  O  O26  1  0.30730872  0.86522871  0.96127267  1
  O  O27  1  0.54945971  0.87040899  0.47640851  1
  O  O28  1  0.32874537  0.45895345  0.47408526  1
  O  O29  1  0.14339306  0.67932195  0.46654166  1
  O  O30  1  0.11553205  0.65752258  0.36187891  1
  O  O31  1  0.52390252  0.86317480  0.37180114  1
  O  O32  1  0.32984192  0.45856513  0.36903742  1
  O  O33  1  0.11467394  0.44677428  0.85764923  1
  O  O34  1  0.33452565  0.89617550  0.85663840  1
  O  O35  1  0.54571667  0.66911009  0.86809558  1
  O  O36  1  0.03397286  0.82890625  0.41799928  1
  O  O37  1  0.79894089  0.98366356  0.41869146  1
  O  O38  1  0.18208118  0.19589109  0.42267631  1
  O  O39  1  0.02628615  0.19310672  0.91453176  1
  O  O40  1  0.16172857  0.98111768  0.91126241  1
  O  O41  1  0.80935230  0.83029632  0.91929572  1
  O  O42  1  0.97484910  0.17605521  0.58636582  1
  O  O43  1  0.16400477  -0.00550740  0.58986173  1
  O  O44  1  0.80676750  0.80860769  0.58722406  1
  O  O45  1  0.99797312  0.83951377  0.08814894  1
  O  O46  1  0.82116011  0.00744043  0.08674172  1
  O  O47  1  0.18200721  0.20134835  0.08838405  1
  O  O48  1  0.69580800  0.18441303  0.74463033  1
  O  O49  1  0.46735916  0.31192287  0.74448283  1
  O  O50  1  0.83586896  0.53133701  0.74326527  1
  O  O51  1  0.69456082  0.53581091  0.24712988  1
  O  O52  1  0.84438058  0.31411622  0.24865460  1
  O  O53  1  0.47099509  0.14819119  0.24692280  1
  O  O54  1  0.65657277  0.52390426  0.92013262  1
  O  O55  1  0.86710288  0.33974212  0.91676242  1
  O  O56  1  0.46928801  0.14025010  0.91682508  1
  O  O57  1  0.63605142  0.12494355  0.42008941  1
  O  O58  1  0.48352389  0.35156823  0.41860279  1
  O  O59  1  0.86694145  0.52228311  0.42100562  1
  O  O60  1  0.36204951  0.50216322  0.07489515  1
  O  O61  1  0.16778813  0.67150310  0.07671639  1
  O  O62  1  0.52391505  0.83826790  0.07577493  1
  O  O63  1  0.35177751  0.83714780  0.58238782  1
  O  O64  1  0.50581967  0.64341160  0.58430166  1
  O  O65  1  0.14674392  0.47860153  0.57991631  1
  O  O66  1  0.30186119  0.84155575  0.25040221  1
  O  O67  1  0.53522600  0.68077603  0.24893762  1
  O  O68  1  0.14661940  0.47163700  0.24570483  1
  O  O69  1  0.29894539  0.44809229  0.75585030  1
  O  O70  1  0.13659242  0.66847494  0.75489535  1
  O  O71  1  0.51747248  0.84917767  0.74783662  1
loop_
_geom_bond_atom_site_label_1
_geom_bond_atom_site_label_2
_geom_bond_distance
_geom_bond_site_symmetry_2
Na0 O15 2.200378 1_455
Na0 O66 2.456670 1_555
Na0 O68 2.491638 1_555
Na0 O51 2.506433 1_455
Na0 O52 2.600464 1_455
Na1 O48 2.390148 1_555
Na1 O33 2.503550 1_655
Na1 O69 2.504477 1_655
Na1 O70 2.533540 1_655
Na1 O5 2.591374 1_555
Na1 O50 2.708891 1_555
Na1 O12 2.917184 1_555
Na2 O71 2.338196 1_545
Na2 O48 2.541987 1_555
Na2 O49 2.543549 1_555
Na2 O34 2.685950 1_545
Na2 O13 2.730645 1_555
Na2 O70 2.753736 1_545
Na2 O3 2.920775 1_555
Na2 O8 3.003646 1_545
Na3 O6 2.408707 1_555
Na3 O63 2.441157 1_555
Na3 O44 2.544929 1_555
Na3 O42 2.573405 1_565
Na3 O64 2.667075 1_555
Na3 O13 2.695363 1_565
Na3 O27 2.916513 1_555
Na4 O19 2.433909 1_555
Na4 O45 2.512796 1_555
Na4 O62 2.519878 1_555
Na4 O60 2.576004 1_555
Na4 O46 2.609932 1_565
Na4 O24 2.689395 1_554
Na4 O9 2.912739 1_555
Na4 O17 2.986572 1_555
Na5 O21 2.345568 1_555
Na5 O36 2.459443 1_545
Na5 O57 2.468411 1_555
Na5 O38 2.510654 1_555
Na5 O58 2.542312 1_555
Na5 O0 2.944307 1_555
Na5 O29 2.975068 1_545
Na6 O43 2.379672 1_555
Na6 O38 2.527900 1_555
Na6 O42 2.623960 1_455
Na6 O36 2.635756 1_545
Na6 O44 2.689592 1_445
Na6 O37 2.846688 1_445
Na7 O45 2.375772 1_455
Na7 O40 2.558899 1_554
Na7 O47 2.619949 1_565
Na7 O41 2.652488 1_454
Na7 O46 2.682990 1_465
Na7 O39 2.765272 1_564
Na8 O56 2.490545 1_555
Na8 O55 2.528314 1_555
Na8 O54 2.577743 1_555
Na8 O48 2.709294 1_555
Na8 O49 2.868587 1_555
Na8 O50 2.871026 1_555
Na9 O52 2.529210 1_555
Na9 O51 2.571596 1_555
Na9 O53 2.575898 1_555
Na9 O58 2.743628 1_555
Na9 O57 2.811699 1_555
Na9 O59 2.820698 1_555
Na10 O61 2.341866 1_555
Na10 O60 2.582935 1_555
Na10 O62 2.616413 1_555
Na10 O68 2.636842 1_555
Na10 O66 2.757503 1_555
Na10 O67 2.909098 1_555
Na11 O71 2.420987 1_555
Na11 O63 2.422131 1_555
Na11 O64 2.479400 1_555
Na11 O65 2.781016 1_555
Na11 O70 2.835916 1_555
Na11 O69 2.880783 1_555
Ca0 O2 2.237350 1_555
Ca0 O1 2.244031 1_545
Ca0 O37 2.302638 1_545
Ca0 O0 2.318779 1_655
Ca0 O38 2.393223 1_655
Ca0 O36 2.398528 1_645
Ca1 O15 2.213597 1_555
Ca1 O16 2.302645 1_555
Ca1 O17 2.317616 1_555
Ca1 O52 2.399308 1_555
Ca1 O53 2.435268 1_555
Ca1 O51 2.439304 1_555
Ca2 O19 2.132915 1_556
Ca2 O20 2.306988 1_556
Ca2 O18 2.340576 1_556
Ca2 O55 2.385476 1_555
Ca2 O54 2.395143 1_555
Ca2 O56 2.487200 1_555
Ca3 O21 2.208550 1_555
Ca3 O22 2.250032 1_555
Ca3 O23 2.270615 1_555
Ca3 O58 2.336473 1_555
Ca3 O57 2.359584 1_555
Ca3 O59 2.365516 1_555
Ca4 O32 2.251954 1_555
Ca4 O31 2.257723 1_555
Ca4 O67 2.275428 1_555
Ca4 O30 2.323788 1_555
Ca4 O68 2.351683 1_555
Ca4 O66 2.366360 1_555
Ca5 O35 2.193479 1_555
Ca5 O71 2.222763 1_555
Ca5 O34 2.294340 1_555
Ca5 O33 2.358726 1_555
Ca5 O69 2.377322 1_555
Ca5 O70 2.419623 1_555
In0 O5 2.044662 1_565
In0 O39 2.210018 1_665
In0 O41 2.214441 1_555
In0 O40 2.222046 1_655
In0 O4 2.265178 1_555
In0 O3 2.292607 1_665
In1 O43 2.038312 1_565
In1 O6 2.048352 1_455
In1 O7 2.192756 1_565
In1 O8 2.198984 1_555
In1 O44 2.264466 1_455
In1 O42 2.339325 1_465
In2 O45 2.056283 1_445
In2 O10 2.164189 1_555
In2 O11 2.172059 1_545
In2 O47 2.213532 1_555
In2 O9 2.227266 1_445
In2 O46 2.261256 1_455
In3 O13 2.065221 1_555
In3 O48 2.123854 1_555
In3 O14 2.226698 1_555
In3 O12 2.251148 1_555
In3 O49 2.303015 1_555
In3 O50 2.322235 1_555
In4 O61 2.023308 1_555
In4 O25 2.188479 1_554
In4 O26 2.224457 1_554
In4 O62 2.256279 1_555
In4 O24 2.270847 1_554
In4 O60 2.287913 1_555
In5 O63 2.086264 1_555
In5 O29 2.151895 1_555
In5 O28 2.176016 1_555
In5 O27 2.194978 1_555
In5 O65 2.213143 1_555
In5 O64 2.328263 1_555
O0 S0 1.483041 1_555
O1 S1 1.475157 1_555
O2 S2 1.466193 1_555
O3 S3 1.488785 1_555
O4 S4 1.475822 1_555
O5 Si0 1.648612 1_555
O6 Si0 1.644591 1_565
O7 S3 1.483931 1_555
O8 S4 1.482947 1_455
O9 S1 1.512572 1_555
O10 S2 1.494876 1_455
O11 S0 1.494923 1_565
O12 S5 1.508424 1_555
O13 Si1 1.675742 1_555
O14 S6 1.489454 1_555
O15 Si2 1.624984 1_555
O16 S7 1.469211 1_555
O17 S8 1.475121 1_555
O18 S8 1.468431 1_555
O19 Si2 1.625813 1_555
O20 S7 1.467440 1_555
O21 Si1 1.613442 1_555
O22 S6 1.452281 1_555
O23 S5 1.463598 1_555
O24 S9 1.505522 1_555
O25 S10 1.482708 1_555
O26 S11 1.485172 1_555
O27 S12 1.517359 1_555
O28 S13 1.501858 1_555
O29 S14 1.504002 1_555
O30 S14 1.476044 1_555
O31 S12 1.469250 1_555
O32 S13 1.459359 1_555
O33 S10 1.481441 1_555
O34 S11 1.478108 1_555
O35 S9 1.466092 1_555
O36 S14 1.499627 1_555
O37 S12 1.470308 1_555
O38 S13 1.498457 1_555
O39 S10 1.507202 1_555
O40 S11 1.523410 1_555
O41 S9 1.514335 1_555
O42 S5 1.495702 1_555
O43 Si1 1.647643 1_555
O44 S6 1.499283 1_555
O45 Si2 1.687787 1_555
O46 S7 1.500093 1_555
O47 S8 1.484270 1_555
O48 Si0 1.693814 1_555
O49 S3 1.497387 1_555
O50 S4 1.496457 1_555
O51 S1 1.488972 1_555
O52 S2 1.485782 1_555
O53 S0 1.473320 1_555
O54 S9 1.467850 1_555
O55 S10 1.480917 1_655
O56 S11 1.470104 1_545
O57 S12 1.487298 1_545
O58 S13 1.489989 1_555
O59 S14 1.469607 1_655
O60 S8 1.518842 1_555
O61 Si2 1.659252 1_455
O62 S7 1.513205 1_565
O63 Si1 1.685950 1_565
O64 S6 1.508863 1_555
O65 S5 1.478057 1_455
O66 S0 1.498784 1_565
O67 S1 1.466636 1_555
O68 S2 1.497383 1_455
O69 S3 1.476477 1_555
O70 S4 1.495535 1_455
O71 Si0 1.629677 1_565
