# generated using pymatgen
data_MgMn4(NiO4)2
_symmetry_space_group_name_H-M   'P 1'
_cell_length_a   6.17767286
_cell_length_b   6.17767287
_cell_length_c   6.61405518
_cell_angle_alpha   57.63443439
_cell_angle_beta   57.63442829
_cell_angle_gamma   59.46542339
_symmetry_Int_Tables_number   1
_chemical_formula_structural   MgMn4(NiO4)2
_chemical_formula_sum   'Mg1 Mn4 Ni2 O8'
_cell_volume   171.18385133
_cell_formula_units_Z   1
loop_
 _symmetry_equiv_pos_site_id
 _symmetry_equiv_pos_as_xyz
  1  'x, y, z'
loop_
 _atom_site_type_symbol
 _atom_site_label
 _atom_site_symmetry_multiplicity
 _atom_site_fract_x
 _atom_site_fract_y
 _atom_site_fract_z
 _atom_site_occupancy
  Mg  Mg0  1  0.85361531  0.85361531  0.14638469  1
  Mn  Mn0  1  0.17309694  0.17309694  0.82690306  1
  Mn  Mn1  1  0.27719401  0.27719401  0.22280599  1
  Mn  Mn2  1  0.59378065  0.59378065  0.14292298  1
  Mn  Mn3  1  0.59378065  0.59378065  0.66951572  1
  Ni  Ni0  1  0.12268909  0.67984773  0.59873159  1
  Ni  Ni1  1  0.67984773  0.12268909  0.59873159  1
  O  O0  1  0.36851866  0.36851866  0.43269951  1
  O  O1  1  0.41739090  0.85474666  0.36393172  1
  O  O2  1  0.36851866  0.36851866  0.83026416  1
  O  O3  1  0.85474666  0.41739090  0.36393172  1
  O  O4  1  0.30416059  0.77140235  0.96221803  1
  O  O5  1  0.82451789  0.82451789  0.47586448  1
  O  O6  1  0.77140235  0.30416059  0.96221803  1
  O  O7  1  0.82451789  0.82451789  0.87509873  1
loop_
_geom_bond_atom_site_label_1
_geom_bond_atom_site_label_2
_geom_bond_distance
_geom_bond_site_symmetry_2
Mg0 O5 2.001893 1_555
Mg0 O7 2.001900 1_554
Mg0 O4 2.254929 1_654
Mg0 O6 2.254929 1_564
Mg0 O1 2.274380 1_555
Mg0 O3 2.274380 1_555
Mn0 O6 1.992735 1_455
Mn0 O4 1.992735 1_545
Mn0 O0 2.110403 1_555
Mn0 O2 2.110407 1_555
Mn1 O3 2.095927 1_455
Mn1 O1 2.095927 1_545
Mn1 O2 2.136419 1_554
Mn1 O0 2.136425 1_555
Mn1 O6 2.625858 1_554
Mn1 O4 2.625858 1_554
Mn2 O0 1.950156 1_555
Mn2 O7 1.964527 1_554
Mn2 O6 2.173512 1_554
Mn2 O4 2.173512 1_554
Mn2 O1 2.226178 1_555
Mn2 O3 2.226178 1_555
Mn3 O2 1.950154 1_555
Mn3 O5 1.964526 1_555
Mn3 O4 2.173507 1_555
Mn3 O6 2.173507 1_555
Mn3 O3 2.226173 1_555
Mn3 O1 2.226173 1_555
Ni0 O7 2.001095 1_455
Ni0 O5 2.001100 1_455
Ni0 O1 2.017154 1_555
Ni0 O0 2.172355 1_555
Ni0 O2 2.172359 1_555
Ni1 O7 2.001096 1_545
Ni1 O5 2.001100 1_545
Ni1 O3 2.017154 1_555
Ni1 O0 2.172355 1_555
Ni1 O2 2.172359 1_555
