# generated using pymatgen
data_LiCuS
_symmetry_space_group_name_H-M   'P 1'
_cell_length_a   3.72920693
_cell_length_b   3.72872994
_cell_length_c   12.28910559
_cell_angle_alpha   90.00000000
_cell_angle_beta   90.00000000
_cell_angle_gamma   90.00000000
_symmetry_Int_Tables_number   1
_chemical_formula_structural   LiCuS
_chemical_formula_sum   'Li4 Cu4 S4'
_cell_volume   170.88253904
_cell_formula_units_Z   4
loop_
 _symmetry_equiv_pos_site_id
 _symmetry_equiv_pos_as_xyz
  1  'x, y, z'
loop_
 _atom_site_type_symbol
 _atom_site_label
 _atom_site_symmetry_multiplicity
 _atom_site_fract_x
 _atom_site_fract_y
 _atom_site_fract_z
 _atom_site_occupancy
  Li  Li0  1  0.25000000  0.24978176  0.07824567  1
  Li  Li1  1  0.75000000  0.74978176  0.42175433  1
  Li  Li2  1  0.25000000  0.25021824  0.57824567  1
  Li  Li3  1  0.75000000  0.75021824  0.92175433  1
  Cu  Cu0  1  0.25000000  0.74855373  0.24979191  1
  Cu  Cu1  1  0.75000000  0.24855373  0.25020809  1
  Cu  Cu2  1  0.25000000  0.75144627  0.74979191  1
  Cu  Cu3  1  0.75000000  0.25144627  0.75020809  1
  S  S0  1  0.75000000  0.74903455  0.12409106  1
  S  S1  1  0.25000000  0.24903455  0.37590894  1
  S  S2  1  0.75000000  0.75096545  0.62409106  1
  S  S3  1  0.25000000  0.25096545  0.87590894  1
loop_
_geom_bond_atom_site_label_1
_geom_bond_atom_site_label_2
_geom_bond_distance
_geom_bond_site_symmetry_2
Li0 S3 2.486541 1_554
Li0 S0 2.694372 1_455
Li0 S0 2.694372 1_555
Li0 S0 2.698225 1_445
Li0 S0 2.698225 1_545
Li1 S2 2.486541 1_555
Li1 S1 2.694372 1_665
Li1 S1 2.694372 1_565
Li1 S1 2.698225 1_655
Li1 S1 2.698225 1_555
Li2 S1 2.486541 1_555
Li2 S2 2.694372 1_445
Li2 S2 2.694372 1_545
Li2 S2 2.698225 1_455
Li2 S2 2.698225 1_555
Li3 S0 2.486541 1_556
Li3 S3 2.694372 1_555
Li3 S3 2.694372 1_655
Li3 S3 2.698225 1_565
Li3 S3 2.698225 1_665
Cu0 S0 2.421364 1_455
Cu0 S0 2.421364 1_555
Cu0 S1 2.423068 1_555
Cu0 S1 2.425825 1_565
Cu0 Cu1 2.636784 1_565
Cu0 Cu1 2.636784 1_465
Cu0 Cu1 2.636784 1_555
Cu0 Cu1 2.636784 1_455
Cu0 Li0 2.811245 1_555
Cu0 Li0 2.817312 1_565
Cu0 Li1 2.818271 1_555
Cu0 Li1 2.818271 1_455
Cu1 S1 2.421364 1_655
Cu1 S1 2.421364 1_555
Cu1 S0 2.423068 1_545
Cu1 S0 2.425825 1_555
Cu1 Li1 2.811245 1_545
Cu1 Li1 2.817312 1_555
Cu1 Li0 2.818271 1_555
Cu1 Li0 2.818271 1_655
Cu2 S2 2.421364 1_555
Cu2 S2 2.421364 1_455
Cu2 S3 2.423068 1_565
Cu2 S3 2.425825 1_555
Cu2 Cu3 2.636784 1_465
Cu2 Cu3 2.636784 1_455
Cu2 Cu3 2.636784 1_565
Cu2 Cu3 2.636784 1_555
Cu2 Li2 2.811245 1_565
Cu2 Li2 2.817312 1_555
Cu2 Li3 2.818271 1_455
Cu2 Li3 2.818271 1_555
Cu3 S3 2.421364 1_555
Cu3 S3 2.421364 1_655
Cu3 S2 2.423068 1_555
Cu3 S2 2.425825 1_545
Cu3 Li3 2.811245 1_555
Cu3 Li3 2.817312 1_545
Cu3 Li2 2.818271 1_555
Cu3 Li2 2.818271 1_655
