# generated using pymatgen
data_Na6Ta2Zn4P6(SO12)3
_symmetry_space_group_name_H-M   'P 1'
_cell_length_a   8.90061616
_cell_length_b   8.88068764
_cell_length_c   22.24548435
_cell_angle_alpha   90.15073971
_cell_angle_beta   90.00000000
_cell_angle_gamma   120.07425969
_symmetry_Int_Tables_number   1
_chemical_formula_structural   Na6Ta2Zn4P6(SO12)3
_chemical_formula_sum   'Na12 Ta4 Zn8 P12 S6 O72'
_cell_volume   1521.63921833
_cell_formula_units_Z   2
loop_
 _symmetry_equiv_pos_site_id
 _symmetry_equiv_pos_as_xyz
  1  'x, y, z'
loop_
 _atom_site_type_symbol
 _atom_site_label
 _atom_site_symmetry_multiplicity
 _atom_site_fract_x
 _atom_site_fract_y
 _atom_site_fract_z
 _atom_site_occupancy
  Na  Na0  1  0.99401092  0.64113481  0.24403384  1
  Na  Na1  1  0.64712389  0.64113481  0.74403384  1
  Na  Na2  1  0.29932378  0.33926687  0.58593341  1
  Na  Na3  1  0.66716754  0.95553097  0.58368562  1
  Na  Na4  1  0.28836442  0.95553097  0.08368562  1
  Na  Na5  1  0.03994409  0.33926687  0.08593341  1
  Na  Na6  1  0.99501583  0.98247179  0.49114646  1
  Na  Na7  1  0.98745596  0.98247179  0.99114646  1
  Na  Na8  1  0.65624112  0.30821335  0.82484610  1
  Na  Na9  1  0.65197322  0.30821335  0.32484610  1
  Na  Na10  1  0.35028948  0.66751696  0.16296205  1
  Na  Na11  1  0.31722648  0.66751696  0.66296205  1
  Ta  Ta0  1  0.67339066  0.34360986  0.97486577  1
  Ta  Ta1  1  0.67022019  0.34360986  0.47486577  1
  Ta  Ta2  1  0.33182404  0.66649046  0.31636233  1
  Ta  Ta3  1  0.33466542  0.66649046  0.81636233  1
  Zn  Zn0  1  0.00976863  0.01424608  0.35113729  1
  Zn  Zn1  1  0.00447745  0.01424608  0.85113729  1
  Zn  Zn2  1  0.99263781  0.99555945  0.65823028  1
  Zn  Zn3  1  0.00292165  0.99555945  0.15823028  1
  Zn  Zn4  1  0.65649051  0.32545169  0.68637041  1
  Zn  Zn5  1  0.66896218  0.32545169  0.18637041  1
  Zn  Zn6  1  0.33068231  0.66875671  0.00899989  1
  Zn  Zn7  1  0.33807340  0.66875671  0.50899989  1
  P  P0  1  0.29856193  0.00354165  0.24987586  1
  P  P1  1  0.99920443  0.29181648  0.24906753  1
  P  P2  1  0.29261205  0.29181648  0.74906753  1
  P  P3  1  0.70497972  0.00354165  0.74987586  1
  P  P4  1  0.67139737  0.62988892  0.58622960  1
  P  P5  1  0.95849255  0.62988892  0.08622960  1
  P  P6  1  0.62996058  0.67488793  0.91870088  1
  P  P7  1  0.04228242  0.37040335  0.92088124  1
  P  P8  1  0.32794436  0.96091376  0.92063173  1
  P  P9  1  0.63296840  0.96091376  0.42063173  1
  P  P10  1  0.32811993  0.37040335  0.42088124  1
  P  P11  1  0.04492635  0.67488793  0.41870088  1
  S  S0  1  0.70283809  0.70704879  0.25115757  1
  S  S1  1  0.00421070  0.70704879  0.75115757  1
  S  S2  1  0.95722496  0.33763943  0.58334514  1
  S  S3  1  0.37422343  0.04001996  0.58194506  1
  S  S4  1  0.66579753  0.04001996  0.08194506  1
  S  S5  1  0.38041547  0.33763943  0.08334514  1
  O  O0  1  0.20421754  0.01719836  0.30384072  1
  O  O1  1  0.81062278  0.78809332  0.30391321  1
  O  O2  1  0.97272638  0.17892899  0.30266476  1
  O  O3  1  0.20620261  0.17892899  0.80266476  1
  O  O4  1  0.97747054  0.78809332  0.80391321  1
  O  O5  1  0.81298082  0.01719836  0.80384072  1
  O  O6  1  0.76192218  0.95070434  0.69093090  1
  O  O7  1  0.19553195  0.22631366  0.68839257  1
  O  O8  1  0.03920388  0.80851167  0.69524955  1
  O  O9  1  0.76930779  0.80851167  0.19524955  1
  O  O10  1  0.03078171  0.22631366  0.18839257  1
  O  O11  1  0.18878215  0.95070434  0.19093090  1
  O  O12  1  0.87277066  0.35207725  0.63752596  1
  O  O13  1  0.48044914  0.11846639  0.63599456  1
  O  O14  1  0.64592627  0.52030400  0.64227899  1
  O  O15  1  0.87437873  0.52030400  0.14227899  1
  O  O16  1  0.63801826  0.11846639  0.13599456  1
  O  O17  1  0.47930759  0.35207725  0.13752596  1
  O  O18  1  0.47384489  0.31942268  0.02850248  1
  O  O19  1  0.83985564  0.52049359  0.02939466  1
  O  O20  1  0.68153365  0.15385704  0.02790442  1
  O  O21  1  0.47232440  0.15385704  0.52790442  1
  O  O22  1  0.68063894  0.52049359  0.52939466  1
  O  O23  1  0.84557879  0.31942268  0.52850248  1
  O  O24  1  0.54348878  0.69266516  0.97422535  1
  O  O25  1  0.13395171  0.44759635  0.98002776  1
  O  O26  1  0.30993754  0.86747677  0.97983968  1
  O  O27  1  0.55753823  0.86747677  0.47983968  1
  O  O28  1  0.31364364  0.44759635  0.48002776  1
  O  O29  1  0.14917538  0.69266516  0.47422535  1
  O  O30  1  0.13073446  0.64027213  0.36136257  1
  O  O31  1  0.50217021  0.86075674  0.36696484  1
  O  O32  1  0.35665119  0.49651828  0.36685458  1
  O  O33  1  0.13986610  0.49651828  0.86685458  1
  O  O34  1  0.35858554  0.86075674  0.86696484  1
  O  O35  1  0.50953667  0.64027213  0.86136257  1
  O  O36  1  0.00751187  0.81919830  0.40881728  1
  O  O37  1  0.81105706  0.98836299  0.40980609  1
  O  O38  1  0.18039880  0.18879477  0.41229568  1
  O  O39  1  0.00839597  0.18879477  0.91229568  1
  O  O40  1  0.17730593  0.98836299  0.90980609  1
  O  O41  1  0.81168643  0.81919830  0.90881728  1
  O  O42  1  0.96809490  0.17551010  0.58215699  1
  O  O43  1  0.20725070  0.03676840  0.58311499  1
  O  O44  1  0.83566247  0.81015465  0.58489971  1
  O  O45  1  0.97449217  0.81015465  0.08489971  1
  O  O46  1  0.82951770  0.03676840  0.08311499  1
  O  O47  1  0.20741520  0.17551010  0.08215699  1
  O  O48  1  0.67657147  0.15804732  0.74361627  1
  O  O49  1  0.48528893  0.33979877  0.74645447  1
  O  O50  1  0.85236163  0.52978141  0.74525939  1
  O  O51  1  0.67742078  0.52978141  0.24525939  1
  O  O52  1  0.85451085  0.33979877  0.24645447  1
  O  O53  1  0.48147685  0.15804732  0.24361627  1
  O  O54  1  0.63490131  0.49634503  0.92344330  1
  O  O55  1  0.85848630  0.36413664  0.92265115  1
  O  O56  1  0.50475319  0.14402562  0.92404980  1
  O  O57  1  0.63927343  0.14402562  0.42404980  1
  O  O58  1  0.50565134  0.36413664  0.42265115  1
  O  O59  1  0.86144472  0.49634503  0.42344330  1
  O  O60  1  0.35790706  0.49036531  0.07823179  1
  O  O61  1  0.13940639  0.64450588  0.08018167  1
  O  O62  1  0.51090486  0.86593892  0.07598716  1
  O  O63  1  0.35503306  0.86593892  0.57598716  1
  O  O64  1  0.50509849  0.64450588  0.58018167  1
  O  O65  1  0.13245724  0.49036531  0.57823179  1
  O  O66  1  0.31668038  0.83120515  0.26048203  1
  O  O67  1  0.52292495  0.68654581  0.25939274  1
  O  O68  1  0.17249906  0.48251491  0.25954987  1
  O  O69  1  0.31001485  0.48251491  0.75954987  1
  O  O70  1  0.16361986  0.68654581  0.75939274  1
  O  O71  1  0.51452377  0.83120515  0.76048203  1
loop_
_geom_bond_atom_site_label_1
_geom_bond_atom_site_label_2
_geom_bond_distance
_geom_bond_site_symmetry_2
Na0 O52 2.318731 1_555
Na0 O51 2.475127 1_555
Na0 O15 2.500228 1_555
Na0 O66 2.523757 1_655
Na0 O68 2.621585 1_655
Na0 O11 2.683146 1_655
Na0 O1 2.875379 1_555
Na0 O30 2.881439 1_655
Na1 O49 2.318730 1_555
Na1 O50 2.475135 1_555
Na1 O14 2.500230 1_555
Na1 O71 2.523764 1_555
Na1 O69 2.621593 1_555
Na1 O6 2.683146 1_555
Na1 O4 2.875379 1_555
Na1 O35 2.881443 1_555
Na2 O43 2.384301 1_555
Na2 O64 2.396838 1_555
Na2 O65 2.456507 1_555
Na2 O7 2.477481 1_555
Na2 O28 2.526098 1_555
Na2 O42 2.552614 1_455
Na3 O64 2.392017 1_555
Na3 O42 2.397439 1_565
Na3 O44 2.420198 1_555
Na3 O27 2.475065 1_555
Na3 O63 2.482860 1_555
Na3 O6 2.538023 1_555
Na4 O61 2.392017 1_555
Na4 O47 2.397445 1_565
Na4 O45 2.420206 1_455
Na4 O26 2.475061 1_554
Na4 O62 2.482843 1_555
Na4 O11 2.538026 1_555
Na5 O46 2.384303 1_455
Na5 O61 2.396841 1_555
Na5 O60 2.456492 1_555
Na5 O10 2.477479 1_555
Na5 O25 2.526095 1_554
Na5 O47 2.552606 1_555
Na6 O36 2.369956 1_655
Na6 O37 2.458480 1_555
Na6 O38 2.478597 1_665
Na6 O44 2.558243 1_555
Na6 O43 2.658655 1_665
Na6 O42 2.736533 1_565
Na7 O41 2.369956 1_555
Na7 O40 2.458480 1_655
Na7 O39 2.478597 1_665
Na7 O45 2.558243 1_556
Na7 O46 2.658655 1_566
Na7 O47 2.736533 1_666
Na8 O48 2.303386 1_555
Na8 O49 2.421831 1_555
Na8 O50 2.574720 1_555
Na8 O56 2.619293 1_555
Na8 O55 2.705384 1_555
Na8 O54 2.817261 1_555
Na9 O53 2.303386 1_555
Na9 O52 2.421832 1_555
Na9 O51 2.574720 1_555
Na9 O57 2.619293 1_555
Na9 O58 2.705384 1_555
Na9 O59 2.817261 1_555
Na10 O60 2.474604 1_555
Na10 O62 2.526937 1_555
Na10 O61 2.563108 1_555
Na10 O67 2.594048 1_555
Na10 O68 2.689412 1_555
Na10 O66 2.707040 1_555
Na11 O65 2.474604 1_555
Na11 O63 2.526937 1_555
Na11 O64 2.563108 1_555
Na11 O70 2.594048 1_555
Na11 O69 2.689412 1_555
Na11 O71 2.707040 1_555
O0 P0 1.504090 1_555
O0 Zn0 2.014378 1_555
O1 S0 1.455739 1_555
O1 Zn0 2.167962 1_665
O2 P1 1.500550 1_555
O2 Zn0 1.975319 1_655
O3 P2 1.500550 1_555
O3 Zn1 1.975319 1_555
O4 S1 1.455739 1_655
O4 Zn1 2.167962 1_665
O5 P3 1.504090 1_555
O5 Zn1 2.014378 1_655
O6 P3 1.559347 1_565
O6 Zn2 2.021495 1_555
O7 P2 1.548844 1_555
O7 Zn2 2.048076 1_445
O8 S1 1.476594 1_555
O8 Zn2 2.075203 1_455
O9 S0 1.476594 1_555
O9 Zn3 2.075203 1_655
O10 P1 1.548844 1_455
O10 Zn3 2.048076 1_545
O11 P0 1.559347 1_565
O11 Zn3 2.021495 1_555
O12 S2 1.459440 1_555
O12 Zn4 2.118353 1_555
O13 S3 1.469816 1_555
O13 Zn4 2.047513 1_555
O14 P4 1.529176 1_555
O14 Zn4 2.034022 1_555
O15 P5 1.529176 1_555
O15 Zn5 2.034022 1_555
O16 S4 1.469816 1_555
O16 Zn5 2.047513 1_555
O17 S5 1.459440 1_555
O17 Zn5 2.118353 1_555
O18 S5 1.529671 1_555
O18 Ta0 2.059917 1_554
O19 P5 1.619483 1_555
O19 Ta0 1.947194 1_554
O20 S4 1.533399 1_555
O20 Ta0 2.090430 1_554
O21 S3 1.533399 1_555
O21 Ta1 2.090430 1_555
O22 P4 1.619483 1_555
O22 Ta1 1.947194 1_555
O23 S2 1.529671 1_555
O23 Ta1 2.059917 1_555
O24 P6 1.504555 1_555
O24 Zn6 1.956770 1_556
O25 P7 1.517073 1_555
O25 Zn6 1.971165 1_556
O26 P8 1.523637 1_555
O26 Zn6 1.975323 1_556
O27 P9 1.523637 1_555
O27 Zn7 1.975323 1_555
O28 P10 1.517073 1_555
O28 Zn7 1.971165 1_555
O29 P11 1.504555 1_555
O29 Zn7 1.956770 1_555
O30 P11 1.593111 1_555
O30 Ta2 1.960442 1_555
O31 P9 1.590072 1_555
O31 Ta2 1.977500 1_555
O32 P10 1.576493 1_555
O32 Ta2 1.982975 1_555
O33 P7 1.576493 1_555
O33 Ta3 1.982975 1_555
O34 P8 1.590072 1_555
O34 Ta3 1.977500 1_555
O35 P6 1.593111 1_555
O35 Ta3 1.960442 1_555
O36 P11 1.493618 1_555
O36 Zn0 2.150348 1_565
O37 P9 1.497665 1_555
O37 Zn0 2.116230 1_665
O38 P10 1.496475 1_555
O38 Zn0 2.046885 1_555
O39 P7 1.496478 1_555
O39 Zn1 2.046885 1_555
O40 P8 1.497657 1_555
O40 Zn1 2.116230 1_565
O41 P6 1.493623 1_555
O41 Zn1 2.150348 1_665
O42 S2 1.490823 1_555
O42 Zn2 2.414445 1_545
O43 S3 1.472133 1_555
O43 Zn2 2.424354 1_445
O44 P4 1.534840 1_555
O44 Zn2 2.237055 1_555
O45 P5 1.534844 1_555
O45 Zn3 2.237055 1_655
O46 S4 1.472124 1_555
O46 Zn3 2.424354 1_645
O47 S5 1.490828 1_555
O47 Zn3 2.414445 1_545
O48 P3 1.521431 1_555
O48 Zn4 2.034724 1_555
O49 P2 1.547162 1_555
O49 Zn4 2.078073 1_555
O50 S1 1.479405 1_655
O50 Zn4 2.205699 1_555
O51 S0 1.479408 1_555
O51 Zn5 2.205699 1_555
O52 P1 1.547153 1_555
O52 Zn5 2.078073 1_555
O53 P0 1.521436 1_555
O53 Zn5 2.034724 1_555
O54 P6 1.611801 1_555
O54 Ta0 1.933802 1_555
O55 P7 1.609216 1_655
O55 Ta0 1.948504 1_555
O56 P8 1.600387 1_545
O56 Ta0 1.998861 1_555
O57 P9 1.600379 1_545
O57 Ta1 1.998861 1_555
O58 P10 1.609234 1_555
O58 Ta1 1.948504 1_555
O59 P11 1.611792 1_655
O59 Ta1 1.933802 1_555
O60 S5 1.471665 1_555
O60 Zn6 2.310415 1_555
O61 P5 1.555133 1_455
O61 Zn6 2.255328 1_555
O62 S4 1.473439 1_565
O62 Zn6 2.243015 1_555
O63 S3 1.473432 1_565
O63 Zn7 2.243015 1_555
O64 P4 1.555150 1_555
O64 Zn7 2.255328 1_555
O65 S2 1.471654 1_455
O65 Zn7 2.310415 1_555
O66 P0 1.635013 1_565
O66 Ta2 1.977454 1_555
O67 S0 1.529361 1_555
O67 Ta2 2.056330 1_555
O68 P1 1.637505 1_455
O68 Ta2 1.986112 1_555
O69 P2 1.637509 1_555
O69 Ta3 1.986112 1_555
O70 S1 1.529352 1_555
O70 Ta3 2.056330 1_555
O71 P3 1.635018 1_565
O71 Ta3 1.977454 1_555
