# generated using pymatgen
data_Ba4Mg(CuO2)4
_symmetry_space_group_name_H-M   'P 1'
_cell_length_a   6.11349065
_cell_length_b   14.27669492
_cell_length_c   3.48538455
_cell_angle_alpha   90.05476922
_cell_angle_beta   89.99393566
_cell_angle_gamma   83.37126426
_symmetry_Int_Tables_number   1
_chemical_formula_structural   Ba4Mg(CuO2)4
_chemical_formula_sum   'Ba4 Mg1 Cu4 O8'
_cell_volume   302.17213739
_cell_formula_units_Z   1
loop_
 _symmetry_equiv_pos_site_id
 _symmetry_equiv_pos_as_xyz
  1  'x, y, z'
loop_
 _atom_site_type_symbol
 _atom_site_label
 _atom_site_symmetry_multiplicity
 _atom_site_fract_x
 _atom_site_fract_y
 _atom_site_fract_z
 _atom_site_occupancy
  Ba  Ba0  1  0.24943621  0.12014086  0.50028513  1
  Ba  Ba1  1  0.25092668  0.38048503  0.49966402  1
  Ba  Ba2  1  0.79164576  0.93829459  0.49944107  1
  Ba  Ba3  1  0.70828074  0.56216146  0.50050318  1
  Mg  Mg0  1  0.24992779  0.75033226  0.50006152  1
  Cu  Cu0  1  0.27723679  0.90631679  0.99952815  1
  Cu  Cu1  1  0.22236747  0.59447451  0.00053105  1
  Cu  Cu2  1  0.76481097  0.16407511  0.00010749  1
  Cu  Cu3  1  0.73514031  0.33609329  0.99986267  1
  O  O0  1  0.07404494  0.81954103  0.99865813  1
  O  O1  1  0.99255955  0.25635751  0.00015465  1
  O  O2  1  0.02779893  0.50827931  0.00017671  1
  O  O3  1  0.47231007  0.99230326  0.99980537  1
  O  O4  1  0.42569177  0.68116730  0.00137036  1
  O  O5  1  0.50728736  0.24371079  0.99990132  1
  O  O6  1  0.54023471  0.44438518  0.99989839  1
  O  O7  1  0.96029896  0.05588173  0.00004979  1
loop_
_geom_bond_atom_site_label_1
_geom_bond_atom_site_label_2
_geom_bond_distance
_geom_bond_site_symmetry_2
Ba0 O7 2.716080 1_456
Ba0 O7 2.716248 1_455
Ba0 O3 2.765789 1_544
Ba0 O3 2.766062 1_545
Ba0 O1 2.927695 1_456
Ba0 O1 2.930646 1_455
Ba0 O5 3.044062 1_555
Ba0 O5 3.047332 1_554
Ba1 O6 2.714688 1_554
Ba1 O6 2.714857 1_555
Ba1 O2 2.766136 1_556
Ba1 O2 2.766263 1_555
Ba1 O5 2.930826 1_554
Ba1 O5 2.934225 1_555
Ba1 O1 3.050784 1_455
Ba1 O1 3.054480 1_456
Ba2 O3 2.663485 1_554
Ba2 O3 2.663911 1_555
Ba2 O7 2.704757 1_565
Ba2 O7 2.705564 1_566
Ba2 O0 2.865834 1_655
Ba2 O0 2.866959 1_654
Ba3 O2 2.663981 1_656
Ba3 O2 2.664237 1_655
Ba3 O6 2.704885 1_555
Ba3 O6 2.705670 1_554
Ba3 O4 2.868159 1_555
Ba3 O4 2.869636 1_556
Mg0 O4 2.214075 1_555
Mg0 O0 2.214375 1_555
Mg0 O4 2.222903 1_556
Mg0 O0 2.223720 1_554
Cu0 O3 1.807553 1_555
Cu0 O0 1.852887 1_555
Cu1 O2 1.807531 1_555
Cu1 O4 1.852609 1_555
Cu2 O5 1.832487 1_554
Cu2 O7 1.840660 1_555
Cu2 O1 2.024324 1_555
Cu3 O1 1.832731 1_556
Cu3 O6 1.839772 1_555
Cu3 O5 2.025855 1_555
