# generated using pymatgen
data_Na3MgTaSi(PO6)2
_symmetry_space_group_name_H-M   'P 1'
_cell_length_a   8.98510866
_cell_length_b   9.02370919
_cell_length_c   22.11025670
_cell_angle_alpha   89.77994547
_cell_angle_beta   90.00000000
_cell_angle_gamma   119.85859612
_symmetry_Int_Tables_number   1
_chemical_formula_structural   Na3MgTaSi(PO6)2
_chemical_formula_sum   'Na18 Mg6 Ta6 Si6 P12 O72'
_cell_volume   1554.69655934
_cell_formula_units_Z   6
loop_
 _symmetry_equiv_pos_site_id
 _symmetry_equiv_pos_as_xyz
  1  'x, y, z'
loop_
 _atom_site_type_symbol
 _atom_site_label
 _atom_site_symmetry_multiplicity
 _atom_site_fract_x
 _atom_site_fract_y
 _atom_site_fract_z
 _atom_site_occupancy
  Na  Na0  1  0.99575300  0.00639186  0.49022849  1
  Na  Na1  1  0.01063886  0.00639186  0.99022849  1
  Na  Na2  1  0.67144851  0.32704225  0.82412270  1
  Na  Na3  1  0.65559474  0.32704225  0.32412270  1
  Na  Na4  1  0.34814332  0.65570249  0.15694837  1
  Na  Na5  1  0.30755818  0.65570249  0.65694837  1
  Na  Na6  1  0.65270758  0.01800060  0.24509155  1
  Na  Na7  1  0.98922060  0.62580785  0.23928745  1
  Na  Na8  1  0.63658725  0.62580785  0.73928745  1
  Na  Na9  1  0.36529302  0.01800060  0.74509155  1
  Na  Na10  1  0.31813511  0.35449718  0.58102947  1
  Na  Na11  1  0.64696756  0.95423166  0.57423902  1
  Na  Na12  1  0.30726510  0.95423166  0.07423902  1
  Na  Na13  1  0.03636307  0.35449718  0.08102947  1
  Na  Na14  1  0.98150185  0.68525836  0.91487776  1
  Na  Na15  1  0.69935442  0.01985459  0.90763201  1
  Na  Na16  1  0.32049917  0.01985459  0.40763201  1
  Na  Na17  1  0.70375551  0.68525836  0.41487776  1
  Mg  Mg0  1  0.00230352  0.00679361  0.35233602  1
  Mg  Mg1  1  0.00449009  0.00679361  0.85233602  1
  Mg  Mg2  1  0.67284683  0.33254362  0.68582176  1
  Mg  Mg3  1  0.65969779  0.33254362  0.18582176  1
  Mg  Mg4  1  0.33328798  0.66833058  0.01892693  1
  Mg  Mg5  1  0.33504160  0.66833058  0.51892693  1
  Ta  Ta0  1  0.99453021  0.99715593  0.64664842  1
  Ta  Ta1  1  0.00262572  0.99715593  0.14664842  1
  Ta  Ta2  1  0.66272941  0.33593919  0.97979858  1
  Ta  Ta3  1  0.67321078  0.33593919  0.47979858  1
  Ta  Ta4  1  0.33255501  0.66694502  0.31325362  1
  Ta  Ta5  1  0.33438901  0.66694502  0.81325362  1
  Si  Si0  1  0.29762137  0.00312691  0.25540574  1
  Si  Si1  1  0.70550554  0.00312691  0.75540574  1
  Si  Si2  1  0.66734297  0.62638534  0.58737157  1
  Si  Si3  1  0.95904337  0.62638534  0.08737157  1
  Si  Si4  1  0.33255039  0.96462057  0.91996602  1
  Si  Si5  1  0.63206919  0.96462057  0.41996602  1
  P  P0  1  0.70715213  0.70760488  0.25387092  1
  P  P1  1  0.00577856  0.29229852  0.25038797  1
  P  P2  1  0.28651997  0.29229852  0.75038797  1
  P  P3  1  0.00045275  0.70760488  0.75387092  1
  P  P4  1  0.95861442  0.33337313  0.58617878  1
  P  P5  1  0.37103966  0.04258843  0.58560821  1
  P  P6  1  0.67154977  0.04258843  0.08560821  1
  P  P7  1  0.37475971  0.33337313  0.08617878  1
  P  P8  1  0.61848343  0.66031085  0.91835711  1
  P  P9  1  0.04052997  0.37504373  0.92176339  1
  P  P10  1  0.33451276  0.37504373  0.42176339  1
  P  P11  1  0.04182642  0.66031085  0.41835711  1
  O  O0  1  0.20405876  0.00818187  0.31530483  1
  O  O1  1  0.80585643  0.78990257  0.31123923  1
  O  O2  1  0.97689777  0.17385595  0.30249138  1
  O  O3  1  0.19695818  0.17385595  0.80249138  1
  O  O4  1  0.98404614  0.78990257  0.81123923  1
  O  O5  1  0.80412311  0.00818187  0.81530483  1
  O  O6  1  0.81219709  0.97823626  0.69554426  1
  O  O7  1  0.18375482  0.20840732  0.68947391  1
  O  O8  1  0.03239179  0.83614928  0.69813505  1
  O  O9  1  0.80375749  0.83614928  0.19813505  1
  O  O10  1  0.02465250  0.20840732  0.18947391  1
  O  O11  1  0.16603916  0.97823626  0.19554426  1
  O  O12  1  0.87028628  0.34382749  0.64203853  1
  O  O13  1  0.47536136  0.12416722  0.64203114  1
  O  O14  1  0.64609620  0.51426951  0.64567962  1
  O  O15  1  0.86817432  0.51426951  0.14567962  1
  O  O16  1  0.64880686  0.12416722  0.14203114  1
  O  O17  1  0.47354221  0.34382749  0.14203853  1
  O  O18  1  0.46573318  0.30425224  0.02844376  1
  O  O19  1  0.83611590  0.52562140  0.02600463  1
  O  O20  1  0.69163672  0.16254094  0.02861461  1
  O  O21  1  0.47090523  0.16254094  0.52861461  1
  O  O22  1  0.68950650  0.52562140  0.52600463  1
  O  O23  1  0.83852007  0.30425224  0.52844376  1
  O  O24  1  0.52486395  0.67943374  0.97076729  1
  O  O25  1  0.13201824  0.45577340  0.97996770  1
  O  O26  1  0.31317408  0.85519156  0.97907327  1
  O  O27  1  0.54201648  0.85519156  0.47907327  1
  O  O28  1  0.32375416  0.45577340  0.47996770  1
  O  O29  1  0.15456880  0.67943374  0.47076729  1
  O  O30  1  0.12540602  0.63766207  0.35766207  1
  O  O31  1  0.49576050  0.85636844  0.36035169  1
  O  O32  1  0.35354965  0.49556775  0.36608685  1
  O  O33  1  0.14201710  0.49556775  0.86608685  1
  O  O34  1  0.36060694  0.85636844  0.86035169  1
  O  O35  1  0.51225505  0.63766207  0.85766207  1
  O  O36  1  0.00930666  0.81121046  0.41327313  1
  O  O37  1  0.81787032  0.98658301  0.41039254  1
  O  O38  1  0.19014811  0.19198722  0.41415835  1
  O  O39  1  0.00183911  0.19198722  0.91415835  1
  O  O40  1  0.16871269  0.98658301  0.91039254  1
  O  O41  1  0.80190380  0.81121046  0.91327313  1
  O  O42  1  0.96542595  0.15880791  0.58708676  1
  O  O43  1  0.19710968  0.04556851  0.58680559  1
  O  O44  1  0.84748870  0.82058735  0.58984058  1
  O  O45  1  0.97309866  0.82058735  0.08984058  1
  O  O46  1  0.84845883  0.04556851  0.08680559  1
  O  O47  1  0.19338196  0.15880791  0.08708676  1
  O  O48  1  0.66147247  0.15244857  0.74641662  1
  O  O49  1  0.47091072  0.32579524  0.74547784  1
  O  O50  1  0.84689556  0.53261301  0.74444696  1
  O  O51  1  0.68571846  0.53261301  0.24444696  1
  O  O52  1  0.85488552  0.32579524  0.24547784  1
  O  O53  1  0.49097710  0.15244857  0.24641662  1
  O  O54  1  0.63372052  0.49300028  0.92183875  1
  O  O55  1  0.86096506  0.37366178  0.92032147  1
  O  O56  1  0.51990586  0.14963857  0.92123617  1
  O  O57  1  0.62973371  0.14963857  0.42123617  1
  O  O58  1  0.51269772  0.37366178  0.42032147  1
  O  O59  1  0.85928076  0.49300028  0.42183875  1
  O  O60  1  0.34015549  0.47910472  0.07723609  1
  O  O61  1  0.15220342  0.65832402  0.08162808  1
  O  O62  1  0.52285327  0.86248592  0.07723883  1
  O  O63  1  0.33963164  0.86248592  0.57723883  1
  O  O64  1  0.50611960  0.65832402  0.58162808  1
  O  O65  1  0.13894823  0.47910472  0.57723609  1
  O  O66  1  0.29826612  0.81287486  0.25417339  1
  O  O67  1  0.52722830  0.70007530  0.25492831  1
  O  O68  1  0.17591732  0.47067707  0.25543886  1
  O  O69  1  0.29475875  0.47067707  0.75543886  1
  O  O70  1  0.17284600  0.70007530  0.75492831  1
  O  O71  1  0.51460774  0.81287486  0.75417339  1
loop_
_geom_bond_atom_site_label_1
_geom_bond_atom_site_label_2
_geom_bond_distance
_geom_bond_site_symmetry_2
Na0 O37 2.328166 1_545
Na0 O38 2.397952 1_655
Na0 O36 2.499714 1_645
Na0 O42 2.635895 1_555
Na0 O44 2.680338 1_545
Na0 O43 2.706818 1_655
Na1 O40 2.328166 1_545
Na1 O39 2.397952 1_555
Na1 O41 2.499714 1_445
Na1 O47 2.635895 1_556
Na1 O45 2.680338 1_446
Na1 O46 2.706818 1_456
Na2 O48 2.306996 1_555
Na2 O50 2.468339 1_555
Na2 O49 2.500079 1_555
Na2 O56 2.613498 1_555
Na2 O55 2.625685 1_555
Na2 O54 2.748783 1_555
Na3 O53 2.306996 1_555
Na3 O51 2.468339 1_555
Na3 O52 2.500079 1_555
Na3 O57 2.613498 1_555
Na3 O58 2.625685 1_555
Na3 O59 2.748783 1_555
Na4 O60 2.357660 1_555
Na4 O61 2.432000 1_555
Na4 O62 2.471878 1_555
Na4 O67 2.609170 1_555
Na4 O68 2.706267 1_555
Na4 O66 2.736739 1_555
Na5 O65 2.357660 1_555
Na5 O64 2.432000 1_555
Na5 O63 2.471878 1_555
Na5 O70 2.609170 1_555
Na5 O69 2.706267 1_555
Na5 O71 2.736739 1_555
Na6 O53 2.310885 1_555
Na6 O52 2.447565 1_555
Na6 O16 2.475505 1_555
Na6 O67 2.514633 1_545
Na6 O66 2.781419 1_545
Na6 O9 2.800603 1_545
Na6 O2 2.829857 1_555
Na6 O31 2.921279 1_545
Na7 O15 2.324987 1_555
Na7 O52 2.355454 1_555
Na7 O51 2.423330 1_555
Na7 O66 2.450596 1_655
Na7 O68 2.689880 1_655
Na7 O30 2.868934 1_655
Na7 O11 2.918685 1_655
Na8 O14 2.324990 1_555
Na8 O49 2.355453 1_555
Na8 O50 2.423338 1_555
Na8 O71 2.450603 1_555
Na8 O69 2.689888 1_555
Na8 O35 2.868938 1_555
Na8 O6 2.918685 1_555
Na9 O48 2.310893 1_555
Na9 O49 2.447564 1_555
Na9 O13 2.475507 1_555
Na9 O70 2.514634 1_545
Na9 O71 2.781412 1_545
Na9 O8 2.800603 1_545
Na9 O3 2.829857 1_555
Na9 O34 2.921277 1_545
Na10 O65 2.380204 1_555
Na10 O64 2.399792 1_555
Na10 O28 2.401897 1_555
Na10 O43 2.439019 1_555
Na10 O7 2.708442 1_555
Na10 O42 2.757800 1_455
Na10 O14 2.931015 1_555
Na10 O21 2.934369 1_555
Na11 O27 2.300140 1_555
Na11 O64 2.321648 1_555
Na11 O63 2.457351 1_555
Na11 O42 2.533864 1_565
Na11 O44 2.641930 1_555
Na12 O26 2.300136 1_554
Na12 O61 2.321648 1_555
Na12 O62 2.457334 1_555
Na12 O47 2.533870 1_565
Na12 O45 2.641938 1_455
Na13 O60 2.380187 1_555
Na13 O61 2.399794 1_555
Na13 O25 2.401894 1_554
Na13 O46 2.439020 1_455
Na13 O10 2.708440 1_555
Na13 O47 2.757792 1_555
Na13 O15 2.931015 1_455
Na13 O20 2.934369 1_455
Na14 O40 2.382514 1_655
Na14 O41 2.392276 1_555
Na14 O55 2.461427 1_555
Na14 O4 2.470815 1_555
Na14 O54 2.719944 1_555
Na14 O19 2.813840 1_556
Na14 O33 2.940432 1_655
Na14 O26 2.951878 1_655
Na15 O5 2.272632 1_555
Na15 O39 2.370324 1_655
Na15 O56 2.438169 1_555
Na15 O41 2.476865 1_545
Na15 O55 2.787653 1_555
Na16 O0 2.272628 1_555
Na16 O38 2.370317 1_555
Na16 O57 2.438186 1_555
Na16 O36 2.476858 1_545
Na16 O58 2.787654 1_555
Na17 O37 2.382513 1_555
Na17 O36 2.392284 1_655
Na17 O58 2.461425 1_555
Na17 O1 2.470816 1_555
Na17 O59 2.719959 1_555
Na17 O22 2.813844 1_555
Na17 O32 2.940432 1_555
Na17 O27 2.951878 1_555
Mg0 O2 1.967028 1_455
Mg0 O0 1.983448 1_555
Mg0 O37 2.030869 1_445
Mg0 O1 2.084604 1_445
Mg0 O38 2.172296 1_555
Mg0 O36 2.241965 1_545
Mg1 O3 1.967028 1_555
Mg1 O5 1.983448 1_455
Mg1 O40 2.030869 1_545
Mg1 O4 2.084604 1_445
Mg1 O39 2.172296 1_555
Mg1 O41 2.241965 1_445
Mg2 O12 1.978387 1_555
Mg2 O14 1.978859 1_555
Mg2 O48 2.065031 1_555
Mg2 O13 2.076881 1_555
Mg2 O50 2.142869 1_555
Mg2 O49 2.219229 1_555
Mg3 O17 1.978387 1_555
Mg3 O15 1.978859 1_555
Mg3 O53 2.065031 1_555
Mg3 O16 2.076881 1_555
Mg3 O51 2.142869 1_555
Mg3 O52 2.219229 1_555
Mg4 O24 1.983512 1_554
Mg4 O26 1.986039 1_554
Mg4 O25 2.061607 1_554
Mg4 O61 2.104798 1_555
Mg4 O60 2.160913 1_555
Mg4 O62 2.163073 1_555
Mg5 O29 1.983512 1_555
Mg5 O27 1.986039 1_555
Mg5 O28 2.061607 1_555
Mg5 O64 2.104798 1_555
Mg5 O65 2.160913 1_555
Mg5 O63 2.163073 1_555
O0 Si0 1.581597 1_555
O1 P0 1.516042 1_555
O2 P1 1.500394 1_655
O3 P2 1.500394 1_555
O4 P3 1.516042 1_655
O5 Si1 1.581597 1_555
O6 Si1 1.714030 1_565
O6 Ta0 1.897887 1_555
O7 P2 1.597317 1_555
O7 Ta0 2.051299 1_445
O8 P3 1.613706 1_555
O8 Ta0 2.000483 1_455
O9 P0 1.613706 1_555
O9 Ta1 2.000483 1_655
O10 P1 1.597317 1_555
O10 Ta1 2.051299 1_545
O11 Si0 1.714030 1_565
O11 Ta1 1.897887 1_555
O12 P4 1.496533 1_555
O13 P5 1.515528 1_555
O14 Si2 1.587358 1_555
O15 Si3 1.587358 1_555
O16 P6 1.515528 1_555
O17 P7 1.496533 1_555
O18 P7 1.607235 1_555
O18 Ta2 1.966033 1_554
O19 Si3 1.702118 1_555
O19 Ta2 1.938750 1_554
O20 P6 1.608465 1_555
O20 Ta2 2.018017 1_554
O21 P5 1.608465 1_555
O21 Ta3 2.018017 1_555
O22 Si2 1.702118 1_555
O22 Ta3 1.938750 1_555
O23 P4 1.607235 1_555
O23 Ta3 1.966034 1_555
O24 P8 1.492064 1_555
O25 P9 1.507810 1_555
O26 Si4 1.591293 1_555
O27 Si5 1.591293 1_555
O28 P10 1.507810 1_555
O29 P11 1.492064 1_555
O30 P11 1.600493 1_555
O30 Ta4 2.001620 1_555
O31 Si5 1.734994 1_555
O31 Ta4 1.916860 1_555
O32 P10 1.591218 1_555
O32 Ta4 2.017004 1_555
O33 P9 1.591218 1_555
O33 Ta5 2.017004 1_555
O34 Si4 1.734994 1_555
O34 Ta5 1.916860 1_555
O35 P8 1.600493 1_555
O35 Ta5 2.001620 1_555
O36 P11 1.532046 1_555
O37 Si5 1.594165 1_555
O38 P10 1.519231 1_555
O39 P9 1.519234 1_555
O40 Si4 1.594156 1_555
O41 P8 1.532051 1_555
O42 P4 1.606623 1_555
O42 Ta0 2.072571 1_545
O43 P5 1.576565 1_555
O43 Ta0 2.111506 1_445
O44 Si2 1.694187 1_555
O44 Ta0 1.944505 1_555
O45 Si3 1.694191 1_555
O45 Ta1 1.944505 1_655
O46 P6 1.576556 1_555
O46 Ta1 2.111506 1_645
O47 P7 1.606628 1_555
O47 Ta1 2.072571 1_545
O48 Si1 1.593857 1_555
O49 P2 1.532693 1_555
O50 P3 1.507879 1_655
O51 P0 1.507882 1_555
O52 P1 1.532684 1_655
O53 Si0 1.593863 1_555
O54 P8 1.583973 1_555
O54 Ta2 2.018103 1_555
O55 P9 1.607555 1_655
O55 Ta2 2.100155 1_555
O56 Si4 1.680446 1_545
O56 Ta2 2.004537 1_555
O57 Si5 1.680436 1_545
O57 Ta3 2.004537 1_555
O58 P10 1.607573 1_555
O58 Ta3 2.100155 1_555
O59 P11 1.583963 1_655
O59 Ta3 2.018103 1_555
O60 P7 1.506727 1_555
O61 Si3 1.616487 1_455
O62 P6 1.516835 1_565
O63 P5 1.516829 1_565
O64 Si2 1.616505 1_555
O65 P4 1.506715 1_455
O66 Si0 1.719991 1_565
O66 Ta4 1.981432 1_555
O67 P0 1.584073 1_555
O67 Ta4 2.070827 1_555
O68 P1 1.578481 1_555
O68 Ta4 2.070497 1_555
O69 P2 1.578485 1_555
O69 Ta5 2.070497 1_555
O70 P3 1.584064 1_555
O70 Ta5 2.070827 1_555
O71 Si1 1.719995 1_565
O71 Ta5 1.981432 1_555
