# generated using pymatgen
data_Er15C19
_symmetry_space_group_name_H-M   'P 1'
_cell_length_a   8.07404900
_cell_length_b   8.07404900
_cell_length_c   15.33417800
_cell_angle_alpha   90.00000000
_cell_angle_beta   90.00000000
_cell_angle_gamma   90.00000000
_symmetry_Int_Tables_number   1
_chemical_formula_structural   Er15C19
_chemical_formula_sum   'Er30 C38'
_cell_volume   999.63916195
_cell_formula_units_Z   2
loop_
 _symmetry_equiv_pos_site_id
 _symmetry_equiv_pos_as_xyz
  1  'x, y, z'
loop_
 _atom_site_type_symbol
 _atom_site_label
 _atom_site_symmetry_multiplicity
 _atom_site_fract_x
 _atom_site_fract_y
 _atom_site_fract_z
 _atom_site_occupancy
  Er  Er0  1  0.09819700  0.71530900  0.64980100  1
  Er  Er1  1  0.90180300  0.28469100  0.64980100  1
  Er  Er2  1  0.78469100  0.40180300  0.14980100  1
  Er  Er3  1  0.28469100  0.09819700  0.35019900  1
  Er  Er4  1  0.71530900  0.90180300  0.35019900  1
  Er  Er5  1  0.40180300  0.21530900  0.85019900  1
  Er  Er6  1  0.59819700  0.78469100  0.85019900  1
  Er  Er7  1  0.21530900  0.59819700  0.14980100  1
  Er  Er8  1  0.28469100  0.09819700  0.64980100  1
  Er  Er9  1  0.71530900  0.90180300  0.64980100  1
  Er  Er10  1  0.40180300  0.21530900  0.14980100  1
  Er  Er11  1  0.90180300  0.28469100  0.35019900  1
  Er  Er12  1  0.09819700  0.71530900  0.35019900  1
  Er  Er13  1  0.21530900  0.59819700  0.85019900  1
  Er  Er14  1  0.78469100  0.40180300  0.85019900  1
  Er  Er15  1  0.59819700  0.78469100  0.14980100  1
  Er  Er16  1  0.20288500  0.40658700  0.50000000  1
  Er  Er17  1  0.79711500  0.59341300  0.50000000  1
  Er  Er18  1  0.09341300  0.29711500  0.00000000  1
  Er  Er19  1  0.59341300  0.20288500  0.50000000  1
  Er  Er20  1  0.40658700  0.79711500  0.50000000  1
  Er  Er21  1  0.29711500  0.90658700  0.00000000  1
  Er  Er22  1  0.70288500  0.09341300  0.00000000  1
  Er  Er23  1  0.90658700  0.70288500  0.00000000  1
  Er  Er24  1  0.00000000  0.00000000  0.83076600  1
  Er  Er25  1  0.00000000  0.00000000  0.16923400  1
  Er  Er26  1  0.50000000  0.50000000  0.66923400  1
  Er  Er27  1  0.50000000  0.50000000  0.33076600  1
  Er  Er28  1  0.00000000  0.00000000  0.50000000  1
  Er  Er29  1  0.50000000  0.50000000  0.00000000  1
  C  C0  1  0.40385300  0.80308000  0.67146700  1
  C  C1  1  0.59614700  0.19692000  0.67146700  1
  C  C2  1  0.69692000  0.09614700  0.17146700  1
  C  C3  1  0.19692000  0.40385300  0.32853300  1
  C  C4  1  0.80308000  0.59614700  0.32853300  1
  C  C5  1  0.09614700  0.30308000  0.82853300  1
  C  C6  1  0.90385300  0.69692000  0.82853300  1
  C  C7  1  0.30308000  0.90385300  0.17146700  1
  C  C8  1  0.15145000  0.34855000  0.75000000  1
  C  C9  1  0.84855000  0.65145000  0.75000000  1
  C  C10  1  0.15145000  0.34855000  0.25000000  1
  C  C11  1  0.65145000  0.15145000  0.25000000  1
  C  C12  1  0.34855000  0.84855000  0.25000000  1
  C  C13  1  0.34855000  0.84855000  0.75000000  1
  C  C14  1  0.65145000  0.15145000  0.75000000  1
  C  C15  1  0.84855000  0.65145000  0.25000000  1
  C  C16  1  0.60240700  0.80245300  0.00000000  1
  C  C17  1  0.19692000  0.40385300  0.67146700  1
  C  C18  1  0.09614700  0.30308000  0.17146700  1
  C  C19  1  0.59614700  0.19692000  0.32853300  1
  C  C20  1  0.40385300  0.80308000  0.32853300  1
  C  C21  1  0.30308000  0.90385300  0.82853300  1
  C  C22  1  0.69692000  0.09614700  0.82853300  1
  C  C23  1  0.90385300  0.69692000  0.17146700  1
  C  C24  1  0.10240700  0.69754700  0.50000000  1
  C  C25  1  0.89759300  0.30245300  0.50000000  1
  C  C26  1  0.80245300  0.39759300  0.00000000  1
  C  C27  1  0.30245300  0.10240700  0.50000000  1
  C  C28  1  0.69754700  0.89759300  0.50000000  1
  C  C29  1  0.39759300  0.19754700  0.00000000  1
  C  C30  1  0.50000000  0.50000000  0.50000000  1
  C  C31  1  0.00000000  0.00000000  0.00000000  1
  C  C32  1  0.50000000  0.50000000  0.16308800  1
  C  C33  1  0.50000000  0.50000000  0.83691200  1
  C  C34  1  0.00000000  0.00000000  0.33691200  1
  C  C35  1  0.00000000  0.00000000  0.66308800  1
  C  C36  1  0.19754700  0.60240700  0.00000000  1
  C  C37  1  0.80308000  0.59614700  0.67146700  1
loop_
_geom_bond_atom_site_label_1
_geom_bond_atom_site_label_2
_geom_bond_distance
_geom_bond_site_symmetry_2
C0 C13 1.335797 1_555
C0 Er26 2.567493 1_555
C0 Er0 2.589020 1_555
C0 Er8 2.591088 1_565
C0 Er20 2.629839 1_555
C0 Er9 2.658855 1_555
C1 C14 1.335797 1_555
C1 Er26 2.567493 1_555
C1 Er1 2.589020 1_555
C1 Er9 2.591088 1_545
C1 Er19 2.629839 1_555
C1 Er8 2.658855 1_555
C2 Er25 2.567493 1_655
C2 Er2 2.589020 1_555
C2 Er10 2.591088 1_555
C2 Er22 2.629839 1_555
C2 Er15 2.658855 1_545
C3 Er27 2.567493 1_555
C3 Er3 2.589020 1_555
C3 Er11 2.591088 1_455
C3 Er16 2.629839 1_555
C3 Er12 2.658855 1_555
C4 Er27 2.567493 1_555
C4 Er4 2.589020 1_555
C4 Er12 2.591088 1_655
C4 Er17 2.629839 1_555
C4 Er11 2.658855 1_555
C5 C8 1.335797 1_555
C5 Er24 2.567493 1_555
C5 Er5 2.589020 1_555
C5 Er13 2.591088 1_555
C5 Er18 2.629839 1_556
C5 Er14 2.658855 1_455
C6 C9 1.335797 1_555
C6 Er24 2.567493 1_665
C6 Er6 2.589020 1_555
C6 Er14 2.591088 1_555
C6 Er23 2.629839 1_556
C6 Er13 2.658855 1_655
C7 Er25 2.567493 1_565
C7 Er7 2.589020 1_555
C7 Er15 2.591088 1_555
C7 Er21 2.629839 1_555
C7 Er10 2.658855 1_565
C8 Er1 2.586402 1_455
C8 Er13 2.586402 1_555
C8 Er5 2.757531 1_555
C8 Er8 2.757531 1_555
C9 Er14 2.586402 1_555
C9 Er0 2.586402 1_655
C9 Er6 2.757531 1_555
C9 Er9 2.757531 1_555
C10 C18 1.335797 1_555
C10 C3 1.335797 1_555
C10 Er11 2.586402 1_455
C10 Er7 2.586402 1_555
C10 Er3 2.757531 1_555
C10 Er10 2.757531 1_555
C11 C2 1.335797 1_555
C11 C19 1.335797 1_555
C11 Er4 2.586402 1_545
C11 Er10 2.586402 1_555
C11 Er11 2.757531 1_555
C11 Er2 2.757531 1_555
C12 C7 1.335797 1_555
C12 C20 1.335797 1_555
C12 Er15 2.586402 1_555
C12 Er3 2.586402 1_565
C12 Er12 2.757531 1_555
C12 Er7 2.757531 1_555
C13 C21 1.335797 1_555
C13 Er6 2.586402 1_555
C13 Er8 2.586402 1_565
C13 Er13 2.757531 1_555
C13 Er0 2.757531 1_555
C14 C22 1.335797 1_555
C14 Er9 2.586402 1_545
C14 Er5 2.586402 1_555
C14 Er1 2.757531 1_555
C14 Er14 2.757531 1_555
C15 C23 1.335797 1_555
C15 C4 1.335797 1_555
C15 Er2 2.586402 1_555
C15 Er12 2.586402 1_655
C15 Er4 2.757531 1_555
C15 Er15 2.757531 1_555
C16 Er6 2.301799 1_554
C16 Er15 2.301799 1_555
C16 Er22 2.485359 1_565
C16 Er29 2.578202 1_555
C16 Er23 2.584191 1_555
C16 Er21 2.604392 1_555
C17 C8 1.335797 1_555
C17 Er26 2.567493 1_555
C17 Er8 2.589020 1_555
C17 Er1 2.591088 1_455
C17 Er16 2.629839 1_555
C17 Er0 2.658855 1_555
C18 Er25 2.567493 1_555
C18 Er10 2.589020 1_555
C18 Er7 2.591088 1_555
C18 Er18 2.629839 1_555
C18 Er2 2.658855 1_455
C19 Er27 2.567493 1_555
C19 Er11 2.589020 1_555
C19 Er4 2.591088 1_545
C19 Er19 2.629839 1_555
C19 Er3 2.658855 1_555
C20 Er27 2.567493 1_555
C20 Er12 2.589020 1_555
C20 Er3 2.591088 1_565
C20 Er20 2.629839 1_555
C20 Er4 2.658855 1_555
C21 Er24 2.567493 1_565
C21 Er13 2.589020 1_555
C21 Er6 2.591088 1_555
C21 Er21 2.629839 1_556
C21 Er5 2.658855 1_565
C22 Er24 2.567493 1_655
C22 Er14 2.589020 1_555
C22 Er5 2.591088 1_555
C22 Er22 2.629839 1_556
C22 Er6 2.658855 1_545
C23 Er25 2.567493 1_665
C23 Er15 2.589020 1_555
C23 Er2 2.591088 1_555
C23 Er23 2.629839 1_555
C23 Er7 2.658855 1_655
C24 Er0 2.301799 1_555
C24 Er12 2.301799 1_555
C24 Er16 2.485359 1_555
C24 Er28 2.578202 1_565
C24 Er20 2.584191 1_555
C24 Er17 2.604392 1_455
C25 Er1 2.301799 1_555
C25 Er11 2.301799 1_555
C25 Er17 2.485359 1_555
C25 Er28 2.578202 1_655
C25 Er19 2.584191 1_555
C25 Er16 2.604392 1_655
C26 Er14 2.301799 1_554
C26 Er2 2.301799 1_555
C26 Er18 2.485359 1_655
C26 Er29 2.578202 1_555
C26 Er22 2.584191 1_555
C26 Er23 2.604392 1_555
C27 Er8 2.301799 1_555
C27 Er3 2.301799 1_555
C27 Er19 2.485359 1_555
C27 Er28 2.578202 1_555
C27 Er16 2.584191 1_555
C27 Er20 2.604392 1_545
C28 Er9 2.301799 1_555
C28 Er4 2.301799 1_555
C28 Er20 2.485359 1_555
C28 Er28 2.578202 1_665
C28 Er17 2.584191 1_555
C28 Er19 2.604392 1_565
C29 Er5 2.301799 1_554
C29 Er10 2.301799 1_555
C29 Er21 2.485359 1_545
C29 Er29 2.578202 1_555
C29 Er18 2.584191 1_555
C29 Er22 2.604392 1_555
C30 Er20 2.514691 1_555
C30 Er17 2.514691 1_555
C30 Er19 2.514691 1_555
C30 Er16 2.514691 1_555
C30 Er27 2.595064 1_555
C30 Er26 2.595064 1_555
C31 Er21 2.514691 1_545
C31 Er18 2.514691 1_555
C31 Er22 2.514691 1_455
C31 Er23 2.514691 1_445
C31 Er25 2.595064 1_555
C31 Er24 2.595064 1_554
C32 Er2 2.440025 1_555
C32 Er15 2.440025 1_555
C32 Er10 2.440025 1_555
C32 Er7 2.440025 1_555
C32 Er29 2.500820 1_555
C32 Er27 2.571204 1_555
C33 Er14 2.440025 1_555
C33 Er5 2.440025 1_555
C33 Er6 2.440025 1_555
C33 Er13 2.440025 1_555
C33 Er29 2.500820 1_556
C33 Er26 2.571204 1_555
C34 Er4 2.440025 1_445
C34 Er12 2.440025 1_545
C34 Er11 2.440025 1_455
C34 Er3 2.440025 1_555
C34 Er28 2.500820 1_555
C34 Er25 2.571204 1_555
C35 Er1 2.440025 1_455
C35 Er8 2.440025 1_555
C35 Er9 2.440025 1_445
C35 Er0 2.440025 1_545
C35 Er28 2.500820 1_555
C35 Er24 2.571204 1_555
C36 Er13 2.301799 1_554
C36 Er7 2.301799 1_555
C36 Er23 2.485359 1_455
C36 Er29 2.578202 1_555
C36 Er21 2.584191 1_555
C36 Er18 2.604392 1_555
C37 C9 1.335797 1_555
C37 Er26 2.567493 1_555
C37 Er9 2.589020 1_555
C37 Er0 2.591088 1_655
C37 Er17 2.629839 1_555
C37 Er1 2.658855 1_555
