# generated using pymatgen
data_Ge2P2SO12
_symmetry_space_group_name_H-M   'P 1'
_cell_length_a   8.30452947
_cell_length_b   8.32092566
_cell_length_c   21.58925747
_cell_angle_alpha   89.78848918
_cell_angle_beta   90.00000000
_cell_angle_gamma   119.93483857
_symmetry_Int_Tables_number   1
_chemical_formula_structural   Ge2P2SO12
_chemical_formula_sum   'Ge12 P12 S6 O72'
_cell_volume   1292.81343713
_cell_formula_units_Z   6
loop_
 _symmetry_equiv_pos_site_id
 _symmetry_equiv_pos_as_xyz
  1  'x, y, z'
loop_
 _atom_site_type_symbol
 _atom_site_label
 _atom_site_symmetry_multiplicity
 _atom_site_fract_x
 _atom_site_fract_y
 _atom_site_fract_z
 _atom_site_occupancy
  Ge  Ge0  1  0.99909027  0.00112314  0.35449063  1
  Ge  Ge1  1  0.00203287  0.00112314  0.85449063  1
  Ge  Ge2  1  0.99078450  0.00515067  0.64544916  1
  Ge  Ge3  1  0.01436617  0.00515067  0.14544916  1
  Ge  Ge4  1  0.66575727  0.33445614  0.68782363  1
  Ge  Ge5  1  0.66869987  0.33445614  0.18782363  1
  Ge  Ge6  1  0.65745150  0.33848367  0.97878216  1
  Ge  Ge7  1  0.68103317  0.33848367  0.47878216  1
  Ge  Ge8  1  0.33242327  0.66779014  0.02115763  1
  Ge  Ge9  1  0.33536587  0.66779014  0.52115763  1
  Ge  Ge10  1  0.32411750  0.67181767  0.31211616  1
  Ge  Ge11  1  0.34769917  0.67181767  0.81211616  1
  P  P0  1  0.29045591  0.00279828  0.25046214  1
  P  P1  1  0.00086267  0.28870843  0.24991843  1
  P  P2  1  0.28784576  0.28870843  0.74991843  1
  P  P3  1  0.71234237  0.00279828  0.75046214  1
  P  P4  1  0.95712291  0.33613128  0.58379514  1
  P  P5  1  0.66752967  0.62204143  0.58325143  1
  P  P6  1  0.95451276  0.62204143  0.08325143  1
  P  P7  1  0.37900937  0.33613128  0.08379514  1
  P  P8  1  0.62378891  0.66946528  0.91712914  1
  P  P9  1  0.33419567  0.95537543  0.91658543  1
  P  P10  1  0.62117876  0.95537543  0.41658543  1
  P  P11  1  0.04567537  0.66946528  0.41712914  1
  S  S0  1  0.70955193  0.71096520  0.24974760  1
  S  S1  1  0.00141327  0.71096520  0.74974760  1
  S  S2  1  0.37621893  0.04429820  0.58308060  1
  S  S3  1  0.66808027  0.04429820  0.08308060  1
  S  S4  1  0.04288493  0.37763220  0.91641460  1
  S  S5  1  0.33474627  0.37763220  0.41641460  1
  O  O0  1  0.20503583  0.03944887  0.30809703  1
  O  O1  1  0.82644027  0.78753024  0.30564073  1
  O  O2  1  0.96054596  0.16546329  0.30792401  1
  O  O3  1  0.20491733  0.16546329  0.80792401  1
  O  O4  1  0.96108997  0.78753024  0.80564073  1
  O  O5  1  0.83441304  0.03944887  0.80809703  1
  O  O6  1  0.79153335  0.95806677  0.69283257  1
  O  O7  1  0.16667673  0.20284972  0.69192618  1
  O  O8  1  0.03955529  0.82771662  0.69386264  1
  O  O9  1  0.78816133  0.82771662  0.19386264  1
  O  O10  1  0.03617299  0.20284972  0.19192618  1
  O  O11  1  0.16653342  0.95806677  0.19283257  1
  O  O12  1  0.87170283  0.37278187  0.64143003  1
  O  O13  1  0.49310727  0.12086324  0.63897373  1
  O  O14  1  0.62721296  0.49879629  0.64125701  1
  O  O15  1  0.87158433  0.49879629  0.14125701  1
  O  O16  1  0.62775697  0.12086324  0.13897373  1
  O  O17  1  0.50108004  0.37278187  0.14143003  1
  O  O18  1  0.45820035  0.29139977  0.02616557  1
  O  O19  1  0.83334373  0.53618272  0.02525918  1
  O  O20  1  0.70622229  0.16104962  0.02719564  1
  O  O21  1  0.45482833  0.16104962  0.52719564  1
  O  O22  1  0.70283999  0.53618272  0.52525918  1
  O  O23  1  0.83320042  0.29139977  0.52616557  1
  O  O24  1  0.53836883  0.70611587  0.97476403  1
  O  O25  1  0.15977327  0.45419724  0.97230773  1
  O  O26  1  0.29387896  0.83213029  0.97459101  1
  O  O27  1  0.53825033  0.83213029  0.47459101  1
  O  O28  1  0.29442297  0.45419724  0.47230773  1
  O  O29  1  0.16774604  0.70611587  0.47476403  1
  O  O30  1  0.12486635  0.62473377  0.35949957  1
  O  O31  1  0.50000973  0.86951672  0.35859318  1
  O  O32  1  0.37288829  0.49438362  0.36052964  1
  O  O33  1  0.12149433  0.49438362  0.86052964  1
  O  O34  1  0.36950599  0.86951672  0.85859318  1
  O  O35  1  0.49986642  0.62473377  0.85949957  1
  O  O36  1  0.02610557  0.84088123  0.40730068  1
  O  O37  1  0.81319508  0.97466480  0.40763428  1
  O  O38  1  0.16766445  0.19410674  0.40976084  1
  O  O39  1  0.02644229  0.19410674  0.90976084  1
  O  O40  1  0.16146972  0.97466480  0.90763428  1
  O  O41  1  0.81477567  0.84088123  0.90730068  1
  O  O42  1  0.97671843  0.16367383  0.59110045  1
  O  O43  1  0.19184933  0.02469934  0.59126197  1
  O  O44  1  0.84163512  0.81215284  0.59259069  1
  O  O45  1  0.97051772  0.81215284  0.09259069  1
  O  O46  1  0.83285001  0.02469934  0.09126197  1
  O  O47  1  0.18695540  0.16367383  0.09110045  1
  O  O48  1  0.69277257  0.17421423  0.74063368  1
  O  O49  1  0.47986208  0.30799780  0.74096728  1
  O  O50  1  0.83433145  0.52743974  0.74309384  1
  O  O51  1  0.69310929  0.52743974  0.24309384  1
  O  O52  1  0.82813672  0.30799780  0.24096728  1
  O  O53  1  0.48144267  0.17421423  0.24063368  1
  O  O54  1  0.64338543  0.49700683  0.92443345  1
  O  O55  1  0.85851633  0.35803234  0.92459497  1
  O  O56  1  0.50830212  0.14548584  0.92592369  1
  O  O57  1  0.63718472  0.14548584  0.42592369  1
  O  O58  1  0.49951701  0.35803234  0.42459497  1
  O  O59  1  0.85362240  0.49700683  0.42443345  1
  O  O60  1  0.35943857  0.50754823  0.07396768  1
  O  O61  1  0.14652808  0.64133180  0.07430128  1
  O  O62  1  0.50099745  0.86077374  0.07642784  1
  O  O63  1  0.35977529  0.86077374  0.57642784  1
  O  O64  1  0.49480272  0.64133180  0.57430128  1
  O  O65  1  0.14810867  0.50754823  0.57396768  1
  O  O66  1  0.31005143  0.83034083  0.25776745  1
  O  O67  1  0.52518233  0.69136634  0.25792897  1
  O  O68  1  0.17496812  0.47881984  0.25925769  1
  O  O69  1  0.30385072  0.47881984  0.75925769  1
  O  O70  1  0.16618301  0.69136634  0.75792897  1
  O  O71  1  0.52028840  0.83034083  0.75776745  1
loop_
_geom_bond_atom_site_label_1
_geom_bond_atom_site_label_2
_geom_bond_distance
_geom_bond_site_symmetry_2
Ge0 O37 1.845807 1_545
Ge0 O2 1.846570 1_555
Ge0 O36 1.848082 1_645
Ge0 O0 1.866352 1_655
Ge0 O38 1.932045 1_655
Ge0 O1 1.948679 1_545
Ge1 O40 1.845807 1_545
Ge1 O3 1.846570 1_555
Ge1 O41 1.848082 1_445
Ge1 O5 1.866352 1_455
Ge1 O39 1.932045 1_555
Ge1 O4 1.948679 1_445
Ge2 O42 1.809050 1_555
Ge2 O6 1.813284 1_545
Ge2 O44 1.855738 1_545
Ge2 O7 1.860278 1_655
Ge2 O43 1.977529 1_655
Ge2 O8 2.005421 1_645
Ge3 O47 1.809050 1_555
Ge3 O11 1.813284 1_545
Ge3 O45 1.855738 1_445
Ge3 O10 1.860278 1_555
Ge3 O46 1.977529 1_455
Ge3 O9 2.005421 1_445
Ge4 O49 1.845807 1_555
Ge4 O14 1.846570 1_555
Ge4 O48 1.848082 1_555
Ge4 O12 1.866352 1_555
Ge4 O50 1.932045 1_555
Ge4 O13 1.948679 1_555
Ge5 O52 1.845807 1_555
Ge5 O15 1.846570 1_555
Ge5 O53 1.848082 1_555
Ge5 O17 1.866352 1_555
Ge5 O51 1.932045 1_555
Ge5 O16 1.948679 1_555
Ge6 O54 1.809050 1_555
Ge6 O18 1.813284 1_556
Ge6 O56 1.855738 1_555
Ge6 O19 1.860278 1_556
Ge6 O55 1.977529 1_555
Ge6 O20 2.005421 1_556
Ge7 O59 1.809050 1_555
Ge7 O23 1.813284 1_555
Ge7 O57 1.855738 1_555
Ge7 O22 1.860278 1_555
Ge7 O58 1.977529 1_555
Ge7 O21 2.005421 1_555
Ge8 O61 1.845807 1_555
Ge8 O26 1.846570 1_554
Ge8 O60 1.848082 1_555
Ge8 O24 1.866352 1_554
Ge8 O62 1.932045 1_555
Ge8 O25 1.948679 1_554
Ge9 O64 1.845807 1_555
Ge9 O27 1.846570 1_555
Ge9 O65 1.848082 1_555
Ge9 O29 1.866352 1_555
Ge9 O63 1.932045 1_555
Ge9 O28 1.948679 1_555
Ge10 O66 1.809050 1_555
Ge10 O30 1.813284 1_555
Ge10 O68 1.855738 1_555
Ge10 O31 1.860278 1_555
Ge10 O67 1.977529 1_555
Ge10 O32 2.005421 1_555
Ge11 O71 1.809050 1_555
Ge11 O35 1.813284 1_555
Ge11 O69 1.855738 1_555
Ge11 O34 1.860278 1_555
Ge11 O70 1.977529 1_555
Ge11 O33 2.005421 1_555
O0 P0 1.537269 1_555
O1 S0 1.480784 1_555
O2 P1 1.542682 1_655
O3 P2 1.542682 1_555
O4 S1 1.480784 1_655
O5 P3 1.537269 1_555
O6 P3 1.538419 1_565
O7 P2 1.542596 1_555
O8 S1 1.477842 1_555
O9 S0 1.477842 1_555
O10 P1 1.542596 1_555
O11 P0 1.538419 1_565
O12 P4 1.537269 1_555
O13 S2 1.480784 1_555
O14 P5 1.542682 1_555
O15 P6 1.542682 1_555
O16 S3 1.480784 1_555
O17 P7 1.537269 1_555
O18 P7 1.538419 1_555
O19 P6 1.542596 1_555
O20 S3 1.477842 1_555
O21 S2 1.477842 1_555
O22 P5 1.542596 1_555
O23 P4 1.538419 1_555
O24 P8 1.537269 1_555
O25 S4 1.480784 1_555
O26 P9 1.542682 1_555
O27 P10 1.542682 1_555
O28 S5 1.480784 1_555
O29 P11 1.537269 1_555
O30 P11 1.538419 1_555
O31 P10 1.542596 1_555
O32 S5 1.477842 1_555
O33 S4 1.477842 1_555
O34 P9 1.542596 1_555
O35 P8 1.538419 1_555
O36 P11 1.528069 1_555
O37 P10 1.533038 1_555
O38 S5 1.471332 1_555
O39 S4 1.471335 1_555
O40 P9 1.533030 1_555
O41 P8 1.528074 1_555
O42 P4 1.530355 1_555
O43 S2 1.467193 1_555
O44 P5 1.534027 1_555
O45 P6 1.534030 1_555
O46 S3 1.467185 1_555
O47 P7 1.530360 1_555
O48 P3 1.528069 1_555
O49 P2 1.533038 1_555
O50 S1 1.471332 1_655
O51 S0 1.471335 1_555
O52 P1 1.533030 1_655
O53 P0 1.528074 1_555
O54 P8 1.530366 1_555
O55 S4 1.467179 1_655
O56 P9 1.534023 1_545
O57 P10 1.534016 1_545
O58 S5 1.467195 1_555
O59 P11 1.530356 1_655
O60 P7 1.528079 1_555
O61 P6 1.533024 1_455
O62 S3 1.471328 1_565
O63 S2 1.471321 1_565
O64 P5 1.533040 1_555
O65 P4 1.528070 1_455
O66 P0 1.530355 1_565
O67 S0 1.467193 1_555
O68 P1 1.534027 1_555
O69 P2 1.534030 1_555
O70 S1 1.467185 1_555
O71 P3 1.530360 1_565
