# generated using pymatgen
data_LiCr(PO3)4
_symmetry_space_group_name_H-M   'P 1'
_cell_length_a   8.46396817
_cell_length_b   8.46396817
_cell_length_c   7.69549923
_cell_angle_alpha   82.16126467
_cell_angle_beta   82.16126467
_cell_angle_gamma   112.17668680
_symmetry_Int_Tables_number   1
_chemical_formula_structural   LiCr(PO3)4
_chemical_formula_sum   'Li2 Cr2 P8 O24'
_cell_volume   495.02469959
_cell_formula_units_Z   2
loop_
 _symmetry_equiv_pos_site_id
 _symmetry_equiv_pos_as_xyz
  1  'x, y, z'
loop_
 _atom_site_type_symbol
 _atom_site_label
 _atom_site_symmetry_multiplicity
 _atom_site_fract_x
 _atom_site_fract_y
 _atom_site_fract_z
 _atom_site_occupancy
  Li  Li0  1  0.17892700  0.48573000  0.22831400  1
  Li  Li1  1  0.48573000  0.17892700  0.72831400  1
  Cr  Cr0  1  0.86937800  0.12584000  0.26265900  1
  Cr  Cr1  1  0.12584000  0.86937800  0.76265900  1
  P  P0  1  0.75816900  0.42141800  0.35007100  1
  P  P1  1  0.58244700  0.23214000  0.10811400  1
  P  P2  1  0.79778100  0.95630900  0.68437300  1
  P  P3  1  0.42141800  0.75816900  0.85007100  1
  P  P4  1  0.23214000  0.58244700  0.60811400  1
  P  P5  1  0.21062200  0.05728600  0.34277700  1
  P  P6  1  0.05728600  0.21062200  0.84277700  1
  P  P7  1  0.95630900  0.79778100  0.18437300  1
  O  O0  1  0.62352500  0.33926300  0.51572400  1
  O  O1  1  0.74300100  0.00435300  0.51391700  1
  O  O2  1  0.12927000  0.88533500  0.26215200  1
  O  O3  1  0.36122100  0.90806600  0.81696600  1
  O  O4  1  0.00435300  0.74300100  0.01391700  1
  O  O5  1  0.62790400  0.84808200  0.83752800  1
  O  O6  1  0.10145000  0.64466400  0.69839400  1
  O  O7  1  0.85476300  0.91052200  0.18168500  1
  O  O8  1  0.91052200  0.85476300  0.68168500  1
  O  O9  1  0.41335400  0.67290900  0.67336700  1
  O  O10  1  0.33926300  0.62352500  0.01572400  1
  O  O11  1  0.26686100  0.59603200  0.41254900  1
  O  O12  1  0.17570900  0.37955300  0.69862800  1
  O  O13  1  0.84808200  0.62790400  0.33752800  1
  O  O14  1  0.64466400  0.10145000  0.19839400  1
  O  O15  1  0.67290900  0.41335400  0.17336700  1
  O  O16  1  0.00780200  0.25933200  0.01705700  1
  O  O17  1  0.09290900  0.15544000  0.34338600  1
  O  O18  1  0.59603200  0.26686100  0.91254900  1
  O  O19  1  0.15544000  0.09290900  0.84338600  1
  O  O20  1  0.90806600  0.36122100  0.31696600  1
  O  O21  1  0.37955300  0.17570900  0.19862800  1
  O  O22  1  0.25933200  0.00780200  0.51705700  1
  O  O23  1  0.88533500  0.12927000  0.76215200  1
loop_
_geom_bond_atom_site_label_1
_geom_bond_atom_site_label_2
_geom_bond_distance
_geom_bond_site_symmetry_2
Li0 O10 1.886117 1_555
Li0 O11 1.886784 1_555
Li0 O20 2.094087 1_455
Li1 O0 1.886117 1_555
Li1 O18 1.886784 1_555
Li1 O3 2.094087 1_545
Cr0 O7 1.971169 1_545
Cr0 O14 1.972994 1_555
Cr0 O1 2.000827 1_555
Cr0 O20 2.005721 1_555
Cr0 O17 2.008340 1_655
Cr0 O16 2.008888 1_655
Cr1 O8 1.971169 1_455
Cr1 O6 1.972994 1_555
Cr1 O4 2.000827 1_556
Cr1 O3 2.005721 1_555
Cr1 O19 2.008340 1_565
Cr1 O22 2.008888 1_565
O0 P0 1.473441 1_555
O1 P2 1.504574 1_545
O2 P5 1.607339 1_565
O2 P7 1.609827 1_455
O3 P3 1.539286 1_555
O4 P7 1.504574 1_455
O5 P2 1.595158 1_555
O5 P3 1.603984 1_555
O6 P4 1.521016 1_555
O7 P7 1.506095 1_555
O8 P2 1.506095 1_555
O9 P4 1.618429 1_555
O9 P3 1.621835 1_555
O10 P3 1.473441 1_554
O11 P4 1.473489 1_555
O12 P6 1.568996 1_555
O12 P4 1.620539 1_555
O13 P7 1.595158 1_555
O13 P0 1.603984 1_555
O14 P1 1.521016 1_555
O15 P1 1.618429 1_555
O15 P0 1.621835 1_555
O16 P6 1.507347 1_554
O17 P5 1.519049 1_555
O18 P1 1.473489 1_556
O19 P6 1.519049 1_555
O20 P0 1.539286 1_555
O21 P5 1.568996 1_555
O21 P1 1.620539 1_555
O22 P5 1.507347 1_555
O23 P6 1.607339 1_655
O23 P2 1.609827 1_545
