# generated using pymatgen
data_TiCdO3
_symmetry_space_group_name_H-M   'P 1'
_cell_length_a   5.40074700
_cell_length_b   5.52300900
_cell_length_c   7.69216300
_cell_angle_alpha   90.00000000
_cell_angle_beta   90.00000000
_cell_angle_gamma   90.00000000
_symmetry_Int_Tables_number   1
_chemical_formula_structural   TiCdO3
_chemical_formula_sum   'Ti4 Cd4 O12'
_cell_volume   229.44471705
_cell_formula_units_Z   4
loop_
 _symmetry_equiv_pos_site_id
 _symmetry_equiv_pos_as_xyz
  1  'x, y, z'
loop_
 _atom_site_type_symbol
 _atom_site_label
 _atom_site_symmetry_multiplicity
 _atom_site_fract_x
 _atom_site_fract_y
 _atom_site_fract_z
 _atom_site_occupancy
  Ti  Ti0  1  0.75657100  0.66841200  0.25074900  1
  Ti  Ti1  1  0.24342900  0.16841200  0.74925100  1
  Ti  Ti2  1  0.24342900  0.16841200  0.25074900  1
  Ti  Ti3  1  0.75657100  0.66841200  0.74925100  1
  Cd  Cd0  1  0.26100300  0.69459500  0.50000000  1
  Cd  Cd1  1  0.73899700  0.19459500  0.50000000  1
  Cd  Cd2  1  0.75025900  0.11669600  0.00000000  1
  Cd  Cd3  1  0.24974100  0.61669600  0.00000000  1
  O  O0  1  0.04985000  0.84138400  0.79524000  1
  O  O1  1  0.95015000  0.34138400  0.20476000  1
  O  O2  1  0.95015000  0.34138400  0.79524000  1
  O  O3  1  0.04985000  0.84138400  0.20476000  1
  O  O4  1  0.44457500  0.43941100  0.70249400  1
  O  O5  1  0.55542500  0.93941100  0.29750600  1
  O  O6  1  0.55542500  0.93941100  0.70249400  1
  O  O7  1  0.44457500  0.43941100  0.29750600  1
  O  O8  1  0.16199300  0.11098400  0.50000000  1
  O  O9  1  0.83800700  0.61098400  0.50000000  1
  O  O10  1  0.33673800  0.16941100  0.00000000  1
  O  O11  1  0.66326200  0.66941100  0.00000000  1
loop_
_geom_bond_atom_site_label_1
_geom_bond_atom_site_label_2
_geom_bond_distance
_geom_bond_site_symmetry_2
Cd0 O4 2.322812 1_555
Cd0 O7 2.322812 1_555
Cd0 O9 2.330699 1_455
Cd0 O8 2.361069 1_565
Cd0 O6 2.604384 1_555
Cd0 O5 2.604384 1_555
Cd0 O3 2.667458 1_555
Cd0 O0 2.667458 1_555
Cd1 O6 2.322812 1_545
Cd1 O5 2.322812 1_545
Cd1 O8 2.330699 1_655
Cd1 O9 2.361069 1_555
Cd1 O4 2.604384 1_555
Cd1 O7 2.604384 1_555
Cd1 O1 2.667458 1_555
Cd1 O2 2.667458 1_555
Cd2 O10 2.252220 1_555
Cd2 O2 2.277321 1_554
Cd2 O1 2.277321 1_555
Cd2 O11 2.514643 1_545
Cd2 O5 2.702411 1_545
Cd2 O6 2.702411 1_544
Cd2 O0 2.722282 1_644
Cd2 O3 2.722282 1_645
Cd3 O11 2.252220 1_555
Cd3 O0 2.277321 1_554
Cd3 O3 2.277321 1_555
Cd3 O10 2.514643 1_555
Cd3 O7 2.702411 1_555
Cd3 O4 2.702411 1_554
Cd3 O1 2.722282 1_455
Cd3 O2 2.722282 1_454
O0 Ti3 1.883245 1_455
O0 Ti1 2.116703 1_565
O1 Ti2 1.883245 1_655
O1 Ti0 2.116703 1_555
O2 Ti1 1.883245 1_655
O2 Ti3 2.116703 1_555
O3 Ti0 1.883245 1_455
O3 Ti2 2.116703 1_565
O4 Ti1 1.884062 1_555
O4 Ti3 2.137352 1_555
O5 Ti0 1.884062 1_555
O5 Ti2 2.137352 1_565
O6 Ti3 1.884062 1_555
O6 Ti1 2.137352 1_565
O7 Ti2 1.884062 1_555
O7 Ti0 2.137352 1_555
O8 Ti1 1.992485 1_555
O8 Ti2 1.992485 1_555
O9 Ti0 1.992485 1_555
O9 Ti3 1.992485 1_555
O10 Ti2 1.993555 1_555
O10 Ti1 1.993555 1_554
O11 Ti0 1.993555 1_555
O11 Ti3 1.993555 1_554
