# generated using pymatgen
data_Al2(SO4)3
_symmetry_space_group_name_H-M   'P 1'
_cell_length_a   8.27112029
_cell_length_b   8.27112006
_cell_length_c   21.47436054
_cell_angle_alpha   90.00000000
_cell_angle_beta   90.00000000
_cell_angle_gamma   120.00000096
_symmetry_Int_Tables_number   1
_chemical_formula_structural   Al2(SO4)3
_chemical_formula_sum   'Al12 S18 O72'
_cell_volume   1272.27071192
_cell_formula_units_Z   6
loop_
 _symmetry_equiv_pos_site_id
 _symmetry_equiv_pos_as_xyz
  1  'x, y, z'
loop_
 _atom_site_type_symbol
 _atom_site_label
 _atom_site_symmetry_multiplicity
 _atom_site_fract_x
 _atom_site_fract_y
 _atom_site_fract_z
 _atom_site_occupancy
  Al  Al0  1  0.00000000  0.00000000  0.35425485  1
  Al  Al1  1  0.00000000  0.00000000  0.85425485  1
  Al  Al2  1  0.00000000  0.00000000  0.64574515  1
  Al  Al3  1  0.00000000  0.00000000  0.14574515  1
  Al  Al4  1  0.66666700  0.33333300  0.68758785  1
  Al  Al5  1  0.66666700  0.33333300  0.18758785  1
  Al  Al6  1  0.66666700  0.33333300  0.97907815  1
  Al  Al7  1  0.66666700  0.33333300  0.47907815  1
  Al  Al8  1  0.33333300  0.66666700  0.02092185  1
  Al  Al9  1  0.33333300  0.66666700  0.52092185  1
  Al  Al10  1  0.33333300  0.66666700  0.31241215  1
  Al  Al11  1  0.33333300  0.66666700  0.81241215  1
  S  S0  1  0.28921370  0.00000000  0.25000000  1
  S  S1  1  0.71078630  0.71078630  0.25000000  1
  S  S2  1  1.00000000  0.28921370  0.25000000  1
  S  S3  1  0.28921370  0.28921370  0.75000000  1
  S  S4  1  0.00000000  0.71078630  0.75000000  1
  S  S5  1  0.71078630  0.00000000  0.75000000  1
  S  S6  1  0.95588070  0.33333300  0.58333300  1
  S  S7  1  0.37745330  0.04411930  0.58333300  1
  S  S8  1  0.66666700  0.62254670  0.58333300  1
  S  S9  1  0.95588070  0.62254670  0.08333300  1
  S  S10  1  0.66666700  0.04411930  0.08333300  1
  S  S11  1  0.37745330  0.33333300  0.08333300  1
  S  S12  1  0.62254670  0.66666700  0.91666700  1
  S  S13  1  0.04411930  0.37745330  0.91666700  1
  S  S14  1  0.33333300  0.95588070  0.91666700  1
  S  S15  1  0.62254670  0.95588070  0.41666700  1
  S  S16  1  0.33333300  0.37745330  0.41666700  1
  S  S17  1  0.04411930  0.66666700  0.41666700  1
  O  O0  1  0.20637489  0.03559950  0.30567053  1
  O  O1  1  0.82922461  0.79362511  0.30567053  1
  O  O2  1  0.96440050  0.17077539  0.30567053  1
  O  O3  1  0.20637489  0.17077539  0.80567053  1
  O  O4  1  0.96440050  0.79362511  0.80567053  1
  O  O5  1  0.82922461  0.03559950  0.80567053  1
  O  O6  1  0.79362511  0.96440050  0.69432947  1
  O  O7  1  0.17077539  0.20637489  0.69432947  1
  O  O8  1  0.03559950  0.82922461  0.69432947  1
  O  O9  1  0.79362511  0.82922461  0.19432947  1
  O  O10  1  0.03559950  0.20637489  0.19432947  1
  O  O11  1  0.17077539  0.96440050  0.19432947  1
  O  O12  1  0.87304189  0.36893250  0.63900353  1
  O  O13  1  0.49589161  0.12695811  0.63900353  1
  O  O14  1  0.63106750  0.50410839  0.63900353  1
  O  O15  1  0.87304189  0.50410839  0.13900353  1
  O  O16  1  0.63106750  0.12695811  0.13900353  1
  O  O17  1  0.49589161  0.36893250  0.13900353  1
  O  O18  1  0.46029211  0.29773350  0.02766247  1
  O  O19  1  0.83744239  0.53970789  0.02766247  1
  O  O20  1  0.70226650  0.16255761  0.02766247  1
  O  O21  1  0.46029211  0.16255761  0.52766247  1
  O  O22  1  0.70226650  0.53970789  0.52766247  1
  O  O23  1  0.83744239  0.29773350  0.52766247  1
  O  O24  1  0.53970789  0.70226650  0.97233753  1
  O  O25  1  0.16255761  0.46029211  0.97233753  1
  O  O26  1  0.29773350  0.83744239  0.97233753  1
  O  O27  1  0.53970789  0.83744239  0.47233753  1
  O  O28  1  0.29773350  0.46029211  0.47233753  1
  O  O29  1  0.16255761  0.70226650  0.47233753  1
  O  O30  1  0.12695811  0.63106750  0.36099647  1
  O  O31  1  0.50410839  0.87304189  0.36099647  1
  O  O32  1  0.36893250  0.49589161  0.36099647  1
  O  O33  1  0.12695811  0.49589161  0.86099647  1
  O  O34  1  0.36893250  0.87304189  0.86099647  1
  O  O35  1  0.50410839  0.63106750  0.86099647  1
  O  O36  1  0.02567869  0.83263145  0.40771217  1
  O  O37  1  0.80695276  0.97432131  0.40771217  1
  O  O38  1  0.16736855  0.19304724  0.40771217  1
  O  O39  1  0.02567869  0.19304724  0.90771217  1
  O  O40  1  0.16736855  0.97432131  0.90771217  1
  O  O41  1  0.80695276  0.83263145  0.90771217  1
  O  O42  1  0.97432131  0.16736855  0.59228783  1
  O  O43  1  0.19304724  0.02567869  0.59228783  1
  O  O44  1  0.83263145  0.80695276  0.59228783  1
  O  O45  1  0.97432131  0.80695276  0.09228783  1
  O  O46  1  0.83263145  0.02567869  0.09228783  1
  O  O47  1  0.19304724  0.16736855  0.09228783  1
  O  O48  1  0.69234569  0.16596445  0.74104517  1
  O  O49  1  0.47361976  0.30765431  0.74104517  1
  O  O50  1  0.83403555  0.52638024  0.74104517  1
  O  O51  1  0.69234569  0.52638024  0.24104517  1
  O  O52  1  0.83403555  0.30765431  0.24104517  1
  O  O53  1  0.47361976  0.16596445  0.24104517  1
  O  O54  1  0.64098831  0.50070155  0.92562083  1
  O  O55  1  0.85971424  0.35901169  0.92562083  1
  O  O56  1  0.49929845  0.14028576  0.92562083  1
  O  O57  1  0.64098831  0.14028576  0.42562083  1
  O  O58  1  0.49929845  0.35901169  0.42562083  1
  O  O59  1  0.85971424  0.50070155  0.42562083  1
  O  O60  1  0.35901169  0.49929845  0.07437917  1
  O  O61  1  0.14028576  0.64098831  0.07437917  1
  O  O62  1  0.50070155  0.85971424  0.07437917  1
  O  O63  1  0.35901169  0.85971424  0.57437917  1
  O  O64  1  0.50070155  0.64098831  0.57437917  1
  O  O65  1  0.14028576  0.49929845  0.57437917  1
  O  O66  1  0.30765431  0.83403555  0.25895483  1
  O  O67  1  0.52638024  0.69234569  0.25895483  1
  O  O68  1  0.16596445  0.47361976  0.25895483  1
  O  O69  1  0.30765431  0.47361976  0.75895483  1
  O  O70  1  0.16596445  0.69234569  0.75895483  1
  O  O71  1  0.52638024  0.83403555  0.75895483  1
loop_
_geom_bond_atom_site_label_1
_geom_bond_atom_site_label_2
_geom_bond_distance
_geom_bond_site_symmetry_2
Al0 O38 1.890318 1_555
Al0 O36 1.890318 1_545
Al0 O37 1.890318 1_445
Al0 O1 1.893749 1_445
Al0 O2 1.893749 1_455
Al0 O0 1.893749 1_555
Al1 O39 1.890318 1_555
Al1 O41 1.890318 1_445
Al1 O40 1.890318 1_545
Al1 O4 1.893749 1_445
Al1 O3 1.893749 1_555
Al1 O5 1.893749 1_455
Al2 O44 1.890318 1_445
Al2 O42 1.890318 1_455
Al2 O43 1.890318 1_555
Al2 O7 1.893749 1_555
Al2 O8 1.893749 1_545
Al2 O6 1.893749 1_445
Al3 O45 1.890318 1_445
Al3 O47 1.890318 1_555
Al3 O46 1.890318 1_455
Al3 O10 1.893749 1_555
Al3 O9 1.893749 1_445
Al3 O11 1.893749 1_545
Al4 O50 1.890318 1_555
Al4 O48 1.890318 1_555
Al4 O49 1.890318 1_555
Al4 O13 1.893749 1_555
Al4 O14 1.893749 1_555
Al4 O12 1.893749 1_555
Al5 O51 1.890318 1_555
Al5 O53 1.890318 1_555
Al5 O52 1.890318 1_555
Al5 O16 1.893749 1_555
Al5 O15 1.893749 1_555
Al5 O17 1.893749 1_555
Al6 O56 1.890318 1_555
Al6 O54 1.890318 1_555
Al6 O55 1.890318 1_555
Al6 O19 1.893749 1_556
Al6 O20 1.893749 1_556
Al6 O18 1.893749 1_556
Al7 O57 1.890318 1_555
Al7 O59 1.890318 1_555
Al7 O58 1.890318 1_555
Al7 O22 1.893749 1_555
Al7 O21 1.893749 1_555
Al7 O23 1.893749 1_555
Al8 O62 1.890318 1_555
Al8 O60 1.890318 1_555
Al8 O61 1.890318 1_555
Al8 O25 1.893749 1_554
Al8 O26 1.893749 1_554
Al8 O24 1.893749 1_554
Al9 O63 1.890318 1_555
Al9 O65 1.890318 1_555
Al9 O64 1.890318 1_555
Al9 O28 1.893749 1_555
Al9 O27 1.893749 1_555
Al9 O29 1.893749 1_555
Al10 O68 1.890318 1_555
Al10 O66 1.890318 1_555
Al10 O67 1.890318 1_555
Al10 O31 1.893749 1_555
Al10 O32 1.893749 1_555
Al10 O30 1.893749 1_555
Al11 O69 1.890318 1_555
Al11 O71 1.890318 1_555
Al11 O70 1.890318 1_555
Al11 O34 1.893749 1_555
Al11 O33 1.893749 1_555
Al11 O35 1.893749 1_555
O0 S0 1.478884 1_555
O1 S1 1.478884 1_555
O2 S2 1.478884 1_555
O3 S3 1.478884 1_555
O4 S4 1.478884 1_655
O5 S5 1.478884 1_555
O6 S5 1.478884 1_565
O7 S3 1.478884 1_555
O8 S4 1.478884 1_555
O9 S1 1.478884 1_555
O10 S2 1.478884 1_455
O11 S0 1.478884 1_565
O12 S6 1.478884 1_555
O13 S7 1.478884 1_555
O14 S8 1.478884 1_555
O15 S9 1.478884 1_555
O16 S10 1.478884 1_555
O17 S11 1.478884 1_555
O18 S11 1.478884 1_555
O19 S9 1.478884 1_555
O20 S10 1.478884 1_555
O21 S7 1.478884 1_555
O22 S8 1.478884 1_555
O23 S6 1.478884 1_555
O24 S12 1.478884 1_555
O25 S13 1.478884 1_555
O26 S14 1.478884 1_555
O27 S15 1.478884 1_555
O28 S16 1.478884 1_555
O29 S17 1.478884 1_555
O30 S17 1.478884 1_555
O31 S15 1.478884 1_555
O32 S16 1.478884 1_555
O33 S13 1.478884 1_555
O34 S14 1.478884 1_555
O35 S12 1.478884 1_555
O36 S17 1.467635 1_555
O37 S15 1.467643 1_555
O38 S16 1.467640 1_555
O39 S13 1.467643 1_555
O40 S14 1.467635 1_555
O41 S12 1.467640 1_555
O42 S6 1.467635 1_555
O43 S7 1.467643 1_555
O44 S8 1.467640 1_555
O45 S9 1.467643 1_555
O46 S10 1.467635 1_555
O47 S11 1.467640 1_555
O48 S5 1.467635 1_555
O49 S3 1.467643 1_555
O50 S4 1.467640 1_655
O51 S1 1.467643 1_555
O52 S2 1.467635 1_555
O53 S0 1.467640 1_555
O54 S12 1.467645 1_555
O55 S13 1.467629 1_655
O56 S14 1.467636 1_545
O57 S15 1.467629 1_545
O58 S16 1.467645 1_555
O59 S17 1.467636 1_655
O60 S11 1.467645 1_555
O61 S9 1.467629 1_455
O62 S10 1.467636 1_565
O63 S7 1.467629 1_565
O64 S8 1.467645 1_555
O65 S6 1.467636 1_455
O66 S0 1.467635 1_565
O67 S1 1.467643 1_555
O68 S2 1.467640 1_455
O69 S3 1.467643 1_555
O70 S4 1.467635 1_555
O71 S5 1.467640 1_565
