# generated using pymatgen
data_Rb4PbBr6
_symmetry_space_group_name_H-M   'P 1'
_cell_length_a   9.50261891
_cell_length_b   9.50261891
_cell_length_c   9.50261853
_cell_angle_alpha   89.65971010
_cell_angle_beta   89.65971010
_cell_angle_gamma   89.65970619
_symmetry_Int_Tables_number   1
_chemical_formula_structural   Rb4PbBr6
_chemical_formula_sum   'Rb8 Pb2 Br12'
_cell_volume   858.03900769
_cell_formula_units_Z   2
loop_
 _symmetry_equiv_pos_site_id
 _symmetry_equiv_pos_as_xyz
  1  'x, y, z'
loop_
 _atom_site_type_symbol
 _atom_site_label
 _atom_site_symmetry_multiplicity
 _atom_site_fract_x
 _atom_site_fract_y
 _atom_site_fract_z
 _atom_site_occupancy
  Rb  Rb0  1  0.25000000  0.25000000  0.25000000  1
  Rb  Rb1  1  0.75000000  0.75000000  0.75000000  1
  Rb  Rb2  1  0.75000000  0.12935957  0.37064043  1
  Rb  Rb3  1  0.37064043  0.75000000  0.12935957  1
  Rb  Rb4  1  0.12935957  0.37064043  0.75000000  1
  Rb  Rb5  1  0.25000000  0.87064043  0.62935957  1
  Rb  Rb6  1  0.62935957  0.25000000  0.87064043  1
  Rb  Rb7  1  0.87064043  0.62935957  0.25000000  1
  Pb  Pb0  1  0.00000000  -0.00000000  -0.00000000  1
  Pb  Pb1  1  0.50000000  0.50000000  0.50000000  1
  Br  Br0  1  0.44066705  0.57356925  0.80426102  1
  Br  Br1  1  0.80426102  0.44066705  0.57356925  1
  Br  Br2  1  0.57356925  0.80426102  0.44066705  1
  Br  Br3  1  0.05933295  0.69573898  0.92643075  1
  Br  Br4  1  0.92643075  0.05933295  0.69573898  1
  Br  Br5  1  0.69573898  0.92643075  0.05933295  1
  Br  Br6  1  0.55933295  0.42643075  0.19573898  1
  Br  Br7  1  0.19573898  0.55933295  0.42643075  1
  Br  Br8  1  0.42643075  0.19573898  0.55933295  1
  Br  Br9  1  0.94066705  0.30426102  0.07356925  1
  Br  Br10  1  0.30426102  0.07356925  0.94066705  1
  Br  Br11  1  0.07356925  0.94066705  0.30426102  1
loop_
_geom_bond_atom_site_label_1
_geom_bond_atom_site_label_2
_geom_bond_distance
_geom_bond_site_symmetry_2
Br0 Pb1 3.027553 1_555
Br0 Rb1 3.427458 1_555
Br0 Rb3 3.580669 1_556
Br0 Rb4 3.582356 1_555
Br0 Rb6 3.604445 1_555
Br0 Rb5 3.732750 1_555
Br1 Pb1 3.027553 1_555
Br1 Rb1 3.427458 1_555
Br1 Rb4 3.580669 1_655
Br1 Rb2 3.582356 1_555
Br1 Rb7 3.604445 1_555
Br1 Rb6 3.732750 1_555
Br2 Pb1 3.027553 1_555
Br2 Rb1 3.427458 1_555
Br2 Rb2 3.580669 1_565
Br2 Rb3 3.582355 1_555
Br2 Rb5 3.604445 1_555
Br2 Rb7 3.732750 1_555
Br3 Pb0 3.027553 1_566
Br3 Rb1 3.427458 1_455
Br3 Rb4 3.580669 1_555
Br3 Rb3 3.582356 1_556
Br3 Rb7 3.604445 1_456
Br3 Rb5 3.732750 1_555
Br4 Pb0 3.027553 1_656
Br4 Rb1 3.427458 1_545
Br4 Rb2 3.580669 1_555
Br4 Rb4 3.582356 1_655
Br4 Rb5 3.604445 1_645
Br4 Rb6 3.732750 1_555
Br5 Pb0 3.027553 1_665
Br5 Rb1 3.427458 1_554
Br5 Rb3 3.580669 1_555
Br5 Rb2 3.582355 1_565
Br5 Rb6 3.604445 1_564
Br5 Rb7 3.732750 1_555
Br6 Pb1 3.027553 1_555
Br6 Rb0 3.427458 1_555
Br6 Rb6 3.580669 1_554
Br6 Rb7 3.582356 1_555
Br6 Rb3 3.604445 1_555
Br6 Rb2 3.732750 1_555
Br7 Pb1 3.027553 1_555
Br7 Rb0 3.427458 1_555
Br7 Rb7 3.580669 1_455
Br7 Rb5 3.582356 1_555
Br7 Rb4 3.604445 1_555
Br7 Rb3 3.732750 1_555
Br8 Pb1 3.027553 1_555
Br8 Rb0 3.427458 1_555
Br8 Rb5 3.580669 1_545
Br8 Rb6 3.582355 1_555
Br8 Rb2 3.604445 1_555
Br8 Rb4 3.732750 1_555
Br9 Pb0 3.027553 1_655
Br9 Rb0 3.427458 1_655
Br9 Rb7 3.580669 1_555
Br9 Rb6 3.582356 1_554
Br9 Rb4 3.604445 1_654
Br9 Rb2 3.732750 1_555
Br10 Pb0 3.027553 1_556
Br10 Rb0 3.427458 1_556
Br10 Rb6 3.580669 1_555
Br10 Rb5 3.582355 1_545
Br10 Rb3 3.604445 1_546
Br10 Rb4 3.732750 1_555
Br11 Pb0 3.027553 1_565
Br11 Rb0 3.427458 1_565
Br11 Rb5 3.580669 1_555
Br11 Rb7 3.582356 1_455
Br11 Rb2 3.604445 1_465
Br11 Rb3 3.732750 1_555
