# generated using pymatgen
data_Bi3PO7
_symmetry_space_group_name_H-M   'P 1'
_cell_length_a   9.28049221
_cell_length_b   9.28049221
_cell_length_c   11.92455500
_cell_angle_alpha   76.97209989
_cell_angle_beta   76.97209989
_cell_angle_gamma   92.92010904
_symmetry_Int_Tables_number   1
_chemical_formula_structural   Bi3PO7
_chemical_formula_sum   'Bi18 P6 O42'
_cell_volume   969.22378077
_cell_formula_units_Z   6
loop_
 _symmetry_equiv_pos_site_id
 _symmetry_equiv_pos_as_xyz
  1  'x, y, z'
loop_
 _atom_site_type_symbol
 _atom_site_label
 _atom_site_symmetry_multiplicity
 _atom_site_fract_x
 _atom_site_fract_y
 _atom_site_fract_z
 _atom_site_occupancy
  Bi  Bi0  1  0.15580531  0.48062683  0.05421508  1
  Bi  Bi1  1  0.48062683  0.15580531  0.05421508  1
  Bi  Bi2  1  0.18748799  0.49940232  0.37759770  1
  Bi  Bi3  1  0.49940232  0.18748799  0.37759770  1
  Bi  Bi4  1  0.18134009  0.85650954  0.16071096  1
  Bi  Bi5  1  0.85650954  0.18134009  0.16071096  1
  Bi  Bi6  1  0.49940323  0.19259888  0.71409822  1
  Bi  Bi7  1  0.19259888  0.49940323  0.71409822  1
  Bi  Bi8  1  0.14458862  0.83791259  0.50067482  1
  Bi  Bi9  1  0.83791259  0.14458862  0.50067482  1
  Bi  Bi10  1  0.14971099  0.83777354  0.83733382  1
  Bi  Bi11  1  0.83777354  0.14971099  0.83733382  1
  Bi  Bi12  1  0.83733301  0.50203070  0.29550918  1
  Bi  Bi13  1  0.50203070  0.83733301  0.29550918  1
  Bi  Bi14  1  0.49414586  0.84294168  0.60744206  1
  Bi  Bi15  1  0.84294168  0.49414586  0.60744206  1
  Bi  Bi16  1  0.49988490  0.83516351  0.91945836  1
  Bi  Bi17  1  0.83516351  0.49988490  0.91945836  1
  P  P0  1  0.18696094  0.18696094  0.28317003  1
  P  P1  1  0.15030435  0.15030435  0.93175862  1
  P  P2  1  0.49675725  0.49675725  0.48027656  1
  P  P3  1  0.50346243  0.50346243  0.85782446  1
  P  P4  1  0.83352611  0.83352611  0.35686704  1
  P  P5  1  0.84025177  0.84025177  0.73481007  1
  O  O0  1  0.12701925  0.12701925  0.41732425  1
  O  O1  1  0.25640733  0.06419696  0.22716702  1
  O  O2  1  0.06419696  0.25640733  0.22716702  1
  O  O3  1  0.02337483  0.02337483  0.96115812  1
  O  O4  1  0.31393978  0.31393978  0.25348385  1
  O  O5  1  0.58589108  0.08591101  0.22625466  1
  O  O6  1  0.08591101  0.58589108  0.22625466  1
  O  O7  1  0.08069847  0.27290144  0.98785048  1
  O  O8  1  0.27290144  0.08069847  0.98785048  1
  O  O9  1  0.21049789  0.21049789  0.79770745  1
  O  O10  1  0.10507178  0.57184124  0.55246439  1
  O  O11  1  0.57184124  0.10507178  0.55246439  1
  O  O12  1  0.37791306  0.37791306  0.57053413  1
  O  O13  1  0.49467935  0.49467935  0.35211082  1
  O  O14  1  0.58791717  0.08496866  0.88592648  1
  O  O15  1  0.08496866  0.58791717  0.88592648  1
  O  O16  1  0.25213900  0.74922134  0.32899051  1
  O  O17  1  0.74922134  0.25213900  0.32899051  1
  O  O18  1  0.37990130  0.37990130  0.93155699  1
  O  O19  1  0.90034980  0.43670451  0.10753156  1
  O  O20  1  0.43670451  0.90034980  0.10753156  1
  O  O21  1  0.23195902  0.76545031  0.66231797  1
  O  O22  1  0.76545031  0.23195902  0.66231797  1
  O  O23  1  0.65069977  0.45993688  0.49897693  1
  O  O24  1  0.45993688  0.65069977  0.49897693  1
  O  O25  1  0.62376366  0.43323805  0.78234521  1
  O  O26  1  0.43323805  0.62376366  0.78234521  1
  O  O27  1  0.75127524  0.25127113  0.98862871  1
  O  O28  1  0.25127113  0.75127524  0.98862871  1
  O  O29  1  0.94194614  0.39047378  0.44351418  1
  O  O30  1  0.39047378  0.94194614  0.44351418  1
  O  O31  1  0.76483100  0.76483100  0.27161380  1
  O  O32  1  0.57272198  0.57272198  0.94250010  1
  O  O33  1  0.94655907  0.39521905  0.77139326  1
  O  O34  1  0.39521905  0.94655907  0.77139326  1
  O  O35  1  0.90337350  0.71279622  0.43231023  1
  O  O36  1  0.71279622  0.90337350  0.43231023  1
  O  O37  1  0.87696263  0.68620085  0.71626274  1
  O  O38  1  0.68620085  0.87696263  0.71626274  1
  O  O39  1  0.95723927  0.95723927  0.28380570  1
  O  O40  1  0.84257020  0.84257020  0.86288458  1
  O  O41  1  0.95898058  0.95898058  0.64434036  1
loop_
_geom_bond_atom_site_label_1
_geom_bond_atom_site_label_2
_geom_bond_distance
_geom_bond_site_symmetry_2
Bi0 O15 2.282833 1_554
Bi0 O19 2.301300 1_455
Bi0 O7 2.372362 1_554
Bi0 O6 2.439650 1_555
Bi0 O28 2.506134 1_554
Bi0 O2 2.529939 1_555
Bi0 O18 2.604121 1_554
Bi1 O14 2.282833 1_554
Bi1 O20 2.301300 1_545
Bi1 O8 2.372362 1_554
Bi1 O5 2.439650 1_555
Bi1 O27 2.506134 1_554
Bi1 O1 2.529939 1_555
Bi1 O18 2.604121 1_554
Bi2 O6 2.231788 1_555
Bi2 O16 2.273048 1_555
Bi2 O10 2.313091 1_555
Bi2 O29 2.330660 1_455
Bi2 O4 2.664824 1_555
Bi2 O13 2.801776 1_555
Bi3 O5 2.231788 1_555
Bi3 O17 2.273048 1_555
Bi3 O11 2.313091 1_555
Bi3 O30 2.330660 1_545
Bi3 O4 2.664824 1_555
Bi3 O13 2.801776 1_555
Bi4 O16 2.282559 1_555
Bi4 O20 2.300435 1_555
Bi4 O1 2.372570 1_565
Bi4 O28 2.439959 1_554
Bi4 O6 2.505798 1_555
Bi4 O8 2.529111 1_564
Bi4 O39 2.606585 1_455
Bi5 O17 2.282559 1_555
Bi5 O19 2.300435 1_555
Bi5 O2 2.372570 1_655
Bi5 O27 2.439959 1_554
Bi5 O5 2.505798 1_555
Bi5 O7 2.529111 1_654
Bi5 O39 2.606585 1_545
Bi6 O11 2.236961 1_555
Bi6 O34 2.321489 1_545
Bi6 O22 2.393735 1_555
Bi6 O14 2.406351 1_555
Bi6 O12 2.626803 1_555
Bi6 O9 2.669308 1_555
Bi6 O25 2.821694 1_555
Bi7 O10 2.236961 1_555
Bi7 O33 2.321489 1_455
Bi7 O21 2.393735 1_555
Bi7 O15 2.406351 1_555
Bi7 O12 2.626803 1_555
Bi7 O9 2.669308 1_555
Bi7 O26 2.821694 1_555
Bi8 O21 2.236254 1_555
Bi8 O30 2.319818 1_555
Bi8 O10 2.394013 1_555
Bi8 O16 2.405652 1_555
Bi8 O41 2.626590 1_455
Bi8 O0 2.669938 1_565
Bi8 O35 2.829990 1_455
Bi9 O22 2.236254 1_555
Bi9 O29 2.319818 1_555
Bi9 O11 2.394013 1_555
Bi9 O17 2.405652 1_555
Bi9 O41 2.626590 1_545
Bi9 O0 2.669938 1_655
Bi9 O36 2.829990 1_545
Bi10 O28 2.231235 1_555
Bi10 O15 2.273514 1_555
Bi10 O21 2.313910 1_555
Bi10 O34 2.329981 1_555
Bi10 O3 2.663396 1_565
Bi10 O40 2.801283 1_455
Bi11 O27 2.231235 1_555
Bi11 O14 2.273514 1_555
Bi11 O22 2.313910 1_555
Bi11 O33 2.329981 1_555
Bi11 O3 2.663396 1_655
Bi11 O40 2.801283 1_545
Bi12 O29 2.276051 1_555
Bi12 O6 2.297384 1_655
Bi12 O17 2.334206 1_555
Bi12 O19 2.406637 1_555
Bi12 O31 2.534276 1_555
Bi12 O23 2.578454 1_555
Bi13 O30 2.276051 1_555
Bi13 O5 2.297384 1_565
Bi13 O16 2.334206 1_555
Bi13 O20 2.406637 1_555
Bi13 O31 2.534276 1_555
Bi13 O24 2.578454 1_555
Bi14 O34 2.391260 1_555
Bi14 O30 2.391498 1_555
Bi14 O11 2.399342 1_565
Bi14 O21 2.399510 1_555
Bi14 O24 2.474765 1_555
Bi14 O38 2.475987 1_555
Bi14 O36 2.497767 1_555
Bi14 O26 2.499112 1_555
Bi15 O33 2.391260 1_555
Bi15 O29 2.391498 1_555
Bi15 O10 2.399342 1_655
Bi15 O22 2.399510 1_555
Bi15 O23 2.474765 1_555
Bi15 O37 2.475987 1_555
Bi15 O35 2.497767 1_555
Bi15 O25 2.499112 1_555
Bi16 O34 2.276456 1_555
Bi16 O28 2.297682 1_555
Bi16 O14 2.333182 1_565
Bi16 O20 2.407155 1_556
Bi16 O32 2.532641 1_555
Bi16 O38 2.574932 1_555
Bi17 O33 2.276456 1_555
Bi17 O27 2.297682 1_555
Bi17 O15 2.333182 1_655
Bi17 O19 2.407155 1_556
Bi17 O32 2.532641 1_555
Bi17 O37 2.574932 1_555
O0 P0 1.531040 1_555
O1 P0 1.543752 1_555
O2 P0 1.543752 1_555
O3 P1 1.544141 1_555
O4 P0 1.544360 1_555
O7 P1 1.543490 1_555
O8 P1 1.543490 1_555
O9 P1 1.530473 1_555
O12 P2 1.548219 1_555
O13 P2 1.537219 1_555
O18 P3 1.536175 1_555
O23 P2 1.538372 1_555
O24 P2 1.538372 1_555
O25 P3 1.538459 1_555
O26 P3 1.538459 1_555
O31 P4 1.545755 1_555
O32 P3 1.545620 1_555
O35 P4 1.538621 1_555
O36 P4 1.538621 1_555
O37 P5 1.538556 1_555
O38 P5 1.538556 1_555
O39 P4 1.535948 1_555
O40 P5 1.537187 1_555
O41 P5 1.548056 1_555
