# generated using pymatgen
data_MgFe4(CuO4)2
_symmetry_space_group_name_H-M   'P 1'
_cell_length_a   6.14888128
_cell_length_b   6.13522337
_cell_length_c   5.81385001
_cell_angle_alpha   61.71815773
_cell_angle_beta   61.78660053
_cell_angle_gamma   64.91620417
_symmetry_Int_Tables_number   1
_chemical_formula_structural   MgFe4(CuO4)2
_chemical_formula_sum   'Mg1 Fe4 Cu2 O8'
_cell_volume   164.45093184
_cell_formula_units_Z   1
loop_
 _symmetry_equiv_pos_site_id
 _symmetry_equiv_pos_as_xyz
  1  'x, y, z'
loop_
 _atom_site_type_symbol
 _atom_site_label
 _atom_site_symmetry_multiplicity
 _atom_site_fract_x
 _atom_site_fract_y
 _atom_site_fract_z
 _atom_site_occupancy
  Mg  Mg0  1  0.62500000  0.12500000  0.12500000  1
  Fe  Fe0  1  0.13099558  0.08331962  0.89284240  1
  Fe  Fe1  1  0.11900442  0.16668038  0.35715760  1
  Fe  Fe2  1  0.12500000  0.62500000  0.62500000  1
  Fe  Fe3  1  0.62500000  0.12500000  0.62500000  1
  Cu  Cu0  1  0.62500000  0.62500000  0.12500000  1
  Cu  Cu1  1  0.62500000  0.62500000  0.62500000  1
  O  O0  1  0.30790465  0.29062771  0.45784933  1
  O  O1  1  0.42549342  0.83802591  0.36823983  1
  O  O2  1  0.30790465  0.29062771  0.94361932  1
  O  O3  1  0.79299738  0.42244474  0.39227844  1
  O  O4  1  0.45700262  0.82755526  0.85772156  1
  O  O5  1  0.82450658  0.41197409  0.88176017  1
  O  O6  1  0.94209535  0.95937229  0.30638068  1
  O  O7  1  0.94209535  0.95937229  0.79215067  1
loop_
_geom_bond_atom_site_label_1
_geom_bond_atom_site_label_2
_geom_bond_distance
_geom_bond_site_symmetry_2
Mg0 O1 2.106240 1_545
Mg0 O5 2.106240 1_554
Mg0 O6 2.279245 1_545
Mg0 O2 2.279245 1_554
Mg0 O7 2.279248 1_544
Mg0 O0 2.279248 1_555
Fe0 O4 1.942135 1_545
Fe0 O6 2.020837 1_446
Fe0 O7 2.020842 1_445
Fe0 O5 2.095525 1_455
Fe0 O0 2.172701 1_555
Fe0 O2 2.172705 1_555
Fe1 O3 1.942135 1_455
Fe1 O2 2.020837 1_554
Fe1 O0 2.020842 1_555
Fe1 O1 2.095525 1_545
Fe1 O7 2.172701 1_445
Fe1 O6 2.172705 1_445
Fe2 O1 2.222911 1_555
Fe2 O5 2.222911 1_455
Fe2 O0 2.305908 1_555
Fe2 O7 2.305908 1_455
Fe2 O6 2.305912 1_455
Fe2 O2 2.305912 1_555
Fe3 O4 2.040842 1_545
Fe3 O3 2.040842 1_555
Fe3 O0 2.225862 1_555
Fe3 O7 2.225862 1_545
Fe3 O6 2.225866 1_545
Fe3 O2 2.225866 1_555
Cu0 O3 1.904058 1_555
Cu0 O4 1.904058 1_554
Cu0 O5 1.991136 1_554
Cu0 O1 1.991136 1_555
Cu1 O3 1.904062 1_555
Cu1 O4 1.904062 1_555
Cu1 O1 1.991141 1_555
Cu1 O5 1.991141 1_555
