# generated using pymatgen
data_MgFe4(HO2)4
_symmetry_space_group_name_H-M   'P 1'
_cell_length_a   10.84537413
_cell_length_b   3.14546969
_cell_length_c   4.73021078
_cell_angle_alpha   90.00000000
_cell_angle_beta   92.76034578
_cell_angle_gamma   90.00000000
_symmetry_Int_Tables_number   1
_chemical_formula_structural   MgFe4(HO2)4
_chemical_formula_sum   'Mg1 Fe4 H4 O8'
_cell_volume   161.17821250
_cell_formula_units_Z   1
loop_
 _symmetry_equiv_pos_site_id
 _symmetry_equiv_pos_as_xyz
  1  'x, y, z'
loop_
 _atom_site_type_symbol
 _atom_site_label
 _atom_site_symmetry_multiplicity
 _atom_site_fract_x
 _atom_site_fract_y
 _atom_site_fract_z
 _atom_site_occupancy
  Mg  Mg0  1  0.50264881  0.75000000  0.92559281  1
  Fe  Fe0  1  0.63872147  0.25000000  0.50611152  1
  Fe  Fe1  1  0.11396896  0.25000000  0.95249642  1
  Fe  Fe2  1  0.34708109  0.75000000  0.45890894  1
  Fe  Fe3  1  0.88499697  0.75000000  0.03292283  1
  H  H0  1  0.33634468  0.25000000  0.00617893  1
  H  H1  1  0.87232628  0.25000000  0.48328879  1
  H  H2  1  0.68046530  0.75000000  0.04651638  1
  H  H3  1  0.11627062  0.75000000  0.50475655  1
  O  O0  1  0.28411397  0.25000000  0.17795314  1
  O  O1  1  0.81720746  0.25000000  0.30211139  1
  O  O2  1  0.69456529  0.75000000  0.84013007  1
  O  O3  1  0.17206419  0.75000000  0.68470853  1
  O  O4  1  0.42936979  0.25000000  0.74199133  1
  O  O5  1  0.93547723  0.25000000  0.80065510  1
  O  O6  1  0.54944438  0.75000000  0.32153539  1
  O  O7  1  0.05618352  0.75000000  0.18636388  1
loop_
_geom_bond_atom_site_label_1
_geom_bond_atom_site_label_2
_geom_bond_distance
_geom_bond_site_symmetry_2
Mg0 O6 1.916701 1_556
Mg0 O4 1.947530 1_555
Mg0 O4 1.947530 1_565
Mg0 O2 2.139326 1_555
Fe0 O6 2.022831 1_545
Fe0 O6 2.022831 1_555
Fe0 O1 2.204129 1_555
Fe0 O2 2.290080 1_555
Fe0 O2 2.290080 1_545
Fe0 O4 2.577612 1_555
Fe1 O5 2.032071 1_455
Fe1 O7 2.038823 1_556
Fe1 O7 2.038823 1_546
Fe1 O0 2.086353 1_556
Fe1 O3 2.133508 1_545
Fe1 O3 2.133508 1_555
Fe2 O0 2.149099 1_555
Fe2 O0 2.149099 1_565
Fe2 O3 2.222372 1_555
Fe2 O4 2.224385 1_555
Fe2 O4 2.224385 1_565
Fe2 O6 2.318694 1_555
Fe3 O7 1.960588 1_655
Fe3 O5 2.009539 1_554
Fe3 O5 2.009539 1_564
Fe3 O1 2.173827 1_555
Fe3 O1 2.173827 1_565
Fe3 O2 2.217142 1_554
Fe3 H2 2.222247 1_555
H0 O0 1.012626 1_555
H0 O4 1.643458 1_554
H1 O1 1.021011 1_555
H1 O5 1.619778 1_555
H2 O2 0.995404 1_554
H2 Mg0 1.984941 1_554
H3 O3 1.020342 1_555
H3 O7 1.611946 1_555
