# generated using pymatgen
data_Na3TiInSi2SO12
_symmetry_space_group_name_H-M   'P 1'
_cell_length_a   9.13406549
_cell_length_b   9.13406517
_cell_length_c   22.37012357
_cell_angle_alpha   88.81854630
_cell_angle_beta   91.18145369
_cell_angle_gamma   120.13559406
_symmetry_Int_Tables_number   1
_chemical_formula_structural   Na3TiInSi2SO12
_chemical_formula_sum   'Na18 Ti6 In6 Si12 S6 O72'
_cell_volume   1613.64973235
_cell_formula_units_Z   6
loop_
 _symmetry_equiv_pos_site_id
 _symmetry_equiv_pos_as_xyz
  1  'x, y, z'
loop_
 _atom_site_type_symbol
 _atom_site_label
 _atom_site_symmetry_multiplicity
 _atom_site_fract_x
 _atom_site_fract_y
 _atom_site_fract_z
 _atom_site_occupancy
  Na  Na0  1  0.63208170  0.00362465  0.24353421  1
  Na  Na1  1  0.99717631  0.63622438  0.24844300  1
  Na  Na2  1  0.99637535  0.36791830  0.74353421  1
  Na  Na3  1  0.36377562  0.00282369  0.74844300  1
  Na  Na4  1  0.29874870  0.33695765  0.57686721  1
  Na  Na5  1  0.66384331  0.96955738  0.58177600  1
  Na  Na6  1  0.66304235  0.70125130  0.07686721  1
  Na  Na7  1  0.03044262  0.33615669  0.08177600  1
  Na  Na8  1  0.96541470  0.67029165  0.91020121  1
  Na  Na9  1  0.33050931  0.30289138  0.91511000  1
  Na  Na10  1  0.32970835  0.03458530  0.41020121  1
  Na  Na11  1  0.69710862  0.66949069  0.41511000  1
  Na  Na12  1  0.00097936  0.01977286  0.49713117  1
  Na  Na13  1  0.98022714  0.99902064  0.99713117  1
  Na  Na14  1  0.66764636  0.35310586  0.83046417  1
  Na  Na15  1  0.64689414  0.33235364  0.33046417  1
  Na  Na16  1  0.33431236  0.68643986  0.16379817  1
  Na  Na17  1  0.31356014  0.66568764  0.66379817  1
  Ti  Ti0  1  0.03009970  0.01298203  0.64633164  1
  Ti  Ti1  1  0.98701797  0.96990030  0.14633164  1
  Ti  Ti2  1  0.69676670  0.34631503  0.97966464  1
  Ti  Ti3  1  0.65368497  0.30323330  0.47966464  1
  Ti  Ti4  1  0.36343270  0.67964903  0.31299864  1
  Ti  Ti5  1  0.32035097  0.63656730  0.81299864  1
  In  In0  1  0.00601128  0.00901895  0.35031559  1
  In  In1  1  0.99098105  0.99398872  0.85031559  1
  In  In2  1  0.67267828  0.34235195  0.68364859  1
  In  In3  1  0.65764805  0.32732172  0.18364859  1
  In  In4  1  0.33934428  0.67568595  0.01698259  1
  In  In5  1  0.32431405  0.66065572  0.51698259  1
  Si  Si0  1  0.29137753  0.99532329  0.25247374  1
  Si  Si1  1  0.70653416  0.70253547  0.25160224  1
  Si  Si2  1  0.29746453  0.29346584  0.75160224  1
  Si  Si3  1  0.00467671  0.70862247  0.75247374  1
  Si  Si4  1  0.95804453  0.32865629  0.58580674  1
  Si  Si5  1  0.37320116  0.03586847  0.58493524  1
  Si  Si6  1  0.96413153  0.62679884  0.08493524  1
  Si  Si7  1  0.67134371  0.04195547  0.08580674  1
  Si  Si8  1  0.62471053  0.66199029  0.91914074  1
  Si  Si9  1  0.03986716  0.36920247  0.91826924  1
  Si  Si10  1  0.63079753  0.96013284  0.41826924  1
  Si  Si11  1  0.33800971  0.37528947  0.41914074  1
  S  S0  1  0.00828820  0.30039630  0.24785071  1
  S  S1  1  0.69960370  0.99171180  0.74785071  1
  S  S2  1  0.67495520  0.63372930  0.58118371  1
  S  S3  1  0.36627070  0.32504480  0.08118371  1
  S  S4  1  0.34162120  0.96706330  0.91451771  1
  S  S5  1  0.03293670  0.65837880  0.41451771  1
  O  O0  1  0.21954267  0.02246236  0.31384262  1
  O  O1  1  0.81767536  0.78512203  0.31100304  1
  O  O2  1  0.97646051  0.19480100  0.30223741  1
  O  O3  1  0.21487797  0.18232464  0.81100304  1
  O  O4  1  0.97753764  0.78045733  0.81384262  1
  O  O5  1  0.80519900  0.02353949  0.80223741  1
  O  O6  1  0.78043299  0.97416048  0.69416348  1
  O  O7  1  0.17130561  0.20103208  0.69144092  1
  O  O8  1  0.02881321  0.84570355  0.69614771  1
  O  O9  1  0.79896792  0.82869439  0.19144092  1
  O  O10  1  0.02583952  0.21956701  0.19416348  1
  O  O11  1  0.15429645  0.97118679  0.19614771  1
  O  O12  1  0.88620967  0.35579536  0.64717562  1
  O  O13  1  0.48434236  0.11845503  0.64433604  1
  O  O14  1  0.64312751  0.52813400  0.63557041  1
  O  O15  1  0.88154497  0.51565764  0.14433604  1
  O  O16  1  0.64420464  0.11379033  0.14717562  1
  O  O17  1  0.47186600  0.35687249  0.13557041  1
  O  O18  1  0.44709999  0.30749348  0.02749648  1
  O  O19  1  0.83797261  0.53436508  0.02477392  1
  O  O20  1  0.69548021  0.17903655  0.02948071  1
  O  O21  1  0.46563492  0.16202739  0.52477392  1
  O  O22  1  0.69250652  0.55290001  0.52749648  1
  O  O23  1  0.82096345  0.30451979  0.52948071  1
  O  O24  1  0.55287567  0.68912936  0.98050962  1
  O  O25  1  0.15100836  0.45178903  0.97767004  1
  O  O26  1  0.30979351  0.86146800  0.96890441  1
  O  O27  1  0.54821097  0.84899164  0.47767004  1
  O  O28  1  0.31087064  0.44712433  0.48050962  1
  O  O29  1  0.13853200  0.69020649  0.46890441  1
  O  O30  1  0.11376599  0.64082748  0.36083048  1
  O  O31  1  0.50463861  0.86769908  0.35810792  1
  O  O32  1  0.36214621  0.51237055  0.36281471  1
  O  O33  1  0.13230092  0.49536139  0.85810792  1
  O  O34  1  0.35917252  0.88623401  0.86083048  1
  O  O35  1  0.48762945  0.63785379  0.86281471  1
  O  O36  1  0.01125104  0.81038725  0.41184155  1
  O  O37  1  0.81396614  0.97543054  0.41191646  1
  O  O38  1  0.18417014  0.18041236  0.41340594  1
  O  O39  1  0.02456946  0.18603386  0.91191646  1
  O  O40  1  0.18961275  0.98874896  0.91184155  1
  O  O41  1  0.81958764  0.81582986  0.91340594  1
  O  O42  1  0.96215112  0.14602267  0.58943303  1
  O  O43  1  0.18907547  0.03375781  0.58934839  1
  O  O44  1  0.82774566  0.80596812  0.58753715  1
  O  O45  1  0.96624219  0.81092453  0.08934839  1
  O  O46  1  0.85397733  0.03784888  0.08943303  1
  O  O47  1  0.19403188  0.17225434  0.08753715  1
  O  O48  1  0.67791804  0.14372025  0.74517455  1
  O  O49  1  0.48063314  0.30876354  0.74524946  1
  O  O50  1  0.85083714  0.51374536  0.74673894  1
  O  O51  1  0.69123646  0.51936686  0.24524946  1
  O  O52  1  0.85627975  0.32208196  0.24517455  1
  O  O53  1  0.48625464  0.14916286  0.24673894  1
  O  O54  1  0.62881812  0.47935567  0.92276603  1
  O  O55  1  0.85574247  0.36709081  0.92268139  1
  O  O56  1  0.49441266  0.13930112  0.92087015  1
  O  O57  1  0.63290919  0.14425753  0.42268139  1
  O  O58  1  0.52064433  0.37118188  0.42276603  1
  O  O59  1  0.86069888  0.50558734  0.42087015  1
  O  O60  1  0.34458404  0.47705425  0.07850855  1
  O  O61  1  0.14729914  0.64209754  0.07858346  1
  O  O62  1  0.51750314  0.84707936  0.08007294  1
  O  O63  1  0.35790246  0.85270086  0.57858346  1
  O  O64  1  0.52294575  0.65541596  0.57850855  1
  O  O65  1  0.15292064  0.48249686  0.58007294  1
  O  O66  1  0.29548412  0.81268967  0.25610003  1
  O  O67  1  0.52240847  0.70042481  0.25601539  1
  O  O68  1  0.16107866  0.47263512  0.25420415  1
  O  O69  1  0.29957519  0.47759153  0.75601539  1
  O  O70  1  0.18731033  0.70451588  0.75610003  1
  O  O71  1  0.52736488  0.83892134  0.75420415  1
loop_
_geom_bond_atom_site_label_1
_geom_bond_atom_site_label_2
_geom_bond_distance
_geom_bond_site_symmetry_2
Na0 O53 2.309188 1_555
Na0 O16 2.340886 1_555
Na0 O67 2.438294 1_545
Na0 O52 2.583853 1_555
Na0 O66 2.684149 1_545
Na0 O31 2.829535 1_545
Na0 O9 2.971590 1_545
Na0 O2 3.012853 1_555
Na1 O66 2.373599 1_655
Na1 O51 2.439962 1_555
Na1 O52 2.488353 1_555
Na1 O15 2.566796 1_555
Na1 O68 2.592473 1_655
Na1 O30 2.702898 1_655
Na1 O11 2.881298 1_655
Na1 O1 2.984724 1_555
Na2 O50 2.309188 1_555
Na2 O12 2.340886 1_555
Na2 O69 2.438294 1_655
Na2 O48 2.583853 1_555
Na2 O70 2.684149 1_655
Na2 O33 2.829535 1_655
Na2 O7 2.971590 1_655
Na2 O5 3.012853 1_555
Na3 O70 2.373599 1_545
Na3 O49 2.439962 1_555
Na3 O48 2.488353 1_555
Na3 O13 2.566796 1_555
Na3 O71 2.592473 1_545
Na3 O34 2.702898 1_545
Na3 O8 2.881298 1_545
Na3 O3 2.984724 1_555
Na4 O65 2.309205 1_555
Na4 O28 2.340871 1_555
Na4 O43 2.438294 1_555
Na4 O64 2.583858 1_555
Na4 O42 2.684149 1_455
Na4 O7 2.829535 1_555
Na4 O21 2.971590 1_555
Na4 O14 3.012853 1_555
Na5 O42 2.373599 1_565
Na5 O63 2.439972 1_555
Na5 O64 2.488343 1_555
Na5 O27 2.566775 1_555
Na5 O44 2.592473 1_555
Na5 O6 2.702898 1_555
Na5 O23 2.881298 1_565
Na5 O13 2.984724 1_565
Na6 O62 2.309205 1_555
Na6 O24 2.340871 1_554
Na6 O45 2.438294 1_555
Na6 O60 2.583858 1_555
Na6 O46 2.684149 1_565
Na6 O9 2.829535 1_555
Na6 O19 2.971590 1_555
Na6 O17 3.012853 1_555
Na7 O46 2.373599 1_455
Na7 O61 2.439972 1_555
Na7 O60 2.488343 1_555
Na7 O25 2.566775 1_554
Na7 O47 2.592473 1_555
Na7 O10 2.702898 1_555
Na7 O20 2.881298 1_455
Na7 O15 2.984724 1_455
Na8 O41 2.309188 1_555
Na8 O4 2.340886 1_555
Na8 O55 2.438301 1_555
Na8 O40 2.583853 1_655
Na8 O54 2.684140 1_555
Na8 O19 2.829514 1_556
Na8 O33 2.971590 1_655
Na8 O26 3.012853 1_655
Na9 O54 2.373604 1_555
Na9 O39 2.439962 1_555
Na9 O40 2.488353 1_545
Na9 O3 2.566796 1_555
Na9 O56 2.592488 1_555
Na9 O18 2.702883 1_556
Na9 O35 2.881298 1_555
Na9 O25 2.984724 1_555
Na10 O38 2.309188 1_555
Na10 O0 2.340886 1_555
Na10 O57 2.438301 1_555
Na10 O36 2.583853 1_545
Na10 O58 2.684140 1_555
Na10 O21 2.829514 1_555
Na10 O31 2.971590 1_545
Na10 O29 3.012853 1_545
Na11 O58 2.373604 1_555
Na11 O37 2.439962 1_555
Na11 O36 2.488353 1_655
Na11 O1 2.566796 1_555
Na11 O59 2.592488 1_555
Na11 O22 2.702883 1_555
Na11 O32 2.881298 1_555
Na11 O27 2.984724 1_555
Na12 O37 2.432831 1_445
Na12 O38 2.451813 1_555
Na12 O42 2.501611 1_455
Na12 O43 2.620700 1_555
Na12 O44 2.697031 1_445
Na12 O36 2.764938 1_545
Na13 O39 2.432831 1_665
Na13 O41 2.451813 1_555
Na13 O46 2.501611 1_566
Na13 O45 2.620700 1_556
Na13 O47 2.697031 1_666
Na13 O40 2.764938 1_655
Na14 O49 2.432831 1_555
Na14 O50 2.451813 1_555
Na14 O54 2.501611 1_555
Na14 O55 2.620700 1_555
Na14 O56 2.697031 1_555
Na14 O48 2.764938 1_555
Na15 O51 2.432831 1_555
Na15 O53 2.451813 1_555
Na15 O58 2.501611 1_555
Na15 O57 2.620700 1_555
Na15 O59 2.697031 1_555
Na15 O52 2.764938 1_555
Na16 O61 2.432831 1_555
Na16 O62 2.451813 1_555
Na16 O66 2.501611 1_555
Na16 O67 2.620700 1_555
Na16 O68 2.697031 1_555
Na16 O60 2.764938 1_555
Na17 O63 2.432831 1_555
Na17 O65 2.451813 1_555
Na17 O70 2.501611 1_555
Na17 O69 2.620700 1_555
Na17 O71 2.697031 1_555
Na17 O64 2.764938 1_555
In0 O0 2.075064 1_555
In0 O1 2.096277 1_445
In0 O2 2.117048 1_455
In0 O38 2.128205 1_555
In0 O37 2.147553 1_445
In0 O36 2.273730 1_545
In1 O4 2.075064 1_555
In1 O3 2.096277 1_665
In1 O5 2.117048 1_565
In1 O41 2.128205 1_555
In1 O39 2.147553 1_665
In1 O40 2.273730 1_655
In2 O12 2.075064 1_555
In2 O13 2.096277 1_555
In2 O14 2.117048 1_555
In2 O50 2.128205 1_555
In2 O49 2.147553 1_555
In2 O48 2.273730 1_555
In3 O16 2.075064 1_555
In3 O15 2.096277 1_555
In3 O17 2.117048 1_555
In3 O53 2.128205 1_555
In3 O51 2.147553 1_555
In3 O52 2.273730 1_555
In4 O24 2.075064 1_554
In4 O25 2.096277 1_554
In4 O26 2.117048 1_554
In4 O62 2.128205 1_555
In4 O61 2.147553 1_555
In4 O60 2.273730 1_555
In5 O28 2.075064 1_555
In5 O27 2.096277 1_555
In5 O29 2.117048 1_555
In5 O65 2.128205 1_555
In5 O63 2.147553 1_555
In5 O64 2.273730 1_555
O0 Si0 1.609700 1_545
O1 Si1 1.606895 1_555
O2 S0 1.476366 1_655
O3 Si2 1.606895 1_555
O4 Si3 1.609700 1_655
O5 S1 1.476366 1_545
O6 S1 1.475302 1_555
O6 Ti0 2.396709 1_665
O7 Si2 1.690548 1_555
O7 Ti0 1.850812 1_555
O8 Si3 1.695066 1_555
O8 Ti0 1.867855 1_565
O9 Si1 1.690548 1_555
O9 Ti1 1.850812 1_555
O10 S0 1.475302 1_555
O10 Ti1 2.396709 1_445
O11 Si0 1.695066 1_555
O11 Ti1 1.867855 1_455
O12 Si4 1.609700 1_555
O13 Si5 1.606895 1_555
O14 S2 1.476366 1_555
O15 Si6 1.606895 1_555
O16 Si7 1.609700 1_555
O17 S3 1.476366 1_555
O18 S3 1.475302 1_555
O18 Ti2 2.396709 1_554
O19 Si6 1.690548 1_555
O19 Ti2 1.850812 1_554
O20 Si7 1.695066 1_555
O20 Ti2 1.867855 1_554
O21 Si5 1.690548 1_555
O21 Ti3 1.850812 1_555
O22 S2 1.475302 1_555
O22 Ti3 2.396709 1_555
O23 Si4 1.695066 1_555
O23 Ti3 1.867855 1_555
O24 Si8 1.609700 1_555
O25 Si9 1.606895 1_555
O26 S4 1.476366 1_555
O27 Si10 1.606895 1_555
O28 Si11 1.609700 1_555
O29 S5 1.476366 1_555
O30 S5 1.475302 1_555
O30 Ti4 2.396709 1_555
O31 Si10 1.690548 1_555
O31 Ti4 1.850812 1_555
O32 Si11 1.695066 1_555
O32 Ti4 1.867855 1_555
O33 Si9 1.690548 1_555
O33 Ti5 1.850812 1_555
O34 S4 1.475302 1_555
O34 Ti5 2.396709 1_555
O35 Si8 1.695066 1_555
O35 Ti5 1.867855 1_555
O36 S5 1.497618 1_555
O37 Si10 1.616523 1_555
O38 Si11 1.627867 1_555
O39 Si9 1.616523 1_555
O40 S4 1.497618 1_555
O41 Si8 1.627867 1_555
O42 Si4 1.687590 1_555
O42 Ti0 2.035424 1_655
O43 Si5 1.677151 1_555
O43 Ti0 1.886578 1_555
O44 S2 1.496468 1_555
O44 Ti0 2.283550 1_665
O45 Si6 1.677151 1_555
O45 Ti1 1.886578 1_555
O46 Si7 1.687590 1_555
O46 Ti1 2.035424 1_545
O47 S3 1.496468 1_555
O47 Ti1 2.283550 1_445
O48 S1 1.497618 1_545
O49 Si2 1.616523 1_555
O50 Si3 1.627867 1_655
O51 Si1 1.616523 1_555
O52 S0 1.497618 1_655
O53 Si0 1.627867 1_545
O54 Si8 1.687603 1_555
O54 Ti2 2.035424 1_555
O55 Si9 1.677136 1_655
O55 Ti2 1.886578 1_555
O56 S4 1.496464 1_545
O56 Ti2 2.283550 1_555
O57 Si10 1.677135 1_545
O57 Ti3 1.886578 1_555
O58 Si11 1.687603 1_555
O58 Ti3 2.035424 1_555
O59 S5 1.496464 1_655
O59 Ti3 2.283550 1_555
O60 S3 1.497632 1_555
O61 Si6 1.616508 1_455
O62 Si7 1.627862 1_565
O63 Si5 1.616508 1_565
O64 S2 1.497632 1_555
O65 Si4 1.627862 1_455
O66 Si0 1.687590 1_555
O66 Ti4 2.035424 1_555
O67 Si1 1.677151 1_555
O67 Ti4 1.886578 1_555
O68 S0 1.496468 1_555
O68 Ti4 2.283550 1_555
O69 Si2 1.677151 1_555
O69 Ti5 1.886578 1_555
O70 Si3 1.687590 1_555
O70 Ti5 2.035424 1_555
O71 S1 1.496468 1_555
O71 Ti5 2.283550 1_555
