# generated using pymatgen
data_Sc2Co3Si
_symmetry_space_group_name_H-M   'P 1'
_cell_length_a   4.99140023
_cell_length_b   4.99138004
_cell_length_c   7.40301522
_cell_angle_alpha   89.99989025
_cell_angle_beta   90.00001949
_cell_angle_gamma   120.00015897
_symmetry_Int_Tables_number   1
_chemical_formula_structural   Sc2Co3Si
_chemical_formula_sum   'Sc4 Co6 Si2'
_cell_volume   159.72820492
_cell_formula_units_Z   2
loop_
 _symmetry_equiv_pos_site_id
 _symmetry_equiv_pos_as_xyz
  1  'x, y, z'
loop_
 _atom_site_type_symbol
 _atom_site_label
 _atom_site_symmetry_multiplicity
 _atom_site_fract_x
 _atom_site_fract_y
 _atom_site_fract_z
 _atom_site_occupancy
  Sc  Sc0  1  0.33333035  0.66666171  0.56067488  1
  Sc  Sc1  1  0.66667079  0.33334257  0.43927846  1
  Sc  Sc2  1  0.66667079  0.33334257  0.06072054  1
  Sc  Sc3  1  0.33333035  0.66666171  0.93932512  1
  Co  Co0  1  0.82958121  0.17042179  0.75000000  1
  Co  Co1  1  0.65916883  0.82958259  0.25000000  1
  Co  Co2  1  0.17041576  0.82958259  0.25000000  1
  Co  Co3  1  0.82957798  0.65915696  0.75000000  1
  Co  Co4  1  0.17041453  0.34082805  0.25000000  1
  Co  Co5  1  0.34083959  0.17042179  0.75000000  1
  Si  Si0  1  -0.00000058  -0.00000217  0.49998576  1
  Si  Si1  1  -0.00000058  -0.00000217  0.00001424  1
loop_
_geom_bond_atom_site_label_1
_geom_bond_atom_site_label_2
_geom_bond_distance
_geom_bond_site_symmetry_2
Sc0 Sc3 2.803153 1_555
Sc0 Si0 2.916571 1_555
Sc0 Si0 2.916596 1_565
Sc0 Si0 2.916604 1_665
Sc0 Sc1 3.018634 1_455
Sc0 Sc1 3.018636 1_555
Sc0 Sc1 3.018709 1_565
Sc1 Sc2 2.802470 1_555
Sc1 Si0 2.916555 1_665
Sc1 Si0 2.916634 1_555
Sc1 Si0 2.916644 1_655
Sc2 Si1 2.916552 1_665
Sc2 Si1 2.916634 1_555
Sc2 Si1 2.916644 1_655
Sc2 Sc3 3.018631 1_654
Sc2 Sc3 3.018631 1_554
Sc2 Sc3 3.018710 1_544
Sc3 Si1 2.916570 1_556
Sc3 Si1 2.916597 1_566
Sc3 Si1 2.916605 1_666
Co0 Si1 2.365678 1_656
Co0 Si0 2.365681 1_655
Co0 Co3 2.439471 1_555
Co0 Co5 2.439505 1_555
Co0 Co5 2.551895 1_655
Co0 Co3 2.551909 1_545
Co0 Sc2 2.697223 1_556
Co0 Sc1 2.697226 1_555
Co0 Sc0 2.862479 1_655
Co0 Sc3 2.862483 1_655
Co0 Sc3 2.862527 1_545
Co0 Sc0 2.862531 1_545
Co1 Si1 2.365482 1_665
Co1 Si0 2.365484 1_665
Co1 Co4 2.439558 1_555
Co1 Co2 2.439562 1_555
Co1 Co4 2.551820 1_665
Co1 Co2 2.551838 1_655
Co1 Sc0 2.696948 1_555
Co1 Sc3 2.696950 1_554
Co1 Sc1 2.862295 1_555
Co1 Sc2 2.862303 1_555
Co1 Sc2 2.862377 1_565
Co1 Sc1 2.862378 1_565
Co2 Si1 2.365484 1_565
Co2 Si0 2.365487 1_565
Co2 Co4 2.439557 1_555
Co2 Co4 2.551823 1_565
Co2 Sc0 2.696941 1_555
Co2 Sc3 2.696944 1_554
Co2 Sc1 2.862301 1_455
Co2 Sc2 2.862309 1_455
Co2 Sc2 2.862370 1_565
Co2 Sc1 2.862370 1_565
Co3 Si0 2.365670 1_665
Co3 Si1 2.365674 1_666
Co3 Co5 2.439470 1_555
Co3 Co5 2.551908 1_665
Co3 Sc2 2.697178 1_556
Co3 Sc1 2.697189 1_555
Co3 Sc3 2.862514 1_655
Co3 Sc0 2.862514 1_555
Co3 Sc0 2.862515 1_655
Co3 Sc3 2.862515 1_555
Co4 Si0 2.365476 1_555
Co4 Si1 2.365481 1_555
Co4 Sc3 2.696933 1_554
Co4 Sc0 2.696938 1_555
Co4 Sc1 2.862340 1_555
Co4 Sc2 2.862344 1_555
Co4 Sc1 2.862349 1_455
Co4 Sc2 2.862352 1_455
Co5 Si1 2.365673 1_556
Co5 Si0 2.365674 1_555
Co5 Sc2 2.697222 1_556
Co5 Sc1 2.697226 1_555
Co5 Sc0 2.862480 1_555
Co5 Sc3 2.862485 1_555
Co5 Sc3 2.862527 1_545
Co5 Sc0 2.862532 1_545
