# generated using pymatgen
data_Na42Ca20Nb4Si15(S7O48)3
_symmetry_space_group_name_H-M   'P 1'
_cell_length_a   18.94532532
_cell_length_b   9.50219262
_cell_length_c   22.80680361
_cell_angle_alpha   90.10309249
_cell_angle_beta   90.03432199
_cell_angle_gamma   120.00154833
_symmetry_Int_Tables_number   1
_chemical_formula_structural   Na42Ca20Nb4Si15(S7O48)3
_chemical_formula_sum   'Na42 Ca20 Nb4 Si15 S21 O144'
_cell_volume   3555.59938441
_cell_formula_units_Z   1
loop_
 _symmetry_equiv_pos_site_id
 _symmetry_equiv_pos_as_xyz
  1  'x, y, z'
loop_
 _atom_site_type_symbol
 _atom_site_label
 _atom_site_symmetry_multiplicity
 _atom_site_fract_x
 _atom_site_fract_y
 _atom_site_fract_z
 _atom_site_occupancy
  Na  Na0  1  0.30575486  0.99295591  0.22904388  1
  Na  Na1  1  0.80107520  0.98635300  0.22967657  1
  Na  Na2  1  0.19574419  0.37254848  0.24357487  1
  Na  Na3  1  0.69402116  0.36562197  0.23188143  1
  Na  Na4  1  0.99797335  0.64629599  0.24742222  1
  Na  Na5  1  0.49737613  0.65484236  0.24432138  1
  Na  Na6  1  0.29964147  0.61473894  0.73407357  1
  Na  Na7  1  0.80943773  0.61958120  0.73155953  1
  Na  Na8  1  0.99975817  0.34198599  0.75250538  1
  Na  Na9  1  0.49514520  0.34448816  0.75380462  1
  Na  Na10  1  0.19115490  0.01796336  0.74914490  1
  Na  Na11  1  0.69671787  0.02148118  0.74837670  1
  Na  Na12  1  0.17050228  0.34101831  0.59380031  1
  Na  Na13  1  0.67254738  0.36561400  0.59690101  1
  Na  Na14  1  0.30894447  0.96185505  0.59452329  1
  Na  Na15  1  0.16970928  0.97080592  0.07106745  1
  Na  Na16  1  0.67140200  0.00056764  0.08866597  1
  Na  Na17  1  0.81246778  0.66181322  0.08847393  1
  Na  Na18  1  0.48036290  0.66223052  0.92169379  1
  Na  Na19  1  0.00390620  0.69425727  0.92217308  1
  Na  Na20  1  0.33295240  0.02354389  0.91767441  1
  Na  Na21  1  0.85466389  0.03834429  0.91741725  1
  Na  Na22  1  0.16485352  0.28169942  0.90405094  1
  Na  Na23  1  0.66808392  0.29480210  0.92249658  1
  Na  Na24  1  0.48116533  0.30015670  0.41692941  1
  Na  Na25  1  0.98323484  0.29899167  0.42101637  1
  Na  Na26  1  0.16763605  0.04456072  0.42193244  1
  Na  Na27  1  0.66709412  0.03686779  0.40377068  1
  Na  Na28  1  0.35276813  0.66499629  0.41752591  1
  Na  Na29  1  0.85263565  0.67162785  0.41996552  1
  Na  Na30  1  0.99606617  0.95601763  0.51492512  1
  Na  Na31  1  0.49282474  0.95169691  0.50723089  1
  Na  Na32  1  0.01088310  0.02674323  0.99627534  1
  Na  Na33  1  0.48898245  0.03265477  0.01213479  1
  Na  Na34  1  0.30759285  0.28592665  0.82902748  1
  Na  Na35  1  0.82914202  0.32090614  0.82176569  1
  Na  Na36  1  0.32466915  0.33435647  0.31897971  1
  Na  Na37  1  0.82286938  0.33087921  0.31926306  1
  Na  Na38  1  0.18549625  0.68478456  0.16303151  1
  Na  Na39  1  0.67212776  0.66231726  0.16056215  1
  Na  Na40  1  0.17029521  0.67851052  0.66470316  1
  Na  Na41  1  0.68654012  0.68382059  0.66547443  1
  Ca  Ca0  1  0.00080634  0.99213276  0.34628820  1
  Ca  Ca1  1  0.49754162  0.98747617  0.34360610  1
  Ca  Ca2  1  0.00103003  0.00557360  0.84649220  1
  Ca  Ca3  1  0.50028594  0.00883439  0.84792620  1
  Ca  Ca4  1  0.33014229  0.33262018  0.67983445  1
  Ca  Ca5  1  0.83434220  0.33279481  0.67781482  1
  Ca  Ca6  1  0.33241628  0.33226301  0.17602288  1
  Ca  Ca7  1  0.83113646  0.32770526  0.17770499  1
  Ca  Ca8  1  0.33195186  0.31154435  0.99044981  1
  Ca  Ca9  1  0.83001598  0.31687139  0.99419143  1
  Ca  Ca10  1  0.32738719  0.34217493  0.49706057  1
  Ca  Ca11  1  0.83727680  0.35630577  0.49494248  1
  Ca  Ca12  1  0.17111104  0.67251988  0.01600020  1
  Ca  Ca13  1  0.66629180  0.66087863  0.02033112  1
  Ca  Ca14  1  0.16671001  0.67181890  0.52103425  1
  Ca  Ca15  1  0.67155795  0.67827108  0.52030070  1
  Ca  Ca16  1  0.17261530  0.68029535  0.30969813  1
  Ca  Ca17  1  0.67143215  0.67465776  0.30970601  1
  Ca  Ca18  1  0.17131051  0.67733020  0.81460719  1
  Ca  Ca19  1  0.67191077  0.66423962  0.81052856  1
  Nb  Nb0  1  0.99739239  0.00013108  0.65158174  1
  Nb  Nb1  1  0.49487898  0.00167257  0.65439499  1
  Nb  Nb2  1  0.99545132  0.98666136  0.15369057  1
  Nb  Nb3  1  0.49724039  0.99176831  0.15100562  1
  Si  Si0  1  0.15131856  0.00448765  0.25250933  1
  Si  Si1  1  0.64960776  0.99966386  0.25282647  1
  Si  Si2  1  0.35059751  0.69711402  0.25442553  1
  Si  Si3  1  0.84893437  0.69273632  0.25557961  1
  Si  Si4  1  0.14911019  0.30282914  0.75098215  1
  Si  Si5  1  0.65130195  0.29895817  0.75114819  1
  Si  Si6  1  0.34755879  0.00342482  0.75478868  1
  Si  Si7  1  0.85066045  0.00213559  0.75469964  1
  Si  Si8  1  0.17302524  0.02489348  0.58260309  1
  Si  Si9  1  0.33897527  0.65514175  0.58244475  1
  Si  Si10  1  0.83375103  0.65060978  0.58320524  1
  Si  Si11  1  0.33376697  0.01699094  0.08509437  1
  Si  Si12  1  0.83775150  0.02191409  0.08364178  1
  Si  Si13  1  0.67308186  0.32184773  0.08426227  1
  Si  Si14  1  0.16526777  0.97466234  0.91762916  1
  S  S0  1  0.00115252  0.29162219  0.25018265  1
  S  S1  1  0.50057108  0.29435688  0.25087867  1
  S  S2  1  -0.00033873  0.70639981  0.74868470  1
  S  S3  1  0.50247291  0.71276866  0.74933436  1
  S  S4  1  0.48826351  0.32103055  0.58449882  1
  S  S5  1  0.98859849  0.31855805  0.58316351  1
  S  S6  1  0.67231226  0.02910613  0.58369030  1
  S  S7  1  0.48872374  0.65594648  0.08430362  1
  S  S8  1  0.98789997  0.65175908  0.08771678  1
  S  S9  1  0.17065813  0.31761914  0.08698235  1
  S  S10  1  0.32187977  0.66319087  0.91579691  1
  S  S11  1  0.81781565  0.65668196  0.91763341  1
  S  S12  1  0.01289504  0.36926373  0.91534365  1
  S  S13  1  0.51563176  0.36988323  0.91349349  1
  S  S14  1  0.66610043  0.96624769  0.91565191  1
  S  S15  1  0.32071709  0.97980304  0.41764656  1
  S  S16  1  0.81901917  0.98012671  0.41571143  1
  S  S17  1  0.16600954  0.36656873  0.41553458  1
  S  S18  1  0.66480638  0.36252000  0.41783764  1
  S  S19  1  0.01351190  0.65730663  0.41348428  1
  S  S20  1  0.51530007  0.65999106  0.41605867  1
  O  O0  1  0.11401235  0.02142155  0.31417916  1
  O  O1  1  0.61249125  0.01550289  0.31493779  1
  O  O2  1  0.38951772  0.76474642  0.31867448  1
  O  O3  1  0.89132258  0.77584136  0.31693275  1
  O  O4  1  0.49064359  0.21240755  0.30805238  1
  O  O5  1  0.99132613  0.20844178  0.30659598  1
  O  O6  1  0.10983903  0.20967922  0.81157250  1
  O  O7  1  0.61197026  0.20130888  0.81098327  1
  O  O8  1  0.49211217  0.77769963  0.80504839  1
  O  O9  1  0.98897218  0.77081823  0.80454159  1
  O  O10  1  0.39461849  0.01000731  0.81393716  1
  O  O11  1  0.89027163  0.01185458  0.81818171  1
  O  O12  1  0.41388221  0.00367018  0.69885708  1
  O  O13  1  0.91672389  0.00032694  0.70337088  1
  O  O14  1  0.08656456  0.17549977  0.69611349  1
  O  O15  1  0.58931577  0.17411088  0.69394203  1
  O  O16  1  0.00112861  0.81290457  0.69941070  1
  O  O17  1  0.50239962  0.82197378  0.70000435  1
  O  O18  1  0.41814707  0.83173665  0.20476130  1
  O  O19  1  0.91479897  0.82601972  0.20124722  1
  O  O20  1  0.00117929  0.18356162  0.20128719  1
  O  O21  1  0.50215707  0.18882007  0.20264669  1
  O  O22  1  0.08674336  0.00504947  0.19832669  1
  O  O23  1  0.58656077  0.00008048  0.19931429  1
  O  O24  1  0.44932781  0.33737224  0.63769022  1
  O  O25  1  0.94689116  0.33557534  0.63468973  1
  O  O26  1  0.23777982  0.12031729  0.63486481  1
  O  O27  1  0.72061026  0.10727551  0.63689073  1
  O  O28  1  0.32714690  0.53771009  0.63704608  1
  O  O29  1  0.81991892  0.52114703  0.63468554  1
  O  O30  1  0.44901394  0.56078605  0.13715121  1
  O  O31  1  0.94802641  0.56387518  0.14168057  1
  O  O32  1  0.32485489  0.11640680  0.13955681  1
  O  O33  1  0.82475196  0.11080837  0.13968052  1
  O  O34  1  0.21807315  0.33910131  0.14111209  1
  O  O35  1  0.73482784  0.35503317  0.13868812  1
  O  O36  1  0.21263992  0.29663558  0.03550554  1
  O  O37  1  0.70671422  0.27297791  0.02563169  1
  O  O38  1  0.44336097  0.57856573  0.03016616  1
  O  O39  1  0.93701723  0.57767938  0.03498382  1
  O  O40  1  0.35278113  0.11382621  0.02285569  1
  O  O41  1  0.85235849  0.11720763  0.02181253  1
  O  O42  1  0.20362610  0.13543553  0.52235748  1
  O  O43  1  0.71408302  0.12666636  0.53045545  1
  O  O44  1  0.35538988  0.59634470  0.51910349  1
  O  O45  1  0.85028522  0.59260314  0.51929576  1
  O  O46  1  0.43865905  0.29638978  0.53116579  1
  O  O47  1  0.94416939  0.30688996  0.52801171  1
  O  O48  1  0.27550914  0.67506021  0.96535790  1
  O  O49  1  0.77428329  0.66699973  0.96992560  1
  O  O50  1  0.06424925  0.46218095  0.96522790  1
  O  O51  1  0.56895512  0.46736918  0.96193228  1
  O  O52  1  0.15767573  0.86674571  0.97579521  1
  O  O53  1  0.66465593  0.87527538  0.96844244  1
  O  O54  1  0.27749378  0.88187983  0.46957760  1
  O  O55  1  0.77432911  0.87471058  0.46557809  1
  O  O56  1  0.16426206  0.45453920  0.46849506  1
  O  O57  1  0.66205717  0.45101203  0.47048181  1
  O  O58  1  0.06436655  0.66153509  0.46276903  1
  O  O59  1  0.56605231  0.66711681  0.46611377  1
  O  O60  1  0.05051564  0.65000468  0.35703598  1
  O  O61  1  0.55435904  0.65414311  0.36028640  1
  O  O62  1  0.27417472  0.89864096  0.36375276  1
  O  O63  1  0.77430842  0.90443672  0.36053301  1
  O  O64  1  0.16754002  0.45667887  0.36191708  1
  O  O65  1  0.67111350  0.45628020  0.36427916  1
  O  O66  1  0.05139214  0.45102261  0.85912259  1
  O  O67  1  0.55227434  0.44910298  0.85642863  1
  O  O68  1  0.17314423  0.88629262  0.85769345  1
  O  O69  1  0.66763750  0.87913454  0.86177961  1
  O  O70  1  0.27836942  0.64840583  0.85996055  1
  O  O71  1  0.76947065  0.64090767  0.86402075  1
  O  O72  1  0.00390095  0.80481032  0.41747251  1
  O  O73  1  0.50590584  0.80832045  0.41868433  1
  O  O74  1  0.40500960  0.00138156  0.41688123  1
  O  O75  1  0.90373374  0.00504202  0.41553029  1
  O  O76  1  0.09103266  0.20125322  0.41610478  1
  O  O77  1  0.58893950  0.19869895  0.41711686  1
  O  O78  1  0.00126018  0.20132291  0.91750086  1
  O  O79  1  0.50566813  0.20325554  0.91719618  1
  O  O80  1  0.08165203  0.99015163  0.91925694  1
  O  O81  1  0.59123078  0.98207873  0.91638113  1
  O  O82  1  0.40584096  0.81134486  0.91660680  1
  O  O83  1  0.90029909  0.80460513  0.91603538  1
  O  O84  1  0.49465415  0.16632646  0.59004122  1
  O  O85  1  0.99218470  0.16300470  0.58805160  1
  O  O86  1  0.08138579  0.00878811  0.59705813  1
  O  O87  1  0.59193451  0.02730324  0.58773489  1
  O  O88  1  0.42412461  0.84363034  0.59579730  1
  O  O89  1  0.91492275  0.83234158  0.59986667  1
  O  O90  1  0.49318024  0.82067787  0.08931148  1
  O  O91  1  0.99590063  0.82168892  0.09199136  1
  O  O92  1  0.41595405  0.99676568  0.10170129  1
  O  O93  1  0.92200100  0.00177995  0.09789128  1
  O  O94  1  0.08960753  0.15848137  0.09176868  1
  O  O95  1  0.58158858  0.15320239  0.09826483  1
  O  O96  1  0.34658820  0.17175673  0.74749779  1
  O  O97  1  0.84401243  0.16582801  0.74520257  1
  O  O98  1  0.24100121  0.32948092  0.74664427  1
  O  O99  1  0.74323798  0.32753316  0.74484210  1
  O  O100  1  0.43554075  0.54591283  0.74041350  1
  O  O101  1  0.92960783  0.53863422  0.74106363  1
  O  O102  1  0.34371574  0.52050724  0.24487685  1
  O  O103  1  0.84786203  0.52234277  0.24762696  1
  O  O104  1  0.43202761  0.32539412  0.24282344  1
  O  O105  1  0.93346321  0.32426225  0.24228642  1
  O  O106  1  0.24264280  0.15979885  0.24508952  1
  O  O107  1  0.74204067  0.15370600  0.24722394  1
  O  O108  1  0.33273506  0.51809258  0.92175597  1
  O  O109  1  0.82738608  0.50944818  0.92106167  1
  O  O110  1  0.43438069  0.35889599  0.91803611  1
  O  O111  1  0.93098243  0.35861824  0.91860675  1
  O  O112  1  0.24800607  0.15877710  0.91877503  1
  O  O113  1  0.74057603  0.13272711  0.91516536  1
  O  O114  1  0.33006364  0.14643669  0.42089908  1
  O  O115  1  0.82611800  0.14459032  0.42146616  1
  O  O116  1  0.24069801  0.34917853  0.41519023  1
  O  O117  1  0.73765994  0.33828172  0.42005347  1
  O  O118  1  0.43265796  0.51009533  0.41882538  1
  O  O119  1  0.93024135  0.50750755  0.41696665  1
  O  O120  1  0.15388907  0.45149183  0.07996219  1
  O  O121  1  0.66275016  0.48038986  0.08014469  1
  O  O122  1  0.07083806  0.67805730  0.08291258  1
  O  O123  1  0.57483649  0.69487265  0.08132750  1
  O  O124  1  0.25236141  0.83803119  0.08455936  1
  O  O125  1  0.76012418  0.83628485  0.08321265  1
  O  O126  1  0.16205468  0.84510285  0.57907710  1
  O  O127  1  0.65572974  0.86113196  0.57874924  1
  O  O128  1  0.26124322  0.68524080  0.58276389  1
  O  O129  1  0.75094417  0.66343814  0.58412595  1
  O  O130  1  0.07435055  0.45214268  0.58072284  1
  O  O131  1  0.57264315  0.45723086  0.57860146  1
  O  O132  1  0.14697452  0.82899198  0.24329771  1
  O  O133  1  0.64724980  0.82526734  0.24451193  1
  O  O134  1  0.26321329  0.68921300  0.24351236  1
  O  O135  1  0.76260376  0.68431362  0.24138656  1
  O  O136  1  0.08026407  0.44700342  0.24738589  1
  O  O137  1  0.57902363  0.45119560  0.24893240  1
  O  O138  1  0.14695802  0.47175523  0.74234990  1
  O  O139  1  0.64658796  0.46516747  0.74179069  1
  O  O140  1  0.07661160  0.70202172  0.74606804  1
  O  O141  1  0.58225795  0.71868518  0.74616376  1
  O  O142  1  0.26336035  0.83705493  0.74021995  1
  O  O143  1  0.76301409  0.83574106  0.74355878  1
loop_
_geom_bond_atom_site_label_1
_geom_bond_atom_site_label_2
_geom_bond_distance
_geom_bond_site_symmetry_2
Na0 O32 2.292887 1_565
Na0 O106 2.443583 1_565
Na0 O134 2.601191 1_555
Na0 O132 2.626417 1_555
Na0 O104 2.870293 1_565
Na1 O33 2.300422 1_565
Na1 O107 2.390966 1_565
Na1 O133 2.548030 1_555
Na1 O135 2.598214 1_555
Na2 O34 2.423591 1_555
Na2 O102 2.427885 1_555
Na2 O106 2.583401 1_555
Na2 O134 2.615652 1_555
Na2 O136 2.615820 1_555
Na2 O64 2.937751 1_555
Na3 O35 2.281292 1_555
Na3 O103 2.549041 1_555
Na3 O107 2.615166 1_555
Na3 O135 2.639710 1_555
Na3 O137 2.707493 1_555
Na4 O132 2.468065 1_655
Na4 O103 2.474946 1_555
Na4 O31 2.563996 1_555
Na4 O105 2.670145 1_555
Na4 O60 2.683923 1_655
Na5 O133 2.467046 1_555
Na5 O102 2.527497 1_555
Na5 O30 2.604412 1_555
Na5 O104 2.730849 1_555
Na5 O61 2.857312 1_555
Na6 O98 2.378098 1_555
Na6 O28 2.465997 1_555
Na6 O138 2.514005 1_555
Na6 O142 2.530983 1_555
Na6 O70 2.938514 1_555
Na6 O100 2.959944 1_555
Na7 O99 2.426674 1_555
Na7 O29 2.444280 1_555
Na7 O143 2.621484 1_555
Na7 O139 2.683477 1_555
Na7 O101 2.751916 1_555
Na8 O138 2.431900 1_655
Na8 O97 2.568095 1_555
Na8 O66 2.630129 1_655
Na8 O101 2.794793 1_555
Na8 O25 2.856923 1_555
Na9 O96 2.452515 1_555
Na9 O139 2.516702 1_555
Na9 O67 2.559356 1_555
Na9 O100 2.682318 1_555
Na9 O24 2.776491 1_555
Na10 O96 2.550540 1_555
Na10 O98 2.619620 1_555
Na10 O140 2.685303 1_545
Na10 O142 2.686731 1_545
Na10 O68 2.719535 1_545
Na10 O26 2.769846 1_555
Na11 O97 2.417968 1_555
Na11 O99 2.584262 1_555
Na11 O141 2.596754 1_545
Na11 O143 2.630773 1_545
Na11 O27 2.640893 1_555
Na11 O69 2.844535 1_545
Na12 O130 2.538962 1_555
Na12 O86 2.737321 1_555
Na12 O28 2.777785 1_555
Na12 O14 2.822031 1_555
Na12 O42 2.842627 1_555
Na12 O128 2.845613 1_555
Na12 O85 2.928345 1_455
Na13 O129 2.469760 1_555
Na13 O131 2.482460 1_555
Na13 O29 2.566731 1_555
Na13 O87 2.792451 1_555
Na13 O15 2.800918 1_555
Na13 O84 2.929998 1_555
Na13 O57 3.029841 1_555
Na14 O128 2.327882 1_555
Na14 O126 2.451370 1_555
Na14 O26 2.637839 1_565
Na15 O52 2.348880 1_554
Na15 O122 2.472296 1_555
Na15 O124 2.472832 1_555
Na15 O94 2.900067 1_565
Na16 O123 2.548747 1_545
Na16 O37 2.738129 1_555
Na16 O95 2.741171 1_555
Na16 O33 2.799935 1_555
Na16 O125 2.810917 1_545
Na16 O90 2.924201 1_545
Na16 O53 2.964373 1_544
Na16 O23 2.991532 1_555
Na17 O125 2.321854 1_555
Na17 O121 2.482250 1_555
Na17 O35 2.774677 1_555
Na17 O49 2.805279 1_554
Na17 O93 2.842723 1_565
Na18 O108 2.422287 1_555
Na18 O82 2.452621 1_555
Na18 O110 2.561590 1_555
Na18 O38 2.587564 1_556
Na18 O81 2.698363 1_555
Na18 O8 2.845633 1_555
Na19 O80 2.436911 1_555
Na19 O83 2.651483 1_455
Na19 O111 2.771192 1_455
Na19 O52 2.807541 1_555
Na19 O9 2.831724 1_455
Na19 O39 2.839520 1_456
Na19 O109 2.897425 1_455
Na20 O40 2.510136 1_556
Na20 O112 2.511950 1_555
Na20 O10 2.670484 1_555
Na20 O110 2.779059 1_555
Na20 O79 2.834668 1_555
Na20 O82 2.959314 1_545
Na20 O68 2.962867 1_545
Na21 O11 2.410459 1_555
Na21 O78 2.410496 1_655
Na21 O41 2.501739 1_556
Na21 O111 2.636704 1_555
Na21 O113 2.723480 1_555
Na21 O83 2.757099 1_545
Na22 O6 2.298256 1_555
Na22 O112 2.408262 1_555
Na22 O80 2.432448 1_545
Na22 O78 2.813895 1_555
Na22 O108 2.859236 1_555
Na23 O37 2.502571 1_556
Na23 O113 2.529923 1_555
Na23 O81 2.577017 1_545
Na23 O109 2.667219 1_555
Na23 O7 2.726120 1_555
Na23 O79 2.749864 1_555
Na24 O74 2.458731 1_555
Na24 O114 2.481091 1_555
Na24 O118 2.580511 1_555
Na24 O4 2.652597 1_555
Na24 O77 2.658387 1_555
Na24 O46 2.722451 1_555
Na25 O75 2.424318 1_555
Na25 O47 2.562250 1_555
Na25 O115 2.577922 1_555
Na25 O119 2.632901 1_555
Na25 O76 2.634888 1_655
Na25 O5 2.774518 1_555
Na26 O42 2.420450 1_555
Na26 O116 2.512579 1_555
Na26 O76 2.549937 1_555
Na26 O0 2.625159 1_555
Na26 O114 2.725475 1_555
Na26 O72 2.784676 1_545
Na27 O1 2.236511 1_555
Na27 O117 2.508911 1_555
Na27 O77 2.631644 1_555
Na27 O115 2.683356 1_555
Na27 O73 2.743935 1_545
Na28 O2 2.411529 1_555
Na28 O44 2.415084 1_555
Na28 O73 2.514175 1_555
Na28 O118 2.585759 1_555
Na28 O116 2.672815 1_555
Na28 O74 2.834291 1_565
Na29 O45 2.381325 1_555
Na29 O72 2.488173 1_655
Na29 O3 2.514796 1_555
Na29 O119 2.625097 1_555
Na29 O117 2.806780 1_555
Na29 O75 2.814034 1_565
Na30 O86 2.357008 1_665
Na30 O89 2.387953 1_555
Na30 O85 2.605438 1_565
Na30 O72 2.688584 1_655
Na31 O88 2.345758 1_555
Na31 O87 2.460671 1_565
Na31 O73 2.514779 1_555
Na31 O84 2.764578 1_565
Na31 O74 2.832250 1_565
Na31 O77 2.965836 1_565
Na32 O80 2.338963 1_545
Na32 O78 2.515090 1_555
Na32 O94 2.579515 1_556
Na32 O83 2.784374 1_445
Na32 O93 2.805345 1_456
Na32 O91 2.847004 1_446
Na33 O92 2.395261 1_545
Na33 O95 2.495373 1_555
Na33 O79 2.630039 1_554
Na33 O90 2.708217 1_545
Na33 O82 2.883904 1_544
Na34 O112 2.360388 1_555
Na34 O98 2.411490 1_555
Na34 O96 2.444609 1_555
Na34 O108 2.915028 1_555
Na34 O110 2.948723 1_555
Na35 O97 2.388804 1_555
Na35 O99 2.414534 1_555
Na35 O101 2.714887 1_555
Na35 O113 2.750967 1_555
Na35 O111 2.833670 1_555
Na35 O109 2.895586 1_555
Na36 O106 2.327047 1_555
Na36 O102 2.342745 1_555
Na36 O104 2.708846 1_555
Na36 O116 2.755461 1_555
Na36 O118 2.953612 1_555
Na36 O114 2.966351 1_555
Na37 O107 2.299458 1_555
Na37 O103 2.313774 1_555
Na37 O105 2.758953 1_555
Na37 O117 2.830628 1_555
Na37 O119 2.913251 1_555
Na37 O115 2.948571 1_555
Na38 O124 2.257335 1_555
Na38 O134 2.339505 1_555
Na38 O132 2.598869 1_555
Na38 O120 2.741911 1_555
Na38 O122 2.813810 1_555
Na38 O136 2.880354 1_555
Na39 O125 2.425281 1_555
Na39 O135 2.452811 1_555
Na39 O121 2.462693 1_555
Na39 O133 2.646821 1_555
Na39 O123 2.706834 1_555
Na39 O137 2.770902 1_555
Na40 O142 2.382285 1_555
Na40 O138 2.517148 1_555
Na40 O128 2.521777 1_555
Na40 O126 2.569396 1_555
Na40 O140 2.653785 1_555
Na40 O130 2.769517 1_555
Na41 O129 2.281704 1_555
Na41 O143 2.291401 1_555
Na41 O139 2.522108 1_555
Na41 O141 2.838357 1_555
Na41 O127 2.843543 1_555
Na41 O131 2.924184 1_555
Ca0 O0 2.149247 1_565
Ca0 O3 2.169049 1_455
Ca0 O5 2.334980 1_465
Ca0 O72 2.433537 1_555
Ca0 O76 2.448350 1_565
Ca0 O75 2.473754 1_465
Ca1 O2 2.157227 1_555
Ca1 O1 2.159488 1_565
Ca1 O4 2.351224 1_565
Ca1 O74 2.473422 1_565
Ca1 O73 2.476908 1_555
Ca1 O77 2.519196 1_565
Ca2 O6 2.157430 1_555
Ca2 O11 2.224253 1_455
Ca2 O80 2.308718 1_545
Ca2 O9 2.329380 1_445
Ca2 O78 2.462429 1_555
Ca2 O83 2.484805 1_445
Ca3 O10 2.151543 1_555
Ca3 O7 2.160918 1_555
Ca3 O8 2.335792 1_545
Ca3 O79 2.391685 1_555
Ca3 O82 2.415101 1_545
Ca3 O81 2.430439 1_545
Ca4 O26 2.154925 1_555
Ca4 O28 2.206977 1_555
Ca4 O98 2.264408 1_555
Ca4 O96 2.301993 1_555
Ca4 O24 2.434192 1_555
Ca4 O100 2.437870 1_555
Ca5 O29 2.177280 1_555
Ca5 O97 2.282955 1_555
Ca5 O99 2.288136 1_555
Ca5 O25 2.336863 1_555
Ca5 O27 2.340683 1_555
Ca5 O101 2.370725 1_555
Ca6 O32 2.149214 1_555
Ca6 O106 2.298840 1_555
Ca6 O102 2.306059 1_555
Ca6 O34 2.338753 1_555
Ca6 O30 2.364982 1_555
Ca6 O104 2.450885 1_555
Ca7 O35 2.158966 1_555
Ca7 O33 2.181408 1_555
Ca7 O107 2.306153 1_555
Ca7 O103 2.338110 1_555
Ca7 O31 2.377848 1_555
Ca7 O105 2.447222 1_555
Ca8 O40 2.231087 1_556
Ca8 O112 2.233446 1_555
Ca8 O110 2.414341 1_555
Ca8 O36 2.422494 1_556
Ca8 O108 2.507735 1_555
Ca8 O38 2.519339 1_556
Ca9 O41 2.232182 1_556
Ca9 O37 2.274580 1_556
Ca9 O111 2.456734 1_555
Ca9 O39 2.466182 1_556
Ca9 O113 2.490231 1_555
Ca9 O109 2.496964 1_555
Ca10 O44 2.254149 1_555
Ca10 O42 2.255883 1_555
Ca10 O46 2.480875 1_555
Ca10 O116 2.508839 1_555
Ca10 O118 2.557217 1_555
Ca10 O114 2.561625 1_555
Ca11 O45 2.202897 1_555
Ca11 O43 2.404226 1_555
Ca11 O119 2.410648 1_555
Ca11 O47 2.416774 1_555
Ca11 O117 2.485994 1_555
Ca11 O115 2.542080 1_555
Ca12 O52 2.187993 1_554
Ca12 O124 2.203423 1_555
Ca12 O48 2.280699 1_554
Ca12 O50 2.318748 1_554
Ca12 O120 2.443730 1_555
Ca12 O122 2.458382 1_555
Ca13 O121 2.168002 1_555
Ca13 O125 2.240575 1_555
Ca13 O51 2.269993 1_554
Ca13 O49 2.322679 1_554
Ca13 O123 2.366990 1_555
Ca13 O53 2.371402 1_554
Ca14 O126 2.146833 1_555
Ca14 O128 2.230197 1_555
Ca14 O58 2.311232 1_555
Ca14 O54 2.363970 1_555
Ca14 O56 2.365574 1_555
Ca14 O130 2.373300 1_555
Ca15 O129 2.147300 1_555
Ca15 O55 2.282446 1_555
Ca15 O59 2.306202 1_555
Ca15 O127 2.323634 1_555
Ca15 O57 2.364075 1_555
Ca15 O131 2.401690 1_555
Ca16 O134 2.256081 1_555
Ca16 O132 2.284504 1_555
Ca16 O62 2.349958 1_555
Ca16 O64 2.397394 1_555
Ca16 O60 2.436736 1_555
Ca16 O136 2.470208 1_555
Ca17 O133 2.265240 1_555
Ca17 O135 2.294554 1_555
Ca17 O63 2.375326 1_555
Ca17 O137 2.400786 1_555
Ca17 O65 2.419057 1_555
Ca17 O61 2.420682 1_555
Ca18 O68 2.198498 1_555
Ca18 O142 2.364080 1_555
Ca18 O70 2.411495 1_555
Ca18 O138 2.414678 1_555
Ca18 O66 2.437500 1_555
Ca18 O140 2.477142 1_555
Ca19 O143 2.273069 1_555
Ca19 O139 2.312343 1_555
Ca19 O71 2.315559 1_555
Ca19 O69 2.387324 1_555
Ca19 O67 2.406042 1_555
Ca19 O141 2.487160 1_555
Nb0 O13 1.932816 1_555
Nb0 O14 1.959321 1_655
Nb0 O89 1.968275 1_545
Nb0 O86 1.989245 1_655
Nb0 O16 2.119623 1_645
Nb0 O85 2.159848 1_555
Nb1 O12 1.847777 1_555
Nb1 O15 1.939165 1_555
Nb1 O88 1.953362 1_545
Nb1 O17 2.065795 1_545
Nb1 O84 2.148716 1_555
Nb1 O87 2.304012 1_555
Nb2 O19 1.875264 1_555
Nb2 O22 1.937336 1_665
Nb2 O93 1.942935 1_565
Nb2 O91 2.107835 1_555
Nb2 O20 2.116656 1_665
Nb2 O94 2.222799 1_665
Nb3 O92 1.926015 1_555
Nb3 O18 1.947044 1_555
Nb3 O95 1.977644 1_565
Nb3 O23 1.986824 1_565
Nb3 O90 2.120209 1_555
Nb3 O21 2.172394 1_565
O0 Si0 1.617948 1_555
O1 Si1 1.621736 1_545
O2 Si2 1.620269 1_555
O3 Si3 1.608397 1_555
O4 S1 1.483076 1_555
O5 S0 1.473614 1_655
O6 Si4 1.610475 1_555
O7 Si5 1.610220 1_555
O8 S3 1.467094 1_555
O9 S2 1.469703 1_655
O10 Si6 1.600328 1_555
O11 Si7 1.611459 1_555
O12 Si6 1.790267 1_555
O13 Si7 1.720577 1_555
O14 Si4 1.730017 1_555
O15 Si5 1.757283 1_555
O16 S2 1.504612 1_555
O17 S3 1.532383 1_555
O18 Si2 1.710822 1_555
O19 Si3 1.767375 1_555
O20 S0 1.514695 1_555
O21 S1 1.497603 1_555
O22 Si0 1.740262 1_555
O23 Si1 1.708565 1_545
O24 S4 1.467943 1_555
O25 S5 1.469584 1_555
O26 Si8 1.621668 1_555
O27 S6 1.475431 1_555
O28 Si9 1.612871 1_555
O29 Si10 1.625948 1_555
O30 S7 1.470046 1_555
O31 S8 1.468570 1_555
O32 Si11 1.618422 1_555
O33 Si12 1.616211 1_555
O34 S9 1.478866 1_555
O35 Si13 1.623759 1_555
O36 S9 1.486455 1_555
O37 Si13 1.644494 1_555
O38 S7 1.472156 1_555
O39 S8 1.479242 1_555
O40 Si11 1.632529 1_555
O41 Si12 1.624634 1_555
O42 Si8 1.650603 1_555
O43 S6 1.493745 1_555
O44 Si9 1.633140 1_555
O45 Si10 1.642184 1_555
O46 S4 1.481578 1_555
O47 S5 1.485882 1_555
O48 S10 1.470358 1_555
O49 S11 1.481133 1_555
O50 S12 1.468500 1_555
O51 S13 1.469087 1_555
O52 Si14 1.640021 1_555
O53 S14 1.475704 1_555
O54 S15 1.477248 1_555
O55 S16 1.473359 1_555
O56 S17 1.477450 1_555
O57 S18 1.480392 1_555
O58 S19 1.467355 1_555
O59 S20 1.471613 1_555
O60 S19 1.484284 1_555
O61 S20 1.486813 1_555
O62 S15 1.482668 1_555
O63 S16 1.484817 1_555
O64 S17 1.486043 1_555
O65 S18 1.482469 1_555
O66 S12 1.489178 1_555
O67 S13 1.491442 1_555
O68 Si14 1.648431 1_555
O69 S14 1.488666 1_555
O70 S10 1.484316 1_555
O71 S11 1.489008 1_555
O72 S19 1.503568 1_555
O73 S20 1.507446 1_555
O74 S15 1.505052 1_545
O75 S16 1.500646 1_545
O76 S17 1.501375 1_555
O77 S18 1.500569 1_555
O78 S12 1.498708 1_555
O79 S13 1.500434 1_555
O80 Si14 1.663045 1_555
O81 S14 1.499417 1_555
O82 S10 1.507608 1_555
O83 S11 1.490852 1_555
O84 S4 1.539564 1_555
O85 S5 1.517508 1_555
O86 Si8 1.697482 1_555
O87 S6 1.517153 1_555
O88 Si9 1.735220 1_555
O89 Si10 1.683013 1_555
O90 S7 1.528904 1_555
O91 S8 1.547388 1_555
O92 Si11 1.704006 1_565
O93 Si12 1.730563 1_555
O94 S9 1.528107 1_555
O95 Si13 1.702708 1_555
O96 Si6 1.617661 1_555
O97 Si7 1.636843 1_555
O98 Si4 1.632197 1_555
O99 Si5 1.629607 1_555
O100 S3 1.466660 1_555
O101 S2 1.488564 1_655
O102 Si2 1.631093 1_555
O103 Si3 1.618913 1_555
O104 S1 1.479845 1_555
O105 S0 1.473379 1_655
O106 Si0 1.627220 1_555
O107 Si1 1.631877 1_545
O108 S10 1.498642 1_555
O109 S11 1.500123 1_555
O110 S13 1.493545 1_555
O111 S12 1.505730 1_655
O112 Si14 1.666073 1_545
O113 S14 1.503781 1_545
O114 S15 1.504373 1_545
O115 S16 1.505524 1_545
O116 S17 1.504469 1_555
O117 S18 1.509474 1_555
O118 S20 1.501452 1_555
O119 S19 1.508674 1_655
O120 S9 1.466148 1_555
O121 Si13 1.616183 1_555
O122 S8 1.466641 1_455
O123 S7 1.483156 1_555
O124 Si11 1.627143 1_565
O125 Si12 1.637061 1_565
O126 Si8 1.616387 1_565
O127 S6 1.468622 1_565
O128 Si9 1.634562 1_555
O129 Si10 1.633314 1_555
O130 S5 1.480457 1_455
O131 S4 1.476633 1_555
O132 Si0 1.641112 1_565
O133 Si1 1.645881 1_555
O134 Si2 1.638133 1_555
O135 Si3 1.629298 1_555
O136 S0 1.489238 1_555
O137 S1 1.489048 1_555
O138 Si4 1.638159 1_555
O139 Si5 1.640159 1_555
O140 S2 1.480325 1_555
O141 S3 1.486050 1_555
O142 Si6 1.621643 1_565
O143 Si7 1.641404 1_565
