# generated using pymatgen
data_MgZn2(CuO2)4
_symmetry_space_group_name_H-M   'P 1'
_cell_length_a   6.25099552
_cell_length_b   5.88241820
_cell_length_c   5.88524738
_cell_angle_alpha   59.96878099
_cell_angle_beta   61.75130859
_cell_angle_gamma   61.73709073
_symmetry_Int_Tables_number   1
_chemical_formula_structural   MgZn2(CuO2)4
_chemical_formula_sum   'Mg1 Zn2 Cu4 O8'
_cell_volume   156.89430843
_cell_formula_units_Z   1
loop_
 _symmetry_equiv_pos_site_id
 _symmetry_equiv_pos_as_xyz
  1  'x, y, z'
loop_
 _atom_site_type_symbol
 _atom_site_label
 _atom_site_symmetry_multiplicity
 _atom_site_fract_x
 _atom_site_fract_y
 _atom_site_fract_z
 _atom_site_occupancy
  Mg  Mg0  1  0.62189900  0.12969500  0.12612000  1
  Zn  Zn0  1  0.09213400  0.96663100  0.96910000  1
  Zn  Zn1  1  0.12148200  0.62471400  0.62623800  1
  Cu  Cu0  1  0.15417000  0.27405800  0.28151500  1
  Cu  Cu1  1  0.62466800  0.12863600  0.62432100  1
  Cu  Cu2  1  0.62537300  0.62590300  0.12666900  1
  Cu  Cu3  1  0.62615700  0.62543000  0.62357500  1
  O  O0  1  0.38948900  0.37274300  0.37111200  1
  O  O1  1  0.38880900  0.37191000  0.87107900  1
  O  O2  1  0.38867100  0.87391100  0.36976100  1
  O  O3  1  0.80192300  0.40162000  0.39921700  1
  O  O4  1  0.45220300  0.84988100  0.84934400  1
  O  O5  1  0.86345200  0.37844400  0.87968200  1
  O  O6  1  0.86264300  0.88105500  0.37813200  1
  O  O7  1  0.86192800  0.88078100  0.87913000  1
loop_
_geom_bond_atom_site_label_1
_geom_bond_atom_site_label_2
_geom_bond_distance
_geom_bond_site_symmetry_2
Mg0 O0 2.084954 1_555
Mg0 O1 2.090340 1_554
Mg0 O2 2.093923 1_545
Mg0 O5 2.102313 1_554
Mg0 O6 2.112024 1_545
Mg0 O7 2.119765 1_544
Cu0 O3 1.844714 1_455
Cu0 O2 2.046554 1_545
Cu0 O1 2.090806 1_554
Cu0 O0 2.151305 1_555
Cu1 O3 1.930686 1_555
Cu1 O4 1.937507 1_545
Cu1 O0 2.092019 1_555
Cu1 O1 2.094243 1_555
Cu1 O7 2.107890 1_545
Cu1 O6 2.110292 1_545
Cu2 O3 1.926135 1_555
Cu2 O4 1.934122 1_554
Cu2 O0 2.094910 1_555
Cu2 O2 2.098924 1_555
Cu2 O7 2.104982 1_554
Cu2 O5 2.113106 1_554
Cu3 O3 1.918532 1_555
Cu3 O4 1.928666 1_555
Cu3 O1 2.102942 1_555
Cu3 O2 2.104829 1_555
Cu3 O6 2.107755 1_555
Cu3 O5 2.113391 1_555
O0 Zn1 2.180107 1_555
O1 Zn1 2.204835 1_555
O2 Zn1 2.221313 1_555
O4 Zn0 1.885045 1_555
O5 Zn0 2.084534 1_645
O5 Zn1 2.167414 1_655
O6 Zn0 2.075632 1_654
O6 Zn1 2.178471 1_655
O7 Zn0 2.069614 1_655
O7 Zn1 2.181775 1_655
