# generated using pymatgen
data_Li3Co3(PO4)4
_symmetry_space_group_name_H-M   'P 1'
_cell_length_a   4.93961600
_cell_length_b   8.07263000
_cell_length_c   15.24189591
_cell_angle_alpha   68.66232493
_cell_angle_beta   90.00000000
_cell_angle_gamma   90.00000000
_symmetry_Int_Tables_number   1
_chemical_formula_structural   Li3Co3(PO4)4
_chemical_formula_sum   'Li6 Co6 P8 O32'
_cell_volume   566.11907167
_cell_formula_units_Z   2
loop_
 _symmetry_equiv_pos_site_id
 _symmetry_equiv_pos_as_xyz
  1  'x, y, z'
loop_
 _atom_site_type_symbol
 _atom_site_label
 _atom_site_symmetry_multiplicity
 _atom_site_fract_x
 _atom_site_fract_y
 _atom_site_fract_z
 _atom_site_occupancy
  Li  Li0  1  0.48448200  0.70106100  0.12216900  1
  Li  Li1  1  0.01551800  0.70106100  0.62216900  1
  Li  Li2  1  0.50000000  0.00000000  0.50000000  1
  Li  Li3  1  0.51551800  0.29893900  0.87783100  1
  Li  Li4  1  0.98448200  0.29893900  0.37783100  1
  Li  Li5  1  0.00000000  0.00000000  0.00000000  1
  Co  Co0  1  0.00000000  0.50000000  0.50000000  1
  Co  Co1  1  0.56838300  0.81723000  0.70491500  1
  Co  Co2  1  0.93161700  0.81723000  0.20491500  1
  Co  Co3  1  0.06838300  0.18277000  0.79508500  1
  Co  Co4  1  0.43161700  0.18277000  0.29508500  1
  Co  Co5  1  0.50000000  0.50000000  0.00000000  1
  P  P0  1  0.51046700  0.52674900  0.35555100  1
  P  P1  1  0.98036000  0.91463200  0.39345800  1
  P  P2  1  0.48036000  0.08536800  0.10654200  1
  P  P3  1  0.51964000  0.91463200  0.89345800  1
  P  P4  1  0.48953300  0.47325100  0.64444900  1
  P  P5  1  0.01964000  0.08536800  0.60654200  1
  P  P6  1  0.98953300  0.52674900  0.85555100  1
  P  P7  1  0.01046700  0.47325100  0.14444900  1
  O  O0  1  0.19096800  0.01738900  0.10731900  1
  O  O1  1  0.18061900  0.43865500  0.06962300  1
  O  O2  1  0.31872200  0.06150700  0.89925800  1
  O  O3  1  0.31938100  0.43865500  0.56962300  1
  O  O4  1  0.45026400  0.74793100  0.98064600  1
  O  O5  1  0.69096800  0.98261100  0.39268100  1
  O  O6  1  0.95026400  0.25206900  0.51935400  1
  O  O7  1  0.54279200  0.11524500  0.19977800  1
  O  O8  1  0.80903200  0.98261100  0.89268100  1
  O  O9  1  0.45720800  0.88475500  0.80022200  1
  O  O10  1  0.79605800  0.48062300  0.62074600  1
  O  O11  1  0.18127800  0.06150700  0.39925800  1
  O  O12  1  0.58243000  0.67147600  0.25840400  1
  O  O13  1  0.20394200  0.51937700  0.37925400  1
  O  O14  1  0.54973600  0.25206900  0.01935400  1
  O  O15  1  0.08499000  0.66050300  0.15062000  1
  O  O16  1  0.58499000  0.33949700  0.34938000  1
  O  O17  1  0.91501000  0.33949700  0.84938000  1
  O  O18  1  0.29605800  0.51937700  0.87925400  1
  O  O19  1  0.08243000  0.32852400  0.24159600  1
  O  O20  1  0.41757000  0.32852400  0.74159600  1
  O  O21  1  0.81938100  0.56134500  0.93037700  1
  O  O22  1  0.41501000  0.66050300  0.65062000  1
  O  O23  1  0.30903200  0.01738900  0.60731900  1
  O  O24  1  0.04279200  0.88475500  0.30022200  1
  O  O25  1  0.04973600  0.74793100  0.48064600  1
  O  O26  1  0.91757000  0.67147600  0.75840400  1
  O  O27  1  0.70394200  0.48062300  0.12074600  1
  O  O28  1  0.68127800  0.93849300  0.10074200  1
  O  O29  1  0.81872200  0.93849300  0.60074200  1
  O  O30  1  0.95720800  0.11524500  0.69977800  1
  O  O31  1  0.68061900  0.56134500  0.43037700  1
loop_
_geom_bond_atom_site_label_1
_geom_bond_atom_site_label_2
_geom_bond_distance
_geom_bond_site_symmetry_2
Li0 O15 2.021382 1_555
Li0 O4 2.056885 1_554
Li0 O12 2.059611 1_555
Li0 O28 2.066358 1_555
Li0 O27 2.090548 1_555
Li1 O22 2.021382 1_555
Li1 O25 2.056885 1_555
Li1 O26 2.059611 1_455
Li1 O29 2.066358 1_455
Li1 O10 2.090548 1_455
Li2 O5 1.937085 1_545
Li2 O23 1.937085 1_555
Li2 O11 2.127930 1_555
Li2 O29 2.127930 1_545
Li3 O17 2.021382 1_555
Li3 O14 2.056885 1_556
Li3 O20 2.059611 1_555
Li3 O2 2.066358 1_555
Li3 O18 2.090548 1_555
Li4 O16 2.021382 1_555
Li4 O6 2.056885 1_555
Li4 O19 2.059611 1_655
Li4 O11 2.066358 1_655
Li4 O13 2.090548 1_655
Li5 O0 1.937085 1_555
Li5 O8 1.937085 1_444
Li5 O2 2.127930 1_554
Li5 O28 2.127930 1_445
Co0 O31 1.864888 1_455
Co0 O3 1.864888 1_555
Co0 O6 1.929648 1_455
Co0 O25 1.929648 1_555
Co0 O13 2.053504 1_555
Co0 O10 2.053504 1_455
Co1 O9 1.812509 1_555
Co1 O22 1.903023 1_555
Co1 O29 1.969104 1_555
Co1 O26 2.079934 1_555
Co1 O23 2.171562 1_565
Co2 O24 1.812509 1_655
Co2 O15 1.903023 1_655
Co2 O28 1.969104 1_555
Co2 O12 2.079934 1_555
Co2 O0 2.171562 1_665
Co3 O30 1.812509 1_455
Co3 O17 1.903023 1_455
Co3 O2 1.969104 1_555
Co3 O20 2.079934 1_555
Co3 O8 2.171562 1_445
Co4 O7 1.812509 1_555
Co4 O16 1.903023 1_555
Co4 O11 1.969104 1_555
Co4 O19 2.079934 1_555
Co4 O5 2.171562 1_545
Co5 O1 1.864888 1_555
Co5 O21 1.864888 1_554
Co5 O4 1.929648 1_554
Co5 O14 1.929648 1_555
Co5 O27 2.053504 1_555
Co5 O18 2.053504 1_554
O0 P2 1.529702 1_555
O1 P7 1.522145 1_555
O2 P3 1.573173 1_545
O3 P4 1.522145 1_555
O4 P3 1.546922 1_555
O5 P1 1.529702 1_555
O6 P5 1.546922 1_655
O7 P2 1.556345 1_555
O8 P3 1.529702 1_555
O9 P3 1.556345 1_555
O10 P4 1.552728 1_555
O11 P1 1.573173 1_445
O12 P0 1.557210 1_555
O13 P0 1.552728 1_555
O14 P2 1.546922 1_555
O15 P7 1.591479 1_555
O16 P0 1.591479 1_555
O17 P6 1.591479 1_555
O18 P6 1.552728 1_455
O19 P7 1.557210 1_555
O20 P4 1.557210 1_555
O21 P6 1.522145 1_555
O22 P4 1.591479 1_555
O23 P5 1.529702 1_555
O24 P1 1.556345 1_455
O25 P1 1.546922 1_455
O26 P6 1.557210 1_555
O27 P7 1.552728 1_655
O28 P2 1.573173 1_565
O29 P5 1.573173 1_665
O30 P5 1.556345 1_655
O31 P0 1.522145 1_555
