# generated using pymatgen
data_CeMgGa
_symmetry_space_group_name_H-M   'P 1'
_cell_length_a   7.47902502
_cell_length_b   7.47885462
_cell_length_c   4.53303319
_cell_angle_alpha   90.00000000
_cell_angle_beta   90.00000000
_cell_angle_gamma   119.99940748
_symmetry_Int_Tables_number   1
_chemical_formula_structural   CeMgGa
_chemical_formula_sum   'Ce3 Mg3 Ga3'
_cell_volume   219.58476276
_cell_formula_units_Z   3
loop_
 _symmetry_equiv_pos_site_id
 _symmetry_equiv_pos_as_xyz
  1  'x, y, z'
loop_
 _atom_site_type_symbol
 _atom_site_label
 _atom_site_symmetry_multiplicity
 _atom_site_fract_x
 _atom_site_fract_y
 _atom_site_fract_z
 _atom_site_occupancy
  Ce  Ce0  1  0.00001153  0.42388453  0.00000000  1
  Ce  Ce1  1  0.57611992  0.57612986  -0.00000000  1
  Ce  Ce2  1  0.42388259  0.00002095  0.00000000  1
  Mg  Mg0  1  0.99997978  0.75765546  0.50000000  1
  Mg  Mg1  1  0.24242606  0.24236957  0.50000000  1
  Mg  Mg2  1  0.75757213  0.99992614  0.50000000  1
  Ga  Ga0  1  0.33341180  0.66673490  0.50000000  1
  Ga  Ga1  1  0.66660123  0.33331771  0.50000000  1
  Ga  Ga2  1  0.99999496  0.99995989  -0.00000000  1
loop_
_geom_bond_atom_site_label_1
_geom_bond_atom_site_label_2
_geom_bond_distance
_geom_bond_site_symmetry_2
Ce0 Ga2 3.170409 1_445
Ce0 Ga0 3.181931 1_554
Ce0 Ga0 3.181931 1_555
Ce0 Ga1 3.181961 1_455
Ce0 Ga1 3.181961 1_454
Ce0 Mg0 3.371769 1_455
Ce0 Mg0 3.371769 1_454
Ce0 Mg1 3.567661 1_554
Ce0 Mg1 3.567661 1_555
Ce0 Mg2 3.567805 1_444
Ce0 Mg2 3.567805 1_445
Ce0 Ce1 3.867258 1_555
Ce0 Ce2 3.867362 1_455
Ce0 Ce2 3.867365 1_565
Ce0 Ce1 3.867419 1_455
Ce1 Ga2 3.169996 1_555
Ce1 Ga0 3.181400 1_554
Ce1 Ga0 3.181400 1_555
Ce1 Ga1 3.181445 1_555
Ce1 Ga1 3.181445 1_554
Ce1 Mg1 3.371476 1_554
Ce1 Mg1 3.371476 1_555
Ce1 Mg2 3.566981 1_555
Ce1 Mg2 3.566981 1_554
Ce1 Mg0 3.567331 1_555
Ce1 Mg0 3.567331 1_554
Ce1 Ce2 3.867176 1_555
Ce1 Ce2 3.867322 1_565
Ce2 Ga2 3.170038 1_445
Ce2 Ga1 3.181348 1_555
Ce2 Ga1 3.181348 1_554
Ce2 Ga0 3.181419 1_544
Ce2 Ga0 3.181419 1_545
Ce2 Mg2 3.371535 1_545
Ce2 Mg2 3.371535 1_544
Ce2 Mg1 3.567030 1_555
Ce2 Mg1 3.567030 1_554
Ce2 Mg0 3.567549 1_444
Ce2 Mg0 3.567549 1_445
Mg0 Mg2 3.139229 1_555
Mg0 Mg1 3.139453 1_665
Mg1 Mg2 3.140430 1_445
Ga0 Mg2 2.892774 1_555
Ga0 Mg1 2.894165 1_555
Ga0 Mg0 2.894273 1_455
Ga1 Mg1 2.892937 1_555
Ga1 Mg0 2.894066 1_555
Ga1 Mg2 2.894182 1_545
Ga2 Mg0 2.901864 1_555
Ga2 Mg0 2.901864 1_554
Ga2 Mg2 2.902399 1_555
Ga2 Mg2 2.902399 1_554
Ga2 Mg1 2.902464 1_664
Ga2 Mg1 2.902464 1_665
