# generated using pymatgen
data_Mg(CoO2)4
_symmetry_space_group_name_H-M   'P 1'
_cell_length_a   5.80077697
_cell_length_b   5.77854970
_cell_length_c   5.75532507
_cell_angle_alpha   119.85872499
_cell_angle_beta   119.49268234
_cell_angle_gamma   91.33826681
_symmetry_Int_Tables_number   1
_chemical_formula_structural   Mg(CoO2)4
_chemical_formula_sum   'Mg1 Co4 O8'
_cell_volume   136.10927666
_cell_formula_units_Z   1
loop_
 _symmetry_equiv_pos_site_id
 _symmetry_equiv_pos_as_xyz
  1  'x, y, z'
loop_
 _atom_site_type_symbol
 _atom_site_label
 _atom_site_symmetry_multiplicity
 _atom_site_fract_x
 _atom_site_fract_y
 _atom_site_fract_z
 _atom_site_occupancy
  Mg  Mg0  1  0.00000100  0.00000000  0.00000100  1
  Co  Co0  1  0.50000000  0.50000000  0.00000000  1
  Co  Co1  1  0.00000100  0.00000000  0.50000000  1
  Co  Co2  1  0.00000100  0.50000000  0.00000000  1
  Co  Co3  1  0.00000000  0.50000000  0.50000000  1
  O  O0  1  0.77991300  0.73830000  0.02753900  1
  O  O1  1  0.19654600  0.73391000  0.46427400  1
  O  O2  1  0.22008800  0.26170100  0.97246200  1
  O  O3  1  0.21830900  0.71915300  0.96813200  1
  O  O4  1  0.80345500  0.26609000  0.53572600  1
  O  O5  1  0.21887900  0.26133100  0.50644300  1
  O  O6  1  0.78169200  0.28084700  0.03186800  1
  O  O7  1  0.78112200  0.73866900  0.49355800  1
loop_
_geom_bond_atom_site_label_1
_geom_bond_atom_site_label_2
_geom_bond_distance
_geom_bond_site_symmetry_2
Mg0 O5 2.066886 1_555
Mg0 O7 2.066890 1_444
Mg0 O0 2.071141 1_445
Mg0 O2 2.071146 1_554
Mg0 O3 2.073492 1_544
Mg0 O6 2.073496 1_455
Co0 O2 1.995645 1_554
Co0 O0 1.995650 1_555
Co0 O5 2.015771 1_554
Co0 O7 2.015776 1_555
Co0 O3 2.083329 1_554
Co0 O6 2.083334 1_555
Co1 O5 1.924107 1_555
Co1 O7 1.924115 1_445
Co1 O1 1.924654 1_545
Co1 O4 1.924658 1_455
Co1 O0 1.925586 1_445
Co1 O2 1.925590 1_555
Co2 O4 1.897060 1_454
Co2 O1 1.897060 1_555
Co2 O2 1.901380 1_554
Co2 O0 1.901388 1_455
Co2 O3 1.904230 1_554
Co2 O6 1.904234 1_455
Co3 O7 1.897856 1_455
Co3 O5 1.897861 1_555
Co3 O4 1.898603 1_455
Co3 O1 1.898607 1_555
Co3 O3 1.906481 1_555
Co3 O6 1.906481 1_455
