# generated using pymatgen
data_MgCo4(O3F)2
_symmetry_space_group_name_H-M   'P 1'
_cell_length_a   5.27916209
_cell_length_b   5.11555210
_cell_length_c   5.65864895
_cell_angle_alpha   92.26443984
_cell_angle_beta   86.34356276
_cell_angle_gamma   106.30521383
_symmetry_Int_Tables_number   1
_chemical_formula_structural   MgCo4(O3F)2
_chemical_formula_sum   'Mg1 Co4 O6 F2'
_cell_volume   146.33437573
_cell_formula_units_Z   1
loop_
 _symmetry_equiv_pos_site_id
 _symmetry_equiv_pos_as_xyz
  1  'x, y, z'
loop_
 _atom_site_type_symbol
 _atom_site_label
 _atom_site_symmetry_multiplicity
 _atom_site_fract_x
 _atom_site_fract_y
 _atom_site_fract_z
 _atom_site_occupancy
  Mg  Mg0  1  0.97258880  0.47212671  0.50523020  1
  Co  Co0  1  0.01256831  0.99441560  0.01167800  1
  Co  Co1  1  0.01755223  0.98782537  0.50937977  1
  Co  Co2  1  0.50547125  0.49963574  0.25054011  1
  Co  Co3  1  0.42350882  0.60132796  0.77212892  1
  O  O0  1  0.17003315  0.80297897  0.74504312  1
  O  O1  1  0.31529094  0.30951898  0.00637669  1
  O  O2  1  0.30005398  0.32519853  0.50955956  1
  O  O3  1  0.68748570  0.71074006  0.00746592  1
  O  O4  1  0.70361290  0.67702400  0.50681507  1
  O  O5  1  0.88110854  0.14529864  0.28140551  1
  F  F0  1  0.16223062  0.75852000  0.25780053  1
  F  F1  1  0.84849575  0.20150044  0.76157660  1
loop_
_geom_bond_atom_site_label_1
_geom_bond_atom_site_label_2
_geom_bond_distance
_geom_bond_site_symmetry_2
Mg0 O4 1.987056 1_555
Mg0 O5 2.022360 1_555
Mg0 O2 2.071360 1_655
Mg0 O0 2.191079 1_655
Co0 O5 1.865352 1_465
Co0 O3 1.911997 1_455
Co0 O1 1.924691 1_565
Co0 O0 2.026549 1_554
Co0 F1 2.159958 1_464
Co0 F0 2.197419 1_555
Co1 O5 1.832594 1_465
Co1 O2 1.938440 1_565
Co1 O4 1.948454 1_455
Co1 O0 1.996099 1_555
Co1 F0 2.053876 1_555
Co1 F1 2.071221 1_465
Co2 O3 1.829639 1_555
Co2 O1 1.839902 1_555
Co2 O2 1.864888 1_555
Co2 O4 1.891323 1_555
Co2 F0 2.524411 1_555
Co3 O0 1.921446 1_555
Co3 O3 1.941276 1_556
Co3 O1 1.972982 1_556
Co3 O4 2.007925 1_555
Co3 O2 2.017019 1_555
F0 Mg0 2.066096 1_455
F1 Mg0 1.994527 1_555
