# generated using pymatgen
data_K3ErMgV2O8
_symmetry_space_group_name_H-M   'P 1'
_cell_length_a   6.21545767
_cell_length_b   6.21619700
_cell_length_c   8.09165520
_cell_angle_alpha   86.69612701
_cell_angle_beta   93.29449760
_cell_angle_gamma   120.84414626
_symmetry_Int_Tables_number   1
_chemical_formula_structural   K3ErMgV2O8
_chemical_formula_sum   'K3 Er1 Mg1 V2 O8'
_cell_volume   267.82772434
_cell_formula_units_Z   1
loop_
 _symmetry_equiv_pos_site_id
 _symmetry_equiv_pos_as_xyz
  1  'x, y, z'
loop_
 _atom_site_type_symbol
 _atom_site_label
 _atom_site_symmetry_multiplicity
 _atom_site_fract_x
 _atom_site_fract_y
 _atom_site_fract_z
 _atom_site_occupancy
  K  K0  1  0.70718900  0.29295600  0.26777700  1
  K  K1  1  0.29290900  0.70716900  0.73229300  1
  K  K2  1  0.99984700  0.00014200  0.99989100  1
  Er  Er0  1  0.00003700  0.99997700  0.50004800  1
  Mg  Mg0  1  0.49993300  0.49991300  0.50001100  1
  V  V0  1  0.69406800  0.30598700  0.75191900  1
  V  V1  1  0.30601000  0.69408500  0.24804800  1
  O  O0  1  0.67153400  0.32852300  0.95848700  1
  O  O1  1  0.32865500  0.67152800  0.04152500  1
  O  O2  1  0.81753700  0.62485300  0.63397100  1
  O  O3  1  0.37484700  0.18239200  0.63413000  1
  O  O4  1  0.85123000  0.14877200  0.69158700  1
  O  O5  1  0.18241100  0.37493000  0.36591800  1
  O  O6  1  0.62499300  0.81754900  0.36600300  1
  O  O7  1  0.14880000  0.85122600  0.30839200  1
loop_
_geom_bond_atom_site_label_1
_geom_bond_atom_site_label_2
_geom_bond_distance
_geom_bond_site_symmetry_2
K0 O0 2.506803 1_554
K0 O5 2.801508 1_655
K0 O6 2.802475 1_545
K0 O7 3.153645 1_655
K0 O7 3.154076 1_545
K1 O1 2.506417 1_556
K1 O3 2.801825 1_565
K1 O2 2.802004 1_455
K1 O4 3.153646 1_565
K1 O4 3.154380 1_455
K2 O4 2.876622 1_555
K2 O7 2.879632 1_646
Er0 O3 2.243339 1_565
Er0 O5 2.244118 1_565
Er0 O2 2.244159 1_455
Er0 O6 2.244297 1_455
Er0 O4 2.306568 1_465
Er0 O7 2.306895 1_555
Mg0 O2 1.988474 1_555
Mg0 O3 1.988602 1_555
Mg0 O5 1.988613 1_555
Mg0 O6 1.988701 1_555
O0 V0 1.705020 1_555
O1 V1 1.704808 1_555
O2 V0 1.932618 1_555
O3 V0 1.933728 1_555
O4 V0 1.798973 1_555
O5 V1 1.933674 1_555
O6 V1 1.933250 1_555
O7 V1 1.798870 1_555
