# generated using pymatgen
data_Na8HfZn3Si3(SO8)3
_symmetry_space_group_name_H-M   'P 1'
_cell_length_a   9.16551276
_cell_length_b   9.18683978
_cell_length_c   22.32825725
_cell_angle_alpha   89.00157829
_cell_angle_beta   90.33500373
_cell_angle_gamma   119.22125040
_symmetry_Int_Tables_number   1
_chemical_formula_structural   Na8HfZn3Si3(SO8)3
_chemical_formula_sum   'Na24 Hf3 Zn9 Si9 S9 O72'
_cell_volume   1640.57161496
_cell_formula_units_Z   3
loop_
 _symmetry_equiv_pos_site_id
 _symmetry_equiv_pos_as_xyz
  1  'x, y, z'
loop_
 _atom_site_type_symbol
 _atom_site_label
 _atom_site_symmetry_multiplicity
 _atom_site_fract_x
 _atom_site_fract_y
 _atom_site_fract_z
 _atom_site_occupancy
  Na  Na0  1  0.62913196  0.99619810  0.25709925  1
  Na  Na1  1  0.37008597  0.36881646  0.24535055  1
  Na  Na2  1  0.00201536  0.62677972  0.25144499  1
  Na  Na3  1  0.64469822  0.64410479  0.73532886  1
  Na  Na4  1  0.97999385  0.34597305  0.75011572  1
  Na  Na5  1  0.38826918  0.01708979  0.74056814  1
  Na  Na6  1  0.31150965  0.33530333  0.58361634  1
  Na  Na7  1  0.04215077  0.71571614  0.57562401  1
  Na  Na8  1  0.65293135  0.94635278  0.58428641  1
  Na  Na9  1  0.28440425  0.95631111  0.07741528  1
  Na  Na10  1  0.66222732  0.68806501  0.08533477  1
  Na  Na11  1  0.05271063  0.34902221  0.08170151  1
  Na  Na12  1  0.98790792  0.67760411  0.91980502  1
  Na  Na13  1  0.71077623  0.04122183  0.90768164  1
  Na  Na14  1  0.30838241  0.28298868  0.92120753  1
  Na  Na15  1  0.96523602  0.29994625  0.41298552  1
  Na  Na16  1  0.32538147  0.00988666  0.42098091  1
  Na  Na17  1  0.71210319  0.68847425  0.42332452  1
  Na  Na18  1  0.99093171  0.98021948  0.50178340  1
  Na  Na19  1  0.01912012  0.01019797  0.00042507  1
  Na  Na20  1  0.66923287  0.31447562  0.82923761  1
  Na  Na21  1  0.67785280  0.33255113  0.33631944  1
  Na  Na22  1  0.32203719  0.65384106  0.16011479  1
  Na  Na23  1  0.35418957  0.68338500  0.65524436  1
  Hf  Hf0  1  0.66508828  0.33399235  0.98341430  1
  Hf  Hf1  1  0.66285707  0.33311145  0.48353659  1
  Hf  Hf2  1  0.33534281  0.67912089  0.81761017  1
  Zn  Zn0  1  0.98561159  0.98271154  0.35459695  1
  Zn  Zn1  1  0.00467023  0.02246488  0.85088768  1
  Zn  Zn2  1  0.97759694  0.97580826  0.64404448  1
  Zn  Zn3  1  0.01693608  0.99940161  0.14401586  1
  Zn  Zn4  1  0.65133380  0.31656619  0.67319400  1
  Zn  Zn5  1  0.67016732  0.35301959  0.16923665  1
  Zn  Zn6  1  0.29416473  0.64753223  0.01715835  1
  Zn  Zn7  1  0.35430101  0.70804310  0.51558300  1
  Zn  Zn8  1  0.33060649  0.68746239  0.33729293  1
  Si  Si0  1  0.70930150  0.00241703  0.75002531  1
  Si  Si1  1  0.36172305  0.03458630  0.58666329  1
  Si  Si2  1  0.66080627  0.62416583  0.58570449  1
  Si  Si3  1  0.96251592  0.63130104  0.08644630  1
  Si  Si4  1  0.36842915  0.33825629  0.08538708  1
  Si  Si5  1  0.03596120  0.36780273  0.91748069  1
  Si  Si6  1  0.33148298  0.96522968  0.91918298  1
  Si  Si7  1  0.63649561  0.96921248  0.41455860  1
  Si  Si8  1  0.03594047  0.66186103  0.41592488  1
  S  S0  1  0.29687069  0.00149421  0.24983497  1
  S  S1  1  0.70324451  0.70472757  0.24935668  1
  S  S2  1  0.99948937  0.29009352  0.24890273  1
  S  S3  1  0.29651043  0.29957988  0.75151289  1
  S  S4  1  0.00244045  0.70623412  0.75225159  1
  S  S5  1  0.96284571  0.33501808  0.58467784  1
  S  S6  1  0.66747568  0.03966225  0.08599910  1
  S  S7  1  0.62493195  0.66510816  0.91849533  1
  S  S8  1  0.33318698  0.37261978  0.41557881  1
  O  O0  1  0.21684043  0.02647279  0.30354147  1
  O  O1  1  0.80665903  0.78522327  0.30317030  1
  O  O2  1  0.98251885  0.18910249  0.30417868  1
  O  O3  1  0.21972829  0.19448342  0.80587277  1
  O  O4  1  0.98077310  0.78311775  0.80640895  1
  O  O5  1  0.81528226  0.02506672  0.81153079  1
  O  O6  1  0.79118433  0.96488180  0.69179809  1
  O  O7  1  0.19574474  0.22818265  0.69790793  1
  O  O8  1  0.03530936  0.81033998  0.69801485  1
  O  O9  1  0.78262380  0.80905362  0.19482522  1
  O  O10  1  0.01758319  0.20759746  0.19469896  1
  O  O11  1  0.19339619  0.98057203  0.19552531  1
  O  O12  1  0.88676125  0.36168901  0.63890712  1
  O  O13  1  0.48008331  0.10731278  0.64528568  1
  O  O14  1  0.64246349  0.51578369  0.64708621  1
  O  O15  1  0.88805240  0.51090600  0.14565208  1
  O  O16  1  0.63888950  0.11606157  0.13933952  1
  O  O17  1  0.47531128  0.36069936  0.14663947  1
  O  O18  1  0.46438207  0.30449953  0.02756983  1
  O  O19  1  0.83920852  0.53221909  0.02757079  1
  O  O20  1  0.69112750  0.15080552  0.03117298  1
  O  O21  1  0.46173786  0.15663698  0.52738800  1
  O  O22  1  0.68920270  0.52849995  0.52766358  1
  O  O23  1  0.85100772  0.31208619  0.53099111  1
  O  O24  1  0.54908095  0.69093764  0.97118654  1
  O  O25  1  0.15389128  0.44419441  0.97504399  1
  O  O26  1  0.30829035  0.85132199  0.97783235  1
  O  O27  1  0.55978330  0.84483810  0.47191271  1
  O  O28  1  0.30654384  0.44713157  0.46866697  1
  O  O29  1  0.15241788  0.68895168  0.47419602  1
  O  O30  1  0.10136680  0.61326614  0.35445154  1
  O  O31  1  0.52449552  0.89604853  0.35335729  1
  O  O32  1  0.36477877  0.47753566  0.36009596  1
  O  O33  1  0.12952078  0.49121443  0.85798309  1
  O  O34  1  0.36672566  0.87517432  0.86015547  1
  O  O35  1  0.51714691  0.63938536  0.86383461  1
  O  O36  1  0.02465732  0.83535846  0.41043941  1
  O  O37  1  0.82890410  0.00188615  0.41004299  1
  O  O38  1  0.18921163  0.20213820  0.40846292  1
  O  O39  1  0.00822339  0.17872453  0.91405445  1
  O  O40  1  0.16109086  0.97793830  0.90889814  1
  O  O41  1  0.79557957  0.80573185  0.90953641  1
  O  O42  1  0.97473421  0.18043265  0.58712505  1
  O  O43  1  0.18161670  0.03353397  0.58945363  1
  O  O44  1  0.82959409  0.80852416  0.58265272  1
  O  O45  1  0.96313088  0.81084139  0.08694853  1
  O  O46  1  0.82350148  0.02954924  0.08870201  1
  O  O47  1  0.18228052  0.17085613  0.08600354  1
  O  O48  1  0.68654323  0.17083284  0.74661702  1
  O  O49  1  0.46927407  0.32368552  0.74855281  1
  O  O50  1  0.85661919  0.53600196  0.74723636  1
  O  O51  1  0.68982076  0.53512268  0.24725774  1
  O  O52  1  0.84403032  0.30653286  0.24665393  1
  O  O53  1  0.46805101  0.15078744  0.24497787  1
  O  O54  1  0.63550716  0.50578040  0.92131685  1
  O  O55  1  0.84985304  0.35934181  0.92163214  1
  O  O56  1  0.50248205  0.15318133  0.92140923  1
  O  O57  1  0.64565788  0.15419777  0.42256874  1
  O  O58  1  0.49058737  0.35585713  0.42115441  1
  O  O59  1  0.84297428  0.49712197  0.42239870  1
  O  O60  1  0.36507790  0.51430502  0.07866787  1
  O  O61  1  0.15223614  0.65932198  0.08338414  1
  O  O62  1  0.52155062  0.87387419  0.07798450  1
  O  O63  1  0.33771195  0.84669812  0.58199652  1
  O  O64  1  0.48624777  0.63175753  0.57972168  1
  O  O65  1  0.12897891  0.48169417  0.57644129  1
  O  O66  1  0.31239748  0.84656412  0.25319940  1
  O  O67  1  0.53126379  0.68383888  0.25398629  1
  O  O68  1  0.15165906  0.45875826  0.25137441  1
  O  O69  1  0.31158372  0.47152737  0.75863290  1
  O  O70  1  0.15949579  0.68600286  0.75721195  1
  O  O71  1  0.51635025  0.82727624  0.75629704  1
loop_
_geom_bond_atom_site_label_1
_geom_bond_atom_site_label_2
_geom_bond_distance
_geom_bond_site_symmetry_2
Na0 O31 2.340795 1_555
Na0 O53 2.509789 1_565
Na0 O66 2.535690 1_555
Na0 O67 2.556761 1_555
Na0 O52 2.561551 1_565
Na0 O16 2.817773 1_565
Na1 O17 2.427826 1_555
Na1 O68 2.516138 1_555
Na1 O67 2.537113 1_555
Na1 O51 2.559955 1_555
Na1 O53 2.564166 1_555
Na1 O32 2.775282 1_555
Na2 O30 2.492058 1_555
Na2 O68 2.516156 1_555
Na2 O51 2.559813 1_455
Na2 O66 2.562133 1_555
Na2 O52 2.571689 1_455
Na2 O15 2.603310 1_455
Na3 O14 2.308494 1_555
Na3 O71 2.530106 1_555
Na3 O49 2.586807 1_555
Na3 O50 2.588038 1_555
Na3 O69 2.714739 1_555
Na3 O6 2.735703 1_555
Na4 O48 2.367626 1_555
Na4 O50 2.500640 1_555
Na4 O12 2.645745 1_555
Na4 O69 2.679828 1_655
Na4 O70 2.736111 1_655
Na4 O33 2.783417 1_655
Na4 O5 2.896334 1_555
Na4 O7 2.932652 1_655
Na5 O13 2.280319 1_555
Na5 O48 2.391503 1_555
Na5 O49 2.547678 1_555
Na5 O71 2.552407 1_545
Na5 O70 2.743907 1_545
Na5 O34 2.915836 1_545
Na5 O8 3.000595 1_545
Na6 O64 2.392600 1_555
Na6 O43 2.426261 1_555
Na6 O65 2.611391 1_555
Na6 O42 2.696162 1_455
Na6 O7 2.744316 1_555
Na6 O28 2.756346 1_555
Na6 O21 2.909455 1_555
Na6 O14 3.013271 1_555
Na7 O63 2.371810 1_555
Na7 O44 2.485369 1_455
Na7 O29 2.549430 1_555
Na7 O43 2.576239 1_565
Na7 O65 2.631506 1_555
Na7 O8 2.892347 1_555
Na8 O44 2.496105 1_555
Na8 O64 2.528771 1_555
Na8 O63 2.570081 1_555
Na8 O42 2.671643 1_565
Na8 O6 2.676821 1_555
Na8 O27 2.678314 1_555
Na9 O61 2.385693 1_555
Na9 O26 2.491754 1_554
Na9 O47 2.571819 1_565
Na9 O45 2.580185 1_455
Na9 O62 2.627674 1_555
Na9 O11 2.815664 1_555
Na9 O18 2.989535 1_565
Na10 O60 2.397218 1_555
Na10 O45 2.417177 1_555
Na10 O62 2.596146 1_555
Na10 O9 2.701009 1_555
Na10 O46 2.740744 1_565
Na10 O24 2.750574 1_554
Na10 O19 2.949749 1_555
Na10 O17 2.950741 1_555
Na11 O47 2.447380 1_555
Na11 O60 2.502233 1_555
Na11 O61 2.534613 1_555
Na11 O25 2.541161 1_554
Na11 O46 2.649446 1_455
Na11 O10 2.764824 1_555
Na12 O40 2.428300 1_655
Na12 O55 2.556511 1_555
Na12 O41 2.560726 1_555
Na12 O4 2.707216 1_555
Na12 O19 2.753244 1_556
Na12 O54 2.818995 1_555
Na12 O26 2.881054 1_655
Na12 O33 2.965726 1_655
Na13 O39 2.384890 1_655
Na13 O5 2.392186 1_555
Na13 O55 2.579299 1_555
Na13 O56 2.594549 1_555
Na13 O41 2.631444 1_545
Na13 O34 2.952565 1_545
Na13 O20 2.988052 1_556
Na14 O39 2.436988 1_555
Na14 O40 2.465841 1_545
Na14 O56 2.580338 1_555
Na14 O54 2.680897 1_555
Na14 O3 2.712301 1_555
Na14 O18 2.724752 1_556
Na14 O25 2.787959 1_555
Na15 O37 2.393369 1_555
Na15 O59 2.564969 1_555
Na15 O57 2.566379 1_555
Na15 O38 2.615025 1_655
Na15 O2 2.685620 1_555
Na15 O30 2.816316 1_655
Na15 O23 2.864883 1_555
Na16 O36 2.431869 1_545
Na16 O57 2.564502 1_555
Na16 O38 2.624145 1_555
Na16 O21 2.730595 1_555
Na16 O58 2.774219 1_555
Na16 O29 2.820331 1_545
Na16 O0 2.827104 1_555
Na16 O31 2.941917 1_545
Na17 O36 2.516363 1_655
Na17 O37 2.547273 1_565
Na17 O59 2.567075 1_555
Na17 O22 2.686394 1_555
Na17 O27 2.686941 1_555
Na17 O58 2.721841 1_555
Na17 O1 2.816146 1_555
Na18 O44 2.364262 1_555
Na18 O43 2.506782 1_665
Na18 O36 2.555387 1_655
Na18 O37 2.584537 1_565
Na18 O42 2.725485 1_565
Na18 O38 2.842467 1_665
Na19 O47 2.444552 1_555
Na19 O39 2.484106 1_554
Na19 O45 2.514067 1_445
Na19 O40 2.527098 1_544
Na19 O46 2.737905 1_455
Na19 O41 2.858535 1_444
Na20 O48 2.337189 1_555
Na20 O56 2.546839 1_555
Na20 O55 2.547542 1_555
Na20 O49 2.592124 1_555
Na20 O50 2.634025 1_555
Na20 O54 2.841671 1_555
Na21 O57 2.430035 1_555
Na21 O59 2.470534 1_555
Na21 O52 2.606352 1_555
Na21 O58 2.644018 1_555
Na21 O51 2.665351 1_555
Na21 O53 2.753782 1_555
Na22 O61 2.324272 1_555
Na22 O60 2.385255 1_555
Na22 O68 2.641977 1_555
Na22 O62 2.663438 1_555
Na22 O67 2.757481 1_555
Na22 O66 2.783069 1_555
Na23 O63 2.254215 1_555
Na23 O64 2.268435 1_555
Na23 O65 2.669615 1_555
Na23 O71 2.682152 1_555
Na23 O69 2.895095 1_555
Na23 O70 2.908583 1_555
Hf0 O18 1.988651 1_556
Hf0 O19 2.010446 1_556
Hf0 O20 2.086365 1_556
Hf0 O55 2.110949 1_555
Hf0 O56 2.129797 1_555
Hf0 O54 2.196309 1_555
Hf1 O22 1.971490 1_555
Hf1 O21 2.008226 1_555
Hf1 O59 2.094077 1_555
Hf1 O57 2.098113 1_555
Hf1 O23 2.104905 1_555
Hf1 O58 2.182458 1_555
Hf2 O34 1.944164 1_555
Hf2 O33 2.034071 1_555
Hf2 O71 2.058162 1_555
Hf2 O70 2.119305 1_555
Hf2 O35 2.129748 1_555
Hf2 O69 2.257733 1_555
O0 S0 1.487597 1_555
O0 Zn0 2.265641 1_445
O1 S1 1.490742 1_555
O1 Zn0 2.108441 1_555
O2 S2 1.493222 1_555
O2 Zn0 2.200218 1_545
O3 S3 1.485399 1_555
O3 Zn1 2.078309 1_555
O4 S4 1.473130 1_655
O4 Zn1 2.339344 1_665
O5 Si0 1.633967 1_555
O5 Zn1 1.951380 1_655
O6 Si0 1.628545 1_565
O6 Zn2 1.978964 1_555
O7 S3 1.462448 1_555
O7 Zn2 2.522420 1_445
O8 S4 1.467856 1_555
O8 Zn2 2.180958 1_455
O9 S1 1.489735 1_555
O9 Zn3 2.291237 1_655
O10 S2 1.491200 1_455
O10 Zn3 2.236796 1_545
O11 S0 1.491170 1_565
O11 Zn3 2.052555 1_555
O12 S5 1.483080 1_555
O12 Zn4 2.132838 1_555
O13 Si1 1.625658 1_555
O13 Zn4 1.905713 1_555
O14 Si2 1.640048 1_555
O14 Zn4 1.950264 1_555
O15 Si3 1.630733 1_555
O15 Zn5 1.877980 1_555
O16 S6 1.480565 1_555
O16 Zn5 2.169278 1_555
O17 Si4 1.633900 1_555
O17 Zn5 1.886913 1_555
O18 Si4 1.682175 1_555
O19 Si3 1.689346 1_555
O20 S6 1.526949 1_555
O21 Si1 1.675752 1_555
O22 Si2 1.669315 1_555
O23 S5 1.521729 1_555
O24 S7 1.450569 1_555
O24 Zn6 2.403272 1_556
O25 Si5 1.608527 1_555
O25 Zn6 1.931037 1_556
O26 Si6 1.610418 1_555
O26 Zn6 2.000060 1_556
O27 Si7 1.617108 1_555
O27 Zn7 1.935199 1_555
O28 S8 1.458827 1_555
O28 Zn7 2.468217 1_555
O29 Si8 1.621766 1_555
O29 Zn7 1.994329 1_555
O30 Si8 1.653867 1_555
O30 Zn8 1.904733 1_555
O31 Si7 1.647684 1_555
O31 Zn8 1.910589 1_555
O32 S8 1.495876 1_555
O32 Zn8 2.151829 1_555
O33 Si5 1.672483 1_555
O34 Si6 1.682196 1_555
O35 S7 1.513071 1_555
O36 Si8 1.649296 1_555
O36 Zn0 1.980970 1_455
O37 Si7 1.641481 1_545
O37 Zn0 1.975374 1_545
O38 S8 1.485888 1_555
O38 Zn0 2.319028 1_445
O39 Si5 1.631256 1_555
O39 Zn1 2.018769 1_555
O40 Si6 1.636542 1_555
O40 Zn1 2.105446 1_565
O41 S7 1.475504 1_555
O41 Zn1 2.358996 1_665
O42 S5 1.476484 1_555
O42 Zn2 2.261472 1_545
O43 Si1 1.647606 1_555
O43 Zn2 2.073546 1_445
O44 Si2 1.644821 1_555
O44 Zn2 2.024148 1_555
O45 Si3 1.646898 1_555
O45 Zn3 2.025606 1_655
O46 S6 1.478463 1_555
O46 Zn3 2.277555 1_645
O47 Si4 1.647391 1_555
O47 Zn3 2.019087 1_545
O48 Si0 1.659511 1_555
O48 Zn4 2.218881 1_555
O49 S3 1.489669 1_555
O49 Zn4 2.400669 1_555
O50 S4 1.485993 1_655
O51 S1 1.503468 1_555
O51 Zn5 2.381114 1_555
O52 S2 1.504847 1_555
O52 Zn5 2.513230 1_555
O53 S0 1.500091 1_555
O53 Zn5 2.512025 1_555
O54 S7 1.513629 1_555
O55 Si5 1.672259 1_655
O56 Si6 1.673359 1_545
O57 Si7 1.672776 1_545
O58 S8 1.527944 1_555
O59 Si8 1.679689 1_655
O60 Si4 1.636828 1_555
O60 Zn6 2.124707 1_555
O61 Si3 1.630455 1_455
O61 Zn6 2.013989 1_555
O62 S6 1.469143 1_565
O62 Zn6 2.519114 1_555
O63 Si1 1.635180 1_565
O63 Zn7 2.025399 1_555
O64 Si2 1.639686 1_555
O64 Zn7 2.185616 1_555
O65 S5 1.469512 1_455
O65 Zn7 2.485350 1_555
O66 S0 1.498548 1_565
O66 Zn8 2.414277 1_555
O67 S1 1.496021 1_555
O68 S2 1.497084 1_455
O69 S3 1.528098 1_555
O70 S4 1.541944 1_555
O71 Si0 1.718383 1_565
