# generated using pymatgen
data_Dy(SiAu)2
_symmetry_space_group_name_H-M   'P 1'
_cell_length_a   4.23846983
_cell_length_b   4.23847078
_cell_length_c   5.90238782
_cell_angle_alpha   111.04168218
_cell_angle_beta   111.04169882
_cell_angle_gamma   90.00000306
_symmetry_Int_Tables_number   1
_chemical_formula_structural   Dy(SiAu)2
_chemical_formula_sum   'Dy1 Si2 Au2'
_cell_volume   91.34773938
_cell_formula_units_Z   1
loop_
 _symmetry_equiv_pos_site_id
 _symmetry_equiv_pos_as_xyz
  1  'x, y, z'
loop_
 _atom_site_type_symbol
 _atom_site_label
 _atom_site_symmetry_multiplicity
 _atom_site_fract_x
 _atom_site_fract_y
 _atom_site_fract_z
 _atom_site_occupancy
  Dy  Dy0  1  0.00000000  0.00000000  0.00000000  1
  Si  Si0  1  0.61208626  0.61208626  0.22417251  1
  Si  Si1  1  0.38791374  0.38791374  0.77582749  1
  Au  Au0  1  0.25000000  0.75000000  0.50000000  1
  Au  Au1  1  0.75000000  0.25000000  0.50000000  1
loop_
_geom_bond_atom_site_label_1
_geom_bond_atom_site_label_2
_geom_bond_distance
_geom_bond_site_symmetry_2
Dy0 Si0 3.206502 1_545
Dy0 Si1 3.206502 1_454
Dy0 Si1 3.206502 1_444
Dy0 Si0 3.206502 1_555
Dy0 Si0 3.206503 1_445
Dy0 Si1 3.206503 1_554
Dy0 Si0 3.206503 1_455
Dy0 Si1 3.206503 1_544
Si0 Si1 2.279774 1_554
Au0 Si0 2.541316 1_455
Au0 Si1 2.541317 1_555
Au0 Si0 2.541317 1_555
Au0 Si1 2.541317 1_565
Au0 Dy0 3.309852 1_666
Au0 Dy0 3.309852 1_565
Au0 Dy0 3.309853 1_555
Au0 Dy0 3.309853 1_566
Au1 Si1 2.541316 1_655
Au1 Si0 2.541317 1_555
Au1 Si1 2.541317 1_555
Au1 Si0 2.541317 1_545
Au1 Dy0 3.309852 1_555
Au1 Dy0 3.309852 1_656
Au1 Dy0 3.309853 1_666
Au1 Dy0 3.309853 1_655
