# generated using pymatgen
data_Na14Ca4Zn4Si3(S3O16)3
_symmetry_space_group_name_H-M   'P 1'
_cell_length_a   18.63100326
_cell_length_b   9.32312767
_cell_length_c   22.85573344
_cell_angle_alpha   89.94131797
_cell_angle_beta   89.68607861
_cell_angle_gamma   120.15165532
_symmetry_Int_Tables_number   1
_chemical_formula_structural   Na14Ca4Zn4Si3(S3O16)3
_chemical_formula_sum   'Na42 Ca12 Zn12 Si9 S27 O144'
_cell_volume   3432.79047826
_cell_formula_units_Z   3
loop_
 _symmetry_equiv_pos_site_id
 _symmetry_equiv_pos_as_xyz
  1  'x, y, z'
loop_
 _atom_site_type_symbol
 _atom_site_label
 _atom_site_symmetry_multiplicity
 _atom_site_fract_x
 _atom_site_fract_y
 _atom_site_fract_z
 _atom_site_occupancy
  Na  Na0  1  0.80990830  0.99947393  0.25598856  1
  Na  Na1  1  0.18118295  0.36533256  0.26028964  1
  Na  Na2  1  0.68564873  0.35481558  0.25275148  1
  Na  Na3  1  0.99148057  0.62141770  0.23867382  1
  Na  Na4  1  0.51171831  0.65633346  0.24960452  1
  Na  Na5  1  0.31309857  0.62465634  0.75652136  1
  Na  Na6  1  0.00913328  0.36611871  0.75004478  1
  Na  Na7  1  0.50382448  0.35722651  0.73856900  1
  Na  Na8  1  0.18563951  0.01634683  0.75269682  1
  Na  Na9  1  0.67629168  0.00903659  0.76358173  1
  Na  Na10  1  0.15067247  0.33256656  0.58517406  1
  Na  Na11  1  0.63668716  0.33050223  0.59444820  1
  Na  Na12  1  0.33957787  0.98999382  0.58377532  1
  Na  Na13  1  0.83019993  0.95638222  0.57523568  1
  Na  Na14  1  0.13898079  0.94286226  0.08026622  1
  Na  Na15  1  0.65072093  0.96808975  0.07826539  1
  Na  Na16  1  0.33283350  0.70623468  0.07028821  1
  Na  Na17  1  0.83921905  0.68651002  0.07813580  1
  Na  Na18  1  0.48880497  0.69067576  0.91417951  1
  Na  Na19  1  0.98072221  0.65913678  0.92302599  1
  Na  Na20  1  0.35102490  0.01283349  0.91510871  1
  Na  Na21  1  0.83825450  0.03328943  0.91195310  1
  Na  Na22  1  0.17299171  0.31743754  0.90493260  1
  Na  Na23  1  0.66388631  0.28489724  0.90609956  1
  Na  Na24  1  0.48103581  0.30222367  0.42897925  1
  Na  Na25  1  0.98623511  0.29036282  0.42046904  1
  Na  Na26  1  0.16871307  0.04365423  0.42016875  1
  Na  Na27  1  0.67270881  0.03171065  0.40956637  1
  Na  Na28  1  0.34171335  0.64728987  0.41755308  1
  Na  Na29  1  0.84664295  0.68242145  0.42143060  1
  Na  Na30  1  0.99874675  0.00095370  0.49330270  1
  Na  Na31  1  0.49971245  0.00467016  0.50757732  1
  Na  Na32  1  0.99698445  0.99197420  0.00099329  1
  Na  Na33  1  0.49997382  0.99797330  0.98733243  1
  Na  Na34  1  0.32982393  0.34611627  0.83041873  1
  Na  Na35  1  0.81730476  0.32451618  0.83471622  1
  Na  Na36  1  0.32911761  0.32792500  0.34220611  1
  Na  Na37  1  0.82545684  0.30889972  0.33313785  1
  Na  Na38  1  0.15479992  0.65902675  0.15904248  1
  Na  Na39  1  0.66318728  0.67135218  0.17084271  1
  Na  Na40  1  0.16400182  0.65752945  0.67390441  1
  Na  Na41  1  0.65335065  0.62726240  0.66901604  1
  Ca  Ca0  1  0.00220380  0.99511847  0.65138599  1
  Ca  Ca1  1  0.50027376  0.00687889  0.65118361  1
  Ca  Ca2  1  0.99731350  0.99529245  0.14773241  1
  Ca  Ca3  1  0.50262526  0.00793173  0.15107743  1
  Ca  Ca4  1  0.82931852  0.34471877  0.68865734  1
  Ca  Ca5  1  0.33576729  0.32439138  0.18537507  1
  Ca  Ca6  1  0.16195471  0.65664337  0.01427788  1
  Ca  Ca7  1  0.66498386  0.66726177  0.01274790  1
  Ca  Ca8  1  0.16389823  0.65881415  0.51348271  1
  Ca  Ca9  1  0.66024774  0.66267140  0.51645221  1
  Ca  Ca10  1  0.16931299  0.66144710  0.32181978  1
  Ca  Ca11  1  0.66877273  0.66958653  0.81924372  1
  Zn  Zn0  1  0.00073906  0.01875976  0.35561267  1
  Zn  Zn1  1  0.51081617  0.00893343  0.33709740  1
  Zn  Zn2  1  0.00835018  0.01212532  0.83388178  1
  Zn  Zn3  1  0.51027635  0.99422616  0.85149969  1
  Zn  Zn4  1  0.33560912  0.34009730  0.68014407  1
  Zn  Zn5  1  0.83124029  0.32638082  0.17684263  1
  Zn  Zn6  1  0.33633721  0.35362809  0.98094184  1
  Zn  Zn7  1  0.83298251  0.33187885  0.98802836  1
  Zn  Zn8  1  0.33249352  0.33728312  0.49118009  1
  Zn  Zn9  1  0.83443359  0.31522211  0.48480840  1
  Zn  Zn10  1  0.67243741  0.70986946  0.32200864  1
  Zn  Zn11  1  0.17366973  0.63899458  0.82022315  1
  Si  Si0  1  0.65449296  0.00287808  0.24742710  1
  Si  Si1  1  0.15464493  0.30615027  0.74708481  1
  Si  Si2  1  0.64725219  0.29816566  0.75262309  1
  Si  Si3  1  0.47580769  0.33240372  0.58240229  1
  Si  Si4  1  0.97651934  0.61775499  0.08420735  1
  Si  Si5  1  0.32153683  0.66874690  0.91753470  1
  Si  Si6  1  0.67197762  0.98528166  0.92103861  1
  Si  Si7  1  0.81960263  0.97478477  0.41820175  1
  Si  Si8  1  0.17112599  0.35512914  0.41764173  1
  S  S0  1  0.14602457  0.99815761  0.25235275  1
  S  S1  1  0.35095752  0.70203293  0.25054642  1
  S  S2  1  0.84942012  0.70087769  0.25387557  1
  S  S3  1  0.99992623  0.29815166  0.25146836  1
  S  S4  1  0.50295443  0.30350510  0.25617274  1
  S  S5  1  0.00514265  0.70432473  0.75624517  1
  S  S6  1  0.49665061  0.69686612  0.75121105  1
  S  S7  1  0.34540751  0.99594643  0.75283460  1
  S  S8  1  0.85331985  0.00219140  0.75040299  1
  S  S9  1  0.98069362  0.33114497  0.58296245  1
  S  S10  1  0.18605219  0.03742328  0.58288166  1
  S  S11  1  0.68793639  0.04325146  0.58083914  1
  S  S12  1  0.33156662  0.62839130  0.58285529  1
  S  S13  1  0.83462764  0.62832160  0.57689829  1
  S  S14  1  0.48131350  0.63044714  0.08350836  1
  S  S15  1  0.33276846  0.03827996  0.07908576  1
  S  S16  1  0.83156820  0.03465464  0.08391598  1
  S  S17  1  0.18887590  0.33247505  0.08322859  1
  S  S18  1  0.68693449  0.33652206  0.08443773  1
  S  S19  1  0.82425347  0.67520507  0.91750126  1
  S  S20  1  0.01569282  0.35910747  0.91211049  1
  S  S21  1  0.51017540  0.36070025  0.91801859  1
  S  S22  1  0.16465124  0.96731585  0.91531698  1
  S  S23  1  0.32295566  0.97196560  0.41555150  1
  S  S24  1  0.66413087  0.36327630  0.41332744  1
  S  S25  1  0.01214744  0.66471052  0.41513776  1
  S  S26  1  0.51565908  0.67239932  0.41102257  1
  O  O0  1  0.10220218  0.01438567  0.30410569  1
  O  O1  1  0.61384446  0.03772519  0.30704517  1
  O  O2  1  0.40083819  0.78964014  0.30313855  1
  O  O3  1  0.90286338  0.78832985  0.30474638  1
  O  O4  1  0.48922660  0.19850896  0.30909243  1
  O  O5  1  0.99310661  0.20325443  0.30559470  1
  O  O6  1  0.11343868  0.18936149  0.80672890  1
  O  O7  1  0.59737955  0.17970283  0.80982865  1
  O  O8  1  0.48526529  0.77184935  0.80550093  1
  O  O9  1  0.99079921  0.78052801  0.80943994  1
  O  O10  1  0.39626114  0.01311400  0.80446417  1
  O  O11  1  0.90260844  0.01084716  0.80350663  1
  O  O12  1  0.38122209  0.96745747  0.69870234  1
  O  O13  1  0.89175103  0.98300397  0.69665074  1
  O  O14  1  0.09624352  0.22575894  0.68999766  1
  O  O15  1  0.59984880  0.21914767  0.69075894  1
  O  O16  1  0.01369493  0.80396844  0.70378916  1
  O  O17  1  0.50502373  0.79754515  0.69951044  1
  O  O18  1  0.39067841  0.79425565  0.19631600  1
  O  O19  1  0.88614576  0.79968197  0.19943646  1
  O  O20  1  0.01179091  0.21759209  0.19990150  1
  O  O21  1  0.51028938  0.22107922  0.20323346  1
  O  O22  1  0.10008748  0.98314952  0.19754075  1
  O  O23  1  0.59509482  0.96453874  0.19096763  1
  O  O24  1  0.42740662  0.33668410  0.64251717  1
  O  O25  1  0.93926894  0.34091889  0.63679961  1
  O  O26  1  0.23403449  0.11953286  0.63625243  1
  O  O27  1  0.73759354  0.12468092  0.63358302  1
  O  O28  1  0.32061931  0.52542944  0.63520384  1
  O  O29  1  0.82965807  0.53274009  0.62971630  1
  O  O30  1  0.44140360  0.54040725  0.13838947  1
  O  O31  1  0.93008980  0.51837757  0.14568092  1
  O  O32  1  0.32581219  0.12088320  0.13218165  1
  O  O33  1  0.82216258  0.11404111  0.13745666  1
  O  O34  1  0.23545375  0.34822289  0.13770777  1
  O  O35  1  0.73418966  0.35150483  0.13875906  1
  O  O36  1  0.23180980  0.31365416  0.03110983  1
  O  O37  1  0.72794925  0.31803098  0.03165589  1
  O  O38  1  0.43184990  0.53989272  0.03157528  1
  O  O39  1  0.92099126  0.52765852  0.02520729  1
  O  O40  1  0.33950489  0.13518429  0.02576770  1
  O  O41  1  0.83807615  0.12833939  0.03024445  1
  O  O42  1  0.22566244  0.13631453  0.52890478  1
  O  O43  1  0.72876072  0.14701630  0.52733450  1
  O  O44  1  0.33727203  0.54959751  0.52799732  1
  O  O45  1  0.84146786  0.54579502  0.52296836  1
  O  O46  1  0.42221762  0.31583869  0.52198269  1
  O  O47  1  0.93370097  0.32449158  0.52947289  1
  O  O48  1  0.28395788  0.70337330  0.97706586  1
  O  O49  1  0.78790567  0.69712079  0.97299275  1
  O  O50  1  0.06836986  0.43527945  0.96372903  1
  O  O51  1  0.56473344  0.44183794  0.96862308  1
  O  O52  1  0.15221297  0.86699934  0.96918203  1
  O  O53  1  0.65504666  0.86973652  0.97910692  1
  O  O54  1  0.28487773  0.87451804  0.47012119  1
  O  O55  1  0.78056834  0.86091957  0.47619866  1
  O  O56  1  0.14979383  0.43726943  0.47325303  1
  O  O57  1  0.65190321  0.43976403  0.46638037  1
  O  O58  1  0.06816311  0.69467253  0.46504909  1
  O  O59  1  0.56812614  0.70001904  0.46235470  1
  O  O60  1  0.04872010  0.63669976  0.36119190  1
  O  O61  1  0.55485993  0.64615215  0.35761602  1
  O  O62  1  0.26750909  0.88724460  0.36560566  1
  O  O63  1  0.76065884  0.89744525  0.35991202  1
  O  O64  1  0.19055650  0.46796888  0.35795755  1
  O  O65  1  0.67448998  0.46614794  0.36069593  1
  O  O66  1  0.05560598  0.46478312  0.85903180  1
  O  O67  1  0.54670300  0.46348109  0.86477143  1
  O  O68  1  0.17474847  0.88378028  0.86335810  1
  O  O69  1  0.69108840  0.90758989  0.86258181  1
  O  O70  1  0.25825798  0.62436469  0.86164792  1
  O  O71  1  0.76865370  0.65124163  0.86835881  1
  O  O72  1  0.00324412  0.81427907  0.40966839  1
  O  O73  1  0.50488417  0.82109208  0.40545382  1
  O  O74  1  0.40598195  0.98485245  0.40870831  1
  O  O75  1  0.91212433  0.99144159  0.41017681  1
  O  O76  1  0.08885869  0.16690190  0.41107483  1
  O  O77  1  0.58842653  0.19221172  0.40983003  1
  O  O78  1  0.00464198  0.18881196  0.90640407  1
  O  O79  1  0.49983331  0.19271158  0.91305563  1
  O  O80  1  0.08939390  0.98678193  0.91149244  1
  O  O81  1  0.58723963  0.99906187  0.91588900  1
  O  O82  1  0.41348451  0.83628391  0.90694628  1
  O  O83  1  0.90790816  0.82841721  0.91050753  1
  O  O84  1  0.48235130  0.15934706  0.58005514  1
  O  O85  1  0.98505925  0.17404368  0.58215619  1
  O  O86  1  0.10196049  0.01955511  0.58507373  1
  O  O87  1  0.60415102  0.02466541  0.58326312  1
  O  O88  1  0.40530799  0.79669871  0.58584348  1
  O  O89  1  0.90750228  0.80085772  0.57943289  1
  O  O90  1  0.48551265  0.79601225  0.08277799  1
  O  O91  1  0.98519941  0.80700185  0.08266530  1
  O  O92  1  0.40555031  0.01261281  0.08246567  1
  O  O93  1  0.90552931  0.01344626  0.08646027  1
  O  O94  1  0.10524832  0.18055826  0.08535653  1
  O  O95  1  0.60291592  0.18589168  0.08679564  1
  O  O96  1  0.33905303  0.14955530  0.74824208  1
  O  O97  1  0.85357411  0.16322737  0.74906626  1
  O  O98  1  0.24855933  0.32535330  0.74196750  1
  O  O99  1  0.73735899  0.30214523  0.75493342  1
  O  O100  1  0.42173661  0.52702978  0.74776081  1
  O  O101  1  0.93454360  0.53120275  0.75164898  1
  O  O102  1  0.34503416  0.53442040  0.24980081  1
  O  O103  1  0.84249619  0.53411128  0.25023356  1
  O  O104  1  0.43130010  0.33356189  0.25253705  1
  O  O105  1  0.92369515  0.31099164  0.24832587  1
  O  O106  1  0.22944880  0.15353798  0.25026727  1
  O  O107  1  0.74863064  0.17247791  0.24182357  1
  O  O108  1  0.33032524  0.49839321  0.92124371  1
  O  O109  1  0.83346668  0.52562602  0.92006311  1
  O  O110  1  0.42579631  0.34252237  0.92553889  1
  O  O111  1  0.93287376  0.34559581  0.91828825  1
  O  O112  1  0.24120420  0.13525479  0.92006218  1
  O  O113  1  0.75658906  0.17533707  0.92762277  1
  O  O114  1  0.33217707  0.13988586  0.41841939  1
  O  O115  1  0.83064503  0.16468210  0.42205006  1
  O  O116  1  0.25645188  0.33961953  0.42685268  1
  O  O117  1  0.74032512  0.34783687  0.41811157  1
  O  O118  1  0.43222604  0.52060134  0.41659384  1
  O  O119  1  0.92857725  0.51475161  0.42345389  1
  O  O120  1  0.18272564  0.48491242  0.07953592  1
  O  O121  1  0.68195141  0.49118310  0.08111812  1
  O  O122  1  0.07315203  0.65611007  0.08431831  1
  O  O123  1  0.56660856  0.65614806  0.08197711  1
  O  O124  1  0.25531887  0.87044600  0.07862020  1
  O  O125  1  0.75588519  0.86348703  0.08293051  1
  O  O126  1  0.18114876  0.87286021  0.57923295  1
  O  O127  1  0.68317175  0.88015436  0.57690916  1
  O  O128  1  0.25528464  0.64666803  0.58148173  1
  O  O129  1  0.75736766  0.64011196  0.57675669  1
  O  O130  1  0.06656670  0.47605696  0.58156407  1
  O  O131  1  0.57214422  0.48758590  0.58332909  1
  O  O132  1  0.15389521  0.84744231  0.25589827  1
  O  O133  1  0.66115354  0.83069774  0.25355509  1
  O  O134  1  0.26520899  0.67460981  0.25257851  1
  O  O135  1  0.76384073  0.67679168  0.25887206  1
  O  O136  1  0.07467616  0.47023470  0.25386291  1
  O  O137  1  0.58095015  0.46807218  0.25989953  1
  O  O138  1  0.16096254  0.49087739  0.75327344  1
  O  O139  1  0.65171490  0.47861312  0.75497623  1
  O  O140  1  0.08371388  0.69807616  0.76064630  1
  O  O141  1  0.57306793  0.68326966  0.75459254  1
  O  O142  1  0.25865435  0.84878632  0.75763234  1
  O  O143  1  0.76679924  0.86371360  0.75355141  1
loop_
_geom_bond_atom_site_label_1
_geom_bond_atom_site_label_2
_geom_bond_distance
_geom_bond_site_symmetry_2
Na0 O133 2.404362 1_555
Na0 O107 2.421287 1_565
Na0 O63 2.546220 1_555
Na0 O105 2.601850 1_565
Na0 O135 2.682646 1_555
Na0 O33 2.876584 1_565
Na1 O64 2.402072 1_555
Na1 O134 2.501454 1_555
Na1 O106 2.557839 1_555
Na1 O136 2.620715 1_555
Na1 O102 2.649232 1_555
Na2 O107 2.516088 1_555
Na2 O103 2.535301 1_555
Na2 O135 2.600536 1_555
Na2 O137 2.648134 1_555
Na2 O65 2.724670 1_555
Na2 O35 2.758483 1_555
Na2 O1 2.840850 1_555
Na3 O31 2.382332 1_555
Na3 O103 2.481700 1_555
Na3 O105 2.518634 1_555
Na3 O136 2.590252 1_655
Na3 O132 2.713110 1_655
Na4 O133 2.420444 1_555
Na4 O104 2.602693 1_555
Na4 O61 2.616746 1_555
Na4 O137 2.660181 1_555
Na4 O102 2.718441 1_555
Na4 O23 2.819761 1_555
Na4 O30 2.822290 1_555
Na5 O98 2.445127 1_555
Na5 O138 2.458917 1_555
Na5 O70 2.605269 1_555
Na5 O100 2.609955 1_555
Na5 O142 2.743185 1_555
Na5 O28 2.948744 1_555
Na6 O138 2.461146 1_555
Na6 O101 2.539606 1_455
Na6 O97 2.543961 1_455
Na6 O66 2.651229 1_555
Na6 O140 2.693121 1_555
Na6 O25 2.860022 1_455
Na6 O14 2.888374 1_555
Na7 O139 2.427547 1_555
Na7 O24 2.577674 1_555
Na7 O141 2.665792 1_555
Na7 O96 2.691158 1_555
Na7 O100 2.705318 1_555
Na7 O15 2.889114 1_555
Na7 O67 3.029138 1_555
Na8 O96 2.480502 1_555
Na8 O98 2.517283 1_555
Na8 O142 2.537685 1_545
Na8 O140 2.603531 1_545
Na8 O68 2.775216 1_545
Na8 O26 2.814018 1_555
Na8 O6 2.846419 1_555
Na9 O99 2.382060 1_555
Na9 O69 2.520876 1_545
Na9 O143 2.650122 1_545
Na9 O141 2.665151 1_545
Na9 O7 2.854291 1_555
Na9 O97 2.881528 1_555
Na10 O130 2.521692 1_555
Na10 O128 2.577868 1_555
Na10 O86 2.584426 1_555
Na10 O14 2.591127 1_555
Na10 O85 2.670399 1_455
Na10 O56 2.740092 1_555
Na11 O131 2.329616 1_555
Na11 O15 2.378516 1_555
Na11 O84 2.514892 1_555
Na11 O87 2.613403 1_555
Na11 O129 2.649283 1_555
Na12 O84 2.313857 1_565
Na12 O126 2.584815 1_555
Na12 O88 2.639510 1_555
Na12 O128 2.768762 1_555
Na12 O12 2.780443 1_555
Na12 O54 2.806772 1_555
Na13 O55 2.443603 1_555
Na13 O127 2.460350 1_555
Na13 O89 2.506979 1_555
Na13 O129 2.552790 1_555
Na13 O85 2.567349 1_565
Na13 O13 2.971162 1_555
Na14 O122 2.316111 1_555
Na14 O91 2.483676 1_455
Na14 O124 2.573812 1_555
Na14 O94 2.591972 1_565
Na14 O52 2.679379 1_554
Na14 O22 2.846905 1_555
Na15 O53 2.461727 1_554
Na15 O123 2.518065 1_555
Na15 O125 2.592866 1_555
Na15 O95 2.601989 1_565
Na15 O90 2.663458 1_555
Na15 O23 2.765228 1_555
Na16 O48 2.316596 1_554
Na16 O92 2.488004 1_565
Na16 O120 2.513799 1_555
Na16 O90 2.547780 1_555
Na16 O124 2.585430 1_555
Na17 O91 2.367237 1_555
Na17 O121 2.558013 1_555
Na17 O49 2.611216 1_554
Na17 O93 2.659708 1_565
Na17 O125 2.777944 1_555
Na17 O39 2.868433 1_555
Na17 O19 2.944451 1_555
Na18 O82 2.399011 1_555
Na18 O81 2.516992 1_555
Na18 O108 2.575778 1_555
Na18 O8 2.606735 1_555
Na18 O110 2.854523 1_555
Na19 O109 2.377489 1_555
Na19 O83 2.562648 1_555
Na19 O111 2.595243 1_555
Na19 O39 2.605860 1_556
Na19 O80 2.698014 1_655
Na19 O9 2.798389 1_555
Na19 O52 2.982909 1_655
Na20 O79 2.414278 1_555
Na20 O82 2.453713 1_545
Na20 O10 2.660803 1_555
Na20 O110 2.673743 1_555
Na20 O112 2.801000 1_555
Na20 O40 2.826653 1_556
Na20 O48 2.870762 1_545
Na21 O113 2.493253 1_555
Na21 O111 2.540423 1_555
Na21 O69 2.640670 1_545
Na21 O78 2.684801 1_655
Na21 O83 2.796994 1_545
Na21 O11 2.800967 1_555
Na21 O41 2.846526 1_556
Na22 O6 2.529145 1_555
Na22 O108 2.573506 1_555
Na22 O112 2.606091 1_555
Na22 O70 2.664773 1_555
Na22 O80 2.669218 1_545
Na22 O78 2.738104 1_555
Na23 O81 2.315864 1_545
Na23 O113 2.459454 1_555
Na23 O7 2.480363 1_555
Na23 O79 2.731559 1_555
Na23 O109 2.830232 1_555
Na24 O114 2.414942 1_555
Na24 O46 2.418716 1_555
Na24 O74 2.603549 1_545
Na24 O118 2.629414 1_555
Na24 O77 2.701771 1_555
Na24 O57 2.905255 1_555
Na24 O4 2.935218 1_555
Na25 O75 2.422354 1_545
Na25 O115 2.522674 1_555
Na25 O76 2.689522 1_655
Na25 O47 2.748431 1_555
Na25 O5 2.770291 1_555
Na25 O119 2.791445 1_555
Na25 O56 2.909994 1_655
Na26 O76 2.301572 1_555
Na26 O116 2.404515 1_555
Na26 O42 2.676002 1_555
Na26 O114 2.708377 1_555
Na26 O72 2.742449 1_545
Na26 O0 2.888712 1_555
Na26 O58 2.999437 1_545
Na27 O117 2.566247 1_555
Na27 O115 2.573327 1_555
Na27 O1 2.605022 1_555
Na27 O77 2.658057 1_555
Na27 O73 2.734391 1_545
Na27 O63 2.753722 1_545
Na27 O43 2.898325 1_555
Na27 O59 2.954441 1_545
Na28 O116 2.492822 1_555
Na28 O118 2.497974 1_555
Na28 O73 2.642956 1_555
Na28 O44 2.669401 1_555
Na28 O74 2.754909 1_555
Na28 O64 2.810383 1_555
Na28 O2 2.881982 1_555
Na29 O75 2.513763 1_555
Na29 O72 2.546309 1_655
Na29 O45 2.624058 1_555
Na29 O119 2.678402 1_555
Na29 O117 2.730347 1_555
Na29 O55 2.810196 1_555
Na29 O3 2.847715 1_555
Na30 O76 2.468697 1_655
Na30 O75 2.472290 1_545
Na30 O72 2.615619 1_645
Na30 O89 2.648639 1_545
Na30 O85 2.684740 1_555
Na30 O86 2.799521 1_655
Na31 O84 2.322909 1_555
Na31 O87 2.546845 1_555
Na31 O88 2.566214 1_545
Na31 O77 2.797949 1_555
Na31 O74 2.812472 1_545
Na31 O73 2.925412 1_545
Na32 O91 2.472890 1_555
Na32 O83 2.618849 1_554
Na32 O93 2.658224 1_565
Na32 O80 2.682606 1_654
Na32 O94 2.713782 1_665
Na32 O78 2.790595 1_664
Na33 O81 2.294368 1_555
Na33 O82 2.417123 1_555
Na33 O79 2.485323 1_565
Na33 O90 2.802196 1_556
Na33 O92 2.835680 1_566
Na33 O95 2.931919 1_566
Na34 O98 2.481259 1_555
Na34 O108 2.513523 1_555
Na34 O100 2.530390 1_555
Na34 O96 2.689903 1_555
Na34 O112 2.735435 1_555
Na34 O110 2.833262 1_555
Na35 O99 2.303392 1_555
Na35 O113 2.471869 1_555
Na35 O109 2.618788 1_555
Na35 O97 2.749955 1_555
Na35 O101 2.794201 1_555
Na35 O111 2.818505 1_555
Na36 O116 2.389075 1_555
Na36 O114 2.491210 1_555
Na36 O118 2.526503 1_555
Na36 O106 2.742986 1_555
Na36 O102 2.768767 1_555
Na36 O104 2.771975 1_555
Na37 O115 2.464538 1_555
Na37 O107 2.496310 1_555
Na37 O117 2.639215 1_555
Na37 O105 2.651987 1_555
Na37 O103 2.723137 1_555
Na37 O119 2.825416 1_555
Na38 O122 2.284422 1_555
Na38 O124 2.649086 1_555
Na38 O120 2.655567 1_555
Na38 O136 2.709315 1_555
Na38 O132 2.832635 1_555
Na38 O134 2.927700 1_555
Na39 O133 2.417388 1_555
Na39 O125 2.659982 1_555
Na39 O137 2.668946 1_555
Na39 O123 2.677221 1_555
Na39 O135 2.741038 1_555
Na39 O121 2.781783 1_555
Na40 O138 2.369113 1_555
Na40 O142 2.614675 1_555
Na40 O140 2.616877 1_555
Na40 O128 2.738405 1_555
Na40 O130 2.752455 1_555
Na40 O126 2.855443 1_555
Na41 O139 2.394347 1_555
Na41 O131 2.424616 1_555
Na41 O141 2.662733 1_555
Na41 O129 2.817423 1_555
Na41 O143 2.903953 1_555
Na41 O127 2.993401 1_555
Ca0 O14 2.169883 1_565
Ca0 O16 2.244551 1_555
Ca0 O13 2.249609 1_455
Ca0 O86 2.312212 1_565
Ca0 O85 2.433887 1_465
Ca0 O89 2.434228 1_455
Ca1 O15 2.123712 1_555
Ca1 O17 2.281870 1_545
Ca1 O84 2.291948 1_555
Ca1 O12 2.321259 1_545
Ca1 O88 2.398439 1_545
Ca1 O87 2.413927 1_555
Ca2 O91 2.226031 1_555
Ca2 O19 2.277364 1_555
Ca2 O22 2.283980 1_655
Ca2 O93 2.287036 1_565
Ca2 O20 2.288419 1_665
Ca2 O94 2.352439 1_665
Ca3 O23 2.163230 1_545
Ca3 O21 2.260982 1_555
Ca3 O18 2.277255 1_545
Ca3 O95 2.292000 1_555
Ca3 O90 2.412683 1_545
Ca3 O92 2.417095 1_555
Ca4 O99 2.162104 1_555
Ca4 O29 2.207166 1_555
Ca4 O27 2.284813 1_555
Ca4 O101 2.356037 1_555
Ca4 O25 2.376709 1_555
Ca4 O97 2.396628 1_555
Ca5 O32 2.183131 1_555
Ca5 O30 2.252389 1_555
Ca5 O34 2.273373 1_555
Ca5 O104 2.325710 1_555
Ca5 O106 2.335378 1_555
Ca5 O102 2.387759 1_555
Ca6 O50 2.246378 1_554
Ca6 O48 2.250137 1_554
Ca6 O122 2.294053 1_555
Ca6 O52 2.301517 1_554
Ca6 O120 2.358320 1_555
Ca6 O124 2.390088 1_555
Ca7 O53 2.130387 1_554
Ca7 O51 2.237004 1_554
Ca7 O49 2.341827 1_554
Ca7 O123 2.377128 1_555
Ca7 O125 2.389853 1_555
Ca7 O121 2.399617 1_555
Ca8 O56 2.154536 1_555
Ca8 O58 2.266817 1_555
Ca8 O130 2.339347 1_555
Ca8 O54 2.350468 1_555
Ca8 O128 2.355738 1_555
Ca8 O126 2.389786 1_555
Ca9 O131 2.229574 1_555
Ca9 O55 2.258197 1_555
Ca9 O59 2.284402 1_555
Ca9 O57 2.309768 1_555
Ca9 O127 2.311979 1_555
Ca9 O129 2.372147 1_555
Ca10 O64 2.193252 1_555
Ca10 O62 2.221614 1_555
Ca10 O60 2.316817 1_555
Ca10 O134 2.336664 1_555
Ca10 O136 2.361635 1_555
Ca10 O132 2.420608 1_555
Ca11 O139 2.206971 1_555
Ca11 O71 2.257101 1_555
Ca11 O69 2.271543 1_555
Ca11 O143 2.347186 1_555
Ca11 O67 2.351021 1_555
Ca11 O141 2.374043 1_555
O0 S0 1.484083 1_545
O0 Zn0 2.239229 1_555
O1 Si0 1.665105 1_555
O1 Zn1 1.922487 1_555
O2 S1 1.492438 1_555
O2 Zn1 2.189315 1_565
O3 S2 1.485636 1_555
O3 Zn0 2.320566 1_665
O4 S4 1.493068 1_555
O4 Zn1 2.100002 1_555
O5 S3 1.487422 1_555
O5 Zn0 2.128197 1_655
O6 Si1 1.667044 1_555
O6 Zn2 1.919238 1_555
O7 Si2 1.656944 1_555
O7 Zn3 1.921323 1_545
O8 S6 1.490382 1_555
O8 Zn3 2.158729 1_555
O9 S5 1.497757 1_655
O9 Zn2 2.091981 1_665
O10 S7 1.475147 1_545
O10 Zn3 2.469699 1_545
O11 S8 1.503619 1_555
O11 Zn2 2.086800 1_655
O12 S7 1.488689 1_555
O13 S8 1.474274 1_565
O14 Si1 1.626774 1_555
O15 Si2 1.638346 1_555
O16 S5 1.474024 1_555
O17 S6 1.466392 1_555
O18 S1 1.473698 1_555
O19 S2 1.489971 1_555
O20 S3 1.472346 1_455
O21 S4 1.476084 1_555
O22 S0 1.487716 1_555
O23 Si0 1.623835 1_565
O24 Si3 1.650831 1_555
O24 Zn4 1.924647 1_555
O25 S9 1.475983 1_555
O26 S10 1.483087 1_555
O26 Zn4 2.220798 1_555
O27 S11 1.481223 1_555
O28 S12 1.480836 1_555
O28 Zn4 2.145423 1_555
O29 S13 1.474337 1_555
O30 S14 1.480383 1_555
O31 Si4 1.661226 1_555
O31 Zn5 1.942793 1_555
O32 S15 1.477509 1_555
O33 S16 1.485183 1_555
O33 Zn5 2.104048 1_555
O34 S17 1.486361 1_555
O35 S18 1.491603 1_555
O35 Zn5 2.127021 1_555
O36 S17 1.490170 1_555
O36 Zn6 2.119377 1_554
O37 S18 1.480414 1_555
O37 Zn7 2.136555 1_554
O38 S14 1.484375 1_555
O38 Zn6 2.108044 1_554
O39 Si4 1.654963 1_555
O39 Zn7 1.937563 1_554
O40 S15 1.482963 1_555
O40 Zn6 2.306063 1_554
O41 S16 1.473830 1_555
O41 Zn7 2.172358 1_554
O42 S10 1.490235 1_555
O42 Zn8 2.108821 1_555
O43 S11 1.502682 1_555
O43 Zn9 2.038239 1_555
O44 S12 1.483872 1_555
O44 Zn8 2.112198 1_555
O45 S13 1.492070 1_555
O45 Zn9 2.262959 1_555
O46 Si3 1.669835 1_555
O46 Zn8 1.917909 1_555
O47 S9 1.490745 1_555
O47 Zn9 2.080951 1_555
O48 Si5 1.631941 1_555
O49 S19 1.496343 1_555
O50 S20 1.474329 1_555
O51 S21 1.478312 1_555
O52 S22 1.490260 1_555
O53 Si6 1.634784 1_555
O54 S23 1.491569 1_555
O55 Si7 1.619858 1_555
O56 Si8 1.631614 1_555
O57 S24 1.480767 1_555
O58 S25 1.479649 1_555
O59 S26 1.469231 1_555
O60 S25 1.490945 1_555
O61 S26 1.501217 1_555
O61 Zn10 2.118039 1_555
O62 S23 1.479609 1_555
O63 Si7 1.650256 1_555
O63 Zn10 1.908270 1_555
O64 Si8 1.645508 1_555
O65 S24 1.487710 1_555
O65 Zn10 2.455600 1_555
O66 S20 1.499019 1_555
O66 Zn11 2.156356 1_555
O67 S21 1.481851 1_555
O68 S22 1.482856 1_555
O68 Zn11 2.477783 1_555
O69 Si6 1.640844 1_555
O70 Si5 1.649314 1_555
O70 Zn11 1.905442 1_555
O71 S19 1.471490 1_555
O72 S25 1.489920 1_555
O72 Zn0 2.290883 1_565
O73 S26 1.502585 1_555
O73 Zn1 2.306105 1_565
O74 S23 1.497429 1_555
O74 Zn1 2.463295 1_565
O75 Si7 1.660334 1_555
O75 Zn0 1.974904 1_665
O76 Si8 1.659017 1_555
O76 Zn0 1.989551 1_555
O77 S24 1.510315 1_555
O77 Zn1 2.307394 1_555
O78 S20 1.500828 1_555
O78 Zn2 2.363137 1_555
O79 S21 1.483360 1_555
O79 Zn3 2.409488 1_545
O80 S22 1.504479 1_555
O80 Zn2 2.422629 1_565
O81 Si6 1.651843 1_555
O81 Zn3 2.045049 1_555
O82 Si5 1.655174 1_555
O82 Zn3 2.080822 1_555
O83 S19 1.501793 1_555
O83 Zn2 2.498139 1_665
O84 Si3 1.678869 1_555
O85 S9 1.507297 1_555
O86 S10 1.490565 1_555
O87 S11 1.482274 1_555
O88 S12 1.479861 1_555
O89 S13 1.497110 1_555
O90 S14 1.505879 1_555
O91 Si4 1.689253 1_555
O92 S15 1.493000 1_555
O93 S16 1.488571 1_555
O94 S17 1.489336 1_555
O95 S18 1.488614 1_555
O96 S7 1.498713 1_545
O96 Zn4 2.385853 1_555
O97 S8 1.499265 1_555
O98 Si1 1.670411 1_555
O98 Zn4 2.096752 1_555
O99 Si2 1.661587 1_555
O100 S6 1.497590 1_555
O100 Zn4 2.285581 1_555
O101 S5 1.488419 1_655
O102 S1 1.510380 1_555
O103 S2 1.496604 1_555
O103 Zn5 2.492181 1_555
O104 S4 1.498203 1_555
O105 S3 1.486112 1_555
O105 Zn5 2.436313 1_555
O106 S0 1.501246 1_545
O107 Si0 1.674478 1_555
O107 Zn5 2.094160 1_555
O108 Si5 1.678567 1_555
O108 Zn6 1.961024 1_555
O109 S19 1.489316 1_555
O109 Zn7 2.377746 1_555
O110 S21 1.502995 1_555
O110 Zn6 2.131340 1_555
O111 S20 1.489622 1_655
O111 Zn7 2.397634 1_555
O112 S22 1.502045 1_545
O112 Zn6 2.372841 1_555
O113 Si6 1.686551 1_545
O113 Zn7 2.000194 1_555
O114 S23 1.488244 1_545
O114 Zn8 2.479516 1_555
O115 Si7 1.679025 1_545
O115 Zn9 1.984436 1_555
O116 Si8 1.681346 1_555
O116 Zn8 2.054994 1_555
O117 S24 1.501604 1_555
O117 Zn9 2.460564 1_555
O118 S26 1.490930 1_555
O118 Zn8 2.459424 1_555
O119 S25 1.491454 1_655
O119 Zn9 2.278890 1_555
O120 S17 1.484418 1_555
O121 S18 1.492601 1_555
O122 Si4 1.650000 1_455
O123 S14 1.483521 1_555
O124 S15 1.504214 1_565
O125 S16 1.508414 1_565
O126 S10 1.492897 1_565
O127 S11 1.480832 1_565
O128 S12 1.514468 1_555
O129 S13 1.497684 1_555
O130 S9 1.487927 1_455
O131 Si3 1.645276 1_555
O132 S0 1.486395 1_555
O133 Si0 1.676818 1_565
O133 Zn10 1.999733 1_555
O134 S1 1.486146 1_555
O135 S2 1.497980 1_555
O135 Zn10 2.361989 1_555
O136 S3 1.507618 1_455
O137 S4 1.494915 1_555
O137 Zn10 2.485023 1_555
O138 Si1 1.672421 1_555
O138 Zn11 1.996075 1_555
O139 Si2 1.643098 1_555
O140 S5 1.497889 1_555
O140 Zn11 2.432549 1_555
O141 S6 1.493834 1_555
O142 S7 1.508923 1_555
O142 Zn11 2.288550 1_555
O143 S8 1.475905 1_565
