# generated using pymatgen
data_Pu5Ir3
_symmetry_space_group_name_H-M   'P 1'
_cell_length_a   8.36083195
_cell_length_b   8.36083195
_cell_length_c   8.36083195
_cell_angle_alpha   96.39942951
_cell_angle_beta   96.39942951
_cell_angle_gamma   140.99417027
_symmetry_Int_Tables_number   1
_chemical_formula_structural   Pu5Ir3
_chemical_formula_sum   'Pu10 Ir6'
_cell_volume   346.74768950
_cell_formula_units_Z   2
loop_
 _symmetry_equiv_pos_site_id
 _symmetry_equiv_pos_as_xyz
  1  'x, y, z'
loop_
 _atom_site_type_symbol
 _atom_site_label
 _atom_site_symmetry_multiplicity
 _atom_site_fract_x
 _atom_site_fract_y
 _atom_site_fract_z
 _atom_site_occupancy
  Pu  Pu0  1  0.75000000  0.25000000  0.50000000  1
  Pu  Pu1  1  0.25000000  0.75000000  0.50000000  1
  Pu  Pu2  1  0.08247500  0.77903800  0.86151300  1
  Pu  Pu3  1  0.77903800  0.91752500  0.69656300  1
  Pu  Pu4  1  0.22096200  0.08247500  0.30343700  1
  Pu  Pu5  1  0.91752500  0.22096200  0.13848700  1
  Pu  Pu6  1  0.27903800  0.58247500  0.86151300  1
  Pu  Pu7  1  0.72096200  0.41752500  0.13848700  1
  Pu  Pu8  1  0.41752500  0.27903800  0.69656300  1
  Pu  Pu9  1  0.58247500  0.72096200  0.30343700  1
  Ir  Ir0  1  0.75000000  0.75000000  0.00000000  1
  Ir  Ir1  1  0.25000000  0.25000000  0.00000000  1
  Ir  Ir2  1  0.16422300  0.33577700  0.50000000  1
  Ir  Ir3  1  0.33577700  0.83577700  0.17155300  1
  Ir  Ir4  1  0.66422300  0.16422300  0.82844700  1
  Ir  Ir5  1  0.83577700  0.66422300  0.50000000  1
loop_
_geom_bond_atom_site_label_1
_geom_bond_atom_site_label_2
_geom_bond_distance
_geom_bond_site_symmetry_2
Ir0 Ir1 2.791304 1_665
Ir0 Ir1 2.791304 1_555
Ir0 Pu2 2.976237 1_654
Ir0 Pu6 2.976237 1_554
Ir0 Pu7 2.976237 1_555
Ir0 Pu9 2.976237 1_555
Ir0 Pu4 2.976237 1_665
Ir0 Pu3 2.976237 1_554
Ir0 Pu8 2.976237 1_554
Ir0 Pu5 2.976237 1_565
Ir1 Pu2 2.976237 1_544
Ir1 Pu6 2.976237 1_554
Ir1 Pu9 2.976237 1_555
Ir1 Pu7 2.976237 1_555
Ir1 Pu3 2.976237 1_444
Ir1 Pu4 2.976237 1_555
Ir1 Pu8 2.976237 1_554
Ir1 Pu5 2.976237 1_455
Ir2 Pu8 2.893161 1_555
Ir2 Pu4 2.893161 1_555
Ir2 Pu0 2.940799 1_455
Ir2 Pu1 2.940799 1_555
Ir2 Pu6 3.032798 1_555
Ir2 Pu5 3.032798 1_455
Ir2 Pu3 3.202986 1_445
Ir2 Pu9 3.202986 1_445
Ir2 Pu3 3.202986 1_555
Ir2 Pu9 3.202986 1_555
Ir3 Pu6 2.893155 1_554
Ir3 Pu2 2.893155 1_554
Ir3 Pu0 2.940805 1_565
Ir3 Pu1 2.940808 1_555
Ir3 Pu4 3.032800 1_565
Ir3 Pu9 3.032800 1_555
Ir3 Pu5 3.202983 1_565
Ir3 Pu7 3.202983 1_565
Ir3 Pu5 3.202988 1_455
Ir3 Pu7 3.202988 1_455
Ir4 Pu5 2.893155 1_556
Ir4 Pu7 2.893155 1_556
Ir4 Pu1 2.940805 1_545
Ir4 Pu0 2.940808 1_555
Ir4 Pu3 3.032800 1_545
Ir4 Pu8 3.032800 1_555
Ir4 Pu6 3.202983 1_545
Ir4 Pu2 3.202983 1_545
Ir4 Pu6 3.202988 1_655
Ir4 Pu2 3.202988 1_655
Ir5 Pu3 2.893161 1_555
Ir5 Pu9 2.893161 1_555
Ir5 Pu0 2.940799 1_555
Ir5 Pu1 2.940799 1_655
Ir5 Pu2 3.032798 1_655
Ir5 Pu7 3.032798 1_555
Ir5 Pu8 3.202986 1_555
Ir5 Pu4 3.202986 1_665
Ir5 Pu8 3.202986 1_665
Ir5 Pu4 3.202986 1_555
