# generated using pymatgen
data_K3BiSe3
_symmetry_space_group_name_H-M   'P 1'
_cell_length_a   9.82386422
_cell_length_b   9.82386422
_cell_length_c   9.82386422
_cell_angle_alpha   90.00000000
_cell_angle_beta   90.00000000
_cell_angle_gamma   90.00000000
_symmetry_Int_Tables_number   1
_chemical_formula_structural   K3BiSe3
_chemical_formula_sum   'K12 Bi4 Se12'
_cell_volume   948.08451599
_cell_formula_units_Z   4
loop_
 _symmetry_equiv_pos_site_id
 _symmetry_equiv_pos_as_xyz
  1  'x, y, z'
loop_
 _atom_site_type_symbol
 _atom_site_label
 _atom_site_symmetry_multiplicity
 _atom_site_fract_x
 _atom_site_fract_y
 _atom_site_fract_z
 _atom_site_occupancy
  K  K0  1  0.32197280  0.32197280  0.32197280  1
  K  K1  1  0.17802720  0.67802720  0.82197280  1
  K  K2  1  0.82197280  0.17802720  0.67802720  1
  K  K3  1  0.67802720  0.82197280  0.17802720  1
  K  K4  1  0.57261061  0.57261061  0.57261061  1
  K  K5  1  0.92738939  0.42738939  0.07261061  1
  K  K6  1  0.07261061  0.92738939  0.42738939  1
  K  K7  1  0.42738939  0.07261061  0.92738939  1
  K  K8  1  0.81434190  0.81434190  0.81434190  1
  K  K9  1  0.68565810  0.18565810  0.31434190  1
  K  K10  1  0.31434190  0.68565810  0.18565810  1
  K  K11  1  0.18565810  0.31434190  0.68565810  1
  Bi  Bi0  1  0.96504623  0.53495377  0.46504623  1
  Bi  Bi1  1  0.46504623  0.96504623  0.53495377  1
  Bi  Bi2  1  0.03495377  0.03495377  0.03495377  1
  Bi  Bi3  1  0.53495377  0.46504623  0.96504623  1
  Se  Se0  1  0.77508496  0.11137825  0.00139927  1
  Se  Se1  1  0.72491504  0.88862175  0.50139927  1
  Se  Se2  1  0.27508496  0.38862175  0.99860073  1
  Se  Se3  1  0.11137825  0.00139927  0.77508496  1
  Se  Se4  1  0.22491504  0.61137825  0.49860073  1
  Se  Se5  1  0.49860073  0.22491504  0.61137825  1
  Se  Se6  1  0.61137825  0.49860073  0.22491504  1
  Se  Se7  1  0.88862175  0.50139927  0.72491504  1
  Se  Se8  1  0.99860073  0.27508496  0.38862175  1
  Se  Se9  1  0.38862175  0.99860073  0.27508496  1
  Se  Se10  1  0.00139927  0.77508496  0.11137825  1
  Se  Se11  1  0.50139927  0.72491504  0.88862175  1
loop_
_geom_bond_atom_site_label_1
_geom_bond_atom_site_label_2
_geom_bond_distance
_geom_bond_site_symmetry_2
K0 Se9 3.276079 1_545
K0 Se2 3.276079 1_554
K0 Se8 3.276079 1_455
K0 Se5 3.464541 1_555
K0 Se6 3.464541 1_555
K0 Se4 3.464541 1_555
K1 Se11 3.276079 1_555
K1 Se4 3.276079 1_555
K1 Se3 3.276079 1_565
K1 Se10 3.464541 1_556
K1 Se2 3.464541 1_555
K1 Se7 3.464541 1_455
K2 Se7 3.276079 1_555
K2 Se5 3.276079 1_555
K2 Se0 3.276079 1_556
K2 Se3 3.464541 1_655
K2 Se1 3.464541 1_545
K2 Se8 3.464541 1_555
K3 Se1 3.276079 1_555
K3 Se10 3.276079 1_655
K3 Se6 3.276079 1_555
K3 Se0 3.464541 1_565
K3 Se11 3.464541 1_554
K3 Se9 3.464541 1_555
K4 Se6 3.512943 1_555
K4 Se4 3.512943 1_555
K4 Se5 3.512943 1_555
K4 Se7 3.516487 1_555
K4 Se11 3.516487 1_555
K4 Se1 3.516487 1_555
K5 Se2 3.512943 1_654
K5 Se7 3.512943 1_554
K5 Se10 3.512943 1_655
K5 Se8 3.516487 1_555
K5 Se6 3.516487 1_555
K5 Se0 3.516487 1_555
K6 Se3 3.512943 1_565
K6 Se8 3.512943 1_465
K6 Se1 3.512943 1_455
K6 Se10 3.516487 1_555
K6 Se9 3.516487 1_555
K6 Se4 3.516487 1_555
K7 Se0 3.512943 1_556
K7 Se11 3.512943 1_545
K7 Se9 3.512943 1_546
K7 Se5 3.516487 1_555
K7 Se2 3.516487 1_555
K7 Se3 3.516487 1_555
K8 Se7 3.279578 1_555
K8 Se11 3.279578 1_555
K8 Se1 3.279578 1_555
K8 Se10 3.469955 1_656
K8 Se0 3.469955 1_566
K8 Se3 3.469955 1_665
K9 Se0 3.279578 1_555
K9 Se6 3.279578 1_555
K9 Se8 3.279578 1_555
K9 Se1 3.469955 1_545
K9 Se5 3.469955 1_555
K9 Se9 3.469955 1_545
K10 Se9 3.279578 1_555
K10 Se4 3.279578 1_555
K10 Se10 3.279578 1_555
K10 Se11 3.469955 1_554
K10 Se6 3.469955 1_555
K10 Se2 3.469955 1_554
K11 Se2 3.279578 1_555
K11 Se3 3.279578 1_555
K11 Se5 3.279578 1_555
K11 Se7 3.469955 1_455
K11 Se8 3.469955 1_455
K11 Se4 3.469955 1_555
Bi0 Se4 2.681364 1_655
Bi0 Se7 2.681364 1_555
Bi0 Se8 2.681364 1_555
Bi1 Se1 2.681364 1_555
Bi1 Se5 2.681364 1_565
Bi1 Se9 2.681364 1_555
Bi2 Se10 2.681364 1_545
Bi2 Se3 2.681364 1_554
Bi2 Se0 2.681364 1_455
Bi3 Se11 2.681364 1_555
Bi3 Se6 2.681364 1_556
Bi3 Se2 2.681364 1_555
