# generated using pymatgen
data_MgZn2(FeO2)4
_symmetry_space_group_name_H-M   'P 1'
_cell_length_a   6.58547796
_cell_length_b   6.58547840
_cell_length_c   5.85922700
_cell_angle_alpha   63.58563671
_cell_angle_beta   63.58563483
_cell_angle_gamma   54.18860554
_symmetry_Int_Tables_number   1
_chemical_formula_structural   MgZn2(FeO2)4
_chemical_formula_sum   'Mg1 Zn2 Fe4 O8'
_cell_volume   178.49491830
_cell_formula_units_Z   1
loop_
 _symmetry_equiv_pos_site_id
 _symmetry_equiv_pos_as_xyz
  1  'x, y, z'
loop_
 _atom_site_type_symbol
 _atom_site_label
 _atom_site_symmetry_multiplicity
 _atom_site_fract_x
 _atom_site_fract_y
 _atom_site_fract_z
 _atom_site_occupancy
  Mg  Mg0  1  0.46390900  0.46390900  0.03609100  1
  Zn  Zn0  1  0.16559400  0.64015500  0.59712600  1
  Zn  Zn1  1  0.64015500  0.16559400  0.59712600  1
  Fe  Fe0  1  0.00821300  0.00821200  0.99178800  1
  Fe  Fe1  1  0.20379900  0.20380000  0.29620000  1
  Fe  Fe2  1  0.68838400  0.68838400  0.07163400  1
  Fe  Fe3  1  0.68838400  0.68838400  0.55159700  1
  O  O0  1  0.33747400  0.33747400  0.41251600  1
  O  O1  1  0.33747400  0.33747400  0.91253500  1
  O  O2  1  0.37752400  0.83727800  0.39259900  1
  O  O3  1  0.83727700  0.37752700  0.39259800  1
  O  O4  1  0.37614400  0.82786900  0.89799400  1
  O  O5  1  0.82787200  0.37614300  0.89799300  1
  O  O6  1  0.88501000  0.88501000  0.37432100  1
  O  O7  1  0.88501000  0.88501000  0.85566000  1
loop_
_geom_bond_atom_site_label_1
_geom_bond_atom_site_label_2
_geom_bond_distance
_geom_bond_site_symmetry_2
Mg0 O0 1.947961 1_555
Mg0 O1 1.947965 1_554
Mg0 O4 1.950149 1_554
Mg0 O5 1.950164 1_554
Fe0 O4 1.900491 1_545
Fe0 O5 1.900491 1_455
Fe0 O6 1.968407 1_446
Fe0 O7 1.968408 1_445
Fe1 O3 1.893241 1_455
Fe1 O2 1.893241 1_545
Fe1 O1 1.997201 1_554
Fe1 O0 1.997201 1_555
Fe2 O7 2.000281 1_554
Fe2 O3 2.134298 1_555
Fe2 O2 2.134310 1_555
Fe2 O4 2.219569 1_554
Fe2 O5 2.219573 1_554
Fe3 O6 2.000281 1_555
Fe3 O3 2.134294 1_555
Fe3 O2 2.134306 1_555
Fe3 O4 2.219577 1_555
Fe3 O5 2.219581 1_555
O0 Zn1 2.147820 1_555
O0 Zn0 2.147820 1_555
O1 Zn1 2.147812 1_555
O1 Zn0 2.147812 1_555
O2 Zn0 2.077783 1_555
O3 Zn1 2.077794 1_555
O6 Zn0 2.122543 1_655
O6 Zn1 2.122543 1_565
O7 Zn0 2.122543 1_655
O7 Zn1 2.122543 1_565
