# generated using pymatgen
data_Pr2InGe2
_symmetry_space_group_name_H-M   'P 1'
_cell_length_a   7.62595890
_cell_length_b   7.62595890
_cell_length_c   4.36732214
_cell_angle_alpha   90.00000000
_cell_angle_beta   90.00000000
_cell_angle_gamma   90.00000000
_symmetry_Int_Tables_number   1
_chemical_formula_structural   Pr2InGe2
_chemical_formula_sum   'Pr4 In2 Ge4'
_cell_volume   253.98270715
_cell_formula_units_Z   2
loop_
 _symmetry_equiv_pos_site_id
 _symmetry_equiv_pos_as_xyz
  1  'x, y, z'
loop_
 _atom_site_type_symbol
 _atom_site_label
 _atom_site_symmetry_multiplicity
 _atom_site_fract_x
 _atom_site_fract_y
 _atom_site_fract_z
 _atom_site_occupancy
  Pr  Pr0  1  0.31928499  0.81928499  0.50000000  1
  Pr  Pr1  1  0.81928499  0.68071501  0.50000000  1
  Pr  Pr2  1  0.18071501  0.31928499  0.50000000  1
  Pr  Pr3  1  0.68071501  0.18071501  0.50000000  1
  In  In0  1  -0.00000000  -0.00000000  0.00000000  1
  In  In1  1  0.50000000  0.50000000  0.00000000  1
  Ge  Ge0  1  0.38375729  0.11624271  0.00000000  1
  Ge  Ge1  1  0.88375729  0.38375729  -0.00000000  1
  Ge  Ge2  1  0.11624271  0.61624271  0.00000000  1
  Ge  Ge3  1  0.61624271  0.88375729  -0.00000000  1
loop_
_geom_bond_atom_site_label_1
_geom_bond_atom_site_label_2
_geom_bond_distance
_geom_bond_site_symmetry_2
In0 Pr1 3.549101 1_445
In0 Pr3 3.549101 1_455
In0 Pr2 3.549101 1_554
In0 Pr2 3.549101 1_555
In0 Pr3 3.549101 1_454
In0 Pr1 3.549101 1_444
In0 Pr0 3.549101 1_544
In0 Pr0 3.549101 1_545
In1 Pr1 3.549101 1_555
In1 Pr2 3.549101 1_554
In1 Pr3 3.549101 1_555
In1 Pr1 3.549101 1_554
In1 Pr0 3.549101 1_555
In1 Pr0 3.549101 1_554
In1 Pr2 3.549101 1_555
In1 Pr3 3.549101 1_554
Ge0 Ge3 2.507294 1_545
Ge0 In0 3.057829 1_555
Ge0 In1 3.057829 1_555
Ge0 Pr2 3.092477 1_554
Ge0 Pr2 3.092477 1_555
Ge0 Pr3 3.184096 1_554
Ge0 Pr3 3.184096 1_555
Ge0 Pr0 3.184096 1_544
Ge0 Pr0 3.184096 1_545
Ge1 Ge2 2.507294 1_655
Ge1 In0 3.057829 1_655
Ge1 In1 3.057829 1_555
Ge1 Pr3 3.092477 1_554
Ge1 Pr3 3.092477 1_555
Ge1 Pr1 3.184096 1_554
Ge1 Pr2 3.184096 1_654
Ge1 Pr1 3.184096 1_555
Ge1 Pr2 3.184096 1_655
Ge2 In1 3.057829 1_555
Ge2 In0 3.057829 1_565
Ge2 Pr0 3.092477 1_555
Ge2 Pr0 3.092477 1_554
Ge2 Pr1 3.184096 1_455
Ge2 Pr2 3.184096 1_555
Ge2 Pr1 3.184096 1_454
Ge2 Pr2 3.184096 1_554
Ge3 In1 3.057829 1_555
Ge3 In0 3.057829 1_665
Ge3 Pr1 3.092477 1_555
Ge3 Pr1 3.092477 1_554
Ge3 Pr0 3.184096 1_555
Ge3 Pr3 3.184096 1_565
Ge3 Pr3 3.184096 1_564
Ge3 Pr0 3.184096 1_554
