# generated using pymatgen
data_Ba3NaIr2O9
_symmetry_space_group_name_H-M   'P 1'
_cell_length_a   5.96241041
_cell_length_b   5.96241041
_cell_length_c   14.60820300
_cell_angle_alpha   90.00000000
_cell_angle_beta   90.00000000
_cell_angle_gamma   120.00000454
_symmetry_Int_Tables_number   1
_chemical_formula_structural   Ba3NaIr2O9
_chemical_formula_sum   'Ba6 Na2 Ir4 O18'
_cell_volume   449.74996679
_cell_formula_units_Z   2
loop_
 _symmetry_equiv_pos_site_id
 _symmetry_equiv_pos_as_xyz
  1  'x, y, z'
loop_
 _atom_site_type_symbol
 _atom_site_label
 _atom_site_symmetry_multiplicity
 _atom_site_fract_x
 _atom_site_fract_y
 _atom_site_fract_z
 _atom_site_occupancy
  Ba  Ba0  1  0.33333300  0.66666700  0.91612800  1
  Ba  Ba1  1  0.00000000  0.00000000  0.75000000  1
  Ba  Ba2  1  0.66666700  0.33333300  0.41612800  1
  Ba  Ba3  1  0.66666700  0.33333300  0.08387200  1
  Ba  Ba4  1  0.00000000  0.00000000  0.25000000  1
  Ba  Ba5  1  0.33333300  0.66666700  0.58387200  1
  Na  Na0  1  0.00000000  0.00000000  0.50000000  1
  Na  Na1  1  0.00000000  0.00000000  0.00000000  1
  Ir  Ir0  1  0.33333300  0.66666700  0.33750400  1
  Ir  Ir1  1  0.33333300  0.66666700  0.16249600  1
  Ir  Ir2  1  0.66666700  0.33333300  0.66249600  1
  Ir  Ir3  1  0.66666700  0.33333300  0.83750400  1
  O  O0  1  0.17977300  0.82022700  0.08923700  1
  O  O1  1  0.17977300  0.35954600  0.08923700  1
  O  O2  1  0.64045400  0.82022700  0.08923700  1
  O  O3  1  0.35954600  0.17977300  0.58923700  1
  O  O4  1  0.82022700  0.64045400  0.91076300  1
  O  O5  1  0.82022700  0.17977300  0.58923700  1
  O  O6  1  0.82022700  0.64045400  0.58923700  1
  O  O7  1  0.17977300  0.82022700  0.41076300  1
  O  O8  1  0.64045400  0.82022700  0.41076300  1
  O  O9  1  0.35954600  0.17977300  0.91076300  1
  O  O10  1  0.82022700  0.17977300  0.91076300  1
  O  O11  1  0.17977300  0.35954600  0.41076300  1
  O  O12  1  0.48972800  0.97945700  0.25000000  1
  O  O13  1  0.51027200  0.48972800  0.75000000  1
  O  O14  1  0.97945700  0.48972800  0.75000000  1
  O  O15  1  0.02054300  0.51027200  0.25000000  1
  O  O16  1  0.48972800  0.51027200  0.25000000  1
  O  O17  1  0.51027200  0.02054300  0.75000000  1
loop_
_geom_bond_atom_site_label_1
_geom_bond_atom_site_label_2
_geom_bond_distance
_geom_bond_site_symmetry_2
Ba0 O0 2.984927 1_556
Ba0 O2 2.984930 1_556
Ba0 O1 2.984930 1_556
Ba0 O4 2.985302 1_455
Ba0 O9 2.985302 1_565
Ba0 O10 2.985305 1_565
Ba0 O10 2.985305 1_455
Ba0 O9 2.985308 1_555
Ba0 O4 2.985308 1_555
Ba0 O14 3.037835 1_455
Ba0 O17 3.037835 1_565
Ba0 O13 3.037841 1_555
Ba1 O14 2.983089 1_455
Ba1 O17 2.983089 1_455
Ba1 O13 2.983092 1_445
Ba1 O13 2.983092 1_555
Ba1 O17 2.983095 1_555
Ba1 O14 2.983095 1_445
Ba1 O3 2.993667 1_555
Ba1 O6 2.993667 1_445
Ba1 O4 2.993667 1_445
Ba1 O9 2.993667 1_555
Ba1 O10 2.993667 1_455
Ba1 O5 2.993667 1_455
Ba2 O5 2.984927 1_555
Ba2 O6 2.984930 1_555
Ba2 O3 2.984930 1_555
Ba2 O8 2.985302 1_545
Ba2 O11 2.985302 1_655
Ba2 O7 2.985305 1_545
Ba2 O7 2.985305 1_655
Ba2 O11 2.985308 1_555
Ba2 O8 2.985308 1_555
Ba2 O12 3.037835 1_545
Ba2 O15 3.037835 1_655
Ba2 O16 3.037841 1_555
Ba3 O10 2.984927 1_554
Ba3 O4 2.984930 1_554
Ba3 O9 2.984930 1_554
Ba3 O2 2.985302 1_545
Ba3 O1 2.985302 1_655
Ba3 O0 2.985305 1_655
Ba3 O0 2.985305 1_545
Ba3 O1 2.985308 1_555
Ba3 O2 2.985308 1_555
Ba3 O12 3.037835 1_545
Ba3 O15 3.037835 1_655
Ba3 O16 3.037841 1_555
Ba4 O15 2.983089 1_545
Ba4 O12 2.983089 1_545
Ba4 O16 2.983092 1_555
Ba4 O16 2.983092 1_445
Ba4 O15 2.983095 1_555
Ba4 O12 2.983095 1_445
Ba4 O11 2.993667 1_555
Ba4 O1 2.993667 1_555
Ba4 O2 2.993667 1_445
Ba4 O8 2.993667 1_445
Ba4 O0 2.993667 1_545
Ba4 O7 2.993667 1_545
Ba5 O7 2.984927 1_555
Ba5 O8 2.984930 1_555
Ba5 O11 2.984930 1_555
Ba5 O6 2.985302 1_455
Ba5 O3 2.985302 1_565
Ba5 O5 2.985305 1_565
Ba5 O5 2.985305 1_455
Ba5 O3 2.985308 1_555
Ba5 O6 2.985308 1_555
Ba5 O14 3.037835 1_455
Ba5 O17 3.037835 1_565
Ba5 O13 3.037841 1_555
Na0 O3 2.268509 1_555
Na0 O8 2.268509 1_445
Na0 O11 2.268509 1_555
Na0 O6 2.268509 1_445
Na0 O7 2.268510 1_545
Na0 O5 2.268510 1_455
Na1 O4 2.268509 1_444
Na1 O1 2.268509 1_555
Na1 O9 2.268509 1_554
Na1 O2 2.268509 1_445
Na1 O10 2.268510 1_454
Na1 O0 2.268510 1_545
Ir0 O7 1.913163 1_555
Ir0 O8 1.913167 1_555
Ir0 O11 1.913167 1_555
Ir0 O12 2.059759 1_555
Ir0 O15 2.059759 1_555
Ir0 O16 2.059760 1_555
Ir1 O0 1.913163 1_555
Ir1 O2 1.913167 1_555
Ir1 O1 1.913167 1_555
Ir1 O15 2.059759 1_555
Ir1 O12 2.059759 1_555
Ir1 O16 2.059760 1_555
Ir2 O5 1.913163 1_555
Ir2 O6 1.913167 1_555
Ir2 O3 1.913167 1_555
Ir2 O17 2.059759 1_555
Ir2 O14 2.059759 1_555
Ir2 O13 2.059760 1_555
Ir3 O10 1.913163 1_555
Ir3 O4 1.913167 1_555
Ir3 O9 1.913167 1_555
Ir3 O17 2.059759 1_555
Ir3 O14 2.059759 1_555
Ir3 O13 2.059760 1_555
