# generated using pymatgen
data_MgFe3(PO4)3
_symmetry_space_group_name_H-M   'P 1'
_cell_length_a   5.30652721
_cell_length_b   4.98539504
_cell_length_c   11.59893219
_cell_angle_alpha   90.29359727
_cell_angle_beta   88.54043450
_cell_angle_gamma   118.88175295
_symmetry_Int_Tables_number   1
_chemical_formula_structural   MgFe3(PO4)3
_chemical_formula_sum   'Mg1 Fe3 P3 O12'
_cell_volume   268.58844457
_cell_formula_units_Z   1
loop_
 _symmetry_equiv_pos_site_id
 _symmetry_equiv_pos_as_xyz
  1  'x, y, z'
loop_
 _atom_site_type_symbol
 _atom_site_label
 _atom_site_symmetry_multiplicity
 _atom_site_fract_x
 _atom_site_fract_y
 _atom_site_fract_z
 _atom_site_occupancy
  Mg  Mg0  1  0.02546200  0.31463400  0.89600000  1
  Fe  Fe0  1  0.58334200  0.55411700  0.03419300  1
  Fe  Fe1  1  0.00036700  0.51167700  0.64029500  1
  Fe  Fe2  1  0.43015000  0.00567800  0.32252400  1
  P  P0  1  0.50929300  0.54936500  0.49236100  1
  P  P1  1  0.01596900  0.42724000  0.16454900  1
  P  P2  1  0.46503300  0.00646200  0.85014600  1
  O  O0  1  0.26106700  0.34977000  0.14358200  1
  O  O1  1  0.51369300  0.85292800  0.45553200  1
  O  O2  1  0.21515000  0.71424300  0.80120000  1
  O  O3  1  0.81378000  0.62337500  0.52467700  1
  O  O4  1  0.74115300  0.14115700  0.20973100  1
  O  O5  1  0.34459800  0.21047600  0.90487400  1
  O  O6  1  0.40724800  0.33889800  0.38429800  1
  O  O7  1  0.71853600  0.20184300  0.76614500  1
  O  O8  1  0.94928800  0.51445700  0.04153600  1
  O  O9  1  0.09862900  0.69865000  0.24677500  1
  O  O10  1  0.62515800  0.92171300  0.94411400  1
  O  O11  1  0.29458100  0.40081900  0.59413600  1
loop_
_geom_bond_atom_site_label_1
_geom_bond_atom_site_label_2
_geom_bond_distance
_geom_bond_site_symmetry_2
Mg0 O5 2.001776 1_555
Mg0 O2 2.054285 1_555
Mg0 O8 2.083831 1_456
Mg0 O7 2.114013 1_455
Mg0 O10 2.142922 1_445
Fe0 O0 1.947319 1_555
Fe0 O10 2.028382 1_554
Fe0 O8 2.048617 1_555
Fe0 O5 2.182601 1_554
Fe1 O3 1.922697 1_455
Fe1 O11 1.953848 1_555
Fe1 O7 2.105639 1_455
Fe1 O2 2.186142 1_555
Fe2 O6 1.861786 1_555
Fe2 O1 1.878705 1_545
Fe2 O9 1.916626 1_545
Fe2 O4 1.927098 1_555
O0 P1 1.538860 1_555
O1 P0 1.563756 1_555
O2 P2 1.538418 1_565
O3 P0 1.529993 1_555
O4 P1 1.547581 1_655
O5 P2 1.564129 1_555
O6 P0 1.561236 1_555
O7 P2 1.544306 1_555
O8 P1 1.590844 1_655
O9 P1 1.538701 1_555
O10 P2 1.577074 1_565
O11 P0 1.538014 1_555
