# generated using pymatgen
data_MgNb2In2O8
_symmetry_space_group_name_H-M   'P 1'
_cell_length_a   5.34671804
_cell_length_b   5.28599306
_cell_length_c   6.41931200
_cell_angle_alpha   90.00000000
_cell_angle_beta   90.00000000
_cell_angle_gamma   87.01185924
_symmetry_Int_Tables_number   1
_chemical_formula_structural   MgNb2In2O8
_chemical_formula_sum   'Mg1 Nb2 In2 O8'
_cell_volume   181.18050374
_cell_formula_units_Z   1
loop_
 _symmetry_equiv_pos_site_id
 _symmetry_equiv_pos_as_xyz
  1  'x, y, z'
loop_
 _atom_site_type_symbol
 _atom_site_label
 _atom_site_symmetry_multiplicity
 _atom_site_fract_x
 _atom_site_fract_y
 _atom_site_fract_z
 _atom_site_occupancy
  Mg  Mg0  1  0.50000000  0.75000000  0.06880100  1
  Nb  Nb0  1  0.00000000  0.75000000  0.18324700  1
  Nb  Nb1  1  0.00000000  0.25000000  0.81421400  1
  In  In0  1  0.50000000  0.75000000  0.63684800  1
  In  In1  1  0.50000000  0.25000000  0.35073100  1
  O  O0  1  0.24060200  0.35026400  0.62543900  1
  O  O1  1  0.75939800  0.14973600  0.62543900  1
  O  O2  1  0.73776700  0.59283300  0.33975900  1
  O  O3  1  0.26223300  0.90716700  0.33975900  1
  O  O4  1  0.26448100  0.46400200  0.12729800  1
  O  O5  1  0.73551900  0.03599800  0.12729800  1
  O  O6  1  0.83276100  0.55773500  0.93266700  1
  O  O7  1  0.16723900  0.94226500  0.93266700  1
loop_
_geom_bond_atom_site_label_1
_geom_bond_atom_site_label_2
_geom_bond_distance
_geom_bond_site_symmetry_2
Mg0 O5 2.051998 1_565
Mg0 O4 2.051998 1_555
Mg0 O7 2.184840 1_554
Mg0 O6 2.184840 1_554
Mg0 O3 2.285084 1_555
Mg0 O2 2.285084 1_555
Nb0 O3 1.945999 1_555
Nb0 O2 1.945999 1_455
Nb0 O5 2.047264 1_465
Nb0 O4 2.047264 1_555
Nb0 O7 2.124766 1_554
Nb0 O6 2.124766 1_454
Nb1 O0 1.864231 1_555
Nb1 O1 1.864231 1_455
Nb1 O6 1.967791 1_455
Nb1 O7 1.967791 1_545
In0 O3 2.415219 1_555
In0 O2 2.415219 1_555
In0 O1 2.588290 1_565
In0 O0 2.588290 1_555
In0 O7 2.759688 1_555
In0 O6 2.759688 1_555
In0 Mg0 2.772841 1_556
In1 O5 2.184954 1_555
In1 O4 2.184954 1_555
In1 O2 2.268348 1_555
In1 O3 2.268348 1_545
In1 O1 2.288566 1_555
In1 O0 2.288566 1_555
