# generated using pymatgen
data_Sr4MgFe2(ClO3)2
_symmetry_space_group_name_H-M   'P 1'
_cell_length_a   4.08253545
_cell_length_b   4.05675493
_cell_length_c   14.98102109
_cell_angle_alpha   89.98145447
_cell_angle_beta   90.03917334
_cell_angle_gamma   88.91464728
_symmetry_Int_Tables_number   1
_chemical_formula_structural   Sr4MgFe2(ClO3)2
_chemical_formula_sum   'Sr4 Mg1 Fe2 Cl2 O6'
_cell_volume   248.06877421
_cell_formula_units_Z   1
loop_
 _symmetry_equiv_pos_site_id
 _symmetry_equiv_pos_as_xyz
  1  'x, y, z'
loop_
 _atom_site_type_symbol
 _atom_site_label
 _atom_site_symmetry_multiplicity
 _atom_site_fract_x
 _atom_site_fract_y
 _atom_site_fract_z
 _atom_site_occupancy
  Sr  Sr0  1  0.24991800  0.24996800  0.35170400  1
  Sr  Sr1  1  0.24888400  0.25042100  0.13601500  1
  Sr  Sr2  1  0.75035100  0.74889500  0.86424100  1
  Sr  Sr3  1  0.75000900  0.75011100  0.64811500  1
  Mg  Mg0  1  0.25065200  0.75067300  0.99959200  1
  Fe  Fe0  1  0.74966200  0.74992300  0.22425500  1
  Fe  Fe1  1  0.24989800  0.25019400  0.77491500  1
  Cl  Cl0  1  0.74992000  0.74991300  0.42681100  1
  Cl  Cl1  1  0.24985100  0.25003700  0.57346100  1
  O  O0  1  0.24981500  0.75002800  0.23370500  1
  O  O1  1  0.25023600  0.25031800  0.94738200  1
  O  O2  1  0.25006600  0.74946100  0.76757500  1
  O  O3  1  0.74973600  0.25008100  0.24137300  1
  O  O4  1  0.75032500  0.24980700  0.75788900  1
  O  O5  1  0.75068100  0.75017100  0.05297000  1
loop_
_geom_bond_atom_site_label_1
_geom_bond_atom_site_label_2
_geom_bond_distance
_geom_bond_site_symmetry_2
Mg0 O1 2.172347 1_565
Mg0 O1 2.175567 1_555
Mg0 O5 2.191876 1_556
Mg0 O5 2.192746 1_456
Mg0 Sr2 2.877204 1_455
Mg0 Sr2 2.877233 1_555
Mg0 Sr1 2.879116 1_566
Mg0 Sr1 2.879817 1_556
Fe0 O3 2.043800 1_555
Fe0 O3 2.045248 1_565
Fe0 O0 2.045637 1_555
Fe0 O0 2.046706 1_655
Fe0 O5 2.566030 1_555
Fe1 O2 2.028364 1_555
Fe1 O2 2.034348 1_545
Fe1 O4 2.055269 1_455
Fe1 O4 2.059016 1_555
Fe1 O1 2.583731 1_555
Cl0 Fe0 3.034495 1_555
Cl0 Sr0 3.063750 1_565
Cl0 Sr0 3.064957 1_655
Cl0 Sr0 3.114711 1_555
Cl0 Sr0 3.115530 1_665
Cl0 Sr3 3.315360 1_555
Cl1 Fe1 3.017987 1_555
Cl1 Sr3 3.061345 1_545
Cl1 Sr3 3.062391 1_455
Cl1 Sr3 3.112311 1_445
Cl1 Sr3 3.113040 1_555
Cl1 Sr0 3.322147 1_555
O0 Sr1 2.500378 1_555
O0 Sr1 2.502079 1_565
O0 Sr0 2.690329 1_555
O0 Sr0 2.690837 1_565
O1 Sr1 2.825924 1_556
O1 Sr2 3.105748 1_455
O1 Sr2 3.115381 1_545
O1 Sr2 3.157416 1_555
O1 Sr2 3.163766 1_445
O2 Sr2 2.502678 1_455
O2 Sr2 2.502890 1_555
O2 Sr3 2.713911 1_455
O2 Sr3 2.715476 1_555
O3 Sr1 2.578438 1_655
O3 Sr1 2.582193 1_555
O3 Sr0 2.626241 1_655
O3 Sr0 2.626856 1_555
O4 Sr2 2.576800 1_555
O4 Sr2 2.581805 1_545
O4 Sr3 2.610754 1_545
O4 Sr3 2.611805 1_555
O5 Sr2 2.827359 1_554
O5 Sr1 3.103797 1_655
O5 Sr1 3.116186 1_565
O5 Sr1 3.155572 1_665
O5 Sr1 3.164483 1_555
