# generated using pymatgen
data_LaTiAgO4
_symmetry_space_group_name_H-M   'P 1'
_cell_length_a   3.74858200
_cell_length_b   3.74858200
_cell_length_c   13.60203300
_cell_angle_alpha   90.00000000
_cell_angle_beta   90.00000000
_cell_angle_gamma   90.00000000
_symmetry_Int_Tables_number   1
_chemical_formula_structural   LaTiAgO4
_chemical_formula_sum   'La2 Ti2 Ag2 O8'
_cell_volume   191.13395879
_cell_formula_units_Z   2
loop_
 _symmetry_equiv_pos_site_id
 _symmetry_equiv_pos_as_xyz
  1  'x, y, z'
loop_
 _atom_site_type_symbol
 _atom_site_label
 _atom_site_symmetry_multiplicity
 _atom_site_fract_x
 _atom_site_fract_y
 _atom_site_fract_z
 _atom_site_occupancy
  La  La0  1  0.00000000  0.50000000  0.10691000  1
  La  La1  1  0.50000000  0.00000000  0.89309000  1
  Ti  Ti0  1  0.00000000  0.50000000  0.72776100  1
  Ti  Ti1  1  0.50000000  0.00000000  0.27223900  1
  Ag  Ag0  1  0.00000000  0.50000000  0.42229100  1
  Ag  Ag1  1  0.50000000  0.00000000  0.57770900  1
  O  O0  1  0.00000000  0.50000000  0.59602500  1
  O  O1  1  0.50000000  0.00000000  0.40397500  1
  O  O2  1  0.00000000  0.50000000  0.93210700  1
  O  O3  1  0.50000000  0.00000000  0.06789300  1
  O  O4  1  0.50000000  0.50000000  0.76699300  1
  O  O5  1  0.00000000  0.00000000  0.76699300  1
  O  O6  1  0.50000000  0.50000000  0.23300700  1
  O  O7  1  0.00000000  0.00000000  0.23300700  1
loop_
_geom_bond_atom_site_label_1
_geom_bond_atom_site_label_2
_geom_bond_distance
_geom_bond_site_symmetry_2
La0 O2 2.377676 1_554
La0 O7 2.540629 1_555
La0 O7 2.540629 1_565
La0 O6 2.540629 1_455
La0 O6 2.540629 1_555
La0 O3 2.703255 1_555
La0 O3 2.703255 1_565
La0 O3 2.703255 1_465
La0 O3 2.703255 1_455
La1 O3 2.377676 1_556
La1 O4 2.540629 1_555
La1 O5 2.540629 1_555
La1 O4 2.540629 1_545
La1 O5 2.540629 1_655
La1 O2 2.703255 1_555
La1 O2 2.703255 1_655
La1 O2 2.703255 1_545
La1 O2 2.703255 1_645
Ag0 O0 2.363136 1_555
Ag0 O1 2.662330 1_555
Ag0 O1 2.662330 1_565
Ag0 O1 2.662330 1_465
Ag0 O1 2.662330 1_455
Ag1 O1 2.363136 1_555
Ag1 O0 2.662330 1_555
Ag1 O0 2.662330 1_545
Ag1 O0 2.662330 1_645
Ag1 O0 2.662330 1_655
O0 Ti0 1.791877 1_555
O1 Ti1 1.791877 1_555
O2 Ti0 2.779521 1_555
O3 Ti1 2.779521 1_555
O4 Ti0 1.948777 1_655
O4 Ti0 1.948777 1_555
O5 Ti0 1.948777 1_545
O5 Ti0 1.948777 1_555
O6 Ti1 1.948777 1_555
O6 Ti1 1.948777 1_565
O7 Ti1 1.948777 1_555
O7 Ti1 1.948777 1_455
