# generated using pymatgen
data_MgTi2Mn2O6
_symmetry_space_group_name_H-M   'P 1'
_cell_length_a   5.92289476
_cell_length_b   5.92166585
_cell_length_c   5.92653014
_cell_angle_alpha   52.57508858
_cell_angle_beta   52.56786352
_cell_angle_gamma   52.57201733
_symmetry_Int_Tables_number   1
_chemical_formula_structural   MgTi2Mn2O6
_chemical_formula_sum   'Mg1 Ti2 Mn2 O6'
_cell_volume   121.35569122
_cell_formula_units_Z   1
loop_
 _symmetry_equiv_pos_site_id
 _symmetry_equiv_pos_as_xyz
  1  'x, y, z'
loop_
 _atom_site_type_symbol
 _atom_site_label
 _atom_site_symmetry_multiplicity
 _atom_site_fract_x
 _atom_site_fract_y
 _atom_site_fract_z
 _atom_site_occupancy
  Mg  Mg0  1  0.14782500  0.14863400  0.14704800  1
  Ti  Ti0  1  0.49572300  0.49676300  0.49545500  1
  Ti  Ti1  1  0.97050200  0.97173500  0.97098500  1
  Mn  Mn0  1  0.77478900  0.77623900  0.77464500  1
  Mn  Mn1  1  0.31539500  0.31651300  0.31707000  1
  O  O0  1  0.57197800  0.21298600  0.88714000  1
  O  O1  1  0.21171300  0.88867700  0.57139200  1
  O  O2  1  0.88773600  0.57255400  0.21195200  1
  O  O3  1  0.34755000  0.74187000  0.11137100  1
  O  O4  1  0.11147700  0.34879600  0.74111100  1
  O  O5  1  0.74088800  0.11271300  0.34740300  1
loop_
_geom_bond_atom_site_label_1
_geom_bond_atom_site_label_2
_geom_bond_distance
_geom_bond_site_symmetry_2
Mg0 O4 2.023031 1_554
Mg0 O3 2.024218 1_545
Mg0 O5 2.025230 1_455
Mg0 O0 2.138965 1_554
Mg0 O2 2.139033 1_455
Mg0 O1 2.140308 1_545
Mn0 O4 2.101715 1_655
Mn0 O3 2.102567 1_556
Mn0 O5 2.102709 1_565
Mn0 O1 2.433393 1_655
Mn0 O0 2.433547 1_565
Mn0 O2 2.438586 1_556
Mn1 O4 2.103423 1_555
Mn1 O5 2.104771 1_555
Mn1 O3 2.106077 1_555
Mn1 O1 2.278636 1_545
Mn1 O2 2.281436 1_455
Mn1 O0 2.288344 1_554
O0 Ti0 2.006776 1_555
O0 Ti1 2.079309 1_545
O1 Ti0 2.005513 1_555
O1 Ti1 2.083266 1_455
O2 Ti0 2.005785 1_555
O2 Ti1 2.078904 1_554
O3 Ti1 2.172449 1_454
O3 Ti0 2.218741 1_555
O4 Ti1 2.173664 1_445
O4 Ti0 2.216387 1_555
O5 Ti1 2.172231 1_544
O5 Ti0 2.216511 1_555
