# generated using pymatgen
data_Rb3NaMg(MoO4)2
_symmetry_space_group_name_H-M   'P 1'
_cell_length_a   7.17534321
_cell_length_b   6.23795249
_cell_length_c   7.99514677
_cell_angle_alpha   89.97751581
_cell_angle_beta   80.79302312
_cell_angle_gamma   115.76962456
_symmetry_Int_Tables_number   1
_chemical_formula_structural   Rb3NaMg(MoO4)2
_chemical_formula_sum   'Rb3 Na1 Mg1 Mo2 O8'
_cell_volume   317.13076949
_cell_formula_units_Z   1
loop_
 _symmetry_equiv_pos_site_id
 _symmetry_equiv_pos_as_xyz
  1  'x, y, z'
loop_
 _atom_site_type_symbol
 _atom_site_label
 _atom_site_symmetry_multiplicity
 _atom_site_fract_x
 _atom_site_fract_y
 _atom_site_fract_z
 _atom_site_occupancy
  Rb  Rb0  1  0.54131407  0.27081856  0.34290887  1
  Rb  Rb1  1  0.45868593  0.72918144  0.65709113  1
  Rb  Rb2  1  -0.00000000  0.00000000  -0.00000000  1
  Na  Na0  1  -0.00000000  0.00000000  0.50000000  1
  Mg  Mg0  1  -0.00000000  0.50000000  0.50000000  1
  Mo  Mo0  1  0.34977937  0.67512283  0.21154904  1
  Mo  Mo1  1  0.65022063  0.32487717  0.78845096  1
  O  O0  1  0.18288200  0.80440924  0.35543242  1
  O  O1  1  0.18314249  0.37887555  0.35540323  1
  O  O2  1  0.61466908  0.80750281  0.26081941  1
  O  O3  1  0.81711800  0.19559076  0.64456758  1
  O  O4  1  0.81685751  0.62112445  0.64459677  1
  O  O5  1  0.38533092  0.19249719  0.73918059  1
  O  O6  1  0.30277477  0.65192087  -0.00312496  1
  O  O7  1  0.69722523  0.34807913  0.00312496  1
loop_
_geom_bond_atom_site_label_1
_geom_bond_atom_site_label_2
_geom_bond_distance
_geom_bond_site_symmetry_2
Na0 O0 2.335470 1_545
Na0 O3 2.335470 1_455
Na0 O4 2.336727 1_445
Na0 O1 2.336727 1_555
Mg0 O0 2.002499 1_555
Mg0 O3 2.002499 1_455
Mg0 O1 2.003033 1_555
Mg0 O4 2.003033 1_455
Mo0 O6 1.795426 1_555
Mo0 O2 1.823396 1_555
Mo0 O1 1.950510 1_555
Mo0 O0 1.951291 1_555
Mo1 O7 1.795426 1_556
Mo1 O5 1.823396 1_555
Mo1 O4 1.950510 1_555
Mo1 O3 1.951291 1_555
O0 Rb0 2.915560 1_565
O1 Rb0 2.914346 1_555
O2 Rb2 2.949768 1_665
O2 Rb1 3.149251 1_555
O2 Rb0 3.204870 1_555
O2 Rb0 3.205365 1_565
O3 Rb1 2.915560 1_545
O4 Rb1 2.914346 1_555
O5 Rb2 2.949768 1_556
O5 Rb0 3.149251 1_555
O5 Rb1 3.204870 1_555
O5 Rb1 3.205365 1_545
O6 Rb1 2.724238 1_554
O7 Rb0 2.724238 1_555
