# generated using pymatgen
data_MgMn6(O5F)2
_symmetry_space_group_name_H-M   'P 1'
_cell_length_a   11.13025095
_cell_length_b   6.77836474
_cell_length_c   2.96354701
_cell_angle_alpha   89.99135730
_cell_angle_beta   90.01898658
_cell_angle_gamma   108.78800856
_symmetry_Int_Tables_number   1
_chemical_formula_structural   MgMn6(O5F)2
_chemical_formula_sum   'Mg1 Mn6 O10 F2'
_cell_volume   211.67117429
_cell_formula_units_Z   1
loop_
 _symmetry_equiv_pos_site_id
 _symmetry_equiv_pos_as_xyz
  1  'x, y, z'
loop_
 _atom_site_type_symbol
 _atom_site_label
 _atom_site_symmetry_multiplicity
 _atom_site_fract_x
 _atom_site_fract_y
 _atom_site_fract_z
 _atom_site_occupancy
  Mg  Mg0  1  0.82860100  0.16407500  0.49250500  1
  Mn  Mn0  1  0.04448400  0.01561600  0.99120600  1
  Mn  Mn1  1  0.34083700  0.15512900  0.49023400  1
  Mn  Mn2  1  0.02399300  0.52955200  0.48874800  1
  Mn  Mn3  1  0.64122700  0.33361000  0.98700600  1
  Mn  Mn4  1  0.32708900  0.68069900  0.98888800  1
  Mn  Mn5  1  0.62944200  0.79464400  0.48531900  1
  O  O0  1  0.15800000  0.10141400  0.49141300  1
  O  O1  1  0.97185700  0.30550700  0.99042900  1
  O  O2  1  0.02819100  0.70964200  0.98929000  1
  O  O3  1  0.69328400  0.01634200  0.98736100  1
  O  O4  1  0.52479300  0.23315000  0.48706400  1
  O  O5  1  0.21045500  0.58901600  0.48942200  1
  O  O6  1  0.44396200  0.74214400  0.48836900  1
  O  O7  1  0.76127200  0.39946000  0.48762100  1
  O  O8  1  0.62847600  0.61431600  0.98553100  1
  O  O9  1  0.32484800  0.96769400  0.98994800  1
  F  F0  1  0.34837200  0.36803000  0.99076500  1
  F  F1  1  0.90206900  0.93620900  0.49054600  1
loop_
_geom_bond_atom_site_label_1
_geom_bond_atom_site_label_2
_geom_bond_distance
_geom_bond_site_symmetry_2
Mg0 O7 1.969175 1_555
Mg0 O3 2.109833 1_555
Mg0 O3 2.130654 1_554
Mg0 O1 2.157110 1_555
Mg0 O1 2.166071 1_554
Mn0 O0 1.912085 1_555
Mn0 O0 1.912523 1_556
Mn0 O2 2.022905 1_545
Mn0 O1 2.353246 1_455
Mn1 O9 1.921707 1_545
Mn1 O9 1.923218 1_544
Mn1 O4 1.942798 1_555
Mn1 O0 1.948493 1_555
Mn2 O2 1.909446 1_554
Mn2 O2 1.912199 1_555
Mn2 O5 1.982623 1_555
Mn2 O1 2.063112 1_454
Mn2 O1 2.070203 1_455
Mn3 O4 1.941366 1_555
Mn3 O4 1.942127 1_556
Mn3 O7 1.947226 1_555
Mn3 O7 1.949427 1_556
Mn3 O8 1.953067 1_555
Mn3 O3 2.400674 1_555
Mn4 O6 1.925263 1_556
Mn4 O6 1.928195 1_555
Mn4 O5 1.934362 1_555
Mn4 O5 1.937299 1_556
Mn4 O9 1.953536 1_555
Mn5 O8 1.918350 1_554
Mn5 O8 1.919041 1_555
Mn5 O6 1.978742 1_555
Mn5 O3 2.062314 1_564
Mn5 O3 2.070979 1_565
F0 Mn1 2.049903 1_556
F0 Mn1 2.052451 1_555
F0 Mn4 2.207107 1_555
F1 Mg0 1.966701 1_565
F1 Mn0 2.108058 1_664
F1 Mn0 2.110182 1_665
