# generated using pymatgen
data_Na10Ti4In4Si7S5O48
_symmetry_space_group_name_H-M   'P 1'
_cell_length_a   18.08884341
_cell_length_b   9.03205242
_cell_length_c   22.49736617
_cell_angle_alpha   89.91033434
_cell_angle_beta   88.94585321
_cell_angle_gamma   119.78410740
_symmetry_Int_Tables_number   1
_chemical_formula_structural   Na10Ti4In4Si7S5O48
_chemical_formula_sum   'Na30 Ti12 In12 Si21 S15 O144'
_cell_volume   3189.28772643
_cell_formula_units_Z   3
loop_
 _symmetry_equiv_pos_site_id
 _symmetry_equiv_pos_as_xyz
  1  'x, y, z'
loop_
 _atom_site_type_symbol
 _atom_site_label
 _atom_site_symmetry_multiplicity
 _atom_site_fract_x
 _atom_site_fract_y
 _atom_site_fract_z
 _atom_site_occupancy
  Na  Na0  1  0.18612634  0.37005216  0.24224712  1
  Na  Na1  1  0.68625910  0.37061099  0.24290475  1
  Na  Na2  1  0.99279965  0.63175335  0.25327240  1
  Na  Na3  1  0.49360710  0.63165064  0.25288408  1
  Na  Na4  1  0.49284400  0.35130893  0.75707215  1
  Na  Na5  1  0.18602996  0.00228868  0.74535464  1
  Na  Na6  1  0.68485898  0.00151491  0.74493057  1
  Na  Na7  1  0.65569937  0.34120267  0.58168637  1
  Na  Na8  1  0.01893051  0.70360432  0.57816515  1
  Na  Na9  1  0.82782104  0.96376022  0.58906671  1
  Na  Na10  1  0.48853534  0.67149452  0.91557214  1
  Na  Na11  1  0.99000137  0.67380741  0.91432179  1
  Na  Na12  1  0.85262333  0.03607254  0.90983510  1
  Na  Na13  1  0.15838752  0.29862580  0.92192716  1
  Na  Na14  1  0.48895366  0.30714540  0.41411209  1
  Na  Na15  1  0.98596789  0.30275592  0.41403870  1
  Na  Na16  1  0.35145938  0.66799861  0.40947085  1
  Na  Na17  1  0.85221743  0.66945423  0.41090349  1
  Na  Na18  1  0.01890660  0.00895310  0.49834086  1
  Na  Na19  1  0.51264480  0.99030256  0.49797722  1
  Na  Na20  1  0.00915805  0.01335700  0.00234247  1
  Na  Na21  1  0.51033990  0.03188198  0.99703087  1
  Na  Na22  1  0.33973712  0.32932584  0.83194528  1
  Na  Na23  1  0.84316329  0.34190571  0.82700146  1
  Na  Na24  1  0.33520888  0.32815826  0.32902118  1
  Na  Na25  1  0.83436942  0.32681075  0.33175046  1
  Na  Na26  1  0.17488265  0.66520935  0.16158618  1
  Na  Na27  1  0.67449118  0.66591643  0.16203795  1
  Na  Na28  1  0.17466230  0.67242536  0.66882448  1
  Na  Na29  1  0.67309214  0.68069683  0.66583058  1
  Ti  Ti0  1  0.99564898  0.97493204  0.64821511  1
  Ti  Ti1  1  0.49590789  0.97592657  0.64958196  1
  Ti  Ti2  1  0.99892662  0.01924951  0.14736399  1
  Ti  Ti3  1  0.49826663  0.01746263  0.14715084  1
  Ti  Ti4  1  0.32601255  0.30997724  0.97723894  1
  Ti  Ti5  1  0.82107489  0.31655492  0.97772473  1
  Ti  Ti6  1  0.32346677  0.32990262  0.47728134  1
  Ti  Ti7  1  0.82521824  0.34773094  0.47945002  1
  Ti  Ti8  1  0.16145430  0.63846735  0.31204440  1
  Ti  Ti9  1  0.66119734  0.63914853  0.31251542  1
  Ti  Ti10  1  0.15917136  0.68191814  0.81183136  1
  Ti  Ti11  1  0.66182725  0.68519309  0.81291599  1
  In  In0  1  0.00140687  0.99808082  0.35015558  1
  In  In1  1  0.50194504  0.99875671  0.34959308  1
  In  In2  1  0.99907333  0.00094557  0.84761149  1
  In  In3  1  0.49659567  0.00187477  0.85271985  1
  In  In4  1  0.33281397  0.32955615  0.68374662  1
  In  In5  1  0.83539758  0.33303189  0.68508873  1
  In  In6  1  0.33433535  0.34060933  0.18123412  1
  In  In7  1  0.83417554  0.34002815  0.18169202  1
  In  In8  1  0.16071848  0.65126734  0.01757626  1
  In  In9  1  0.65934045  0.64868961  0.01853094  1
  In  In10  1  0.16502732  0.67382674  0.51620660  1
  In  In11  1  0.66137006  0.66978154  0.51760811  1
  Si  Si0  1  0.35261053  0.71509821  0.25044011  1
  Si  Si1  1  0.85269188  0.71523715  0.25028221  1
  Si  Si2  1  0.99687988  0.29130344  0.25196329  1
  Si  Si3  1  0.49699656  0.29151568  0.25177256  1
  Si  Si4  1  0.99706886  0.69827731  0.75268429  1
  Si  Si5  1  0.49730221  0.70181176  0.75319080  1
  Si  Si6  1  0.35157606  0.99020290  0.74990972  1
  Si  Si7  1  0.85108583  0.99251154  0.75149658  1
  Si  Si8  1  0.18527769  0.03994423  0.58585183  1
  Si  Si9  1  0.68429524  0.04225148  0.58538857  1
  Si  Si10  1  0.83263251  0.62849935  0.58345890  1
  Si  Si11  1  0.18474282  0.33042083  0.08472695  1
  Si  Si12  1  0.68306963  0.32943281  0.08641707  1
  Si  Si13  1  0.01833445  0.37346676  0.91635826  1
  Si  Si14  1  0.51775901  0.37082930  0.91662292  1
  Si  Si15  1  0.16674973  0.95838300  0.91766528  1
  Si  Si16  1  0.66465139  0.95836799  0.91924313  1
  Si  Si17  1  0.16482853  0.37054147  0.41837161  1
  Si  Si18  1  0.66450094  0.36741772  0.41905950  1
  Si  Si19  1  0.01808087  0.66329646  0.41759827  1
  Si  Si20  1  0.51826532  0.66421989  0.41654323  1
  S  S0  1  0.14617825  0.99456641  0.24757663  1
  S  S1  1  0.64636561  0.99462415  0.24741732  1
  S  S2  1  0.14557125  0.29973568  0.74857929  1
  S  S3  1  0.64431616  0.29496310  0.74787572  1
  S  S4  1  0.47834901  0.32402278  0.58213436  1
  S  S5  1  0.98124799  0.32773316  0.58082967  1
  S  S6  1  0.33583698  0.62920275  0.58141177  1
  S  S7  1  0.48078400  0.63811587  0.08278945  1
  S  S8  1  0.98048878  0.63649195  0.08208835  1
  S  S9  1  0.33530165  0.04191432  0.08261480  1
  S  S10  1  0.83551074  0.04233488  0.08181424  1
  S  S11  1  0.31048219  0.65953034  0.91729025  1
  S  S12  1  0.81054502  0.65852214  0.91752507  1
  S  S13  1  0.31133766  0.96474872  0.41622489  1
  S  S14  1  0.81062469  0.96313087  0.41628972  1
  O  O0  1  0.11347073  0.03285489  0.30308014  1
  O  O1  1  0.61382918  0.03297823  0.30289163  1
  O  O2  1  0.40818735  0.77862286  0.31023093  1
  O  O3  1  0.90898511  0.77836136  0.30984647  1
  O  O4  1  0.48557056  0.19341668  0.31349842  1
  O  O5  1  0.98639175  0.19372328  0.31364592  1
  O  O6  1  0.11380062  0.20232870  0.80569615  1
  O  O7  1  0.60696085  0.18751477  0.80161072  1
  O  O8  1  0.48687083  0.78125752  0.81367438  1
  O  O9  1  0.98995031  0.78119844  0.81399075  1
  O  O10  1  0.41658225  0.04951335  0.80357589  1
  O  O11  1  0.90146892  0.02408905  0.81245209  1
  O  O12  1  0.40751403  0.97294918  0.69099703  1
  O  O13  1  0.90630582  0.97755468  0.69267319  1
  O  O14  1  0.09116506  0.20495966  0.69844190  1
  O  O15  1  0.59166340  0.21012930  0.69416738  1
  O  O16  1  0.01327560  0.82863911  0.69367815  1
  O  O17  1  0.51457352  0.83387526  0.69472846  1
  O  O18  1  0.40950149  0.84318606  0.19406856  1
  O  O19  1  0.90997798  0.84409212  0.19383630  1
  O  O20  1  0.01604994  0.19621963  0.19493979  1
  O  O21  1  0.51539575  0.19480366  0.19492772  1
  O  O22  1  0.09100742  0.97300951  0.19686907  1
  O  O23  1  0.59087426  0.97272570  0.19679540  1
  O  O24  1  0.44139118  0.34848066  0.63802777  1
  O  O25  1  0.94266720  0.35893993  0.63442155  1
  O  O26  1  0.23666773  0.11751874  0.64564821  1
  O  O27  1  0.73868762  0.11413054  0.64512069  1
  O  O28  1  0.32404167  0.52787891  0.63530627  1
  O  O29  1  0.81318736  0.50209154  0.63801188  1
  O  O30  1  0.44465957  0.53835715  0.13947397  1
  O  O31  1  0.94409908  0.53776646  0.13868696  1
  O  O32  1  0.32380379  0.11795877  0.13741515  1
  O  O33  1  0.82431949  0.12061210  0.13587825  1
  O  O34  1  0.23274266  0.34633658  0.14629386  1
  O  O35  1  0.73224987  0.34611053  0.14718712  1
  O  O36  1  0.23970547  0.30877417  0.02663755  1
  O  O37  1  0.74088221  0.30935552  0.02892648  1
  O  O38  1  0.43008474  0.54507750  0.03108999  1
  O  O39  1  0.92966078  0.54344813  0.03009432  1
  O  O40  1  0.34636321  0.15163925  0.02929619  1
  O  O41  1  0.84636555  0.14802882  0.02727970  1
  O  O42  1  0.24281376  0.17191102  0.52779310  1
  O  O43  1  0.74067514  0.18182866  0.52893357  1
  O  O44  1  0.34610715  0.54545633  0.52664373  1
  O  O45  1  0.84986697  0.54070915  0.52193725  1
  O  O46  1  0.42899224  0.31571665  0.52958620  1
  O  O47  1  0.93027598  0.30970519  0.52726333  1
  O  O48  1  0.27553444  0.68671128  0.97277086  1
  O  O49  1  0.77500500  0.69003342  0.97196187  1
  O  O50  1  0.08091577  0.43803626  0.97183723  1
  O  O51  1  0.57196249  0.44792203  0.97457131  1
  O  O52  1  0.14881360  0.83762679  0.97396819  1
  O  O53  1  0.65648577  0.84543506  0.97572247  1
  O  O54  1  0.27690373  0.86446788  0.47175822  1
  O  O55  1  0.77709831  0.86534947  0.47274792  1
  O  O56  1  0.15381557  0.46390465  0.47490937  1
  O  O57  1  0.65180052  0.45057626  0.47863564  1
  O  O58  1  0.06748466  0.69386952  0.47915151  1
  O  O59  1  0.57321668  0.69870127  0.47423383  1
  O  O60  1  0.07284670  0.64010647  0.36005781  1
  O  O61  1  0.56782301  0.63522052  0.35699614  1
  O  O62  1  0.25909103  0.88193111  0.36451335  1
  O  O63  1  0.75790299  0.87367711  0.36525756  1
  O  O64  1  0.18333780  0.49390723  0.35724673  1
  O  O65  1  0.68015018  0.49446706  0.35919798  1
  O  O66  1  0.07109033  0.50975381  0.85952030  1
  O  O67  1  0.56760165  0.50414800  0.85735318  1
  O  O68  1  0.18020145  0.87086201  0.85580703  1
  O  O69  1  0.68389707  0.87267731  0.85776822  1
  O  O70  1  0.25826713  0.63827814  0.86534446  1
  O  O71  1  0.75944653  0.63718099  0.86471837  1
  O  O72  1  0.99740674  0.81820682  0.41267025  1
  O  O73  1  0.49510225  0.81586843  0.41215565  1
  O  O74  1  0.39837258  0.98890469  0.41173978  1
  O  O75  1  0.89800041  0.98401601  0.41177363  1
  O  O76  1  0.08103518  0.18645497  0.41324479  1
  O  O77  1  0.58006171  0.18412449  0.41296930  1
  O  O78  1  0.00069396  0.17858849  0.91030984  1
  O  O79  1  0.49947399  0.17863585  0.91208982  1
  O  O80  1  0.08665279  0.99263234  0.91262425  1
  O  O81  1  0.58065501  0.97381401  0.91335782  1
  O  O82  1  0.39937324  0.80175665  0.91304092  1
  O  O83  1  0.89852245  0.80724459  0.91313757  1
  O  O84  1  0.48520246  0.16610640  0.58547009  1
  O  O85  1  0.98511891  0.16870113  0.58657276  1
  O  O86  1  0.09010955  0.02526422  0.58987336  1
  O  O87  1  0.59156079  0.03947094  0.59021013  1
  O  O88  1  0.41652330  0.79894539  0.58526124  1
  O  O89  1  0.92169334  0.81613512  0.58962228  1
  O  O90  1  0.48420845  0.80509400  0.08698473  1
  O  O91  1  0.98425534  0.80391578  0.08580769  1
  O  O92  1  0.41593278  0.03311403  0.08625259  1
  O  O93  1  0.91627105  0.03308939  0.08583527  1
  O  O94  1  0.08878993  0.15083230  0.09098339  1
  O  O95  1  0.58829911  0.15067238  0.09128919  1
  O  O96  1  0.33493773  0.15269860  0.74478333  1
  O  O97  1  0.82942541  0.14659373  0.74609378  1
  O  O98  1  0.23241170  0.31915523  0.74286019  1
  O  O99  1  0.73024103  0.31532975  0.74347197  1
  O  O100  1  0.42059443  0.50907849  0.74372474  1
  O  O101  1  0.91708564  0.51176599  0.74611368  1
  O  O102  1  0.33565038  0.51870519  0.24547533  1
  O  O103  1  0.83600225  0.51915605  0.24505309  1
  O  O104  1  0.42002211  0.33139543  0.24313366  1
  O  O105  1  0.92018522  0.33131272  0.24314672  1
  O  O106  1  0.23366326  0.14250597  0.24157067  1
  O  O107  1  0.73372357  0.14220764  0.24133864  1
  O  O108  1  0.31584365  0.49646804  0.92173458  1
  O  O109  1  0.82098356  0.50291102  0.92356390  1
  O  O110  1  0.42442643  0.37279530  0.92580896  1
  O  O111  1  0.92537740  0.36848523  0.92539514  1
  O  O112  1  0.25438130  0.15099256  0.92380028  1
  O  O113  1  0.75567594  0.14774483  0.92499478  1
  O  O114  1  0.32126090  0.14016721  0.42209830  1
  O  O115  1  0.82102148  0.13704405  0.42065497  1
  O  O116  1  0.25575669  0.36458163  0.42419328  1
  O  O117  1  0.75599789  0.36550523  0.42136239  1
  O  O118  1  0.42388910  0.47965326  0.42440029  1
  O  O119  1  0.92532163  0.47838791  0.42135844  1
  O  O120  1  0.17485401  0.49905028  0.08109724  1
  O  O121  1  0.67528914  0.49962659  0.08166095  1
  O  O122  1  0.06799660  0.66080341  0.08010944  1
  O  O123  1  0.56881127  0.66426708  0.08132334  1
  O  O124  1  0.26138354  0.87082926  0.07735554  1
  O  O125  1  0.76173689  0.86960711  0.07771845  1
  O  O126  1  0.16892860  0.84493665  0.58091446  1
  O  O127  1  0.67726103  0.85778255  0.57890653  1
  O  O128  1  0.26164224  0.65468346  0.57728798  1
  O  O129  1  0.75182757  0.65831694  0.57773701  1
  O  O130  1  0.06800432  0.48021084  0.57823105  1
  O  O131  1  0.56687550  0.47216012  0.58087724  1
  O  O132  1  0.14881454  0.83316749  0.25344057  1
  O  O133  1  0.64914208  0.83333371  0.25322918  1
  O  O134  1  0.25701195  0.69920631  0.25742172  1
  O  O135  1  0.75703213  0.69845793  0.25753574  1
  O  O136  1  0.08833124  0.48221219  0.25544443  1
  O  O137  1  0.58871610  0.48175939  0.25516950  1
  O  O138  1  0.15270056  0.46933935  0.75267783  1
  O  O139  1  0.64753903  0.46120784  0.75253458  1
  O  O140  1  0.09044791  0.70051001  0.75388059  1
  O  O141  1  0.58895752  0.69641613  0.75461634  1
  O  O142  1  0.25788996  0.81549240  0.75636038  1
  O  O143  1  0.75603098  0.81212648  0.75704012  1
loop_
_geom_bond_atom_site_label_1
_geom_bond_atom_site_label_2
_geom_bond_distance
_geom_bond_site_symmetry_2
Na0 O102 2.350159 1_555
Na0 O34 2.351767 1_555
Na0 O136 2.450657 1_555
Na0 O106 2.592073 1_555
Na0 O134 2.613659 1_555
Na0 O64 2.829808 1_555
Na0 O20 2.896474 1_555
Na0 O0 2.969868 1_555
Na1 O35 2.344491 1_555
Na1 O103 2.352440 1_555
Na1 O137 2.437190 1_555
Na1 O107 2.598636 1_555
Na1 O135 2.601545 1_555
Na1 O65 2.868790 1_555
Na1 O21 2.914003 1_555
Na1 O1 2.964819 1_555
Na2 O105 2.369114 1_555
Na2 O132 2.484722 1_655
Na2 O103 2.503444 1_555
Na2 O136 2.671054 1_655
Na2 O31 2.736706 1_555
Na2 O3 2.756936 1_555
Na2 O60 2.809588 1_655
Na2 O22 2.954881 1_655
Na3 O104 2.366604 1_555
Na3 O133 2.478536 1_555
Na3 O102 2.520849 1_555
Na3 O137 2.666882 1_555
Na3 O30 2.711533 1_555
Na3 O61 2.713364 1_555
Na3 O2 2.789955 1_555
Na3 O23 2.949483 1_555
Na4 O100 2.385796 1_555
Na4 O139 2.460826 1_555
Na4 O96 2.528490 1_555
Na4 O10 2.574878 1_555
Na4 O67 2.662996 1_555
Na4 O141 2.711771 1_555
Na4 O24 2.847434 1_555
Na5 O96 2.337599 1_555
Na5 O140 2.399957 1_545
Na5 O26 2.433896 1_555
Na5 O98 2.551498 1_555
Na5 O142 2.605133 1_545
Na5 O68 2.729775 1_545
Na6 O97 2.270359 1_555
Na6 O141 2.426024 1_545
Na6 O27 2.439928 1_555
Na6 O99 2.529009 1_555
Na6 O143 2.618583 1_545
Na6 O69 2.787055 1_545
Na6 O17 2.925084 1_545
Na6 O7 2.954005 1_555
Na7 O87 2.378835 1_555
Na7 O131 2.422804 1_555
Na7 O129 2.506142 1_555
Na7 O57 2.534514 1_555
Na7 O84 2.676622 1_555
Na7 O15 2.768981 1_555
Na7 O29 2.803362 1_555
Na7 O43 2.824836 1_555
Na8 O126 2.358127 1_555
Na8 O58 2.397171 1_555
Na8 O89 2.439962 1_455
Na8 O86 2.542892 1_565
Na8 O130 2.576536 1_555
Na8 O16 2.855423 1_555
Na8 O45 2.965696 1_455
Na8 O25 2.975367 1_455
Na9 O129 2.411018 1_555
Na9 O127 2.412349 1_555
Na9 O85 2.507352 1_565
Na9 O89 2.628950 1_555
Na9 O13 2.722311 1_555
Na9 O55 2.786629 1_555
Na9 O27 2.853150 1_565
Na10 O110 2.357201 1_555
Na10 O81 2.389844 1_555
Na10 O82 2.424265 1_555
Na10 O8 2.502813 1_555
Na10 O108 2.711786 1_555
Na10 O38 2.804618 1_556
Na10 O67 2.851404 1_555
Na11 O111 2.412038 1_555
Na11 O9 2.455569 1_555
Na11 O83 2.484803 1_555
Na11 O80 2.519122 1_655
Na11 O109 2.657136 1_555
Na11 O66 2.822321 1_655
Na11 O39 2.823213 1_556
Na11 O52 2.857934 1_655
Na12 O78 2.325278 1_655
Na12 O11 2.369977 1_555
Na12 O113 2.438301 1_555
Na12 O83 2.583217 1_545
Na12 O111 2.638852 1_555
Na12 O41 2.850893 1_556
Na12 O69 2.920158 1_545
Na13 O80 2.411404 1_545
Na13 O108 2.499722 1_555
Na13 O78 2.517217 1_555
Na13 O50 2.551407 1_555
Na13 O112 2.664158 1_555
Na13 O6 2.762687 1_555
Na13 O36 2.777710 1_556
Na13 O70 2.948319 1_555
Na14 O118 2.383141 1_555
Na14 O77 2.401887 1_555
Na14 O4 2.476377 1_555
Na14 O74 2.504863 1_545
Na14 O114 2.634831 1_555
Na14 O46 2.812772 1_555
Na14 O61 2.861427 1_555
Na14 O57 2.972322 1_555
Na15 O119 2.338803 1_555
Na15 O76 2.419602 1_655
Na15 O5 2.466748 1_555
Na15 O75 2.504986 1_545
Na15 O115 2.590583 1_555
Na15 O47 2.734266 1_555
Na15 O60 2.896487 1_655
Na15 O56 2.996848 1_655
Na16 O73 2.257693 1_555
Na16 O116 2.424806 1_555
Na16 O2 2.434358 1_555
Na16 O74 2.584993 1_555
Na16 O118 2.636642 1_555
Na16 O44 2.838722 1_555
Na16 O64 2.913402 1_555
Na17 O72 2.280938 1_555
Na17 O117 2.420175 1_555
Na17 O3 2.468709 1_555
Na17 O75 2.534073 1_555
Na17 O119 2.656954 1_555
Na17 O45 2.744396 1_555
Na18 O76 2.370571 1_555
Na18 O86 2.414766 1_555
Na18 O72 2.491275 1_445
Na18 O89 2.675056 1_445
Na18 O85 2.689970 1_455
Na18 O75 2.880198 1_445
Na19 O73 2.417872 1_555
Na19 O77 2.447872 1_565
Na19 O87 2.454111 1_565
Na19 O88 2.597033 1_555
Na19 O84 2.720125 1_565
Na19 O74 2.856330 1_555
Na20 O94 2.435159 1_555
Na20 O80 2.496366 1_544
Na20 O91 2.533479 1_445
Na20 O93 2.562340 1_455
Na20 O78 2.601262 1_554
Na20 O83 2.820721 1_444
Na21 O79 2.389979 1_555
Na21 O81 2.452364 1_545
Na21 O95 2.500121 1_556
Na21 O92 2.615016 1_556
Na21 O90 2.739452 1_546
Na21 O82 2.815437 1_545
Na22 O100 2.497654 1_555
Na22 O96 2.505232 1_555
Na22 O110 2.546423 1_555
Na22 O112 2.578801 1_555
Na22 O108 2.678046 1_555
Na22 O98 2.785812 1_555
Na23 O101 2.305851 1_555
Na23 O97 2.465367 1_555
Na23 O111 2.633893 1_555
Na23 O99 2.723395 1_555
Na23 O113 2.746349 1_555
Na23 O109 2.748173 1_555
Na24 O104 2.436040 1_555
Na24 O102 2.543704 1_555
Na24 O114 2.622080 1_555
Na24 O118 2.646714 1_555
Na24 O116 2.667745 1_555
Na24 O106 2.672035 1_555
Na25 O105 2.491575 1_555
Na25 O119 2.556967 1_555
Na25 O115 2.560639 1_555
Na25 O117 2.566228 1_555
Na25 O103 2.599921 1_555
Na25 O107 2.713478 1_555
Na26 O120 2.353508 1_555
Na26 O124 2.545826 1_555
Na26 O134 2.572282 1_555
Na26 O136 2.634077 1_555
Na26 O122 2.674681 1_555
Na26 O132 2.734708 1_555
Na27 O121 2.356894 1_555
Na27 O125 2.543272 1_555
Na27 O135 2.572064 1_555
Na27 O137 2.620974 1_555
Na27 O123 2.655452 1_555
Na27 O133 2.714701 1_555
Na28 O142 2.449264 1_555
Na28 O138 2.513739 1_555
Na28 O140 2.514895 1_555
Na28 O126 2.551166 1_555
Na28 O128 2.621888 1_555
Na28 O130 2.778194 1_555
Na29 O129 2.486066 1_555
Na29 O143 2.494425 1_555
Na29 O127 2.500620 1_555
Na29 O141 2.535709 1_555
Na29 O139 2.644422 1_555
Na29 O131 2.728206 1_555
In0 O3 2.078697 1_455
In0 O5 2.085994 1_465
In0 O72 2.120138 1_455
In0 O0 2.148695 1_565
In0 O76 2.152239 1_565
In0 O75 2.259329 1_455
In1 O2 2.079532 1_555
In1 O4 2.088078 1_565
In1 O73 2.123246 1_555
In1 O77 2.136346 1_565
In1 O1 2.143522 1_565
In1 O74 2.282616 1_555
In2 O11 2.050378 1_555
In2 O9 2.054882 1_545
In2 O78 2.127613 1_655
In2 O6 2.162633 1_655
In2 O80 2.204018 1_645
In2 O83 2.296549 1_545
In3 O10 2.044116 1_555
In3 O79 2.064518 1_555
In3 O8 2.106195 1_545
In3 O81 2.166885 1_545
In3 O7 2.168640 1_555
In3 O82 2.224408 1_545
In4 O26 2.044041 1_555
In4 O96 2.120081 1_555
In4 O100 2.121085 1_555
In4 O24 2.129832 1_555
In4 O28 2.168883 1_555
In4 O98 2.194798 1_555
In5 O29 2.057853 1_555
In5 O101 2.094306 1_555
In5 O27 2.098848 1_555
In5 O97 2.130133 1_555
In5 O25 2.141462 1_555
In5 O99 2.230303 1_555
In6 O34 2.035966 1_555
In6 O30 2.107122 1_555
In6 O104 2.134437 1_555
In6 O102 2.155775 1_555
In6 O32 2.164421 1_555
In6 O106 2.241577 1_555
In7 O35 2.039132 1_555
In7 O31 2.115482 1_555
In7 O105 2.130430 1_555
In7 O103 2.146261 1_555
In7 O33 2.164183 1_555
In7 O107 2.229837 1_555
In8 O50 2.037326 1_554
In8 O52 2.050552 1_554
In8 O120 2.086691 1_555
In8 O48 2.166436 1_554
In8 O122 2.203809 1_555
In8 O124 2.359680 1_555
In9 O51 1.995049 1_554
In9 O53 2.043429 1_554
In9 O121 2.075566 1_555
In9 O49 2.180936 1_554
In9 O123 2.200328 1_555
In9 O125 2.369089 1_555
In10 O56 2.032159 1_555
In10 O58 2.052299 1_555
In10 O126 2.101230 1_555
In10 O54 2.125691 1_555
In10 O130 2.222288 1_555
In10 O128 2.315243 1_555
In11 O59 2.008333 1_555
In11 O57 2.095027 1_555
In11 O127 2.098748 1_555
In11 O55 2.182672 1_555
In11 O129 2.183426 1_555
In11 O131 2.237228 1_555
O0 S0 1.485354 1_545
O1 S1 1.483522 1_545
O2 Si0 1.621231 1_555
O3 Si1 1.622802 1_555
O4 Si3 1.599948 1_555
O5 Si2 1.599638 1_555
O6 S2 1.490789 1_555
O7 S3 1.474665 1_555
O8 Si5 1.590653 1_555
O9 Si4 1.603838 1_555
O10 Si6 1.598696 1_545
O11 Si7 1.606701 1_545
O12 Si6 1.706669 1_555
O12 Ti1 1.824239 1_555
O13 Si7 1.689163 1_555
O13 Ti0 1.895098 1_555
O14 S2 1.476661 1_555
O14 Ti0 2.256441 1_445
O15 S3 1.508122 1_555
O15 Ti1 2.216183 1_545
O16 Si4 1.694807 1_455
O16 Ti0 1.822085 1_455
O17 Si5 1.691159 1_555
O17 Ti1 1.797396 1_555
O18 Si0 1.664455 1_555
O18 Ti3 1.895128 1_565
O19 Si1 1.670246 1_555
O19 Ti2 1.894417 1_565
O20 Si2 1.669281 1_455
O20 Ti2 1.822673 1_455
O21 Si3 1.669109 1_555
O21 Ti3 1.827982 1_555
O22 S0 1.478109 1_555
O22 Ti2 2.224200 1_465
O23 S1 1.479599 1_555
O23 Ti3 2.226372 1_565
O24 S4 1.481070 1_555
O25 S5 1.478399 1_555
O26 Si8 1.602085 1_555
O27 Si9 1.616219 1_555
O28 S6 1.464987 1_555
O29 Si10 1.585647 1_555
O30 S7 1.498642 1_555
O31 S8 1.494067 1_555
O32 S9 1.473122 1_555
O33 S10 1.468345 1_555
O34 Si11 1.616756 1_555
O35 Si12 1.611059 1_555
O36 Si11 1.697252 1_555
O36 Ti4 1.895202 1_554
O37 Si12 1.714269 1_555
O37 Ti5 1.811051 1_554
O38 S7 1.475363 1_555
O38 Ti4 2.375149 1_554
O39 S8 1.481509 1_555
O39 Ti5 2.353635 1_554
O40 S9 1.500504 1_555
O40 Ti4 2.021380 1_554
O41 S10 1.502123 1_555
O41 Ti5 2.115264 1_554
O42 Si8 1.709578 1_555
O42 Ti6 1.822572 1_555
O43 Si9 1.706616 1_555
O43 Ti7 1.865188 1_555
O44 S6 1.502969 1_555
O44 Ti6 2.103036 1_555
O45 Si10 1.695501 1_555
O45 Ti7 1.843717 1_555
O46 S4 1.474072 1_555
O46 Ti6 2.317302 1_555
O47 S5 1.490389 1_555
O47 Ti7 2.368317 1_555
O48 S11 1.464217 1_555
O49 S12 1.465621 1_555
O50 Si13 1.605557 1_555
O51 Si14 1.586631 1_555
O52 Si15 1.590059 1_555
O53 Si16 1.586230 1_555
O54 S13 1.475321 1_555
O55 S14 1.482270 1_555
O56 Si17 1.590458 1_555
O57 Si18 1.605175 1_555
O58 Si19 1.610614 1_555
O59 Si20 1.584531 1_555
O60 Si19 1.691394 1_555
O60 Ti8 1.922476 1_555
O61 Si20 1.690283 1_555
O61 Ti9 1.932268 1_555
O62 S13 1.465266 1_555
O62 Ti8 2.361065 1_555
O63 S14 1.469044 1_555
O63 Ti9 2.314736 1_555
O64 Si17 1.688880 1_555
O64 Ti8 1.849260 1_555
O65 Si18 1.693819 1_555
O65 Ti9 1.839079 1_555
O66 Si13 1.686465 1_555
O66 Ti10 1.891600 1_555
O67 Si14 1.706753 1_555
O67 Ti11 1.934355 1_555
O68 Si15 1.674170 1_555
O68 Ti10 1.846618 1_555
O69 Si16 1.698907 1_555
O69 Ti11 1.842180 1_555
O70 S11 1.468289 1_555
O70 Ti10 2.365955 1_555
O71 S12 1.472073 1_555
O71 Ti11 2.345047 1_555
O72 Si19 1.621930 1_655
O73 Si20 1.622533 1_555
O74 S13 1.479606 1_555
O75 S14 1.497265 1_555
O76 Si17 1.605790 1_555
O77 Si18 1.608963 1_555
O78 Si13 1.631818 1_555
O79 Si14 1.601419 1_555
O80 Si15 1.630630 1_555
O81 Si16 1.601091 1_555
O82 S11 1.478746 1_555
O83 S12 1.488886 1_555
O84 S4 1.493664 1_555
O84 Ti1 2.324090 1_545
O85 S5 1.477996 1_555
O85 Ti0 2.314247 1_545
O86 Si8 1.660342 1_555
O86 Ti0 1.998231 1_445
O87 Si9 1.666646 1_555
O87 Ti1 2.008305 1_545
O88 S6 1.506729 1_555
O88 Ti1 2.124727 1_555
O89 Si10 1.668311 1_555
O89 Ti0 1.936227 1_555
O90 S7 1.481596 1_555
O90 Ti3 2.261029 1_565
O91 S8 1.482088 1_555
O91 Ti2 2.297843 1_565
O92 S9 1.503280 1_555
O92 Ti3 2.097318 1_555
O93 S10 1.508411 1_555
O93 Ti2 2.104393 1_555
O94 Si11 1.690199 1_555
O94 Ti2 1.914109 1_455
O95 Si12 1.673445 1_555
O95 Ti3 1.911174 1_555
O96 Si6 1.642413 1_545
O97 Si7 1.627266 1_545
O98 S2 1.494536 1_555
O99 S3 1.472982 1_555
O100 Si5 1.616588 1_555
O101 Si4 1.593806 1_555
O102 Si0 1.647519 1_555
O103 Si1 1.646895 1_555
O104 Si3 1.616856 1_555
O105 Si2 1.613237 1_555
O106 S0 1.482849 1_545
O107 S1 1.480353 1_545
O108 S11 1.526533 1_555
O108 Ti4 2.177144 1_555
O109 S12 1.514432 1_555
O109 Ti5 2.077063 1_555
O110 Si14 1.705950 1_555
O110 Ti4 1.936094 1_555
O111 Si13 1.668227 1_655
O111 Ti5 2.050134 1_555
O112 Si15 1.681478 1_545
O112 Ti4 1.844046 1_555
O113 Si16 1.692362 1_545
O113 Ti5 1.843049 1_555
O114 S13 1.509622 1_545
O114 Ti6 2.102419 1_555
O115 S14 1.489995 1_545
O115 Ti7 2.290110 1_555
O116 Si17 1.679653 1_555
O116 Ti6 1.859696 1_555
O117 Si18 1.665475 1_555
O117 Ti7 1.886953 1_555
O118 Si20 1.698612 1_555
O118 Ti6 2.004760 1_555
O119 Si19 1.679923 1_655
O119 Ti7 2.040751 1_555
O120 Si11 1.621486 1_555
O121 Si12 1.615305 1_555
O122 S8 1.485896 1_455
O123 S7 1.488869 1_555
O124 S9 1.464023 1_565
O125 S10 1.469651 1_565
O126 Si8 1.639018 1_565
O127 Si9 1.613779 1_565
O128 S6 1.474506 1_555
O129 Si10 1.619711 1_555
O130 S5 1.487305 1_455
O131 S4 1.491624 1_555
O132 S0 1.487765 1_555
O132 Ti8 2.299192 1_555
O133 S1 1.488008 1_555
O133 Ti9 2.299133 1_555
O134 Si0 1.667029 1_555
O134 Ti8 1.943333 1_555
O135 Si1 1.665172 1_555
O135 Ti9 1.954099 1_555
O136 Si2 1.699201 1_455
O136 Ti8 1.890982 1_555
O137 Si3 1.698194 1_555
O137 Ti9 1.902784 1_555
O138 S2 1.475254 1_555
O138 Ti10 2.293834 1_555
O139 S3 1.477408 1_555
O139 Ti11 2.346677 1_555
O140 Si4 1.679907 1_455
O140 Ti10 1.881392 1_555
O141 Si5 1.683563 1_555
O141 Ti11 1.914143 1_555
O142 Si6 1.648201 1_555
O142 Ti10 1.993652 1_555
O143 Si7 1.683700 1_555
O143 Ti11 1.942715 1_555
