# generated using pymatgen
data_Cr2P4O13
_symmetry_space_group_name_H-M   'P 1'
_cell_length_a   8.95177600
_cell_length_b   8.25857100
_cell_length_c   13.32377696
_cell_angle_alpha   74.19979569
_cell_angle_beta   90.00000000
_cell_angle_gamma   90.00000000
_symmetry_Int_Tables_number   1
_chemical_formula_structural   Cr2P4O13
_chemical_formula_sum   'Cr8 P16 O52'
_cell_volume   947.79519580
_cell_formula_units_Z   4
loop_
 _symmetry_equiv_pos_site_id
 _symmetry_equiv_pos_as_xyz
  1  'x, y, z'
loop_
 _atom_site_type_symbol
 _atom_site_label
 _atom_site_symmetry_multiplicity
 _atom_site_fract_x
 _atom_site_fract_y
 _atom_site_fract_z
 _atom_site_occupancy
  Cr  Cr0  1  0.50382800  0.43876500  0.76053200  1
  Cr  Cr1  1  0.00382800  0.56123500  0.73946800  1
  Cr  Cr2  1  0.49617200  0.56123500  0.23946800  1
  Cr  Cr3  1  0.99617200  0.43876500  0.26053200  1
  Cr  Cr4  1  0.49736300  0.04117700  0.77746500  1
  Cr  Cr5  1  0.99736300  0.95882300  0.72253500  1
  Cr  Cr6  1  0.50263700  0.95882300  0.22253500  1
  Cr  Cr7  1  0.00263700  0.04117700  0.27746500  1
  P  P0  1  0.70033200  0.78533100  0.66068700  1
  P  P1  1  0.20033200  0.21466900  0.83931300  1
  P  P2  1  0.29966800  0.21466900  0.33931300  1
  P  P3  1  0.79966800  0.78533100  0.16068700  1
  P  P4  1  0.77733600  0.28670500  0.65809400  1
  P  P5  1  0.27733600  0.71329500  0.84190600  1
  P  P6  1  0.22266400  0.71329500  0.34190600  1
  P  P7  1  0.72266400  0.28670500  0.15809400  1
  P  P8  1  0.74298500  0.86438500  0.43083900  1
  P  P9  1  0.24298500  0.13561500  0.06916100  1
  P  P10  1  0.25701500  0.13561500  0.56916100  1
  P  P11  1  0.75701500  0.86438500  0.93083900  1
  P  P12  1  0.75185600  0.49805600  0.43289400  1
  P  P13  1  0.25185600  0.50194400  0.06710600  1
  P  P14  1  0.24814400  0.50194400  0.56710600  1
  P  P15  1  0.74814400  0.49805600  0.93289400  1
  O  O0  1  0.62265500  0.88683000  0.72288800  1
  O  O1  1  0.12265500  0.11317000  0.77711200  1
  O  O2  1  0.37734500  0.11317000  0.27711200  1
  O  O3  1  0.87734500  0.88683000  0.22288800  1
  O  O4  1  0.38148400  0.60148600  0.80402100  1
  O  O5  1  0.88148400  0.39851400  0.69597900  1
  O  O6  1  0.61851600  0.39851400  0.19597900  1
  O  O7  1  0.11851600  0.60148600  0.30402100  1
  O  O8  1  0.62336100  0.97966600  0.90618600  1
  O  O9  1  0.12336100  0.02033400  0.59381400  1
  O  O10  1  0.37663900  0.02033400  0.09381400  1
  O  O11  1  0.87663900  0.97966600  0.40618600  1
  O  O12  1  0.64122200  0.60865000  0.67860500  1
  O  O13  1  0.14122200  0.39135000  0.82139500  1
  O  O14  1  0.35877800  0.39135000  0.32139500  1
  O  O15  1  0.85877800  0.60865000  0.17860500  1
  O  O16  1  0.38724000  0.10517600  0.64231200  1
  O  O17  1  0.88724000  0.89482400  0.85768800  1
  O  O18  1  0.39011100  0.46940900  0.62847100  1
  O  O19  1  0.61276000  0.89482400  0.35768800  1
  O  O20  1  0.34819400  0.87468500  0.85127400  1
  O  O21  1  0.84819400  0.12531500  0.64872600  1
  O  O22  1  0.65180600  0.12531500  0.14872600  1
  O  O23  1  0.15180600  0.87468500  0.35127400  1
  O  O24  1  0.82405300  0.87979700  0.03917700  1
  O  O25  1  0.32405300  0.12020300  0.46082300  1
  O  O26  1  0.17594700  0.12020300  0.96082300  1
  O  O27  1  0.67594700  0.87979700  0.53917700  1
  O  O28  1  0.69570700  0.67275800  0.95553100  1
  O  O29  1  0.19570700  0.32724200  0.54446900  1
  O  O30  1  0.30429300  0.32724200  0.04446900  1
  O  O31  1  0.80429300  0.67275800  0.45553100  1
  O  O32  1  0.78995300  0.38176800  0.04499700  1
  O  O33  1  0.28995300  0.61823200  0.45500300  1
  O  O34  1  0.21004700  0.61823200  0.95500300  1
  O  O35  1  0.71004700  0.38176800  0.54499700  1
  O  O36  1  0.86941400  0.25201100  0.22499000  1
  O  O37  1  0.36941400  0.74798900  0.27501000  1
  O  O38  1  0.13058600  0.74798900  0.77501000  1
  O  O39  1  0.63058600  0.25201100  0.72499000  1
  O  O40  1  0.12479000  0.22266300  0.32348700  1
  O  O41  1  0.62479000  0.77733700  0.17651300  1
  O  O42  1  0.87521000  0.77733700  0.67651300  1
  O  O43  1  0.37521000  0.22266300  0.82348700  1
  O  O44  1  0.88194100  0.41815500  0.39292300  1
  O  O45  1  0.38194100  0.58184500  0.10707700  1
  O  O46  1  0.11805900  0.58184500  0.60707700  1
  O  O47  1  0.61805900  0.41815500  0.89292300  1
  O  O48  1  0.10988900  0.46940900  0.12847100  1
  O  O49  1  0.60988900  0.53059100  0.37152900  1
  O  O50  1  0.89011100  0.53059100  0.87152900  1
  O  O51  1  0.11276000  0.10517600  0.14231200  1
loop_
_geom_bond_atom_site_label_1
_geom_bond_atom_site_label_2
_geom_bond_distance
_geom_bond_site_symmetry_2
Cr0 O4 1.940401 1_555
Cr0 O12 1.959253 1_555
Cr0 O18 1.988425 1_555
Cr0 O47 2.005650 1_555
Cr0 O39 2.070823 1_555
Cr0 O43 2.097410 1_555
Cr1 O5 1.940401 1_455
Cr1 O13 1.959253 1_555
Cr1 O50 1.988425 1_455
Cr1 O46 2.005650 1_555
Cr1 O38 2.070823 1_555
Cr1 O42 2.097410 1_455
Cr2 O6 1.940401 1_555
Cr2 O14 1.959253 1_555
Cr2 O49 1.988425 1_555
Cr2 O45 2.005650 1_555
Cr2 O37 2.070823 1_555
Cr2 O41 2.097410 1_555
Cr3 O7 1.940401 1_655
Cr3 O15 1.959253 1_555
Cr3 O48 1.988425 1_655
Cr3 O44 2.005650 1_555
Cr3 O36 2.070823 1_555
Cr3 O40 2.097410 1_655
Cr4 O20 1.975965 1_545
Cr4 O0 1.978971 1_545
Cr4 O16 1.993876 1_555
Cr4 O8 1.999295 1_545
Cr4 O39 2.068786 1_555
Cr4 O43 2.078135 1_555
Cr5 O21 1.975965 1_565
Cr5 O1 1.978971 1_665
Cr5 O17 1.993876 1_555
Cr5 O9 1.999295 1_665
Cr5 O38 2.068786 1_655
Cr5 O42 2.078135 1_555
Cr6 O22 1.975965 1_565
Cr6 O2 1.978971 1_565
Cr6 O19 1.993876 1_555
Cr6 O10 1.999295 1_565
Cr6 O37 2.068786 1_555
Cr6 O41 2.078135 1_555
Cr7 O23 1.975965 1_545
Cr7 O3 1.978971 1_445
Cr7 O51 1.993876 1_555
Cr7 O11 1.999295 1_445
Cr7 O36 2.068786 1_455
Cr7 O40 2.078135 1_555
O0 P0 1.500428 1_555
O1 P1 1.500428 1_555
O2 P2 1.500428 1_555
O3 P3 1.500428 1_555
O4 P5 1.493470 1_555
O5 P4 1.493470 1_555
O6 P7 1.493470 1_555
O7 P6 1.493470 1_555
O8 P11 1.508468 1_555
O9 P10 1.508468 1_555
O10 P9 1.508468 1_555
O11 P8 1.508468 1_555
O12 P0 1.508759 1_555
O13 P1 1.508759 1_555
O14 P2 1.508759 1_555
O15 P3 1.508759 1_555
O16 P10 1.496218 1_555
O17 P11 1.496218 1_555
O18 P14 1.495370 1_555
O19 P8 1.496218 1_555
O20 P5 1.511625 1_555
O21 P4 1.511625 1_555
O22 P7 1.511625 1_555
O23 P6 1.511625 1_555
O24 P11 1.599998 1_554
O24 P3 1.609207 1_555
O25 P10 1.599998 1_555
O25 P2 1.609207 1_555
O26 P9 1.599998 1_556
O26 P1 1.609207 1_555
O27 P8 1.599998 1_555
O27 P0 1.609207 1_555
O28 P15 1.621704 1_555
O28 P11 1.621856 1_555
O29 P14 1.621704 1_555
O29 P10 1.621856 1_555
O30 P13 1.621704 1_555
O30 P9 1.621856 1_555
O31 P12 1.621704 1_555
O31 P8 1.621856 1_555
O32 P15 1.584987 1_554
O32 P7 1.614199 1_555
O33 P14 1.584987 1_555
O33 P6 1.614199 1_555
O34 P13 1.584987 1_556
O34 P5 1.614199 1_555
O35 P12 1.584987 1_555
O35 P4 1.614199 1_555
O36 P7 1.569455 1_555
O37 P6 1.569455 1_555
O38 P5 1.569455 1_555
O39 P4 1.569455 1_555
O40 P2 1.578586 1_555
O41 P3 1.578586 1_555
O42 P0 1.578586 1_555
O43 P1 1.578586 1_555
O44 P12 1.505478 1_555
O45 P13 1.505478 1_555
O46 P14 1.505478 1_555
O47 P15 1.505478 1_555
O48 P13 1.495370 1_555
O49 P12 1.495370 1_555
O50 P15 1.495370 1_555
O51 P9 1.496218 1_555
