# generated using pymatgen
data_MgCoBiO3
_symmetry_space_group_name_H-M   'P 1'
_cell_length_a   4.06490114
_cell_length_b   3.52897761
_cell_length_c   6.61799041
_cell_angle_alpha   90.00000000
_cell_angle_beta   90.00000000
_cell_angle_gamma   90.00000000
_symmetry_Int_Tables_number   1
_chemical_formula_structural   MgCoBiO3
_chemical_formula_sum   'Mg1 Co1 Bi1 O3'
_cell_volume   94.93470917
_cell_formula_units_Z   1
loop_
 _symmetry_equiv_pos_site_id
 _symmetry_equiv_pos_as_xyz
  1  'x, y, z'
loop_
 _atom_site_type_symbol
 _atom_site_label
 _atom_site_symmetry_multiplicity
 _atom_site_fract_x
 _atom_site_fract_y
 _atom_site_fract_z
 _atom_site_occupancy
  Mg  Mg0  1  0.00000000  0.50000000  0.32878508  1
  Co  Co0  1  0.50000000  0.50000000  0.60761474  1
  Bi  Bi0  1  0.00000000  0.00000000  0.90557045  1
  O  O0  1  0.50000000  0.00000000  0.76197811  1
  O  O1  1  0.50000000  0.50000000  0.31339223  1
  O  O2  1  0.00000000  0.50000000  0.63615940  1
loop_
_geom_bond_atom_site_label_1
_geom_bond_atom_site_label_2
_geom_bond_distance
_geom_bond_site_symmetry_2
Mg0 O2 2.034200 1_555
Mg0 O1 2.035002 1_555
Mg0 O1 2.035002 1_455
Co0 O1 1.947162 1_555
Co0 O0 2.038881 1_565
Co0 O0 2.038881 1_555
Co0 O2 2.041211 1_655
Co0 O2 2.041211 1_555
Bi0 O0 2.243638 1_555
Bi0 O0 2.243638 1_455
Bi0 O2 2.508459 1_555
Bi0 O2 2.508459 1_545
