# generated using pymatgen
data_Li2MnPCO7
_symmetry_space_group_name_H-M   'P 1'
_cell_length_a   6.29571500
_cell_length_b   8.58113163
_cell_length_c   10.35477455
_cell_angle_alpha   87.73958945
_cell_angle_beta   90.00000000
_cell_angle_gamma   90.00000000
_symmetry_Int_Tables_number   1
_chemical_formula_structural   Li2MnPCO7
_chemical_formula_sum   'Li8 Mn4 P4 C4 O28'
_cell_volume   558.97477414
_cell_formula_units_Z   4
loop_
 _symmetry_equiv_pos_site_id
 _symmetry_equiv_pos_as_xyz
  1  'x, y, z'
loop_
 _atom_site_type_symbol
 _atom_site_label
 _atom_site_symmetry_multiplicity
 _atom_site_fract_x
 _atom_site_fract_y
 _atom_site_fract_z
 _atom_site_occupancy
  Li  Li0  1  0.02070200  0.78663400  0.39031800  1
  Li  Li1  1  0.02070000  0.78663400  0.89031800  1
  Li  Li2  1  0.97929800  0.21336600  0.10968200  1
  Li  Li3  1  0.97929900  0.21336600  0.60968200  1
  Li  Li4  1  0.52070200  0.21336600  0.10968200  1
  Li  Li5  1  0.52070000  0.21336600  0.60968200  1
  Li  Li6  1  0.47929800  0.78663400  0.39031800  1
  Li  Li7  1  0.47929900  0.78663400  0.89031800  1
  Mn  Mn0  1  0.74999900  0.35176800  0.88670600  1
  Mn  Mn1  1  0.25000000  0.64823300  0.61329400  1
  Mn  Mn2  1  0.75000100  0.35178000  0.38671500  1
  Mn  Mn3  1  0.25000200  0.64822300  0.11329000  1
  P  P0  1  0.25000000  0.43203600  0.35386800  1
  P  P1  1  0.25000000  0.43203000  0.85386800  1
  P  P2  1  0.75000000  0.56796400  0.14613100  1
  P  P3  1  0.75000000  0.56796900  0.64613100  1
  C  C0  1  0.75000000  0.05489900  0.35959300  1
  C  C1  1  0.75000000  0.05489900  0.85959000  1
  C  C2  1  0.25000000  0.94510100  0.14040700  1
  C  C3  1  0.25000000  0.94510100  0.64040900  1
  O  O0  1  0.75000000  0.14072900  0.25393800  1
  O  O1  1  0.75000000  0.14073500  0.75394300  1
  O  O2  1  0.25000000  0.85927100  0.24606200  1
  O  O3  1  0.25000000  0.85926500  0.74605700  1
  O  O4  1  0.75000000  0.13525400  0.46764300  1
  O  O5  1  0.75000000  0.13525400  0.96764900  1
  O  O6  1  0.25000000  0.86474500  0.03235600  1
  O  O7  1  0.25000000  0.86474600  0.53235000  1
  O  O8  1  0.75000000  0.40152100  0.09480900  1
  O  O9  1  0.75000000  0.40151900  0.59480400  1
  O  O10  1  0.25000000  0.59847900  0.40519100  1
  O  O11  1  0.25000000  0.59848100  0.90519500  1
  O  O12  1  0.25000000  0.44496900  0.20212200  1
  O  O13  1  0.25000000  0.44497200  0.70212200  1
  O  O14  1  0.75000000  0.55503100  0.29787800  1
  O  O15  1  0.75000000  0.55502800  0.79787800  1
  O  O16  1  0.75000000  0.90723500  0.36623800  1
  O  O17  1  0.75000000  0.90723700  0.86625100  1
  O  O18  1  0.25000000  0.09276400  0.13376200  1
  O  O19  1  0.25000000  0.09276300  0.63374800  1
  O  O20  1  0.94337700  0.66450100  0.09771200  1
  O  O21  1  0.94338000  0.66449000  0.59771000  1
  O  O22  1  0.55662300  0.66450100  0.09771100  1
  O  O23  1  0.55662000  0.66449000  0.59771000  1
  O  O24  1  0.44337700  0.33549800  0.40228900  1
  O  O25  1  0.44338000  0.33550900  0.90229000  1
  O  O26  1  0.05662300  0.33549900  0.40228900  1
  O  O27  1  0.05662000  0.33550900  0.90229000  1
loop_
_geom_bond_atom_site_label_1
_geom_bond_atom_site_label_2
_geom_bond_distance
_geom_bond_site_symmetry_2
Li0 O16 2.004328 1_455
Li0 O2 2.151810 1_555
Li0 O10 2.166783 1_555
Li0 O7 2.184949 1_555
Li0 O21 2.402030 1_455
Li1 O17 2.004312 1_455
Li1 O3 2.151841 1_555
Li1 O11 2.166780 1_555
Li1 O6 2.184997 1_556
Li1 O20 2.402011 1_456
Li2 O18 2.004333 1_655
Li2 O0 2.151810 1_555
Li2 O8 2.166783 1_555
Li2 O5 2.184956 1_554
Li2 O27 2.402026 1_654
Li3 O19 2.004317 1_655
Li3 O1 2.151837 1_555
Li3 O9 2.166776 1_555
Li3 O4 2.185003 1_555
Li3 O26 2.402003 1_655
Li4 O18 2.004333 1_555
Li4 O0 2.151810 1_555
Li4 O8 2.166783 1_555
Li4 O5 2.184956 1_554
Li4 O25 2.402026 1_554
Li5 O19 2.004311 1_555
Li5 O1 2.151841 1_555
Li5 O9 2.166780 1_555
Li5 O4 2.185007 1_555
Li5 O24 2.401999 1_555
Li6 O16 2.004328 1_555
Li6 O2 2.151810 1_555
Li6 O10 2.166783 1_555
Li6 O7 2.184949 1_555
Li6 O23 2.402030 1_555
Li7 O17 2.004318 1_555
Li7 O3 2.151837 1_555
Li7 O11 2.166776 1_555
Li7 O6 2.184993 1_556
Li7 O22 2.402003 1_556
Mn0 O15 1.939512 1_555
Mn0 O25 1.941680 1_555
Mn0 O27 1.941692 1_655
Mn0 O5 2.007878 1_555
Mn0 O8 2.213203 1_556
Mn0 O1 2.316383 1_555
Mn1 O13 1.939519 1_555
Mn1 O21 1.941685 1_455
Mn1 O23 1.941685 1_555
Mn1 O7 2.007874 1_555
Mn1 O10 2.213205 1_555
Mn1 O3 2.316376 1_555
Mn2 O14 1.939485 1_555
Mn2 O26 1.941703 1_655
Mn2 O24 1.941716 1_555
Mn2 O4 2.007913 1_555
Mn2 O9 2.213033 1_555
Mn2 O0 2.316598 1_555
Mn3 O12 1.939484 1_555
Mn3 O22 1.941699 1_555
Mn3 O20 1.941723 1_455
Mn3 O6 2.007905 1_555
Mn3 O11 2.213100 1_554
Mn3 O2 2.316545 1_555
C0 O16 1.266278 1_545
C0 O0 1.294530 1_555
C0 O4 1.337201 1_555
C1 O17 1.266264 1_545
C1 O1 1.294489 1_555
C1 O5 1.337280 1_555
C2 O18 1.266270 1_565
C2 O2 1.294530 1_555
C2 O6 1.337214 1_555
C3 O19 1.266264 1_565
C3 O3 1.294498 1_555
C3 O7 1.337280 1_555
O8 P2 1.543451 1_555
O9 P3 1.543528 1_555
O10 P0 1.543455 1_555
O11 P1 1.543536 1_555
O12 P0 1.570838 1_555
O13 P1 1.570840 1_555
O14 P2 1.570848 1_555
O15 P3 1.570850 1_555
O20 P2 1.545000 1_555
O21 P3 1.544949 1_555
O22 P2 1.545003 1_555
O23 P3 1.544949 1_555
O24 P0 1.545011 1_555
O25 P1 1.544952 1_555
O26 P0 1.545006 1_555
O27 P1 1.544952 1_555
