# generated using pymatgen
data_Na5Nb3Si6GeO24
_symmetry_space_group_name_H-M   'P 1'
_cell_length_a   8.96695883
_cell_length_b   8.95853045
_cell_length_c   22.41335350
_cell_angle_alpha   90.26903961
_cell_angle_beta   89.81913383
_cell_angle_gamma   120.17932675
_symmetry_Int_Tables_number   1
_chemical_formula_structural   Na5Nb3Si6GeO24
_chemical_formula_sum   'Na15 Nb9 Si18 Ge3 O72'
_cell_volume   1556.42011135
_cell_formula_units_Z   3
loop_
 _symmetry_equiv_pos_site_id
 _symmetry_equiv_pos_as_xyz
  1  'x, y, z'
loop_
 _atom_site_type_symbol
 _atom_site_label
 _atom_site_symmetry_multiplicity
 _atom_site_fract_x
 _atom_site_fract_y
 _atom_site_fract_z
 _atom_site_occupancy
  Na  Na0  1  0.36791157  0.36684349  0.24691128  1
  Na  Na1  1  0.99528073  0.62909106  0.24619943  1
  Na  Na2  1  0.63641731  0.63171648  0.74696384  1
  Na  Na3  1  0.99917048  0.36703174  0.74759648  1
  Na  Na4  1  0.03493695  0.70171411  0.58477986  1
  Na  Na5  1  0.30027519  0.96662808  0.08524706  1
  Na  Na6  1  0.70012467  0.03391599  0.91867346  1
  Na  Na7  1  0.96805198  0.29788820  0.41240654  1
  Na  Na8  1  0.33250872  0.03419983  0.41348874  1
  Na  Na9  1  0.98827288  0.99639747  0.49647930  1
  Na  Na10  1  0.00020810  0.00017026  0.00049938  1
  Na  Na11  1  0.65523136  0.32978190  0.83184872  1
  Na  Na12  1  0.66635575  0.33257867  0.32877181  1
  Na  Na13  1  0.34721981  0.67068598  0.16547867  1
  Na  Na14  1  0.34455084  0.67919850  0.66511763  1
  Nb  Nb0  1  0.00577071  0.00115979  0.85418490  1
  Nb  Nb1  1  0.00052721  0.00446737  0.64272872  1
  Nb  Nb2  1  0.99261036  0.99905399  0.14450567  1
  Nb  Nb3  1  0.66832196  0.33918609  0.97886564  1
  Nb  Nb4  1  0.66563341  0.33522802  0.47851882  1
  Nb  Nb5  1  0.33252767  0.66134294  0.02464265  1
  Nb  Nb6  1  0.33905330  0.66791980  0.52195437  1
  Nb  Nb7  1  0.33663109  0.67006488  0.31019581  1
  Nb  Nb8  1  0.33309405  0.66951303  0.81136853  1
  Si  Si0  1  0.29216600  0.00855312  0.25045471  1
  Si  Si1  1  0.71708358  0.71149572  0.25164883  1
  Si  Si2  1  0.98598287  0.27882664  0.25222522  1
  Si  Si3  1  0.29947924  0.28675496  0.74813915  1
  Si  Si4  1  0.99632761  0.70622255  0.74659501  1
  Si  Si5  1  0.70933463  0.00795391  0.74887044  1
  Si  Si6  1  0.94836547  0.33246862  0.58518555  1
  Si  Si7  1  0.38676219  0.05158855  0.58566382  1
  Si  Si8  1  0.66031837  0.61363204  0.58760488  1
  Si  Si9  1  0.94964243  0.61418744  0.08817205  1
  Si  Si10  1  0.66909072  0.05438590  0.08502563  1
  Si  Si11  1  0.38719453  0.33762786  0.08815946  1
  Si  Si12  1  0.62045561  0.66390242  0.91579392  1
  Si  Si13  1  0.04496936  0.37831957  0.91617624  1
  Si  Si14  1  0.32899446  0.95389917  0.91952735  1
  Si  Si15  1  0.63267198  0.95242155  0.41549223  1
  Si  Si16  1  0.32889585  0.37270431  0.41417126  1
  Si  Si17  1  0.04243621  0.67482649  0.41550648  1
  Ge  Ge0  1  0.99746479  0.99731130  0.35210131  1
  Ge  Ge1  1  0.66290220  0.32944087  0.68746296  1
  Ge  Ge2  1  0.66575858  0.33004808  0.18852394  1
  O  O0  1  0.20434006  0.04336983  0.31008159  1
  O  O1  1  0.84638573  0.80415176  0.30822881  1
  O  O2  1  0.96611408  0.16867164  0.31294633  1
  O  O3  1  0.19822654  0.16865536  0.80679469  1
  O  O4  1  0.96544513  0.80432022  0.80366998  1
  O  O5  1  0.82896899  0.03687408  0.80844045  1
  O  O6  1  0.80499952  0.96922809  0.69315502  1
  O  O7  1  0.16786752  0.19459705  0.69190408  1
  O  O8  1  0.02649844  0.82320229  0.68754195  1
  O  O9  1  0.80429851  0.82938760  0.19211031  1
  O  O10  1  0.03020089  0.19268042  0.19514536  1
  O  O11  1  0.16969758  0.96815548  0.19161335  1
  O  O12  1  0.86569256  0.37260459  0.64416172  1
  O  O13  1  0.50724728  0.14341388  0.64312495  1
  O  O14  1  0.63693742  0.50397577  0.64799135  1
  O  O15  1  0.86323693  0.50287995  0.14836919  1
  O  O16  1  0.62859912  0.14300729  0.14172072  1
  O  O17  1  0.49936209  0.36717991  0.14874312  1
  O  O18  1  0.47615691  0.30447116  0.02897999  1
  O  O19  1  0.83525679  0.52274706  0.02795214  1
  O  O20  1  0.69301318  0.15880543  0.02229743  1
  O  O21  1  0.46930618  0.15835904  0.52325172  1
  O  O22  1  0.69090882  0.52125852  0.52855555  1
  O  O23  1  0.83710529  0.30698157  0.52395244  1
  O  O24  1  0.52616686  0.69736687  0.97270330  1
  O  O25  1  0.16516079  0.47637674  0.97405468  1
  O  O26  1  0.30517537  0.84236728  0.97950244  1
  O  O27  1  0.53242126  0.83412286  0.47408953  1
  O  O28  1  0.29870286  0.47071363  0.47127048  1
  O  O29  1  0.16421853  0.70362740  0.47440342  1
  O  O30  1  0.13297766  0.63665650  0.35790573  1
  O  O31  1  0.49962086  0.86005834  0.35939131  1
  O  O32  1  0.35768912  0.49112877  0.35528197  1
  O  O33  1  0.13579080  0.48944953  0.85545408  1
  O  O34  1  0.35674922  0.85479472  0.86162423  1
  O  O35  1  0.50753654  0.64071415  0.85505027  1
  O  O36  1  0.03440866  0.85146435  0.40875002  1
  O  O37  1  0.82331747  0.97646721  0.40944586  1
  O  O38  1  0.15452937  0.18224099  0.41017821  1
  O  O39  1  0.02178394  0.18555433  0.91191437  1
  O  O40  1  0.15862764  0.97122955  0.91049052  1
  O  O41  1  0.80690693  0.84117532  0.90989492  1
  O  O42  1  0.96958643  0.16219181  0.58939754  1
  O  O43  1  0.19029459  0.02379548  0.58886253  1
  O  O44  1  0.83694945  0.80428295  0.58835680  1
  O  O45  1  0.97793808  0.81060872  0.08915798  1
  O  O46  1  0.83867567  0.03227169  0.09020882  1
  O  O47  1  0.19674683  0.16162617  0.09079929  1
  O  O48  1  0.69961723  0.18330557  0.74229162  1
  O  O49  1  0.49113805  0.31205721  0.74416613  1
  O  O50  1  0.82286721  0.51427594  0.74417403  1
  O  O51  1  0.69433875  0.51765095  0.24651621  1
  O  O52  1  0.82189230  0.30898346  0.24490878  1
  O  O53  1  0.48285888  0.18163843  0.24488937  1
  O  O54  1  0.63985432  0.49463104  0.92203935  1
  O  O55  1  0.85258088  0.35405042  0.92054972  1
  O  O56  1  0.50514001  0.14097975  0.92122276  1
  O  O57  1  0.64513906  0.14210564  0.42115434  1
  O  O58  1  0.49699871  0.34823537  0.42122131  1
  O  O59  1  0.85605835  0.49662625  0.42172698  1
  O  O60  1  0.36451976  0.50604409  0.07893440  1
  O  O61  1  0.14549171  0.64208312  0.08113731  1
  O  O62  1  0.49517204  0.86129334  0.07928493  1
  O  O63  1  0.35673462  0.85496303  0.57876863  1
  O  O64  1  0.49214743  0.63554639  0.57819949  1
  O  O65  1  0.13827653  0.50715643  0.57715729  1
  O  O66  1  0.30286570  0.82991529  0.25643108  1
  O  O67  1  0.52169267  0.68614163  0.25566474  1
  O  O68  1  0.16394781  0.47431279  0.25553657  1
  O  O69  1  0.31240378  0.47679505  0.75358315  1
  O  O70  1  0.16446397  0.68150708  0.75412880  1
  O  O71  1  0.52231001  0.83005663  0.75413173  1
loop_
_geom_bond_atom_site_label_1
_geom_bond_atom_site_label_2
_geom_bond_distance
_geom_bond_site_symmetry_2
Na0 O53 2.352805 1_555
Na0 O68 2.464892 1_555
Na0 O67 2.480482 1_555
Na0 O17 2.492129 1_555
Na0 O51 2.533185 1_555
Na0 O32 2.687695 1_555
Na0 O10 2.864535 1_555
Na0 O0 2.881929 1_555
Na1 O51 2.360110 1_555
Na1 O66 2.430558 1_655
Na1 O15 2.476974 1_555
Na1 O52 2.481646 1_555
Na1 O68 2.523304 1_655
Na1 O30 2.780557 1_655
Na1 O1 2.871938 1_555
Na1 O11 2.901013 1_655
Na2 O50 2.381860 1_555
Na2 O71 2.460501 1_555
Na2 O49 2.479862 1_555
Na2 O14 2.492377 1_555
Na2 O69 2.516877 1_555
Na2 O35 2.699094 1_555
Na2 O4 2.851226 1_555
Na2 O6 2.882561 1_555
Na3 O48 2.343796 1_555
Na3 O70 2.440153 1_655
Na3 O69 2.469470 1_655
Na3 O50 2.518633 1_555
Na3 O12 2.624563 1_555
Na3 O33 2.681527 1_655
Na3 O5 2.902304 1_555
Na3 O7 2.924392 1_655
Na4 O65 2.354947 1_555
Na4 O44 2.375109 1_455
Na4 O43 2.496284 1_565
Na4 O63 2.499129 1_555
Na4 O8 2.559947 1_555
Na4 O29 2.725199 1_555
Na4 O12 2.879704 1_455
Na4 O22 2.951158 1_455
Na5 O47 2.357256 1_565
Na5 O62 2.370223 1_555
Na5 O45 2.500669 1_455
Na5 O61 2.515786 1_555
Na5 O26 2.623397 1_554
Na5 O11 2.655732 1_555
Na5 O16 2.845002 1_565
Na5 O18 2.908968 1_565
Na6 O41 2.365339 1_545
Na6 O56 2.380143 1_555
Na6 O55 2.480529 1_555
Na6 O39 2.499464 1_655
Na6 O20 2.587763 1_556
Na6 O5 2.718758 1_555
Na6 O24 2.878148 1_545
Na6 O34 2.954385 1_545
Na7 O38 2.369100 1_655
Na7 O59 2.452507 1_555
Na7 O37 2.494296 1_545
Na7 O2 2.503118 1_555
Na7 O57 2.511256 1_555
Na7 O23 2.776991 1_555
Na7 O28 2.884225 1_655
Na7 O30 2.898374 1_655
Na8 O36 2.331727 1_545
Na8 O58 2.438288 1_555
Na8 O57 2.469736 1_555
Na8 O38 2.537934 1_555
Na8 O0 2.610147 1_555
Na8 O21 2.723198 1_555
Na8 O29 2.905722 1_545
Na8 O31 2.910419 1_545
Na9 O37 2.403009 1_555
Na9 O36 2.496850 1_655
Na9 O38 2.500487 1_665
Na9 O44 2.590671 1_555
Na9 O42 2.605829 1_565
Na9 O43 2.683501 1_665
Na10 O39 2.538353 1_554
Na10 O40 2.549971 1_544
Na10 O45 2.561382 1_445
Na10 O46 2.572661 1_455
Na10 O41 2.582628 1_444
Na10 O47 2.593529 1_555
Na11 O49 2.415151 1_555
Na11 O50 2.523250 1_555
Na11 O48 2.530767 1_555
Na11 O56 2.531982 1_555
Na11 O54 2.541902 1_555
Na11 O55 2.600512 1_555
Na12 O52 2.408122 1_555
Na12 O51 2.412116 1_555
Na12 O53 2.414379 1_555
Na12 O58 2.609798 1_555
Na12 O59 2.621882 1_555
Na12 O57 2.634303 1_555
Na13 O62 2.478950 1_555
Na13 O60 2.482627 1_555
Na13 O67 2.520376 1_555
Na13 O61 2.542098 1_555
Na13 O66 2.624239 1_555
Na13 O68 2.641133 1_555
Na14 O63 2.468048 1_555
Na14 O71 2.485260 1_555
Na14 O64 2.489316 1_555
Na14 O70 2.569268 1_555
Na14 O69 2.609041 1_555
Na14 O65 2.609921 1_555
Nb0 O3 1.938508 1_555
Nb0 O4 1.965947 1_445
Nb0 O40 1.981629 1_545
Nb0 O39 2.041134 1_555
Nb0 O5 2.047026 1_455
Nb0 O41 2.055784 1_445
Nb1 O7 1.946977 1_555
Nb1 O6 1.971149 1_445
Nb1 O42 1.978485 1_455
Nb1 O43 2.018893 1_555
Nb1 O8 2.024116 1_545
Nb1 O44 2.049090 1_445
Nb2 O9 1.929616 1_555
Nb2 O10 1.951100 1_665
Nb2 O46 1.975316 1_565
Nb2 O45 2.040653 1_555
Nb2 O11 2.041620 1_655
Nb2 O47 2.059846 1_665
Nb3 O19 1.916721 1_556
Nb3 O18 1.944180 1_556
Nb3 O20 1.995936 1_556
Nb3 O54 2.000680 1_555
Nb3 O55 2.054951 1_555
Nb3 O56 2.083576 1_555
Nb4 O22 1.921151 1_555
Nb4 O21 1.953021 1_555
Nb4 O23 1.966890 1_555
Nb4 O58 2.034752 1_555
Nb4 O59 2.036619 1_555
Nb4 O57 2.083514 1_555
Nb5 O25 1.943314 1_554
Nb5 O24 1.975262 1_554
Nb5 O60 1.979392 1_555
Nb5 O26 2.032391 1_554
Nb5 O61 2.035592 1_555
Nb5 O62 2.049307 1_555
Nb6 O27 1.944715 1_555
Nb6 O28 1.970689 1_555
Nb6 O64 1.993120 1_555
Nb6 O63 2.041704 1_555
Nb6 O29 2.052796 1_555
Nb6 O65 2.059633 1_555
Nb7 O31 1.933997 1_555
Nb7 O32 1.986756 1_555
Nb7 O30 2.002264 1_555
Nb7 O67 2.004213 1_555
Nb7 O66 2.012199 1_555
Nb7 O68 2.058032 1_555
Nb8 O34 1.923236 1_555
Nb8 O33 1.960387 1_555
Nb8 O35 1.972226 1_555
Nb8 O70 2.029977 1_555
Nb8 O71 2.035476 1_555
Nb8 O69 2.085915 1_555
Ge0 O1 1.852584 1_555
Ge0 O2 1.911531 1_565
Ge0 O0 1.929113 1_665
Ge0 O37 1.954926 1_555
Ge0 O36 1.970380 1_655
Ge0 O38 2.016938 1_665
Ge1 O13 1.835089 1_555
Ge1 O14 1.913625 1_555
Ge1 O12 1.919243 1_555
Ge1 O49 1.939078 1_555
Ge1 O48 1.945112 1_555
Ge1 O50 2.004677 1_555
Ge2 O16 1.855663 1_555
Ge2 O15 1.894572 1_555
Ge2 O17 1.908434 1_555
Ge2 O53 1.965664 1_555
Ge2 O52 1.967714 1_555
Ge2 O51 2.031816 1_555
O0 Si0 1.655284 1_555
O1 Si1 1.635020 1_555
O2 Si2 1.640764 1_555
O3 Si3 1.646749 1_555
O4 Si4 1.648435 1_555
O5 Si5 1.651348 1_555
O6 Si5 1.644392 1_565
O7 Si3 1.637998 1_555
O8 Si4 1.627573 1_455
O9 Si1 1.638301 1_555
O10 Si2 1.638512 1_455
O11 Si0 1.637482 1_565
O12 Si6 1.638135 1_555
O13 Si7 1.614896 1_555
O14 Si8 1.626183 1_555
O15 Si9 1.626123 1_555
O16 Si10 1.629208 1_555
O17 Si11 1.631900 1_555
O18 Si11 1.646757 1_555
O19 Si9 1.642694 1_555
O20 Si10 1.645133 1_555
O21 Si7 1.647360 1_555
O22 Si8 1.651463 1_555
O23 Si6 1.645519 1_555
O24 Si12 1.635890 1_555
O25 Si13 1.631663 1_555
O26 Si14 1.627013 1_555
O27 Si15 1.644364 1_555
O28 Si16 1.645700 1_555
O29 Si17 1.650545 1_555
O30 Si17 1.646569 1_555
O31 Si15 1.642042 1_555
O32 Si16 1.633996 1_555
O33 Si13 1.642322 1_555
O34 Si14 1.656433 1_555
O35 Si12 1.648199 1_555
O36 Si17 1.627574 1_555
O37 Si15 1.617331 1_555
O38 Si16 1.637438 1_555
O39 Si13 1.634660 1_555
O40 Si14 1.624692 1_555
O41 Si12 1.632744 1_555
O42 Si6 1.632595 1_555
O43 Si7 1.652009 1_555
O44 Si8 1.645011 1_555
O45 Si9 1.646816 1_555
O46 Si10 1.633823 1_555
O47 Si11 1.642845 1_555
O48 Si5 1.623859 1_555
O49 Si3 1.618778 1_555
O50 Si4 1.640025 1_555
O51 Si1 1.647017 1_555
O52 Si2 1.632937 1_555
O53 Si0 1.636603 1_555
O54 Si12 1.617635 1_555
O55 Si13 1.629421 1_655
O56 Si14 1.625844 1_545
O57 Si15 1.650230 1_545
O58 Si16 1.636836 1_555
O59 Si17 1.636826 1_655
O60 Si11 1.634649 1_555
O61 Si9 1.651915 1_455
O62 Si10 1.651613 1_565
O63 Si7 1.649251 1_565
O64 Si8 1.630042 1_555
O65 Si6 1.643982 1_455
O66 Si0 1.656707 1_565
O67 Si1 1.651817 1_555
O68 Si2 1.675933 1_455
O69 Si3 1.651218 1_555
O70 Si4 1.639572 1_455
O71 Si5 1.636946 1_565
