# generated using pymatgen
data_Na3ZrTa(SiO4)3
_symmetry_space_group_name_H-M   'P 1'
_cell_length_a   9.16789718
_cell_length_b   9.17984366
_cell_length_c   22.50882162
_cell_angle_alpha   90.00000000
_cell_angle_beta   90.13465304
_cell_angle_gamma   120.04311716
_symmetry_Int_Tables_number   1
_chemical_formula_structural   Na3ZrTa(SiO4)3
_chemical_formula_sum   'Na18 Zr6 Ta6 Si18 O72'
_cell_volume   1639.82670310
_cell_formula_units_Z   6
loop_
 _symmetry_equiv_pos_site_id
 _symmetry_equiv_pos_as_xyz
  1  'x, y, z'
loop_
 _atom_site_type_symbol
 _atom_site_label
 _atom_site_symmetry_multiplicity
 _atom_site_fract_x
 _atom_site_fract_y
 _atom_site_fract_z
 _atom_site_occupancy
  Na  Na0  1  0.98530217  0.96858578  0.49742621  1
  Na  Na1  1  0.98530217  0.01671639  0.99742621  1
  Na  Na2  1  0.66605019  0.33596421  0.83078165  1
  Na  Na3  1  0.66605019  0.33008498  0.33078165  1
  Na  Na4  1  0.32923059  0.66351002  0.16421379  1
  Na  Na5  1  0.32923059  0.66572157  0.66421379  1
  Na  Na6  1  0.37062793  0.36351211  0.24874588  1
  Na  Na7  1  0.99035645  0.63406355  0.24810755  1
  Na  Na8  1  0.99035645  0.35629290  0.74810755  1
  Na  Na9  1  0.37062793  0.00711581  0.74874588  1
  Na  Na10  1  0.30798968  0.34233622  0.58157386  1
  Na  Na11  1  0.66110829  0.96514322  0.58133508  1
  Na  Na12  1  0.30798968  0.96565246  0.08157386  1
  Na  Na13  1  0.66110829  0.69596407  0.08133508  1
  Na  Na14  1  0.97632318  0.67790470  0.91484382  1
  Na  Na15  1  0.32629932  0.29502480  0.91506770  1
  Na  Na16  1  0.97632318  0.29841948  0.41484382  1
  Na  Na17  1  0.32629932  0.03127553  0.41506770  1
  Zr  Zr0  1  0.99294632  0.99572750  0.35393261  1
  Zr  Zr1  1  0.99294632  0.99721882  0.85393261  1
  Zr  Zr2  1  0.66807863  0.34094193  0.68748532  1
  Zr  Zr3  1  0.66807863  0.32713571  0.18748532  1
  Zr  Zr4  1  0.32930079  0.66111965  0.02093029  1
  Zr  Zr5  1  0.32930079  0.66818214  0.52093029  1
  Ta  Ta0  1  0.99822352  0.99553569  0.64558696  1
  Ta  Ta1  1  0.99822352  0.00268783  0.14558696  1
  Ta  Ta2  1  0.66850405  0.32958808  0.97873251  1
  Ta  Ta3  1  0.66850405  0.33891497  0.47873251  1
  Ta  Ta4  1  0.33845407  0.67012985  0.31217411  1
  Ta  Ta5  1  0.33845407  0.66832522  0.81217411  1
  Si  Si0  1  0.28875864  0.99457164  0.25094581  1
  Si  Si1  1  0.70344829  0.71148306  0.24752046  1
  Si  Si2  1  0.00570953  0.29616278  0.25246436  1
  Si  Si3  1  0.28875864  0.29418700  0.75094581  1
  Si  Si4  1  0.00570953  0.70954675  0.75246436  1
  Si  Si5  1  0.70344829  0.99196523  0.74752046  1
  Si  Si6  1  0.95749797  0.32826186  0.58450106  1
  Si  Si7  1  0.37237636  0.04449754  0.58443980  1
  Si  Si8  1  0.67479486  0.62957404  0.58221428  1
  Si  Si9  1  0.95749797  0.62923511  0.08450106  1
  Si  Si10  1  0.67479486  0.04521982  0.08221428  1
  Si  Si11  1  0.37237636  0.32787782  0.08443980  1
  Si  Si12  1  0.62337530  0.66235483  0.91979930  1
  Si  Si13  1  0.03754641  0.37748714  0.91412062  1
  Si  Si14  1  0.34200519  0.96266774  0.91699050  1
  Si  Si15  1  0.62337530  0.96102147  0.41979930  1
  Si  Si16  1  0.34200519  0.37933845  0.41699050  1
  Si  Si17  1  0.03754641  0.66006027  0.41412062  1
  O  O0  1  0.20276563  0.02098289  0.31001701  1
  O  O1  1  0.82839624  0.80442651  0.30306056  1
  O  O2  1  0.98757355  0.19558476  0.31364719  1
  O  O3  1  0.20276563  0.18178275  0.81001701  1
  O  O4  1  0.98757355  0.79198879  0.81364719  1
  O  O5  1  0.82839624  0.02396973  0.80306056  1
  O  O6  1  0.79762922  0.97428991  0.68708998  1
  O  O7  1  0.16370415  0.19588511  0.69248744  1
  O  O8  1  0.02220536  0.83710135  0.69627247  1
  O  O9  1  0.79762922  0.82333931  0.18708998  1
  O  O10  1  0.02220536  0.18510401  0.19627247  1
  O  O11  1  0.16370415  0.96781904  0.19248744  1
  O  O12  1  0.86958805  0.34555189  0.64442475  1
  O  O13  1  0.48390579  0.13115994  0.64359652  1
  O  O14  1  0.64093210  0.50873161  0.63886622  1
  O  O15  1  0.86958805  0.52403516  0.14442475  1
  O  O16  1  0.64093210  0.13219949  0.13886622  1
  O  O17  1  0.48390579  0.35274484  0.14359652  1
  O  O18  1  0.47289944  0.30474873  0.02616473  1
  O  O19  1  0.83533955  0.52774070  0.02586117  1
  O  O20  1  0.69264856  0.16402325  0.02362496  1
  O  O21  1  0.47289944  0.16814971  0.52616473  1
  O  O22  1  0.69264856  0.52862431  0.52362496  1
  O  O23  1  0.83533955  0.30759784  0.52586117  1
  O  O24  1  0.54264410  0.68270488  0.98072397  1
  O  O25  1  0.15927016  0.47206353  0.97026548  1
  O  O26  1  0.31504787  0.85007150  0.97574586  1
  O  O27  1  0.54264410  0.85994021  0.48072397  1
  O  O28  1  0.31504787  0.46497736  0.47574586  1
  O  O29  1  0.15927016  0.68720764  0.47026548  1
  O  O30  1  0.13034497  0.63382872  0.35454171  1
  O  O31  1  0.49476336  0.85297609  0.36316996  1
  O  O32  1  0.35550876  0.49493638  0.35776829  1
  O  O33  1  0.13034497  0.49651725  0.85454171  1
  O  O34  1  0.35550876  0.86057338  0.85776829  1
  O  O35  1  0.49476336  0.64178827  0.86316996  1
  O  O36  1  0.01949192  0.82708382  0.41183632  1
  O  O37  1  0.81586271  0.99820151  0.41423895  1
  O  O38  1  0.17844408  0.18872871  0.41359752  1
  O  O39  1  0.01949192  0.19240810  0.91183632  1
  O  O40  1  0.17844408  0.98971537  0.91359752  1
  O  O41  1  0.81586271  0.81766120  0.91423895  1
  O  O42  1  0.96441026  0.15024357  0.58663765  1
  O  O43  1  0.18962581  0.03939708  0.58895133  1
  O  O44  1  0.84673722  0.81491872  0.58769537  1
  O  O45  1  0.96441026  0.81416669  0.08663765  1
  O  O46  1  0.84673722  0.03181850  0.08769537  1
  O  O47  1  0.18962581  0.15022874  0.08895133  1
  O  O48  1  0.67557391  0.15442921  0.74613457  1
  O  O49  1  0.47307891  0.31062154  0.74636138  1
  O  O50  1  0.85089062  0.51686961  0.74753130  1
  O  O51  1  0.67557391  0.52114370  0.24613457  1
  O  O52  1  0.85089062  0.33402001  0.24753130  1
  O  O53  1  0.47307891  0.16245638  0.24636138  1
  O  O54  1  0.62805750  0.48350961  0.92106479  1
  O  O55  1  0.85681195  0.37492391  0.92101765  1
  O  O56  1  0.51171781  0.15169460  0.92060275  1
  O  O57  1  0.62805750  0.14454689  0.42106479  1
  O  O58  1  0.51171781  0.36002221  0.42060275  1
  O  O59  1  0.85681195  0.48188705  0.42101765  1
  O  O60  1  0.35342117  0.49397662  0.08024691  1
  O  O61  1  0.15096073  0.66731901  0.08084498  1
  O  O62  1  0.51151873  0.85619017  0.07899811  1
  O  O63  1  0.35342117  0.85944555  0.58024691  1
  O  O64  1  0.51151873  0.65532956  0.57899811  1
  O  O65  1  0.15096073  0.48364272  0.58084498  1
  O  O66  1  0.29557062  0.81837909  0.25542761  1
  O  O67  1  0.51754967  0.69681633  0.25502270  1
  O  O68  1  0.18550179  0.47916957  0.25252827  1
  O  O69  1  0.29557062  0.47719254  0.75542761  1
  O  O70  1  0.18550179  0.70633322  0.75252827  1
  O  O71  1  0.51754967  0.82073434  0.75502270  1
loop_
_geom_bond_atom_site_label_1
_geom_bond_atom_site_label_2
_geom_bond_distance
_geom_bond_site_symmetry_2
Na0 O36 2.430555 1_655
Na0 O44 2.439243 1_555
Na0 O37 2.530263 1_555
Na0 O43 2.634049 1_665
Na0 O42 2.677949 1_565
Na0 O38 2.685580 1_665
Na1 O39 2.430555 1_655
Na1 O46 2.439243 1_556
Na1 O41 2.530263 1_545
Na1 O47 2.634049 1_656
Na1 O45 2.677949 1_546
Na1 O40 2.685580 1_645
Na2 O50 2.517534 1_555
Na2 O49 2.523258 1_555
Na2 O54 2.561495 1_555
Na2 O48 2.561521 1_555
Na2 O56 2.562775 1_555
Na2 O55 2.582423 1_555
Na3 O52 2.517534 1_555
Na3 O53 2.523258 1_555
Na3 O57 2.561495 1_555
Na3 O51 2.561521 1_555
Na3 O58 2.562775 1_555
Na3 O59 2.582423 1_555
Na4 O61 2.497306 1_555
Na4 O68 2.516160 1_555
Na4 O60 2.528018 1_555
Na4 O62 2.579890 1_555
Na4 O67 2.589797 1_555
Na4 O66 2.602678 1_555
Na5 O65 2.497306 1_555
Na5 O70 2.516160 1_555
Na5 O63 2.528018 1_555
Na5 O64 2.579890 1_555
Na5 O71 2.589797 1_555
Na5 O69 2.602678 1_555
Na6 O68 2.412474 1_555
Na6 O51 2.421442 1_555
Na6 O53 2.455118 1_555
Na6 O17 2.608508 1_555
Na6 O67 2.658641 1_555
Na6 O32 2.768707 1_555
Na7 O52 2.386433 1_555
Na7 O66 2.444776 1_655
Na7 O51 2.531578 1_555
Na7 O15 2.561380 1_555
Na7 O30 2.715668 1_655
Na7 O68 2.789060 1_655
Na7 O1 2.917931 1_555
Na7 O11 2.934947 1_655
Na8 O50 2.386425 1_555
Na8 O69 2.444775 1_655
Na8 O48 2.531580 1_555
Na8 O12 2.561378 1_555
Na8 O33 2.715670 1_655
Na8 O70 2.789067 1_655
Na8 O5 2.917931 1_555
Na8 O7 2.934947 1_655
Na9 O70 2.412467 1_545
Na9 O48 2.421443 1_555
Na9 O49 2.455109 1_555
Na9 O13 2.608506 1_555
Na9 O71 2.658633 1_545
Na9 O34 2.768703 1_545
Na10 O65 2.371752 1_555
Na10 O43 2.432674 1_555
Na10 O64 2.524438 1_555
Na10 O28 2.621770 1_555
Na10 O42 2.735755 1_455
Na10 O7 2.832793 1_555
Na10 O14 2.937044 1_555
Na10 O21 2.971126 1_555
Na11 O42 2.429178 1_565
Na11 O64 2.462993 1_555
Na11 O63 2.481591 1_555
Na11 O27 2.485759 1_555
Na11 O6 2.668471 1_555
Na11 O44 2.677172 1_555
Na12 O61 2.371736 1_555
Na12 O47 2.432683 1_565
Na12 O62 2.524424 1_555
Na12 O26 2.621762 1_554
Na12 O45 2.735755 1_455
Na12 O11 2.832795 1_555
Na12 O16 2.937044 1_565
Na12 O18 2.971126 1_565
Na13 O45 2.429177 1_555
Na13 O62 2.463009 1_555
Na13 O60 2.481588 1_555
Na13 O24 2.485762 1_554
Na13 O9 2.668473 1_555
Na13 O46 2.677180 1_565
Na14 O41 2.387447 1_555
Na14 O55 2.429993 1_555
Na14 O4 2.487733 1_555
Na14 O40 2.513355 1_655
Na14 O54 2.774066 1_555
Na14 O19 2.836603 1_556
Na14 O33 2.995351 1_655
Na14 O26 3.014324 1_655
Na15 O54 2.422961 1_555
Na15 O40 2.426798 1_545
Na15 O39 2.479984 1_555
Na15 O3 2.600584 1_555
Na15 O56 2.622008 1_555
Na15 O18 2.816334 1_556
Na15 O35 2.994766 1_555
Na15 O25 3.005101 1_555
Na16 O37 2.387455 1_545
Na16 O59 2.429976 1_555
Na16 O2 2.487737 1_555
Na16 O38 2.513362 1_655
Na16 O57 2.774065 1_555
Na16 O23 2.836599 1_555
Na16 O30 2.995351 1_655
Na16 O28 3.014324 1_655
Na17 O57 2.422964 1_555
Na17 O38 2.426790 1_555
Na17 O36 2.479986 1_545
Na17 O0 2.600582 1_555
Na17 O58 2.621993 1_555
Na17 O21 2.816330 1_555
Na17 O31 2.994766 1_545
Na17 O29 3.005101 1_545
O0 Si0 1.626202 1_545
O0 Zr0 2.072074 1_445
O1 Si1 1.617915 1_555
O1 Zr0 2.002529 1_555
O2 Si2 1.619884 1_655
O2 Zr0 2.069039 1_545
O3 Si3 1.626202 1_555
O3 Zr1 2.072074 1_445
O4 Si4 1.619884 1_655
O4 Zr1 2.069039 1_555
O5 Si5 1.617915 1_545
O5 Zr1 2.002529 1_545
O6 Si5 1.663687 1_555
O6 Ta0 1.985371 1_555
O7 Si3 1.678432 1_555
O7 Ta0 1.999311 1_445
O8 Si4 1.678478 1_555
O8 Ta0 1.945307 1_455
O9 Si1 1.663687 1_555
O9 Ta1 1.985371 1_565
O10 Si2 1.678478 1_555
O10 Ta1 1.945307 1_455
O11 Si0 1.678432 1_555
O11 Ta1 1.999311 1_465
O12 Si6 1.620875 1_555
O12 Zr2 2.069857 1_555
O13 Si7 1.621883 1_555
O13 Zr2 2.066823 1_555
O14 Si8 1.615561 1_555
O14 Zr2 2.003645 1_555
O15 Si9 1.620875 1_555
O15 Zr3 2.069857 1_555
O16 Si10 1.615561 1_555
O16 Zr3 2.003645 1_555
O17 Si11 1.621883 1_555
O17 Zr3 2.066823 1_555
O18 Si11 1.678265 1_555
O18 Ta2 2.001819 1_554
O19 Si9 1.677124 1_555
O19 Ta2 1.995018 1_554
O20 Si10 1.666624 1_555
O20 Ta2 1.927653 1_554
O21 Si7 1.678265 1_555
O21 Ta3 2.001819 1_555
O22 Si8 1.666624 1_555
O22 Ta3 1.927653 1_555
O23 Si6 1.677124 1_555
O23 Ta3 1.995018 1_555
O24 Si12 1.614464 1_555
O24 Zr4 2.074637 1_556
O25 Si13 1.618466 1_555
O25 Zr4 2.006292 1_556
O26 Si14 1.619950 1_555
O26 Zr4 2.070373 1_556
O27 Si15 1.614464 1_555
O27 Zr5 2.074637 1_555
O28 Si16 1.619950 1_555
O28 Zr5 2.070373 1_555
O29 Si17 1.618466 1_555
O29 Zr5 2.006292 1_555
O30 Si17 1.670540 1_555
O30 Ta4 2.008130 1_555
O31 Si15 1.679498 1_555
O31 Ta4 1.942241 1_555
O32 Si16 1.669608 1_555
O32 Ta4 1.978680 1_555
O33 Si13 1.670540 1_555
O33 Ta5 2.008130 1_555
O34 Si14 1.669608 1_555
O34 Ta5 1.978680 1_555
O35 Si12 1.679498 1_555
O35 Ta5 1.942241 1_555
O36 Si17 1.623260 1_555
O36 Zr0 2.128469 1_455
O37 Si15 1.626126 1_555
O37 Zr0 2.127462 1_555
O38 Si16 1.639604 1_555
O38 Zr0 2.192496 1_445
O39 Si13 1.623269 1_555
O39 Zr1 2.128469 1_445
O40 Si14 1.639598 1_555
O40 Zr1 2.192496 1_455
O41 Si12 1.626123 1_555
O41 Zr1 2.127462 1_555
O42 Si6 1.667499 1_555
O42 Ta0 2.076669 1_545
O43 Si7 1.655853 1_555
O43 Ta0 2.041927 1_445
O44 Si8 1.645757 1_555
O44 Ta0 2.015358 1_555
O45 Si9 1.667508 1_555
O45 Ta1 2.076669 1_565
O46 Si10 1.645752 1_555
O46 Ta1 2.015358 1_555
O47 Si11 1.655848 1_555
O47 Ta1 2.041927 1_455
O48 Si5 1.634662 1_545
O48 Zr2 2.190049 1_555
O49 Si3 1.623108 1_555
O49 Zr2 2.131339 1_555
O50 Si4 1.625078 1_655
O50 Zr2 2.126734 1_555
O51 Si1 1.634671 1_555
O51 Zr3 2.190049 1_555
O52 Si2 1.625072 1_655
O52 Zr3 2.126734 1_555
O53 Si0 1.623104 1_545
O53 Zr3 2.131339 1_555
O54 Si12 1.663919 1_555
O54 Ta2 2.083568 1_555
O55 Si13 1.652974 1_655
O55 Ta2 2.032827 1_555
O56 Si14 1.653640 1_545
O56 Ta2 2.021310 1_555
O57 Si15 1.663901 1_545
O57 Ta3 2.083568 1_555
O58 Si16 1.653651 1_555
O58 Ta3 2.021310 1_555
O59 Si17 1.652983 1_655
O59 Ta3 2.032827 1_555
O60 Si11 1.621494 1_555
O60 Zr4 2.126990 1_555
O61 Si9 1.629301 1_455
O61 Zr4 2.144470 1_555
O62 Si10 1.629625 1_565
O62 Zr4 2.167976 1_555
O63 Si7 1.621476 1_565
O63 Zr5 2.126990 1_555
O64 Si8 1.629636 1_555
O64 Zr5 2.167976 1_555
O65 Si6 1.629307 1_455
O65 Zr5 2.144470 1_555
O66 Si0 1.652645 1_555
O66 Ta4 2.042424 1_555
O67 Si1 1.650112 1_555
O67 Ta4 2.004487 1_555
O68 Si2 1.663284 1_555
O68 Ta4 2.090825 1_555
O69 Si3 1.652655 1_555
O69 Ta5 2.042424 1_555
O70 Si4 1.663279 1_555
O70 Ta5 2.090825 1_555
O71 Si5 1.650108 1_555
O71 Ta5 2.004487 1_555
