# generated using pymatgen
data_EuInPt
_symmetry_space_group_name_H-M   'P 1'
_cell_length_a   4.48307334
_cell_length_b   7.43163465
_cell_length_c   8.46957144
_cell_angle_alpha   89.99951815
_cell_angle_beta   89.99999738
_cell_angle_gamma   89.99999895
_symmetry_Int_Tables_number   1
_chemical_formula_structural   EuInPt
_chemical_formula_sum   'Eu4 In4 Pt4'
_cell_volume   282.17701192
_cell_formula_units_Z   4
loop_
 _symmetry_equiv_pos_site_id
 _symmetry_equiv_pos_as_xyz
  1  'x, y, z'
loop_
 _atom_site_type_symbol
 _atom_site_label
 _atom_site_symmetry_multiplicity
 _atom_site_fract_x
 _atom_site_fract_y
 _atom_site_fract_z
 _atom_site_occupancy
  Eu  Eu0  1  0.75000005  0.46707443  0.17884473  1
  Eu  Eu1  1  0.25000010  0.03291493  0.67887703  1
  Eu  Eu2  1  0.74999993  0.96696391  0.32120182  1
  Eu  Eu3  1  0.25000006  0.53304176  0.82105765  1
  In  In0  1  0.24999997  0.64633851  0.43501232  1
  In  In1  1  0.24999992  0.14630296  0.06502409  1
  In  In2  1  0.74999999  0.35372312  0.56509725  1
  In  In3  1  0.75000005  0.85365331  0.93486697  1
  Pt  Pt0  1  0.25000005  0.76954703  0.12208000  1
  Pt  Pt1  1  0.24999989  0.26957474  0.37796542  1
  Pt  Pt2  1  0.75000005  0.73042759  0.62210856  1
  Pt  Pt3  1  0.74999993  0.23043870  0.87786417  1
loop_
_geom_bond_atom_site_label_1
_geom_bond_atom_site_label_2
_geom_bond_distance
_geom_bond_site_symmetry_2
Eu0 Pt3 3.096936 1_554
Eu0 Pt1 3.165895 1_655
Eu0 Pt1 3.165896 1_555
Eu0 Pt0 3.210687 1_555
Eu0 Pt0 3.210687 1_655
Eu1 Pt1 3.096533 1_555
Eu1 Pt3 3.165389 1_555
Eu1 Pt3 3.165389 1_455
Eu1 Pt2 3.210774 1_545
Eu1 Pt2 3.210774 1_445
Eu2 Pt2 3.095978 1_555
Eu2 Pt0 3.165628 1_555
Eu2 Pt0 3.165629 1_655
Eu2 Pt1 3.211411 1_665
Eu2 Pt1 3.211411 1_565
Eu3 Pt0 3.096677 1_556
Eu3 Pt2 3.164729 1_555
Eu3 Pt2 3.164729 1_455
Eu3 Pt3 3.211419 1_555
Eu3 Pt3 3.211419 1_455
In0 Pt0 2.804103 1_555
In0 Pt2 2.815326 1_455
In0 Pt2 2.815327 1_555
In0 Pt1 2.841356 1_555
In1 Pt1 2.804343 1_555
In1 Pt3 2.815701 1_554
In1 Pt3 2.815701 1_454
In1 Pt0 2.841304 1_545
In2 Pt3 2.802963 1_555
In2 Pt1 2.815594 1_655
In2 Pt1 2.815595 1_555
In2 Pt2 2.840871 1_555
In3 Pt2 2.802767 1_555
In3 Pt0 2.815906 1_556
In3 Pt0 2.815906 1_656
In3 Pt3 2.841443 1_565
