# generated using pymatgen
data_Na5Sc3NbSiP5O24
_symmetry_space_group_name_H-M   'P 1'
_cell_length_a   8.99756741
_cell_length_b   9.00804655
_cell_length_c   22.76439750
_cell_angle_alpha   90.02739684
_cell_angle_beta   89.98007584
_cell_angle_gamma   120.02152663
_symmetry_Int_Tables_number   1
_chemical_formula_structural   Na5Sc3NbSiP5O24
_chemical_formula_sum   'Na15 Sc9 Nb3 Si3 P15 O72'
_cell_volume   1597.52706003
_cell_formula_units_Z   3
loop_
 _symmetry_equiv_pos_site_id
 _symmetry_equiv_pos_as_xyz
  1  'x, y, z'
loop_
 _atom_site_type_symbol
 _atom_site_label
 _atom_site_symmetry_multiplicity
 _atom_site_fract_x
 _atom_site_fract_y
 _atom_site_fract_z
 _atom_site_occupancy
  Na  Na0  1  0.63621608  0.99973261  0.25088248  1
  Na  Na1  1  0.36353204  0.36377632  0.25038328  1
  Na  Na2  1  0.00044159  0.63612256  0.25060318  1
  Na  Na3  1  0.30359200  0.33664743  0.58592572  1
  Na  Na4  1  0.03212507  0.70063951  0.58459533  1
  Na  Na5  1  0.66645510  0.96419059  0.58464130  1
  Na  Na6  1  0.29855479  0.96294287  0.08155569  1
  Na  Na7  1  0.97366995  0.67367666  0.91488421  1
  Na  Na8  1  0.70135187  0.02617807  0.91366383  1
  Na  Na9  1  0.99794721  0.99791260  0.49715072  1
  Na  Na10  1  0.00443598  0.01058752  0.99823078  1
  Na  Na11  1  0.65906358  0.33181522  0.82665643  1
  Na  Na12  1  0.66669893  0.33224491  0.33492525  1
  Na  Na13  1  0.33369886  0.65912528  0.16298250  1
  Na  Na14  1  0.33691869  0.66601510  0.66820129  1
  Sc  Sc0  1  0.99912057  0.99967800  0.35418798  1
  Sc  Sc1  1  0.00972842  0.00947505  0.85046192  1
  Sc  Sc2  1  0.99656869  0.99681746  0.65227474  1
  Sc  Sc3  1  0.99379752  0.00038755  0.14630139  1
  Sc  Sc4  1  0.66462222  0.33624005  0.68774694  1
  Sc  Sc5  1  0.66829758  0.33566160  0.18243670  1
  Sc  Sc6  1  0.32879200  0.65863268  0.01797290  1
  Sc  Sc7  1  0.33680750  0.66686427  0.51541316  1
  Sc  Sc8  1  0.33382676  0.66719630  0.31970001  1
  Nb  Nb0  1  0.66418309  0.33159101  0.97900781  1
  Nb  Nb1  1  0.66836919  0.33865867  0.47901990  1
  Nb  Nb2  1  0.32987068  0.66736878  0.81246859  1
  Si  Si0  1  0.66613975  0.62691280  0.58459833  1
  Si  Si1  1  0.04597742  0.37279794  0.91753280  1
  Si  Si2  1  0.32903584  0.95548451  0.91837278  1
  P  P0  1  0.29111636  0.99954579  0.24946499  1
  P  P1  1  0.70852605  0.70908560  0.25029686  1
  P  P2  1  0.00055466  0.29132366  0.25023480  1
  P  P3  1  0.29467542  0.29477939  0.74962950  1
  P  P4  1  0.99884753  0.70589734  0.75102890  1
  P  P5  1  0.70535737  0.00012395  0.75098589  1
  P  P6  1  0.95612778  0.33432973  0.58327063  1
  P  P7  1  0.37826517  0.04421539  0.58321414  1
  P  P8  1  0.95967788  0.62633828  0.08373922  1
  P  P9  1  0.66770454  0.04124642  0.08359645  1
  P  P10  1  0.37524057  0.33593409  0.08444878  1
  P  P11  1  0.62004220  0.66526824  0.91685196  1
  P  P12  1  0.62910735  0.96260611  0.41709812  1
  P  P13  1  0.33169989  0.37054141  0.41703937  1
  P  P14  1  0.03982943  0.66802914  0.41727121  1
  O  O0  1  0.20700736  0.03215969  0.30277836  1
  O  O1  1  0.82385866  0.79063007  0.30406018  1
  O  O2  1  0.96665164  0.17604356  0.30403099  1
  O  O3  1  0.20658544  0.18369981  0.80339093  1
  O  O4  1  0.97670828  0.78898788  0.80641897  1
  O  O5  1  0.81122889  0.02115166  0.80631424  1
  O  O6  1  0.78348611  0.96855739  0.69443593  1
  O  O7  1  0.18703355  0.22011115  0.69276080  1
  O  O8  1  0.03259097  0.81518189  0.69458453  1
  O  O9  1  0.79017339  0.82360710  0.19577282  1
  O  O10  1  0.03339175  0.20967860  0.19567421  1
  O  O11  1  0.18099775  0.96765652  0.19337443  1
  O  O12  1  0.87350965  0.36593819  0.63669425  1
  O  O13  1  0.49403228  0.12314981  0.63663864  1
  O  O14  1  0.62836387  0.49744070  0.63826953  1
  O  O15  1  0.87482014  0.51800912  0.13915236  1
  O  O16  1  0.63868439  0.12546731  0.13849909  1
  O  O17  1  0.48187200  0.35639141  0.14024428  1
  O  O18  1  0.47349572  0.31024799  0.03042792  1
  O  O19  1  0.84307165  0.53179186  0.02868691  1
  O  O20  1  0.68864283  0.15918398  0.02821422  1
  O  O21  1  0.47009571  0.16258723  0.52832115  1
  O  O22  1  0.69465823  0.52470715  0.52679011  1
  O  O23  1  0.83686045  0.30421638  0.52817503  1
  O  O24  1  0.54297206  0.69973570  0.97103715  1
  O  O25  1  0.15846699  0.46210595  0.97430022  1
  O  O26  1  0.30386252  0.84487367  0.97680610  1
  O  O27  1  0.54397654  0.85423448  0.47228916  1
  O  O28  1  0.30945988  0.45519530  0.47237750  1
  O  O29  1  0.14530977  0.68938770  0.47277602  1
  O  O30  1  0.11694752  0.63500324  0.36118872  1
  O  O31  1  0.51837891  0.88374201  0.36110349  1
  O  O32  1  0.36611932  0.48142957  0.36117160  1
  O  O33  1  0.13606717  0.50443470  0.86061665  1
  O  O34  1  0.37144384  0.86474907  0.86154730  1
  O  O35  1  0.50511038  0.63333694  0.86193951  1
  O  O36  1  0.01536454  0.82352151  0.41097705  1
  O  O37  1  0.80811358  0.98341954  0.41095349  1
  O  O38  1  0.17535294  0.19103410  0.41090619  1
  O  O39  1  -0.00005578  0.17674005  0.91049444  1
  O  O40  1  0.15945796  0.97015463  0.91008832  1
  O  O41  1  0.80223180  0.81958865  0.90891803  1
  O  O42  1  0.97415380  0.17208025  0.58690264  1
  O  O43  1  0.20003804  0.03127578  0.58703396  1
  O  O44  1  0.84138793  0.81491879  0.58658491  1
  O  O45  1  0.97800054  0.80647613  0.08695649  1
  O  O46  1  0.83115094  0.02953501  0.08662438  1
  O  O47  1  0.20211045  0.16515185  0.08691506  1
  O  O48  1  0.68183457  0.15653849  0.74467294  1
  O  O49  1  0.47436004  0.31567962  0.74522218  1
  O  O50  1  0.84413889  0.52450116  0.74501188  1
  O  O51  1  0.68724452  0.52623365  0.24410783  1
  O  O52  1  0.83878882  0.31265337  0.24391284  1
  O  O53  1  0.47475404  0.16114198  0.24404366  1
  O  O54  1  0.64275748  0.50309419  0.92494234  1
  O  O55  1  0.85331993  0.36420929  0.92522486  1
  O  O56  1  0.50921635  0.14635720  0.92518662  1
  O  O57  1  0.64450356  0.14360757  0.42503695  1
  O  O58  1  0.49840197  0.35419170  0.42492653  1
  O  O59  1  0.85751836  0.49919365  0.42444233  1
  O  O60  1  0.35968766  0.49530506  0.07844487  1
  O  O61  1  0.14050239  0.64881036  0.07909107  1
  O  O62  1  0.50253659  0.86724555  0.07743135  1
  O  O63  1  0.35386868  0.86233071  0.57511183  1
  O  O64  1  0.49619774  0.64656924  0.57643476  1
  O  O65  1  0.13566753  0.49552364  0.57522433  1
  O  O66  1  0.31185010  0.83759307  0.25607069  1
  O  O67  1  0.52543766  0.68774734  0.25626334  1
  O  O68  1  0.16238163  0.47422641  0.25633666  1
  O  O69  1  0.31189461  0.47728967  0.75852436  1
  O  O70  1  0.16791389  0.69150623  0.75788998  1
  O  O71  1  0.52340343  0.83175738  0.75794483  1
loop_
_geom_bond_atom_site_label_1
_geom_bond_atom_site_label_2
_geom_bond_distance
_geom_bond_site_symmetry_2
Na0 O67 2.470613 1_555
Na0 O52 2.480340 1_565
Na0 O53 2.522474 1_565
Na0 O66 2.529695 1_555
Na0 O31 2.720961 1_555
Na0 O16 2.793921 1_565
Na0 O2 2.846284 1_565
Na0 O9 2.864604 1_555
Na1 O68 2.466872 1_555
Na1 O53 2.486293 1_555
Na1 O51 2.525893 1_555
Na1 O67 2.530312 1_555
Na1 O32 2.730788 1_555
Na1 O17 2.737393 1_555
Na1 O0 2.849914 1_555
Na1 O10 2.859451 1_555
Na2 O66 2.464058 1_555
Na2 O51 2.480273 1_455
Na2 O52 2.527441 1_455
Na2 O68 2.528547 1_555
Na2 O30 2.729245 1_555
Na2 O15 2.764517 1_455
Na2 O1 2.855200 1_455
Na2 O11 2.898765 1_555
Na3 O43 2.423024 1_555
Na3 O64 2.450111 1_555
Na3 O65 2.560233 1_555
Na3 O42 2.566559 1_455
Na3 O7 2.648714 1_555
Na3 O28 2.787611 1_555
Na3 O14 2.796834 1_555
Na3 O21 2.961351 1_555
Na4 O44 2.403073 1_455
Na4 O65 2.459550 1_555
Na4 O63 2.515788 1_555
Na4 O43 2.579460 1_565
Na4 O8 2.706852 1_555
Na4 O29 2.761918 1_555
Na4 O12 2.868830 1_455
Na4 O22 2.940815 1_455
Na5 O42 2.446720 1_565
Na5 O64 2.486288 1_555
Na5 O63 2.493418 1_555
Na5 O44 2.530876 1_555
Na5 O6 2.705120 1_555
Na5 O27 2.764825 1_555
Na5 O13 2.842232 1_565
Na5 O23 2.947538 1_565
Na6 O47 2.380582 1_565
Na6 O62 2.388177 1_555
Na6 O61 2.450709 1_555
Na6 O45 2.500490 1_455
Na6 O26 2.620672 1_554
Na6 O11 2.764608 1_555
Na6 O18 2.948656 1_565
Na6 O16 2.950764 1_565
Na7 O40 2.339164 1_655
Na7 O55 2.445210 1_555
Na7 O41 2.480834 1_555
Na7 O54 2.588498 1_555
Na7 O4 2.674019 1_555
Na7 O33 2.865558 1_655
Na7 O19 2.867754 1_556
Na7 O26 2.933922 1_655
Na8 O39 2.327304 1_655
Na8 O41 2.447189 1_545
Na8 O56 2.470124 1_555
Na8 O5 2.644682 1_555
Na8 O55 2.654079 1_555
Na8 O34 2.831052 1_545
Na8 O24 2.862324 1_545
Na8 O20 2.895241 1_556
Na9 O44 2.554249 1_555
Na9 O37 2.561979 1_555
Na9 O36 2.565887 1_655
Na9 O38 2.579007 1_665
Na9 O42 2.648489 1_565
Na9 O43 2.653014 1_665
Na10 O39 2.508841 1_555
Na10 O40 2.570987 1_545
Na10 O47 2.588340 1_556
Na10 O46 2.602479 1_456
Na10 O45 2.661265 1_446
Na10 O41 2.696459 1_445
Na11 O49 2.445349 1_555
Na11 O48 2.517661 1_555
Na11 O50 2.519673 1_555
Na11 O56 2.717961 1_555
Na11 O54 2.762437 1_555
Na11 O55 2.768878 1_555
Na12 O59 2.603435 1_555
Na12 O57 2.607454 1_555
Na12 O58 2.612810 1_555
Na12 O53 2.640888 1_555
Na12 O52 2.644248 1_555
Na12 O51 2.653656 1_555
Na13 O60 2.505621 1_555
Na13 O61 2.553024 1_555
Na13 O62 2.601324 1_555
Na13 O68 2.664301 1_555
Na13 O67 2.666241 1_555
Na13 O66 2.725150 1_555
Na14 O64 2.587907 1_555
Na14 O71 2.590529 1_555
Na14 O69 2.605495 1_555
Na14 O70 2.623056 1_555
Na14 O65 2.708169 1_555
Na14 O63 2.715648 1_555
Nb0 O56 1.975003 1_555
Nb0 O55 1.994970 1_555
Nb0 O18 2.004892 1_556
Nb0 O20 2.014695 1_556
Nb0 O19 2.053458 1_556
Nb0 O54 2.058810 1_555
Nb1 O22 1.910243 1_555
Nb1 O59 2.017125 1_555
Nb1 O58 2.022439 1_555
Nb1 O23 2.029496 1_555
Nb1 O21 2.031434 1_555
Nb1 O57 2.064949 1_555
Nb2 O33 1.958428 1_555
Nb2 O34 1.970371 1_555
Nb2 O70 2.008235 1_555
Nb2 O71 2.045875 1_555
Nb2 O69 2.046202 1_555
Nb2 O35 2.081724 1_555
O0 P0 1.534098 1_545
O0 Sc0 2.098825 1_445
O1 P1 1.533491 1_555
O1 Sc0 2.088714 1_555
O2 P2 1.534647 1_655
O2 Sc0 2.092709 1_545
O3 P3 1.527786 1_555
O3 Sc1 1.991790 1_555
O4 P4 1.529035 1_555
O4 Sc1 2.108590 1_665
O5 P5 1.532884 1_555
O5 Sc1 2.097678 1_655
O6 P5 1.559253 1_565
O6 Sc2 2.042620 1_555
O7 P3 1.553883 1_555
O7 Sc2 2.093367 1_445
O8 P4 1.553765 1_455
O8 Sc2 2.059657 1_455
O9 P1 1.544910 1_555
O9 Sc3 2.059534 1_565
O10 P2 1.545046 1_555
O10 Sc3 2.066568 1_455
O11 P0 1.552521 1_555
O11 Sc3 2.137933 1_465
O12 P6 1.524313 1_555
O12 Sc4 2.109580 1_555
O13 P7 1.525968 1_555
O13 Sc4 2.108321 1_555
O14 Si0 1.604039 1_555
O14 Sc4 1.989848 1_555
O15 P8 1.543183 1_555
O15 Sc5 2.016914 1_555
O16 P9 1.550131 1_555
O16 Sc5 2.037175 1_555
O17 P10 1.546429 1_555
O17 Sc5 2.021315 1_555
O18 P10 1.597199 1_555
O19 P8 1.581918 1_555
O20 P9 1.598271 1_555
O21 P7 1.581187 1_555
O22 Si0 1.697132 1_555
O23 P6 1.583524 1_555
O24 P11 1.520938 1_555
O24 Sc6 2.068182 1_556
O25 Si1 1.589569 1_555
O25 Sc6 1.937937 1_556
O26 Si2 1.608960 1_555
O26 Sc6 2.030101 1_556
O27 P12 1.539640 1_555
O27 Sc7 2.034499 1_555
O28 P13 1.536259 1_555
O28 Sc7 2.045683 1_555
O29 P14 1.533670 1_555
O29 Sc7 2.074413 1_555
O30 P14 1.550959 1_555
O30 Sc8 2.053469 1_555
O31 P12 1.553665 1_555
O31 Sc8 2.051549 1_555
O32 P13 1.550013 1_555
O32 Sc8 2.064990 1_555
O33 Si1 1.667578 1_555
O34 Si2 1.672654 1_555
O35 P11 1.554879 1_555
O36 P14 1.529587 1_555
O36 Sc0 2.108269 1_455
O37 P12 1.531834 1_555
O37 Sc0 2.095630 1_555
O38 P13 1.528680 1_555
O38 Sc0 2.101653 1_445
O39 Si1 1.607523 1_555
O39 Sc1 2.067915 1_555
O40 Si2 1.607186 1_555
O40 Sc1 2.064474 1_565
O41 P11 1.540137 1_555
O41 Sc1 2.233185 1_665
O42 P6 1.551322 1_555
O42 Sc2 2.251419 1_545
O43 P7 1.550996 1_555
O43 Sc2 2.254675 1_445
O44 Si0 1.638397 1_555
O44 Sc2 2.140174 1_555
O45 P8 1.548506 1_555
O45 Sc3 2.155433 1_565
O46 P9 1.527720 1_555
O46 Sc3 2.107679 1_555
O47 P10 1.548694 1_555
O47 Sc3 2.181744 1_455
O48 P5 1.532748 1_555
O48 Sc4 2.139321 1_555
O49 P3 1.534482 1_555
O49 Sc4 2.087626 1_555
O50 P4 1.533082 1_555
O50 Sc4 2.107756 1_555
O51 P1 1.566453 1_555
O51 Sc5 2.156856 1_555
O52 P2 1.567201 1_655
O52 Sc5 2.162072 1_555
O53 P0 1.567655 1_545
O53 Sc5 2.175273 1_555
O54 P11 1.583948 1_555
O55 Si1 1.705021 1_655
O56 Si2 1.679066 1_545
O57 P12 1.576072 1_545
O58 P13 1.589003 1_555
O59 P14 1.591896 1_655
O60 P10 1.516740 1_555
O60 Sc6 2.132698 1_555
O61 P8 1.539343 1_455
O61 Sc6 2.159217 1_555
O62 P9 1.534296 1_565
O62 Sc6 2.206059 1_555
O63 P7 1.551289 1_565
O63 Sc7 2.167523 1_555
O64 Si0 1.635567 1_555
O64 Sc7 2.069728 1_555
O65 P6 1.550621 1_455
O65 Sc7 2.171761 1_555
O66 P0 1.567898 1_555
O66 Sc8 2.190728 1_555
O67 P1 1.565942 1_555
O67 Sc8 2.184292 1_555
O68 P2 1.566310 1_555
O68 Sc8 2.190378 1_555
O69 P3 1.585170 1_555
O70 P4 1.597723 1_455
O71 P5 1.587774 1_565
