# generated using pymatgen
data_MgMn6O7F5
_symmetry_space_group_name_H-M   'P 1'
_cell_length_a   7.73313955
_cell_length_b   5.83893391
_cell_length_c   5.79496225
_cell_angle_alpha   68.40674960
_cell_angle_beta   71.30684924
_cell_angle_gamma   68.83132792
_symmetry_Int_Tables_number   1
_chemical_formula_structural   MgMn6O7F5
_chemical_formula_sum   'Mg1 Mn6 O7 F5'
_cell_volume   221.50657044
_cell_formula_units_Z   1
loop_
 _symmetry_equiv_pos_site_id
 _symmetry_equiv_pos_as_xyz
  1  'x, y, z'
loop_
 _atom_site_type_symbol
 _atom_site_label
 _atom_site_symmetry_multiplicity
 _atom_site_fract_x
 _atom_site_fract_y
 _atom_site_fract_z
 _atom_site_occupancy
  Mg  Mg0  1  0.49913000  0.50487600  0.98075200  1
  Mn  Mn0  1  0.84803700  0.70332500  0.69423200  1
  Mn  Mn1  1  0.68623400  0.33452600  0.36975300  1
  Mn  Mn2  1  0.27258700  0.62671200  0.59316200  1
  Mn  Mn3  1  0.16352500  0.28532400  0.31760100  1
  Mn  Mn4  1  0.49751400  0.99376900  0.99475800  1
  Mn  Mn5  1  0.00689000  0.00245300  0.00373200  1
  O  O0  1  0.66739800  0.03363900  0.65610800  1
  O  O1  1  0.33529000  0.35064200  0.91811600  1
  O  O2  1  0.96109100  0.21075900  0.25207100  1
  O  O3  1  0.03007400  0.80255300  0.76227400  1
  O  O4  1  0.40293700  0.41195900  0.37420900  1
  O  O5  1  0.32820100  0.93870900  0.33726800  1
  O  O6  1  0.66932600  0.64340400  0.06264000  1
  F  F0  1  0.31631700  0.84922600  0.89114200  1
  F  F1  1  0.66274200  0.56139200  0.62227900  1
  F  F2  1  0.69590700  0.14767600  0.07550300  1
  F  F3  1  0.02834900  0.33610500  0.70771300  1
  F  F4  1  0.01773600  0.66771400  0.30335500  1
loop_
_geom_bond_atom_site_label_1
_geom_bond_atom_site_label_2
_geom_bond_distance
_geom_bond_site_symmetry_2
Mg0 O1 1.976739 1_555
Mg0 O6 2.015790 1_556
Mg0 O4 2.083317 1_556
Mn0 O3 1.893629 1_655
Mn0 O0 1.912681 1_565
Mn0 O6 2.120938 1_556
Mn1 O0 1.935336 1_555
Mn1 O2 1.956868 1_555
Mn1 O6 2.013336 1_555
Mn1 O4 2.064350 1_555
Mn2 O4 1.907004 1_555
Mn2 O3 1.924444 1_555
Mn2 O5 1.967575 1_555
Mn2 O1 2.041117 1_555
Mn3 O2 1.944065 1_455
Mn3 O5 1.947450 1_545
Mn3 O1 2.239193 1_554
Mn3 O4 2.374570 1_555
Mn4 O0 1.965550 1_565
Mn4 O6 1.970987 1_556
Mn4 O1 1.975116 1_565
Mn4 O5 1.981355 1_556
Mn5 O3 2.059738 1_544
Mn5 O2 2.079985 1_455
F0 Mg0 1.989997 1_555
F0 Mn4 2.191501 1_555
F0 Mn5 2.198768 1_566
F1 Mg0 2.034031 1_555
F1 Mn0 2.099732 1_555
F1 Mn1 2.238695 1_555
F2 Mg0 2.089873 1_554
F2 Mn5 2.195697 1_655
F2 Mn4 2.268412 1_544
F2 Mn1 2.309124 1_555
F3 Mn0 2.082089 1_455
F3 Mn5 2.087302 1_556
F3 Mn3 2.246343 1_555
F4 Mn5 2.078235 1_565
F4 Mn3 2.090219 1_555
F4 Mn0 2.267231 1_455
