# generated using pymatgen
data_NdTiGe
_symmetry_space_group_name_H-M   'P 1'
_cell_length_a   4.11278672
_cell_length_b   4.11278672
_cell_length_c   8.04024909
_cell_angle_alpha   90.00000000
_cell_angle_beta   90.00000000
_cell_angle_gamma   90.00000000
_symmetry_Int_Tables_number   1
_chemical_formula_structural   NdTiGe
_chemical_formula_sum   'Nd2 Ti2 Ge2'
_cell_volume   136.00093078
_cell_formula_units_Z   2
loop_
 _symmetry_equiv_pos_site_id
 _symmetry_equiv_pos_as_xyz
  1  'x, y, z'
loop_
 _atom_site_type_symbol
 _atom_site_label
 _atom_site_symmetry_multiplicity
 _atom_site_fract_x
 _atom_site_fract_y
 _atom_site_fract_z
 _atom_site_occupancy
  Nd  Nd0  1  0.75000000  0.75000000  0.34871720  1
  Nd  Nd1  1  0.25000000  0.25000000  0.65128280  1
  Ti  Ti0  1  0.25000000  0.75000000  0.00000000  1
  Ti  Ti1  1  0.75000000  0.25000000  0.00000000  1
  Ge  Ge0  1  0.25000000  0.25000000  0.22568611  1
  Ge  Ge1  1  0.75000000  0.75000000  0.77431389  1
loop_
_geom_bond_atom_site_label_1
_geom_bond_atom_site_label_2
_geom_bond_distance
_geom_bond_site_symmetry_2
Ge0 Ti0 2.742522 1_555
Ge0 Ti0 2.742522 1_545
Ge0 Ti1 2.742522 1_455
Ge0 Ti1 2.742522 1_555
Ge0 Nd0 3.071811 1_555
Ge0 Nd0 3.071811 1_545
Ge0 Nd0 3.071811 1_455
Ge0 Nd0 3.071811 1_445
Ge0 Nd1 3.421903 1_555
Ge1 Ti1 2.742522 1_556
Ge1 Ti1 2.742522 1_566
Ge1 Ti0 2.742522 1_656
Ge1 Ti0 2.742522 1_556
Ge1 Nd1 3.071811 1_665
Ge1 Nd1 3.071811 1_565
Ge1 Nd1 3.071811 1_655
Ge1 Nd1 3.071811 1_555
Ge1 Nd0 3.421903 1_555
