# generated using pymatgen
data_MgSb2(RhO4)2
_symmetry_space_group_name_H-M   'P 1'
_cell_length_a   6.24998556
_cell_length_b   6.50724430
_cell_length_c   6.50724430
_cell_angle_alpha   60.77822274
_cell_angle_beta   89.96213073
_cell_angle_gamma   57.75529600
_symmetry_Int_Tables_number   1
_chemical_formula_structural   MgSb2(RhO4)2
_chemical_formula_sum   'Mg1 Sb2 Rh2 O8'
_cell_volume   182.84900748
_cell_formula_units_Z   1
loop_
 _symmetry_equiv_pos_site_id
 _symmetry_equiv_pos_as_xyz
  1  'x, y, z'
loop_
 _atom_site_type_symbol
 _atom_site_label
 _atom_site_symmetry_multiplicity
 _atom_site_fract_x
 _atom_site_fract_y
 _atom_site_fract_z
 _atom_site_occupancy
  Mg  Mg0  1  0.21880839  0.49805456  0.71686295  1
  Sb  Sb0  1  0.14223844  0.25796320  0.40020165  1
  Sb  Sb1  1  0.01308582  0.99475705  0.00784287  1
  Rh  Rh0  1  0.72038706  0.76345233  0.48383939  1
  Rh  Rh1  1  0.51222123  0.50131245  0.01353269  1
  O  O0  1  0.61058609  0.25333416  0.86392125  1
  O  O1  1  0.10230697  0.75601264  0.85831961  1
  O  O2  1  0.48781556  0.81343522  0.68754438  1
  O  O3  1  0.02974163  0.31136060  0.71524043  1
  O  O4  1  0.48781556  0.19972882  0.30125178  1
  O  O5  1  0.02974163  0.68549979  0.34110124  1
  O  O6  1  0.41530868  0.73848760  0.15379528  1
  O  O7  1  0.93232594  0.22660056  0.15892749  1
loop_
_geom_bond_atom_site_label_1
_geom_bond_atom_site_label_2
_geom_bond_distance
_geom_bond_site_symmetry_2
Mg0 O0 1.949792 1_555
Mg0 O1 2.097310 1_555
Mg0 O3 2.101600 1_555
Mg0 O5 2.101604 1_555
O0 Sb1 1.996096 1_646
O0 Rh1 2.098610 1_556
O1 Rh1 2.041739 1_556
O1 Sb1 2.054746 1_556
O2 Rh0 1.972227 1_555
O2 Rh1 2.027673 1_556
O2 Sb0 2.141542 1_565
O3 Rh0 2.066254 1_455
O3 Sb1 2.068620 1_546
O3 Sb0 2.291426 1_555
O4 Rh0 1.972228 1_545
O4 Rh1 2.027682 1_555
O4 Sb0 2.141540 1_555
O5 Rh0 2.066258 1_455
O5 Sb1 2.068613 1_555
O5 Sb0 2.291430 1_555
O6 Rh1 1.989731 1_555
O6 Sb1 1.996487 1_555
O7 Sb1 2.032826 1_645
O7 Rh1 2.080434 1_555
O7 Sb0 2.197530 1_655
