# generated using pymatgen
data_Na2LaTaSi(PO6)2
_symmetry_space_group_name_H-M   'P 1'
_cell_length_a   9.29300829
_cell_length_b   9.29300794
_cell_length_c   22.99699549
_cell_angle_alpha   90.25857485
_cell_angle_beta   89.74142509
_cell_angle_gamma   119.16045091
_symmetry_Int_Tables_number   1
_chemical_formula_structural   Na2LaTaSi(PO6)2
_chemical_formula_sum   'Na12 La6 Ta6 Si6 P12 O72'
_cell_volume   1734.28579474
_cell_formula_units_Z   6
loop_
 _symmetry_equiv_pos_site_id
 _symmetry_equiv_pos_as_xyz
  1  'x, y, z'
loop_
 _atom_site_type_symbol
 _atom_site_label
 _atom_site_symmetry_multiplicity
 _atom_site_fract_x
 _atom_site_fract_y
 _atom_site_fract_z
 _atom_site_occupancy
  Na  Na0  1  0.98167059  0.64510541  0.24204906  1
  Na  Na1  1  0.35489459  0.01832941  0.74204906  1
  Na  Na2  1  0.64298167  0.97237283  0.58275086  1
  Na  Na3  1  0.02762717  0.35701833  0.08275086  1
  Na  Na4  1  0.00558729  0.69298669  0.91535448  1
  Na  Na5  1  0.30701331  0.99441271  0.41535448  1
  Na  Na6  1  0.99087464  0.98035950  0.50099487  1
  Na  Na7  1  0.01964050  0.00912536  0.00099487  1
  Na  Na8  1  0.67606479  0.31749197  0.83545410  1
  Na  Na9  1  0.68250803  0.32393521  0.33545410  1
  Na  Na10  1  0.35969865  0.69293035  0.16794987  1
  Na  Na11  1  0.30706965  0.64030135  0.66794987  1
  La  La0  1  0.98598532  0.00797821  0.35353153  1
  La  La1  1  0.99202179  0.01401468  0.85353153  1
  La  La2  1  0.67710544  0.34459360  0.68676823  1
  La  La3  1  0.65540640  0.32289456  0.18676823  1
  La  La4  1  0.34479520  0.67834219  0.02031769  1
  La  La5  1  0.32165781  0.65520480  0.52031769  1
  Ta  Ta0  1  0.00147820  0.99788473  0.64827260  1
  Ta  Ta1  1  0.00211527  0.99852180  0.14827260  1
  Ta  Ta2  1  0.65956445  0.33029580  0.98182403  1
  Ta  Ta3  1  0.66970420  0.34043555  0.48182403  1
  Ta  Ta4  1  0.32744360  0.65414848  0.31491385  1
  Ta  Ta5  1  0.34585152  0.67255640  0.81491385  1
  Si  Si0  1  0.02243946  0.31315828  0.24758657  1
  Si  Si1  1  0.68684172  0.97756054  0.74758657  1
  Si  Si2  1  0.36506301  0.05152784  0.58553805  1
  Si  Si3  1  0.94847216  0.63493699  0.08553805  1
  Si  Si4  1  0.35162529  0.97470219  0.91610423  1
  Si  Si5  1  0.02529781  0.64837471  0.41610423  1
  P  P0  1  0.28005255  0.97205909  0.25318684  1
  P  P1  1  0.69481839  0.72297208  0.24768559  1
  P  P2  1  0.27702792  0.30518161  0.74768559  1
  P  P3  1  0.02794091  0.71994745  0.75318684  1
  P  P4  1  0.94885494  0.30085947  0.58173898  1
  P  P5  1  0.69793449  0.64713683  0.58219262  1
  P  P6  1  0.69914053  0.05114506  0.08173898  1
  P  P7  1  0.35286317  0.30206551  0.08219262  1
  P  P8  1  0.61856947  0.63569320  0.91483093  1
  P  P9  1  0.02675039  0.39006244  0.92006742  1
  P  P10  1  0.60993756  0.97324961  0.42006742  1
  P  P11  1  0.36430680  0.38143053  0.41483093  1
  O  O0  1  0.20778391  0.98472611  0.31056492  1
  O  O1  1  0.80243634  0.78275756  0.30177097  1
  O  O2  1  0.99681058  0.21406325  0.30632660  1
  O  O3  1  0.21724244  0.19756366  0.80177097  1
  O  O4  1  0.01527389  0.79221609  0.81056492  1
  O  O5  1  0.78593675  0.00318942  0.80632660  1
  O  O6  1  0.79926523  0.96591016  0.69025413  1
  O  O7  1  0.15463850  0.19702743  0.69527364  1
  O  O8  1  0.03905136  0.84380010  0.70095274  1
  O  O9  1  0.80297257  0.84536150  0.19527364  1
  O  O10  1  0.03408984  0.20073477  0.19025413  1
  O  O11  1  0.15619990  0.96094864  0.20095274  1
  O  O12  1  0.88046852  0.32396943  0.63839872  1
  O  O13  1  0.46351748  0.12693569  0.64465565  1
  O  O14  1  0.66382121  0.55214030  0.63829261  1
  O  O15  1  0.87306431  0.53648252  0.14465565  1
  O  O16  1  0.67603057  0.11953148  0.13839872  1
  O  O17  1  0.44785970  0.33617879  0.13829261  1
  O  O18  1  0.46287824  0.29230138  0.02970784  1
  O  O19  1  0.81864567  0.52078032  0.02880843  1
  O  O20  1  0.70554952  0.17044452  0.02998994  1
  O  O21  1  0.47921968  0.18135433  0.52880843  1
  O  O22  1  0.70769862  0.53712176  0.52970784  1
  O  O23  1  0.82955548  0.29445048  0.52998994  1
  O  O24  1  0.55583477  0.67030272  0.97058639  1
  O  O25  1  0.10893789  0.45777425  0.97816398  1
  O  O26  1  0.30597204  0.85445807  0.97062474  1
  O  O27  1  0.54222575  0.89106211  0.47816398  1
  O  O28  1  0.32969728  0.44416523  0.47058639  1
  O  O29  1  0.14554193  0.69402796  0.47062474  1
  O  O30  1  0.13995975  0.63006000  0.35848210  1
  O  O31  1  0.49236826  0.86441056  0.36841370  1
  O  O32  1  0.37393212  0.50115337  0.36234054  1
  O  O33  1  0.13558944  0.50763174  0.86841370  1
  O  O34  1  0.36994000  0.86004025  0.85848210  1
  O  O35  1  0.49884663  0.62606788  0.86234054  1
  O  O36  1  0.99689808  0.80499248  0.40938347  1
  O  O37  1  0.78889088  0.01256594  0.41479525  1
  O  O38  1  0.23616742  0.20217123  0.40459021  1
  O  O39  1  0.98743406  0.21110912  0.91479525  1
  O  O40  1  0.19500752  0.00310192  0.90938347  1
  O  O41  1  0.79782877  0.76383258  0.90459021  1
  O  O42  1  0.93814911  0.12505905  0.58333080  1
  O  O43  1  0.17960123  0.03951029  0.59252952  1
  O  O44  1  0.86905798  0.81050717  0.58767806  1
  O  O45  1  0.96048971  0.82039877  0.09252952  1
  O  O46  1  0.87494095  0.06185089  0.08333080  1
  O  O47  1  0.18949283  0.13094202  0.08767806  1
  O  O48  1  0.63051508  0.11650539  0.74485149  1
  O  O49  1  0.45204561  0.34009446  0.73668343  1
  O  O50  1  0.88833625  0.54618103  0.74530874  1
  O  O51  1  0.65990554  0.54795439  0.23668343  1
  O  O52  1  0.88349461  0.36948492  0.24485149  1
  O  O53  1  0.45381897  0.11166375  0.24530874  1
  O  O54  1  0.61157369  0.46280358  0.92022523  1
  O  O55  1  0.85626258  0.39378969  0.92058823  1
  O  O56  1  0.52838783  0.14862253  0.92597506  1
  O  O57  1  0.60621031  0.14373742  0.42058823  1
  O  O58  1  0.53719642  0.38842631  0.42022523  1
  O  O59  1  0.85137747  0.47161217  0.42597506  1
  O  O60  1  0.30265830  0.43288517  0.07162352  1
  O  O61  1  0.12989807  0.65183743  0.08015167  1
  O  O62  1  0.56632144  0.87306979  0.07556985  1
  O  O63  1  0.34816257  0.87010193  0.58015167  1
  O  O64  1  0.56711483  0.69734170  0.57162352  1
  O  O65  1  0.12693021  0.43367856  0.57556985  1
  O  O66  1  0.27873980  0.80112940  0.25206350  1
  O  O67  1  0.53063800  0.72857169  0.25572473  1
  O  O68  1  0.20656285  0.49066065  0.25620723  1
  O  O69  1  0.27142831  0.46936200  0.75572473  1
  O  O70  1  0.19887060  0.72126020  0.75206350  1
  O  O71  1  0.50933935  0.79343715  0.75620723  1
loop_
_geom_bond_atom_site_label_1
_geom_bond_atom_site_label_2
_geom_bond_distance
_geom_bond_site_symmetry_2
Na0 O52 2.262894 1_555
Na0 O66 2.424579 1_655
Na0 O15 2.461964 1_555
Na0 O51 2.672628 1_555
Na0 O11 2.740585 1_655
Na0 O1 2.887356 1_555
Na1 O48 2.262894 1_555
Na1 O70 2.424579 1_545
Na1 O13 2.461964 1_555
Na1 O49 2.672627 1_555
Na1 O8 2.740585 1_545
Na1 O3 2.887356 1_555
Na2 O64 2.309695 1_555
Na2 O42 2.396829 1_565
Na2 O63 2.424161 1_555
Na2 O27 2.558716 1_555
Na3 O60 2.309695 1_555
Na3 O46 2.396829 1_455
Na3 O61 2.424161 1_555
Na3 O25 2.558716 1_554
Na4 O41 2.338129 1_455
Na4 O55 2.431558 1_455
Na4 O40 2.545689 1_565
Na4 O4 2.569631 1_555
Na4 O33 2.755224 1_555
Na4 O26 2.755428 1_555
Na5 O38 2.338129 1_565
Na5 O57 2.431558 1_565
Na5 O36 2.545689 1_455
Na5 O0 2.569631 1_555
Na5 O31 2.755224 1_555
Na5 O29 2.755427 1_555
Na6 O44 2.452255 1_555
Na6 O42 2.498853 1_565
Na6 O43 2.625377 1_665
Na6 O36 2.674773 1_555
Na6 O37 2.851122 1_565
Na7 O47 2.452255 1_555
Na7 O46 2.498853 1_455
Na7 O45 2.625377 1_445
Na7 O40 2.674773 1_554
Na7 O39 2.851122 1_454
Na8 O55 2.449496 1_555
Na8 O56 2.566037 1_555
Na8 O54 2.595681 1_555
Na8 O48 2.685414 1_555
Na8 O50 2.936474 1_555
Na9 O57 2.449496 1_555
Na9 O59 2.566037 1_555
Na9 O58 2.595681 1_555
Na9 O52 2.685414 1_555
Na9 O53 2.936474 1_555
Na10 O66 2.454652 1_555
Na10 O67 2.493574 1_555
Na10 O68 2.660733 1_555
Na10 O62 2.804552 1_555
Na10 O61 2.832019 1_555
Na11 O70 2.454652 1_555
Na11 O69 2.493574 1_555
Na11 O71 2.660733 1_555
Na11 O65 2.804552 1_555
Na11 O63 2.832019 1_555
La0 O2 2.164812 1_555
La0 O1 2.285549 1_545
La0 O37 2.322453 1_555
La0 O36 2.329767 1_545
La0 O0 2.384367 1_645
La0 O38 2.440816 1_655
La1 O5 2.164812 1_555
La1 O3 2.285549 1_655
La1 O39 2.322453 1_555
La1 O40 2.329767 1_655
La1 O4 2.384367 1_645
La1 O41 2.440816 1_545
La2 O13 2.248586 1_555
La2 O12 2.275455 1_555
La2 O14 2.287072 1_555
La2 O49 2.363740 1_555
La2 O48 2.364418 1_555
La2 O50 2.364864 1_555
La3 O15 2.248586 1_555
La3 O16 2.275455 1_555
La3 O17 2.287072 1_555
La3 O51 2.363740 1_555
La3 O52 2.364419 1_555
La3 O53 2.364864 1_555
La4 O26 2.170431 1_554
La4 O24 2.298176 1_554
La4 O61 2.332622 1_555
La4 O62 2.345137 1_555
La4 O25 2.359736 1_554
La4 O60 2.428631 1_555
La5 O29 2.170431 1_555
La5 O28 2.298176 1_555
La5 O63 2.332622 1_555
La5 O65 2.345137 1_555
La5 O27 2.359736 1_555
La5 O64 2.428631 1_555
O0 P0 1.507872 1_555
O1 P1 1.522964 1_555
O2 Si0 1.588751 1_655
O3 P2 1.522964 1_555
O4 P3 1.507872 1_555
O5 Si1 1.588751 1_545
O6 Si1 1.714092 1_555
O6 Ta0 1.998430 1_655
O7 P2 1.626040 1_555
O7 Ta0 2.011943 1_545
O8 P3 1.635199 1_555
O8 Ta0 2.036342 1_555
O9 P1 1.626040 1_555
O9 Ta1 2.011943 1_655
O10 Si0 1.714092 1_555
O10 Ta1 1.998430 1_545
O11 P0 1.635199 1_555
O11 Ta1 2.036342 1_555
O12 P4 1.506926 1_555
O13 Si2 1.598221 1_555
O14 P5 1.509350 1_555
O15 Si3 1.598221 1_555
O16 P6 1.506926 1_555
O17 P7 1.509350 1_555
O18 P7 1.608908 1_555
O18 Ta2 2.008625 1_554
O19 Si3 1.742829 1_555
O19 Ta2 1.983285 1_554
O20 P6 1.611164 1_555
O20 Ta2 2.062528 1_554
O21 Si2 1.742829 1_555
O21 Ta3 1.983285 1_555
O22 P5 1.608907 1_555
O22 Ta3 2.008625 1_555
O23 P4 1.611164 1_555
O23 Ta3 2.062528 1_555
O24 P8 1.503210 1_555
O25 P9 1.515779 1_555
O26 Si4 1.595784 1_555
O27 P10 1.515779 1_555
O28 P11 1.503210 1_555
O29 Si5 1.595784 1_555
O30 Si5 1.755652 1_555
O30 Ta4 1.922434 1_555
O31 P10 1.597420 1_555
O31 Ta4 2.181198 1_555
O32 P11 1.617762 1_555
O32 Ta4 2.003624 1_555
O33 P9 1.597420 1_555
O33 Ta5 2.181198 1_555
O34 Si4 1.755652 1_555
O34 Ta5 1.922434 1_555
O35 P8 1.617762 1_555
O35 Ta5 2.003624 1_555
O36 Si5 1.608915 1_655
O37 P10 1.523242 1_545
O38 P11 1.521313 1_555
O39 P9 1.523242 1_655
O40 Si4 1.608915 1_545
O41 P8 1.521313 1_555
O42 P4 1.588198 1_555
O42 Ta0 2.162218 1_645
O43 Si2 1.678945 1_555
O43 Ta0 1.973399 1_545
O44 P5 1.580203 1_555
O44 Ta0 2.096105 1_655
O45 Si3 1.678945 1_555
O45 Ta1 1.973399 1_655
O46 P6 1.588198 1_555
O46 Ta1 2.162218 1_645
O47 P7 1.580203 1_555
O47 Ta1 2.096105 1_545
O48 Si1 1.613961 1_545
O49 P2 1.515710 1_555
O50 P3 1.510448 1_655
O51 P1 1.515710 1_555
O52 Si0 1.613961 1_655
O53 P0 1.510448 1_545
O54 P8 1.581431 1_555
O54 Ta2 2.068473 1_555
O55 P9 1.601498 1_655
O55 Ta2 2.146106 1_555
O56 Si4 1.665796 1_545
O56 Ta2 1.993707 1_555
O57 P10 1.601498 1_545
O57 Ta3 2.146106 1_555
O58 P11 1.581431 1_555
O58 Ta3 2.068473 1_555
O59 Si5 1.665796 1_655
O59 Ta3 1.993707 1_555
O60 P7 1.520238 1_555
O61 Si3 1.619514 1_455
O62 P6 1.513635 1_565
O63 Si2 1.619514 1_565
O64 P5 1.520239 1_555
O65 P4 1.513635 1_455
O66 P0 1.582637 1_555
O66 Ta4 2.187645 1_555
O67 P1 1.561882 1_555
O67 Ta4 2.146943 1_555
O68 Si0 1.713937 1_555
O68 Ta4 1.929985 1_555
O69 P2 1.561882 1_555
O69 Ta5 2.146943 1_555
O70 P3 1.582637 1_555
O70 Ta5 2.187645 1_555
O71 Si1 1.713936 1_555
O71 Ta5 1.929985 1_555
