# generated using pymatgen
data_Ag2Se
_symmetry_space_group_name_H-M   'P 1'
_cell_length_a   3.96881800
_cell_length_b   4.58224100
_cell_length_c   7.34844300
_cell_angle_alpha   90.00000000
_cell_angle_beta   90.00000000
_cell_angle_gamma   90.00000000
_symmetry_Int_Tables_number   1
_chemical_formula_structural   Ag2Se
_chemical_formula_sum   'Ag4 Se2'
_cell_volume   133.63937640
_cell_formula_units_Z   2
loop_
 _symmetry_equiv_pos_site_id
 _symmetry_equiv_pos_as_xyz
  1  'x, y, z'
loop_
 _atom_site_type_symbol
 _atom_site_label
 _atom_site_symmetry_multiplicity
 _atom_site_fract_x
 _atom_site_fract_y
 _atom_site_fract_z
 _atom_site_occupancy
  Ag  Ag0  1  0.50000000  0.00000000  0.10289600  1
  Ag  Ag1  1  0.00000000  0.50000000  0.61199200  1
  Ag  Ag2  1  0.50000000  0.50000000  0.89710400  1
  Ag  Ag3  1  0.00000000  0.00000000  0.38800800  1
  Se  Se0  1  0.50000000  0.50000000  0.29445100  1
  Se  Se1  1  0.50000000  0.00000000  0.70554900  1
loop_
_geom_bond_atom_site_label_1
_geom_bond_atom_site_label_2
_geom_bond_distance
_geom_bond_site_symmetry_2
Ag0 Se0 2.688988 1_545
Ag0 Se0 2.688988 1_555
Ag0 Ag2 2.745202 1_554
Ag0 Ag2 2.745202 1_544
Ag0 Ag3 2.885731 1_655
Ag0 Ag3 2.885731 1_555
Ag0 Se1 2.919882 1_554
Ag1 Ag3 2.821051 1_565
Ag1 Ag3 2.821051 1_555
Ag1 Ag2 2.885731 1_555
Ag1 Ag2 2.885731 1_455
Ag1 Se0 3.063133 1_455
Ag1 Se0 3.063133 1_555
Ag1 Se1 3.108016 1_555
Ag1 Se1 3.108016 1_465
Ag1 Se1 3.108016 1_565
Ag1 Se1 3.108016 1_455
Ag2 Se1 2.688988 1_555
Ag2 Se1 2.688988 1_565
Ag2 Se0 2.919882 1_556
Ag3 Se1 3.063133 1_455
Ag3 Se1 3.063133 1_555
Ag3 Se0 3.108016 1_445
Ag3 Se0 3.108016 1_455
Ag3 Se0 3.108016 1_545
Ag3 Se0 3.108016 1_555
