# generated using pymatgen
data_RbCaCl3
_symmetry_space_group_name_H-M   'P 1'
_cell_length_a   7.52422689
_cell_length_b   7.52422655
_cell_length_c   7.52422610
_cell_angle_alpha   60.71561496
_cell_angle_beta   60.71562049
_cell_angle_gamma   60.71560614
_symmetry_Int_Tables_number   1
_chemical_formula_structural   RbCaCl3
_chemical_formula_sum   'Rb2 Ca2 Cl6'
_cell_volume   306.07534446
_cell_formula_units_Z   2
loop_
 _symmetry_equiv_pos_site_id
 _symmetry_equiv_pos_as_xyz
  1  'x, y, z'
loop_
 _atom_site_type_symbol
 _atom_site_label
 _atom_site_symmetry_multiplicity
 _atom_site_fract_x
 _atom_site_fract_y
 _atom_site_fract_z
 _atom_site_occupancy
  Rb  Rb0  1  0.25709538  0.25709538  0.25709538  1
  Rb  Rb1  1  0.75709538  0.75709538  0.75709538  1
  Ca  Ca0  1  0.00593706  0.00593706  0.00593706  1
  Ca  Ca1  1  0.50593706  0.50593706  0.50593706  1
  Cl  Cl0  1  0.25421457  0.81525811  0.69599487  1
  Cl  Cl1  1  0.81525811  0.69599487  0.25421457  1
  Cl  Cl2  1  0.69599487  0.25421457  0.81525811  1
  Cl  Cl3  1  0.19599487  0.31525811  0.75421457  1
  Cl  Cl4  1  0.75421457  0.19599487  0.31525811  1
  Cl  Cl5  1  0.31525811  0.75421457  0.19599487  1
loop_
_geom_bond_atom_site_label_1
_geom_bond_atom_site_label_2
_geom_bond_distance
_geom_bond_site_symmetry_2
Ca0 Cl5 2.709792 1_545
Ca0 Cl4 2.709792 1_455
Ca0 Cl3 2.709792 1_554
Ca0 Cl2 2.715883 1_454
Ca0 Cl0 2.715883 1_544
Ca0 Cl1 2.715883 1_445
Ca1 Cl2 2.709792 1_555
Ca1 Cl0 2.709792 1_555
Ca1 Cl1 2.709793 1_555
Ca1 Cl5 2.715883 1_555
Ca1 Cl4 2.715883 1_555
Ca1 Cl3 2.715884 1_555
Cl0 Rb0 3.349401 1_565
Cl0 Rb1 3.757132 1_455
Cl0 Rb1 3.821640 1_555
Cl1 Rb0 3.349400 1_655
Cl1 Rb1 3.757131 1_554
Cl1 Rb1 3.821640 1_555
Cl2 Rb0 3.349401 1_556
Cl2 Rb1 3.757131 1_545
Cl2 Rb1 3.821640 1_555
Cl3 Rb1 3.349400 1_455
Cl3 Rb0 3.757131 1_555
Cl3 Rb0 3.821640 1_556
Cl4 Rb1 3.349401 1_545
Cl4 Rb0 3.757131 1_555
Cl4 Rb0 3.821640 1_655
Cl5 Rb1 3.349401 1_554
Cl5 Rb0 3.757131 1_555
Cl5 Rb0 3.821640 1_565
