# generated using pymatgen
data_Na4Mg(WO4)2
_symmetry_space_group_name_H-M   'P 1'
_cell_length_a   6.60101858
_cell_length_b   6.59646438
_cell_length_c   6.59646438
_cell_angle_alpha   60.04897321
_cell_angle_beta   59.97715912
_cell_angle_gamma   59.97715912
_symmetry_Int_Tables_number   1
_chemical_formula_structural   Na4Mg(WO4)2
_chemical_formula_sum   'Na4 Mg1 W2 O8'
_cell_volume   203.10880380
_cell_formula_units_Z   1
loop_
 _symmetry_equiv_pos_site_id
 _symmetry_equiv_pos_as_xyz
  1  'x, y, z'
loop_
 _atom_site_type_symbol
 _atom_site_label
 _atom_site_symmetry_multiplicity
 _atom_site_fract_x
 _atom_site_fract_y
 _atom_site_fract_z
 _atom_site_occupancy
  Na  Na0  1  0.01941900  0.02016400  0.44099700  1
  Na  Na1  1  0.01941900  0.44099700  0.02016400  1
  Na  Na2  1  0.44320700  0.01918800  0.01918800  1
  Na  Na3  1  0.01841700  0.01918800  0.01918800  1
  Mg  Mg0  1  0.87631900  0.87368100  0.87368100  1
  W  W0  1  0.37490900  0.37509100  0.37509100  1
  W  W1  1  0.62574400  0.62425600  0.62425600  1
  O  O0  1  0.26255700  0.26201800  0.71286900  1
  O  O1  1  0.26255700  0.71286900  0.26201800  1
  O  O2  1  0.71275800  0.26254600  0.26254600  1
  O  O3  1  0.26215100  0.26254600  0.26254600  1
  O  O4  1  0.75116500  0.75167300  0.24599800  1
  O  O5  1  0.75116500  0.24599800  0.75167300  1
  O  O6  1  0.24780200  0.74989300  0.74989300  1
  O  O7  1  0.75241100  0.74989300  0.74989300  1
loop_
_geom_bond_atom_site_label_1
_geom_bond_atom_site_label_2
_geom_bond_distance
_geom_bond_site_symmetry_2
Na0 O2 2.303509 1_455
Na0 O3 2.303520 1_555
Na0 O1 2.305786 1_545
Na0 O5 2.516339 1_455
Na0 O6 2.521933 1_545
Na0 O7 2.521933 1_445
Na1 O2 2.303509 1_455
Na1 O3 2.303520 1_555
Na1 O0 2.305786 1_554
Na1 O4 2.516339 1_455
Na1 O6 2.521933 1_554
Na1 O7 2.521933 1_454
Na2 O3 2.305591 1_555
Na2 O1 2.310544 1_545
Na2 O0 2.310544 1_554
Na2 O5 2.510457 1_554
Na2 O4 2.510457 1_545
Na2 O7 2.524188 1_544
Na3 O2 2.305589 1_455
Na3 O1 2.310548 1_545
Na3 O0 2.310548 1_554
Na3 O4 2.510452 1_445
Na3 O5 2.510452 1_454
Na3 O6 2.524189 1_544
Mg0 O6 2.001249 1_655
Mg0 O7 2.001254 1_555
Mg0 O5 2.005827 1_565
Mg0 O4 2.005827 1_556
Mg0 Na1 2.331080 1_656
Mg0 Na0 2.331080 1_665
Mg0 Na2 2.333274 1_566
Mg0 Na3 2.333274 1_666
O0 W0 1.819739 1_555
O1 W0 1.819739 1_555
O2 W0 1.820057 1_555
O3 W0 1.820051 1_555
O4 W1 2.037838 1_555
O5 W1 2.037838 1_555
O6 W1 2.036053 1_555
O7 W1 2.036047 1_555
