# generated using pymatgen
data_Na14Mg5Si6Sn3(SO8)6
_symmetry_space_group_name_H-M   'P 1'
_cell_length_a   18.20811058
_cell_length_b   9.08137788
_cell_length_c   22.31465174
_cell_angle_alpha   90.19896820
_cell_angle_beta   89.77314584
_cell_angle_gamma   120.26197682
_symmetry_Int_Tables_number   1
_chemical_formula_structural   Na14Mg5Si6Sn3(SO8)6
_chemical_formula_sum   'Na42 Mg15 Si18 Sn9 S18 O144'
_cell_volume   3186.99071561
_cell_formula_units_Z   3
loop_
 _symmetry_equiv_pos_site_id
 _symmetry_equiv_pos_as_xyz
  1  'x, y, z'
loop_
 _atom_site_type_symbol
 _atom_site_label
 _atom_site_symmetry_multiplicity
 _atom_site_fract_x
 _atom_site_fract_y
 _atom_site_fract_z
 _atom_site_occupancy
  Na  Na0  1  0.19513095  0.36577082  0.24830437  1
  Na  Na1  1  0.68981946  0.36105593  0.24796539  1
  Na  Na2  1  0.99719715  0.64626940  0.25103114  1
  Na  Na3  1  0.49530009  0.63792865  0.24285230  1
  Na  Na4  1  0.31607328  0.63324924  0.74695114  1
  Na  Na5  1  0.81507061  0.62899501  0.73796241  1
  Na  Na6  1  0.19136917  0.02186652  0.74757628  1
  Na  Na7  1  0.69415432  0.02390536  0.74773550  1
  Na  Na8  1  0.15204743  0.32553516  0.57873407  1
  Na  Na9  1  0.66367605  0.34424565  0.58062504  1
  Na  Na10  1  0.01177462  0.69844163  0.57997268  1
  Na  Na11  1  0.52217267  0.70411466  0.58193255  1
  Na  Na12  1  0.32391501  0.97051086  0.59004278  1
  Na  Na13  1  0.82334389  0.95430680  0.58951787  1
  Na  Na14  1  0.15474624  0.97833597  0.08130309  1
  Na  Na15  1  0.64689045  0.96229824  0.07708181  1
  Na  Na16  1  0.82266118  0.67866453  0.08990845  1
  Na  Na17  1  0.02004164  0.33820658  0.08152740  1
  Na  Na18  1  0.52258458  0.35066182  0.08712653  1
  Na  Na19  1  0.49180922  0.68041875  0.92325828  1
  Na  Na20  1  0.98935695  0.67785717  0.91779555  1
  Na  Na21  1  0.84476691  0.03203725  0.90765341  1
  Na  Na22  1  0.16321820  0.28244835  0.91091671  1
  Na  Na23  1  0.66542172  0.27851505  0.91613086  1
  Na  Na24  1  0.49207347  0.30556563  0.41880030  1
  Na  Na25  1  0.98865257  0.30022129  0.42108715  1
  Na  Na26  1  0.16572491  0.05253826  0.41641087  1
  Na  Na27  1  0.66709415  0.05308668  0.41620114  1
  Na  Na28  1  0.34755607  0.65807918  0.40730183  1
  Na  Na29  1  0.84618824  0.65447592  0.41762398  1
  Na  Na30  1  0.00382910  -0.00009150  0.50082860  1
  Na  Na31  1  0.51259942  0.01755611  0.49740309  1
  Na  Na32  1  0.00844991  0.00523446  0.99708204  1
  Na  Na33  1  0.50183088  0.99257769  0.00024656  1
  Na  Na34  1  0.33131109  0.30669242  0.82740125  1
  Na  Na35  1  0.82693425  0.31095866  0.82609382  1
  Na  Na36  1  0.32464338  0.32979228  0.32592671  1
  Na  Na37  1  0.82131921  0.32699009  0.32870682  1
  Na  Na38  1  0.18455975  0.67840264  0.16493298  1
  Na  Na39  1  0.66639135  0.66887231  0.16322943  1
  Na  Na40  1  0.16446902  0.66849103  0.66624529  1
  Na  Na41  1  0.67426615  0.67003931  0.66290589  1
  Mg  Mg0  1  0.00539783  0.00345808  0.34838402  1
  Mg  Mg1  1  0.50590578  0.00457714  0.34670493  1
  Mg  Mg2  1  0.00478736  0.00894756  0.84654187  1
  Mg  Mg3  1  0.50356335  0.01054752  0.85010015  1
  Mg  Mg4  1  0.32709422  0.31093155  0.68727150  1
  Mg  Mg5  1  0.82417159  0.32031780  0.68421609  1
  Mg  Mg6  1  0.32961261  0.34348207  0.18550373  1
  Mg  Mg7  1  0.82306458  0.33108052  0.18687626  1
  Mg  Mg8  1  0.81913096  0.31100720  0.98395416  1
  Mg  Mg9  1  0.32142693  0.32754273  0.48312839  1
  Mg  Mg10  1  0.81970927  0.33935584  0.48772968  1
  Mg  Mg11  1  0.17184725  0.67126888  0.01773344  1
  Mg  Mg12  1  0.65935932  0.66370516  0.02028941  1
  Mg  Mg13  1  0.16384259  0.66454496  0.51712923  1
  Mg  Mg14  1  0.67154145  0.66329310  0.52054675  1
  Si  Si0  1  0.15279238  0.00121113  0.25327312  1
  Si  Si1  1  0.65126682  0.99925063  0.25369356  1
  Si  Si2  1  0.35605361  0.71103433  0.25371911  1
  Si  Si3  1  0.85547853  0.70811234  0.25192041  1
  Si  Si4  1  0.14875309  0.29978686  0.75203465  1
  Si  Si5  1  0.65006621  0.30130678  0.75522786  1
  Si  Si6  1  0.35704469  0.00606587  0.75231756  1
  Si  Si7  1  0.85653000  0.01039375  0.75407570  1
  Si  Si8  1  0.18467890  0.03139090  0.58315925  1
  Si  Si9  1  0.68203845  0.03030400  0.58354343  1
  Si  Si10  1  0.83615535  0.63184726  0.58460797  1
  Si  Si11  1  0.47798826  0.62041170  0.08462318  1
  Si  Si12  1  0.18250695  0.33905166  0.08658228  1
  Si  Si13  1  0.68381996  0.33532465  0.08372978  1
  Si  Si14  1  0.16586342  0.95963963  0.92051147  1
  Si  Si15  1  0.66538937  0.96114352  0.91844674  1
  Si  Si16  1  0.16496578  0.37095954  0.41909917  1
  Si  Si17  1  0.66378212  0.36882919  0.41801603  1
  Sn  Sn0  1  0.00010344  0.00551840  0.65085733  1
  Sn  Sn1  1  0.50582499  0.01946705  0.65548291  1
  Sn  Sn2  1  0.00531042  0.99707466  0.15512550  1
  Sn  Sn3  1  0.50153821  0.97941940  0.14962982  1
  Sn  Sn4  1  0.32566629  0.32362706  0.98742883  1
  Sn  Sn5  1  0.17710617  0.67657133  0.31337942  1
  Sn  Sn6  1  0.67585908  0.67352512  0.31249392  1
  Sn  Sn7  1  0.17221708  0.67806773  0.81361519  1
  Sn  Sn8  1  0.67148184  0.67478388  0.81353704  1
  S  S0  1  0.99788025  0.29437350  0.25125551  1
  S  S1  1  0.49757691  0.28985269  0.25138676  1
  S  S2  1  -0.00001522  0.70302064  0.75211090  1
  S  S3  1  0.49844032  0.70203359  0.75080535  1
  S  S4  1  0.47604043  0.33367740  0.58232606  1
  S  S5  1  0.97858239  0.33638011  0.58218533  1
  S  S6  1  0.33540401  0.62849442  0.58329058  1
  S  S7  1  0.97839521  0.62153571  0.08252044  1
  S  S8  1  0.33340552  0.03923761  0.08518568  1
  S  S9  1  0.83711561  0.04600757  0.08319476  1
  S  S10  1  0.31472494  0.66754338  0.91740401  1
  S  S11  1  0.81577053  0.66680904  0.91948896  1
  S  S12  1  0.02009785  0.37671455  0.91901156  1
  S  S13  1  0.51846490  0.37224144  0.91773716  1
  S  S14  1  0.31551160  0.96535620  0.41990100  1
  S  S15  1  0.81560553  0.96584771  0.41855890  1
  S  S16  1  0.01991346  0.66323728  0.41695865  1
  S  S17  1  0.51931519  0.66307500  0.41905593  1
  O  O0  1  0.10699600  0.03291213  0.30935788  1
  O  O1  1  0.60856670  0.03185100  0.31137875  1
  O  O2  1  0.40761918  0.79809986  0.31429166  1
  O  O3  1  0.91153491  0.80208197  0.30988975  1
  O  O4  1  0.48894313  0.19139387  0.30564158  1
  O  O5  1  0.98651529  0.19055660  0.30408259  1
  O  O6  1  0.10929400  0.18071899  0.81008245  1
  O  O7  1  0.60621407  0.17716908  0.81077446  1
  O  O8  1  0.48580035  0.78085179  0.80433916  1
  O  O9  1  0.98829146  0.78396197  0.80594767  1
  O  O10  1  0.41120664  0.00589281  0.80724903  1
  O  O11  1  0.90593390  0.01372215  0.81418785  1
  O  O12  1  0.39179761  0.95521227  0.68785560  1
  O  O13  1  0.89438095  0.96060000  0.69345165  1
  O  O14  1  0.09196581  0.21945897  0.68981570  1
  O  O15  1  0.59575482  0.23263235  0.69076620  1
  O  O16  1  0.01835835  0.81353943  0.69752333  1
  O  O17  1  0.51550679  0.81242196  0.69539588  1
  O  O18  1  0.39619746  0.83493385  0.19414381  1
  O  O19  1  0.89466293  0.82429358  0.18815109  1
  O  O20  1  0.01562466  0.22049878  0.19527722  1
  O  O21  1  0.51393308  0.21475150  0.19649707  1
  O  O22  1  0.09037215  0.94790314  0.19098717  1
  O  O23  1  0.59112557  0.95279933  0.19214668  1
  O  O24  1  0.43529250  0.35760670  0.63514378  1
  O  O25  1  0.93782266  0.35766366  0.63514188  1
  O  O26  1  0.24439078  0.11442069  0.64120802  1
  O  O27  1  0.73892313  0.10998090  0.64264900  1
  O  O28  1  0.32571357  0.52770542  0.63725466  1
  O  O29  1  0.82518736  0.51841175  0.64315028  1
  O  O30  1  0.43454705  0.49738986  0.14084220  1
  O  O31  1  0.93914992  0.51973021  0.13664433  1
  O  O32  1  0.31870845  0.12173085  0.13612937  1
  O  O33  1  0.82785721  0.13165536  0.13571057  1
  O  O34  1  0.23554043  0.35278726  0.14434973  1
  O  O35  1  0.74339449  0.37014528  0.14163969  1
  O  O36  1  0.21654968  0.28459076  0.02459591  1
  O  O37  1  0.71956492  0.28721547  0.02415981  1
  O  O38  1  0.42206300  0.53600636  0.02020163  1
  O  O39  1  0.92723504  0.53997560  0.02811114  1
  O  O40  1  0.35020777  0.14481706  0.02826286  1
  O  O41  1  0.85290325  0.14982749  0.02791798  1
  O  O42  1  0.22232174  0.14734708  0.52302568  1
  O  O43  1  0.71764811  0.14709400  0.52358307  1
  O  O44  1  0.34920667  0.55030559  0.52901073  1
  O  O45  1  0.85955648  0.56279952  0.52377932  1
  O  O46  1  0.42569924  0.30844678  0.52711920  1
  O  O47  1  0.92897347  0.31084368  0.52655336  1
  O  O48  1  0.27090902  0.68466081  0.96958315  1
  O  O49  1  0.77333079  0.69136039  0.97152947  1
  O  O50  1  0.07428696  0.45683607  0.97203863  1
  O  O51  1  0.57077043  0.45195567  0.97130250  1
  O  O52  1  0.15213367  0.84177798  0.97794346  1
  O  O53  1  0.65406926  0.84108245  0.97470287  1
  O  O54  1  0.27341356  0.85640304  0.47228824  1
  O  O55  1  0.77388638  0.85794620  0.47102444  1
  O  O56  1  0.15158506  0.46351736  0.47670434  1
  O  O57  1  0.64708941  0.46003041  0.47437225  1
  O  O58  1  0.07449058  0.69224828  0.46954851  1
  O  O59  1  0.57403995  0.69074193  0.47130385  1
  O  O60  1  0.06108876  0.64033218  0.36140051  1
  O  O61  1  0.55774738  0.63581413  0.36314183  1
  O  O62  1  0.25879071  0.89238522  0.36550350  1
  O  O63  1  0.75918615  0.89171115  0.36399355  1
  O  O64  1  0.18154048  0.49439804  0.35799067  1
  O  O65  1  0.68191864  0.49288338  0.35654955  1
  O  O66  1  0.06057116  0.48489755  0.86445738  1
  O  O67  1  0.55861091  0.48391254  0.86374901  1
  O  O68  1  0.17910886  0.87473472  0.85762264  1
  O  O69  1  0.68154051  0.87284419  0.85635724  1
  O  O70  1  0.26070278  0.63174608  0.86175956  1
  O  O71  1  0.76146599  0.63056811  0.86412908  1
  O  O72  1  0.00932760  0.81449246  0.41224136  1
  O  O73  1  0.50819129  0.81395698  0.41423967  1
  O  O74  1  0.39871435  0.97614654  0.41203153  1
  O  O75  1  0.89903030  0.97594606  0.41045689  1
  O  O76  1  0.07811635  0.18272390  0.41299221  1
  O  O77  1  0.57714574  0.18025510  0.41203427  1
  O  O78  1  0.00944129  0.20399662  0.91322260  1
  O  O79  1  0.50949868  0.20279803  0.91141654  1
  O  O80  1  0.08105700  0.97923421  0.91421399  1
  O  O81  1  0.57883265  0.97459274  0.91339081  1
  O  O82  1  0.40008240  0.81507476  0.91132664  1
  O  O83  1  0.90072929  0.82286544  0.91270755  1
  O  O84  1  0.48224585  0.17197363  0.58638314  1
  O  O85  1  0.98803534  0.17930206  0.58567825  1
  O  O86  1  0.08885435  0.01740440  0.59007102  1
  O  O87  1  0.58174361  0.01215320  0.59013623  1
  O  O88  1  0.41289602  0.80440385  0.58647253  1
  O  O89  1  0.92212579  0.83167867  0.58871101  1
  O  O90  1  0.48771596  0.81317506  0.08344135  1
  O  O91  1  0.98463616  0.79579874  0.08537608  1
  O  O92  1  0.41189178  0.02851728  0.08911774  1
  O  O93  1  0.91524487  0.02627042  0.08741964  1
  O  O94  1  0.08285198  0.15397343  0.08937352  1
  O  O95  1  0.58334603  0.16410208  0.09147775  1
  O  O96  1  0.34344644  0.16687061  0.74687734  1
  O  O97  1  0.84339191  0.17124578  0.74655972  1
  O  O98  1  0.24552152  0.33532042  0.74358464  1
  O  O99  1  0.74510445  0.33096806  0.74848602  1
  O  O100  1  0.42223388  0.53536348  0.74113494  1
  O  O101  1  0.92511225  0.53493962  0.74444416  1
  O  O102  1  0.34809265  0.52487480  0.24823811  1
  O  O103  1  0.85109398  0.52541142  0.24527867  1
  O  O104  1  0.42383875  0.31271734  0.24559611  1
  O  O105  1  0.92503729  0.31794345  0.24218152  1
  O  O106  1  0.24482669  0.16463453  0.24394159  1
  O  O107  1  0.74428459  0.16329113  0.24544488  1
  O  O108  1  0.32144540  0.50772585  0.92034413  1
  O  O109  1  0.82802055  0.51727389  0.92448553  1
  O  O110  1  0.43312893  0.36076693  0.92159606  1
  O  O111  1  0.93559289  0.36338145  0.92459179  1
  O  O112  1  0.25347351  0.15758290  0.92178610  1
  O  O113  1  0.75375729  0.14848020  0.91750490  1
  O  O114  1  0.32832450  0.13964584  0.42476533  1
  O  O115  1  0.82869708  0.14015909  0.42369949  1
  O  O116  1  0.25247640  0.35933004  0.41841450  1
  O  O117  1  0.75073284  0.35576470  0.41766851  1
  O  O118  1  0.43406165  0.50556251  0.42476834  1
  O  O119  1  0.93636415  0.50428059  0.42091161  1
  O  O120  1  0.16471967  0.49497591  0.07655438  1
  O  O121  1  0.67527830  0.50560825  0.07576555  1
  O  O122  1  0.06587715  0.64936473  0.07807139  1
  O  O123  1  0.57377247  0.65026714  0.07919516  1
  O  O124  1  0.25630764  0.86904297  0.07700277  1
  O  O125  1  0.76127187  0.87324684  0.07768332  1
  O  O126  1  0.17064655  0.83725728  0.57663629  1
  O  O127  1  0.66541285  0.83652768  0.57575107  1
  O  O128  1  0.25828732  0.64557739  0.57808275  1
  O  O129  1  0.75120303  0.65077078  0.57968506  1
  O  O130  1  0.06615782  0.48833156  0.57806174  1
  O  O131  1  0.56309805  0.48237235  0.57801427  1
  O  O132  1  0.14827643  0.81148874  0.25788393  1
  O  O133  1  0.64782791  0.81004543  0.25798618  1
  O  O134  1  0.25607371  0.67596645  0.25141456  1
  O  O135  1  0.75704753  0.67612674  0.25019822  1
  O  O136  1  0.07710248  0.46711430  0.25519040  1
  O  O137  1  0.57724296  0.46568515  0.25475766  1
  O  O138  1  0.15647010  0.49197102  0.75740948  1
  O  O139  1  0.65700706  0.49196660  0.75858288  1
  O  O140  1  0.07971979  0.69220714  0.75620242  1
  O  O141  1  0.57696354  0.68929078  0.75446820  1
  O  O142  1  0.25808647  0.82886210  0.75127215  1
  O  O143  1  0.75825431  0.83008159  0.75252746  1
loop_
_geom_bond_atom_site_label_1
_geom_bond_atom_site_label_2
_geom_bond_distance
_geom_bond_site_symmetry_2
Na0 O102 2.405964 1_555
Na0 O106 2.414264 1_555
Na0 O34 2.451196 1_555
Na0 O134 2.453628 1_555
Na0 O136 2.734791 1_555
Na0 O64 2.771861 1_555
Na0 O0 2.948016 1_555
Na1 O107 2.450756 1_555
Na1 O135 2.481353 1_555
Na1 O103 2.536935 1_555
Na1 O35 2.547473 1_555
Na1 O137 2.662167 1_555
Na1 O65 2.734158 1_555
Na2 O103 2.314508 1_555
Na2 O132 2.384021 1_655
Na2 O105 2.589395 1_555
Na2 O136 2.675899 1_655
Na2 O22 2.738695 1_655
Na2 O60 2.740212 1_655
Na2 O31 2.780239 1_555
Na2 O3 2.890574 1_555
Na3 O102 2.340417 1_555
Na3 O133 2.428726 1_555
Na3 O104 2.558626 1_555
Na3 O30 2.571183 1_555
Na3 O137 2.664917 1_555
Na3 O23 2.734826 1_555
Na3 O61 2.923151 1_555
Na4 O98 2.339311 1_555
Na4 O142 2.483595 1_555
Na4 O100 2.504513 1_555
Na4 O138 2.526764 1_555
Na4 O28 2.662948 1_555
Na4 O70 2.746987 1_555
Na4 O12 2.852739 1_555
Na4 O8 2.971780 1_555
Na5 O99 2.351605 1_555
Na5 O29 2.384794 1_555
Na5 O143 2.531402 1_555
Na5 O139 2.535172 1_555
Na5 O101 2.548180 1_555
Na5 O13 2.786913 1_555
Na5 O71 2.978448 1_555
Na6 O96 2.393005 1_555
Na6 O98 2.501067 1_555
Na6 O26 2.539722 1_555
Na6 O142 2.588922 1_545
Na6 O140 2.645585 1_545
Na6 O68 2.753754 1_545
Na6 O6 2.898679 1_555
Na6 O16 2.959177 1_545
Na7 O97 2.347332 1_555
Na7 O99 2.455468 1_555
Na7 O27 2.475833 1_555
Na7 O143 2.558288 1_545
Na7 O141 2.697223 1_545
Na7 O69 2.740602 1_545
Na8 O86 2.444495 1_555
Na8 O128 2.553989 1_555
Na8 O85 2.589674 1_455
Na8 O56 2.604703 1_555
Na8 O130 2.638633 1_555
Na8 O14 2.683632 1_555
Na8 O42 2.803845 1_555
Na9 O129 2.412024 1_555
Na9 O87 2.614040 1_555
Na9 O57 2.676098 1_555
Na9 O131 2.692093 1_555
Na9 O15 2.706886 1_555
Na9 O43 2.745759 1_555
Na9 O84 2.857644 1_555
Na9 O29 2.902709 1_555
Na10 O89 2.480551 1_455
Na10 O126 2.507226 1_555
Na10 O86 2.512254 1_565
Na10 O130 2.554723 1_555
Na10 O45 2.710572 1_455
Na10 O58 2.724033 1_555
Na10 O16 2.800844 1_555
Na10 O25 2.952847 1_455
Na11 O127 2.259339 1_555
Na11 O87 2.444441 1_565
Na11 O131 2.475626 1_555
Na11 O88 2.573520 1_555
Na11 O59 2.663812 1_555
Na11 O17 2.737379 1_555
Na12 O126 2.437688 1_555
Na12 O84 2.519546 1_565
Na12 O12 2.550996 1_555
Na12 O128 2.578694 1_555
Na12 O26 2.644256 1_565
Na12 O88 2.714463 1_555
Na12 O54 2.804235 1_555
Na13 O129 2.391777 1_555
Na13 O127 2.532244 1_555
Na13 O89 2.548340 1_555
Na13 O85 2.645400 1_565
Na13 O13 2.646415 1_555
Na13 O55 2.788676 1_555
Na13 O27 2.816263 1_565
Na14 O124 2.502379 1_555
Na14 O94 2.528009 1_565
Na14 O122 2.583754 1_555
Na14 O52 2.604108 1_554
Na14 O22 2.663889 1_555
Na14 O91 2.678374 1_455
Na14 O36 2.731556 1_565
Na14 O32 2.864407 1_565
Na15 O123 2.449980 1_555
Na15 O90 2.509211 1_555
Na15 O53 2.563831 1_554
Na15 O125 2.586425 1_555
Na15 O95 2.632622 1_565
Na15 O23 2.742949 1_555
Na15 O37 2.815784 1_565
Na16 O121 2.350203 1_555
Na16 O125 2.538308 1_555
Na16 O19 2.555159 1_555
Na16 O91 2.583839 1_555
Na16 O35 2.683118 1_555
Na16 O93 2.728876 1_565
Na16 O49 2.814843 1_554
Na17 O120 2.279800 1_555
Na17 O94 2.463744 1_555
Na17 O93 2.497110 1_455
Na17 O122 2.512240 1_555
Na17 O50 2.651812 1_554
Na17 O20 2.742736 1_555
Na17 O41 2.895930 1_455
Na17 O31 2.969577 1_455
Na18 O123 2.397707 1_555
Na18 O121 2.414108 1_555
Na18 O95 2.448477 1_555
Na18 O92 2.584579 1_555
Na18 O21 2.706744 1_555
Na18 O51 2.735157 1_554
Na18 O30 2.812198 1_555
Na19 O81 2.330434 1_555
Na19 O38 2.516281 1_556
Na19 O82 2.533788 1_555
Na19 O110 2.538329 1_555
Na19 O108 2.680253 1_555
Na19 O53 2.801048 1_555
Na19 O8 2.829369 1_555
Na19 O67 2.930186 1_555
Na20 O80 2.383167 1_655
Na20 O111 2.514224 1_555
Na20 O109 2.541419 1_555
Na20 O83 2.548648 1_555
Na20 O9 2.682170 1_555
Na20 O39 2.734755 1_556
Na20 O52 2.893537 1_655
Na20 O66 2.903820 1_655
Na21 O113 2.382073 1_555
Na21 O11 2.404978 1_555
Na21 O83 2.571514 1_545
Na21 O78 2.593599 1_655
Na21 O111 2.629386 1_555
Na21 O69 2.813914 1_545
Na21 O41 2.862119 1_556
Na22 O80 2.382083 1_545
Na22 O112 2.434888 1_555
Na22 O6 2.443194 1_555
Na22 O78 2.517667 1_555
Na22 O108 2.567306 1_555
Na22 O36 2.716316 1_556
Na22 O70 2.958015 1_555
Na23 O81 2.391841 1_545
Na23 O113 2.428482 1_555
Na23 O7 2.557622 1_555
Na23 O79 2.564840 1_555
Na23 O37 2.593887 1_556
Na23 O109 2.651936 1_555
Na24 O77 2.343265 1_555
Na24 O118 2.522515 1_555
Na24 O114 2.578365 1_555
Na24 O74 2.595247 1_545
Na24 O46 2.704060 1_555
Na24 O4 2.716208 1_555
Na24 O57 2.738110 1_555
Na24 O61 2.892504 1_555
Na25 O76 2.360716 1_655
Na25 O119 2.473650 1_555
Na25 O115 2.516168 1_555
Na25 O75 2.558528 1_545
Na25 O47 2.610098 1_555
Na25 O5 2.784584 1_555
Na25 O56 2.850053 1_655
Na25 O60 2.993678 1_655
Na26 O116 2.413175 1_555
Na26 O76 2.418807 1_555
Na26 O42 2.564014 1_555
Na26 O72 2.566566 1_545
Na26 O0 2.589795 1_555
Na26 O114 2.658695 1_555
Na27 O117 2.378329 1_555
Na27 O77 2.435786 1_555
Na27 O1 2.540392 1_555
Na27 O43 2.555204 1_555
Na27 O73 2.599350 1_545
Na27 O115 2.639947 1_555
Na28 O116 2.384640 1_555
Na28 O2 2.391511 1_555
Na28 O73 2.532114 1_555
Na28 O74 2.551267 1_555
Na28 O118 2.599757 1_555
Na28 O64 2.836192 1_555
Na28 O44 2.895452 1_555
Na29 O117 2.372238 1_555
Na29 O45 2.566361 1_555
Na29 O72 2.568545 1_655
Na29 O75 2.577803 1_555
Na29 O119 2.611646 1_555
Na29 O3 2.717390 1_555
Na29 O65 2.924306 1_555
Na29 O55 2.998582 1_555
Na30 O89 2.469799 1_445
Na30 O86 2.482343 1_555
Na30 O76 2.483116 1_555
Na30 O85 2.601576 1_455
Na30 O72 2.626454 1_545
Na30 O75 2.713699 1_445
Na31 O77 2.333425 1_555
Na31 O87 2.439894 1_555
Na31 O73 2.587803 1_545
Na31 O84 2.639612 1_555
Na31 O74 2.703862 1_545
Na31 O88 2.729344 1_545
Na32 O80 2.348448 1_545
Na32 O94 2.461616 1_556
Na32 O78 2.598185 1_555
Na32 O83 2.620749 1_445
Na32 O91 2.622100 1_446
Na32 O93 2.697640 1_456
Na33 O90 2.400431 1_555
Na33 O81 2.440487 1_554
Na33 O95 2.538784 1_565
Na33 O82 2.639078 1_554
Na33 O92 2.688798 1_565
Na33 O79 2.710853 1_564
Na34 O96 2.270169 1_555
Na34 O112 2.517950 1_555
Na34 O98 2.538038 1_555
Na34 O110 2.683711 1_555
Na34 O100 2.701161 1_555
Na34 O108 2.822770 1_555
Na35 O97 2.283157 1_555
Na35 O99 2.355340 1_555
Na35 O113 2.476114 1_555
Na35 O101 2.643423 1_555
Na35 O111 2.837214 1_555
Na35 O109 2.875038 1_555
Na36 O106 2.348115 1_555
Na36 O102 2.362064 1_555
Na36 O116 2.527443 1_555
Na36 O104 2.598886 1_555
Na36 O114 2.827548 1_555
Na36 O118 2.861291 1_555
Na37 O107 2.351432 1_555
Na37 O117 2.444515 1_555
Na37 O103 2.457110 1_555
Na37 O105 2.725352 1_555
Na37 O115 2.765319 1_555
Na37 O119 2.797393 1_555
Na38 O134 2.338681 1_555
Na38 O120 2.484133 1_555
Na38 O124 2.505519 1_555
Na38 O132 2.641189 1_555
Na38 O136 2.788927 1_555
Na38 O122 2.819859 1_555
Na39 O123 2.474783 1_555
Na39 O121 2.500584 1_555
Na39 O135 2.531834 1_555
Na39 O133 2.577038 1_555
Na39 O125 2.615351 1_555
Na39 O137 2.681828 1_555
Na40 O142 2.476059 1_555
Na40 O126 2.491130 1_555
Na40 O138 2.552315 1_555
Na40 O140 2.600878 1_555
Na40 O130 2.609016 1_555
Na40 O128 2.675928 1_555
Na41 O129 2.380314 1_555
Na41 O143 2.492859 1_555
Na41 O127 2.522475 1_555
Na41 O139 2.603572 1_555
Na41 O131 2.668555 1_555
Na41 O141 2.761361 1_555
Mg0 O0 1.934485 1_555
Mg0 O3 1.963078 1_445
Mg0 O76 2.075623 1_555
Mg0 O5 2.141407 1_455
Mg0 O72 2.263196 1_545
Mg0 O75 2.285929 1_445
Mg1 O1 1.923520 1_555
Mg1 O2 1.964802 1_545
Mg1 O77 2.065443 1_555
Mg1 O4 2.086743 1_555
Mg1 O73 2.315326 1_545
Mg1 O74 2.339484 1_545
Mg2 O6 1.928971 1_555
Mg2 O11 1.962665 1_455
Mg2 O9 2.110950 1_445
Mg2 O80 2.163064 1_545
Mg2 O78 2.278192 1_555
Mg2 O83 2.322406 1_445
Mg3 O10 1.919594 1_555
Mg3 O7 1.923231 1_555
Mg3 O81 2.109289 1_545
Mg3 O79 2.174021 1_555
Mg3 O8 2.192342 1_545
Mg3 O82 2.278876 1_545
Mg4 O26 1.949325 1_555
Mg4 O96 1.994287 1_555
Mg4 O98 2.036921 1_555
Mg4 O24 2.134848 1_555
Mg4 O100 2.245099 1_555
Mg4 O28 2.277521 1_555
Mg5 O27 1.982191 1_555
Mg5 O29 2.013488 1_555
Mg5 O99 2.064421 1_555
Mg5 O97 2.094045 1_555
Mg5 O25 2.207660 1_555
Mg5 O101 2.318165 1_555
Mg6 O30 1.974930 1_555
Mg6 O34 1.985778 1_555
Mg6 O106 2.047747 1_555
Mg6 O102 2.053181 1_555
Mg6 O32 2.211802 1_555
Mg6 O104 2.307311 1_555
Mg7 O35 1.944728 1_555
Mg7 O107 1.970659 1_555
Mg7 O103 2.038346 1_555
Mg7 O33 2.176065 1_555
Mg7 O31 2.236950 1_555
Mg7 O105 2.286298 1_555
Mg8 O37 1.931816 1_556
Mg8 O113 2.005501 1_555
Mg8 O41 2.098822 1_556
Mg8 O109 2.237404 1_555
Mg8 O39 2.246088 1_556
Mg8 O111 2.333071 1_555
Mg9 O42 1.935944 1_555
Mg9 O116 2.031594 1_555
Mg9 O44 2.086858 1_555
Mg9 O114 2.196096 1_555
Mg9 O46 2.224000 1_555
Mg9 O118 2.273167 1_555
Mg10 O45 1.949480 1_555
Mg10 O43 1.967141 1_555
Mg10 O117 2.061445 1_555
Mg10 O47 2.304364 1_555
Mg10 O115 2.370501 1_555
Mg10 O119 2.400417 1_555
Mg11 O52 1.971601 1_554
Mg11 O120 2.026488 1_555
Mg11 O48 2.046251 1_554
Mg11 O50 2.121645 1_554
Mg11 O124 2.134416 1_555
Mg11 O122 2.273737 1_555
Mg12 O53 1.951253 1_554
Mg12 O123 1.991091 1_555
Mg12 O121 2.027921 1_555
Mg12 O51 2.089892 1_554
Mg12 O49 2.238781 1_554
Mg12 O125 2.268831 1_555
Mg13 O56 1.943158 1_555
Mg13 O126 2.007407 1_555
Mg13 O58 2.065330 1_555
Mg13 O54 2.123678 1_555
Mg13 O130 2.168026 1_555
Mg13 O128 2.270602 1_555
Mg14 O57 1.956867 1_555
Mg14 O129 2.010168 1_555
Mg14 O127 2.041403 1_555
Mg14 O55 2.120313 1_555
Mg14 O59 2.210142 1_555
Mg14 O131 2.228792 1_555
O0 Si0 1.604895 1_555
O1 Si1 1.603282 1_545
O2 Si2 1.608750 1_555
O3 Si3 1.602568 1_555
O4 S1 1.467746 1_555
O5 S0 1.459607 1_555
O6 Si4 1.607043 1_555
O7 Si5 1.593555 1_555
O8 S3 1.466380 1_555
O9 S2 1.475963 1_655
O10 Si6 1.576783 1_555
O11 Si7 1.609745 1_555
O12 Si6 1.722076 1_565
O12 Sn1 1.985696 1_565
O13 Si7 1.676912 1_565
O13 Sn0 1.993038 1_665
O14 Si4 1.665236 1_555
O14 Sn0 2.013106 1_555
O15 Si5 1.679110 1_555
O15 Sn1 1.962987 1_555
O16 S2 1.506609 1_555
O16 Sn0 2.198602 1_565
O17 S3 1.523779 1_555
O17 Sn1 2.169480 1_565
O18 Si2 1.655706 1_555
O18 Sn3 1.960769 1_555
O19 Si3 1.700238 1_555
O19 Sn2 1.968284 1_655
O20 S0 1.524556 1_455
O20 Sn2 2.135301 1_545
O21 S1 1.500041 1_555
O21 Sn3 2.283037 1_545
O22 Si0 1.706217 1_565
O22 Sn2 1.986956 1_555
O23 Si1 1.674997 1_555
O23 Sn3 2.007671 1_555
O24 S4 1.463088 1_555
O25 S5 1.456241 1_555
O26 Si8 1.614504 1_555
O27 Si9 1.607708 1_555
O28 S6 1.470435 1_555
O29 Si10 1.614798 1_555
O30 Si11 1.599622 1_555
O31 S7 1.469390 1_555
O32 S8 1.455635 1_555
O33 S9 1.459773 1_555
O34 Si12 1.580200 1_555
O35 Si13 1.615262 1_555
O36 Si12 1.685092 1_555
O36 Sn4 2.009981 1_554
O37 Si13 1.630091 1_555
O38 Si11 1.705353 1_555
O38 Sn4 1.980850 1_554
O39 S7 1.482478 1_555
O40 S8 1.528423 1_555
O40 Sn4 2.100400 1_554
O41 S9 1.491689 1_555
O42 Si8 1.629211 1_555
O43 Si9 1.626467 1_555
O44 S6 1.485235 1_555
O45 Si10 1.635848 1_555
O46 S4 1.485132 1_555
O47 S5 1.485444 1_555
O48 S10 1.460403 1_555
O49 S11 1.469741 1_555
O50 S12 1.477423 1_555
O51 S13 1.472385 1_555
O52 Si14 1.608685 1_555
O53 Si15 1.608756 1_555
O54 S14 1.472968 1_555
O55 S15 1.469206 1_555
O56 Si16 1.616993 1_555
O57 Si17 1.613474 1_555
O58 S16 1.475570 1_555
O59 S17 1.473142 1_555
O60 S16 1.513405 1_555
O60 Sn5 2.236709 1_555
O61 S17 1.507745 1_555
O61 Sn6 2.293636 1_555
O62 S14 1.514517 1_555
O62 Sn5 2.113288 1_555
O63 S15 1.516008 1_555
O63 Sn6 2.125237 1_555
O64 Si16 1.695146 1_555
O64 Sn5 1.970077 1_555
O65 Si17 1.700502 1_555
O65 Sn6 1.965778 1_555
O66 S12 1.503901 1_555
O66 Sn7 2.213205 1_555
O67 S13 1.506153 1_555
O67 Sn8 2.210981 1_555
O68 Si14 1.673109 1_555
O68 Sn7 1.983133 1_555
O69 Si15 1.695836 1_555
O69 Sn8 1.959377 1_555
O70 S10 1.516439 1_555
O70 Sn7 2.151028 1_555
O71 S11 1.513577 1_555
O71 Sn8 2.191150 1_555
O72 S16 1.484265 1_555
O73 S17 1.486939 1_555
O74 S14 1.477817 1_555
O75 S15 1.485266 1_555
O76 Si16 1.648311 1_555
O77 Si17 1.648098 1_555
O78 S12 1.485469 1_555
O79 S13 1.469646 1_555
O80 Si14 1.647635 1_555
O81 Si15 1.645311 1_555
O82 S10 1.459378 1_555
O83 S11 1.488072 1_555
O84 S4 1.531560 1_555
O84 Sn1 2.258191 1_555
O85 S5 1.522796 1_555
O85 Sn0 2.241073 1_655
O86 Si8 1.690807 1_555
O86 Sn0 2.066592 1_555
O87 Si9 1.754534 1_555
O87 Sn1 2.029158 1_555
O88 S6 1.508660 1_555
O88 Sn1 2.391207 1_565
O89 Si10 1.699652 1_555
O89 Sn0 2.042676 1_665
O90 Si11 1.668618 1_555
O90 Sn3 2.031885 1_555
O91 S7 1.529553 1_555
O91 Sn2 2.279613 1_655
O92 S8 1.483491 1_555
O92 Sn3 2.332745 1_545
O93 S9 1.524122 1_555
O93 Sn2 2.345828 1_645
O94 Si12 1.745646 1_555
O94 Sn2 2.036389 1_545
O95 Si13 1.710781 1_555
O95 Sn3 2.048752 1_545
O96 Si6 1.604527 1_555
O97 Si7 1.604180 1_555
O98 Si4 1.633690 1_555
O99 Si5 1.618058 1_555
O100 S3 1.464979 1_555
O101 S2 1.456154 1_655
O102 Si2 1.626578 1_555
O103 Si3 1.626679 1_555
O104 S1 1.464591 1_555
O105 S0 1.461008 1_555
O106 Si0 1.595880 1_555
O107 Si1 1.605633 1_545
O108 S10 1.518375 1_555
O108 Sn4 2.278109 1_555
O109 S11 1.487565 1_555
O110 S13 1.506120 1_555
O110 Sn4 2.327224 1_555
O111 S12 1.486101 1_655
O112 Si14 1.699013 1_545
O112 Sn4 2.037008 1_555
O113 Si15 1.650654 1_545
O114 S14 1.482653 1_545
O115 S15 1.481371 1_545
O116 Si16 1.649160 1_555
O117 Si17 1.646179 1_555
O118 S17 1.494559 1_555
O119 S16 1.480644 1_655
O120 Si12 1.620201 1_555
O121 Si13 1.640639 1_555
O122 S7 1.484645 1_455
O123 Si11 1.628448 1_555
O124 S8 1.485289 1_565
O125 S9 1.483215 1_565
O126 Si8 1.655034 1_565
O127 Si9 1.637065 1_565
O128 S6 1.493380 1_555
O129 Si10 1.644281 1_555
O130 S5 1.495751 1_455
O131 S4 1.479079 1_555
O132 Si0 1.686489 1_565
O132 Sn5 1.993551 1_555
O133 Si1 1.690596 1_555
O133 Sn6 1.982474 1_555
O134 Si2 1.683562 1_555
O134 Sn5 1.992871 1_555
O135 Si3 1.665454 1_555
O135 Sn6 2.016691 1_555
O136 S0 1.506207 1_455
O136 Sn5 2.265038 1_555
O137 S1 1.524802 1_555
O137 Sn6 2.243238 1_555
O138 Si4 1.682764 1_555
O138 Sn7 2.002781 1_555
O139 Si5 1.672762 1_555
O139 Sn8 1.969009 1_555
O140 S2 1.506845 1_555
O140 Sn7 2.174984 1_555
O141 S3 1.494001 1_555
O141 Sn8 2.228066 1_555
O142 Si6 1.707160 1_565
O142 Sn7 2.023165 1_555
O143 Si7 1.712114 1_565
O143 Sn8 2.022162 1_555
