# generated using pymatgen
data_Sm3Co6Sn5
_symmetry_space_group_name_H-M   'P 1'
_cell_length_a   8.22097995
_cell_length_b   8.22097995
_cell_length_c   8.22097995
_cell_angle_alpha   149.43111285
_cell_angle_beta   106.93015943
_cell_angle_gamma   81.24416021
_symmetry_Int_Tables_number   1
_chemical_formula_structural   Sm3Co6Sn5
_chemical_formula_sum   'Sm3 Co6 Sn5'
_cell_volume   264.72386901
_cell_formula_units_Z   1
loop_
 _symmetry_equiv_pos_site_id
 _symmetry_equiv_pos_as_xyz
  1  'x, y, z'
loop_
 _atom_site_type_symbol
 _atom_site_label
 _atom_site_symmetry_multiplicity
 _atom_site_fract_x
 _atom_site_fract_y
 _atom_site_fract_z
 _atom_site_occupancy
  Sm  Sm0  1  0.31677700  0.31677700  0.00000000  1
  Sm  Sm1  1  0.68322300  0.68322300  0.00000000  1
  Sm  Sm2  1  0.00000000  0.00000000  0.00000000  1
  Co  Co0  1  0.38099000  0.10656200  0.27442700  1
  Co  Co1  1  0.61901000  0.89343800  0.72557300  1
  Co  Co2  1  0.83213500  0.10656200  0.72557300  1
  Co  Co3  1  0.70068700  0.50000000  0.20068700  1
  Co  Co4  1  0.29931300  0.50000000  0.79931300  1
  Co  Co5  1  0.16786500  0.89343800  0.27442700  1
  Sn  Sn0  1  0.98379300  0.32303600  0.66075700  1
  Sn  Sn1  1  0.33772100  0.67696400  0.66075700  1
  Sn  Sn2  1  0.66227900  0.32303600  0.33924300  1
  Sn  Sn3  1  0.50000000  0.00000000  0.50000000  1
  Sn  Sn4  1  0.01620700  0.67696400  0.33924300  1
loop_
_geom_bond_atom_site_label_1
_geom_bond_atom_site_label_2
_geom_bond_distance
_geom_bond_site_symmetry_2
Sm0 Sn3 3.150392 1_565
Sm0 Sn3 3.150392 1_554
Sm0 Sn1 3.196385 1_555
Sm0 Sn1 3.196385 1_544
Sm0 Sn4 3.196385 1_555
Sm0 Sn4 3.196385 1_544
Sm0 Sn2 3.321465 1_555
Sm0 Sn0 3.321465 1_454
Sm1 Sn3 3.150392 1_565
Sm1 Sn3 3.150392 1_554
Sm1 Sn0 3.196385 1_554
Sm1 Sn0 3.196385 1_565
Sm1 Sn2 3.196385 1_565
Sm1 Sn2 3.196385 1_554
Sm1 Sn4 3.321465 1_655
Sm1 Sn1 3.321465 1_554
Sm2 Sn0 3.471279 1_444
Sm2 Sn0 3.471279 1_455
Sm2 Sn2 3.471279 1_455
Sm2 Sn1 3.471279 1_555
Sm2 Sn2 3.471279 1_444
Sm2 Sn1 3.471279 1_544
Sm2 Sn4 3.471279 1_555
Sm2 Sn4 3.471279 1_544
Co0 Co4 2.554291 1_544
Co0 Co4 2.554294 1_555
Co0 Sn3 2.577502 1_555
Co0 Sn1 2.589661 1_544
Co0 Sn1 2.589665 1_555
Co0 Co5 2.659748 1_545
Co0 Sn2 2.775035 1_555
Co0 Sm2 2.997306 1_555
Co0 Sm1 3.238322 1_545
Co0 Sm1 3.238324 1_556
Co1 Co3 2.554291 1_566
Co1 Co3 2.554294 1_555
Co1 Sn3 2.577502 1_565
Co1 Sn2 2.589661 1_566
Co1 Sn2 2.589665 1_555
Co1 Co2 2.659748 1_565
Co1 Sn1 2.775035 1_555
Co1 Sm2 2.997306 1_666
Co1 Sm0 3.238322 1_566
Co1 Sm0 3.238324 1_555
Co2 Co3 2.554290 1_545
Co2 Co3 2.554290 1_556
Co2 Sn3 2.577503 1_555
Co2 Sn4 2.589663 1_645
Co2 Sn4 2.589663 1_656
Co2 Sn0 2.775043 1_555
Co2 Sm2 2.997299 1_656
Co2 Sm1 3.238328 1_545
Co2 Sm1 3.238328 1_556
Co3 Sn2 2.591646 1_555
Co3 Sn4 2.591646 1_655
Co3 Sn3 2.924920 1_565
Co3 Sn3 2.924920 1_554
Co3 Sm1 3.014485 1_555
Co3 Sm0 3.014485 1_555
Co4 Co5 2.554290 1_545
Co4 Co5 2.554290 1_556
Co4 Sn1 2.591646 1_555
Co4 Sn0 2.591646 1_455
Co4 Sn3 2.924920 1_555
Co4 Sn3 2.924920 1_566
Co4 Sm1 3.014485 1_556
Co4 Sm0 3.014485 1_556
Co5 Sn3 2.577503 1_565
Co5 Sn0 2.589663 1_454
Co5 Sn0 2.589663 1_465
Co5 Sn4 2.775043 1_555
Co5 Sm2 2.997299 1_565
Co5 Sm0 3.238328 1_555
Co5 Sm0 3.238328 1_566
Sn0 Sn2 3.147013 1_555
Sn0 Sn4 3.327430 1_656
Sn0 Sn4 3.327430 1_645
Sn1 Sn4 3.147013 1_555
Sn1 Sn2 3.327430 1_555
Sn1 Sn2 3.327430 1_566
