# generated using pymatgen
data_Na2HfAl(PO4)3
_symmetry_space_group_name_H-M   'P 1'
_cell_length_a   8.76199474
_cell_length_b   8.76199447
_cell_length_c   22.27065547
_cell_angle_alpha   90.19114653
_cell_angle_beta   89.80885340
_cell_angle_gamma   120.53793313
_symmetry_Int_Tables_number   1
_chemical_formula_structural   Na2HfAl(PO4)3
_chemical_formula_sum   'Na12 Hf6 Al6 P18 O72'
_cell_volume   1472.60628724
_cell_formula_units_Z   6
loop_
 _symmetry_equiv_pos_site_id
 _symmetry_equiv_pos_as_xyz
  1  'x, y, z'
loop_
 _atom_site_type_symbol
 _atom_site_label
 _atom_site_symmetry_multiplicity
 _atom_site_fract_x
 _atom_site_fract_y
 _atom_site_fract_z
 _atom_site_occupancy
  Na  Na0  1  0.36290060  0.36201695  0.24834545  1
  Na  Na1  1  0.63798305  0.63709940  0.74834545  1
  Na  Na2  1  0.02956760  0.69534995  0.58167845  1
  Na  Na3  1  0.30465005  0.97043240  0.08167845  1
  Na  Na4  1  0.69623360  0.02868395  0.91501245  1
  Na  Na5  1  0.97131605  0.30376640  0.41501245  1
  Na  Na6  1  0.00006289  0.99886059  0.49602419  1
  Na  Na7  1  0.00113941  0.99993711  0.99602419  1
  Na  Na8  1  0.66672989  0.33219359  0.82935719  1
  Na  Na9  1  0.66780641  0.33327011  0.32935719  1
  Na  Na10  1  0.33339589  0.66552759  0.16269119  1
  Na  Na11  1  0.33447241  0.66660411  0.66269119  1
  Hf  Hf0  1  0.00196923  0.00823901  0.64605385  1
  Hf  Hf1  1  0.99176099  0.99803077  0.14605385  1
  Hf  Hf2  1  0.66863623  0.34157201  0.97938685  1
  Hf  Hf3  1  0.65842799  0.33136377  0.47938685  1
  Hf  Hf4  1  0.33530223  0.67490601  0.31272085  1
  Hf  Hf5  1  0.32509399  0.66469777  0.81272085  1
  Al  Al0  1  0.99874086  0.99305554  0.35243026  1
  Al  Al1  1  0.00694446  0.00125914  0.85243026  1
  Al  Al2  1  0.66540786  0.32638854  0.68576326  1
  Al  Al3  1  0.67361146  0.33459214  0.18576326  1
  Al  Al4  1  0.33207386  0.65972254  0.01909726  1
  Al  Al5  1  0.34027746  0.66792614  0.51909726  1
  P  P0  1  0.29291376  0.00811979  0.24989893  1
  P  P1  1  0.71687872  0.70427431  0.25232791  1
  P  P2  1  0.98554469  0.28333410  0.25257520  1
  P  P3  1  0.29572569  0.28312128  0.75232791  1
  P  P4  1  0.99188021  0.70708624  0.74989893  1
  P  P5  1  0.71666590  0.01445531  0.75257520  1
  P  P6  1  0.95958076  0.34145279  0.58323193  1
  P  P7  1  0.38354572  0.03760731  0.58566091  1
  P  P8  1  0.65221169  0.61666710  0.58590820  1
  P  P9  1  0.96239269  0.61645428  0.08566091  1
  P  P10  1  0.65854721  0.04041924  0.08323193  1
  P  P11  1  0.38333290  0.34778831  0.08590820  1
  P  P12  1  0.62624676  0.67478679  0.91656593  1
  P  P13  1  0.05021172  0.37094131  0.91899491  1
  P  P14  1  0.31887769  0.95000110  0.91924220  1
  P  P15  1  0.62905869  0.94978828  0.41899491  1
  P  P16  1  0.32521321  0.37375324  0.41656593  1
  P  P17  1  0.04999890  0.68112231  0.41924220  1
  O  O0  1  0.20032975  0.03744142  0.30398444  1
  O  O1  1  0.83036565  0.79856401  0.30716697  1
  O  O2  1  0.96619110  0.17459632  0.30950696  1
  O  O3  1  0.20143599  0.16963435  0.80716697  1
  O  O4  1  0.96255858  0.79967025  0.80398444  1
  O  O5  1  0.82540368  0.03380890  0.80950696  1
  O  O6  1  0.79731564  0.97179429  0.69746248  1
  O  O7  1  0.18306919  0.20649683  0.69523908  1
  O  O8  1  0.02316390  0.81573599  0.69180047  1
  O  O9  1  0.79350317  0.81693081  0.19523908  1
  O  O10  1  0.02820571  0.20268436  0.19746248  1
  O  O11  1  0.18426401  0.97683610  0.19180047  1
  O  O12  1  0.86699675  0.37077442  0.63731744  1
  O  O13  1  0.49703265  0.13189701  0.64049997  1
  O  O14  1  0.63285810  0.50792932  0.64283996  1
  O  O15  1  0.86810299  0.50296735  0.14049997  1
  O  O16  1  0.62922558  0.13300325  0.13731744  1
  O  O17  1  0.49207068  0.36714190  0.14283996  1
  O  O18  1  0.46398264  0.30512729  0.03079548  1
  O  O19  1  0.84973619  0.53982983  0.02857208  1
  O  O20  1  0.68983090  0.14906899  0.02513347  1
  O  O21  1  0.46017017  0.15026381  0.52857208  1
  O  O22  1  0.69487271  0.53601736  0.53079548  1
  O  O23  1  0.85093101  0.31016910  0.52513347  1
  O  O24  1  0.53366275  0.70410842  0.97065144  1
  O  O25  1  0.16369865  0.46523101  0.97383397  1
  O  O26  1  0.29952410  0.84126332  0.97617396  1
  O  O27  1  0.53476899  0.83630135  0.47383397  1
  O  O28  1  0.29589158  0.46633725  0.47065144  1
  O  O29  1  0.15873668  0.70047590  0.47617396  1
  O  O30  1  0.13064864  0.63846129  0.36412948  1
  O  O31  1  0.51640219  0.87316383  0.36190608  1
  O  O32  1  0.35649690  0.48240299  0.35846747  1
  O  O33  1  0.12683617  0.48359781  0.86190608  1
  O  O34  1  0.36153871  0.86935136  0.86412948  1
  O  O35  1  0.51759701  0.64350310  0.85846747  1
  O  O36  1  0.03100986  0.84301924  0.40895741  1
  O  O37  1  0.81582108  0.97508249  0.41057461  1
  O  O38  1  0.15666110  0.18881755  0.40903616  1
  O  O39  1  0.02491751  0.18417892  0.91057461  1
  O  O40  1  0.15698076  0.96899014  0.90895741  1
  O  O41  1  0.81118245  0.84333890  0.90903616  1
  O  O42  1  0.97971384  0.17690355  0.58876997  1
  O  O43  1  0.19280882  0.01077399  0.58987009  1
  O  O44  1  0.82471929  0.80305400  0.58997555  1
  O  O45  1  0.98922601  0.80719118  0.08987009  1
  O  O46  1  0.82309645  0.02028616  0.08876997  1
  O  O47  1  0.19694600  0.17528071  0.08997555  1
  O  O48  1  0.69767686  0.17635224  0.74229041  1
  O  O49  1  0.48248808  0.30841549  0.74390761  1
  O  O50  1  0.82332810  0.52215055  0.74236916  1
  O  O51  1  0.69158451  0.51751192  0.24390761  1
  O  O52  1  0.82364776  0.30232314  0.24229041  1
  O  O53  1  0.47784945  0.17667190  0.24236916  1
  O  O54  1  0.64638084  0.51023655  0.92210297  1
  O  O55  1  0.85947582  0.34410699  0.92320309  1
  O  O56  1  0.49138629  0.13638700  0.92330855  1
  O  O57  1  0.65589301  0.14052418  0.42320309  1
  O  O58  1  0.48976345  0.35361916  0.42210297  1
  O  O59  1  0.86361300  0.50861371  0.42330855  1
  O  O60  1  0.36434286  0.50968624  0.07562441  1
  O  O61  1  0.14915408  0.64174949  0.07724161  1
  O  O62  1  0.48999410  0.85548455  0.07570316  1
  O  O63  1  0.35825051  0.85084592  0.57724161  1
  O  O64  1  0.49031376  0.63565714  0.57562441  1
  O  O65  1  0.14451545  0.51000590  0.57570316  1
  O  O66  1  0.31304684  0.84357055  0.25543697  1
  O  O67  1  0.52614182  0.67744099  0.25653709  1
  O  O68  1  0.15805229  0.46972100  0.25664255  1
  O  O69  1  0.32255901  0.47385818  0.75653709  1
  O  O70  1  0.15642945  0.68695316  0.75543697  1
  O  O71  1  0.53027900  0.84194771  0.75664255  1
loop_
_geom_bond_atom_site_label_1
_geom_bond_atom_site_label_2
_geom_bond_distance
_geom_bond_site_symmetry_2
Na0 O53 2.308533 1_555
Na0 O67 2.387176 1_555
Na0 O68 2.421619 1_555
Na0 O51 2.484276 1_555
Na0 O17 2.595236 1_555
Na0 O32 2.678146 1_555
Na0 O0 2.747254 1_555
Na0 O10 2.772070 1_555
Na1 O50 2.308533 1_555
Na1 O69 2.387176 1_555
Na1 O71 2.421619 1_555
Na1 O49 2.484276 1_555
Na1 O14 2.595236 1_555
Na1 O35 2.678146 1_555
Na1 O4 2.747254 1_555
Na1 O6 2.772070 1_555
Na2 O65 2.308517 1_555
Na2 O43 2.387176 1_565
Na2 O44 2.421619 1_455
Na2 O63 2.484267 1_555
Na2 O29 2.595211 1_555
Na2 O8 2.678146 1_555
Na2 O12 2.747254 1_455
Na2 O22 2.772070 1_455
Na3 O62 2.308517 1_555
Na3 O45 2.387176 1_455
Na3 O47 2.421619 1_565
Na3 O61 2.484267 1_555
Na3 O26 2.595211 1_554
Na3 O11 2.678146 1_555
Na3 O16 2.747254 1_565
Na3 O18 2.772070 1_565
Na4 O41 2.308533 1_545
Na4 O55 2.387167 1_555
Na4 O56 2.421602 1_555
Na4 O39 2.484276 1_655
Na4 O5 2.595236 1_555
Na4 O20 2.678121 1_556
Na4 O24 2.747254 1_545
Na4 O34 2.772070 1_545
Na5 O38 2.308533 1_655
Na5 O57 2.387167 1_555
Na5 O59 2.421602 1_555
Na5 O37 2.484276 1_545
Na5 O2 2.595236 1_555
Na5 O23 2.678121 1_555
Na5 O28 2.747254 1_655
Na5 O30 2.772070 1_655
Na6 O37 2.438646 1_455
Na6 O36 2.460286 1_555
Na6 O38 2.467585 1_565
Na6 O42 2.643947 1_465
Na6 O44 2.646834 1_455
Na6 O43 2.659729 1_565
Na7 O39 2.438646 1_565
Na7 O40 2.460286 1_555
Na7 O41 2.467585 1_455
Na7 O46 2.643947 1_466
Na7 O47 2.646834 1_566
Na7 O45 2.659729 1_456
Na8 O49 2.438646 1_555
Na8 O48 2.460286 1_555
Na8 O50 2.467585 1_555
Na8 O54 2.643947 1_555
Na8 O56 2.646834 1_555
Na8 O55 2.659729 1_555
Na9 O51 2.438646 1_555
Na9 O52 2.460286 1_555
Na9 O53 2.467585 1_555
Na9 O58 2.643947 1_555
Na9 O59 2.646834 1_555
Na9 O57 2.659729 1_555
Na10 O61 2.438646 1_555
Na10 O60 2.460286 1_555
Na10 O62 2.467585 1_555
Na10 O66 2.643947 1_555
Na10 O68 2.646834 1_555
Na10 O67 2.659729 1_555
Na11 O63 2.438646 1_555
Na11 O64 2.460286 1_555
Na11 O65 2.467585 1_555
Na11 O70 2.643947 1_555
Na11 O71 2.646834 1_555
Na11 O69 2.659729 1_555
Hf0 O7 1.983217 1_555
Hf0 O6 2.008754 1_445
Hf0 O42 2.038789 1_455
Hf0 O8 2.061187 1_545
Hf0 O43 2.076207 1_555
Hf0 O44 2.089135 1_445
Hf1 O9 1.983217 1_555
Hf1 O10 2.008754 1_665
Hf1 O46 2.038789 1_565
Hf1 O11 2.061187 1_655
Hf1 O45 2.076207 1_555
Hf1 O47 2.089135 1_665
Hf2 O19 1.983217 1_556
Hf2 O18 2.008754 1_556
Hf2 O54 2.038789 1_555
Hf2 O20 2.061187 1_556
Hf2 O55 2.076207 1_555
Hf2 O56 2.089135 1_555
Hf3 O21 1.983217 1_555
Hf3 O22 2.008754 1_555
Hf3 O58 2.038789 1_555
Hf3 O23 2.061187 1_555
Hf3 O57 2.076207 1_555
Hf3 O59 2.089135 1_555
Hf4 O31 1.983217 1_555
Hf4 O30 2.008754 1_555
Hf4 O66 2.038789 1_555
Hf4 O32 2.061187 1_555
Hf4 O67 2.076207 1_555
Hf4 O68 2.089135 1_555
Hf5 O33 1.983217 1_555
Hf5 O34 2.008754 1_555
Hf5 O70 2.038789 1_555
Hf5 O35 2.061187 1_555
Hf5 O69 2.076207 1_555
Hf5 O71 2.089135 1_555
Al0 O1 1.881573 1_555
Al0 O0 1.930599 1_665
Al0 O36 1.945282 1_655
Al0 O2 1.999579 1_565
Al0 O37 2.000350 1_555
Al0 O38 2.007811 1_665
Al1 O3 1.881573 1_555
Al1 O4 1.930599 1_445
Al1 O40 1.945282 1_545
Al1 O5 1.999579 1_455
Al1 O39 2.000350 1_555
Al1 O41 2.007811 1_445
Al2 O13 1.881573 1_555
Al2 O12 1.930599 1_555
Al2 O48 1.945282 1_555
Al2 O14 1.999579 1_555
Al2 O49 2.000350 1_555
Al2 O50 2.007811 1_555
Al3 O15 1.881573 1_555
Al3 O16 1.930599 1_555
Al3 O52 1.945282 1_555
Al3 O17 1.999579 1_555
Al3 O51 2.000350 1_555
Al3 O53 2.007811 1_555
Al4 O25 1.881573 1_554
Al4 O24 1.930599 1_554
Al4 O60 1.945282 1_555
Al4 O26 1.999579 1_554
Al4 O61 2.000350 1_555
Al4 O62 2.007811 1_555
Al5 O27 1.881573 1_555
Al5 O28 1.930599 1_555
Al5 O64 1.945282 1_555
Al5 O29 1.999579 1_555
Al5 O63 2.000350 1_555
Al5 O65 2.007811 1_555
O0 P0 1.542130 1_555
O1 P1 1.526249 1_555
O2 P2 1.544842 1_555
O3 P3 1.526249 1_555
O4 P4 1.542130 1_555
O5 P5 1.544842 1_555
O6 P5 1.550858 1_565
O7 P3 1.539739 1_555
O8 P4 1.547980 1_455
O9 P1 1.539739 1_555
O10 P2 1.550858 1_455
O11 P0 1.547981 1_565
O12 P6 1.542130 1_555
O13 P7 1.526249 1_555
O14 P8 1.544842 1_555
O15 P9 1.526249 1_555
O16 P10 1.542130 1_555
O17 P11 1.544842 1_555
O18 P11 1.550858 1_555
O19 P9 1.539739 1_555
O20 P10 1.547980 1_555
O21 P7 1.539739 1_555
O22 P8 1.550858 1_555
O23 P6 1.547981 1_555
O24 P12 1.542130 1_555
O25 P13 1.526249 1_555
O26 P14 1.544842 1_555
O27 P15 1.526249 1_555
O28 P16 1.542130 1_555
O29 P17 1.544842 1_555
O30 P17 1.550858 1_555
O31 P15 1.539739 1_555
O32 P16 1.547980 1_555
O33 P13 1.539739 1_555
O34 P14 1.550858 1_555
O35 P12 1.547981 1_555
O36 P17 1.527963 1_555
O37 P15 1.546545 1_555
O38 P16 1.550115 1_555
O39 P13 1.546544 1_555
O40 P14 1.527963 1_555
O41 P12 1.550116 1_555
O42 P6 1.544297 1_555
O43 P7 1.567448 1_555
O44 P8 1.565685 1_555
O45 P9 1.567448 1_555
O46 P10 1.544297 1_555
O47 P11 1.565685 1_555
O48 P5 1.527963 1_555
O49 P3 1.546545 1_555
O50 P4 1.550115 1_555
O51 P1 1.546544 1_555
O52 P2 1.527963 1_555
O53 P0 1.550116 1_555
O54 P12 1.544309 1_555
O55 P13 1.567435 1_655
O56 P14 1.565682 1_545
O57 P15 1.567435 1_545
O58 P16 1.544309 1_555
O59 P17 1.565682 1_655
O60 P11 1.527973 1_555
O61 P9 1.546530 1_455
O62 P10 1.550112 1_565
O63 P7 1.546530 1_565
O64 P8 1.527973 1_555
O65 P6 1.550112 1_455
O66 P0 1.544297 1_565
O67 P1 1.567448 1_555
O68 P2 1.565685 1_455
O69 P3 1.567448 1_555
O70 P4 1.544297 1_455
O71 P5 1.565685 1_565
