# generated using pymatgen
data_Tb(FeP3)4
_symmetry_space_group_name_H-M   'P 1'
_cell_length_a   6.70903152
_cell_length_b   6.70903321
_cell_length_c   6.70903225
_cell_angle_alpha   109.47123334
_cell_angle_beta   109.47123177
_cell_angle_gamma   109.47123999
_symmetry_Int_Tables_number   1
_chemical_formula_structural   Tb(FeP3)4
_chemical_formula_sum   'Tb1 Fe4 P12'
_cell_volume   232.46497660
_cell_formula_units_Z   1
loop_
 _symmetry_equiv_pos_site_id
 _symmetry_equiv_pos_as_xyz
  1  'x, y, z'
loop_
 _atom_site_type_symbol
 _atom_site_label
 _atom_site_symmetry_multiplicity
 _atom_site_fract_x
 _atom_site_fract_y
 _atom_site_fract_z
 _atom_site_occupancy
  Tb  Tb0  1  -0.00000000  -0.00000000  -0.00000000  1
  Fe  Fe0  1  0.50000000  -0.00000000  -0.00000000  1
  Fe  Fe1  1  -0.00000000  -0.00000000  0.50000000  1
  Fe  Fe2  1  -0.00000000  0.50000000  -0.00000000  1
  Fe  Fe3  1  0.50000000  0.50000000  0.50000000  1
  P  P0  1  0.49765845  0.85009685  0.64755120  1
  P  P1  1  0.20255001  0.85010388  0.35244584  1
  P  P2  1  0.79744999  0.14989612  0.64755416  1
  P  P3  1  0.14990315  0.35244880  0.50234155  1
  P  P4  1  0.35244780  0.50234155  0.14990315  1
  P  P5  1  0.50234155  0.14990315  0.35244880  1
  P  P6  1  0.14989512  0.64755316  0.79744999  1
  P  P7  1  0.35244684  0.20255101  0.85010488  1
  P  P8  1  0.85009685  0.64755120  0.49765845  1
  P  P9  1  0.64755316  0.79744899  0.14989512  1
  P  P10  1  0.85010488  0.35244684  0.20255001  1
  P  P11  1  0.64755220  0.49765845  0.85009685  1
loop_
_geom_bond_atom_site_label_1
_geom_bond_atom_site_label_2
_geom_bond_distance
_geom_bond_site_symmetry_2
Fe0 P9 2.232083 1_545
Fe0 P7 2.232083 1_554
Fe0 P10 2.232086 1_555
Fe0 P6 2.232086 1_544
Fe0 P0 2.232105 1_544
Fe0 P5 2.232105 1_555
Fe1 P2 2.232083 1_455
Fe1 P1 2.232083 1_545
Fe1 P7 2.232086 1_555
Fe1 P9 2.232086 1_445
Fe1 P8 2.232105 1_445
Fe1 P3 2.232105 1_555
Fe2 P6 2.232076 1_554
Fe2 P10 2.232076 1_455
Fe2 P1 2.232080 1_555
Fe2 P2 2.232080 1_454
Fe2 P4 2.232099 1_555
Fe2 P11 2.232099 1_454
Fe3 P3 2.232035 1_555
Fe3 P8 2.232035 1_555
Fe3 P0 2.232035 1_555
Fe3 P5 2.232035 1_555
Fe3 P11 2.232036 1_555
Fe3 P4 2.232036 1_555
P0 P1 2.286197 1_555
P0 P2 2.322480 1_565
P0 Tb0 2.967039 1_666
P1 P5 2.322480 1_565
P1 Tb0 2.967051 1_565
P2 P5 2.286197 1_555
P2 Tb0 2.967051 1_656
P3 P6 2.286198 1_555
P3 Tb0 2.967039 1_555
P4 P9 2.286197 1_555
P4 P7 2.322480 1_554
P4 Tb0 2.967037 1_555
P5 Tb0 2.967039 1_555
P6 P8 2.322480 1_455
P6 Tb0 2.967051 1_566
P7 Tb0 2.967053 1_556
P8 Tb0 2.967039 1_666
P9 Tb0 2.967053 1_665
P10 P8 2.286198 1_555
P10 P3 2.322480 1_655
P10 Tb0 2.967051 1_655
P11 P7 2.286197 1_555
P11 P9 2.322480 1_556
P11 Tb0 2.967037 1_666
