# generated using pymatgen
data_MgTi2(NiO3)2
_symmetry_space_group_name_H-M   'P 1'
_cell_length_a   5.39554739
_cell_length_b   5.78859825
_cell_length_c   5.34889349
_cell_angle_alpha   123.52966043
_cell_angle_beta   62.97116338
_cell_angle_gamma   116.37537012
_symmetry_Int_Tables_number   1
_chemical_formula_structural   MgTi2(NiO3)2
_chemical_formula_sum   'Mg1 Ti2 Ni2 O6'
_cell_volume   119.77705238
_cell_formula_units_Z   1
loop_
 _symmetry_equiv_pos_site_id
 _symmetry_equiv_pos_as_xyz
  1  'x, y, z'
loop_
 _atom_site_type_symbol
 _atom_site_label
 _atom_site_symmetry_multiplicity
 _atom_site_fract_x
 _atom_site_fract_y
 _atom_site_fract_z
 _atom_site_occupancy
  Mg  Mg0  1  0.70142436  0.20205315  0.33823504  1
  Ti  Ti0  1  0.24563583  0.49685288  0.12882799  1
  Ti  Ti1  1  0.59413609  0.90251567  0.69313253  1
  Ni  Ni0  1  0.12423557  0.03071585  0.45891713  1
  Ni  Ni1  1  0.88531878  0.55534476  0.85544566  1
  O  O0  1  0.11395182  0.32711336  0.39283613  1
  O  O1  1  0.60903306  0.77865713  0.26192519  1
  O  O2  1  0.27353807  0.77281306  0.98062739  1
  O  O3  1  0.87491320  0.23205341  0.93763220  1
  O  O4  1  0.48385911  0.24386015  0.77069275  1
  O  O5  1  0.84780311  0.67463059  0.54807699  1
loop_
_geom_bond_atom_site_label_1
_geom_bond_atom_site_label_2
_geom_bond_distance
_geom_bond_site_symmetry_2
Mg0 O3 1.985330 1_554
Mg0 O4 1.988302 1_555
Mg0 O1 2.101455 1_545
Mg0 O0 2.118773 1_655
Mg0 O5 2.204751 1_555
Ni0 O0 1.960637 1_555
Ni0 O2 2.097327 1_544
Ni0 O5 2.099677 1_445
Ni0 O3 2.165652 1_455
Ni1 O1 2.069266 1_556
Ni1 O2 2.102697 1_655
Ni1 O0 2.110047 1_655
Ni1 O3 2.119345 1_555
Ni1 O4 2.160524 1_555
Ni1 O5 2.213945 1_555
O0 Ti0 1.861466 1_555
O1 Ti1 1.973878 1_555
O1 Ti0 2.038672 1_555
O2 Ti1 1.903832 1_555
O2 Ti0 2.068717 1_556
O3 Ti1 2.030093 1_545
O3 Ti0 2.190825 1_656
O4 Ti0 1.949821 1_556
O4 Ti1 2.084466 1_545
O5 Ti1 1.929681 1_555
O5 Ti0 2.394512 1_655
