# generated using pymatgen
data_Sr2MgFeOsO6
_symmetry_space_group_name_H-M   'P 1'
_cell_length_a   6.28867557
_cell_length_b   6.31449625
_cell_length_c   5.75082241
_cell_angle_alpha   62.62273823
_cell_angle_beta   63.08056121
_cell_angle_gamma   53.52080594
_symmetry_Int_Tables_number   1
_chemical_formula_structural   Sr2MgFeOsO6
_chemical_formula_sum   'Sr2 Mg1 Fe1 Os1 O6'
_cell_volume   157.82805988
_cell_formula_units_Z   1
loop_
 _symmetry_equiv_pos_site_id
 _symmetry_equiv_pos_as_xyz
  1  'x, y, z'
loop_
 _atom_site_type_symbol
 _atom_site_label
 _atom_site_symmetry_multiplicity
 _atom_site_fract_x
 _atom_site_fract_y
 _atom_site_fract_z
 _atom_site_occupancy
  Sr  Sr0  1  0.17532100  0.17532100  0.32467900  1
  Sr  Sr1  1  0.82467900  0.82467900  0.67532100  1
  Mg  Mg0  1  0.50000000  0.50000000  0.00000000  1
  Fe  Fe0  1  0.00000000  0.00000000  0.00000000  1
  Os  Os0  1  0.50000000  0.50000000  0.50000000  1
  O  O0  1  0.74908400  0.25091600  0.24648400  1
  O  O1  1  0.74905200  0.25094800  0.75908900  1
  O  O2  1  0.70871300  0.70871300  0.29128700  1
  O  O3  1  0.25091600  0.74908400  0.75351600  1
  O  O4  1  0.25094800  0.74905200  0.24091100  1
  O  O5  1  0.29128700  0.29128700  0.70871300  1
loop_
_geom_bond_atom_site_label_1
_geom_bond_atom_site_label_2
_geom_bond_distance
_geom_bond_site_symmetry_2
Mg0 O1 1.988952 1_554
Mg0 O4 1.988952 1_555
Mg0 O0 1.991799 1_555
Mg0 O3 1.991799 1_554
Mg0 Sr0 3.140600 1_555
Mg0 Sr1 3.140600 1_554
Fe0 O1 1.976881 1_454
Fe0 O4 1.976881 1_545
Fe0 O0 2.019152 1_455
Fe0 O3 2.019152 1_544
O0 Os0 2.040736 1_555
O0 Sr1 2.643402 1_545
O0 Sr0 2.643402 1_655
O1 Os0 2.043397 1_555
O1 Sr0 2.676992 1_655
O1 Sr1 2.676992 1_545
O2 Os0 2.018868 1_555
O2 Sr0 2.855705 1_565
O2 Sr0 2.855705 1_655
O2 Sr1 3.086466 1_555
O2 Sr1 3.086466 1_554
O3 Os0 2.040736 1_555
O3 Sr1 2.643402 1_455
O3 Sr0 2.643402 1_565
O4 Os0 2.043397 1_555
O4 Sr1 2.676992 1_455
O4 Sr0 2.676992 1_565
O5 Os0 2.018868 1_555
O5 Sr1 2.855705 1_545
O5 Sr1 2.855705 1_455
O5 Sr0 3.086466 1_556
O5 Sr0 3.086466 1_555
