# generated using pymatgen
data_Mg(ScSe2)2
_symmetry_space_group_name_H-M   'P 1'
_cell_length_a   7.59809986
_cell_length_b   7.59809986
_cell_length_c   7.59809986
_cell_angle_alpha   105.62528081
_cell_angle_beta   105.62528081
_cell_angle_gamma   117.47170097
_symmetry_Int_Tables_number   1
_chemical_formula_structural   Mg(ScSe2)2
_chemical_formula_sum   'Mg2 Sc4 Se8'
_cell_volume   332.66855996
_cell_formula_units_Z   2
loop_
 _symmetry_equiv_pos_site_id
 _symmetry_equiv_pos_as_xyz
  1  'x, y, z'
loop_
 _atom_site_type_symbol
 _atom_site_label
 _atom_site_symmetry_multiplicity
 _atom_site_fract_x
 _atom_site_fract_y
 _atom_site_fract_z
 _atom_site_occupancy
  Mg  Mg0  1  -0.00000000  0.00000000  0.00000000  1
  Mg  Mg1  1  0.75000000  0.25000000  0.50000000  1
  Sc  Sc0  1  0.87500000  0.85880922  0.48380922  1
  Sc  Sc1  1  0.60880922  0.12500000  -0.01619078  1
  Sc  Sc2  1  0.37500000  0.39119078  0.51619078  1
  Sc  Sc3  1  0.14119078  0.62500000  0.01619078  1
  Se  Se0  1  0.59927902  0.41111489  0.28681852  1
  Se  Se1  1  0.68753949  0.40072098  0.81183587  1
  Se  Se2  1  0.12429637  0.31246051  0.71318148  1
  Se  Se3  1  0.58888511  0.87570363  0.18816413  1
  Se  Se4  1  0.15072098  0.93753949  0.31183587  1
  Se  Se5  1  0.06246051  0.37429637  0.21318148  1
  Se  Se6  1  0.62570363  0.83888511  0.68816413  1
  Se  Se7  1  0.16111489  0.84927902  0.78681852  1
loop_
_geom_bond_atom_site_label_1
_geom_bond_atom_site_label_2
_geom_bond_distance
_geom_bond_site_symmetry_2
Mg0 Se5 2.606925 1_555
Mg0 Se6 2.606925 1_444
Mg0 Se7 2.606925 1_544
Mg0 Se4 2.606925 1_545
Mg1 Se2 2.606925 1_655
Mg1 Se3 2.606925 1_545
Mg1 Se0 2.606925 1_555
Mg1 Se1 2.606925 1_555
Sc0 Se0 2.682075 1_555
Sc0 Se4 2.682075 1_655
Sc0 Se6 2.732790 1_555
Sc0 Se2 2.732790 1_665
Sc0 Se3 2.751484 1_555
Sc0 Se7 2.751484 1_655
Sc1 Se7 2.682075 1_544
Sc1 Se1 2.682075 1_554
Sc1 Se3 2.732790 1_545
Sc1 Se5 2.732790 1_655
Sc1 Se6 2.751484 1_544
Sc1 Se0 2.751484 1_555
Sc2 Se2 2.682075 1_555
Sc2 Se6 2.682075 1_555
Sc2 Se0 2.732790 1_555
Sc2 Se4 2.732790 1_545
Sc2 Se1 2.751484 1_555
Sc2 Se5 2.751484 1_555
Sc3 Se5 2.682075 1_555
Sc3 Se3 2.682075 1_555
Sc3 Se7 2.732790 1_554
Sc3 Se1 2.732790 1_454
Sc3 Se4 2.751484 1_555
Sc3 Se2 2.751484 1_554
