# generated using pymatgen
data_MgFe2(SeO5)2
_symmetry_space_group_name_H-M   'P 1'
_cell_length_a   5.59831765
_cell_length_b   5.59859669
_cell_length_c   7.78346098
_cell_angle_alpha   110.99230520
_cell_angle_beta   110.98973710
_cell_angle_gamma   100.66356512
_symmetry_Int_Tables_number   1
_chemical_formula_structural   MgFe2(SeO5)2
_chemical_formula_sum   'Mg1 Fe2 Se2 O10'
_cell_volume   198.43353942
_cell_formula_units_Z   1
loop_
 _symmetry_equiv_pos_site_id
 _symmetry_equiv_pos_as_xyz
  1  'x, y, z'
loop_
 _atom_site_type_symbol
 _atom_site_label
 _atom_site_symmetry_multiplicity
 _atom_site_fract_x
 _atom_site_fract_y
 _atom_site_fract_z
 _atom_site_occupancy
  Mg  Mg0  1  0.44234200  0.05772300  0.24998100  1
  Fe  Fe0  1  0.00375500  0.99790300  0.50468800  1
  Fe  Fe1  1  0.50207400  0.49623500  0.99530100  1
  Se  Se0  1  0.09062200  0.40939900  0.24999500  1
  Se  Se1  1  0.89889200  0.60109800  0.74997700  1
  O  O0  1  0.22349800  0.28455600  0.08801000  1
  O  O1  1  0.21547500  0.27650100  0.41206200  1
  O  O2  1  0.76089300  0.68237900  0.90977200  1
  O  O3  1  0.81757500  0.73912000  0.59021000  1
  O  O4  1  0.20349300  0.75289300  0.35752800  1
  O  O5  1  0.74709300  0.29651600  0.14251700  1
  O  O6  1  0.78310900  0.26289900  0.58182300  1
  O  O7  1  0.23709700  0.71687600  0.91812400  1
  O  O8  1  0.67092600  0.82906700  0.25000100  1
  O  O9  1  0.31982400  0.18016800  0.75000900  1
loop_
_geom_bond_atom_site_label_1
_geom_bond_atom_site_label_2
_geom_bond_distance
_geom_bond_site_symmetry_2
Mg0 O8 1.970445 1_545
Mg0 O6 2.272310 1_555
Mg0 O7 2.272516 1_544
Mg0 O0 2.306409 1_555
Mg0 O1 2.306798 1_555
Mg0 O5 2.525298 1_555
Mg0 O4 2.526292 1_545
Fe0 O9 1.825781 1_565
Fe0 O8 1.911672 1_455
Fe0 O3 2.063429 1_455
Fe0 O6 2.158402 1_465
Fe0 O4 2.191671 1_555
Fe0 O1 2.256365 1_565
Fe1 O9 1.825673 1_555
Fe1 O8 1.911738 1_556
Fe1 O2 2.063485 1_555
Fe1 O7 2.158413 1_555
Fe1 O5 2.191884 1_556
Fe1 O0 2.256618 1_556
O0 Se0 1.692467 1_555
O1 Se0 1.693124 1_555
O2 Se1 1.662477 1_555
O3 Se1 1.662485 1_555
O4 Se0 1.678161 1_555
O5 Se0 1.678297 1_655
O6 Se1 1.697270 1_555
O7 Se1 1.697250 1_455
