# generated using pymatgen
data_Nd2InGe2
_symmetry_space_group_name_H-M   'P 1'
_cell_length_a   7.57117616
_cell_length_b   7.57117616
_cell_length_c   4.32787586
_cell_angle_alpha   90.00000000
_cell_angle_beta   90.00000000
_cell_angle_gamma   90.00000000
_symmetry_Int_Tables_number   1
_chemical_formula_structural   Nd2InGe2
_chemical_formula_sum   'Nd4 In2 Ge4'
_cell_volume   248.08556611
_cell_formula_units_Z   2
loop_
 _symmetry_equiv_pos_site_id
 _symmetry_equiv_pos_as_xyz
  1  'x, y, z'
loop_
 _atom_site_type_symbol
 _atom_site_label
 _atom_site_symmetry_multiplicity
 _atom_site_fract_x
 _atom_site_fract_y
 _atom_site_fract_z
 _atom_site_occupancy
  Nd  Nd0  1  0.31971077  0.81971077  0.50000000  1
  Nd  Nd1  1  0.81971077  0.68028923  0.50000000  1
  Nd  Nd2  1  0.18028923  0.31971077  0.50000000  1
  Nd  Nd3  1  0.68028923  0.18028923  0.50000000  1
  In  In0  1  -0.00000000  -0.00000000  0.00000000  1
  In  In1  1  0.50000000  0.50000000  0.00000000  1
  Ge  Ge0  1  0.38312812  0.11687188  -0.00000000  1
  Ge  Ge1  1  0.88312812  0.38312812  -0.00000000  1
  Ge  Ge2  1  0.11687188  0.61687188  0.00000000  1
  Ge  Ge3  1  0.61687188  0.88312812  0.00000000  1
loop_
_geom_bond_atom_site_label_1
_geom_bond_atom_site_label_2
_geom_bond_distance
_geom_bond_site_symmetry_2
In0 Nd0 3.522087 1_544
In0 Nd0 3.522087 1_545
In0 Nd2 3.522087 1_554
In0 Nd2 3.522087 1_555
In0 Nd3 3.522087 1_454
In0 Nd1 3.522087 1_445
In0 Nd3 3.522087 1_455
In0 Nd1 3.522087 1_444
In1 Nd1 3.522087 1_555
In1 Nd3 3.522087 1_554
In1 Nd0 3.522087 1_554
In1 Nd2 3.522087 1_555
In1 Nd1 3.522087 1_554
In1 Nd0 3.522087 1_555
In1 Nd3 3.522087 1_555
In1 Nd2 3.522087 1_554
Ge0 Ge3 2.502755 1_545
Ge0 In1 3.032690 1_555
Ge0 In0 3.032690 1_555
Ge0 Nd2 3.065869 1_555
Ge0 Nd2 3.065869 1_554
Ge0 Nd3 3.158327 1_555
Ge0 Nd3 3.158327 1_554
Ge0 Nd0 3.158327 1_544
Ge0 Nd0 3.158327 1_545
Ge1 Ge2 2.502755 1_655
Ge1 In1 3.032690 1_555
Ge1 In0 3.032690 1_655
Ge1 Nd3 3.065869 1_554
Ge1 Nd3 3.065869 1_555
Ge1 Nd1 3.158327 1_555
Ge1 Nd1 3.158327 1_554
Ge1 Nd2 3.158327 1_655
Ge1 Nd2 3.158327 1_654
Ge2 In0 3.032690 1_565
Ge2 In1 3.032690 1_555
Ge2 Nd0 3.065869 1_554
Ge2 Nd0 3.065869 1_555
Ge2 Nd1 3.158327 1_454
Ge2 Nd2 3.158327 1_554
Ge2 Nd2 3.158327 1_555
Ge2 Nd1 3.158327 1_455
Ge3 In1 3.032690 1_555
Ge3 In0 3.032690 1_665
Ge3 Nd1 3.065869 1_555
Ge3 Nd1 3.065869 1_554
Ge3 Nd0 3.158327 1_554
Ge3 Nd0 3.158327 1_555
Ge3 Nd3 3.158327 1_565
Ge3 Nd3 3.158327 1_564
