# generated using pymatgen
data_Na3Nb4Si5PO24
_symmetry_space_group_name_H-M   'P 1'
_cell_length_a   8.95785427
_cell_length_b   8.91645840
_cell_length_c   22.89012895
_cell_angle_alpha   89.95642469
_cell_angle_beta   90.20013703
_cell_angle_gamma   119.82927479
_symmetry_Int_Tables_number   1
_chemical_formula_structural   Na3Nb4Si5PO24
_chemical_formula_sum   'Na9 Nb12 Si15 P3 O72'
_cell_volume   1586.05006968
_cell_formula_units_Z   3
loop_
 _symmetry_equiv_pos_site_id
 _symmetry_equiv_pos_as_xyz
  1  'x, y, z'
loop_
 _atom_site_type_symbol
 _atom_site_label
 _atom_site_symmetry_multiplicity
 _atom_site_fract_x
 _atom_site_fract_y
 _atom_site_fract_z
 _atom_site_occupancy
  Na  Na0  1  0.99992751  0.63416534  0.24996328  1
  Na  Na1  1  0.99897316  0.36399086  0.75010456  1
  Na  Na2  1  0.66798197  0.96849131  0.58345243  1
  Na  Na3  1  0.00629148  0.99994035  0.49908663  1
  Na  Na4  1  0.00055310  0.99990225  0.00002732  1
  Na  Na5  1  0.66035525  0.33180123  0.83393747  1
  Na  Na6  1  0.66063350  0.32600579  0.33454459  1
  Na  Na7  1  0.34048899  0.66591097  0.16582326  1
  Na  Na8  1  0.33416108  0.66584161  0.66669208  1
  Nb  Nb0  1  0.99665795  0.99751813  0.35451398  1
  Nb  Nb1  1  0.00462862  0.00345894  0.85487627  1
  Nb  Nb2  1  0.00350550  0.99877334  0.64564376  1
  Nb  Nb3  1  0.00307647  0.00088165  0.14524399  1
  Nb  Nb4  1  0.66238859  0.33344801  0.68767447  1
  Nb  Nb5  1  0.66367837  0.33347127  0.18766009  1
  Nb  Nb6  1  0.66558091  0.33452101  0.97845316  1
  Nb  Nb7  1  0.66994580  0.33370398  0.47863012  1
  Nb  Nb8  1  0.32371942  0.66128926  0.02167351  1
  Nb  Nb9  1  0.32968217  0.66679594  0.52091497  1
  Nb  Nb10  1  0.33605247  0.66986334  0.31221827  1
  Nb  Nb11  1  0.33575814  0.67368747  0.81255006  1
  Si  Si0  1  0.29012209  0.00482259  0.25075718  1
  Si  Si1  1  0.70983434  0.71451853  0.24915400  1
  Si  Si2  1  0.00001896  0.28633804  0.24992347  1
  Si  Si3  1  0.29092302  0.28801792  0.75038639  1
  Si  Si4  1  0.99870642  0.71231944  0.75095740  1
  Si  Si5  1  0.71079091  0.99624038  0.74966549  1
  Si  Si6  1  0.95738313  0.33677586  0.58420173  1
  Si  Si7  1  0.37666279  0.04788164  0.58232859  1
  Si  Si8  1  0.66629923  0.62063385  0.58247171  1
  Si  Si9  1  0.95332731  0.62175002  0.08362697  1
  Si  Si10  1  0.37778442  0.33361379  0.08251758  1
  Si  Si11  1  0.04313757  0.37775104  0.91599196  1
  Si  Si12  1  0.33346884  0.95670451  0.91774357  1
  Si  Si13  1  0.62283080  0.95594558  0.41746472  1
  Si  Si14  1  0.04341915  0.66664144  0.41573051  1
  P  P0  1  0.66636462  0.04555643  0.08283265  1
  P  P1  1  0.61967423  0.66816062  0.91746074  1
  P  P2  1  0.33326702  0.37894438  0.41664028  1
  O  O0  1  0.19640836  0.03045039  0.30770107  1
  O  O1  1  0.83714000  0.80117489  0.30623371  1
  O  O2  1  0.97033531  0.16555045  0.30730263  1
  O  O3  1  0.19584460  0.16578398  0.80739510  1
  O  O4  1  0.97005560  0.80425360  0.80770968  1
  O  O5  1  0.83777390  0.03374590  0.80609949  1
  O  O6  1  0.79871587  0.96988319  0.69062496  1
  O  O7  1  0.16288832  0.19870331  0.69379598  1
  O  O8  1  0.03033068  0.83343344  0.69320862  1
  O  O9  1  0.80373854  0.83417516  0.19226067  1
  O  O10  1  0.02963919  0.19506922  0.19268466  1
  O  O11  1  0.16280067  0.96411806  0.19373526  1
  O  O12  1  0.86892893  0.36425160  0.64268997  1
  O  O13  1  0.50369684  0.13424102  0.63943752  1
  O  O14  1  0.63711173  0.49942443  0.64018894  1
  O  O15  1  0.86771456  0.50396400  0.14223858  1
  O  O16  1  0.63934293  0.13228414  0.13762088  1
  O  O17  1  0.50042373  0.35960870  0.13987475  1
  O  O18  1  0.47243305  0.30442854  0.02605489  1
  O  O19  1  0.83240846  0.52436539  0.02681177  1
  O  O20  1  0.69345103  0.16036095  0.02835915  1
  O  O21  1  0.47140619  0.16734378  0.52551596  1
  O  O22  1  0.69602980  0.52859692  0.52575902  1
  O  O23  1  0.82928458  0.29940523  0.52755257  1
  O  O24  1  0.53367833  0.69337483  0.97159833  1
  O  O25  1  0.16793972  0.47220318  0.97307652  1
  O  O26  1  0.30844684  0.83352499  0.97388066  1
  O  O27  1  0.53348197  0.83736683  0.47565174  1
  O  O28  1  0.30732393  0.46657258  0.47124598  1
  O  O29  1  0.16713817  0.69209850  0.47263080  1
  O  O30  1  0.13303513  0.63724398  0.35771869  1
  O  O31  1  0.49915679  0.85782442  0.36060572  1
  O  O32  1  0.35927792  0.49259144  0.36206867  1
  O  O33  1  0.13510756  0.49571713  0.85798844  1
  O  O34  1  0.36259103  0.86278918  0.86016564  1
  O  O35  1  0.50645647  0.63859969  0.86212949  1
  O  O36  1  0.02823680  0.84109867  0.41027459  1
  O  O37  1  0.81368453  0.97662259  0.40960001  1
  O  O38  1  0.17093062  0.19895157  0.41042489  1
  O  O39  1  0.02255140  0.18555025  0.91029322  1
  O  O40  1  0.16038881  0.97210957  0.91031075  1
  O  O41  1  0.80054956  0.82808818  0.90994048  1
  O  O42  1  0.96699078  0.15872732  0.58980060  1
  O  O43  1  0.18651139  0.02531019  0.58995140  1
  O  O44  1  0.83277989  0.81504813  0.58977545  1
  O  O45  1  0.97293958  0.81306387  0.08975672  1
  O  O46  1  0.82920630  0.02852672  0.08958407  1
  O  O47  1  0.18694003  0.16401331  0.09043027  1
  O  O48  1  0.69871462  0.17312914  0.74326294  1
  O  O49  1  0.47975055  0.30656496  0.74348893  1
  O  O50  1  0.83410481  0.51721314  0.74372204  1
  O  O51  1  0.69940075  0.52544758  0.24251871  1
  O  O52  1  0.83310595  0.31404371  0.24249316  1
  O  O53  1  0.48152154  0.16989628  0.24225149  1
  O  O54  1  0.63851268  0.50385199  0.92358592  1
  O  O55  1  0.85363257  0.35926634  0.92479650  1
  O  O56  1  0.50470376  0.14705688  0.92417542  1
  O  O57  1  0.63856085  0.14594003  0.42293654  1
  O  O58  1  0.49562784  0.36130375  0.42285515  1
  O  O59  1  0.85292595  0.49630356  0.42357994  1
  O  O60  1  0.36395786  0.50867135  0.07588596  1
  O  O61  1  0.14617077  0.64342159  0.07604017  1
  O  O62  1  0.50574765  0.86517997  0.07584090  1
  O  O63  1  0.36557740  0.85852703  0.57593752  1
  O  O64  1  0.49880642  0.64709158  0.57615701  1
  O  O65  1  0.14789001  0.50397069  0.57556940  1
  O  O66  1  0.30075738  0.82625414  0.25735050  1
  O  O67  1  0.51862034  0.68856443  0.25766259  1
  O  O68  1  0.16677743  0.48086452  0.25741264  1
  O  O69  1  0.30230090  0.47555961  0.75787303  1
  O  O70  1  0.16750892  0.68571581  0.75721839  1
  O  O71  1  0.52068835  0.82648338  0.75741997  1
loop_
_geom_bond_atom_site_label_1
_geom_bond_atom_site_label_2
_geom_bond_distance
_geom_bond_site_symmetry_2
Na0 O51 2.369998 1_555
Na0 O66 2.372677 1_655
Na0 O68 2.482273 1_655
Na0 O52 2.482989 1_555
Na0 O15 2.728897 1_555
Na0 O30 2.730067 1_655
Na0 O11 2.859682 1_655
Na0 O1 2.859948 1_555
Na1 O48 2.366182 1_555
Na1 O69 2.389991 1_655
Na1 O50 2.464639 1_555
Na1 O70 2.495078 1_655
Na1 O12 2.717551 1_555
Na1 O33 2.742884 1_655
Na1 O7 2.856261 1_655
Na1 O5 2.859346 1_555
Na2 O42 2.355921 1_565
Na2 O63 2.384060 1_555
Na2 O44 2.465689 1_555
Na2 O64 2.493086 1_555
Na2 O6 2.712064 1_555
Na2 O27 2.736736 1_555
Na2 O13 2.858661 1_565
Na2 O23 2.863009 1_565
Na3 O36 2.541944 1_555
Na3 O43 2.568535 1_565
Na3 O37 2.614367 1_455
Na3 O38 2.618120 1_565
Na3 O44 2.628900 1_455
Na3 O42 2.635448 1_465
Na4 O45 2.577499 1_455
Na4 O39 2.582846 1_564
Na4 O40 2.589032 1_554
Na4 O47 2.600185 1_565
Na4 O46 2.652531 1_465
Na4 O41 2.656600 1_454
Na5 O49 2.563128 1_555
Na5 O56 2.579558 1_555
Na5 O50 2.622485 1_555
Na5 O54 2.628473 1_555
Na5 O48 2.630725 1_555
Na5 O55 2.633785 1_555
Na6 O57 2.528374 1_555
Na6 O53 2.594974 1_555
Na6 O59 2.608541 1_555
Na6 O58 2.618146 1_555
Na6 O52 2.650492 1_555
Na6 O51 2.665581 1_555
Na7 O60 2.559032 1_555
Na7 O67 2.581250 1_555
Na7 O61 2.631002 1_555
Na7 O62 2.643832 1_555
Na7 O68 2.646197 1_555
Na7 O66 2.660074 1_555
Na8 O71 2.599198 1_555
Na8 O64 2.600970 1_555
Na8 O65 2.608133 1_555
Na8 O69 2.614053 1_555
Na8 O70 2.615183 1_555
Na8 O63 2.619950 1_555
Nb0 O2 1.953312 1_565
Nb0 O1 1.957375 1_555
Nb0 O0 1.981510 1_665
Nb0 O37 2.005346 1_555
Nb0 O36 2.010375 1_655
Nb0 O38 2.121557 1_665
Nb1 O3 1.937610 1_555
Nb1 O4 1.967180 1_445
Nb1 O5 1.985689 1_455
Nb1 O40 2.002533 1_545
Nb1 O39 2.003339 1_555
Nb1 O41 2.131913 1_445
Nb2 O8 1.940287 1_555
Nb2 O7 1.972601 1_565
Nb2 O43 1.999201 1_565
Nb2 O6 2.008597 1_455
Nb2 O44 2.038394 1_455
Nb2 O42 2.057534 1_465
Nb3 O10 1.955763 1_555
Nb3 O11 1.959995 1_545
Nb3 O9 1.981591 1_445
Nb3 O47 2.007741 1_555
Nb3 O45 2.010387 1_445
Nb3 O46 2.115989 1_455
Nb4 O14 1.937032 1_555
Nb4 O13 1.968495 1_555
Nb4 O49 1.997589 1_555
Nb4 O12 2.016469 1_555
Nb4 O50 2.044218 1_555
Nb4 O48 2.055591 1_555
Nb5 O17 1.927922 1_555
Nb5 O15 1.994813 1_555
Nb5 O53 1.998795 1_555
Nb5 O51 2.016149 1_555
Nb5 O52 2.038803 1_555
Nb5 O16 2.046903 1_555
Nb6 O19 1.949014 1_556
Nb6 O18 1.950304 1_556
Nb6 O56 2.002159 1_555
Nb6 O55 2.009760 1_555
Nb6 O20 2.039551 1_556
Nb6 O54 2.067585 1_555
Nb7 O23 1.951262 1_555
Nb7 O22 1.958397 1_555
Nb7 O21 1.975239 1_555
Nb7 O59 2.005998 1_555
Nb7 O57 2.009886 1_555
Nb7 O58 2.120549 1_555
Nb8 O25 1.917989 1_554
Nb8 O26 1.944071 1_554
Nb8 O61 1.965975 1_555
Nb8 O60 2.000979 1_555
Nb8 O24 2.100546 1_554
Nb8 O62 2.131069 1_555
Nb9 O29 1.925534 1_555
Nb9 O27 1.991990 1_555
Nb9 O65 1.996059 1_555
Nb9 O63 2.016396 1_555
Nb9 O28 2.041015 1_555
Nb9 O64 2.043550 1_555
Nb10 O31 1.930227 1_555
Nb10 O30 1.990781 1_555
Nb10 O67 2.001129 1_555
Nb10 O66 2.013700 1_555
Nb10 O68 2.039796 1_555
Nb10 O32 2.041205 1_555
Nb11 O34 1.920022 1_555
Nb11 O71 1.989871 1_555
Nb11 O33 2.000906 1_555
Nb11 O70 2.008587 1_555
Nb11 O35 2.046266 1_555
Nb11 O69 2.061826 1_555
O0 Si0 1.629373 1_555
O1 Si1 1.648981 1_555
O2 Si2 1.634344 1_655
O3 Si3 1.642636 1_555
O4 Si4 1.624390 1_555
O5 Si5 1.639021 1_545
O6 Si5 1.641354 1_555
O7 Si3 1.646245 1_555
O8 Si4 1.640096 1_455
O9 Si1 1.629285 1_555
O10 Si2 1.633450 1_555
O11 Si0 1.647632 1_565
O12 Si6 1.637459 1_555
O13 Si7 1.648071 1_555
O14 Si8 1.643465 1_555
O15 Si9 1.641607 1_555
O16 P0 1.555376 1_555
O17 Si10 1.649673 1_555
O18 Si10 1.638483 1_555
O19 Si9 1.635470 1_555
O20 P0 1.553893 1_555
O21 Si7 1.628594 1_555
O22 Si8 1.628210 1_555
O23 Si6 1.648965 1_555
O24 P1 1.535907 1_555
O25 Si11 1.649637 1_555
O26 Si12 1.631778 1_555
O27 Si13 1.641921 1_555
O28 P2 1.552730 1_555
O29 Si14 1.648105 1_555
O30 Si14 1.641270 1_555
O31 Si13 1.647458 1_555
O32 P2 1.551362 1_555
O33 Si11 1.640531 1_555
O34 Si12 1.651581 1_555
O35 P1 1.558130 1_555
O36 Si14 1.632130 1_555
O37 Si13 1.636398 1_555
O38 P2 1.545229 1_555
O39 Si11 1.635157 1_555
O40 Si12 1.631447 1_555
O41 P1 1.546397 1_555
O42 Si6 1.636987 1_555
O43 Si7 1.622753 1_555
O44 Si8 1.638236 1_555
O45 Si9 1.631717 1_555
O46 P0 1.547102 1_555
O47 Si10 1.634654 1_555
O48 Si5 1.640148 1_545
O49 Si3 1.623870 1_555
O50 Si4 1.635487 1_555
O51 Si1 1.648457 1_555
O52 Si2 1.640470 1_655
O53 Si0 1.623357 1_555
O54 P1 1.562045 1_555
O55 Si11 1.635079 1_655
O56 Si12 1.632193 1_545
O57 Si13 1.633452 1_545
O58 P2 1.544790 1_555
O59 Si14 1.635330 1_655
O60 Si10 1.632975 1_555
O61 Si9 1.649725 1_455
O62 P0 1.542438 1_565
O63 Si7 1.647831 1_565
O64 Si8 1.636531 1_555
O65 Si6 1.626258 1_455
O66 Si0 1.648450 1_565
O67 Si1 1.622751 1_555
O68 Si2 1.640225 1_555
O69 Si3 1.633032 1_555
O70 Si4 1.648802 1_455
O71 Si5 1.630929 1_555
