# generated using pymatgen
data_Ba5Co5ClO13
_symmetry_space_group_name_H-M   'P 1'
_cell_length_a   5.78479215
_cell_length_b   5.78479215
_cell_length_c   24.78391200
_cell_angle_alpha   90.00000000
_cell_angle_beta   90.00000000
_cell_angle_gamma   120.00000171
_symmetry_Int_Tables_number   1
_chemical_formula_structural   Ba5Co5ClO13
_chemical_formula_sum   'Ba10 Co10 Cl2 O26'
_cell_volume   718.25060563
_cell_formula_units_Z   2
loop_
 _symmetry_equiv_pos_site_id
 _symmetry_equiv_pos_as_xyz
  1  'x, y, z'
loop_
 _atom_site_type_symbol
 _atom_site_label
 _atom_site_symmetry_multiplicity
 _atom_site_fract_x
 _atom_site_fract_y
 _atom_site_fract_z
 _atom_site_occupancy
  Ba  Ba0  1  0.33333300  0.66666700  0.53996800  1
  Ba  Ba1  1  0.66666700  0.33333300  0.03996800  1
  Ba  Ba2  1  0.66666700  0.33333300  0.46003200  1
  Ba  Ba3  1  0.33333300  0.66666700  0.96003200  1
  Ba  Ba4  1  0.33333300  0.66666700  0.12679700  1
  Ba  Ba5  1  0.66666700  0.33333300  0.62679700  1
  Ba  Ba6  1  0.66666700  0.33333300  0.87320300  1
  Ba  Ba7  1  0.33333300  0.66666700  0.37320300  1
  Ba  Ba8  1  0.00000000  0.00000000  0.75000000  1
  Ba  Ba9  1  0.00000000  0.00000000  0.25000000  1
  Co  Co0  1  0.66666700  0.33333300  0.17667400  1
  Co  Co1  1  0.00000000  0.00000000  0.00000000  1
  Co  Co2  1  0.33333300  0.66666700  0.67667400  1
  Co  Co3  1  0.00000000  0.00000000  0.50000000  1
  Co  Co4  1  0.66666700  0.33333300  0.32332600  1
  Co  Co5  1  0.33333300  0.66666700  0.82332600  1
  Co  Co6  1  0.00000000  0.00000000  0.89667900  1
  Co  Co7  1  0.00000000  0.00000000  0.39667900  1
  Co  Co8  1  0.00000000  0.00000000  0.10332100  1
  Co  Co9  1  0.00000000  0.00000000  0.60332100  1
  Cl  Cl0  1  0.66666700  0.33333300  0.75000000  1
  Cl  Cl1  1  0.33333300  0.66666700  0.25000000  1
  O  O0  1  0.66666700  0.33333300  0.25000000  1
  O  O1  1  0.33333300  0.66666700  0.75000000  1
  O  O2  1  0.14850000  0.29699900  0.04770600  1
  O  O3  1  0.70300100  0.85150000  0.04770600  1
  O  O4  1  0.14850000  0.85150000  0.04770600  1
  O  O5  1  0.85150000  0.14850000  0.54770600  1
  O  O6  1  0.85150000  0.14850000  0.95229400  1
  O  O7  1  0.85150000  0.70300100  0.54770600  1
  O  O8  1  0.29699900  0.14850000  0.54770600  1
  O  O9  1  0.70300100  0.85150000  0.45229400  1
  O  O10  1  0.14850000  0.29699900  0.45229400  1
  O  O11  1  0.85150000  0.70300100  0.95229400  1
  O  O12  1  0.29699900  0.14850000  0.95229400  1
  O  O13  1  0.14850000  0.85150000  0.45229400  1
  O  O14  1  0.83756100  0.67512300  0.14778100  1
  O  O15  1  0.32487700  0.16243900  0.14778100  1
  O  O16  1  0.83756100  0.16243900  0.14778100  1
  O  O17  1  0.16243900  0.83756100  0.64778100  1
  O  O18  1  0.16243900  0.83756100  0.85221900  1
  O  O19  1  0.16243900  0.32487700  0.64778100  1
  O  O20  1  0.67512300  0.83756100  0.64778100  1
  O  O21  1  0.32487700  0.16243900  0.35221900  1
  O  O22  1  0.83756100  0.16243900  0.35221900  1
  O  O23  1  0.67512300  0.83756100  0.85221900  1
  O  O24  1  0.83756100  0.67512300  0.35221900  1
  O  O25  1  0.16243900  0.32487700  0.85221900  1
loop_
_geom_bond_atom_site_label_1
_geom_bond_atom_site_label_2
_geom_bond_distance
_geom_bond_site_symmetry_2
Ba0 O13 2.855033 1_555
Ba0 O9 2.855039 1_555
Ba0 O10 2.855039 1_555
Ba0 O5 2.904456 1_455
Ba0 O5 2.904456 1_565
Ba0 O8 2.904456 1_555
Ba0 O7 2.904456 1_555
Ba0 O7 2.904456 1_455
Ba0 O8 2.904456 1_565
Ba0 O17 3.173585 1_555
Ba0 O19 3.173590 1_555
Ba0 O20 3.173590 1_555
Ba1 O6 2.855033 1_554
Ba1 O11 2.855039 1_554
Ba1 O12 2.855039 1_554
Ba1 O4 2.904456 1_655
Ba1 O4 2.904456 1_545
Ba1 O2 2.904456 1_555
Ba1 O3 2.904456 1_555
Ba1 O3 2.904456 1_545
Ba1 O2 2.904456 1_655
Ba1 O16 3.173585 1_555
Ba1 O15 3.173590 1_555
Ba1 O14 3.173590 1_555
Ba2 O5 2.855033 1_555
Ba2 O7 2.855039 1_555
Ba2 O8 2.855039 1_555
Ba2 O13 2.904456 1_655
Ba2 O13 2.904456 1_545
Ba2 O9 2.904456 1_555
Ba2 O10 2.904456 1_555
Ba2 O9 2.904456 1_545
Ba2 O10 2.904456 1_655
Ba2 O22 3.173585 1_555
Ba2 O21 3.173590 1_555
Ba2 O24 3.173590 1_555
Ba3 O4 2.855033 1_556
Ba3 O2 2.855039 1_556
Ba3 O3 2.855039 1_556
Ba3 O6 2.904456 1_565
Ba3 O6 2.904456 1_455
Ba3 O12 2.904456 1_555
Ba3 O11 2.904456 1_555
Ba3 O11 2.904456 1_455
Ba3 O12 2.904456 1_565
Ba3 O18 3.173585 1_555
Ba3 O25 3.173590 1_555
Ba3 O23 3.173590 1_555
Ba4 O4 2.696668 1_555
Ba4 O2 2.696675 1_555
Ba4 O3 2.696675 1_555
Ba4 O16 2.939084 1_455
Ba4 O16 2.939084 1_565
Ba4 O15 2.939085 1_555
Ba4 O14 2.939085 1_555
Ba4 O15 2.939085 1_565
Ba4 O14 2.939085 1_455
Ba4 Cl1 3.053452 1_555
Ba5 O5 2.696668 1_555
Ba5 O7 2.696675 1_555
Ba5 O8 2.696675 1_555
Ba5 O17 2.939084 1_545
Ba5 O17 2.939084 1_655
Ba5 O19 2.939085 1_555
Ba5 O20 2.939085 1_555
Ba5 O20 2.939085 1_545
Ba5 O19 2.939085 1_655
Ba5 Cl0 3.053452 1_555
Ba6 O6 2.696668 1_555
Ba6 O11 2.696675 1_555
Ba6 O12 2.696675 1_555
Ba6 O18 2.939084 1_545
Ba6 O18 2.939084 1_655
Ba6 O25 2.939085 1_555
Ba6 O23 2.939085 1_555
Ba6 O25 2.939085 1_655
Ba6 O23 2.939085 1_545
Ba6 Cl0 3.053452 1_555
Ba7 O13 2.696668 1_555
Ba7 O9 2.696675 1_555
Ba7 O10 2.696675 1_555
Ba7 O22 2.939084 1_565
Ba7 O22 2.939084 1_455
Ba7 O21 2.939085 1_555
Ba7 O24 2.939085 1_555
Ba7 O21 2.939085 1_565
Ba7 O24 2.939085 1_455
Ba7 Cl1 3.053452 1_555
Ba8 O20 3.011147 1_445
Ba8 O23 3.011147 1_445
Ba8 O19 3.011147 1_555
Ba8 O25 3.011147 1_555
Ba8 O18 3.011149 1_545
Ba8 O17 3.011149 1_545
Ba8 O1 3.339848 1_545
Ba8 Cl0 3.339848 1_455
Ba8 Cl0 3.339853 1_445
Ba8 Cl0 3.339853 1_555
Ba8 O1 3.339853 1_445
Ba8 O1 3.339853 1_555
Ba9 O24 3.011147 1_445
Ba9 O14 3.011147 1_445
Ba9 O15 3.011147 1_555
Ba9 O21 3.011147 1_555
Ba9 O22 3.011149 1_455
Ba9 O16 3.011149 1_455
Ba9 O0 3.339848 1_455
Ba9 Cl1 3.339848 1_545
Ba9 Cl1 3.339853 1_445
Ba9 O0 3.339853 1_445
Ba9 Cl1 3.339853 1_555
Ba9 O0 3.339853 1_555
Co0 O0 1.817305 1_555
Co0 O16 1.855985 1_555
Co0 O15 1.855994 1_555
Co0 O14 1.855994 1_555
Co1 O2 1.900467 1_555
Co1 O3 1.900467 1_445
Co1 O12 1.900467 1_554
Co1 O11 1.900467 1_444
Co1 O4 1.900471 1_545
Co1 O6 1.900471 1_454
Co2 O1 1.817305 1_555
Co2 O17 1.855985 1_555
Co2 O19 1.855994 1_555
Co2 O20 1.855994 1_555
Co3 O10 1.900467 1_555
Co3 O8 1.900467 1_555
Co3 O7 1.900467 1_445
Co3 O9 1.900467 1_445
Co3 O5 1.900471 1_455
Co3 O13 1.900471 1_545
Co4 O0 1.817305 1_555
Co4 O22 1.855985 1_555
Co4 O21 1.855994 1_555
Co4 O24 1.855994 1_555
Co5 O1 1.817305 1_555
Co5 O18 1.855985 1_555
Co5 O25 1.855994 1_555
Co5 O23 1.855994 1_555
Co6 O23 1.965483 1_445
Co6 O25 1.965483 1_555
Co6 O18 1.965487 1_545
Co6 O11 2.028229 1_445
Co6 O12 2.028229 1_555
Co6 O6 2.028232 1_455
Co7 O24 1.965483 1_445
Co7 O21 1.965483 1_555
Co7 O22 1.965487 1_455
Co7 O9 2.028229 1_445
Co7 O10 2.028229 1_555
Co7 O13 2.028232 1_545
Co8 O14 1.965483 1_445
Co8 O15 1.965483 1_555
Co8 O16 1.965487 1_455
Co8 O3 2.028229 1_445
Co8 O2 2.028229 1_555
Co8 O4 2.028232 1_545
Co9 O20 1.965483 1_445
Co9 O19 1.965483 1_555
Co9 O17 1.965487 1_545
Co9 O7 2.028229 1_445
Co9 O8 2.028229 1_555
Co9 O5 2.028232 1_455
