# generated using pymatgen
data_Sb2S3
_symmetry_space_group_name_H-M   'P 1'
_cell_length_a   3.84473291
_cell_length_b   11.36714114
_cell_length_c   11.80011845
_cell_angle_alpha   90.00000000
_cell_angle_beta   90.00000000
_cell_angle_gamma   90.00000000
_symmetry_Int_Tables_number   1
_chemical_formula_structural   Sb2S3
_chemical_formula_sum   'Sb8 S12'
_cell_volume   515.70791197
_cell_formula_units_Z   4
loop_
 _symmetry_equiv_pos_site_id
 _symmetry_equiv_pos_as_xyz
  1  'x, y, z'
loop_
 _atom_site_type_symbol
 _atom_site_label
 _atom_site_symmetry_multiplicity
 _atom_site_fract_x
 _atom_site_fract_y
 _atom_site_fract_z
 _atom_site_occupancy
  Sb  Sb0  1  0.75000000  0.46558362  0.85735040  1
  Sb  Sb1  1  0.25000000  0.53441638  0.14264960  1
  Sb  Sb2  1  0.25000000  0.96558362  0.64264960  1
  Sb  Sb3  1  0.75000000  0.03441638  0.35735040  1
  Sb  Sb4  1  0.25000000  0.17308267  0.96694360  1
  Sb  Sb5  1  0.75000000  0.82691733  0.03305640  1
  Sb  Sb6  1  0.75000000  0.67308267  0.53305640  1
  Sb  Sb7  1  0.25000000  0.32691733  0.46694360  1
  S  S0  1  0.75000000  0.06146949  0.87592716  1
  S  S1  1  0.25000000  0.93853051  0.12407284  1
  S  S2  1  0.25000000  0.56146949  0.62407284  1
  S  S3  1  0.75000000  0.43853051  0.37592716  1
  S  S4  1  0.75000000  0.37923204  0.04854145  1
  S  S5  1  0.25000000  0.62076796  0.95145855  1
  S  S6  1  0.25000000  0.87923204  0.45145855  1
  S  S7  1  0.75000000  0.12076796  0.54854145  1
  S  S8  1  0.25000000  0.18854761  0.30024927  1
  S  S9  1  0.75000000  0.81145239  0.69975073  1
  S  S10  1  0.75000000  0.68854761  0.19975073  1
  S  S11  1  0.25000000  0.31145239  0.80024927  1
loop_
_geom_bond_atom_site_label_1
_geom_bond_atom_site_label_2
_geom_bond_distance
_geom_bond_site_symmetry_2
S0 Sb4 2.541385 1_555
S0 Sb4 2.541385 1_655
S1 Sb5 2.541385 1_555
S1 Sb5 2.541385 1_455
S2 Sb6 2.541385 1_555
S2 Sb6 2.541385 1_455
S3 Sb7 2.541385 1_555
S3 Sb7 2.541385 1_655
S4 Sb0 2.460359 1_554
S4 Sb1 2.835556 1_655
S4 Sb1 2.835556 1_555
S5 Sb1 2.460359 1_556
S5 Sb0 2.835556 1_455
S5 Sb0 2.835556 1_555
S6 Sb2 2.460359 1_555
S6 Sb3 2.835556 1_465
S6 Sb3 2.835556 1_565
S7 Sb3 2.460359 1_555
S7 Sb2 2.835556 1_545
S7 Sb2 2.835556 1_645
S8 Sb7 2.518542 1_555
S8 Sb3 2.686841 1_455
S8 Sb3 2.686841 1_555
S9 Sb6 2.518542 1_555
S9 Sb2 2.686841 1_655
S9 Sb2 2.686841 1_555
S10 Sb5 2.518542 1_555
S10 Sb1 2.686841 1_555
S10 Sb1 2.686841 1_655
S11 Sb4 2.518542 1_555
S11 Sb0 2.686841 1_455
S11 Sb0 2.686841 1_555
