# generated using pymatgen
data_Ba3SrMgNb2O9
_symmetry_space_group_name_H-M   'P 1'
_cell_length_a   5.98974802
_cell_length_b   5.98912870
_cell_length_c   9.10679565
_cell_angle_alpha   89.98702363
_cell_angle_beta   89.97098341
_cell_angle_gamma   119.99379174
_symmetry_Int_Tables_number   1
_chemical_formula_structural   Ba3SrMgNb2O9
_chemical_formula_sum   'Ba3 Sr1 Mg1 Nb2 O9'
_cell_volume   282.94072669
_cell_formula_units_Z   1
loop_
 _symmetry_equiv_pos_site_id
 _symmetry_equiv_pos_as_xyz
  1  'x, y, z'
loop_
 _atom_site_type_symbol
 _atom_site_label
 _atom_site_symmetry_multiplicity
 _atom_site_fract_x
 _atom_site_fract_y
 _atom_site_fract_z
 _atom_site_occupancy
  Ba  Ba0  1  0.99986700  0.99974700  0.93818200  1
  Ba  Ba1  1  0.33347300  0.66659900  0.75331700  1
  Ba  Ba2  1  0.66653300  0.33333700  0.24467800  1
  Sr  Sr0  1  0.00051100  0.00030700  0.56202800  1
  Mg  Mg0  1  0.99993200  0.00014800  0.24901500  1
  Nb  Nb0  1  0.33318300  0.66662100  0.13809600  1
  Nb  Nb1  1  0.66668500  0.33324200  0.85631700  1
  O  O0  1  0.64783100  0.82401900  0.27647300  1
  O  O1  1  0.17593300  0.82404200  0.27669200  1
  O  O2  1  0.17593100  0.35213700  0.27697500  1
  O  O3  1  0.34455300  0.17227300  0.72952500  1
  O  O4  1  0.82797500  0.17223100  0.72954500  1
  O  O5  1  0.82797400  0.65568900  0.72952600  1
  O  O6  1  0.49843900  0.50126700  0.99933100  1
  O  O7  1  0.49843600  0.99703400  0.99926400  1
  O  O8  1  0.00274300  0.50130600  0.99936800  1
loop_
_geom_bond_atom_site_label_1
_geom_bond_atom_site_label_2
_geom_bond_distance
_geom_bond_site_symmetry_2
Ba0 O5 2.607574 1_555
Ba0 O4 2.608016 1_565
Ba0 O3 2.608287 1_665
Ba0 Mg0 2.830694 1_566
Ba0 O8 3.045165 1_655
Ba0 O6 3.045698 1_555
Ba0 O7 3.045962 1_655
Ba0 O7 3.046291 1_555
Ba0 O8 3.046840 1_665
Ba0 O6 3.047039 1_665
Ba1 O6 2.820584 1_555
Ba1 O7 2.821109 1_555
Ba1 O8 2.821171 1_555
Ba1 O3 3.002186 1_555
Ba1 O5 3.002855 1_555
Ba1 O4 3.003135 1_455
Ba1 O4 3.003605 1_565
Ba1 O5 3.003618 1_455
Ba1 O3 3.003694 1_565
Ba2 O8 2.833212 1_654
Ba2 O6 2.833934 1_554
Ba2 O7 2.835890 1_544
Ba2 O0 3.009830 1_545
Ba2 O1 3.010183 1_545
Ba2 O0 3.010345 1_555
Ba2 O2 3.010714 1_555
Ba2 O2 3.011019 1_655
Ba2 O1 3.011257 1_655
Mg0 O0 1.843418 1_545
Mg0 O2 1.843598 1_655
Mg0 O1 1.843675 1_645
Nb0 O0 2.062831 1_555
Nb0 O1 2.063082 1_555
Nb0 O2 2.063555 1_555
Nb0 O7 2.129190 1_554
Nb0 O6 2.129992 1_554
Nb0 O8 2.130175 1_554
Nb1 O4 2.031472 1_555
Nb1 O5 2.031879 1_555
Nb1 O3 2.031888 1_555
Nb1 O7 2.175647 1_545
Nb1 O6 2.176624 1_555
Nb1 O8 2.177059 1_655
O3 Sr0 2.348608 1_555
O4 Sr0 2.349160 1_655
O5 Sr0 2.349274 1_665
