# generated using pymatgen
data_Li3Ti2(PO4)3
_symmetry_space_group_name_H-M   'P 1'
_cell_length_a   9.07267422
_cell_length_b   9.07267422
_cell_length_c   9.07267423
_cell_angle_alpha   55.84949822
_cell_angle_beta   55.84949822
_cell_angle_gamma   55.84950080
_symmetry_Int_Tables_number   1
_chemical_formula_structural   Li3Ti2(PO4)3
_chemical_formula_sum   'Li6 Ti4 P6 O24'
_cell_volume   477.25859238
_cell_formula_units_Z   2
loop_
 _symmetry_equiv_pos_site_id
 _symmetry_equiv_pos_as_xyz
  1  'x, y, z'
loop_
 _atom_site_type_symbol
 _atom_site_label
 _atom_site_symmetry_multiplicity
 _atom_site_fract_x
 _atom_site_fract_y
 _atom_site_fract_z
 _atom_site_occupancy
  Li  Li0  1  0.92233400  0.26435500  0.66184000  1
  Li  Li1  1  0.66184000  0.92233400  0.26435500  1
  Li  Li2  1  0.33816000  0.07766600  0.73564500  1
  Li  Li3  1  0.07766600  0.73564500  0.33816000  1
  Li  Li4  1  0.73564500  0.33816000  0.07766600  1
  Li  Li5  1  0.26435500  0.66184000  0.92233400  1
  Ti  Ti0  1  0.85349900  0.85349900  0.85349900  1
  Ti  Ti1  1  0.65170800  0.65170800  0.65170800  1
  Ti  Ti2  1  0.14650100  0.14650100  0.14650100  1
  Ti  Ti3  1  0.34829200  0.34829200  0.34829200  1
  P  P0  1  0.45907100  0.74982600  0.04192300  1
  P  P1  1  0.95807700  0.54092900  0.25017400  1
  P  P2  1  0.04192300  0.45907100  0.74982600  1
  P  P3  1  0.25017400  0.95807700  0.54092900  1
  P  P4  1  0.54092900  0.25017400  0.95807700  1
  P  P5  1  0.74982600  0.04192300  0.45907100  1
  O  O0  1  0.61178300  0.80363100  0.00448300  1
  O  O1  1  0.53917800  0.20741300  0.15377600  1
  O  O2  1  0.49423200  0.53469600  0.16460300  1
  O  O3  1  0.38821700  0.19636900  0.99551700  1
  O  O4  1  0.74506000  0.12688100  0.86017800  1
  O  O5  1  0.25494000  0.87311900  0.13982200  1
  O  O6  1  0.19636900  0.99551700  0.38821700  1
  O  O7  1  0.20741300  0.15377600  0.53917800  1
  O  O8  1  0.00448300  0.61178300  0.80363100  1
  O  O9  1  0.50576800  0.46530400  0.83539700  1
  O  O10  1  0.79258700  0.84622400  0.46082200  1
  O  O11  1  0.86017800  0.74506000  0.12688100  1
  O  O12  1  0.46530400  0.83539700  0.50576800  1
  O  O13  1  0.46082200  0.79258700  0.84622400  1
  O  O14  1  0.15377600  0.53917800  0.20741300  1
  O  O15  1  0.13982200  0.25494000  0.87311900  1
  O  O16  1  0.84622400  0.46082200  0.79258700  1
  O  O17  1  0.99551700  0.38821700  0.19636900  1
  O  O18  1  0.53469600  0.16460300  0.49423200  1
  O  O19  1  0.12688100  0.86017800  0.74506000  1
  O  O20  1  0.87311900  0.13982200  0.25494000  1
  O  O21  1  0.16460300  0.49423200  0.53469600  1
  O  O22  1  0.80363100  0.00448300  0.61178300  1
  O  O23  1  0.83539800  0.50576800  0.46530400  1
loop_
_geom_bond_atom_site_label_1
_geom_bond_atom_site_label_2
_geom_bond_distance
_geom_bond_site_symmetry_2
Li0 O23 1.963022 1_555
Li0 O4 1.965576 1_555
Li0 O7 2.010763 1_655
Li0 O16 2.265738 1_555
Li1 O12 1.963025 1_555
Li1 O11 1.965576 1_555
Li1 O1 2.010763 1_565
Li1 O10 2.265738 1_555
Li2 O18 1.963025 1_555
Li2 O15 1.965576 1_555
Li2 O13 2.010763 1_545
Li2 O7 2.265738 1_555
Li3 O21 1.963025 1_555
Li3 O5 1.965576 1_555
Li3 O10 2.010763 1_455
Li3 O14 2.265738 1_555
Li4 O2 1.963025 1_555
Li4 O20 1.965576 1_555
Li4 O16 2.010763 1_554
Li4 O1 2.265738 1_555
Li5 O9 1.963025 1_555
Li5 O19 1.965576 1_555
Li5 O14 2.010763 1_556
Li5 O13 2.265738 1_555
O0 P0 1.522530 1_555
O0 Ti0 1.983889 1_554
O1 P4 1.582749 1_554
O1 Ti3 2.088831 1_555
O2 P0 1.552635 1_555
O2 Ti3 2.064676 1_555
O3 P4 1.522530 1_555
O3 Ti2 1.983889 1_556
O4 P4 1.553325 1_555
O4 Ti0 2.117928 1_545
O5 P0 1.553325 1_555
O5 Ti2 2.117928 1_565
O6 P3 1.522530 1_555
O6 Ti2 1.983889 1_565
O7 P3 1.582749 1_545
O7 Ti3 2.088831 1_555
O8 P2 1.522530 1_555
O8 Ti0 1.983889 1_455
O9 P4 1.552635 1_555
O9 Ti1 2.064676 1_555
O10 P5 1.582749 1_565
O10 Ti1 2.088831 1_555
O11 P1 1.553325 1_555
O11 Ti0 2.117928 1_554
O12 P3 1.552635 1_555
O12 Ti1 2.064677 1_555
O13 P0 1.582749 1_556
O13 Ti1 2.088831 1_555
O14 P1 1.582749 1_455
O14 Ti3 2.088831 1_555
O15 P2 1.553325 1_555
O15 Ti2 2.117928 1_556
O16 P2 1.582749 1_655
O16 Ti1 2.088831 1_555
O17 P1 1.522530 1_555
O17 Ti2 1.983889 1_655
O18 P5 1.552635 1_555
O18 Ti3 2.064677 1_555
O19 P3 1.553325 1_555
O19 Ti0 2.117928 1_455
O20 P5 1.553325 1_555
O20 Ti2 2.117928 1_655
O21 P2 1.552635 1_555
O21 Ti3 2.064677 1_555
O22 P5 1.522530 1_555
O22 Ti0 1.983889 1_545
O23 P1 1.552634 1_555
O23 Ti1 2.064676 1_555
