# generated using pymatgen
data_Ag5CF4
_symmetry_space_group_name_H-M   'P 1'
_cell_length_a   7.54022900
_cell_length_b   7.54022900
_cell_length_c   10.63330000
_cell_angle_alpha   90.00000000
_cell_angle_beta   90.00000000
_cell_angle_gamma   90.00000000
_symmetry_Int_Tables_number   1
_chemical_formula_structural   Ag5CF4
_chemical_formula_sum   'Ag20 C4 F16'
_cell_volume   604.55683903
_cell_formula_units_Z   4
loop_
 _symmetry_equiv_pos_site_id
 _symmetry_equiv_pos_as_xyz
  1  'x, y, z'
loop_
 _atom_site_type_symbol
 _atom_site_label
 _atom_site_symmetry_multiplicity
 _atom_site_fract_x
 _atom_site_fract_y
 _atom_site_fract_z
 _atom_site_occupancy
  Ag  Ag0  1  0.76947800  0.10207400  0.87804100  1
  Ag  Ag1  1  0.10207400  0.23052200  0.12195900  1
  Ag  Ag2  1  0.89792600  0.76947800  0.12195900  1
  Ag  Ag3  1  0.23052200  0.89792600  0.87804100  1
  Ag  Ag4  1  0.40626500  0.26405500  0.87618100  1
  Ag  Ag5  1  0.26405500  0.59373500  0.12381900  1
  Ag  Ag6  1  0.73594500  0.40626500  0.12381900  1
  Ag  Ag7  1  0.59373500  0.73594500  0.87618100  1
  Ag  Ag8  1  0.62229200  0.29795700  0.65216900  1
  Ag  Ag9  1  0.29795700  0.37770800  0.34783100  1
  Ag  Ag10  1  0.70204300  0.62229200  0.34783100  1
  Ag  Ag11  1  0.37770800  0.70204300  0.65216900  1
  Ag  Ag12  1  0.20193600  0.10856600  0.65560200  1
  Ag  Ag13  1  0.10856600  0.79806400  0.34439800  1
  Ag  Ag14  1  0.89143400  0.20193600  0.34439800  1
  Ag  Ag15  1  0.79806400  0.89143400  0.65560200  1
  Ag  Ag16  1  0.00000000  0.50000000  0.50299100  1
  Ag  Ag17  1  0.50000000  0.00000000  0.49700900  1
  Ag  Ag18  1  0.00000000  0.50000000  0.79804000  1
  Ag  Ag19  1  0.50000000  0.00000000  0.20196000  1
  C  C0  1  0.57844600  0.03831000  0.73475500  1
  C  C1  1  0.03831000  0.42155400  0.26524500  1
  C  C2  1  0.96169000  0.57844600  0.26524500  1
  C  C3  1  0.42155400  0.96169000  0.73475500  1
  F  F0  1  0.77606600  0.94273300  0.39607100  1
  F  F1  1  0.57402100  0.29389000  0.39781200  1
  F  F2  1  0.42597900  0.70611000  0.39781200  1
  F  F3  1  0.29389000  0.42597900  0.60218800  1
  F  F4  1  0.94273300  0.22393400  0.60392900  1
  F  F5  1  0.70611000  0.57402100  0.60218800  1
  F  F6  1  0.22393400  0.05726700  0.39607100  1
  F  F7  1  0.05726700  0.77606600  0.60392900  1
  F  F8  1  0.28889600  0.55513700  0.89810700  1
  F  F9  1  0.55513700  0.71110400  0.10189300  1
  F  F10  1  0.44486300  0.28889600  0.10189300  1
  F  F11  1  0.71110400  0.44486300  0.89810700  1
  F  F12  1  0.06220000  0.21017500  0.90487700  1
  F  F13  1  0.21017500  0.93780000  0.09512300  1
  F  F14  1  0.78982500  0.06220000  0.09512300  1
  F  F15  1  0.93780000  0.78982500  0.90487700  1
loop_
_geom_bond_atom_site_label_1
_geom_bond_atom_site_label_2
_geom_bond_distance
_geom_bond_site_symmetry_2
Ag0 C0 2.151129 1_555
Ag0 F14 2.332847 1_556
Ag0 F12 2.370130 1_655
Ag0 F11 2.630584 1_555
Ag0 F15 2.689907 1_545
Ag1 C1 2.151129 1_555
Ag1 F12 2.332847 1_554
Ag1 F13 2.370130 1_545
Ag1 F10 2.630584 1_555
Ag1 F14 2.689907 1_455
Ag2 C2 2.151129 1_555
Ag2 F15 2.332847 1_554
Ag2 F14 2.370130 1_565
Ag2 F9 2.630584 1_555
Ag2 F13 2.689907 1_655
Ag3 C3 2.151129 1_555
Ag3 F13 2.332847 1_556
Ag3 F15 2.370130 1_455
Ag3 F8 2.630584 1_555
Ag3 F12 2.689907 1_565
Ag4 F8 2.377986 1_555
Ag4 F10 2.424890 1_556
Ag4 F12 2.643615 1_555
Ag4 F11 2.682610 1_555
Ag5 F9 2.377986 1_555
Ag5 F8 2.424890 1_554
Ag5 F13 2.643615 1_555
Ag5 F10 2.682610 1_555
Ag6 F10 2.377986 1_555
Ag6 F11 2.424890 1_554
Ag6 F14 2.643615 1_555
Ag6 F9 2.682610 1_555
Ag7 F11 2.377986 1_555
Ag7 F9 2.424890 1_556
Ag7 F15 2.643615 1_555
Ag7 F8 2.682610 1_555
Ag8 C0 2.171046 1_555
Ag8 F5 2.239394 1_555
Ag8 F4 2.532324 1_555
Ag8 F3 2.710347 1_555
Ag8 F1 2.729207 1_555
Ag9 C1 2.171046 1_555
Ag9 F1 2.239394 1_555
Ag9 F6 2.532324 1_555
Ag9 F2 2.710347 1_555
Ag9 F3 2.729207 1_555
Ag10 C2 2.171046 1_555
Ag10 F2 2.239394 1_555
Ag10 F0 2.532324 1_555
Ag10 F1 2.710347 1_555
Ag10 F5 2.729207 1_555
Ag11 C3 2.171046 1_555
Ag11 F3 2.239394 1_555
Ag11 F7 2.532324 1_555
Ag11 F5 2.710347 1_555
Ag11 F2 2.729207 1_555
Ag12 C3 2.162668 1_545
Ag12 F4 2.208733 1_455
Ag12 F3 2.555686 1_555
Ag13 C2 2.162668 1_455
Ag13 F6 2.208733 1_565
Ag13 F2 2.555686 1_555
Ag14 C1 2.162668 1_655
Ag14 F0 2.208733 1_545
Ag14 F1 2.555686 1_555
Ag15 C0 2.162668 1_565
Ag15 F7 2.208733 1_655
Ag15 F5 2.555686 1_555
Ag16 F7 2.381491 1_555
Ag16 F4 2.381491 1_455
Ag16 F5 2.516892 1_455
Ag16 F3 2.516892 1_555
Ag17 F0 2.381491 1_545
Ag17 F6 2.381491 1_555
Ag17 F2 2.516892 1_545
Ag17 F1 2.516892 1_555
Ag18 F8 2.459716 1_555
Ag18 F11 2.459716 1_455
Ag18 F15 2.507243 1_455
Ag18 F12 2.507243 1_555
Ag19 F9 2.459716 1_545
Ag19 F10 2.459716 1_555
Ag19 F13 2.507243 1_545
Ag19 F14 2.507243 1_555
C0 C3 1.316536 1_545
C1 C2 1.316536 1_455
