# generated using pymatgen
data_MgMo2(HO2)4
_symmetry_space_group_name_H-M   'P 1'
_cell_length_a   7.90981230
_cell_length_b   6.58486104
_cell_length_c   3.89907585
_cell_angle_alpha   100.81702484
_cell_angle_beta   90.63517153
_cell_angle_gamma   118.93020056
_symmetry_Int_Tables_number   1
_chemical_formula_structural   MgMo2(HO2)4
_chemical_formula_sum   'Mg1 Mo2 H4 O8'
_cell_volume   173.35225511
_cell_formula_units_Z   1
loop_
 _symmetry_equiv_pos_site_id
 _symmetry_equiv_pos_as_xyz
  1  'x, y, z'
loop_
 _atom_site_type_symbol
 _atom_site_label
 _atom_site_symmetry_multiplicity
 _atom_site_fract_x
 _atom_site_fract_y
 _atom_site_fract_z
 _atom_site_occupancy
  Mg  Mg0  1  0.52941200  0.11275700  0.81617800  1
  Mo  Mo0  1  0.81634600  0.96479400  0.72657500  1
  Mo  Mo1  1  0.17066600  0.02129400  0.26050800  1
  H  H0  1  0.84793700  0.52968200  0.68405000  1
  H  H1  1  0.17888400  0.47789200  0.24756000  1
  H  H2  1  0.64002200  0.44647900  0.47785200  1
  H  H3  1  0.36419000  0.56018600  0.51552400  1
  O  O0  1  0.54272300  0.81194500  0.71509900  1
  O  O1  1  0.46386500  0.17460000  0.32909200  1
  O  O2  1  0.12669000  0.05490200  0.76903500  1
  O  O3  1  0.88206900  0.95431800  0.22664800  1
  O  O4  1  0.82391800  0.24788400  0.80085400  1
  O  O5  1  0.12950100  0.73249000  0.15875900  1
  O  O6  1  0.76443900  0.58990100  0.60878000  1
  O  O7  1  0.24277600  0.41462500  0.37777100  1
loop_
_geom_bond_atom_site_label_1
_geom_bond_atom_site_label_2
_geom_bond_distance
_geom_bond_site_symmetry_2
Mg0 O0 1.999919 1_545
Mg0 O4 2.059000 1_555
Mg0 O1 2.087049 1_556
Mg0 O1 2.124682 1_555
Mo0 O4 1.803142 1_565
Mo0 O0 1.890150 1_555
Mo0 O3 2.020220 1_555
Mo0 O3 2.034582 1_556
Mo0 O2 2.224921 1_665
Mo0 O6 2.250165 1_555
Mo1 O5 1.730569 1_545
Mo1 O2 2.006607 1_555
Mo1 O2 2.015196 1_554
Mo1 O1 2.022106 1_555
Mo1 O3 2.102454 1_445
Mo1 O7 2.315837 1_555
H0 O6 0.986069 1_555
H1 O7 0.981896 1_555
H2 O6 1.014748 1_555
H2 O1 1.631540 1_555
H3 O7 1.016982 1_555
H3 O0 1.604522 1_555
