# generated using pymatgen
data_MgMn6(O5F)2
_symmetry_space_group_name_H-M   'P 1'
_cell_length_a   8.12131420
_cell_length_b   5.71750818
_cell_length_c   5.89797602
_cell_angle_alpha   66.90684617
_cell_angle_beta   63.21080531
_cell_angle_gamma   65.28173664
_symmetry_Int_Tables_number   1
_chemical_formula_structural   MgMn6(O5F)2
_chemical_formula_sum   'Mg1 Mn6 O10 F2'
_cell_volume   214.94593582
_cell_formula_units_Z   1
loop_
 _symmetry_equiv_pos_site_id
 _symmetry_equiv_pos_as_xyz
  1  'x, y, z'
loop_
 _atom_site_type_symbol
 _atom_site_label
 _atom_site_symmetry_multiplicity
 _atom_site_fract_x
 _atom_site_fract_y
 _atom_site_fract_z
 _atom_site_occupancy
  Mg  Mg0  1  0.32692590  0.66616876  0.17894874  1
  Mn  Mn0  1  0.80906933  0.66811487  0.65682183  1
  Mn  Mn1  1  0.67040823  0.33613522  0.34892378  1
  Mn  Mn2  1  0.34747680  0.65819949  0.65933273  1
  Mn  Mn3  1  0.11781688  0.30644733  0.31559363  1
  Mn  Mn4  1  0.54107293  0.03259679  0.02158239  1
  Mn  Mn5  1  0.97485966  0.02196984  0.00282225  1
  O  O0  1  0.69534762  0.04307958  0.65246004  1
  O  O1  1  0.35006697  0.39402550  0.00464775  1
  O  O2  1  0.61531828  0.58748529  0.53784744  1
  O  O3  1  0.94615025  0.25158131  0.18750262  1
  O  O4  1  0.70728738  0.09754936  0.15535608  1
  O  O5  1  0.39348944  0.41251499  0.49022232  1
  O  O6  1  0.31367737  0.94772240  0.33650917  1
  O  O7  1  0.62823130  0.64763639  0.02963805  1
  O  O8  1  0.96589040  0.29819684  0.68775447  1
  O  O9  1  0.02172477  0.69915024  0.30319263  1
  F  F0  1  0.27794617  0.92803591  0.85901840  1
  F  F1  1  0.05649833  0.75338788  0.79801468  1
loop_
_geom_bond_atom_site_label_1
_geom_bond_atom_site_label_2
_geom_bond_distance
_geom_bond_site_symmetry_2
Mg0 O5 1.978964 1_555
Mg0 O1 2.085501 1_555
Mg0 O6 2.098829 1_555
Mg0 O7 2.165275 1_555
Mg0 O9 2.190071 1_555
Mn0 O0 1.942174 1_565
Mn0 O8 1.944891 1_555
Mn0 O7 2.009097 1_556
Mn0 O9 2.020711 1_655
Mn0 O2 2.244231 1_555
Mn1 O3 1.920623 1_555
Mn1 O5 1.928122 1_555
Mn1 O0 1.934793 1_555
Mn1 O2 1.943209 1_555
Mn1 O4 1.955930 1_555
Mn1 O7 2.067805 1_555
Mn2 O5 1.852501 1_555
Mn2 O2 1.869565 1_555
Mn2 O1 2.007159 1_556
Mn2 O6 2.014805 1_555
Mn3 O8 1.966916 1_455
Mn3 O6 2.000502 1_545
Mn3 O9 2.028026 1_555
Mn3 O3 2.028280 1_455
Mn3 O1 2.030545 1_555
Mn4 O0 1.953125 1_554
Mn4 O1 1.995863 1_555
Mn4 O7 1.998272 1_545
Mn4 O6 2.011561 1_545
Mn4 O4 2.047376 1_555
Mn5 O4 1.864295 1_555
Mn5 O3 1.897653 1_555
Mn5 O8 1.917370 1_554
Mn5 O9 2.036001 1_645
F0 Mg0 1.980594 1_556
F0 Mn2 2.045345 1_555
F0 Mn5 2.106290 1_466
F1 Mn2 2.020114 1_555
F1 Mn5 2.034347 1_466
