# generated using pymatgen
data_MgCd2(CoO2)4
_symmetry_space_group_name_H-M   'P 1'
_cell_length_a   6.02100200
_cell_length_b   6.33423814
_cell_length_c   6.22642500
_cell_angle_alpha   60.56146599
_cell_angle_beta   90.00000000
_cell_angle_gamma   118.37721531
_symmetry_Int_Tables_number   1
_chemical_formula_structural   MgCd2(CoO2)4
_chemical_formula_sum   'Mg1 Cd2 Co4 O8'
_cell_volume   173.29380724
_cell_formula_units_Z   1
loop_
 _symmetry_equiv_pos_site_id
 _symmetry_equiv_pos_as_xyz
  1  'x, y, z'
loop_
 _atom_site_type_symbol
 _atom_site_label
 _atom_site_symmetry_multiplicity
 _atom_site_fract_x
 _atom_site_fract_y
 _atom_site_fract_z
 _atom_site_occupancy
  Mg  Mg0  1  0.77351600  0.54703400  0.22648400  1
  Cd  Cd0  1  0.06466400  0.12932900  0.93533600  1
  Cd  Cd1  1  0.71942700  0.43885300  0.78057300  1
  Co  Co0  1  0.30364000  0.16982900  0.41508500  1
  Co  Co1  1  0.86618900  0.16982900  0.41508500  1
  Co  Co2  1  0.37737000  0.75474000  0.37055700  1
  Co  Co3  1  0.37737000  0.75474000  0.87470300  1
  O  O0  1  0.16889200  0.33778400  0.12690200  1
  O  O1  1  0.59315500  0.18631200  0.20091200  1
  O  O2  1  0.60889800  0.77562400  0.11218900  1
  O  O3  1  0.16672700  0.77562400  0.11218900  1
  O  O4  1  0.59315500  0.18631200  0.61277500  1
  O  O5  1  0.16889200  0.33778400  0.53531500  1
  O  O6  1  0.16239000  0.73893700  0.63053100  1
  O  O7  1  0.57654600  0.73893700  0.63053100  1
loop_
_geom_bond_atom_site_label_1
_geom_bond_atom_site_label_2
_geom_bond_distance
_geom_bond_site_symmetry_2
Mg0 O2 1.984108 1_555
Mg0 O3 1.984124 1_655
Mg0 O4 2.103423 1_555
Mg0 O1 2.103434 1_555
Cd0 O0 2.078576 1_556
Cd0 O5 2.078576 1_555
Cd0 O2 2.343798 1_446
Cd0 O3 2.343807 1_546
Cd1 O4 2.171472 1_555
Cd1 O1 2.171472 1_556
Cd1 O6 2.243814 1_655
Cd1 O7 2.243823 1_555
Co0 O0 1.988400 1_555
Co0 O5 1.988408 1_555
Co0 O6 2.041276 1_545
Co0 O4 2.125557 1_555
Co0 O1 2.125557 1_555
Co1 O0 1.988400 1_655
Co1 O5 1.988408 1_655
Co1 O7 2.041277 1_545
Co1 O4 2.125566 1_555
Co1 O1 2.125566 1_555
Co2 O5 1.946502 1_555
Co2 O7 2.005803 1_555
Co2 O6 2.005807 1_555
Co2 O1 2.015516 1_565
Co2 O3 2.040656 1_555
Co2 O2 2.040659 1_555
Co3 O0 1.946503 1_556
Co3 O7 2.005808 1_555
Co3 O6 2.005811 1_555
Co3 O4 2.015517 1_565
Co3 O3 2.040665 1_556
Co3 O2 2.040669 1_556
