# generated using pymatgen
data_Na6Y5Ta3(PO4)12
_symmetry_space_group_name_H-M   'P 1'
_cell_length_a   18.14198688
_cell_length_b   9.07370642
_cell_length_c   23.20697208
_cell_angle_alpha   90.06503506
_cell_angle_beta   89.89136392
_cell_angle_gamma   119.97595386
_symmetry_Int_Tables_number   1
_chemical_formula_structural   Na6Y5Ta3(PO4)12
_chemical_formula_sum   'Na18 Y15 Ta9 P36 O144'
_cell_volume   3309.20043958
_cell_formula_units_Z   3
loop_
 _symmetry_equiv_pos_site_id
 _symmetry_equiv_pos_as_xyz
  1  'x, y, z'
loop_
 _atom_site_type_symbol
 _atom_site_label
 _atom_site_symmetry_multiplicity
 _atom_site_fract_x
 _atom_site_fract_y
 _atom_site_fract_z
 _atom_site_occupancy
  Na  Na0  1  0.68048622  0.37035607  0.25008991  1
  Na  Na1  1  0.00330475  0.63637242  0.25086336  1
  Na  Na2  1  0.00182696  0.37152819  0.74690422  1
  Na  Na3  1  0.50198565  0.37154516  0.74725432  1
  Na  Na4  1  0.18163427  0.99258411  0.74650339  1
  Na  Na5  1  0.68174791  0.99291019  0.74688327  1
  Na  Na6  1  0.00037039  0.99984100  0.50385494  1
  Na  Na7  1  0.50006109  0.00024210  0.50411425  1
  Na  Na8  1  0.99813113  0.99535009  0.00489372  1
  Na  Na9  1  0.50254521  0.00572264  0.00391001  1
  Na  Na10  1  0.33331176  0.34654379  0.83499415  1
  Na  Na11  1  0.83280886  0.34614091  0.83613953  1
  Na  Na12  1  0.33302332  0.33340270  0.33838703  1
  Na  Na13  1  0.83300812  0.31809068  0.33614614  1
  Na  Na14  1  0.17323355  0.66286970  0.16850701  1
  Na  Na15  1  0.66904162  0.68915624  0.16771866  1
  Na  Na16  1  0.17595496  0.66647739  0.66083722  1
  Na  Na17  1  0.67584407  0.66621203  0.66118255  1
  Y  Y0  1  0.99778713  0.99607247  0.64369270  1
  Y  Y1  1  0.49803169  0.99582797  0.64379939  1
  Y  Y2  1  0.99785235  0.00130625  0.14543375  1
  Y  Y3  1  0.50039403  0.99919012  0.14479503  1
  Y  Y4  1  0.33291419  0.34235103  0.67996079  1
  Y  Y5  1  0.83278445  0.34250425  0.67999810  1
  Y  Y6  1  0.83271828  0.32240414  0.18237856  1
  Y  Y7  1  0.33303953  0.33117666  0.97923339  1
  Y  Y8  1  0.83366803  0.33225192  0.98138049  1
  Y  Y9  1  0.33313223  0.33237762  0.48131090  1
  Y  Y10  1  0.83350181  0.33417147  0.47978767  1
  Y  Y11  1  0.17216494  0.66800577  0.31442108  1
  Y  Y12  1  0.66560836  0.67374682  0.31543444  1
  Y  Y13  1  0.17098880  0.66617892  0.81752292  1
  Y  Y14  1  0.67071790  0.66663413  0.81781324  1
  Ta  Ta0  1  0.00200551  0.00583041  0.35490094  1
  Ta  Ta1  1  0.49671643  0.99488215  0.35446275  1
  Ta  Ta2  1  0.99849570  0.99709946  0.85726157  1
  Ta  Ta3  1  0.49892376  0.99738627  0.85670164  1
  Ta  Ta4  1  0.33358445  0.33449682  0.18567437  1
  Ta  Ta5  1  0.16815293  0.66917460  0.01922819  1
  Ta  Ta6  1  0.66462860  0.66244959  0.01784123  1
  Ta  Ta7  1  0.16574150  0.66692655  0.51576562  1
  Ta  Ta8  1  0.66608301  0.66748412  0.51552773  1
  P  P0  1  0.14757958  0.01146674  0.24996736  1
  P  P1  1  0.64513293  0.00742818  0.25216363  1
  P  P2  1  0.35825287  0.70243715  0.24929926  1
  P  P3  1  0.85701810  0.70852538  0.25280169  1
  P  P4  1  0.99742532  0.28892802  0.25273410  1
  P  P5  1  0.49315488  0.28153103  0.25054332  1
  P  P6  1  0.14323679  0.28137761  0.75330235  1
  P  P7  1  0.64350525  0.28224393  0.75308287  1
  P  P8  1  0.99724024  0.70887941  0.75416595  1
  P  P9  1  0.49728694  0.70853650  0.75397545  1
  P  P10  1  0.35701684  0.00600065  0.75313230  1
  P  P11  1  0.85700674  0.00592541  0.75326279  1
  P  P12  1  0.48809134  0.34464278  0.58232533  1
  P  P13  1  0.98742383  0.34474131  0.58214625  1
  P  P14  1  0.18421080  0.02435505  0.58269536  1
  P  P15  1  0.68490041  0.02554770  0.58218066  1
  P  P16  1  0.32762036  0.63243137  0.57904711  1
  P  P17  1  0.82770910  0.63175952  0.57872176  1
  P  P18  1  0.48152915  0.61628430  0.08248112  1
  P  P19  1  0.98707638  0.63145231  0.08254375  1
  P  P20  1  0.32673435  0.03663098  0.08305542  1
  P  P21  1  0.82805146  0.02307027  0.07905760  1
  P  P22  1  0.19194713  0.34865800  0.08322470  1
  P  P23  1  0.68375869  0.34052302  0.08203668  1
  P  P24  1  0.31793906  0.67851612  0.91842442  1
  P  P25  1  0.81671086  0.67588684  0.91795612  1
  P  P26  1  0.02363809  0.36900337  0.91637115  1
  P  P27  1  0.52136782  0.36639623  0.91435411  1
  P  P28  1  0.16108484  0.95425006  0.91557773  1
  P  P29  1  0.66110059  0.95539685  0.91574383  1
  P  P30  1  0.31589172  0.95631583  0.41582988  1
  P  P31  1  0.81738661  0.95624654  0.41559518  1
  P  P32  1  0.16203432  0.36742815  0.41624855  1
  P  P33  1  0.66044653  0.36651354  0.41279474  1
  P  P34  1  0.02290127  0.67711818  0.41266299  1
  P  P35  1  0.52087430  0.67690106  0.41585967  1
  O  O0  1  0.10232234  0.03402572  0.30521360  1
  O  O1  1  0.59064080  0.01741769  0.30539978  1
  O  O2  1  0.41309537  0.79413968  0.30497671  1
  O  O3  1  0.91655333  0.81657207  0.30571983  1
  O  O4  1  0.47996980  0.16271282  0.30461395  1
  O  O5  1  0.99480937  0.17737121  0.30700625  1
  O  O6  1  0.09210596  0.16755745  0.80789084  1
  O  O7  1  0.59224180  0.16788186  0.80749154  1
  O  O8  1  0.49157101  0.80956350  0.80855842  1
  O  O9  1  0.99154280  0.81022358  0.80879855  1
  O  O10  1  0.41250482  0.01206086  0.80762674  1
  O  O11  1  0.91262860  0.01238453  0.80791403  1
  O  O12  1  0.39867031  0.98868751  0.69948825  1
  O  O13  1  0.89873923  0.98852629  0.69973242  1
  O  O14  1  0.09119100  0.19847296  0.70001716  1
  O  O15  1  0.59133418  0.19901359  0.69982419  1
  O  O16  1  0.01009626  0.81594906  0.70126030  1
  O  O17  1  0.51002897  0.81541457  0.70103646  1
  O  O18  1  0.39870288  0.80653248  0.19667233  1
  O  O19  1  0.89723693  0.80695026  0.19839518  1
  O  O20  1  0.00515523  0.20514471  0.19884197  1
  O  O21  1  0.50936877  0.20552646  0.19762302  1
  O  O22  1  0.09226953  0.98054397  0.19795017  1
  O  O23  1  0.59749078  0.99502802  0.19747758  1
  O  O24  1  0.45571579  0.37655114  0.64095084  1
  O  O25  1  0.95516486  0.37579206  0.64102758  1
  O  O26  1  0.23196738  0.08938694  0.64139075  1
  O  O27  1  0.73219539  0.08982515  0.64112180  1
  O  O28  1  0.31162116  0.53103682  0.63599599  1
  O  O29  1  0.81149866  0.53088494  0.63582134  1
  O  O30  1  0.43301857  0.49760545  0.13717630  1
  O  O31  1  0.95466186  0.53412696  0.14040107  1
  O  O32  1  0.31567652  0.13417099  0.13729177  1
  O  O33  1  0.81188929  0.09297170  0.13546719  1
  O  O34  1  0.25199363  0.37068116  0.13754963  1
  O  O35  1  0.73123084  0.37170397  0.14029339  1
  O  O36  1  0.23030337  0.32140437  0.02993966  1
  O  O37  1  0.73072634  0.31944616  0.03199135  1
  O  O38  1  0.42974971  0.53723269  0.02948684  1
  O  O39  1  0.93022200  0.54003598  0.03210200  1
  O  O40  1  0.33983708  0.13903113  0.02960475  1
  O  O41  1  0.84005274  0.13249484  0.02723776  1
  O  O42  1  0.23097351  0.14175964  0.53321982  1
  O  O43  1  0.73165455  0.14271775  0.53288483  1
  O  O44  1  0.33998112  0.54524718  0.52788656  1
  O  O45  1  0.84026262  0.54513921  0.52770555  1
  O  O46  1  0.42974432  0.32139455  0.53281823  1
  O  O47  1  0.92912866  0.32157959  0.53276932  1
  O  O48  1  0.26857895  0.69974559  0.97117553  1
  O  O49  1  0.76481098  0.69464743  0.96940659  1
  O  O50  1  0.08644470  0.47192860  0.96796133  1
  O  O51  1  0.58199326  0.46921381  0.96608195  1
  O  O52  1  0.15369631  0.83306830  0.96740849  1
  O  O53  1  0.64981662  0.83125481  0.96721954  1
  O  O54  1  0.26669274  0.83642332  0.46835037  1
  O  O55  1  0.76753112  0.83628794  0.46826611  1
  O  O56  1  0.15136656  0.46620254  0.46895175  1
  O  O57  1  0.64991109  0.46953333  0.46447337  1
  O  O58  1  0.08394313  0.69748871  0.46484578  1
  O  O59  1  0.58139683  0.70062862  0.46848154  1
  O  O60  1  0.05932009  0.65478805  0.35640241  1
  O  O61  1  0.55889006  0.65291755  0.36165401  1
  O  O62  1  0.26626924  0.88289996  0.36115391  1
  O  O63  1  0.76758608  0.87882641  0.36125568  1
  O  O64  1  0.17279034  0.46667321  0.36187341  1
  O  O65  1  0.67231707  0.46055858  0.35639451  1
  O  O66  1  0.05927750  0.46248923  0.85970399  1
  O  O67  1  0.55744500  0.45944310  0.85771018  1
  O  O68  1  0.17115673  0.88191524  0.85887828  1
  O  O69  1  0.67148741  0.88324852  0.85894116  1
  O  O70  1  0.26842827  0.65519740  0.86360107  1
  O  O71  1  0.76880873  0.65288434  0.86227015  1
  O  O72  1  0.01994734  0.84848158  0.40798780  1
  O  O73  1  0.51649483  0.84688724  0.40959455  1
  O  O74  1  0.40381987  0.95973639  0.40944791  1
  O  O75  1  0.90684738  0.96516169  0.40976729  1
  O  O76  1  0.07693560  0.18923673  0.41115306  1
  O  O77  1  0.57431839  0.18828241  0.40720409  1
  O  O78  1  0.01886677  0.18994725  0.91176380  1
  O  O79  1  0.51802856  0.18912739  0.91081781  1
  O  O80  1  0.07549940  0.96064991  0.91233948  1
  O  O81  1  0.57603652  0.96396596  0.91150302  1
  O  O82  1  0.40600903  0.84902392  0.91293891  1
  O  O83  1  0.90494850  0.84794965  0.91305647  1
  O  O84  1  0.50499942  0.19586857  0.58512071  1
  O  O85  1  0.00479235  0.19631214  0.58503353  1
  O  O86  1  0.09290201  0.99066422  0.58518028  1
  O  O87  1  0.59330340  0.99105369  0.58487028  1
  O  O88  1  0.40206969  0.81479106  0.58322225  1
  O  O89  1  0.90172639  0.81459721  0.58320450  1
  O  O90  1  0.49751120  0.79592555  0.09050486  1
  O  O91  1  0.00663986  0.81577568  0.08490112  1
  O  O92  1  0.39941958  0.00182491  0.09177375  1
  O  O93  1  0.90192030  0.98731877  0.08251831  1
  O  O94  1  0.10196444  0.20410153  0.09257894  1
  O  O95  1  0.59206583  0.19141568  0.08296027  1
  O  O96  1  0.35484862  0.17545388  0.75392092  1
  O  O97  1  0.85498795  0.17544912  0.75407005  1
  O  O98  1  0.22963581  0.28619086  0.75321797  1
  O  O99  1  0.72972427  0.28638250  0.75304975  1
  O  O100  1  0.41746873  0.52965105  0.75302547  1
  O  O101  1  0.91743150  0.53006156  0.75321832  1
  O  O102  1  0.35349805  0.52257490  0.24169520  1
  O  O103  1  0.85578744  0.53567572  0.25353171  1
  O  O104  1  0.41044415  0.29598893  0.24160809  1
  O  O105  1  0.91512102  0.30112222  0.25432668  1
  O  O106  1  0.23743146  0.17792928  0.24100846  1
  O  O107  1  0.73038951  0.17892630  0.25442086  1
  O  O108  1  0.33423773  0.53168817  0.92421274  1
  O  O109  1  0.83381998  0.53040390  0.92464910  1
  O  O110  1  0.43188883  0.33474903  0.92170010  1
  O  O111  1  0.93486164  0.33991802  0.92445027  1
  O  O112  1  0.23448668  0.13345297  0.92274852  1
  O  O113  1  0.73485038  0.13404896  0.92336122  1
  O  O114  1  0.33436482  0.13719768  0.42356163  1
  O  O115  1  0.83353257  0.13565311  0.42294225  1
  O  O116  1  0.23526006  0.33356446  0.42304336  1
  O  O117  1  0.73304616  0.33248629  0.42233014  1
  O  O118  1  0.43102713  0.52972965  0.42336554  1
  O  O119  1  0.93380377  0.53021444  0.42169723  1
  O  O120  1  0.18826019  0.51950500  0.07584066  1
  O  O121  1  0.67778743  0.50750636  0.06908204  1
  O  O122  1  0.07617403  0.63835724  0.06931539  1
  O  O123  1  0.57088885  0.62685462  0.07537345  1
  O  O124  1  0.24187492  0.85847308  0.07546263  1
  O  O125  1  0.74255949  0.84461940  0.06889693  1
  O  O126  1  0.17856882  0.84669016  0.57018222  1
  O  O127  1  0.67945438  0.84736062  0.56989506  1
  O  O128  1  0.24390172  0.64360387  0.56927242  1
  O  O129  1  0.74360821  0.64182977  0.56856751  1
  O  O130  1  0.07629350  0.51232611  0.56994334  1
  O  O131  1  0.57706932  0.51125515  0.56971527  1
  O  O132  1  0.15963811  0.85657653  0.25666542  1
  O  O133  1  0.65785525  0.85393267  0.25558127  1
  O  O134  1  0.26705128  0.66727220  0.25478400  1
  O  O135  1  0.76481346  0.67235892  0.25679632  1
  O  O136  1  0.07363116  0.47243341  0.25545277  1
  O  O137  1  0.57092125  0.45848374  0.25871275  1
  O  O138  1  0.15153213  0.45837566  0.75720596  1
  O  O139  1  0.65188118  0.45928828  0.75701370  1
  O  O140  1  0.07705848  0.68830471  0.75848328  1
  O  O141  1  0.57719154  0.68825164  0.75817680  1
  O  O142  1  0.26459571  0.85683140  0.75594823  1
  O  O143  1  0.76458488  0.85668715  0.75603391  1
loop_
_geom_bond_atom_site_label_1
_geom_bond_atom_site_label_2
_geom_bond_distance
_geom_bond_site_symmetry_2
Na0 O107 2.327875 1_555
Na0 O135 2.384237 1_555
Na0 O137 2.493387 1_555
Na0 O65 2.625496 1_555
Na0 O35 2.705573 1_555
Na0 O103 2.757616 1_555
Na0 O21 2.954208 1_555
Na1 O103 2.357334 1_455
Na1 O136 2.397771 1_555
Na1 O132 2.528332 1_555
Na1 O60 2.626452 1_555
Na1 O105 2.637505 1_455
Na1 O31 2.719567 1_455
Na2 O97 2.356384 1_455
Na2 O138 2.432667 1_555
Na2 O140 2.505252 1_555
Na2 O101 2.575756 1_455
Na2 O25 2.606950 1_455
Na2 O66 2.786741 1_555
Na3 O96 2.359707 1_555
Na3 O139 2.432847 1_555
Na3 O141 2.503124 1_555
Na3 O100 2.573700 1_555
Na3 O24 2.615131 1_555
Na3 O67 2.724414 1_555
Na4 O98 2.358247 1_565
Na4 O142 2.384336 1_555
Na4 O140 2.462715 1_555
Na4 O26 2.598209 1_565
Na4 O96 2.729256 1_565
Na4 O68 2.767467 1_555
Na4 O16 2.894889 1_555
Na5 O99 2.356384 1_565
Na5 O143 2.385251 1_555
Na5 O141 2.463433 1_555
Na5 O27 2.612885 1_565
Na5 O97 2.729215 1_565
Na5 O69 2.757975 1_555
Na5 O17 2.902770 1_555
Na6 O89 2.531318 1_455
Na6 O86 2.557147 1_555
Na6 O85 2.565869 1_565
Na6 O76 2.668834 1_565
Na6 O75 2.687823 1_455
Na6 O72 2.727547 1_555
Na7 O88 2.523430 1_545
Na7 O84 2.554816 1_555
Na7 O87 2.556176 1_545
Na7 O73 2.691062 1_545
Na7 O74 2.716898 1_545
Na7 O77 2.735754 1_555
Na8 O93 2.481602 1_555
Na8 O91 2.526961 1_655
Na8 O83 2.633777 1_554
Na8 O80 2.666723 1_654
Na8 O78 2.696694 1_664
Na8 O94 2.778026 1_665
Na9 O95 2.472222 1_555
Na9 O81 2.648040 1_544
Na9 O79 2.656003 1_554
Na9 O82 2.657962 1_544
Na9 O90 2.739516 1_545
Na9 O92 2.752969 1_555
Na10 O100 2.484222 1_555
Na10 O98 2.533988 1_555
Na10 O96 2.588297 1_555
Na10 O108 2.659601 1_555
Na10 O110 2.732040 1_555
Na10 O112 2.762492 1_555
Na11 O101 2.506187 1_555
Na11 O99 2.551017 1_555
Na11 O97 2.607928 1_555
Na11 O109 2.641311 1_555
Na11 O113 2.745296 1_555
Na11 O111 2.783932 1_555
Na12 O116 2.644774 1_555
Na12 O118 2.657840 1_555
Na12 O114 2.669958 1_555
Na12 O102 2.736416 1_555
Na12 O104 2.755924 1_555
Na12 O106 2.769033 1_555
Na13 O105 2.462938 1_555
Na13 O107 2.513234 1_555
Na13 O115 2.611719 1_555
Na13 O103 2.633383 1_555
Na13 O119 2.734646 1_555
Na13 O117 2.743814 1_555
Na14 O120 2.595573 1_555
Na14 O134 2.617681 1_555
Na14 O124 2.674551 1_555
Na14 O136 2.682595 1_555
Na14 O132 2.785484 1_555
Na14 O122 2.841097 1_555
Na15 O133 2.594022 1_555
Na15 O123 2.662501 1_555
Na15 O125 2.672813 1_555
Na15 O135 2.755808 1_555
Na15 O121 2.869326 1_555
Na15 O137 2.877766 1_555
Na16 O128 2.514498 1_555
Na16 O126 2.651822 1_555
Na16 O130 2.674991 1_555
Na16 O142 2.769563 1_555
Na16 O138 2.816597 1_555
Na16 O140 2.955000 1_555
Na17 O129 2.537824 1_555
Na17 O127 2.663432 1_555
Na17 O131 2.680254 1_555
Na17 O143 2.765620 1_555
Na17 O139 2.801851 1_555
Na17 O141 2.941311 1_555
O0 P0 1.588447 1_555
O0 Ta0 2.057844 1_555
O1 P1 1.611375 1_555
O1 Ta1 1.971485 1_545
O2 P2 1.589648 1_555
O2 Ta1 2.044185 1_555
O3 P3 1.606257 1_555
O3 Ta0 1.999249 1_665
O4 P5 1.593222 1_555
O4 Ta1 2.053608 1_545
O5 P4 1.602452 1_555
O5 Ta0 1.970461 1_655
O6 P6 1.604104 1_555
O6 Ta2 1.990217 1_445
O7 P7 1.603184 1_555
O7 Ta3 1.985740 1_545
O8 P9 1.596080 1_555
O8 Ta3 1.984842 1_555
O9 P8 1.598620 1_555
O9 Ta2 1.984576 1_555
O10 P10 1.601590 1_555
O10 Ta3 1.997131 1_545
O11 P11 1.604944 1_555
O11 Ta2 1.995119 1_545
O12 P10 1.503382 1_565
O12 Y1 2.190543 1_555
O13 P11 1.502273 1_565
O13 Y0 2.189373 1_555
O14 P6 1.509675 1_555
O14 Y0 2.201359 1_445
O15 P7 1.510578 1_555
O15 Y1 2.199800 1_545
O16 P8 1.510260 1_455
O16 Y0 2.208326 1_455
O17 P9 1.510254 1_555
O17 Y1 2.203102 1_555
O18 P2 1.492934 1_555
O18 Y3 2.163918 1_555
O19 P3 1.507338 1_555
O19 Y2 2.175381 1_565
O20 P4 1.505158 1_455
O20 Y2 2.173760 1_455
O21 P5 1.506596 1_555
O21 Y3 2.173874 1_545
O22 P0 1.505101 1_565
O22 Y2 2.187651 1_465
O23 P1 1.508966 1_565
O23 Y3 2.161923 1_555
O24 P12 1.563917 1_555
O24 Y4 2.276267 1_555
O25 P13 1.565234 1_555
O25 Y5 2.271878 1_555
O26 P14 1.563986 1_555
O26 Y4 2.285748 1_555
O27 P15 1.565230 1_555
O27 Y5 2.285043 1_555
O28 P16 1.552999 1_555
O28 Y4 2.188101 1_555
O29 P17 1.553215 1_555
O29 Y5 2.187921 1_555
O30 P18 1.611565 1_555
O30 Ta4 2.009853 1_555
O31 P19 1.552182 1_555
O31 Y6 2.298485 1_555
O32 P20 1.606773 1_555
O32 Ta4 2.019139 1_555
O33 P21 1.544182 1_555
O33 Y6 2.207310 1_555
O34 P22 1.613430 1_555
O34 Ta4 2.009701 1_555
O35 P23 1.552301 1_555
O35 Y6 2.318357 1_555
O36 P22 1.497501 1_555
O36 Y7 2.166389 1_554
O37 P23 1.506672 1_555
O37 Y8 2.157768 1_554
O38 P18 1.496162 1_555
O38 Y7 2.158461 1_554
O39 P19 1.506541 1_555
O39 Y8 2.170523 1_554
O40 P20 1.496421 1_555
O40 Y7 2.154393 1_554
O41 P21 1.505034 1_555
O41 Y8 2.155433 1_554
O42 P14 1.506277 1_555
O42 Y9 2.161176 1_555
O43 P15 1.502160 1_555
O43 Y10 2.176921 1_555
O44 P16 1.503285 1_555
O44 Y9 2.161121 1_555
O45 P17 1.499014 1_555
O45 Y10 2.162661 1_555
O46 P12 1.505294 1_555
O46 Y9 2.166468 1_555
O47 P13 1.502555 1_555
O47 Y10 2.177396 1_555
O48 P24 1.582827 1_555
O48 Ta5 2.031728 1_556
O49 P25 1.580071 1_555
O49 Ta6 2.028424 1_556
O50 P26 1.594740 1_555
O50 Ta5 2.041279 1_556
O51 P27 1.580586 1_555
O51 Ta6 2.034696 1_556
O52 P28 1.590263 1_555
O52 Ta5 2.030153 1_556
O53 P29 1.584142 1_555
O53 Ta6 2.053036 1_556
O54 P30 1.579337 1_555
O54 Ta7 2.027782 1_555
O55 P31 1.584926 1_555
O55 Ta8 2.028678 1_555
O56 P32 1.583222 1_555
O56 Ta7 2.021736 1_555
O57 P33 1.588642 1_555
O57 Ta8 2.045950 1_555
O58 P34 1.589689 1_555
O58 Ta7 2.023398 1_555
O59 P35 1.584782 1_555
O59 Ta8 2.027745 1_555
O60 P34 1.520586 1_555
O60 Y11 2.214061 1_555
O61 P35 1.500507 1_555
O61 Y12 2.135784 1_555
O62 P30 1.505779 1_555
O62 Y11 2.137438 1_555
O63 P31 1.506026 1_555
O63 Y12 2.139867 1_555
O64 P32 1.505793 1_555
O64 Y11 2.139035 1_555
O65 P33 1.518405 1_555
O65 Y12 2.213636 1_555
O66 P26 1.522585 1_555
O66 Y13 2.176030 1_555
O67 P27 1.521927 1_555
O67 Y14 2.179635 1_555
O68 P28 1.520703 1_555
O68 Y13 2.177797 1_555
O69 P29 1.523860 1_555
O69 Y14 2.177779 1_555
O70 P24 1.511321 1_555
O70 Y13 2.112287 1_555
O71 P25 1.513682 1_555
O71 Y14 2.115644 1_555
O72 P34 1.586201 1_555
O72 Ta0 2.032751 1_565
O73 P35 1.590433 1_555
O73 Ta1 2.013986 1_555
O74 P30 1.586561 1_555
O74 Ta1 2.006492 1_555
O75 P31 1.589638 1_555
O75 Ta0 2.023332 1_665
O76 P32 1.586690 1_555
O76 Ta0 2.015631 1_555
O77 P33 1.596531 1_555
O77 Ta1 2.023003 1_545
O78 P26 1.586723 1_555
O78 Ta2 2.036876 1_445
O79 P27 1.581132 1_555
O79 Ta3 2.029378 1_545
O80 P28 1.584430 1_555
O80 Ta2 2.040636 1_455
O81 P29 1.586755 1_555
O81 Ta3 2.024366 1_555
O82 P24 1.578671 1_555
O82 Ta3 2.021147 1_555
O83 P25 1.585963 1_555
O83 Ta2 2.022101 1_555
O84 P12 1.527967 1_555
O84 Y1 2.222759 1_545
O85 P13 1.530362 1_455
O85 Y0 2.223667 1_445
O86 P14 1.527905 1_565
O86 Y0 2.213475 1_455
O87 P15 1.530750 1_565
O87 Y1 2.219294 1_555
O88 P16 1.529209 1_555
O88 Y1 2.202699 1_555
O89 P17 1.529810 1_555
O89 Y0 2.203527 1_555
O90 P18 1.517539 1_555
O90 Y3 2.211418 1_555
O91 P19 1.527383 1_455
O91 Y2 2.257164 1_465
O92 P20 1.515533 1_555
O92 Y3 2.218730 1_545
O93 P21 1.530527 1_565
O93 Y2 2.228319 1_565
O94 P22 1.513982 1_555
O94 Y2 2.231899 1_455
O95 P23 1.532673 1_555
O95 Y3 2.228301 1_545
O96 P10 1.557681 1_555
O96 Y4 2.451195 1_555
O97 P11 1.556922 1_555
O97 Y5 2.456326 1_555
O98 P6 1.546089 1_555
O98 Y4 2.386710 1_555
O99 P7 1.545763 1_555
O99 Y5 2.380701 1_555
O100 P9 1.543800 1_555
O100 Y4 2.348345 1_555
O101 P8 1.543371 1_555
O101 Y5 2.352371 1_555
O102 P2 1.600246 1_555
O102 Ta4 2.028234 1_555
O103 P3 1.557463 1_555
O103 Y6 2.415097 1_555
O104 P5 1.584225 1_555
O104 Ta4 2.060605 1_555
O105 P4 1.551780 1_555
O105 Y6 2.314892 1_555
O106 P0 1.587736 1_555
O106 Ta4 2.056566 1_555
O107 P1 1.552932 1_555
O107 Y6 2.348305 1_555
O108 P24 1.508191 1_555
O108 Y7 2.215096 1_555
O109 P25 1.507695 1_555
O109 Y8 2.228556 1_555
O110 P27 1.509954 1_555
O110 Y7 2.220963 1_555
O111 P26 1.507647 1_655
O111 Y8 2.232512 1_555
O112 P28 1.510454 1_545
O112 Y7 2.220801 1_555
O113 P29 1.510661 1_545
O113 Y8 2.245686 1_555
O114 P30 1.512674 1_545
O114 Y9 2.228706 1_555
O115 P31 1.512594 1_545
O115 Y10 2.231725 1_555
O116 P32 1.514229 1_555
O116 Y9 2.238209 1_555
O117 P33 1.512176 1_555
O117 Y10 2.254092 1_555
O118 P35 1.514882 1_555
O118 Y9 2.233288 1_555
O119 P34 1.509907 1_655
O119 Y10 2.248211 1_555
O120 P22 1.594136 1_555
O120 Ta5 2.050458 1_555
O121 P23 1.600937 1_555
O121 Ta6 1.946251 1_555
O122 P19 1.614901 1_455
O122 Ta5 1.934142 1_555
O123 P18 1.583736 1_555
O123 Ta6 2.054888 1_555
O124 P20 1.589933 1_565
O124 Ta5 2.036693 1_555
O125 P21 1.604365 1_565
O125 Ta6 1.949779 1_555
O126 P14 1.589895 1_565
O126 Ta7 1.981571 1_555
O127 P15 1.595174 1_565
O127 Ta8 1.978757 1_555
O128 P16 1.588639 1_555
O128 Ta7 1.975977 1_555
O129 P17 1.591396 1_555
O129 Ta8 1.970226 1_555
O130 P13 1.594137 1_455
O130 Ta7 1.975734 1_555
O131 P12 1.592957 1_555
O131 Ta8 1.976750 1_555
O132 P0 1.534637 1_565
O132 Y11 2.273921 1_555
O133 P1 1.523460 1_565
O133 Y12 2.204066 1_555
O134 P2 1.525575 1_555
O134 Y11 2.209342 1_555
O135 P3 1.537985 1_555
O135 Y12 2.259313 1_555
O136 P4 1.545182 1_455
O136 Y11 2.247483 1_555
O137 P5 1.530071 1_555
O137 Y12 2.269061 1_555
O138 P6 1.538955 1_555
O138 Y13 2.229360 1_555
O139 P7 1.538791 1_555
O139 Y14 2.236204 1_555
O140 P8 1.553224 1_455
O140 Y13 2.274381 1_555
O141 P9 1.553063 1_555
O141 Y14 2.274852 1_555
O142 P10 1.542596 1_565
O142 Y13 2.231427 1_555
O143 P11 1.542771 1_565
O143 Y14 2.234092 1_555
