# generated using pymatgen
data_Ba2YbMgSbO6
_symmetry_space_group_name_H-M   'P 1'
_cell_length_a   6.88639736
_cell_length_b   6.88628847
_cell_length_c   6.88497777
_cell_angle_alpha   53.29083351
_cell_angle_beta   53.29020048
_cell_angle_gamma   53.28286424
_symmetry_Int_Tables_number   1
_chemical_formula_structural   Ba2YbMgSbO6
_chemical_formula_sum   'Ba2 Yb1 Mg1 Sb1 O6'
_cell_volume   194.58269233
_cell_formula_units_Z   1
loop_
 _symmetry_equiv_pos_site_id
 _symmetry_equiv_pos_as_xyz
  1  'x, y, z'
loop_
 _atom_site_type_symbol
 _atom_site_label
 _atom_site_symmetry_multiplicity
 _atom_site_fract_x
 _atom_site_fract_y
 _atom_site_fract_z
 _atom_site_occupancy
  Ba  Ba0  1  0.69184150  0.69184059  0.69137908  1
  Ba  Ba1  1  0.25477989  0.25477085  0.25399025  1
  Yb  Yb0  1  0.49608384  0.49608219  0.49577078  1
  Mg  Mg0  1  0.88349928  0.88349606  0.88285827  1
  Sb  Sb0  1  0.03622030  0.03622607  0.03611884  1
  O  O0  1  0.25614877  0.74761087  0.74712784  1
  O  O1  1  0.24816451  0.75944437  0.24857378  1
  O  O2  1  0.74760200  0.25614706  0.74712474  1
  O  O3  1  0.24850087  0.24850395  0.76012575  1
  O  O4  1  0.75944695  0.24816243  0.24856611  1
  O  O5  1  0.74750508  0.74750654  0.25555256  1
loop_
_geom_bond_atom_site_label_1
_geom_bond_atom_site_label_2
_geom_bond_distance
_geom_bond_site_symmetry_2
Ba0 O0 2.592017 1_555
Ba0 O2 2.592018 1_555
Ba0 O5 2.592928 1_555
Ba1 O2 3.088037 1_554
Ba1 O0 3.088091 1_554
Ba1 O5 3.088947 1_545
Ba1 O5 3.089015 1_455
Ba1 O0 3.089965 1_545
Ba1 O2 3.090005 1_455
Ba1 O1 3.426244 1_555
Ba1 O4 3.426251 1_555
Ba1 O3 3.433568 1_555
Ba1 O3 3.452367 1_554
Ba1 O1 3.460929 1_545
Ba1 O4 3.461030 1_455
Mg0 O5 1.908220 1_556
Mg0 O2 1.908241 1_565
Mg0 O0 1.908251 1_655
O0 Yb0 2.338405 1_555
O1 Sb0 1.948236 1_565
O1 Yb0 2.276379 1_555
O2 Yb0 2.338381 1_555
O3 Sb0 1.948877 1_556
O3 Yb0 2.276474 1_555
O4 Sb0 1.948132 1_655
O4 Yb0 2.276373 1_555
O5 Yb0 2.338459 1_555
