# generated using pymatgen
data_Cr2TeO6
_symmetry_space_group_name_H-M   'P 1'
_cell_length_a   4.55233434
_cell_length_b   4.55244931
_cell_length_c   9.02999010
_cell_angle_alpha   89.99982045
_cell_angle_beta   89.99981033
_cell_angle_gamma   89.95221112
_symmetry_Int_Tables_number   1
_chemical_formula_structural   Cr2TeO6
_chemical_formula_sum   'Cr4 Te2 O12'
_cell_volume   187.13989993
_cell_formula_units_Z   2
loop_
 _symmetry_equiv_pos_site_id
 _symmetry_equiv_pos_as_xyz
  1  'x, y, z'
loop_
 _atom_site_type_symbol
 _atom_site_label
 _atom_site_symmetry_multiplicity
 _atom_site_fract_x
 _atom_site_fract_y
 _atom_site_fract_z
 _atom_site_occupancy
  Cr  Cr0  1  0.00000393  0.00000509  0.33458615  1
  Cr  Cr1  1  0.49999881  0.49999716  0.16419325  1
  Cr  Cr2  1  0.49999877  0.49999723  0.83506452  1
  Cr  Cr3  1  0.00000731  0.00000541  0.66606495  1
  Te  Te0  1  -0.00000561  -0.00000792  0.00001141  1
  Te  Te1  1  0.49999928  0.49999592  0.49998396  1
  O  O0  1  0.29992023  0.29994622  0.99956695  1
  O  O1  1  0.19892507  0.80112454  0.50043200  1
  O  O2  1  0.80109206  0.19889484  0.50043204  1
  O  O3  1  0.70008193  0.70003432  0.99956728  1
  O  O4  1  0.69250177  0.69247376  0.66373508  1
  O  O5  1  0.30750139  0.30754071  0.66373322  1
  O  O6  1  0.69243424  0.69240550  0.33658456  1
  O  O7  1  0.19281189  0.80721627  0.16286459  1
  O  O8  1  0.80717486  0.19277171  0.16286574  1
  O  O9  1  0.80710625  0.19284541  0.83686312  1
  O  O10  1  0.30756643  0.30760807  0.33658615  1
  O  O11  1  0.19288240  0.80714475  0.83686604  1
loop_
_geom_bond_atom_site_label_1
_geom_bond_atom_site_label_2
_geom_bond_distance
_geom_bond_site_symmetry_2
Cr0 O2 1.970067 1_455
Cr0 O1 1.970068 1_545
Cr0 O10 1.981142 1_555
Cr0 O6 1.981154 1_445
Cr0 O8 1.985916 1_455
Cr0 O7 1.985927 1_545
Cr1 O3 1.967282 1_554
Cr1 O0 1.967313 1_554
Cr1 O8 1.976986 1_555
Cr1 O7 1.977001 1_555
Cr1 O10 1.989749 1_555
Cr1 O6 1.989791 1_555
Cr2 O3 1.966450 1_555
Cr2 O0 1.966459 1_555
Cr2 O9 1.976559 1_555
Cr2 O11 1.976574 1_555
Cr2 O5 1.982533 1_555
Cr2 O4 1.982563 1_555
Cr3 O1 1.968600 1_545
Cr3 O2 1.968613 1_455
Cr3 O9 1.979714 1_455
Cr3 O11 1.979724 1_545
Cr3 O5 1.980734 1_555
Cr3 O4 1.980759 1_445
O0 Te0 1.931839 1_556
O1 Te1 1.937703 1_555
O2 Te1 1.937674 1_555
O3 Te0 1.931808 1_666
O4 Te1 1.929647 1_555
O5 Te1 1.929569 1_555
O6 Te1 1.926924 1_555
O7 Te0 1.924041 1_565
O8 Te0 1.924061 1_655
O9 Te0 1.926386 1_656
O10 Te1 1.926872 1_555
O11 Te0 1.926353 1_566
