# generated using pymatgen
data_MgV4(OF2)4
_symmetry_space_group_name_H-M   'P 1'
_cell_length_a   5.27239719
_cell_length_b   9.56270813
_cell_length_c   5.20755246
_cell_angle_alpha   105.34299771
_cell_angle_beta   119.86800616
_cell_angle_gamma   75.88288213
_symmetry_Int_Tables_number   1
_chemical_formula_structural   MgV4(OF2)4
_chemical_formula_sum   'Mg1 V4 O4 F8'
_cell_volume   217.58471393
_cell_formula_units_Z   1
loop_
 _symmetry_equiv_pos_site_id
 _symmetry_equiv_pos_as_xyz
  1  'x, y, z'
loop_
 _atom_site_type_symbol
 _atom_site_label
 _atom_site_symmetry_multiplicity
 _atom_site_fract_x
 _atom_site_fract_y
 _atom_site_fract_z
 _atom_site_occupancy
  Mg  Mg0  1  0.10634500  0.69622800  0.88728500  1
  V  V0  1  0.97932500  0.00791700  0.00024800  1
  V  V1  1  0.74511700  0.74517300  0.20852600  1
  V  V2  1  0.48494000  0.48116000  0.52583300  1
  V  V3  1  0.24384300  0.24026400  0.77619400  1
  O  O0  1  0.82396400  0.85674100  0.02014500  1
  O  O1  1  0.30375900  0.36429300  0.54020800  1
  O  O2  1  0.19695900  0.13285700  0.95860100  1
  O  O3  1  0.48265500  0.62342000  0.85937000  1
  F  F0  1  0.14869600  0.61340900  0.23737300  1
  F  F1  1  0.99450500  0.13814600  0.37668100  1
  F  F2  1  0.36902400  0.86977600  0.20079000  1
  F  F3  1  0.49054300  0.37341400  0.13670200  1
  F  F4  1  0.76080000  0.62078200  0.50308900  1
  F  F5  1  0.59793600  0.11883000  0.76131400  1
  F  F6  1  0.98870200  0.85531100  0.62631700  1
  F  F7  1  0.89538400  0.39084800  0.75008000  1
loop_
_geom_bond_atom_site_label_1
_geom_bond_atom_site_label_2
_geom_bond_distance
_geom_bond_site_symmetry_2
Mg0 O3 2.000554 1_555
Mg0 O0 2.097744 1_456
O0 V1 1.857378 1_555
O0 V0 1.874317 1_565
O1 V2 1.674317 1_555
O1 V3 2.087461 1_555
O2 V3 1.700694 1_555
O2 V0 1.960840 1_456
O3 V2 1.905281 1_555
O3 V1 1.932900 1_556
F0 V2 2.063483 1_555
F0 Mg0 2.067156 1_554
F0 V1 2.147510 1_455
F1 V3 1.958878 1_655
F1 V0 2.000126 1_555
F2 V1 2.036324 1_555
F2 V0 2.079936 1_465
F2 Mg0 2.184728 1_554
F3 V3 1.987035 1_554
F3 V2 2.026999 1_555
F4 Mg0 2.022224 1_655
F4 V1 2.136839 1_555
F4 V2 2.261559 1_555
F5 V3 1.969465 1_555
F5 V0 1.970422 1_556
F6 V1 2.038716 1_555
F6 Mg0 2.083281 1_655
F6 V0 2.116791 1_566
F7 V2 1.974229 1_555
F7 V3 2.007902 1_655
