# generated using pymatgen
data_Na2Zr2Zn2SiS5O24
_symmetry_space_group_name_H-M   'P 1'
_cell_length_a   8.86955965
_cell_length_b   8.87371756
_cell_length_c   23.28796076
_cell_angle_alpha   89.89965068
_cell_angle_beta   89.92114920
_cell_angle_gamma   119.83039252
_symmetry_Int_Tables_number   1
_chemical_formula_structural   Na2Zr2Zn2SiS5O24
_chemical_formula_sum   'Na6 Zr6 Zn6 Si3 S15 O72'
_cell_volume   1590.03739204
_cell_formula_units_Z   3
loop_
 _symmetry_equiv_pos_site_id
 _symmetry_equiv_pos_as_xyz
  1  'x, y, z'
loop_
 _atom_site_type_symbol
 _atom_site_label
 _atom_site_symmetry_multiplicity
 _atom_site_fract_x
 _atom_site_fract_y
 _atom_site_fract_z
 _atom_site_occupancy
  Na  Na0  1  0.00267921  0.00131039  0.49680282  1
  Na  Na1  1  0.99866901  0.99464003  0.99592364  1
  Na  Na2  1  0.66807222  0.32359211  0.82386909  1
  Na  Na3  1  0.65727505  0.32654894  0.33919125  1
  Na  Na4  1  0.32334707  0.67060616  0.16301266  1
  Na  Na5  1  0.33825207  0.67159929  0.66139651  1
  Zr  Zr0  1  0.98696652  0.99611349  0.64655536  1
  Zr  Zr1  1  0.00835632  0.98734918  0.14718634  1
  Zr  Zr2  1  0.67080160  0.33362403  0.18690534  1
  Zr  Zr3  1  0.67682561  0.34533068  0.97936458  1
  Zr  Zr4  1  0.33144875  0.67564892  0.31748184  1
  Zr  Zr5  1  0.34204031  0.67534173  0.80970183  1
  Zn  Zn0  1  0.01622565  0.00588740  0.35294747  1
  Zn  Zn1  1  0.99305247  0.00309855  0.84464452  1
  Zn  Zn2  1  0.66622127  0.31659480  0.68348287  1
  Zn  Zn3  1  0.66341803  0.33252806  0.48580086  1
  Zn  Zn4  1  0.31791181  0.66571651  0.01753622  1
  Zn  Zn5  1  0.33364359  0.66616834  0.51763317  1
  Si  Si0  1  0.29189986  0.00115271  0.25391979  1
  Si  Si1  1  0.71551018  0.01540180  0.75220607  1
  Si  Si2  1  0.96956867  0.62625208  0.08291607  1
  S  S0  1  0.70929251  0.71065863  0.25192140  1
  S  S1  1  0.00155961  0.28803892  0.25146110  1
  S  S2  1  0.29285539  0.28757342  0.75102740  1
  S  S3  1  0.99416111  0.70715619  0.75118098  1
  S  S4  1  0.95956792  0.34003682  0.58209658  1
  S  S5  1  0.37787093  0.04076595  0.58226926  1
  S  S6  1  0.66151129  0.61690203  0.58315201  1
  S  S7  1  0.66438848  0.03920080  0.08261291  1
  S  S8  1  0.37674094  0.33816736  0.08258800  1
  S  S9  1  0.62391574  0.67192285  0.91861399  1
  S  S10  1  0.04699102  0.37208478  0.91758032  1
  S  S11  1  0.32766504  0.95713082  0.91717956  1
  S  S12  1  0.63083550  0.96208116  0.41856004  1
  S  S13  1  0.33384944  0.37439160  0.41855863  1
  S  S14  1  0.03617587  0.66498094  0.41962668  1
  O  O0  1  0.20540894  0.03410903  0.30791946  1
  O  O1  1  0.81269415  0.78693064  0.30274695  1
  O  O2  1  0.96874315  0.18345688  0.30277071  1
  O  O3  1  0.21722333  0.18524641  0.80341627  1
  O  O4  1  0.97647070  0.78782022  0.80365065  1
  O  O5  1  0.82158577  0.03241556  0.80902441  1
  O  O6  1  0.79949428  0.97122000  0.69488875  1
  O  O7  1  0.18238719  0.20852803  0.69900629  1
  O  O8  1  0.03144702  0.81936599  0.69883038  1
  O  O9  1  0.78605733  0.81632915  0.19843912  1
  O  O10  1  0.02378181  0.20963588  0.19799749  1
  O  O11  1  0.17612776  0.96941581  0.19434757  1
  O  O12  1  0.88231636  0.36374149  0.63464280  1
  O  O13  1  0.47959594  0.11881468  0.63457031  1
  O  O14  1  0.64072476  0.51687820  0.63583051  1
  O  O15  1  0.86579764  0.50730444  0.13864138  1
  O  O16  1  0.63871160  0.12206668  0.13470995  1
  O  O17  1  0.48077910  0.35533742  0.13467093  1
  O  O18  1  0.45522695  0.30350124  0.03110858  1
  O  O19  1  0.83841429  0.53162525  0.02757226  1
  O  O20  1  0.68915596  0.15001756  0.03109748  1
  O  O21  1  0.45213671  0.14726328  0.53010935  1
  O  O22  1  0.69529556  0.54595034  0.53073992  1
  O  O23  1  0.85260052  0.30456393  0.53028718  1
  O  O24  1  0.53963971  0.69039865  0.97026001  1
  O  O25  1  0.14797811  0.45458184  0.96945128  1
  O  O26  1  0.30641663  0.85382904  0.96891966  1
  O  O27  1  0.54706968  0.85220576  0.46886492  1
  O  O28  1  0.30972806  0.45901135  0.46923607  1
  O  O29  1  0.14809560  0.69161758  0.46924898  1
  O  O30  1  0.12382510  0.64202182  0.36583244  1
  O  O31  1  0.51794316  0.87487243  0.36524672  1
  O  O32  1  0.35684592  0.48299085  0.36505341  1
  O  O33  1  0.12217011  0.48174089  0.86558734  1
  O  O34  1  0.35797355  0.87516237  0.86516779  1
  O  O35  1  0.51503906  0.64145577  0.86611721  1
  O  O36  1  0.01872597  0.82062217  0.41147485  1
  O  O37  1  0.80232915  0.97613515  0.40859813  1
  O  O38  1  0.17490654  0.20235467  0.41222829  1
  O  O39  1  0.02430905  0.19754459  0.91225967  1
  O  O40  1  0.17491765  0.97830104  0.90910811  1
  O  O41  1  0.80032046  0.81862709  0.91226110  1
  O  O42  1  0.98069114  0.17902383  0.58953735  1
  O  O43  1  0.19898719  0.02195690  0.58998434  1
  O  O44  1  0.82521184  0.79770115  0.58928611  1
  O  O45  1  0.97247658  0.81409600  0.08739569  1
  O  O46  1  0.82645928  0.03116978  0.08959570  1
  O  O47  1  0.20023032  0.18132945  0.08911452  1
  O  O48  1  0.68349055  0.17634653  0.74369571  1
  O  O49  1  0.46878809  0.31767989  0.74270951  1
  O  O50  1  0.84265395  0.53592856  0.74291744  1
  O  O51  1  0.68961039  0.53467728  0.24294329  1
  O  O52  1  0.84655289  0.31250562  0.24366431  1
  O  O53  1  0.48517391  0.16882521  0.24150800  1
  O  O54  1  0.63500376  0.50564554  0.92290840  1
  O  O55  1  0.86642131  0.35423865  0.92362546  1
  O  O56  1  0.48904912  0.13253598  0.92321843  1
  O  O57  1  0.64237376  0.13402842  0.42183634  1
  O  O58  1  0.49309956  0.35919366  0.42216270  1
  O  O59  1  0.86489827  0.50430625  0.42256273  1
  O  O60  1  0.36356850  0.49430039  0.07623558  1
  O  O61  1  0.15812478  0.64628154  0.07786237  1
  O  O62  1  0.51291566  0.86683309  0.07650825  1
  O  O63  1  0.35559993  0.86350818  0.57589278  1
  O  O64  1  0.51053708  0.64524714  0.57693891  1
  O  O65  1  0.13735617  0.49192479  0.57576295  1
  O  O66  1  0.31334822  0.82607416  0.25745810  1
  O  O67  1  0.53077963  0.68667103  0.25656716  1
  O  O68  1  0.15845390  0.46479701  0.25678274  1
  O  O69  1  0.30258251  0.46305318  0.75772074  1
  O  O70  1  0.15515312  0.68859958  0.75727605  1
  O  O71  1  0.52043217  0.83091260  0.75748646  1
loop_
_geom_bond_atom_site_label_1
_geom_bond_atom_site_label_2
_geom_bond_distance
_geom_bond_site_symmetry_2
Na0 O38 2.581389 1_555
Na0 O36 2.603289 1_545
Na0 O37 2.654009 1_445
Na0 O43 2.732871 1_555
Na0 O42 2.739617 1_455
Na0 O44 2.743789 1_445
Na1 O41 2.572337 1_555
Na1 O39 2.582408 1_665
Na1 O40 2.601938 1_655
Na1 O45 2.602850 1_556
Na1 O46 2.771756 1_566
Na1 O47 2.779784 1_666
Na2 O48 2.323257 1_555
Na2 O50 2.564924 1_555
Na2 O49 2.572270 1_555
Na2 O56 2.836633 1_555
Na2 O55 2.846642 1_555
Na2 O54 2.915135 1_555
Na3 O58 2.520265 1_555
Na3 O57 2.530490 1_555
Na3 O59 2.603775 1_555
Na3 O53 2.712768 1_555
Na3 O51 2.823812 1_555
Na3 O52 2.825195 1_555
Na4 O61 2.412702 1_555
Na4 O66 2.623063 1_555
Na4 O62 2.642536 1_555
Na4 O60 2.687586 1_555
Na4 O68 2.750070 1_555
Na4 O67 2.811265 1_555
Na5 O64 2.570421 1_555
Na5 O63 2.572003 1_555
Na5 O65 2.624607 1_555
Na5 O71 2.713934 1_555
Na5 O70 2.807251 1_555
Na5 O69 2.820939 1_555
O0 Si0 1.573932 1_555
O0 Zn0 1.885224 1_555
O1 S0 1.445136 1_555
O1 Zn0 2.219223 1_665
O2 S1 1.449194 1_655
O2 Zn0 2.163500 1_655
O3 S2 1.466578 1_555
O3 Zn1 2.068752 1_455
O4 S3 1.464348 1_555
O4 Zn1 2.075956 1_565
O5 Si1 1.587956 1_555
O5 Zn1 1.861465 1_555
O6 Si1 1.667312 1_565
O6 Zr0 1.925925 1_555
O7 S2 1.497389 1_555
O7 Zr0 2.193797 1_445
O8 S3 1.501385 1_455
O8 Zr0 2.169744 1_455
O9 S0 1.500835 1_555
O9 Zr1 2.150715 1_655
O10 S1 1.487225 1_555
O10 Zr1 2.247180 1_545
O11 Si0 1.666121 1_565
O11 Zr1 1.919728 1_555
O12 S4 1.467358 1_555
O12 Zn2 2.082516 1_555
O13 S5 1.470212 1_555
O13 Zn2 2.059039 1_555
O14 S6 1.469535 1_555
O14 Zn2 2.198844 1_555
O15 Si2 1.634242 1_555
O15 Zr2 1.991626 1_555
O16 S7 1.494484 1_555
O16 Zr2 2.135446 1_555
O17 S8 1.486511 1_555
O17 Zr2 2.164569 1_555
O18 S8 1.492822 1_555
O18 Zr3 2.172339 1_554
O19 Si2 1.659988 1_555
O19 Zr3 1.923825 1_554
O20 S7 1.494902 1_555
O20 Zr3 2.156116 1_554
O21 S5 1.475445 1_555
O21 Zn3 2.050109 1_555
O22 S6 1.471518 1_555
O22 Zn3 2.058370 1_555
O23 S4 1.470481 1_555
O23 Zn3 2.090110 1_555
O24 S9 1.467079 1_555
O24 Zn4 2.166194 1_556
O25 S10 1.466671 1_555
O25 Zn4 2.058763 1_556
O26 S11 1.466722 1_555
O26 Zn4 2.059530 1_556
O27 S12 1.465593 1_555
O27 Zn5 2.115909 1_555
O28 S13 1.471278 1_555
O28 Zn5 2.077123 1_555
O29 S14 1.465394 1_555
O29 Zn5 2.098330 1_555
O30 S14 1.539825 1_555
O30 Zr4 2.048060 1_555
O31 S12 1.542347 1_555
O31 Zr4 2.049745 1_555
O32 S13 1.523945 1_555
O32 Zr4 2.139616 1_555
O33 S10 1.485151 1_555
O33 Zr5 2.258399 1_555
O34 S11 1.505047 1_555
O34 Zr5 2.142832 1_555
O35 S9 1.498307 1_555
O35 Zr5 2.152702 1_555
O36 S14 1.476246 1_555
O36 Zn0 2.142295 1_565
O37 S12 1.480960 1_555
O37 Zn0 2.200515 1_665
O38 S13 1.483217 1_555
O38 Zn0 2.121040 1_555
O39 S10 1.464725 1_555
O39 Zn1 2.251291 1_455
O40 S11 1.469658 1_555
O40 Zn1 2.294060 1_465
O41 S9 1.461834 1_555
O41 Zn1 2.298039 1_565
O42 S4 1.540158 1_555
O42 Zr0 2.117359 1_545
O43 S5 1.520906 1_555
O43 Zr0 2.210807 1_445
O44 S6 1.544803 1_555
O44 Zr0 2.106518 1_555
O45 Si2 1.657668 1_555
O45 Zr1 1.981320 1_655
O46 S7 1.483388 1_555
O46 Zr1 2.276200 1_645
O47 S8 1.497320 1_555
O47 Zr1 2.181572 1_545
O48 Si1 1.600722 1_555
O48 Zn2 1.929426 1_555
O49 S2 1.458811 1_555
O49 Zn2 2.231402 1_555
O50 S3 1.456674 1_555
O50 Zn2 2.266718 1_555
O51 S0 1.497612 1_555
O51 Zr2 2.150932 1_555
O52 S1 1.505923 1_655
O52 Zr2 2.123129 1_555
O53 Si0 1.641833 1_555
O53 Zr2 2.014596 1_555
O54 S9 1.529916 1_555
O54 Zr3 2.099929 1_555
O55 S10 1.535223 1_655
O55 Zr3 2.092953 1_555
O56 S11 1.508694 1_545
O56 Zr3 2.221479 1_555
O57 S12 1.479688 1_545
O57 Zn3 2.244829 1_555
O58 S13 1.486650 1_555
O58 Zn3 2.212451 1_555
O59 S14 1.479820 1_655
O59 Zn3 2.227266 1_555
O60 S8 1.454462 1_555
O60 Zn4 2.225633 1_555
O61 Si2 1.595637 1_455
O61 Zn4 1.939714 1_555
O62 S7 1.456569 1_565
O62 Zn4 2.237584 1_555
O63 S5 1.492307 1_565
O63 Zn5 2.148244 1_555
O64 S6 1.487552 1_555
O64 Zn5 2.167588 1_555
O65 S4 1.486330 1_455
O65 Zn5 2.135977 1_555
O66 Si0 1.658396 1_565
O66 Zr4 1.992175 1_555
O67 S0 1.492682 1_555
O67 Zr4 2.228958 1_555
O68 S1 1.497236 1_555
O68 Zr4 2.238828 1_555
O69 S2 1.524373 1_555
O69 Zr5 2.118913 1_555
O70 S3 1.523365 1_455
O70 Zr5 2.109775 1_555
O71 Si1 1.694005 1_565
O71 Zr5 1.924491 1_555
