# generated using pymatgen
data_SbP2O7
_symmetry_space_group_name_H-M   'P 1'
_cell_length_a   6.53186800
_cell_length_b   6.62486911
_cell_length_c   7.15126077
_cell_angle_alpha   112.59363767
_cell_angle_beta   87.72747825
_cell_angle_gamma   97.86098858
_symmetry_Int_Tables_number   1
_chemical_formula_structural   SbP2O7
_chemical_formula_sum   'Sb2 P4 O14'
_cell_volume   282.99214891
_cell_formula_units_Z   2
loop_
 _symmetry_equiv_pos_site_id
 _symmetry_equiv_pos_as_xyz
  1  'x, y, z'
loop_
 _atom_site_type_symbol
 _atom_site_label
 _atom_site_symmetry_multiplicity
 _atom_site_fract_x
 _atom_site_fract_y
 _atom_site_fract_z
 _atom_site_occupancy
  Sb  Sb0  1  0.32530600  0.08891700  0.22928300  1
  Sb  Sb1  1  0.67469400  0.91108300  0.77071700  1
  P  P0  1  0.13611100  0.77360100  0.75359000  1
  P  P1  1  0.38407500  0.65656100  0.35933700  1
  P  P2  1  0.61592500  0.34343900  0.64066300  1
  P  P3  1  0.86388900  0.22639900  0.24641000  1
  O  O0  1  0.01132100  0.07737500  0.28595500  1
  O  O1  1  0.04312100  0.62211900  0.84764100  1
  O  O2  1  0.29863500  0.77579900  0.24044500  1
  O  O3  1  0.22712000  0.64306500  0.53297000  1
  O  O4  1  0.33586500  0.93952200  0.87673700  1
  O  O5  1  0.41057100  0.41854900  0.22672100  1
  O  O6  1  0.40800000  0.21470700  0.53290700  1
  O  O7  1  0.59200000  0.78529300  0.46709300  1
  O  O8  1  0.58942900  0.58145100  0.77327900  1
  O  O9  1  0.66413500  0.06047800  0.12326300  1
  O  O10  1  0.77288000  0.35693500  0.46703000  1
  O  O11  1  0.70136500  0.22420100  0.75955500  1
  O  O12  1  0.95687900  0.37788100  0.15235900  1
  O  O13  1  0.98867900  0.92262500  0.71404500  1
loop_
_geom_bond_atom_site_label_1
_geom_bond_atom_site_label_2
_geom_bond_distance
_geom_bond_site_symmetry_2
O0 P3 1.574243 1_455
O0 Sb0 2.071550 1_555
O1 P0 1.465576 1_555
O2 P1 1.527295 1_555
O2 Sb0 2.089734 1_565
O3 P1 1.600041 1_555
O3 P0 1.615016 1_555
O4 P0 1.625184 1_555
O4 Sb1 2.319429 1_555
O4 Sb0 2.329823 1_566
O5 P1 1.525860 1_555
O5 Sb0 2.185546 1_555
O6 P2 1.557841 1_555
O6 Sb0 2.068883 1_555
O7 P1 1.557841 1_555
O7 Sb1 2.068883 1_555
O8 P2 1.525860 1_555
O8 Sb1 2.185546 1_555
O9 P3 1.625184 1_555
O9 Sb0 2.319429 1_555
O9 Sb1 2.329823 1_544
O10 P2 1.600041 1_555
O10 P3 1.615016 1_555
O11 P2 1.527295 1_555
O11 Sb1 2.089734 1_545
O12 P3 1.465576 1_555
O13 P0 1.574243 1_655
O13 Sb1 2.071550 1_555
