# generated using pymatgen
data_MgZnCu2SnS4
_symmetry_space_group_name_H-M   'P 1'
_cell_length_a   6.32332342
_cell_length_b   6.32332347
_cell_length_c   6.28656486
_cell_angle_alpha   114.62306053
_cell_angle_beta   109.06121599
_cell_angle_gamma   105.13508791
_symmetry_Int_Tables_number   1
_chemical_formula_structural   MgZnCu2SnS4
_chemical_formula_sum   'Mg1 Zn1 Cu2 Sn1 S4'
_cell_volume   191.52070021
_cell_formula_units_Z   1
loop_
 _symmetry_equiv_pos_site_id
 _symmetry_equiv_pos_as_xyz
  1  'x, y, z'
loop_
 _atom_site_type_symbol
 _atom_site_label
 _atom_site_symmetry_multiplicity
 _atom_site_fract_x
 _atom_site_fract_y
 _atom_site_fract_z
 _atom_site_occupancy
  Mg  Mg0  1  0.30919187  0.95877969  0.26797156  1
  Zn  Zn0  1  0.93243284  0.00178646  0.93421930  1
  Cu  Cu0  1  0.88655311  0.24432963  0.57000420  1
  Cu  Cu1  1  0.32567457  0.68345108  0.57000420  1
  Sn  Sn0  1  0.46168906  0.44874346  0.91043253  1
  S  S0  1  0.88892926  0.90442361  0.25430140  1
  S  S1  1  0.34987879  0.36537314  0.25430140  1
  S  S2  1  0.08835302  0.68193258  0.77028661  1
  S  S3  1  0.62634547  0.09213235  0.71847882  1
loop_
_geom_bond_atom_site_label_1
_geom_bond_atom_site_label_2
_geom_bond_distance
_geom_bond_site_symmetry_2
Mg0 S2 2.471693 1_554
Mg0 S3 2.484169 1_565
Mg0 S0 2.556726 1_455
Mg0 S1 2.556732 1_565
Cu0 S0 2.245120 1_545
Cu0 S2 2.252558 1_655
Cu0 S3 2.330119 1_555
Cu1 S1 2.245120 1_555
Cu1 S2 2.252564 1_555
Cu1 S3 2.330112 1_565
S0 Zn0 2.410216 1_564
S0 Sn0 2.684079 1_554
S1 Zn0 2.410222 1_454
S1 Sn0 2.684074 1_554
S2 Zn0 2.468374 1_465
S3 Zn0 2.328182 1_555
S3 Sn0 2.721078 1_555
