# generated using pymatgen
data_Na42Nb16Zn8Si33(SO48)3
_symmetry_space_group_name_H-M   'P 1'
_cell_length_a   18.26425929
_cell_length_b   9.14047339
_cell_length_c   22.48237536
_cell_angle_alpha   89.95864772
_cell_angle_beta   90.13730531
_cell_angle_gamma   120.08122146
_symmetry_Int_Tables_number   1
_chemical_formula_structural   Na42Nb16Zn8Si33(SO48)3
_chemical_formula_sum   'Na42 Nb16 Zn8 Si33 S3 O144'
_cell_volume   3247.77727146
_cell_formula_units_Z   1
loop_
 _symmetry_equiv_pos_site_id
 _symmetry_equiv_pos_as_xyz
  1  'x, y, z'
loop_
 _atom_site_type_symbol
 _atom_site_label
 _atom_site_symmetry_multiplicity
 _atom_site_fract_x
 _atom_site_fract_y
 _atom_site_fract_z
 _atom_site_occupancy
  Na  Na0  1  0.31404423  0.98216589  0.25374772  1
  Na  Na1  1  0.81539058  0.98346268  0.25424273  1
  Na  Na2  1  0.17951994  0.38282375  0.25318583  1
  Na  Na3  1  0.68028073  0.38413910  0.25321982  1
  Na  Na4  1  0.00662248  0.63572841  0.25880261  1
  Na  Na5  1  0.50581541  0.63373676  0.25721788  1
  Na  Na6  1  0.31541949  0.64840506  0.75476853  1
  Na  Na7  1  0.80922393  0.63875775  0.75354326  1
  Na  Na8  1  0.00492376  0.38063647  0.75590070  1
  Na  Na9  1  0.51170210  0.37887452  0.75589849  1
  Na  Na10  1  0.17990364  0.97599986  0.75362240  1
  Na  Na11  1  0.67989391  0.97920630  0.75353823  1
  Na  Na12  1  0.14264698  0.31996826  0.58472979  1
  Na  Na13  1  0.64178816  0.31595452  0.59078663  1
  Na  Na14  1  0.01613804  0.71449878  0.58899878  1
  Na  Na15  1  0.51854757  0.72189680  0.58982370  1
  Na  Na16  1  0.34200577  0.96275004  0.58962460  1
  Na  Na17  1  0.84152129  0.96713006  0.58974396  1
  Na  Na18  1  0.34015891  0.71746322  0.08901027  1
  Na  Na19  1  0.84030976  0.71773360  0.08952576  1
  Na  Na20  1  0.01827260  0.31786509  0.08906673  1
  Na  Na21  1  0.51699606  0.31597493  0.08838277  1
  Na  Na22  1  0.48536424  0.66358581  0.91438405  1
  Na  Na23  1  0.98813063  0.66075583  0.91445351  1
  Na  Na24  1  0.34661000  0.02755581  0.91533719  1
  Na  Na25  1  0.84394957  0.02756058  0.91422894  1
  Na  Na26  1  0.66584958  0.30575967  0.91388043  1
  Na  Na27  1  0.48733427  0.31404556  0.41472206  1
  Na  Na28  1  0.34331818  0.66065408  0.41424266  1
  Na  Na29  1  0.84563046  0.65986385  0.41481616  1
  Na  Na30  1  0.00344318  0.00556810  0.50507969  1
  Na  Na31  1  0.50489592  0.00011951  0.50763147  1
  Na  Na32  1  0.00965343  0.00844486  0.00959350  1
  Na  Na33  1  0.50387480  0.99893415  0.00846386  1
  Na  Na34  1  0.33100358  0.33343984  0.83628298  1
  Na  Na35  1  0.83282703  0.33280765  0.83244867  1
  Na  Na36  1  0.32930153  0.32677629  0.33453091  1
  Na  Na37  1  0.83534431  0.32781052  0.33709408  1
  Na  Na38  1  0.16662106  0.66455940  0.17152924  1
  Na  Na39  1  0.66728484  0.66427312  0.17183358  1
  Na  Na40  1  0.16754203  0.67778408  0.67242447  1
  Na  Na41  1  0.66662313  0.66584343  0.67634544  1
  Nb  Nb0  1  0.99320935  -0.00028434  0.35747428  1
  Nb  Nb1  1  0.49409766  0.99680055  0.35610867  1
  Nb  Nb2  1  0.99491563  0.99245703  0.85609997  1
  Nb  Nb3  1  0.49836875  0.99899463  0.85149845  1
  Nb  Nb4  1  0.33912182  0.33538480  0.68495013  1
  Nb  Nb5  1  0.83268886  0.33312610  0.68818537  1
  Nb  Nb6  1  0.33764626  0.33991904  0.18440212  1
  Nb  Nb7  1  0.83858879  0.34195947  0.18487521  1
  Nb  Nb8  1  0.32995338  0.33417284  0.98075202  1
  Nb  Nb9  1  0.83340269  0.33321313  0.98158906  1
  Nb  Nb10  1  0.33032105  0.33016607  0.47938532  1
  Nb  Nb11  1  0.83483490  0.32924401  0.47889095  1
  Nb  Nb12  1  0.16696588  0.66884868  0.01975944  1
  Nb  Nb13  1  0.66602275  0.66871522  0.02102965  1
  Nb  Nb14  1  0.16452592  0.66424987  0.51790447  1
  Nb  Nb15  1  0.66678611  0.66745986  0.51874712  1
  Zn  Zn0  1  0.99395954  0.98398540  0.64639262  1
  Zn  Zn1  1  0.49985590  0.99956651  0.65121581  1
  Zn  Zn2  1  0.99727383  0.00292219  0.14592824  1
  Zn  Zn3  1  0.49696463  0.00267797  0.14516377  1
  Zn  Zn4  1  0.16522807  0.65479276  0.32135949  1
  Zn  Zn5  1  0.66732447  0.65681897  0.32092475  1
  Zn  Zn6  1  0.16746734  0.67768716  0.82189724  1
  Zn  Zn7  1  0.66616550  0.66637256  0.81674942  1
  Si  Si0  1  0.35229823  0.70776101  0.24653135  1
  Si  Si1  1  0.85317844  0.70964667  0.24712573  1
  Si  Si2  1  0.00142850  0.29353924  0.24680588  1
  Si  Si3  1  0.50125492  0.29418745  0.24684028  1
  Si  Si4  1  0.64523129  0.29256403  0.74666952  1
  Si  Si5  1  0.00253232  0.70999664  0.74674244  1
  Si  Si6  1  0.50006838  0.70777194  0.74675117  1
  Si  Si7  1  0.35125282  0.99581776  0.74645907  1
  Si  Si8  1  0.85409659  0.99906679  0.74646767  1
  Si  Si9  1  0.48136599  0.33436262  0.58053089  1
  Si  Si10  1  0.98002445  0.33514822  0.58448269  1
  Si  Si11  1  0.18725633  0.03996531  0.58408868  1
  Si  Si12  1  0.68859682  0.04210201  0.58260766  1
  Si  Si13  1  0.33214078  0.62443509  0.58298009  1
  Si  Si14  1  0.83214616  0.62190288  0.58174073  1
  Si  Si15  1  0.48196502  0.63154876  0.08183224  1
  Si  Si16  1  0.98329084  0.63320365  0.08218996  1
  Si  Si17  1  0.33053566  0.04038972  0.08251172  1
  Si  Si18  1  0.83049035  0.03897701  0.08381526  1
  Si  Si19  1  0.18545254  0.33011779  0.08428251  1
  Si  Si20  1  0.68583347  0.32940637  0.08353902  1
  Si  Si21  1  0.30999737  0.66284268  0.91329320  1
  Si  Si22  1  0.80958175  0.66227819  0.91551075  1
  Si  Si23  1  0.02303640  0.37581063  0.91486002  1
  Si  Si24  1  0.52036175  0.37538745  0.91538623  1
  Si  Si25  1  0.16722500  0.96181727  0.91484617  1
  Si  Si26  1  0.66663924  0.95804527  0.91435845  1
  Si  Si27  1  0.30770930  0.95712551  0.41352859  1
  Si  Si28  1  0.80796905  0.95769947  0.41311292  1
  Si  Si29  1  0.16478744  0.37118137  0.41445917  1
  Si  Si30  1  0.66734475  0.37138429  0.41517626  1
  Si  Si31  1  0.02150644  0.66786521  0.41294392  1
  Si  Si32  1  0.52213870  0.66973354  0.41428573  1
  S  S0  1  0.14431046  0.00337101  0.24873900  1
  S  S1  1  0.64373572  0.00335681  0.24844382  1
  S  S2  1  0.14559469  0.28811798  0.74872748  1
  O  O0  1  0.10500880  0.03034106  0.30333975  1
  O  O1  1  0.60363466  0.02930956  0.30360267  1
  O  O2  1  0.41616438  0.80180083  0.30725051  1
  O  O3  1  0.91610755  0.80019476  0.30742143  1
  O  O4  1  0.48619844  0.16594880  0.30680236  1
  O  O5  1  0.98595463  0.16104298  0.30494059  1
  O  O6  1  0.10323345  0.17787556  0.80207457  1
  O  O7  1  0.59797087  0.16531348  0.80689012  1
  O  O8  1  0.48259526  0.80020342  0.80663780  1
  O  O9  1  0.98801577  0.80925229  0.80648405  1
  O  O10  1  0.41525278  0.03181033  0.80659597  1
  O  O11  1  0.91728361  0.02961162  0.80708678  1
  O  O12  1  0.39346208  0.97141364  0.68798316  1
  O  O13  1  0.89795219  0.97557508  0.68870922  1
  O  O14  1  0.09734795  0.21306471  0.69398414  1
  O  O15  1  0.58944769  0.21110695  0.68822687  1
  O  O16  1  0.02072926  0.82698588  0.68916094  1
  O  O17  1  0.51329312  0.81615933  0.68799426  1
  O  O18  1  0.39771097  0.81931536  0.18931318  1
  O  O19  1  0.89709804  0.81892614  0.18895491  1
  O  O20  1  0.01746900  0.21303924  0.18869872  1
  O  O21  1  0.51771043  0.21151038  0.18962413  1
  O  O22  1  0.09439126  0.97973201  0.19574566  1
  O  O23  1  0.59429412  0.97978407  0.19625487  1
  O  O24  1  0.43383720  0.36638335  0.64018463  1
  O  O25  1  0.93434759  0.36935100  0.64279831  1
  O  O26  1  0.25010589  0.13452645  0.64279462  1
  O  O27  1  0.75091382  0.13343442  0.64181730  1
  O  O28  1  0.31602726  0.49617908  0.64121727  1
  O  O29  1  0.81655674  0.49858514  0.64083691  1
  O  O30  1  0.43388640  0.50038496  0.14076041  1
  O  O31  1  0.93395590  0.50120541  0.14061710  1
  O  O32  1  0.31860803  0.13691118  0.14189349  1
  O  O33  1  0.81857447  0.13664843  0.14226538  1
  O  O34  1  0.25018689  0.36443508  0.14250547  1
  O  O35  1  0.75072054  0.36312751  0.14141045  1
  O  O36  1  0.24030131  0.31835707  0.02807785  1
  O  O37  1  0.73899810  0.31892365  0.02553336  1
  O  O38  1  0.42078446  0.52664782  0.02521866  1
  O  O39  1  0.92098208  0.52565588  0.02557945  1
  O  O40  1  0.34164155  0.16336800  0.02583178  1
  O  O41  1  0.84032168  0.16054613  0.02621006  1
  O  O42  1  0.24052196  0.16540376  0.52831313  1
  O  O43  1  0.74167170  0.16814657  0.52762574  1
  O  O44  1  0.34183442  0.52205908  0.52591112  1
  O  O45  1  0.84333906  0.52370840  0.52491599  1
  O  O46  1  0.41967997  0.31692193  0.52496096  1
  O  O47  1  0.91786392  0.31242125  0.52823517  1
  O  O48  1  0.26477105  0.69718645  0.97230531  1
  O  O49  1  0.76744278  0.69995152  0.97438318  1
  O  O50  1  0.08142372  0.46868800  0.97458746  1
  O  O51  1  0.58353212  0.46751904  0.97417874  1
  O  O52  1  0.14969837  0.82922942  0.97127444  1
  O  O53  1  0.65166225  0.82958488  0.97200886  1
  O  O54  1  0.26547694  0.83357857  0.47296539  1
  O  O55  1  0.76458922  0.83201028  0.47223362  1
  O  O56  1  0.15268531  0.46741930  0.47411202  1
  O  O57  1  0.64947431  0.46550119  0.47320891  1
  O  O58  1  0.08211708  0.69276177  0.47313521  1
  O  O59  1  0.58160262  0.69349419  0.47400981  1
  O  O60  1  0.05896401  0.63653485  0.35393089  1
  O  O61  1  0.55685070  0.62359737  0.35635545  1
  O  O62  1  0.25802254  0.88224599  0.35323529  1
  O  O63  1  0.75747066  0.88223881  0.35302884  1
  O  O64  1  0.19245515  0.48863163  0.35684145  1
  O  O65  1  0.68935687  0.48454999  0.35659357  1
  O  O66  1  0.05645829  0.49025544  0.85640549  1
  O  O67  1  0.55594497  0.49047859  0.85743892  1
  O  O68  1  0.19051036  0.89746069  0.85572317  1
  O  O69  1  0.69100784  0.89079209  0.85660052  1
  O  O70  1  0.25766963  0.63172581  0.85335422  1
  O  O71  1  0.75442823  0.62123334  0.85678843  1
  O  O72  1  0.00891200  0.83616582  0.41038473  1
  O  O73  1  0.50898748  0.83598902  0.41000527  1
  O  O74  1  0.40483652  0.97382216  0.41080978  1
  O  O75  1  0.90283284  0.96804813  0.41109254  1
  O  O76  1  0.08105626  0.18243354  0.40891403  1
  O  O77  1  0.57910939  0.18604626  0.40946906  1
  O  O78  1  0.00932200  0.18253852  0.90946141  1
  O  O79  1  0.51204483  0.18575744  0.91145194  1
  O  O80  1  0.07982718  0.97303424  0.90930353  1
  O  O81  1  0.58047705  0.97413777  0.91148903  1
  O  O82  1  0.40588693  0.83777576  0.91075810  1
  O  O83  1  0.90597345  0.83640711  0.91095530  1
  O  O84  1  0.48880528  0.16847885  0.58245311  1
  O  O85  1  0.99220723  0.17340514  0.58675406  1
  O  O86  1  0.09679488  0.02734892  0.58536443  1
  O  O87  1  0.59670726  0.02216321  0.58354711  1
  O  O88  1  0.41508293  0.80709003  0.58336314  1
  O  O89  1  0.91470167  0.80717647  0.58259421  1
  O  O90  1  0.48547110  0.80737233  0.08645561  1
  O  O91  1  0.98521010  0.80762423  0.08573812  1
  O  O92  1  0.41378433  0.02418640  0.08296592  1
  O  O93  1  0.91424384  0.02522137  0.08257396  1
  O  O94  1  0.09308142  0.17146400  0.08582032  1
  O  O95  1  0.59304533  0.17136582  0.08471444  1
  O  O96  1  0.34568977  0.17615727  0.74483718  1
  O  O97  1  0.85119346  0.18017776  0.74574068  1
  O  O98  1  0.23169855  0.29984265  0.74704371  1
  O  O99  1  0.73899469  0.29876816  0.74515107  1
  O  O100  1  0.40795023  0.51796201  0.74472968  1
  O  O101  1  0.91102688  0.52524923  0.74536180  1
  O  O102  1  0.34670973  0.51607404  0.24537547  1
  O  O103  1  0.84628783  0.51588475  0.24459000  1
  O  O104  1  0.40892692  0.29742955  0.24557156  1
  O  O105  1  0.90906107  0.29733955  0.24512439  1
  O  O106  1  0.23167538  0.16440758  0.24611835  1
  O  O107  1  0.73094562  0.16381676  0.24671216  1
  O  O108  1  0.32983569  0.50684510  0.92395058  1
  O  O109  1  0.82801549  0.50415339  0.92471506  1
  O  O110  1  0.42420966  0.34574211  0.92562572  1
  O  O111  1  0.92559260  0.34635196  0.92537373  1
  O  O112  1  0.25036838  0.14890247  0.92643254  1
  O  O113  1  0.74839042  0.15158360  0.92536132  1
  O  O114  1  0.33005366  0.15335862  0.42409162  1
  O  O115  1  0.82557356  0.14870968  0.42476649  1
  O  O116  1  0.24933264  0.35182724  0.42676945  1
  O  O117  1  0.75072671  0.35265721  0.42662547  1
  O  O118  1  0.42546924  0.50470479  0.42511260  1
  O  O119  1  0.92490208  0.50709812  0.42500623  1
  O  O120  1  0.18497391  0.51078333  0.07713199  1
  O  O121  1  0.68516295  0.51044390  0.07710164  1
  O  O122  1  0.07139032  0.62765639  0.07779105  1
  O  O123  1  0.57090689  0.62694892  0.07756088  1
  O  O124  1  0.24543648  0.85182642  0.07675811  1
  O  O125  1  0.74537046  0.85118424  0.07775912  1
  O  O126  1  0.18362051  0.85676213  0.57732373  1
  O  O127  1  0.68480123  0.85739978  0.57626690  1
  O  O128  1  0.24381531  0.63225853  0.57783609  1
  O  O129  1  0.74430734  0.63237024  0.57651543  1
  O  O130  1  0.07262985  0.51239988  0.57787217  1
  O  O131  1  0.57234036  0.51240565  0.57777777  1
  O  O132  1  0.15832298  0.85814702  0.25455190  1
  O  O133  1  0.65707235  0.85684124  0.25546398  1
  O  O134  1  0.25893353  0.68416852  0.25269402  1
  O  O135  1  0.75910830  0.68420405  0.25258836  1
  O  O136  1  0.07944379  0.48469090  0.25386220  1
  O  O137  1  0.57926475  0.48561008  0.25381016  1
  O  O138  1  0.15729630  0.45800531  0.75504239  1
  O  O139  1  0.66007913  0.48011070  0.75462770  1
  O  O140  1  0.08066937  0.67558246  0.75401953  1
  O  O141  1  0.57871042  0.67719707  0.75433295  1
  O  O142  1  0.25798371  0.83289761  0.75333554  1
  O  O143  1  0.76054776  0.83946521  0.75337200  1
loop_
_geom_bond_atom_site_label_1
_geom_bond_atom_site_label_2
_geom_bond_distance
_geom_bond_site_symmetry_2
Na0 O134 2.384231 1_555
Na0 O62 2.440328 1_555
Na0 O132 2.478441 1_555
Na0 O104 2.517063 1_565
Na0 O106 2.752811 1_565
Na0 O32 2.865178 1_565
Na0 O4 2.970040 1_565
Na0 O18 2.990544 1_555
Na1 O135 2.391972 1_555
Na1 O63 2.436156 1_555
Na1 O105 2.506086 1_565
Na1 O133 2.519308 1_555
Na1 O107 2.769873 1_565
Na1 O33 2.866321 1_565
Na1 O5 2.924923 1_565
Na1 O19 2.984452 1_555
Na2 O134 2.384510 1_555
Na2 O136 2.431945 1_555
Na2 O64 2.488696 1_555
Na2 O106 2.612659 1_555
Na2 O102 2.666962 1_555
Na2 O34 2.849473 1_555
Na3 O135 2.374273 1_555
Na3 O137 2.445388 1_555
Na3 O65 2.473851 1_555
Na3 O107 2.608153 1_555
Na3 O103 2.650118 1_555
Na3 O35 2.876600 1_555
Na3 O21 2.938813 1_555
Na4 O60 2.339057 1_555
Na4 O136 2.351351 1_555
Na4 O132 2.484620 1_555
Na4 O103 2.580282 1_455
Na4 O105 2.703763 1_455
Na4 O31 2.947100 1_455
Na4 O3 2.947899 1_455
Na5 O137 2.336681 1_555
Na5 O61 2.433423 1_555
Na5 O133 2.478917 1_555
Na5 O102 2.556523 1_555
Na5 O104 2.682422 1_555
Na5 O30 2.906832 1_555
Na5 O2 2.973067 1_555
Na6 O142 2.391313 1_555
Na6 O70 2.428556 1_555
Na6 O138 2.516150 1_555
Na6 O100 2.520087 1_555
Na6 O98 2.763129 1_555
Na6 O8 2.888997 1_555
Na6 O28 2.911052 1_555
Na6 O12 2.964511 1_555
Na7 O139 2.358843 1_555
Na7 O143 2.406445 1_555
Na7 O71 2.503021 1_555
Na7 O101 2.550149 1_555
Na7 O99 2.709652 1_555
Na7 O29 2.873766 1_555
Na8 O140 2.333474 1_555
Na8 O66 2.458307 1_555
Na8 O97 2.476548 1_455
Na8 O138 2.504544 1_555
Na8 O101 2.648489 1_455
Na8 O25 2.826566 1_455
Na9 O141 2.364150 1_555
Na9 O139 2.384881 1_555
Na9 O67 2.464402 1_555
Na9 O96 2.655896 1_555
Na9 O100 2.771720 1_555
Na9 O24 2.936558 1_555
Na9 O10 2.977980 1_555
Na9 O15 2.979784 1_555
Na10 O142 2.369520 1_555
Na10 O140 2.415832 1_555
Na10 O68 2.440689 1_555
Na10 O98 2.621408 1_565
Na10 O96 2.646459 1_565
Na10 O26 2.845998 1_565
Na10 O16 2.901810 1_555
Na11 O143 2.384890 1_555
Na11 O141 2.433518 1_555
Na11 O69 2.494530 1_555
Na11 O99 2.563618 1_565
Na11 O97 2.726629 1_565
Na11 O27 2.855901 1_565
Na12 O86 2.368549 1_555
Na12 O85 2.378442 1_455
Na12 O128 2.509920 1_555
Na12 O14 2.620796 1_555
Na12 O130 2.646964 1_555
Na12 O56 2.790101 1_555
Na13 O87 2.387310 1_555
Na13 O15 2.391658 1_555
Na13 O84 2.425169 1_555
Na13 O129 2.558619 1_555
Na13 O131 2.683184 1_555
Na13 O57 2.946201 1_555
Na13 O29 2.980892 1_555
Na14 O89 2.396354 1_455
Na14 O16 2.459915 1_555
Na14 O86 2.476173 1_565
Na14 O130 2.540110 1_555
Na14 O126 2.670737 1_555
Na14 O58 2.921112 1_555
Na14 O25 2.987674 1_455
Na15 O87 2.379765 1_565
Na15 O88 2.381622 1_555
Na15 O17 2.389465 1_555
Na15 O131 2.567726 1_555
Na15 O127 2.661021 1_555
Na15 O59 2.913485 1_555
Na16 O12 2.386462 1_555
Na16 O84 2.387106 1_565
Na16 O88 2.393844 1_555
Na16 O126 2.563288 1_555
Na16 O128 2.641975 1_555
Na16 O54 2.925614 1_555
Na17 O89 2.431094 1_555
Na17 O13 2.434800 1_555
Na17 O85 2.435726 1_565
Na17 O127 2.531659 1_555
Na17 O129 2.675126 1_555
Na18 O90 2.353019 1_555
Na18 O92 2.430619 1_565
Na18 O18 2.463238 1_555
Na18 O120 2.510608 1_555
Na18 O124 2.589287 1_555
Na19 O91 2.346799 1_555
Na19 O93 2.437836 1_565
Na19 O19 2.441003 1_555
Na19 O121 2.512439 1_555
Na19 O125 2.585015 1_555
Na19 O49 2.875086 1_554
Na20 O94 2.344437 1_555
Na20 O93 2.385553 1_455
Na20 O20 2.432834 1_555
Na20 O122 2.503980 1_555
Na20 O120 2.659452 1_555
Na20 O50 2.875807 1_554
Na21 O95 2.350401 1_555
Na21 O92 2.375093 1_555
Na21 O21 2.470217 1_555
Na21 O123 2.510522 1_555
Na21 O121 2.681009 1_555
Na21 O51 2.882768 1_554
Na22 O108 2.467939 1_555
Na22 O81 2.477227 1_555
Na22 O110 2.549355 1_555
Na22 O82 2.639113 1_555
Na22 O8 2.736470 1_555
Na22 O38 2.774296 1_556
Na22 O67 2.803577 1_555
Na22 O53 2.927463 1_555
Na23 O80 2.484754 1_655
Na23 O111 2.516631 1_555
Na23 O109 2.541785 1_555
Na23 O83 2.692561 1_555
Na23 O66 2.765816 1_655
Na23 O9 2.780780 1_555
Na23 O39 2.786206 1_556
Na23 O52 2.853179 1_655
Na24 O82 2.464811 1_545
Na24 O112 2.517783 1_555
Na24 O110 2.527474 1_555
Na24 O79 2.617151 1_555
Na24 O10 2.741502 1_555
Na24 O40 2.799802 1_556
Na24 O68 2.814995 1_545
Na24 O48 2.910709 1_545
Na25 O83 2.515207 1_545
Na25 O113 2.525824 1_555
Na25 O111 2.533906 1_555
Na25 O78 2.617866 1_655
Na25 O69 2.743851 1_545
Na25 O11 2.754436 1_555
Na25 O41 2.811802 1_556
Na25 O49 2.925272 1_545
Na26 O79 2.451091 1_555
Na26 O113 2.540199 1_555
Na26 O109 2.594852 1_555
Na26 O81 2.623752 1_545
Na26 O7 2.713974 1_555
Na26 O71 2.812108 1_555
Na26 O37 2.814927 1_556
Na26 O51 2.919831 1_555
Na27 O77 2.481839 1_555
Na27 O114 2.495287 1_555
Na27 O118 2.518761 1_555
Na27 O74 2.692855 1_545
Na27 O4 2.774185 1_555
Na27 O46 2.778039 1_555
Na27 O61 2.782286 1_555
Na27 O57 2.879145 1_555
Na28 O116 2.477492 1_555
Na28 O74 2.497652 1_555
Na28 O118 2.546506 1_555
Na28 O73 2.621661 1_555
Na28 O64 2.715282 1_555
Na28 O2 2.740606 1_555
Na28 O44 2.805329 1_555
Na28 O54 2.920154 1_555
Na29 O117 2.466140 1_555
Na29 O75 2.466487 1_555
Na29 O119 2.474493 1_555
Na29 O72 2.585348 1_655
Na29 O3 2.736283 1_555
Na29 O45 2.760719 1_555
Na29 O65 2.797858 1_555
Na29 O55 2.946180 1_555
Na30 O86 2.418708 1_555
Na30 O89 2.452558 1_445
Na30 O85 2.467556 1_455
Na30 O76 2.647582 1_555
Na30 O72 2.664750 1_545
Na30 O75 2.703698 1_445
Na31 O87 2.326714 1_555
Na31 O84 2.396600 1_555
Na31 O88 2.410498 1_545
Na31 O73 2.681725 1_545
Na31 O77 2.701048 1_555
Na31 O74 2.770791 1_545
Na32 O94 2.279079 1_555
Na32 O91 2.382645 1_445
Na32 O93 2.456461 1_455
Na32 O80 2.694834 1_544
Na32 O78 2.757648 1_554
Na32 O83 2.824239 1_444
Na33 O95 2.343647 1_565
Na33 O90 2.379456 1_555
Na33 O92 2.441475 1_565
Na33 O81 2.663719 1_554
Na33 O79 2.726922 1_564
Na33 O82 2.746127 1_554
Na34 O108 2.536937 1_555
Na34 O112 2.577026 1_555
Na34 O100 2.586351 1_555
Na34 O110 2.595625 1_555
Na34 O96 2.599813 1_555
Na34 O98 2.614252 1_555
Na35 O97 2.516986 1_555
Na35 O99 2.517161 1_555
Na35 O101 2.541148 1_555
Na35 O109 2.628152 1_555
Na35 O113 2.633496 1_555
Na35 O111 2.650237 1_555
Na36 O102 2.561096 1_555
Na36 O114 2.565972 1_555
Na36 O104 2.567642 1_555
Na36 O106 2.582149 1_555
Na36 O116 2.614683 1_555
Na36 O118 2.646020 1_555
Na37 O115 2.510214 1_555
Na37 O105 2.560425 1_555
Na37 O119 2.563126 1_555
Na37 O117 2.619005 1_555
Na37 O103 2.640605 1_555
Na37 O107 2.670642 1_555
Na38 O134 2.426393 1_555
Na38 O136 2.459696 1_555
Na38 O132 2.629258 1_555
Na38 O122 2.641157 1_555
Na38 O120 2.659343 1_555
Na38 O124 2.661070 1_555
Na39 O135 2.412814 1_555
Na39 O137 2.454825 1_555
Na39 O125 2.644390 1_555
Na39 O133 2.646457 1_555
Na39 O121 2.662257 1_555
Na39 O123 2.662381 1_555
Na40 O142 2.385243 1_555
Na40 O140 2.421778 1_555
Na40 O126 2.617317 1_555
Na40 O138 2.672109 1_555
Na40 O130 2.677521 1_555
Na40 O128 2.689371 1_555
Na41 O143 2.391839 1_555
Na41 O139 2.405661 1_555
Na41 O141 2.417422 1_555
Na41 O131 2.721814 1_555
Na41 O129 2.756005 1_555
Na41 O127 2.766514 1_555
Nb0 O5 1.944115 1_555
Nb0 O75 1.947223 1_545
Nb0 O3 1.999049 1_545
Nb0 O76 2.002185 1_655
Nb0 O72 2.039037 1_645
Nb0 O0 2.273222 1_655
Nb1 O4 1.964794 1_565
Nb1 O2 1.965099 1_555
Nb1 O74 1.969866 1_555
Nb1 O73 2.024695 1_555
Nb1 O77 2.035648 1_565
Nb1 O1 2.213393 1_565
Nb2 O11 1.953123 1_565
Nb2 O9 1.963382 1_555
Nb2 O83 1.969436 1_555
Nb2 O78 2.017521 1_665
Nb2 O80 2.033275 1_655
Nb2 O6 2.215611 1_665
Nb3 O7 1.964808 1_565
Nb3 O10 1.965260 1_565
Nb3 O8 1.969357 1_555
Nb3 O82 2.076632 1_555
Nb3 O79 2.089896 1_565
Nb3 O81 2.109754 1_555
Nb4 O24 1.897984 1_555
Nb4 O26 1.978658 1_555
Nb4 O28 1.980442 1_555
Nb4 O100 2.015868 1_555
Nb4 O96 2.029000 1_555
Nb4 O98 2.297252 1_555
Nb5 O27 1.977757 1_555
Nb5 O29 1.987495 1_555
Nb5 O25 1.997645 1_555
Nb5 O99 2.034321 1_555
Nb5 O97 2.052320 1_555
Nb5 O101 2.063762 1_555
Nb6 O30 1.904050 1_555
Nb6 O32 1.957454 1_555
Nb6 O34 1.959694 1_555
Nb6 O102 2.057674 1_555
Nb6 O104 2.057796 1_555
Nb6 O106 2.267595 1_555
Nb7 O31 1.899302 1_555
Nb7 O35 1.967579 1_555
Nb7 O33 1.971381 1_555
Nb7 O103 2.031644 1_555
Nb7 O105 2.043258 1_555
Nb7 O107 2.291307 1_555
Nb8 O36 1.898683 1_556
Nb8 O40 1.959847 1_556
Nb8 O38 1.978778 1_556
Nb8 O112 1.999734 1_555
Nb8 O108 2.030355 1_555
Nb8 O110 2.082882 1_555
Nb9 O41 1.926212 1_556
Nb9 O37 1.936062 1_556
Nb9 O39 1.950708 1_556
Nb9 O113 2.043189 1_555
Nb9 O109 2.058304 1_555
Nb9 O111 2.062556 1_555
Nb10 O42 1.923078 1_555
Nb10 O44 1.961301 1_555
Nb10 O116 1.977726 1_555
Nb10 O46 1.979417 1_555
Nb10 O114 2.037684 1_555
Nb10 O118 2.069329 1_555
Nb11 O43 1.938808 1_555
Nb11 O47 1.944085 1_555
Nb11 O115 1.988589 1_555
Nb11 O45 1.994857 1_555
Nb11 O117 2.026554 1_555
Nb11 O119 2.035287 1_555
Nb12 O52 1.973886 1_554
Nb12 O48 1.985255 1_554
Nb12 O50 1.987282 1_554
Nb12 O124 2.021106 1_555
Nb12 O122 2.059732 1_555
Nb12 O120 2.081108 1_555
Nb13 O53 1.956646 1_554
Nb13 O51 1.994767 1_554
Nb13 O125 2.019865 1_555
Nb13 O49 2.022693 1_554
Nb13 O123 2.030777 1_555
Nb13 O121 2.075210 1_555
Nb14 O58 1.931843 1_555
Nb14 O56 1.965827 1_555
Nb14 O54 1.990432 1_555
Nb14 O130 2.057686 1_555
Nb14 O126 2.094892 1_555
Nb14 O128 2.100658 1_555
Nb15 O59 1.962680 1_555
Nb15 O55 1.964694 1_555
Nb15 O57 1.992969 1_555
Nb15 O127 2.055071 1_555
Nb15 O129 2.059168 1_555
Nb15 O131 2.074375 1_555
O0 S0 1.504982 1_555
O1 S1 1.519707 1_555
O2 Si0 1.718131 1_555
O3 Si1 1.698293 1_555
O4 Si3 1.715604 1_555
O5 Si2 1.706230 1_655
O6 S2 1.507862 1_555
O7 Si4 1.711103 1_555
O8 Si6 1.703647 1_555
O9 Si5 1.715223 1_655
O10 Si7 1.705905 1_545
O11 Si8 1.713831 1_545
O12 Si7 1.596910 1_555
O12 Zn1 2.007904 1_555
O13 Si8 1.597410 1_555
O13 Zn0 1.964322 1_555
O14 S2 1.466941 1_555
O14 Zn0 2.263818 1_445
O15 Si4 1.597926 1_555
O15 Zn1 1.983115 1_545
O16 Si5 1.604258 1_555
O16 Zn0 1.980425 1_455
O17 Si6 1.595191 1_555
O17 Zn1 1.990934 1_555
O18 Si0 1.593077 1_555
O18 Zn3 2.010218 1_565
O19 Si1 1.597344 1_555
O19 Zn2 2.008305 1_565
O20 Si2 1.597877 1_555
O20 Zn2 2.010001 1_455
O21 Si3 1.595955 1_555
O21 Zn3 2.015499 1_555
O22 S0 1.447448 1_565
O22 Zn2 2.193786 1_465
O23 S1 1.427868 1_565
O23 Zn3 2.210430 1_565
O24 Si9 1.702578 1_555
O25 Si10 1.667309 1_555
O26 Si11 1.675270 1_555
O27 Si12 1.675180 1_555
O28 Si13 1.681966 1_555
O29 Si14 1.671757 1_555
O30 Si15 1.706339 1_555
O31 Si16 1.704898 1_555
O32 Si17 1.674494 1_555
O33 Si18 1.664055 1_555
O34 Si19 1.682599 1_555
O35 Si20 1.679088 1_555
O36 Si19 1.651073 1_555
O37 Si20 1.658992 1_555
O38 Si15 1.645883 1_555
O39 Si16 1.659736 1_555
O40 Si17 1.642906 1_555
O41 Si18 1.656295 1_555
O42 Si11 1.648966 1_555
O43 Si12 1.636815 1_555
O44 Si13 1.649882 1_555
O45 Si14 1.632901 1_555
O46 Si9 1.633740 1_555
O47 Si10 1.639612 1_555
O48 Si21 1.675373 1_555
O49 Si22 1.653491 1_555
O50 Si23 1.657804 1_555
O51 Si24 1.675644 1_555
O52 Si25 1.670775 1_555
O53 Si26 1.676601 1_555
O54 Si27 1.668966 1_555
O55 Si28 1.674720 1_555
O56 Si29 1.679091 1_555
O57 Si30 1.683451 1_555
O58 Si31 1.687972 1_555
O59 Si32 1.669320 1_555
O60 Si31 1.584810 1_555
O60 Zn4 2.003215 1_555
O61 Si32 1.596501 1_555
O61 Zn5 2.047212 1_555
O62 Si27 1.581857 1_555
O62 Zn4 2.042660 1_555
O63 Si28 1.583924 1_555
O63 Zn5 2.018143 1_555
O64 Si29 1.594738 1_555
O64 Zn4 1.985911 1_555
O65 Si30 1.596864 1_555
O65 Zn5 1.978953 1_555
O66 Si23 1.598673 1_555
O66 Zn6 2.042380 1_555
O67 Si24 1.594689 1_555
O67 Zn7 2.058271 1_555
O68 Si25 1.596364 1_555
O68 Zn6 1.985959 1_555
O69 Si26 1.593853 1_555
O69 Zn7 2.069810 1_555
O70 Si21 1.591270 1_555
O70 Zn6 2.019567 1_555
O71 Si22 1.585543 1_555
O71 Zn7 2.058768 1_555
O72 Si31 1.666516 1_555
O73 Si32 1.655867 1_555
O74 Si27 1.703837 1_555
O75 Si28 1.687913 1_555
O76 Si29 1.638676 1_555
O77 Si30 1.657104 1_555
O78 Si23 1.659795 1_555
O79 Si24 1.664774 1_555
O80 Si25 1.654438 1_555
O81 Si26 1.653433 1_555
O82 Si21 1.679376 1_555
O83 Si22 1.683702 1_555
O84 Si9 1.589265 1_555
O84 Zn1 2.263157 1_545
O85 Si10 1.602315 1_555
O85 Zn0 2.201932 1_545
O86 Si11 1.597857 1_555
O86 Zn0 2.198320 1_445
O87 Si12 1.594954 1_555
O87 Zn1 2.265488 1_545
O88 Si13 1.595906 1_555
O88 Zn1 2.254219 1_555
O89 Si14 1.606845 1_555
O89 Zn0 2.100680 1_555
O90 Si15 1.579479 1_555
O90 Zn3 2.144643 1_565
O91 Si16 1.579079 1_555
O91 Zn2 2.161978 1_565
O92 Si17 1.599860 1_555
O92 Zn3 2.142645 1_555
O93 Si18 1.596738 1_555
O93 Zn2 2.160817 1_555
O94 Si19 1.580537 1_555
O94 Zn2 2.137162 1_455
O95 Si20 1.582888 1_555
O95 Zn3 2.144735 1_555
O96 Si7 1.701949 1_545
O97 Si8 1.682709 1_545
O98 S2 1.522298 1_555
O99 Si4 1.685238 1_555
O100 Si6 1.707750 1_555
O101 Si5 1.678219 1_655
O102 Si0 1.703455 1_555
O103 Si1 1.712445 1_555
O104 Si3 1.701520 1_555
O105 Si2 1.705028 1_655
O106 S0 1.536900 1_555
O107 S1 1.532342 1_555
O108 Si21 1.654952 1_555
O109 Si22 1.652940 1_555
O110 Si24 1.653870 1_555
O111 Si23 1.678503 1_655
O112 Si25 1.641248 1_545
O113 Si26 1.664656 1_545
O114 Si27 1.645153 1_545
O115 Si28 1.630271 1_545
O116 Si29 1.662538 1_555
O117 Si30 1.635296 1_555
O118 Si32 1.668433 1_555
O119 Si31 1.657905 1_655
O120 Si19 1.663436 1_555
O121 Si20 1.667128 1_555
O122 Si16 1.638298 1_455
O123 Si15 1.648961 1_555
O124 Si17 1.648349 1_565
O125 Si18 1.645021 1_565
O126 Si11 1.649409 1_565
O127 Si12 1.660827 1_565
O128 Si13 1.653976 1_555
O129 Si14 1.658228 1_555
O130 Si10 1.661802 1_455
O131 Si9 1.644008 1_555
O132 S0 1.478093 1_565
O132 Zn4 2.440679 1_555
O133 S1 1.484682 1_565
O133 Zn5 2.425213 1_555
O134 Si0 1.614308 1_555
O134 Zn4 2.221665 1_555
O135 Si1 1.619115 1_555
O135 Zn5 2.196454 1_555
O136 Si2 1.616126 1_555
O136 Zn4 2.173715 1_555
O137 Si3 1.617489 1_555
O137 Zn5 2.186595 1_555
O138 S2 1.464466 1_555
O138 Zn6 2.440250 1_555
O139 Si4 1.605754 1_555
O139 Zn7 2.162063 1_555
O140 Si5 1.615920 1_555
O140 Zn6 2.190949 1_555
O141 Si6 1.603553 1_555
O141 Zn7 2.162826 1_555
O142 Si7 1.612862 1_555
O142 Zn6 2.186256 1_555
O143 Si8 1.604328 1_555
O143 Zn7 2.186208 1_555
