# generated using pymatgen
data_Ba2LuMgRuO6
_symmetry_space_group_name_H-M   'P 1'
_cell_length_a   6.85469522
_cell_length_b   6.85469530
_cell_length_c   6.86068874
_cell_angle_alpha   53.36635868
_cell_angle_beta   53.36635835
_cell_angle_gamma   52.84356836
_symmetry_Int_Tables_number   1
_chemical_formula_structural   Ba2LuMgRuO6
_chemical_formula_sum   'Ba2 Lu1 Mg1 Ru1 O6'
_cell_volume   191.58149465
_cell_formula_units_Z   1
loop_
 _symmetry_equiv_pos_site_id
 _symmetry_equiv_pos_as_xyz
  1  'x, y, z'
loop_
 _atom_site_type_symbol
 _atom_site_label
 _atom_site_symmetry_multiplicity
 _atom_site_fract_x
 _atom_site_fract_y
 _atom_site_fract_z
 _atom_site_occupancy
  Ba  Ba0  1  0.80142746  0.80142746  0.82512000  1
  Ba  Ba1  1  0.22584082  0.22584082  0.25743151  1
  Lu  Lu0  1  0.99863457  0.99863457  0.01118659  1
  Mg  Mg0  1  0.57461755  0.57461755  0.59136155  1
  Ru  Ru0  1  0.42687601  0.42687601  0.41828817  1
  O  O0  1  0.23191802  0.76834619  0.77946820  1
  O  O1  1  0.28336450  0.78483739  0.22742236  1
  O  O2  1  0.76834619  0.23191802  0.77946820  1
  O  O3  1  0.25844497  0.25844497  0.75526188  1
  O  O4  1  0.78483739  0.28336450  0.22742236  1
  O  O5  1  0.77069251  0.77069251  0.26298619  1
loop_
_geom_bond_atom_site_label_1
_geom_bond_atom_site_label_2
_geom_bond_distance
_geom_bond_site_symmetry_2
Ba0 O0 2.651545 1_655
Ba0 O2 2.651545 1_565
Ba0 O5 2.766986 1_556
Ba0 O1 2.942440 1_556
Ba0 O4 2.942440 1_556
Ba0 O3 3.185714 1_565
Ba0 O3 3.185714 1_655
Ba0 O1 3.417264 1_655
Ba0 O4 3.417265 1_565
Ba1 O4 2.922675 1_455
Ba1 O1 2.922675 1_545
Ba1 O2 3.046311 1_455
Ba1 O0 3.046311 1_545
Ba1 O5 3.104222 1_545
Ba1 O5 3.104222 1_455
Ba1 O2 3.170964 1_554
Ba1 O0 3.170964 1_554
Ba1 O3 3.192501 1_554
Ba1 Ru0 3.307505 1_555
Lu0 O5 2.091325 1_555
Lu0 O2 2.118492 1_564
Lu0 O0 2.118492 1_654
Lu0 O1 2.358703 1_655
Lu0 O4 2.358703 1_565
Lu0 O3 2.407112 1_664
Mg0 O0 1.899007 1_555
Mg0 O2 1.899007 1_555
Mg0 O5 1.908771 1_555
O1 Ru0 1.868198 1_555
O3 Ru0 1.802831 1_555
O4 Ru0 1.868198 1_555
