# generated using pymatgen
data_Sr4MgMn2(SO3)2
_symmetry_space_group_name_H-M   'P 1'
_cell_length_a   3.92189000
_cell_length_b   3.91959300
_cell_length_c   16.15619000
_cell_angle_alpha   90.00015537
_cell_angle_beta   90.00069591
_cell_angle_gamma   90.00296706
_symmetry_Int_Tables_number   1
_chemical_formula_structural   Sr4MgMn2(SO3)2
_chemical_formula_sum   'Sr4 Mg1 Mn2 S2 O6'
_cell_volume   248.35638731
_cell_formula_units_Z   1
loop_
 _symmetry_equiv_pos_site_id
 _symmetry_equiv_pos_as_xyz
  1  'x, y, z'
loop_
 _atom_site_type_symbol
 _atom_site_label
 _atom_site_symmetry_multiplicity
 _atom_site_fract_x
 _atom_site_fract_y
 _atom_site_fract_z
 _atom_site_occupancy
  Sr  Sr0  1  0.74997000  0.74999400  0.19803600  1
  Sr  Sr1  1  0.25001700  0.25000100  0.81976200  1
  Sr  Sr2  1  0.75002900  0.75001100  0.42519200  1
  Sr  Sr3  1  0.24999200  0.25001300  0.59316800  1
  Mg  Mg0  1  0.74995200  0.24994300  0.00860600  1
  Mn  Mn0  1  0.25000400  0.25000300  0.31576200  1
  Mn  Mn1  1  0.75000100  0.75003000  0.70235700  1
  S  S0  1  0.24996600  0.24996900  0.10371600  1
  S  S1  1  0.75000800  0.74996700  0.91346400  1
  O  O0  1  0.75000300  0.25000600  0.29857300  1
  O  O1  1  0.24999700  0.75000200  0.29978500  1
  O  O2  1  0.25001100  0.75000600  0.71796400  1
  O  O3  1  0.75001900  0.25002000  0.71967500  1
  O  O4  1  0.25000700  0.25002600  0.44087800  1
  O  O5  1  0.75002600  0.75000500  0.57732400  1
loop_
_geom_bond_atom_site_label_1
_geom_bond_atom_site_label_2
_geom_bond_distance
_geom_bond_site_symmetry_2
Mg0 S1 2.490621 1_544
Mg0 S1 2.490776 1_554
Mg0 S0 2.491255 1_555
Mg0 S0 2.491312 1_655
Mn0 O1 1.976719 1_555
Mn0 O1 1.976726 1_545
Mn0 O0 1.980511 1_555
Mn0 O0 1.980512 1_455
Mn0 O4 2.021398 1_555
Mn1 O2 1.977054 1_555
Mn1 O2 1.977126 1_655
Mn1 O3 1.979629 1_565
Mn1 O3 1.979708 1_555
Mn1 O5 2.020057 1_555
S0 Sr0 3.163460 1_445
S0 Sr0 3.163572 1_555
S0 Sr0 3.163582 1_545
S0 Sr0 3.163702 1_455
S1 Sr1 3.158600 1_555
S1 Sr1 3.158793 1_655
S1 Sr1 3.158837 1_665
S1 Sr1 3.158897 1_565
O0 Sr0 2.545382 1_555
O0 Sr0 2.545448 1_545
O0 Sr2 2.832941 1_545
O0 Sr2 2.832961 1_555
O1 Sr0 2.558769 1_555
O1 Sr0 2.558900 1_455
O1 Sr2 2.819572 1_455
O1 Sr2 2.819713 1_555
O2 Sr1 2.558445 1_565
O2 Sr1 2.558482 1_555
O2 Sr3 2.811734 1_555
O2 Sr3 2.811780 1_565
O3 Sr1 2.541646 1_655
O3 Sr1 2.541689 1_555
O3 Sr3 2.832384 1_655
O3 Sr3 2.832496 1_555
O4 Sr3 2.460426 1_555
O4 Sr2 2.783848 1_445
O4 Sr2 2.783892 1_555
O4 Sr2 2.783910 1_455
O4 Sr2 2.784117 1_545
O5 Sr2 2.457873 1_555
O5 Sr3 2.784029 1_665
O5 Sr3 2.784129 1_655
O5 Sr3 2.784178 1_555
O5 Sr3 2.784365 1_565
