# generated using pymatgen
data_Na6Ca4Si3Ge4(S3O16)3
_symmetry_space_group_name_H-M   'P 1'
_cell_length_a   17.78739324
_cell_length_b   8.88609139
_cell_length_c   22.77786343
_cell_angle_alpha   89.84878072
_cell_angle_beta   89.51441675
_cell_angle_gamma   120.03489229
_symmetry_Int_Tables_number   1
_chemical_formula_structural   Na6Ca4Si3Ge4(S3O16)3
_chemical_formula_sum   'Na18 Ca12 Si9 Ge12 S27 O144'
_cell_volume   3116.62519125
_cell_formula_units_Z   3
loop_
 _symmetry_equiv_pos_site_id
 _symmetry_equiv_pos_as_xyz
  1  'x, y, z'
loop_
 _atom_site_type_symbol
 _atom_site_label
 _atom_site_symmetry_multiplicity
 _atom_site_fract_x
 _atom_site_fract_y
 _atom_site_fract_z
 _atom_site_occupancy
  Na  Na0  1  0.99759333  0.62700638  0.24855067  1
  Na  Na1  1  0.50218548  0.61171460  0.24154941  1
  Na  Na2  1  0.00386464  0.38749198  0.73980699  1
  Na  Na3  1  0.49833866  0.37331292  0.74769411  1
  Na  Na4  1  0.67627360  0.33507019  0.91415847  1
  Na  Na5  1  0.17309923  0.02142390  0.41865549  1
  Na  Na6  1  0.99298028  -0.00194743  0.50488265  1
  Na  Na7  1  0.50237498  0.00181257  0.50275373  1
  Na  Na8  1  0.00233580  0.00241314  0.99809599  1
  Na  Na9  1  0.49214507  0.98550375  0.00171128  1
  Na  Na10  1  0.30081418  0.29051021  0.83866340  1
  Na  Na11  1  0.84232619  0.37053840  0.83821191  1
  Na  Na12  1  0.33718062  0.31085826  0.34149878  1
  Na  Na13  1  0.81351262  0.32857310  0.34630739  1
  Na  Na14  1  0.18192716  0.65464713  0.15774295  1
  Na  Na15  1  0.66281694  0.65663667  0.15820375  1
  Na  Na16  1  0.16146020  0.64661701  0.66598998  1
  Na  Na17  1  0.68481662  0.71687254  0.66068037  1
  Ca  Ca0  1  0.99350769  0.00079974  0.35744603  1
  Ca  Ca1  1  0.49336354  0.98566808  0.85621385  1
  Ca  Ca2  1  0.31302348  0.32421726  0.68403724  1
  Ca  Ca3  1  0.83058651  0.31632572  0.67404158  1
  Ca  Ca4  1  0.33067447  0.34688433  0.17390451  1
  Ca  Ca5  1  0.82450116  0.31808564  0.17795881  1
  Ca  Ca6  1  0.84140060  0.34411961  0.98921731  1
  Ca  Ca7  1  0.34076247  0.34065850  0.49060042  1
  Ca  Ca8  1  0.16899846  0.66498991  0.31256651  1
  Ca  Ca9  1  0.67886660  0.65977968  0.31714838  1
  Ca  Ca10  1  0.17743736  0.69028167  0.81243521  1
  Ca  Ca11  1  0.67084737  0.67594609  0.81165567  1
  Si  Si0  1  0.13778844  0.27560559  0.75636617  1
  Si  Si1  1  0.98634256  0.34460954  0.58094431  1
  Si  Si2  1  0.67738450  0.00655837  0.58466518  1
  Si  Si3  1  0.48833425  0.62841632  0.08183653  1
  Si  Si4  1  0.17847645  0.35025325  0.08496783  1
  Si  Si5  1  0.81851771  0.67914346  0.91495369  1
  Si  Si6  1  0.17806120  0.97042207  0.92259567  1
  Si  Si7  1  0.31361319  0.95787690  0.41659367  1
  Si  Si8  1  0.67721391  0.37999095  0.42187277  1
  Ge  Ge0  1  0.50540837  0.02764833  0.36692456  1
  Ge  Ge1  1  0.01470565  0.98295792  0.86216085  1
  Ge  Ge2  1  0.00418785  0.04108615  0.64721554  1
  Ge  Ge3  1  0.50772506  -0.00186838  0.64466915  1
  Ge  Ge4  1  0.00764104  0.01742085  0.14394397  1
  Ge  Ge5  1  0.49501940  0.97800837  0.14155754  1
  Ge  Ge6  1  0.32006511  0.33742722  0.99249185  1
  Ge  Ge7  1  0.81936462  0.30755141  0.49469562  1
  Ge  Ge8  1  0.16003907  0.65367342  0.01189243  1
  Ge  Ge9  1  0.67038791  0.68055042  0.01135058  1
  Ge  Ge10  1  0.17018927  0.66405575  0.51555002  1
  Ge  Ge11  1  0.66687754  0.65800870  0.51852278  1
  S  S0  1  0.14306118  0.00124145  0.24602121  1
  S  S1  1  0.63404745  0.00169855  0.25091639  1
  S  S2  1  0.36631510  0.72870465  0.24987766  1
  S  S3  1  0.85800790  0.72154932  0.24020422  1
  S  S4  1  0.99946955  0.28994428  0.24235856  1
  S  S5  1  0.49790251  0.26880033  0.25174775  1
  S  S6  1  0.64339479  0.28607934  0.74624315  1
  S  S7  1  0.99566812  0.72128667  0.75002829  1
  S  S8  1  0.50100636  0.70988748  0.74198738  1
  S  S9  1  0.36097098  -0.00362089  0.73898608  1
  S  S10  1  0.86066595  -0.00134535  0.74649939  1
  S  S11  1  0.49553906  0.33265007  0.58877598  1
  S  S12  1  0.16722828  0.00581127  0.58018288  1
  S  S13  1  0.33438123  0.66295276  0.58378371  1
  S  S14  1  0.83238636  0.63778753  0.58045239  1
  S  S15  1  0.99548621  0.66011811  0.08985732  1
  S  S16  1  0.33409620  0.02524716  0.08376462  1
  S  S17  1  0.83387617  0.00597402  0.08512759  1
  S  S18  1  0.66859700  0.32717832  0.08232367  1
  S  S19  1  0.31233612  0.65406766  0.92492892  1
  S  S20  1  0.02228163  0.36531336  0.91582668  1
  S  S21  1  0.51581890  0.37827982  0.92035387  1
  S  S22  1  0.66710846  0.96902627  0.92088175  1
  S  S23  1  0.81120548  0.97090821  0.42477483  1
  S  S24  1  0.16748452  0.36817543  0.42116042  1
  S  S25  1  0.01467986  0.65202897  0.41978573  1
  S  S26  1  0.52161053  0.68101058  0.41164322  1
  O  O0  1  0.10188127  0.00389119  0.30214072  1
  O  O1  1  0.58973201  0.01410471  0.30509146  1
  O  O2  1  0.41914986  0.82658841  0.30006881  1
  O  O3  1  0.90322418  0.80064252  0.29491615  1
  O  O4  1  0.49444190  0.18057178  0.31003959  1
  O  O5  1  0.99827928  0.19946742  0.29593910  1
  O  O6  1  0.08213204  0.15460844  0.81449967  1
  O  O7  1  0.60307931  0.20097735  0.80289344  1
  O  O8  1  0.49891649  0.79757217  0.79558138  1
  O  O9  1  0.98760544  0.79160187  0.80937809  1
  O  O10  1  0.40599622  0.00703740  0.79376310  1
  O  O11  1  0.90993111  -0.00415415  0.79649280  1
  O  O12  1  0.41139895  0.98652404  0.68640880  1
  O  O13  1  0.89902728  0.98510532  0.68613326  1
  O  O14  1  0.08513150  0.19006421  0.69214509  1
  O  O15  1  0.58656842  0.18093665  0.69505294  1
  O  O16  1  -0.00308286  0.82432258  0.69877001  1
  O  O17  1  0.50296126  0.80927040  0.68740008  1
  O  O18  1  0.40528691  0.81795910  0.19003291  1
  O  O19  1  0.90982342  0.82698144  0.18737651  1
  O  O20  1  0.00028642  0.19392436  0.18792456  1
  O  O21  1  0.50341601  0.17659527  0.19954145  1
  O  O22  1  0.08614471  0.99218766  0.19450044  1
  O  O23  1  0.58490794  0.98438314  0.19450440  1
  O  O24  1  0.45712250  0.35766455  0.64227565  1
  O  O25  1  0.96545888  0.39272222  0.64396896  1
  O  O26  1  0.22255618  0.08694302  0.63087970  1
  O  O27  1  0.73064845  0.05635522  0.64339131  1
  O  O28  1  0.32292078  0.56063383  0.63698993  1
  O  O29  1  0.81196799  0.53688222  0.63488560  1
  O  O30  1  0.46816745  0.54033907  0.14568145  1
  O  O31  1  0.95674837  0.56046933  0.14442298  1
  O  O32  1  0.31897041  0.09081903  0.13850949  1
  O  O33  1  0.82134902  0.08152891  0.13881204  1
  O  O34  1  0.23151485  0.40689505  0.14402893  1
  O  O35  1  0.72134088  0.35290585  0.13418592  1
  O  O36  1  0.22526520  0.30169761  0.03116245  1
  O  O37  1  0.70338572  0.29132372  0.02864218  1
  O  O38  1  0.41063477  0.51219728  0.03261375  1
  O  O39  1  0.94022849  0.57917410  0.03911638  1
  O  O40  1  0.35226311  0.14183880  0.03271336  1
  O  O41  1  0.84907323  0.11345701  0.03294317  1
  O  O42  1  0.20246408  0.10955660  0.52588131  1
  O  O43  1  0.72308168  0.14918360  0.53056362  1
  O  O44  1  0.34915370  0.58981061  0.53073096  1
  O  O45  1  0.84543305  0.54773088  0.52937818  1
  O  O46  1  0.44327681  0.30539355  0.53665094  1
  O  O47  1  0.90983077  0.30692886  0.53087162  1
  O  O48  1  0.26235616  0.66644986  0.97587968  1
  O  O49  1  0.76634469  0.70581453  0.97590562  1
  O  O50  1  0.07433270  0.45945065  0.97067797  1
  O  O51  1  0.58395453  0.48162857  0.96636847  1
  O  O52  1  0.15626333  0.82758324  0.97797928  1
  O  O53  1  0.66147446  0.86530937  0.97505623  1
  O  O54  1  0.26226820  0.82845099  0.47622331  1
  O  O55  1  0.76076566  0.85327849  0.47437326  1
  O  O56  1  0.16329029  0.46335899  0.47392467  1
  O  O57  1  0.65289748  0.48141341  0.47433150  1
  O  O58  1  0.08156750  0.68051148  0.46508371  1
  O  O59  1  0.57488994  0.69835969  0.46365758  1
  O  O60  1  0.04399229  0.63309299  0.36030159  1
  O  O61  1  0.55887109  0.66280701  0.35615534  1
  O  O62  1  0.25262614  0.88467722  0.36072634  1
  O  O63  1  0.77046884  0.90634085  0.36773680  1
  O  O64  1  0.16635005  0.45116507  0.36600007  1
  O  O65  1  0.70366384  0.47584669  0.35972885  1
  O  O66  1  0.06317920  0.46595538  0.86240251  1
  O  O67  1  0.54626145  0.45863366  0.86156632  1
  O  O68  1  0.20393862  0.92181080  0.86190346  1
  O  O69  1  0.66584990  0.87983024  0.86695855  1
  O  O70  1  0.27095404  0.63867984  0.86856262  1
  O  O71  1  0.75168106  0.62148473  0.86203635  1
  O  O72  1  0.01113206  0.81695940  0.42186161  1
  O  O73  1  0.51940112  0.85185705  0.41071239  1
  O  O74  1  0.41092420  0.96648292  0.41126043  1
  O  O75  1  0.89883443  0.99133187  0.42725112  1
  O  O76  1  0.09035071  0.18908942  0.42574381  1
  O  O77  1  0.58514977  0.18479358  0.41598328  1
  O  O78  1  0.01948066  0.19691637  0.91847347  1
  O  O79  1  0.51209008  0.20632460  0.92254658  1
  O  O80  1  0.08573907  0.97894367  0.91847508  1
  O  O81  1  0.59011513  0.99288649  0.92539122  1
  O  O82  1  0.39959405  0.80773753  0.92812422  1
  O  O83  1  0.91565717  0.86308927  0.90674740  1
  O  O84  1  0.50726116  0.17513065  0.59325436  1
  O  O85  1  0.99348895  0.16028271  0.58558746  1
  O  O86  1  0.07691023  0.97939329  0.59012250  1
  O  O87  1  0.57930810  -0.00933428  0.59030081  1
  O  O88  1  0.41135561  0.84457247  0.58941321  1
  O  O89  1  0.91023450  0.81178168  0.58437691  1
  O  O90  1  0.49688033  0.82851944  0.08751267  1
  O  O91  1  0.00583856  0.84028195  0.09355886  1
  O  O92  1  0.41706684  0.00983467  0.08933485  1
  O  O93  1  0.91187103  -0.01905417  0.09067150  1
  O  O94  1  0.08020674  0.17028919  0.09057069  1
  O  O95  1  0.57822460  0.16895066  0.09189064  1
  O  O96  1  0.35765157  0.15847638  0.73456503  1
  O  O97  1  0.85952733  0.16483351  0.74726799  1
  O  O98  1  0.22903805  0.28089361  0.75716623  1
  O  O99  1  0.72954392  0.30669939  0.74182477  1
  O  O100  1  0.42355654  0.53462169  0.74078014  1
  O  O101  1  0.91901884  0.54280505  0.74945639  1
  O  O102  1  0.36257699  0.55861945  0.24989813  1
  O  O103  1  0.85091929  0.54765098  0.23766976  1
  O  O104  1  0.41896318  0.28569594  0.25203883  1
  O  O105  1  0.92094102  0.30854454  0.24189231  1
  O  O106  1  0.22905178  0.15327931  0.24150597  1
  O  O107  1  0.72050062  0.15875847  0.24857918  1
  O  O108  1  0.31965290  0.49230402  0.93076988  1
  O  O109  1  0.83099751  0.51421291  0.92739425  1
  O  O110  1  0.43181227  0.36330510  0.93280099  1
  O  O111  1  0.93487430  0.34219361  0.92171223  1
  O  O112  1  0.26273951  0.16603520  0.93946858  1
  O  O113  1  0.74577751  0.14135214  0.92252824  1
  O  O114  1  0.32843370  0.15007640  0.42704825  1
  O  O115  1  0.81822545  0.14572016  0.43129520  1
  O  O116  1  0.24612838  0.35164763  0.42261478  1
  O  O117  1  0.76085352  0.35423243  0.43864288  1
  O  O118  1  0.43234639  0.53549615  0.41824289  1
  O  O119  1  0.92948886  0.49908645  0.43109499  1
  O  O120  1  0.15884857  0.51022121  0.06701127  1
  O  O121  1  0.65815111  0.48179728  0.07458859  1
  O  O122  1  0.08331303  0.68212670  0.08185151  1
  O  O123  1  0.58700413  0.66548564  0.06218282  1
  O  O124  1  0.26111138  0.84695270  0.07332809  1
  O  O125  1  0.75411157  0.82921728  0.07911340  1
  O  O126  1  0.15781934  0.82877160  0.57311390  1
  O  O127  1  0.65737570  0.80764928  0.56549785  1
  O  O128  1  0.25322738  0.67757654  0.57903045  1
  O  O129  1  0.75509698  0.66496719  0.57013730  1
  O  O130  1  0.08559768  0.50161890  0.56159431  1
  O  O131  1  0.58511524  0.48735454  0.58093383  1
  O  O132  1  0.14394153  0.83500163  0.24080753  1
  O  O133  1  0.64093208  0.84266193  0.25199056  1
  O  O134  1  0.27957614  0.70996733  0.24875748  1
  O  O135  1  0.77239561  0.70780508  0.23661876  1
  O  O136  1  0.07712079  0.46595537  0.23816337  1
  O  O137  1  0.57619018  0.44606909  0.25114132  1
  O  O138  1  0.14062445  0.45985786  0.75338271  1
  O  O139  1  0.64384355  0.45331340  0.74111111  1
  O  O140  1  0.07613432  0.70971080  0.74906997  1
  O  O141  1  0.57948511  0.69259889  0.73864009  1
  O  O142  1  0.27504061  0.84161917  0.73561116  1
  O  O143  1  0.77222174  0.84892209  0.74415174  1
loop_
_geom_bond_atom_site_label_1
_geom_bond_atom_site_label_2
_geom_bond_distance
_geom_bond_site_symmetry_2
Na0 O132 2.323296 1_655
Na0 O103 2.352766 1_555
Na0 O105 2.456323 1_555
Na0 O31 2.471737 1_555
Na0 O136 2.475440 1_655
Na0 O60 2.674888 1_655
Na1 O30 2.276474 1_555
Na1 O102 2.289991 1_555
Na1 O133 2.302460 1_555
Na1 O137 2.426919 1_555
Na1 O104 2.517642 1_555
Na1 O61 2.762242 1_555
Na2 O138 2.207837 1_555
Na2 O25 2.300171 1_455
Na2 O97 2.332552 1_455
Na2 O140 2.493692 1_555
Na2 O101 2.512318 1_455
Na3 O96 2.286820 1_555
Na3 O139 2.318924 1_555
Na3 O100 2.399975 1_555
Na3 O141 2.463329 1_555
Na3 O24 2.500432 1_555
Na3 O67 2.725795 1_555
Na4 O109 2.414566 1_555
Na4 O71 2.495170 1_555
Na4 O79 2.553206 1_555
Na4 O113 2.580820 1_555
Na4 O81 2.642769 1_545
Na4 O37 2.717974 1_556
Na4 O51 2.814745 1_555
Na4 O7 2.838456 1_555
Na5 O114 2.413650 1_555
Na5 O72 2.522347 1_545
Na5 O42 2.544323 1_555
Na5 O116 2.548295 1_555
Na5 O76 2.569975 1_555
Na5 O62 2.629874 1_545
Na5 O58 2.821844 1_545
Na5 O0 2.921318 1_555
Na6 O85 2.336400 1_555
Na6 O89 2.384312 1_545
Na6 O75 2.425970 1_545
Na6 O76 2.473573 1_655
Na6 O86 2.514198 1_645
Na6 O72 2.606852 1_645
Na7 O87 2.457624 1_555
Na7 O88 2.477207 1_545
Na7 O77 2.501029 1_555
Na7 O84 2.552398 1_555
Na7 O74 2.576327 1_545
Na7 O73 2.582755 1_545
Na8 O80 2.408232 1_545
Na8 O78 2.411632 1_555
Na8 O83 2.529118 1_445
Na8 O94 2.564824 1_556
Na8 O93 2.589455 1_456
Na8 O91 2.623613 1_546
Na9 O82 2.339320 1_554
Na9 O90 2.424592 1_555
Na9 O81 2.428320 1_554
Na9 O92 2.461671 1_565
Na9 O79 2.549778 1_564
Na9 O95 2.606412 1_565
Na10 O98 2.239431 1_555
Na10 O112 2.482873 1_555
Na10 O108 2.675729 1_555
Na10 O68 2.882268 1_545
Na11 O109 2.461988 1_555
Na11 O101 2.477462 1_555
Na11 O111 2.618480 1_555
Na11 O113 2.684709 1_555
Na11 O99 2.847534 1_555
Na11 O97 2.880127 1_555
Na12 O114 2.370711 1_555
Na12 O118 2.567448 1_555
Na12 O104 2.568299 1_555
Na12 O116 2.590114 1_555
Na12 O106 2.870989 1_555
Na12 O102 2.892880 1_555
Na13 O117 2.352816 1_555
Na13 O115 2.552869 1_555
Na13 O119 2.689840 1_555
Na13 O107 2.747811 1_555
Na13 O65 2.859317 1_555
Na13 O103 3.000974 1_555
Na13 O105 3.099244 1_555
Na14 O120 2.363834 1_555
Na14 O124 2.475567 1_555
Na14 O136 2.537537 1_555
Na14 O122 2.569554 1_555
Na14 O134 2.601544 1_555
Na14 O34 2.768615 1_555
Na14 O132 2.771845 1_555
Na15 O125 2.382677 1_555
Na15 O121 2.436659 1_555
Na15 O135 2.524317 1_555
Na15 O123 2.600679 1_555
Na15 O137 2.719251 1_555
Na15 O133 2.845417 1_555
Na16 O128 2.481180 1_555
Na16 O142 2.482617 1_555
Na16 O138 2.491668 1_555
Na16 O140 2.647203 1_555
Na16 O126 2.681194 1_555
Na16 O130 2.732316 1_555
Na17 O143 2.375835 1_555
Na17 O127 2.447905 1_555
Na17 O141 2.499429 1_555
Na17 O129 2.562698 1_555
Na17 O131 2.656614 1_555
Na17 O27 2.728813 1_565
Na17 O139 2.760180 1_555
Ca0 O5 2.218444 1_555
Ca0 O3 2.227975 1_545
Ca0 O75 2.276646 1_545
Ca0 O0 2.282389 1_655
Ca0 O76 2.315352 1_655
Ca0 O72 2.329727 1_645
Ca1 O10 2.192266 1_565
Ca1 O8 2.210424 1_555
Ca1 O7 2.270241 1_565
Ca1 O82 2.294528 1_555
Ca1 O81 2.320490 1_555
Ca1 O79 2.368293 1_565
Ca2 O98 2.129141 1_555
Ca2 O26 2.269607 1_555
Ca2 O28 2.282000 1_555
Ca2 O96 2.302337 1_555
Ca2 O100 2.325449 1_555
Ca2 O24 2.599516 1_555
Ca3 O27 2.214210 1_555
Ca3 O25 2.241598 1_555
Ca3 O29 2.322030 1_555
Ca3 O99 2.328028 1_555
Ca3 O97 2.357038 1_555
Ca3 O101 2.523954 1_555
Ca4 O34 2.195083 1_555
Ca4 O30 2.260194 1_555
Ca4 O32 2.325767 1_555
Ca4 O106 2.328945 1_555
Ca4 O102 2.413161 1_555
Ca4 O104 2.612733 1_555
Ca5 O35 2.248254 1_555
Ca5 O33 2.260458 1_555
Ca5 O105 2.292996 1_555
Ca5 O103 2.301713 1_555
Ca5 O107 2.308644 1_555
Ca5 O31 2.375916 1_555
Ca6 O109 2.138913 1_555
Ca6 O111 2.261478 1_555
Ca6 O39 2.261758 1_556
Ca6 O113 2.331809 1_555
Ca6 O41 2.341663 1_556
Ca6 O37 2.420879 1_556
Ca7 O114 2.158280 1_555
Ca7 O46 2.264106 1_555
Ca7 O44 2.332760 1_555
Ca7 O116 2.334311 1_555
Ca7 O118 2.341740 1_555
Ca7 O42 2.411468 1_555
Ca8 O62 2.087829 1_555
Ca8 O64 2.234061 1_555
Ca8 O134 2.302693 1_555
Ca8 O60 2.352267 1_555
Ca8 O132 2.413707 1_555
Ca8 O136 2.416683 1_555
Ca9 O65 2.127725 1_555
Ca9 O63 2.292258 1_555
Ca9 O61 2.317607 1_555
Ca9 O135 2.355391 1_555
Ca9 O137 2.406674 1_555
Ca9 O133 2.530009 1_555
Ca10 O68 2.185196 1_555
Ca10 O138 2.262269 1_555
Ca10 O66 2.300589 1_555
Ca10 O70 2.325549 1_555
Ca10 O142 2.341702 1_555
Ca10 O140 2.390417 1_555
Ca11 O71 2.083276 1_555
Ca11 O69 2.246874 1_555
Ca11 O143 2.268096 1_555
Ca11 O67 2.365207 1_555
Ca11 O141 2.390421 1_555
Ca11 O139 2.409380 1_555
Ge0 O74 1.787089 1_545
Ge0 O77 1.806336 1_555
Ge0 O4 1.955470 1_555
Ge0 O73 1.970300 1_545
Ge0 O1 2.096099 1_555
Ge0 O2 2.274866 1_545
Ge1 O6 1.755403 1_565
Ge1 O80 1.820828 1_555
Ge1 O83 1.831759 1_455
Ge1 O9 1.941470 1_455
Ge1 O78 2.262812 1_565
Ge1 O11 2.446165 1_465
Ge2 O14 1.731164 1_555
Ge2 O85 1.824033 1_455
Ge2 O13 1.889511 1_445
Ge2 O86 2.085689 1_545
Ge2 O16 2.200454 1_545
Ge2 O89 2.374988 1_445
Ge3 O87 1.793745 1_555
Ge3 O17 1.902272 1_545
Ge3 O12 1.909243 1_545
Ge3 O15 1.918121 1_555
Ge3 O84 1.961839 1_555
Ge3 O88 2.022016 1_545
Ge4 O94 1.788512 1_555
Ge4 O22 1.914569 1_545
Ge4 O20 1.921488 1_555
Ge4 O91 1.937913 1_545
Ge4 O19 1.970855 1_445
Ge4 O93 1.990923 1_455
Ge5 O90 1.825665 1_555
Ge5 O18 1.865173 1_555
Ge5 O95 1.948546 1_565
Ge5 O92 1.958637 1_565
Ge5 O23 1.989092 1_555
Ge5 O21 2.152330 1_565
Ge6 O36 1.776934 1_556
Ge6 O112 1.814919 1_555
Ge6 O38 1.835833 1_556
Ge6 O108 1.967414 1_555
Ge6 O40 2.277057 1_556
Ge6 O110 2.312438 1_555
Ge7 O43 1.771587 1_555
Ge7 O47 1.816528 1_555
Ge7 O117 1.826820 1_555
Ge7 O115 2.033760 1_555
Ge7 O45 2.102043 1_555
Ge7 O119 2.331080 1_555
Ge8 O52 1.757239 1_554
Ge8 O120 1.779246 1_555
Ge8 O50 1.892879 1_554
Ge8 O48 1.940455 1_554
Ge8 O122 2.185516 1_555
Ge8 O124 2.259316 1_555
Ge9 O49 1.790969 1_554
Ge9 O123 1.824740 1_555
Ge9 O53 1.913027 1_554
Ge9 O51 1.963110 1_554
Ge9 O125 2.103726 1_555
Ge9 O121 2.199519 1_555
Ge10 O54 1.786636 1_555
Ge10 O130 1.799599 1_555
Ge10 O56 1.971392 1_555
Ge10 O58 2.021935 1_555
Ge10 O128 2.036245 1_555
Ge10 O126 2.058544 1_555
Ge11 O57 1.777502 1_555
Ge11 O127 1.780737 1_555
Ge11 O129 1.944971 1_555
Ge11 O55 1.967895 1_555
Ge11 O131 2.044861 1_555
Ge11 O59 2.233195 1_555
O0 S0 1.473990 1_555
O1 S1 1.492468 1_555
O2 S2 1.466951 1_555
O3 S3 1.466167 1_555
O4 S5 1.525195 1_555
O5 S4 1.453851 1_555
O6 Si0 1.671591 1_555
O7 S6 1.479013 1_555
O8 S8 1.460133 1_555
O9 S7 1.526232 1_555
O10 S9 1.465870 1_555
O11 S10 1.450489 1_555
O12 S9 1.519035 1_565
O13 S10 1.561398 1_565
O14 Si0 1.706251 1_555
O15 S6 1.527919 1_555
O16 S7 1.474968 1_455
O17 S8 1.513225 1_555
O18 S2 1.547778 1_555
O19 S3 1.511951 1_555
O20 S4 1.511043 1_455
O21 S5 1.476014 1_555
O22 S0 1.532220 1_565
O23 S1 1.524531 1_565
O24 S11 1.463121 1_555
O25 Si1 1.592108 1_555
O26 S12 1.461223 1_555
O27 Si2 1.577236 1_555
O28 S13 1.463367 1_555
O29 S14 1.460711 1_555
O30 Si3 1.600057 1_555
O31 S15 1.473952 1_555
O32 S16 1.456681 1_555
O33 S17 1.464640 1_555
O34 Si4 1.582056 1_555
O35 S18 1.460629 1_555
O36 Si4 1.651001 1_555
O37 S18 1.471780 1_555
O38 Si3 1.684424 1_555
O39 S15 1.461220 1_555
O40 S16 1.477204 1_555
O41 S17 1.458866 1_555
O42 S12 1.474786 1_555
O43 Si2 1.651993 1_555
O44 S13 1.456538 1_555
O45 S14 1.494628 1_555
O46 S11 1.458542 1_555
O47 Si1 1.684426 1_555
O48 S19 1.493463 1_555
O49 Si5 1.744992 1_555
O50 S20 1.538754 1_555
O51 S21 1.524203 1_555
O52 Si6 1.686250 1_555
O53 S22 1.510498 1_555
O54 Si7 1.709055 1_555
O55 S23 1.487164 1_555
O56 S24 1.494133 1_555
O57 Si8 1.677575 1_555
O58 S25 1.504964 1_555
O59 S26 1.483017 1_555
O60 S25 1.487626 1_555
O61 S26 1.468694 1_555
O62 Si7 1.593941 1_555
O63 S23 1.464882 1_555
O64 S24 1.460585 1_555
O65 Si8 1.591138 1_555
O66 S20 1.462122 1_555
O67 S21 1.480451 1_555
O68 Si6 1.581457 1_555
O69 S22 1.457798 1_555
O70 S19 1.457775 1_555
O71 Si5 1.595781 1_555
O72 S25 1.499021 1_555
O73 S26 1.538300 1_555
O74 Si7 1.697212 1_555
O75 S23 1.477836 1_555
O76 S24 1.495592 1_555
O77 Si8 1.694050 1_555
O78 S20 1.473141 1_555
O79 S21 1.496594 1_555
O80 Si6 1.684732 1_555
O81 S22 1.489789 1_555
O82 S19 1.469601 1_555
O83 Si5 1.690522 1_555
O84 S11 1.518189 1_555
O85 Si1 1.708201 1_555
O86 S12 1.517664 1_565
O87 Si2 1.682042 1_555
O88 S13 1.512535 1_555
O89 S14 1.474979 1_555
O90 Si3 1.712469 1_555
O91 S15 1.519845 1_455
O92 S16 1.555106 1_555
O93 S17 1.517159 1_555
O94 Si4 1.681047 1_555
O95 S18 1.529153 1_555
O96 S9 1.474070 1_555
O97 S10 1.487068 1_555
O98 Si0 1.600352 1_555
O99 S6 1.451919 1_555
O100 S8 1.475550 1_555
O101 S7 1.486674 1_555
O102 S2 1.479231 1_555
O103 S3 1.487501 1_555
O104 S5 1.484935 1_555
O105 S4 1.486569 1_555
O106 S0 1.450284 1_555
O107 S1 1.471458 1_555
O108 S19 1.512432 1_555
O109 Si5 1.613095 1_555
O110 S21 1.457557 1_555
O111 S20 1.467649 1_655
O112 Si6 1.682339 1_545
O113 S22 1.469877 1_545
O114 Si7 1.611097 1_545
O115 S23 1.502680 1_545
O116 S24 1.478488 1_555
O117 Si8 1.661839 1_555
O118 S26 1.468095 1_555
O119 S25 1.462724 1_655
O120 Si4 1.675104 1_555
O121 S18 1.485989 1_555
O122 S15 1.483624 1_455
O123 Si3 1.672240 1_555
O124 S16 1.483320 1_565
O125 S17 1.507446 1_565
O126 S12 1.505686 1_565
O127 Si2 1.678808 1_565
O128 S13 1.517465 1_555
O129 S14 1.530069 1_555
O130 Si1 1.666000 1_455
O131 S11 1.503876 1_555
O132 S0 1.490163 1_565
O133 S1 1.478473 1_565
O134 S2 1.467079 1_555
O135 S3 1.468518 1_555
O136 S4 1.482411 1_455
O137 S5 1.491432 1_555
O138 Si0 1.613856 1_555
O139 S6 1.486367 1_555
O140 S7 1.485428 1_455
O141 S8 1.480196 1_555
O142 S9 1.460038 1_565
O143 S10 1.467830 1_565
