# generated using pymatgen
data_Sn(PO3)4
_symmetry_space_group_name_H-M   'P 1'
_cell_length_a   8.30685500
_cell_length_b   9.39726100
_cell_length_c   13.17260800
_cell_angle_alpha   90.00000000
_cell_angle_beta   90.00000000
_cell_angle_gamma   90.00000000
_symmetry_Int_Tables_number   1
_chemical_formula_structural   Sn(PO3)4
_chemical_formula_sum   'Sn4 P16 O48'
_cell_volume   1028.27597006
_cell_formula_units_Z   4
loop_
 _symmetry_equiv_pos_site_id
 _symmetry_equiv_pos_as_xyz
  1  'x, y, z'
loop_
 _atom_site_type_symbol
 _atom_site_label
 _atom_site_symmetry_multiplicity
 _atom_site_fract_x
 _atom_site_fract_y
 _atom_site_fract_z
 _atom_site_occupancy
  Sn  Sn0  1  0.35288100  0.75000000  0.00000000  1
  Sn  Sn1  1  0.64711900  0.25000000  0.00000000  1
  Sn  Sn2  1  0.14711900  0.25000000  0.50000000  1
  Sn  Sn3  1  0.85288100  0.75000000  0.50000000  1
  P  P0  1  0.17844600  0.50648500  0.14733800  1
  P  P1  1  0.82155400  0.00648500  0.14733800  1
  P  P2  1  0.46018600  0.01816200  0.15057400  1
  P  P3  1  0.53981400  0.51816200  0.15057400  1
  P  P4  1  0.03981400  0.51816200  0.34942600  1
  P  P5  1  0.96018600  0.01816200  0.34942600  1
  P  P6  1  0.32155400  0.00648500  0.35266200  1
  P  P7  1  0.67844600  0.50648500  0.35266200  1
  P  P8  1  0.32155400  0.49351500  0.64733800  1
  P  P9  1  0.67844600  0.99351500  0.64733800  1
  P  P10  1  0.03981400  0.98183800  0.65057400  1
  P  P11  1  0.96018600  0.48183800  0.65057400  1
  P  P12  1  0.46018600  0.48183800  0.84942600  1
  P  P13  1  0.53981400  0.98183800  0.84942600  1
  P  P14  1  0.17844600  0.99351500  0.85266200  1
  P  P15  1  0.82155400  0.49351500  0.85266200  1
  O  O0  1  0.18595300  0.62807800  0.07033400  1
  O  O1  1  0.81404700  0.12807800  0.07033400  1
  O  O2  1  0.46356200  0.13230400  0.06870200  1
  O  O3  1  0.53643800  0.63230400  0.06870200  1
  O  O4  1  0.08811200  0.37663500  0.12581900  1
  O  O5  1  0.91188800  0.87663500  0.12581900  1
  O  O6  1  0.36222700  0.88719000  0.12307200  1
  O  O7  1  0.63777300  0.38719000  0.12307200  1
  O  O8  1  0.36400100  0.47073100  0.18137800  1
  O  O9  1  0.63599900  0.97073100  0.18137800  1
  O  O10  1  0.11687400  0.58698400  0.25132500  1
  O  O11  1  0.88312600  0.08698400  0.25132500  1
  O  O12  1  0.38312600  0.08698400  0.24867500  1
  O  O13  1  0.61687400  0.58698400  0.24867500  1
  O  O14  1  0.13599900  0.97073100  0.31862200  1
  O  O15  1  0.86400100  0.47073100  0.31862200  1
  O  O16  1  0.13777300  0.38719000  0.37692800  1
  O  O17  1  0.86222700  0.88719000  0.37692800  1
  O  O18  1  0.41188800  0.87663500  0.37418100  1
  O  O19  1  0.58811200  0.37663500  0.37418100  1
  O  O20  1  0.03643800  0.63230400  0.43129800  1
  O  O21  1  0.96356200  0.13230400  0.43129800  1
  O  O22  1  0.31404700  0.12807800  0.42966600  1
  O  O23  1  0.68595300  0.62807800  0.42966600  1
  O  O24  1  0.31404700  0.37192200  0.57033400  1
  O  O25  1  0.68595300  0.87192200  0.57033400  1
  O  O26  1  0.03643800  0.86769600  0.56870200  1
  O  O27  1  0.96356200  0.36769600  0.56870200  1
  O  O28  1  0.41188800  0.62336500  0.62581900  1
  O  O29  1  0.58811200  0.12336500  0.62581900  1
  O  O30  1  0.13777300  0.11281000  0.62307200  1
  O  O31  1  0.86222700  0.61281000  0.62307200  1
  O  O32  1  0.13599900  0.52926900  0.68137800  1
  O  O33  1  0.86400100  0.02926900  0.68137800  1
  O  O34  1  0.38312600  0.41301600  0.75132500  1
  O  O35  1  0.61687400  0.91301600  0.75132500  1
  O  O36  1  0.11687400  0.91301600  0.74867500  1
  O  O37  1  0.88312600  0.41301600  0.74867500  1
  O  O38  1  0.36400100  0.02926900  0.81862200  1
  O  O39  1  0.63599900  0.52926900  0.81862200  1
  O  O40  1  0.36222700  0.61281000  0.87692800  1
  O  O41  1  0.63777300  0.11281000  0.87692800  1
  O  O42  1  0.08811200  0.12336500  0.87418100  1
  O  O43  1  0.91188800  0.62336500  0.87418100  1
  O  O44  1  0.46356200  0.36769600  0.93129800  1
  O  O45  1  0.53643800  0.86769600  0.93129800  1
  O  O46  1  0.18595300  0.87192200  0.92966600  1
  O  O47  1  0.81404700  0.37192200  0.92966600  1
loop_
_geom_bond_atom_site_label_1
_geom_bond_atom_site_label_2
_geom_bond_distance
_geom_bond_site_symmetry_2
O0 P0 1.529186 1_555
O0 Sn0 2.023329 1_555
O1 P1 1.529186 1_555
O1 Sn1 2.023329 1_555
O2 P2 1.521314 1_555
O2 Sn1 2.089793 1_555
O3 P3 1.521314 1_555
O3 Sn0 2.089793 1_555
O4 P0 1.460277 1_555
O5 P1 1.460277 1_565
O6 P2 1.519281 1_565
O6 Sn0 2.072755 1_555
O7 P3 1.519281 1_555
O7 Sn1 2.072755 1_555
O8 P3 1.579949 1_555
O8 P0 1.640060 1_555
O9 P2 1.579949 1_565
O9 P1 1.640060 1_565
O10 P4 1.580485 1_555
O10 P0 1.646252 1_555
O11 P5 1.580485 1_555
O11 P1 1.646252 1_555
O12 P2 1.580485 1_555
O12 P6 1.646252 1_555
O13 P3 1.580485 1_555
O13 P7 1.646252 1_555
O14 P5 1.579949 1_465
O14 P6 1.640060 1_565
O15 P4 1.579949 1_655
O15 P7 1.640060 1_555
O16 P4 1.519281 1_555
O16 Sn2 2.072755 1_555
O17 P5 1.519281 1_565
O17 Sn3 2.072755 1_555
O18 P6 1.460277 1_565
O19 P7 1.460277 1_555
O20 P4 1.521314 1_555
O20 Sn3 2.089793 1_455
O21 P5 1.521314 1_555
O21 Sn2 2.089793 1_655
O22 P6 1.529186 1_555
O22 Sn2 2.023329 1_555
O23 P7 1.529186 1_555
O23 Sn3 2.023329 1_555
O24 P8 1.529186 1_555
O24 Sn2 2.023329 1_555
O25 P9 1.529186 1_555
O25 Sn3 2.023329 1_555
O26 P10 1.521314 1_555
O26 Sn3 2.089793 1_455
O27 P11 1.521314 1_555
O27 Sn2 2.089793 1_655
O28 P8 1.460277 1_555
O29 P9 1.460277 1_545
O30 P10 1.519281 1_545
O30 Sn2 2.072755 1_555
O31 P11 1.519281 1_555
O31 Sn3 2.072755 1_555
O32 P11 1.579949 1_455
O32 P8 1.640060 1_555
O33 P10 1.579949 1_645
O33 P9 1.640060 1_545
O34 P12 1.580485 1_555
O34 P8 1.646252 1_555
O35 P13 1.580485 1_555
O35 P9 1.646252 1_555
O36 P10 1.580485 1_555
O36 P14 1.646252 1_555
O37 P11 1.580485 1_555
O37 P15 1.646252 1_555
O38 P13 1.579949 1_545
O38 P14 1.640060 1_545
O39 P12 1.579949 1_555
O39 P15 1.640060 1_555
O40 P12 1.519281 1_555
O40 Sn0 2.072755 1_556
O41 P13 1.519281 1_545
O41 Sn1 2.072755 1_556
O42 P14 1.460277 1_545
O43 P15 1.460277 1_555
O44 P12 1.521314 1_555
O44 Sn1 2.089793 1_556
O45 P13 1.521314 1_555
O45 Sn0 2.089793 1_556
O46 P14 1.529186 1_555
O46 Sn0 2.023329 1_556
O47 P15 1.529186 1_555
O47 Sn1 2.023329 1_556
