# generated using pymatgen
data_MgTi(WO4)2
_symmetry_space_group_name_H-M   'P 1'
_cell_length_a   5.00303814
_cell_length_b   6.81536189
_cell_length_c   6.39892325
_cell_angle_alpha   105.95946239
_cell_angle_beta   125.56560208
_cell_angle_gamma   91.39490153
_symmetry_Int_Tables_number   1
_chemical_formula_structural   MgTi(WO4)2
_chemical_formula_sum   'Mg1 Ti1 W2 O8'
_cell_volume   165.83975944
_cell_formula_units_Z   1
loop_
 _symmetry_equiv_pos_site_id
 _symmetry_equiv_pos_as_xyz
  1  'x, y, z'
loop_
 _atom_site_type_symbol
 _atom_site_label
 _atom_site_symmetry_multiplicity
 _atom_site_fract_x
 _atom_site_fract_y
 _atom_site_fract_z
 _atom_site_occupancy
  Mg  Mg0  1  0.58898500  0.87788700  0.08210000  1
  Ti  Ti0  1  0.12718100  0.24675900  0.10718300  1
  W  W0  1  0.91480900  0.38405900  0.62180700  1
  W  W1  1  0.35769800  0.06223400  0.58168800  1
  O  O0  1  0.20231400  0.63697000  0.82472800  1
  O  O1  1  0.49830600  0.46242500  0.34900200  1
  O  O2  1  0.19949500  0.18198400  0.81558300  1
  O  O3  1  0.49798000  0.07749300  0.33192000  1
  O  O4  1  0.72550500  0.98281600  0.88202200  1
  O  O5  1  0.03233200  0.82399900  0.34396100  1
  O  O6  1  0.05539300  0.25655300  0.38516600  1
  O  O7  1  0.75916300  0.35133900  0.84437000  1
loop_
_geom_bond_atom_site_label_1
_geom_bond_atom_site_label_2
_geom_bond_distance
_geom_bond_site_symmetry_2
Mg0 O0 1.950082 1_554
Mg0 O5 1.979162 1_655
Mg0 O4 2.028293 1_554
Mg0 O3 2.072279 1_565
O0 W0 1.789394 1_455
O1 Ti0 1.810127 1_555
O1 W0 2.002533 1_555
O2 Ti0 2.036552 1_556
O2 W1 2.066481 1_555
O2 W0 2.107843 1_455
O3 W1 2.109615 1_555
O3 Ti0 2.180244 1_555
O3 W0 2.304750 1_555
O4 W1 1.969566 1_565
O4 Ti0 2.093056 1_666
O5 W1 1.797959 1_565
O6 Ti0 1.994141 1_555
O6 W0 2.021848 1_455
O6 W1 2.103251 1_555
O7 Ti0 1.961465 1_656
O7 W0 2.034848 1_555
O7 W1 2.191030 1_555
