# generated using pymatgen
data_Eu4As3
_symmetry_space_group_name_H-M   'P 1'
_cell_length_a   7.94834609
_cell_length_b   7.94826385
_cell_length_c   7.94637372
_cell_angle_alpha   109.46421768
_cell_angle_beta   109.46566868
_cell_angle_gamma   109.47215292
_symmetry_Int_Tables_number   1
_chemical_formula_structural   Eu4As3
_chemical_formula_sum   'Eu8 As6'
_cell_volume   386.50793788
_cell_formula_units_Z   2
loop_
 _symmetry_equiv_pos_site_id
 _symmetry_equiv_pos_as_xyz
  1  'x, y, z'
loop_
 _atom_site_type_symbol
 _atom_site_label
 _atom_site_symmetry_multiplicity
 _atom_site_fract_x
 _atom_site_fract_y
 _atom_site_fract_z
 _atom_site_occupancy
  Eu  Eu0  1  0.36354248  0.49980560  0.99996616  1
  Eu  Eu1  1  0.63650524  0.63612585  0.63638802  1
  Eu  Eu2  1  0.50002019  0.00001524  0.36362755  1
  Eu  Eu3  1  0.00026218  0.36377946  0.50023726  1
  Eu  Eu4  1  0.50001458  -0.00001227  0.86375916  1
  Eu  Eu5  1  0.99966367  0.86346673  0.49990567  1
  Eu  Eu6  1  0.86382863  0.50037303  0.00025247  1
  Eu  Eu7  1  0.13620410  0.13646580  0.13643657  1
  As  As0  1  0.75002450  0.87474864  0.12488250  1
  As  As1  1  0.62528950  0.37526079  0.25013741  1
  As  As2  1  0.87513684  0.12528463  0.74999209  1
  As  As3  1  0.12471469  0.74995861  0.87484867  1
  As  As4  1  0.37473066  0.24988508  0.62473220  1
  As  As5  1  0.25006175  0.62484280  0.37483328  1
loop_
_geom_bond_atom_site_label_1
_geom_bond_atom_site_label_2
_geom_bond_distance
_geom_bond_site_symmetry_2
As0 Eu5 3.030136 1_555
As0 Eu7 3.030734 1_665
As0 Eu4 3.031905 1_564
As0 Eu0 3.032488 1_554
As0 Eu6 3.328820 1_555
As0 Eu1 3.331313 1_554
As0 Eu2 3.333460 1_565
As0 Eu3 3.335612 1_665
As1 Eu1 3.029989 1_555
As1 Eu0 3.031211 1_554
As1 Eu4 3.032203 1_554
As1 Eu3 3.032384 1_655
As1 Eu5 3.329292 1_555
As1 Eu6 3.330876 1_555
As1 Eu2 3.333384 1_555
As1 Eu7 3.335853 1_555
As2 Eu5 3.031108 1_545
As2 Eu2 3.031460 1_555
As2 Eu7 3.031832 1_656
As2 Eu6 3.032759 1_556
As2 Eu3 3.329734 1_655
As2 Eu0 3.330569 1_655
As2 Eu4 3.334047 1_555
As2 Eu1 3.336467 1_545
As3 Eu6 3.029913 1_456
As3 Eu3 3.030716 1_555
As3 Eu4 3.032345 1_565
As3 Eu7 3.032737 1_566
As3 Eu1 3.329144 1_455
As3 Eu5 3.330833 1_455
As3 Eu2 3.333925 1_566
As3 Eu0 3.334835 1_555
As4 Eu1 3.030815 1_555
As4 Eu2 3.031579 1_555
As4 Eu0 3.031801 1_555
As4 Eu5 3.032964 1_445
As4 Eu3 3.329850 1_555
As4 Eu7 3.330066 1_555
As4 Eu4 3.334191 1_555
As4 Eu6 3.336182 1_556
As5 Eu6 3.030760 1_455
As5 Eu3 3.031635 1_555
As5 Eu2 3.031885 1_565
As5 Eu1 3.033111 1_555
As5 Eu0 3.330189 1_554
As5 Eu7 3.330218 1_555
As5 Eu4 3.334404 1_565
As5 Eu5 3.335399 1_455
