# generated using pymatgen
data_MgZn2(WO4)2
_symmetry_space_group_name_H-M   'P 1'
_cell_length_a   4.97146363
_cell_length_b   4.83533219
_cell_length_c   8.13588308
_cell_angle_alpha   104.49010398
_cell_angle_beta   105.06054428
_cell_angle_gamma   98.81156605
_symmetry_Int_Tables_number   1
_chemical_formula_structural   MgZn2(WO4)2
_chemical_formula_sum   'Mg1 Zn2 W2 O8'
_cell_volume   177.80121697
_cell_formula_units_Z   1
loop_
 _symmetry_equiv_pos_site_id
 _symmetry_equiv_pos_as_xyz
  1  'x, y, z'
loop_
 _atom_site_type_symbol
 _atom_site_label
 _atom_site_symmetry_multiplicity
 _atom_site_fract_x
 _atom_site_fract_y
 _atom_site_fract_z
 _atom_site_occupancy
  Mg  Mg0  1  0.01033800  0.26023300  0.52134700  1
  Zn  Zn0  1  0.36427200  0.61416400  0.22931900  1
  Zn  Zn1  1  0.65066900  0.40060000  0.80189400  1
  W  W0  1  0.81437300  0.06428000  0.12944700  1
  W  W1  1  0.17981600  0.92966400  0.86012400  1
  O  O0  1  0.90785600  0.57412100  0.68394600  1
  O  O1  1  0.51020200  0.27102200  0.07618400  1
  O  O2  1  0.70529600  0.94137900  0.32179600  1
  O  O3  1  0.92569100  0.18186300  0.91487100  1
  O  O4  1  0.11564200  0.37943400  0.32181200  1
  O  O5  1  0.27567800  0.10912900  0.68395400  1
  O  O6  1  0.48867600  0.73227300  0.91483700  1
  O  O7  1  0.06537900  0.80434300  0.07618300  1
loop_
_geom_bond_atom_site_label_1
_geom_bond_atom_site_label_2
_geom_bond_distance
_geom_bond_site_symmetry_2
Mg0 O0 1.973723 1_455
Mg0 O5 1.973882 1_555
Mg0 O4 2.014731 1_555
Mg0 O2 2.015993 1_445
O0 W1 1.971216 1_655
O0 Zn1 1.992863 1_555
O1 W0 1.952733 1_555
O1 Zn0 2.153038 1_555
O1 W1 2.174677 1_544
O2 Zn0 1.965536 1_555
O2 W0 1.975825 1_565
O3 W1 1.942738 1_645
O3 Zn1 2.027159 1_555
O3 W0 2.139999 1_556
O4 Zn0 1.965529 1_555
O4 W0 1.975840 1_455
O5 W1 1.971089 1_545
O5 Zn1 1.992771 1_555
O6 W1 1.942486 1_555
O6 Zn1 2.026760 1_555
O6 W0 2.139936 1_566
O7 W0 1.952867 1_465
O7 Zn0 2.153083 1_555
O7 W1 2.174391 1_554
