# generated using pymatgen
data_Na14Ti6Zn2Si9(SO16)3
_symmetry_space_group_name_H-M   'P 1'
_cell_length_a   18.03212329
_cell_length_b   9.05063318
_cell_length_c   22.01982330
_cell_angle_alpha   90.19438379
_cell_angle_beta   90.08579395
_cell_angle_gamma   120.13410260
_symmetry_Int_Tables_number   1
_chemical_formula_structural   Na14Ti6Zn2Si9(SO16)3
_chemical_formula_sum   'Na42 Ti18 Zn6 Si27 S9 O144'
_cell_volume   3107.96677180
_cell_formula_units_Z   3
loop_
 _symmetry_equiv_pos_site_id
 _symmetry_equiv_pos_as_xyz
  1  'x, y, z'
loop_
 _atom_site_type_symbol
 _atom_site_label
 _atom_site_symmetry_multiplicity
 _atom_site_fract_x
 _atom_site_fract_y
 _atom_site_fract_z
 _atom_site_occupancy
  Na  Na0  1  0.31322212  0.00725524  0.24512776  1
  Na  Na1  1  0.81465581  0.01390623  0.24640563  1
  Na  Na2  1  0.19024741  0.37151004  0.25301533  1
  Na  Na3  1  0.69292140  0.36982480  0.24907686  1
  Na  Na4  1  0.99211661  0.61736627  0.25163492  1
  Na  Na5  1  0.49497985  0.62519748  0.24781952  1
  Na  Na6  1  0.31467046  0.61525363  0.74290765  1
  Na  Na7  1  0.81407113  0.62150990  0.74179973  1
  Na  Na8  1  0.99372805  0.35628583  0.74240025  1
  Na  Na9  1  0.49301837  0.37090283  0.74822795  1
  Na  Na10  1  0.19358775  0.02067945  0.74503710  1
  Na  Na11  1  0.69205532  0.00892267  0.74935908  1
  Na  Na12  1  0.15530812  0.34164505  0.58469152  1
  Na  Na13  1  0.65500012  0.35000178  0.57792388  1
  Na  Na14  1  0.01287183  0.69509979  0.58153630  1
  Na  Na15  1  0.51657184  0.69339854  0.57328816  1
  Na  Na16  1  0.33098670  0.96878480  0.58432417  1
  Na  Na17  1  0.82753816  0.95309816  0.57471995  1
  Na  Na18  1  0.15547193  0.96261860  0.08337452  1
  Na  Na19  1  0.65636017  0.96930011  0.08699978  1
  Na  Na20  1  0.33037665  0.70011430  0.08274966  1
  Na  Na21  1  0.83071179  0.69401735  0.08692507  1
  Na  Na22  1  0.01569425  0.33513094  0.07757240  1
  Na  Na23  1  0.51505741  0.33210246  0.08584256  1
  Na  Na24  1  0.98375539  0.67323472  0.91911989  1
  Na  Na25  1  0.35023844  0.03412929  0.91349740  1
  Na  Na26  1  0.16444127  0.29625499  0.91664791  1
  Na  Na27  1  0.48612843  0.29897710  0.41895290  1
  Na  Na28  1  0.66822991  0.03329149  0.41649440  1
  Na  Na29  1  0.84897606  0.67297095  0.41981704  1
  Na  Na30  1  0.00197787  0.00311219  0.49467536  1
  Na  Na31  1  0.49370599  0.98755464  0.49506594  1
  Na  Na32  1  0.99149121  0.99865537  0.99585004  1
  Na  Na33  1  0.50854706  0.01128155  0.99945895  1
  Na  Na34  1  0.33722437  0.34093539  0.82731140  1
  Na  Na35  1  0.82726581  0.31958757  0.83245266  1
  Na  Na36  1  0.32738701  0.33488693  0.33291353  1
  Na  Na37  1  0.83620544  0.32923595  0.32995509  1
  Na  Na38  1  0.17117429  0.67438711  0.16747977  1
  Na  Na39  1  0.66886497  0.67549752  0.16811530  1
  Na  Na40  1  0.16886223  0.66145733  0.66299386  1
  Na  Na41  1  0.67225365  0.66864179  0.66360859  1
  Ti  Ti0  1  0.99726026  0.99545307  0.35125426  1
  Ti  Ti1  1  0.49708200  0.97711821  0.35799299  1
  Ti  Ti2  1  0.99591060  0.01557881  0.85770639  1
  Ti  Ti3  1  0.50479251  0.01194221  0.84879561  1
  Ti  Ti4  1  0.99594418  0.01411704  0.64034795  1
  Ti  Ti5  1  0.49533208  0.98471103  0.65291978  1
  Ti  Ti6  1  0.99516259  0.00411939  0.15400502  1
  Ti  Ti7  1  0.49743430  0.97971241  0.14303687  1
  Ti  Ti8  1  0.34570813  0.32650861  0.97943658  1
  Ti  Ti9  1  0.82705056  0.31816225  0.97807485  1
  Ti  Ti10  1  0.32723047  0.33636533  0.47777174  1
  Ti  Ti11  1  0.84653693  0.35453019  0.47437864  1
  Ti  Ti12  1  0.66935546  0.65360382  0.02078341  1
  Ti  Ti13  1  0.16933454  0.68413421  0.51970385  1
  Ti  Ti14  1  0.16582045  0.68451628  0.31004593  1
  Ti  Ti15  1  0.67214251  0.68026955  0.32067874  1
  Ti  Ti16  1  0.16438014  0.66851479  0.81545885  1
  Ti  Ti17  1  0.66597349  0.64779370  0.80976982  1
  Zn  Zn0  1  0.32428210  0.33159034  0.68641309  1
  Zn  Zn1  1  0.83537796  0.33507217  0.68094750  1
  Zn  Zn2  1  0.33479812  0.33243437  0.18339192  1
  Zn  Zn3  1  0.82368444  0.31700536  0.18840226  1
  Zn  Zn4  1  0.16545438  0.67864664  0.01013262  1
  Zn  Zn5  1  0.67408549  0.66440423  0.50444164  1
  Si  Si0  1  0.14409189  0.00395629  0.24951984  1
  Si  Si1  1  0.64131766  0.99057905  0.25217241  1
  Si  Si2  1  0.35370796  0.70956080  0.24919067  1
  Si  Si3  1  0.85059830  0.70621030  0.25189588  1
  Si  Si4  1  0.00256531  0.29527909  0.25288160  1
  Si  Si5  1  0.14081106  0.28961098  0.75237112  1
  Si  Si6  1  0.64611275  0.28932339  0.74698074  1
  Si  Si7  1  0.50267484  0.71106132  0.75366822  1
  Si  Si8  1  0.35206749  0.99452247  0.75266307  1
  Si  Si9  1  0.85354643  0.99718304  0.74923760  1
  Si  Si10  1  0.98017998  0.34096623  0.58357807  1
  Si  Si11  1  0.18860698  0.04533344  0.58576215  1
  Si  Si12  1  0.33498237  0.62883811  0.58383246  1
  Si  Si13  1  0.83050663  0.62385990  0.58616320  1
  Si  Si14  1  0.48010317  0.62023769  0.08376708  1
  Si  Si15  1  0.33074665  0.03026836  0.08622796  1
  Si  Si16  1  0.83512822  0.04130053  0.08320849  1
  Si  Si17  1  0.68874607  0.33208265  0.08561227  1
  Si  Si18  1  0.81063737  0.66040680  0.91619214  1
  Si  Si19  1  0.01912328  0.37863935  0.92034150  1
  Si  Si20  1  0.52520549  0.37374838  0.91558644  1
  Si  Si21  1  0.16613856  0.96602756  0.91747381  1
  Si  Si22  1  0.31123636  0.96128589  0.41638639  1
  Si  Si23  1  0.82069988  0.97403508  0.41954205  1
  Si  Si24  1  0.66529517  0.36960127  0.41717459  1
  Si  Si25  1  0.02617313  0.67744602  0.41533913  1
  Si  Si26  1  0.51911803  0.65895186  0.41981979  1
  S  S0  1  0.50266323  0.28777070  0.25082187  1
  S  S1  1  0.00336115  0.71649856  0.75246344  1
  S  S2  1  0.47869985  0.32990339  0.58500535  1
  S  S3  1  0.68312778  0.03862536  0.58443673  1
  S  S4  1  0.97905791  0.62774091  0.08397662  1
  S  S5  1  0.18523973  0.32976009  0.08215434  1
  S  S6  1  0.31562832  0.66618705  0.91651939  1
  S  S7  1  0.66519605  0.95467106  0.91653947  1
  S  S8  1  0.16673528  0.37878838  0.41669256  1
  O  O0  1  0.09221767  0.02234729  0.30656350  1
  O  O1  1  0.59128221  0.01215283  0.31005310  1
  O  O2  1  0.41697163  0.81743924  0.30552609  1
  O  O3  1  0.91239206  0.80564102  0.31042350  1
  O  O4  1  0.49397926  0.18670935  0.30552204  1
  O  O5  1  0.98952913  0.16363289  0.30720907  1
  O  O6  1  0.09205203  0.16972332  0.81104321  1
  O  O7  1  0.59371595  0.16886675  0.80581148  1
  O  O8  1  0.49085492  0.81825240  0.80934622  1
  O  O9  1  0.99599159  0.80137098  0.80731981  1
  O  O10  1  0.41297468  0.01648320  0.81209549  1
  O  O11  1  0.91675503  0.01619293  0.80612251  1
  O  O12  1  0.39914520  0.96147343  0.69274882  1
  O  O13  1  0.89947027  0.96772819  0.68858922  1
  O  O14  1  0.08052367  0.19678229  0.69144679  1
  O  O15  1  0.58290095  0.19510789  0.68791203  1
  O  O16  1  0.01437058  0.81458798  0.69636309  1
  O  O17  1  0.51630670  0.83297233  0.69212928  1
  O  O18  1  0.39896089  0.82894498  0.18747004  1
  O  O19  1  0.89911270  0.83538983  0.19183998  1
  O  O20  1  0.01697991  0.20231172  0.19027077  1
  O  O21  1  0.51037775  0.20449591  0.19435595  1
  O  O22  1  0.08349488  0.97216216  0.18754598  1
  O  O23  1  0.58116343  0.96971911  0.19078490  1
  O  O24  1  0.43792501  0.34572209  0.64062972  1
  O  O25  1  0.94787224  0.38253617  0.64611239  1
  O  O26  1  0.24657873  0.10593608  0.64630846  1
  O  O27  1  0.73312736  0.11537214  0.64073764  1
  O  O28  1  0.31421731  0.51839845  0.64512759  1
  O  O29  1  0.81423461  0.51146192  0.64685636  1
  O  O30  1  0.44602477  0.50888416  0.14474904  1
  O  O31  1  0.93849299  0.53014681  0.13941071  1
  O  O32  1  0.30980539  0.11099371  0.14439546  1
  O  O33  1  0.81404845  0.11158041  0.14409558  1
  O  O34  1  0.23578536  0.35385625  0.13816414  1
  O  O35  1  0.74738075  0.38786554  0.14546416  1
  O  O36  1  0.22845057  0.31256173  0.02699778  1
  O  O37  1  0.73994388  0.30269858  0.02809587  1
  O  O38  1  0.41195604  0.51909535  0.02689791  1
  O  O39  1  0.92713078  0.54400425  0.02825683  1
  O  O40  1  0.34598167  0.15936123  0.02540457  1
  O  O41  1  0.85105799  0.17400631  0.02559598  1
  O  O42  1  0.23964187  0.17843218  0.52917588  1
  O  O43  1  0.72538849  0.14188967  0.52975401  1
  O  O44  1  0.35143318  0.52812422  0.52685820  1
  O  O45  1  0.84640543  0.52753796  0.52642610  1
  O  O46  1  0.42585352  0.30735107  0.52954271  1
  O  O47  1  0.91323984  0.30619895  0.52735381  1
  O  O48  1  0.27845147  0.69271004  0.97235983  1
  O  O49  1  0.76494729  0.68920675  0.97582379  1
  O  O50  1  0.07946001  0.45080482  0.97980801  1
  O  O51  1  0.58213683  0.47313033  0.97511139  1
  O  O52  1  0.14562771  0.85488045  0.97834504  1
  O  O53  1  0.65691360  0.85713004  0.97222812  1
  O  O54  1  0.26559914  0.84139388  0.47605441  1
  O  O55  1  0.78357348  0.85470623  0.47840079  1
  O  O56  1  0.15962224  0.46267393  0.47241937  1
  O  O57  1  0.63857164  0.43253611  0.47769787  1
  O  O58  1  0.08287385  0.68840560  0.47483494  1
  O  O59  1  0.57780404  0.70370285  0.47983310  1
  O  O60  1  0.06990005  0.64557584  0.35502679  1
  O  O61  1  0.56892489  0.63413178  0.36026128  1
  O  O62  1  0.25073264  0.86347615  0.35640082  1
  O  O63  1  0.75259998  0.87025074  0.36103645  1
  O  O64  1  0.17776341  0.47995435  0.36121705  1
  O  O65  1  0.68311481  0.50468848  0.35978199  1
  O  O66  1  0.07307498  0.50884124  0.86221862  1
  O  O67  1  0.56840310  0.48904648  0.85479991  1
  O  O68  1  0.18435848  0.86614269  0.85970658  1
  O  O69  1  0.67553955  0.87471032  0.86116725  1
  O  O70  1  0.25963563  0.64481361  0.86245065  1
  O  O71  1  0.74986533  0.63763487  0.85654260  1
  O  O72  1  0.01149951  0.84040241  0.41275810  1
  O  O73  1  0.50872872  0.82943127  0.41112449  1
  O  O74  1  0.40856136  0.99160733  0.40975399  1
  O  O75  1  0.91367411  0.98924682  0.40895732  1
  O  O76  1  0.09122245  0.20576710  0.41355592  1
  O  O77  1  0.58198003  0.17792348  0.40613149  1
  O  O78  1  0.00879073  0.18830606  0.91122335  1
  O  O79  1  0.50750050  0.17642650  0.91331299  1
  O  O80  1  0.08158237  0.98543532  0.90771006  1
  O  O81  1  0.58877773  0.97729483  0.91332092  1
  O  O82  1  0.40175595  0.82039274  0.91060346  1
  O  O83  1  0.90809197  0.82563136  0.90945225  1
  O  O84  1  0.48652850  0.17066022  0.58595328  1
  O  O85  1  0.98547206  0.16142934  0.58563254  1
  O  O86  1  0.09312593  0.02651557  0.59025889  1
  O  O87  1  0.59653972  0.02914766  0.58673590  1
  O  O88  1  0.42379708  0.82309659  0.58709230  1
  O  O89  1  0.92219268  0.81333366  0.59002753  1
  O  O90  1  0.48538071  0.80970158  0.08566966  1
  O  O91  1  0.98767398  0.80265085  0.08486192  1
  O  O92  1  0.42221310  0.02927733  0.08768948  1
  O  O93  1  0.92343954  0.02372998  0.08590504  1
  O  O94  1  0.09903979  0.16756651  0.08402258  1
  O  O95  1  0.59334330  0.15999035  0.08889650  1
  O  O96  1  0.34627522  0.16531953  0.75147494  1
  O  O97  1  0.84561425  0.16745801  0.74773340  1
  O  O98  1  0.23538252  0.31191239  0.75257746  1
  O  O99  1  0.73965459  0.30941091  0.74936810  1
  O  O100  1  0.41924185  0.52479324  0.74897665  1
  O  O101  1  0.92805753  0.54199520  0.75149207  1
  O  O102  1  0.34573661  0.52321774  0.24694054  1
  O  O103  1  0.84585315  0.52460062  0.24938697  1
  O  O104  1  0.42557884  0.30757955  0.24950391  1
  O  O105  1  0.91962203  0.31618934  0.24758349  1
  O  O106  1  0.23924121  0.16952532  0.24878007  1
  O  O107  1  0.73510495  0.15910158  0.25212396  1
  O  O108  1  0.31906871  0.50553166  0.91857199  1
  O  O109  1  0.82221741  0.49204143  0.92466040  1
  O  O110  1  0.42721591  0.35085426  0.92204175  1
  O  O111  1  0.92629071  0.36972926  0.92232281  1
  O  O112  1  0.25312190  0.15874445  0.92221564  1
  O  O113  1  0.74460799  0.13053529  0.92010137  1
  O  O114  1  0.32165888  0.15189203  0.42533473  1
  O  O115  1  0.81945739  0.15338188  0.42257443  1
  O  O116  1  0.24674506  0.36323068  0.42052390  1
  O  O117  1  0.75292250  0.35646733  0.42281318  1
  O  O118  1  0.42483867  0.48281946  0.42323447  1
  O  O119  1  0.92914605  0.50590262  0.42097351  1
  O  O120  1  0.17290068  0.47950229  0.07931404  1
  O  O121  1  0.67390406  0.49828572  0.07546362  1
  O  O122  1  0.06583425  0.64631066  0.08114892  1
  O  O123  1  0.57797949  0.65843015  0.07200580  1
  O  O124  1  0.24970195  0.83693406  0.07659321  1
  O  O125  1  0.75106123  0.84905796  0.07277631  1
  O  O126  1  0.17375578  0.84946908  0.57550968  1
  O  O127  1  0.66935932  0.86335856  0.58170452  1
  O  O128  1  0.25158219  0.65475403  0.57407315  1
  O  O129  1  0.74840232  0.65260088  0.58033361  1
  O  O130  1  0.07870640  0.49809466  0.57293509  1
  O  O131  1  0.56500706  0.48351296  0.58195121  1
  O  O132  1  0.14965223  0.82510066  0.25238461  1
  O  O133  1  0.64565033  0.81248674  0.25482998  1
  O  O134  1  0.25967768  0.69642848  0.25453423  1
  O  O135  1  0.75670706  0.69514388  0.25468415  1
  O  O136  1  0.09242436  0.47964430  0.25606261  1
  O  O137  1  0.58173477  0.46054570  0.25281062  1
  O  O138  1  0.14796551  0.48071485  0.75884894  1
  O  O139  1  0.65035719  0.47652725  0.75172749  1
  O  O140  1  0.08402987  0.70156011  0.75547310  1
  O  O141  1  0.59191657  0.70505227  0.75711450  1
  O  O142  1  0.25786688  0.81673789  0.75710639  1
  O  O143  1  0.75934494  0.82291190  0.75596350  1
loop_
_geom_bond_atom_site_label_1
_geom_bond_atom_site_label_2
_geom_bond_distance
_geom_bond_site_symmetry_2
Na0 O32 2.424279 1_555
Na0 O106 2.430991 1_555
Na0 O104 2.443484 1_555
Na0 O134 2.483239 1_545
Na0 O132 2.562026 1_545
Na0 O62 2.743040 1_545
Na1 O107 2.385907 1_555
Na1 O105 2.422435 1_555
Na1 O33 2.424889 1_555
Na1 O135 2.534884 1_545
Na1 O133 2.659133 1_545
Na1 O63 2.807826 1_545
Na2 O106 2.398290 1_555
Na2 O136 2.409798 1_555
Na2 O102 2.429294 1_555
Na2 O134 2.553227 1_555
Na2 O64 2.626457 1_555
Na2 O34 2.689029 1_555
Na3 O107 2.382801 1_555
Na3 O103 2.385031 1_555
Na3 O35 2.458589 1_555
Na3 O137 2.520635 1_555
Na3 O135 2.569859 1_555
Na3 O65 2.767919 1_555
Na4 O103 2.332262 1_555
Na4 O105 2.359510 1_555
Na4 O132 2.498373 1_655
Na4 O60 2.615844 1_655
Na4 O31 2.622587 1_555
Na4 O136 2.664360 1_655
Na5 O102 2.366524 1_555
Na5 O133 2.377321 1_555
Na5 O30 2.466425 1_555
Na5 O104 2.493972 1_555
Na5 O137 2.649779 1_555
Na5 O61 2.792002 1_555
Na6 O28 2.320406 1_555
Na6 O98 2.385499 1_555
Na6 O100 2.407049 1_555
Na6 O142 2.518889 1_555
Na6 O138 2.640664 1_555
Na6 O70 2.873174 1_555
Na6 O12 2.931745 1_555
Na7 O29 2.313359 1_555
Na7 O99 2.450595 1_555
Na7 O143 2.489361 1_555
Na7 O101 2.504619 1_555
Na7 O139 2.568860 1_555
Na7 O71 2.814503 1_555
Na7 O13 2.957774 1_555
Na8 O25 2.330453 1_555
Na8 O97 2.342454 1_555
Na8 O138 2.446237 1_655
Na8 O101 2.502848 1_555
Na8 O140 2.717180 1_655
Na9 O96 2.350959 1_555
Na9 O100 2.360156 1_555
Na9 O139 2.498976 1_555
Na9 O24 2.532666 1_555
Na9 O141 2.635255 1_555
Na9 O67 2.648050 1_555
Na10 O26 2.347761 1_555
Na10 O98 2.354852 1_555
Na10 O96 2.386009 1_555
Na10 O140 2.564060 1_545
Na10 O142 2.640382 1_545
Na10 O68 2.855009 1_545
Na11 O97 2.395592 1_555
Na11 O99 2.406083 1_555
Na11 O141 2.423088 1_545
Na11 O143 2.525825 1_545
Na11 O27 2.549914 1_555
Na11 O69 2.699055 1_545
Na12 O130 2.438268 1_555
Na12 O128 2.482991 1_555
Na12 O86 2.489718 1_555
Na12 O85 2.650430 1_455
Na12 O56 2.692797 1_555
Na12 O14 2.705297 1_555
Na12 O28 2.812943 1_555
Na12 O42 2.870156 1_555
Na13 O129 2.389025 1_555
Na13 O57 2.397463 1_555
Na13 O131 2.463717 1_555
Na13 O87 2.551970 1_555
Na13 O84 2.635779 1_555
Na13 O15 2.779161 1_555
Na13 O29 2.905675 1_555
Na13 O43 2.945279 1_555
Na14 O89 2.368570 1_455
Na14 O126 2.513692 1_555
Na14 O130 2.597687 1_555
Na14 O86 2.600997 1_565
Na14 O58 2.683673 1_555
Na14 O16 2.741402 1_555
Na14 O25 2.846322 1_455
Na14 O45 2.861621 1_455
Na15 O59 2.316756 1_555
Na15 O127 2.394243 1_555
Na15 O131 2.464841 1_555
Na15 O88 2.497963 1_555
Na15 O87 2.644618 1_565
Na15 O44 2.767353 1_555
Na15 O17 2.902999 1_555
Na16 O84 2.461734 1_565
Na16 O128 2.467334 1_555
Na16 O126 2.482953 1_555
Na16 O88 2.599821 1_555
Na16 O54 2.647902 1_555
Na16 O12 2.699812 1_555
Na16 O26 2.759006 1_565
Na16 O46 2.922187 1_565
Na17 O55 2.278851 1_555
Na17 O129 2.356780 1_555
Na17 O85 2.515305 1_565
Na17 O127 2.548544 1_555
Na17 O89 2.606904 1_555
Na17 O13 2.793295 1_555
Na17 O47 2.959361 1_565
Na18 O52 2.478049 1_554
Na18 O124 2.478651 1_555
Na18 O122 2.482608 1_555
Na18 O94 2.524169 1_565
Na18 O91 2.618122 1_455
Na18 O22 2.659666 1_555
Na18 O32 2.752795 1_565
Na19 O123 2.454052 1_555
Na19 O125 2.462465 1_555
Na19 O95 2.498070 1_565
Na19 O23 2.660028 1_555
Na19 O90 2.668505 1_555
Na19 O53 2.722240 1_554
Na19 O33 2.761523 1_565
Na19 O37 2.919789 1_565
Na20 O124 2.340361 1_555
Na20 O90 2.452704 1_555
Na20 O120 2.522195 1_555
Na20 O92 2.583261 1_565
Na20 O48 2.592081 1_554
Na20 O18 2.594547 1_555
Na21 O125 2.480753 1_555
Na21 O121 2.482454 1_555
Na21 O91 2.487226 1_555
Na21 O93 2.586879 1_565
Na21 O19 2.623427 1_555
Na21 O49 2.707760 1_554
Na21 O35 2.728875 1_555
Na22 O50 2.422097 1_554
Na22 O120 2.454584 1_555
Na22 O93 2.457891 1_455
Na22 O122 2.489420 1_555
Na22 O94 2.620713 1_555
Na22 O20 2.766217 1_555
Na22 O41 2.807422 1_455
Na23 O92 2.389590 1_555
Na23 O121 2.489494 1_555
Na23 O95 2.575291 1_555
Na23 O123 2.597247 1_555
Na23 O21 2.640433 1_555
Na23 O51 2.741765 1_554
Na23 O30 2.789710 1_555
Na23 O40 2.949309 1_555
Na24 O83 2.387439 1_555
Na24 O111 2.401640 1_555
Na24 O80 2.482035 1_655
Na24 O109 2.528881 1_555
Na24 O39 2.648237 1_556
Na24 O9 2.686679 1_555
Na24 O52 2.842431 1_655
Na24 O66 2.962640 1_655
Na25 O79 2.456294 1_555
Na25 O110 2.485913 1_555
Na25 O112 2.521566 1_555
Na25 O82 2.532354 1_545
Na25 O10 2.545084 1_555
Na25 O40 2.726111 1_556
Na25 O68 2.841238 1_545
Na25 O48 2.986655 1_545
Na26 O80 2.441300 1_545
Na26 O108 2.461759 1_555
Na26 O78 2.468066 1_555
Na26 O112 2.473814 1_555
Na26 O6 2.625786 1_555
Na26 O36 2.660166 1_556
Na26 O50 2.895580 1_555
Na26 O70 2.986193 1_555
Na27 O74 2.413471 1_545
Na27 O118 2.417530 1_555
Na27 O77 2.483579 1_555
Na27 O114 2.574094 1_555
Na27 O46 2.684490 1_555
Na27 O57 2.707994 1_555
Na27 O4 2.723857 1_555
Na27 O61 2.930154 1_555
Na28 O115 2.378558 1_555
Na28 O77 2.495900 1_555
Na28 O73 2.521861 1_545
Na28 O117 2.533483 1_555
Na28 O1 2.678808 1_555
Na28 O43 2.684533 1_555
Na28 O63 2.868920 1_545
Na28 O59 2.941690 1_545
Na29 O117 2.495999 1_555
Na29 O75 2.502912 1_555
Na29 O72 2.540302 1_655
Na29 O119 2.563551 1_555
Na29 O3 2.683490 1_555
Na29 O45 2.684313 1_555
Na29 O55 2.774569 1_555
Na29 O65 2.900550 1_555
Na30 O72 2.385076 1_545
Na30 O75 2.429524 1_445
Na30 O76 2.492337 1_555
Na30 O85 2.561966 1_455
Na30 O86 2.610216 1_555
Na30 O89 2.642141 1_445
Na31 O73 2.431207 1_555
Na31 O74 2.436380 1_555
Na31 O88 2.460709 1_555
Na31 O77 2.572139 1_565
Na31 O87 2.633915 1_565
Na31 O84 2.638571 1_565
Na32 O93 2.402797 1_566
Na32 O83 2.437196 1_555
Na32 O78 2.449872 1_665
Na32 O80 2.573571 1_655
Na32 O94 2.619063 1_666
Na32 O91 2.625792 1_556
Na33 O79 2.424899 1_555
Na33 O95 2.436125 1_556
Na33 O81 2.497271 1_545
Na33 O90 2.523371 1_546
Na33 O92 2.546793 1_556
Na33 O82 2.673319 1_545
Na34 O100 2.342596 1_555
Na34 O96 2.363215 1_555
Na34 O98 2.377651 1_555
Na34 O110 2.614352 1_555
Na34 O108 2.614572 1_555
Na34 O112 2.628332 1_555
Na35 O99 2.386525 1_555
Na35 O97 2.434575 1_555
Na35 O113 2.518843 1_555
Na35 O111 2.545635 1_555
Na35 O109 2.586245 1_555
Na35 O101 2.625654 1_555
Na36 O106 2.404644 1_555
Na36 O102 2.460936 1_555
Na36 O116 2.506314 1_555
Na36 O118 2.538753 1_555
Na36 O114 2.597517 1_555
Na36 O104 2.648680 1_555
Na37 O105 2.398217 1_555
Na37 O107 2.405406 1_555
Na37 O103 2.453054 1_555
Na37 O115 2.514961 1_555
Na37 O119 2.580663 1_555
Na37 O117 2.621894 1_555
Na38 O134 2.435137 1_555
Na38 O132 2.454181 1_555
Na38 O124 2.472139 1_555
Na38 O136 2.538981 1_555
Na38 O122 2.605326 1_555
Na38 O120 2.629288 1_555
Na39 O133 2.421951 1_555
Na39 O135 2.424910 1_555
Na39 O137 2.587631 1_555
Na39 O125 2.601082 1_555
Na39 O121 2.620625 1_555
Na39 O123 2.630916 1_555
Na40 O128 2.482184 1_555
Na40 O130 2.513688 1_555
Na40 O126 2.546815 1_555
Na40 O142 2.559517 1_555
Na40 O138 2.584561 1_555
Na40 O140 2.679618 1_555
Na41 O129 2.339849 1_555
Na41 O139 2.506005 1_555
Na41 O143 2.514167 1_555
Na41 O127 2.544554 1_555
Na41 O131 2.548753 1_555
Na41 O141 2.632534 1_555
O0 Si0 1.624462 1_555
O0 Ti0 1.883555 1_445
O1 Si1 1.629484 1_545
O1 Ti1 1.888673 1_545
O2 Si2 1.631782 1_555
O2 Ti1 1.843267 1_555
O3 Si3 1.641154 1_555
O3 Ti0 1.856693 1_555
O4 S0 1.475182 1_555
O4 Ti1 2.248927 1_545
O5 Si4 1.623352 1_655
O5 Ti0 1.870732 1_545
O6 Si5 1.635409 1_555
O6 Ti2 1.895852 1_455
O7 Si6 1.654823 1_555
O7 Ti3 1.791994 1_555
O8 Si7 1.640141 1_555
O8 Ti3 1.854040 1_565
O9 S1 1.470877 1_655
O9 Ti2 2.231115 1_565
O10 Si8 1.653228 1_545
O10 Ti3 1.860255 1_555
O11 Si9 1.641668 1_545
O11 Ti2 1.825017 1_555
O12 Si8 1.675202 1_555
O12 Ti5 1.860454 1_555
O13 Si9 1.662181 1_555
O13 Ti4 1.899002 1_565
O14 Si5 1.660829 1_555
O14 Ti4 1.943169 1_455
O15 Si6 1.652354 1_555
O15 Ti5 1.918472 1_545
O16 S1 1.478101 1_555
O16 Ti4 2.347185 1_465
O17 Si7 1.689055 1_555
O17 Ti5 1.817446 1_555
O18 Si2 1.675846 1_555
O18 Ti7 1.885144 1_555
O19 Si3 1.693529 1_555
O19 Ti6 1.839355 1_565
O20 Si4 1.699732 1_555
O20 Ti6 1.814075 1_455
O21 S0 1.494255 1_555
O21 Ti7 2.230971 1_545
O22 Si0 1.678162 1_565
O22 Ti6 1.904389 1_465
O23 Si1 1.681577 1_555
O23 Ti7 1.877809 1_555
O24 S2 1.472593 1_555
O24 Zn0 2.230678 1_555
O25 Si10 1.611218 1_555
O25 Zn1 2.004929 1_555
O26 Si11 1.608184 1_555
O26 Zn0 2.006242 1_555
O27 S3 1.481324 1_555
O27 Zn1 2.106997 1_555
O28 Si12 1.611178 1_555
O28 Zn0 2.008980 1_555
O29 Si13 1.617945 1_555
O29 Zn1 1.968729 1_555
O30 Si14 1.608197 1_555
O30 Zn2 2.023711 1_555
O31 S4 1.471905 1_555
O31 Zn3 2.276394 1_555
O32 Si15 1.609052 1_555
O32 Zn2 2.009346 1_555
O33 Si16 1.607831 1_555
O33 Zn3 2.025235 1_555
O34 S5 1.481424 1_555
O34 Zn2 2.135570 1_555
O35 Si17 1.601585 1_555
O35 Zn3 2.021042 1_555
O36 S5 1.493246 1_555
O36 Ti8 2.307162 1_554
O37 Si17 1.665770 1_555
O37 Ti9 1.866936 1_554
O38 Si14 1.665625 1_555
O38 Ti8 1.857600 1_554
O39 S4 1.494741 1_555
O39 Ti9 2.220544 1_554
O40 Si15 1.709909 1_555
O40 Ti8 1.825099 1_554
O41 Si16 1.673171 1_555
O41 Ti9 1.886698 1_554
O42 Si11 1.658654 1_555
O42 Ti10 1.889050 1_555
O43 S3 1.483023 1_555
O43 Ti11 2.401161 1_555
O44 Si12 1.660618 1_555
O44 Ti10 1.896368 1_555
O45 Si13 1.678317 1_555
O45 Ti11 1.938267 1_555
O46 S2 1.496927 1_555
O46 Ti10 2.235179 1_555
O47 Si10 1.643265 1_555
O47 Ti11 1.877850 1_555
O48 S6 1.476814 1_555
O48 Zn4 2.145956 1_556
O49 Si18 1.639345 1_555
O49 Ti12 1.872098 1_556
O50 Si19 1.612888 1_555
O50 Zn4 1.969696 1_556
O51 Si20 1.625358 1_555
O51 Ti12 1.886189 1_556
O52 Si21 1.606986 1_555
O52 Zn4 1.934233 1_556
O53 S7 1.476776 1_555
O53 Ti12 2.239237 1_556
O54 Si22 1.642336 1_555
O54 Ti13 1.869871 1_555
O55 Si23 1.606394 1_555
O55 Zn5 1.946546 1_555
O56 S8 1.480050 1_555
O56 Ti13 2.182898 1_555
O57 Si24 1.614045 1_555
O57 Zn5 1.949864 1_555
O58 Si25 1.632427 1_555
O58 Ti13 1.861319 1_555
O59 Si26 1.609985 1_555
O59 Zn5 2.013179 1_555
O60 Si25 1.642429 1_555
O60 Ti14 1.868787 1_555
O61 Si26 1.667673 1_555
O61 Ti15 1.904001 1_555
O62 Si22 1.654294 1_555
O62 Ti14 1.871838 1_555
O63 Si23 1.696717 1_555
O63 Ti15 1.825424 1_555
O64 S8 1.481759 1_555
O64 Ti14 2.271014 1_555
O65 Si24 1.677032 1_555
O65 Ti15 1.905337 1_555
O66 Si19 1.684051 1_555
O66 Ti16 1.866959 1_555
O67 Si20 1.638218 1_555
O67 Ti17 1.902569 1_555
O68 Si21 1.683717 1_555
O68 Ti16 1.902245 1_555
O69 S7 1.474925 1_555
O69 Ti17 2.270778 1_555
O70 S6 1.507671 1_555
O70 Ti16 2.105519 1_555
O71 Si18 1.653981 1_555
O71 Ti17 1.869021 1_555
O72 Si25 1.625053 1_555
O72 Ti0 2.059847 1_455
O73 Si26 1.656674 1_555
O73 Ti1 1.868495 1_555
O74 Si22 1.641358 1_555
O74 Ti1 2.019597 1_555
O75 Si23 1.629001 1_555
O75 Ti0 1.952071 1_555
O76 S8 1.472801 1_555
O76 Ti0 2.261229 1_445
O77 Si24 1.644668 1_555
O77 Ti1 1.989663 1_545
O78 Si19 1.648571 1_555
O78 Ti2 1.873140 1_455
O79 Si20 1.649456 1_555
O79 Ti3 2.036984 1_555
O80 Si21 1.634030 1_555
O80 Ti2 2.023226 1_465
O81 S7 1.492948 1_555
O81 Ti3 2.209980 1_565
O82 S6 1.484032 1_555
O82 Ti3 2.258176 1_565
O83 Si18 1.646249 1_555
O83 Ti2 2.011647 1_565
O84 S2 1.517250 1_555
O84 Ti5 2.305721 1_545
O85 Si10 1.675620 1_555
O85 Ti4 1.878263 1_555
O86 Si11 1.646012 1_555
O86 Ti4 2.027108 1_455
O87 S3 1.521045 1_555
O87 Ti5 2.211610 1_545
O88 Si12 1.683096 1_555
O88 Ti5 1.997523 1_555
O89 Si13 1.683240 1_555
O89 Ti4 1.963184 1_565
O90 Si14 1.669399 1_555
O90 Ti7 1.913313 1_555
O91 S4 1.511088 1_555
O91 Ti6 2.322601 1_565
O92 Si15 1.654121 1_555
O92 Ti7 2.033734 1_545
O93 Si16 1.678906 1_555
O93 Ti6 2.044334 1_555
O94 S5 1.510715 1_555
O94 Ti6 2.305122 1_455
O95 Si17 1.643616 1_555
O95 Ti7 2.064114 1_545
O96 Si8 1.601104 1_545
O96 Zn0 2.255327 1_555
O97 Si9 1.618082 1_545
O97 Zn1 2.189425 1_555
O98 Si5 1.613463 1_555
O98 Zn0 2.108606 1_555
O99 Si6 1.603975 1_555
O99 Zn1 2.216048 1_555
O100 Si7 1.602484 1_555
O100 Zn0 2.204054 1_555
O101 S1 1.478209 1_655
O101 Zn1 2.354409 1_555
O102 Si2 1.619717 1_555
O102 Zn2 2.149272 1_555
O103 Si3 1.603192 1_555
O103 Zn3 2.172650 1_555
O104 S0 1.488354 1_555
O104 Zn2 2.283499 1_555
O105 Si4 1.603185 1_655
O105 Zn3 2.167298 1_555
O106 Si0 1.615036 1_555
O106 Zn2 2.164967 1_555
O107 Si1 1.611385 1_545
O107 Zn3 2.071439 1_555
O108 S6 1.486981 1_555
O108 Ti8 2.333779 1_555
O109 Si18 1.649749 1_555
O109 Ti9 2.004378 1_555
O110 Si20 1.678878 1_555
O110 Ti8 1.867694 1_555
O111 Si19 1.635628 1_655
O111 Ti9 2.024645 1_555
O112 Si21 1.662754 1_545
O112 Ti8 2.028755 1_555
O113 S7 1.516733 1_545
O113 Ti9 2.041624 1_555
O114 Si22 1.649906 1_545
O114 Ti10 1.987218 1_555
O115 Si23 1.635705 1_545
O115 Ti11 1.986366 1_555
O116 S8 1.520575 1_555
O116 Ti10 2.026193 1_555
O117 Si24 1.647539 1_555
O117 Ti11 2.040407 1_555
O118 Si26 1.648385 1_555
O118 Ti10 1.992912 1_555
O119 Si25 1.661794 1_655
O119 Ti11 1.856320 1_555
O120 S5 1.481031 1_555
O120 Zn4 2.418316 1_555
O121 Si17 1.670518 1_555
O121 Ti12 1.886659 1_555
O122 S4 1.488930 1_455
O122 Zn4 2.289453 1_555
O123 Si14 1.640404 1_555
O123 Ti12 2.016558 1_555
O124 Si15 1.634485 1_565
O124 Zn4 2.072639 1_555
O125 Si16 1.651079 1_565
O125 Ti12 1.993763 1_555
O126 Si11 1.669009 1_565
O126 Ti13 1.903420 1_555
O127 S3 1.478313 1_565
O127 Zn5 2.505564 1_555
O128 Si12 1.648152 1_555
O128 Ti13 2.023956 1_555
O129 Si13 1.631687 1_555
O129 Zn5 2.176733 1_555
O130 Si10 1.643310 1_455
O130 Ti13 2.033719 1_555
O131 S2 1.479170 1_555
O131 Zn5 2.501574 1_555
O132 Si0 1.672735 1_565
O132 Ti14 1.923116 1_555
O133 Si1 1.653677 1_555
O133 Ti15 2.084773 1_555
O134 Si2 1.643552 1_555
O134 Ti14 2.047935 1_555
O135 Si3 1.646311 1_555
O135 Ti15 2.063246 1_555
O136 Si4 1.642833 1_555
O136 Ti14 2.029562 1_555
O137 S0 1.496946 1_555
O137 Ti15 2.358640 1_555
O138 Si5 1.674149 1_555
O138 Ti16 2.002465 1_555
O139 Si6 1.660137 1_555
O139 Ti17 1.913825 1_555
O140 S1 1.528350 1_555
O140 Ti16 2.089371 1_555
O141 Si7 1.638851 1_555
O141 Ti17 2.022497 1_555
O142 Si8 1.655688 1_555
O142 Ti16 2.009975 1_555
O143 Si9 1.645411 1_555
O143 Ti17 2.022362 1_555
