# generated using pymatgen
data_MgV2CoO6
_symmetry_space_group_name_H-M   'P 1'
_cell_length_a   3.59370039
_cell_length_b   5.60679968
_cell_length_c   6.30607541
_cell_angle_alpha   102.14286326
_cell_angle_beta   90.00902962
_cell_angle_gamma   108.70252934
_symmetry_Int_Tables_number   1
_chemical_formula_structural   MgV2CoO6
_chemical_formula_sum   'Mg1 V2 Co1 O6'
_cell_volume   117.34597630
_cell_formula_units_Z   1
loop_
 _symmetry_equiv_pos_site_id
 _symmetry_equiv_pos_as_xyz
  1  'x, y, z'
loop_
 _atom_site_type_symbol
 _atom_site_label
 _atom_site_symmetry_multiplicity
 _atom_site_fract_x
 _atom_site_fract_y
 _atom_site_fract_z
 _atom_site_occupancy
  Mg  Mg0  1  0.48703300  0.99999600  0.50000000  1
  V  V0  1  0.75793500  0.54214800  0.30742900  1
  V  V1  1  0.21585600  0.45790600  0.69260500  1
  Co  Co0  1  0.98694200  0.99999500  0.99999900  1
  O  O0  1  0.68090200  0.38808700  0.57016200  1
  O  O1  1  0.03786800  0.10205100  0.71718400  1
  O  O2  1  0.93590800  0.89794500  0.28280800  1
  O  O3  1  0.29285500  0.61190900  0.42982700  1
  O  O4  1  0.34805300  0.72206100  0.90488200  1
  O  O5  1  0.62579000  0.27790200  0.09510700  1
loop_
_geom_bond_atom_site_label_1
_geom_bond_atom_site_label_2
_geom_bond_distance
_geom_bond_site_symmetry_2
Mg0 O3 2.009596 1_555
Mg0 O0 2.009618 1_565
Mg0 O1 2.250504 1_665
Mg0 O2 2.251304 1_555
Mg0 O2 2.251367 1_455
Mg0 O1 2.252115 1_565
Co0 O2 1.975775 1_556
Co0 O1 1.975826 1_665
Co0 O5 2.317475 1_666
Co0 O4 2.317641 1_555
Co0 O5 2.318639 1_566
Co0 O4 2.318652 1_655
O0 V1 1.958327 1_655
O0 V1 1.958384 1_555
O0 V0 2.004164 1_555
O1 V1 1.930208 1_555
O2 V0 1.929979 1_555
O3 V0 1.958179 1_455
O3 V0 1.958270 1_555
O3 V1 2.004242 1_555
O4 V1 1.710460 1_555
O5 V0 1.710942 1_555
