# generated using pymatgen
data_Na4Ge2Se5
_symmetry_space_group_name_H-M   'P 1'
_cell_length_a   7.06809904
_cell_length_b   8.08216366
_cell_length_c   10.67419123
_cell_angle_alpha   73.41543920
_cell_angle_beta   70.84239573
_cell_angle_gamma   81.69456103
_symmetry_Int_Tables_number   1
_chemical_formula_structural   Na4Ge2Se5
_chemical_formula_sum   'Na8 Ge4 Se10'
_cell_volume   551.16855871
_cell_formula_units_Z   2
loop_
 _symmetry_equiv_pos_site_id
 _symmetry_equiv_pos_as_xyz
  1  'x, y, z'
loop_
 _atom_site_type_symbol
 _atom_site_label
 _atom_site_symmetry_multiplicity
 _atom_site_fract_x
 _atom_site_fract_y
 _atom_site_fract_z
 _atom_site_occupancy
  Na  Na0  1  0.20373540  -0.00012364  0.59409065  1
  Na  Na1  1  0.79626460  0.00012364  0.40590935  1
  Na  Na2  1  0.91218682  0.52132882  0.68374038  1
  Na  Na3  1  0.08781318  0.47867118  0.31625962  1
  Na  Na4  1  0.50000000  0.50000000  0.50000000  1
  Na  Na5  1  0.00000000  -0.00000000  0.00000000  1
  Na  Na6  1  0.27237612  0.49090798  0.89715284  1
  Na  Na7  1  0.72762388  0.50909202  0.10284716  1
  Ge  Ge0  1  0.42518953  0.84382398  0.22983906  1
  Ge  Ge1  1  0.57481047  0.15617602  0.77016094  1
  Ge  Ge2  1  0.38244219  0.15768944  0.16690362  1
  Ge  Ge3  1  0.61755781  0.84231056  0.83309638  1
  Se  Se0  1  0.05931966  0.24604651  0.15435067  1
  Se  Se1  1  0.94068034  0.75395349  0.84564933  1
  Se  Se2  1  0.64329598  0.25626333  0.94782199  1
  Se  Se3  1  0.35670402  0.74373667  0.05217801  1
  Se  Se4  1  0.83715460  0.25152737  0.57125886  1
  Se  Se5  1  0.16284540  0.74847263  0.42874114  1
  Se  Se6  1  0.53709108  0.74534535  0.67246802  1
  Se  Se7  1  0.46290892  0.25465465  0.32753198  1
  Se  Se8  1  0.25859218  0.24617484  0.74508460  1
  Se  Se9  1  0.74140782  0.75382516  0.25491540  1
loop_
_geom_bond_atom_site_label_1
_geom_bond_atom_site_label_2
_geom_bond_distance
_geom_bond_site_symmetry_2
Na0 Se8 3.029075 1_555
Na0 Se1 3.059715 1_445
Na0 Se6 3.065038 1_545
Na0 Se4 3.085213 1_455
Na0 Se5 3.143072 1_545
Na0 Se7 3.164770 1_555
Na1 Se9 3.029075 1_545
Na1 Se0 3.059715 1_655
Na1 Se7 3.065038 1_555
Na1 Se5 3.085213 1_645
Na1 Se4 3.143072 1_555
Na1 Se6 3.164770 1_545
Na2 Se4 2.953698 1_555
Na2 Se1 2.958875 1_555
Na2 Se5 2.973192 1_655
Na2 Se6 3.003284 1_555
Na2 Se8 3.164960 1_655
Na2 Se2 3.218726 1_555
Na3 Se5 2.953698 1_555
Na3 Se0 2.958875 1_555
Na3 Se4 2.973192 1_455
Na3 Se7 3.003284 1_555
Na3 Se9 3.164960 1_455
Na3 Se3 3.218726 1_555
Na4 Se8 2.996935 1_555
Na4 Se9 2.996935 1_555
Na4 Se5 3.037340 1_555
Na4 Se4 3.037340 1_555
Na4 Se7 3.152886 1_555
Na4 Se6 3.152886 1_555
Na5 Se9 3.065797 1_445
Na5 Se8 3.065797 1_554
Na5 Se0 3.067467 1_555
Na5 Se1 3.067467 1_444
Na5 Se3 3.116245 1_545
Na5 Se2 3.116245 1_454
Na6 Se8 2.923862 1_555
Na6 Se0 2.960960 1_556
Na6 Se6 2.971945 1_555
Na6 Se1 3.009531 1_455
Na6 Se2 3.109830 1_555
Na6 Se3 3.193510 1_556
Na7 Se9 2.923862 1_555
Na7 Se1 2.960960 1_554
Na7 Se7 2.971945 1_555
Na7 Se0 3.009531 1_655
Na7 Se3 3.109830 1_555
Na7 Se2 3.193510 1_554
Ge0 Se9 2.325526 1_555
Ge0 Se5 2.331261 1_555
Ge0 Se3 2.465014 1_555
Ge1 Se8 2.325526 1_555
Ge1 Se4 2.331261 1_555
Ge1 Se2 2.465014 1_555
Ge2 Se7 2.326646 1_555
Ge2 Se0 2.327873 1_555
Ge2 Se2 2.456360 1_554
Ge3 Se6 2.326646 1_555
Ge3 Se1 2.327873 1_555
Ge3 Se3 2.456360 1_556
