# generated using pymatgen
data_BaMgMnO3
_symmetry_space_group_name_H-M   'P 1'
_cell_length_a   5.84459717
_cell_length_b   3.70358423
_cell_length_c   4.27359300
_cell_angle_alpha   89.57240392
_cell_angle_beta   108.59246462
_cell_angle_gamma   74.76538182
_symmetry_Int_Tables_number   1
_chemical_formula_structural   BaMgMnO3
_chemical_formula_sum   'Ba1 Mg1 Mn1 O3'
_cell_volume   84.17483305
_cell_formula_units_Z   1
loop_
 _symmetry_equiv_pos_site_id
 _symmetry_equiv_pos_as_xyz
  1  'x, y, z'
loop_
 _atom_site_type_symbol
 _atom_site_label
 _atom_site_symmetry_multiplicity
 _atom_site_fract_x
 _atom_site_fract_y
 _atom_site_fract_z
 _atom_site_occupancy
  Ba  Ba0  1  0.52674634  0.63828392  0.37035778  1
  Mg  Mg0  1  0.15571262  0.31433538  0.68538855  1
  Mn  Mn0  1  0.91444758  0.93146513  0.06381356  1
  O  O0  1  0.52974670  0.14219443  -0.13432995  1
  O  O1  1  0.12143443  0.33701527  0.16764190  1
  O  O2  1  -0.01475466  0.88670587  0.59712815  1
loop_
_geom_bond_atom_site_label_1
_geom_bond_atom_site_label_2
_geom_bond_distance
_geom_bond_site_symmetry_2
Ba0 O1 2.775241 1_555
Ba0 O0 2.785327 1_556
Ba0 O0 2.831337 1_566
Ba0 O0 2.845041 1_555
Ba0 O0 2.848937 1_565
Ba0 O1 2.914634 1_565
Ba0 O2 2.935937 1_655
Ba0 O2 3.201854 1_645
Mg0 O0 1.991280 1_556
Mg0 O2 2.059554 1_545
Mg0 O2 2.065680 1_555
Mg0 O1 2.133485 1_556
Mg0 O1 2.156078 1_555
Mn0 O0 2.058007 1_565
Mn0 O1 2.130481 1_665
Mn0 O2 2.161377 1_654
Mn0 O2 2.179506 1_655
Mn0 O1 2.179635 1_655
