# generated using pymatgen
data_YCoC
_symmetry_space_group_name_H-M   'P 1'
_cell_length_a   3.62711975
_cell_length_b   3.62715625
_cell_length_c   6.91468143
_cell_angle_alpha   90.00000000
_cell_angle_beta   90.00000000
_cell_angle_gamma   90.00000000
_symmetry_Int_Tables_number   1
_chemical_formula_structural   YCoC
_chemical_formula_sum   'Y2 Co2 C2'
_cell_volume   90.97044829
_cell_formula_units_Z   2
loop_
 _symmetry_equiv_pos_site_id
 _symmetry_equiv_pos_as_xyz
  1  'x, y, z'
loop_
 _atom_site_type_symbol
 _atom_site_label
 _atom_site_symmetry_multiplicity
 _atom_site_fract_x
 _atom_site_fract_y
 _atom_site_fract_z
 _atom_site_occupancy
  Y  Y0  1  -0.00000000  -0.00000000  0.75000227  1
  Y  Y1  1  -0.00000000  -0.00000000  0.24999773  1
  Co  Co0  1  0.50000000  0.50000000  -0.00000000  1
  Co  Co1  1  0.50000000  0.50000000  0.50000000  1
  C  C0  1  0.50000000  -0.00000000  0.50000000  1
  C  C1  1  -0.00000000  0.50000000  0.00000000  1
loop_
_geom_bond_atom_site_label_1
_geom_bond_atom_site_label_2
_geom_bond_distance
_geom_bond_site_symmetry_2
C0 Co1 1.813578 1_545
C0 Co1 1.813578 1_555
C0 Y0 2.505465 1_555
C0 Y1 2.505465 1_555
C0 Y0 2.505465 1_655
C0 Y1 2.505465 1_655
C1 Co0 1.813560 1_555
C1 Co0 1.813560 1_455
C1 Y0 2.505457 1_554
C1 Y0 2.505457 1_564
C1 Y1 2.505457 1_565
C1 Y1 2.505457 1_555
