# generated using pymatgen
data_Ba2Ni3F10
_symmetry_space_group_name_H-M   'P 1'
_cell_length_a   9.85645012
_cell_length_b   9.85645012
_cell_length_c   7.94789777
_cell_angle_alpha   69.29966546
_cell_angle_beta   69.29966546
_cell_angle_gamma   35.61463435
_symmetry_Int_Tables_number   1
_chemical_formula_structural   Ba2Ni3F10
_chemical_formula_sum   'Ba4 Ni6 F20'
_cell_volume   417.50049168
_cell_formula_units_Z   2
loop_
 _symmetry_equiv_pos_site_id
 _symmetry_equiv_pos_as_xyz
  1  'x, y, z'
loop_
 _atom_site_type_symbol
 _atom_site_label
 _atom_site_symmetry_multiplicity
 _atom_site_fract_x
 _atom_site_fract_y
 _atom_site_fract_z
 _atom_site_occupancy
  Ba  Ba0  1  0.78309100  0.78309100  0.81329000  1
  Ba  Ba1  1  0.21690900  0.21690900  0.18671000  1
  Ba  Ba2  1  0.88537700  0.88537700  0.22093600  1
  Ba  Ba3  1  0.11462300  0.11462300  0.77906400  1
  Ni  Ni0  1  0.75320200  0.24679800  0.50000000  1
  Ni  Ni1  1  0.24679800  0.75320200  0.50000000  1
  Ni  Ni2  1  0.67736400  0.67736400  0.48312400  1
  Ni  Ni3  1  0.32263600  0.32263600  0.51687600  1
  Ni  Ni4  1  0.57455000  0.57455000  0.04058800  1
  Ni  Ni5  1  0.42545000  0.42545000  0.95941200  1
  F  F0  1  0.50000000  0.00000000  0.50000000  1
  F  F1  1  0.00000000  0.50000000  0.50000000  1
  F  F2  1  0.27460800  0.72539200  0.00000000  1
  F  F3  1  0.72539200  0.27460800  0.00000000  1
  F  F4  1  0.73671800  0.73671800  0.21953900  1
  F  F5  1  0.26328200  0.26328200  0.78046100  1
  F  F6  1  0.98258100  0.98258100  0.68181900  1
  F  F7  1  0.01741900  0.01741900  0.31818100  1
  F  F8  1  0.63409100  0.63409100  0.75677500  1
  F  F9  1  0.36590900  0.36590900  0.24322500  1
  F  F10  1  0.87059700  0.35282600  0.47329000  1
  F  F11  1  0.64717400  0.12940300  0.52671000  1
  F  F12  1  0.12940300  0.64717400  0.52671000  1
  F  F13  1  0.35282600  0.87059700  0.47329000  1
  F  F14  1  0.11163300  0.58884600  0.97571700  1
  F  F15  1  0.41115400  0.88836700  0.02428300  1
  F  F16  1  0.88836700  0.41115400  0.02428300  1
  F  F17  1  0.58884600  0.11163300  0.97571700  1
  F  F18  1  0.47876600  0.47876600  0.68399200  1
  F  F19  1  0.52123400  0.52123400  0.31600800  1
loop_
_geom_bond_atom_site_label_1
_geom_bond_atom_site_label_2
_geom_bond_distance
_geom_bond_site_symmetry_2
Ba0 F14 2.635552 1_655
Ba0 F17 2.635552 1_565
Ba0 F11 2.803533 1_565
Ba0 F12 2.803533 1_655
Ba0 F15 2.833259 1_556
Ba0 F16 2.833259 1_556
Ba0 F8 2.992472 1_555
Ba0 F4 3.015982 1_556
Ba0 F5 3.060090 1_655
Ba0 F5 3.060090 1_565
Ba0 F1 3.163157 1_655
Ba0 F0 3.163157 1_565
Ba1 F16 2.635552 1_455
Ba1 F15 2.635552 1_545
Ba1 F10 2.803533 1_455
Ba1 F13 2.803533 1_545
Ba1 F17 2.833259 1_554
Ba1 F14 2.833259 1_554
Ba1 F9 2.992472 1_555
Ba1 F5 3.015982 1_554
Ba1 F4 3.060090 1_545
Ba1 F4 3.060090 1_455
Ba1 F0 3.163157 1_555
Ba1 F1 3.163157 1_555
Ba2 F2 2.765347 1_655
Ba2 F3 2.765347 1_565
Ba2 F17 2.769659 1_564
Ba2 F14 2.769659 1_654
Ba2 F4 2.794242 1_555
Ba2 F12 2.849670 1_655
Ba2 F11 2.849670 1_565
Ba2 F7 2.856785 1_665
Ba2 F9 3.033586 1_565
Ba2 F9 3.033586 1_655
Ba2 F0 3.076050 1_565
Ba2 F1 3.076050 1_655
Ba3 F2 2.765347 1_546
Ba3 F3 2.765347 1_456
Ba3 F15 2.769659 1_546
Ba3 F16 2.769659 1_456
Ba3 F5 2.794242 1_555
Ba3 F10 2.849670 1_455
Ba3 F13 2.849670 1_545
Ba3 F6 2.856785 1_445
Ba3 F8 3.033586 1_455
Ba3 F8 3.033586 1_545
Ba3 F0 3.076050 1_555
Ba3 F1 3.076050 1_555
F0 Ni3 2.069714 1_555
F0 Ni2 2.069714 1_545
F1 Ni3 2.069714 1_555
F1 Ni2 2.069714 1_455
F2 Ni5 2.059913 1_554
F2 Ni4 2.059913 1_555
F3 Ni5 2.059913 1_554
F3 Ni4 2.059913 1_555
F4 Ni2 1.974052 1_555
F5 Ni3 1.974052 1_555
F6 Ni0 2.014442 1_565
F6 Ni1 2.014442 1_655
F7 Ni0 2.014442 1_455
F7 Ni1 2.014442 1_545
F8 Ni2 2.019503 1_555
F8 Ni4 2.113127 1_556
F9 Ni3 2.019503 1_555
F9 Ni5 2.113127 1_554
F10 Ni2 2.007914 1_555
F10 Ni0 2.027732 1_555
F11 Ni3 2.007914 1_555
F11 Ni0 2.027732 1_555
F12 Ni3 2.007914 1_555
F12 Ni1 2.027732 1_555
F13 Ni2 2.007914 1_555
F13 Ni1 2.027732 1_555
F14 Ni5 1.985616 1_555
F15 Ni4 1.985616 1_555
F16 Ni4 1.985616 1_555
F17 Ni5 1.985616 1_555
F18 Ni5 2.041224 1_555
F18 Ni0 2.048063 1_555
F18 Ni1 2.048063 1_555
F19 Ni4 2.041224 1_555
F19 Ni1 2.048063 1_555
F19 Ni0 2.048063 1_555
