# generated using pymatgen
data_Ba2YMgFe3O8
_symmetry_space_group_name_H-M   'P 1'
_cell_length_a   3.91777539
_cell_length_b   4.12899752
_cell_length_c   14.29728473
_cell_angle_alpha   90.00000000
_cell_angle_beta   90.00000000
_cell_angle_gamma   90.00000000
_symmetry_Int_Tables_number   1
_chemical_formula_structural   Ba2YMgFe3O8
_chemical_formula_sum   'Ba2 Y1 Mg1 Fe3 O8'
_cell_volume   231.27981011
_cell_formula_units_Z   1
loop_
 _symmetry_equiv_pos_site_id
 _symmetry_equiv_pos_as_xyz
  1  'x, y, z'
loop_
 _atom_site_type_symbol
 _atom_site_label
 _atom_site_symmetry_multiplicity
 _atom_site_fract_x
 _atom_site_fract_y
 _atom_site_fract_z
 _atom_site_occupancy
  Ba  Ba0  1  0.50000000  0.50000000  0.07214712  1
  Ba  Ba1  1  0.50000000  0.50000000  0.80587457  1
  Y  Y0  1  0.50000000  0.50000000  0.52173800  1
  Mg  Mg0  1  0.50000000  0.00000000  0.27398974  1
  Fe  Fe0  1  0.00000000  0.00000000  0.40162531  1
  Fe  Fe1  1  0.00000000  0.00000000  0.93653862  1
  Fe  Fe2  1  0.00000000  0.00000000  0.65594804  1
  O  O0  1  0.00000000  0.50000000  0.44155127  1
  O  O1  1  0.50000000  0.00000000  0.41010333  1
  O  O2  1  0.50000000  0.00000000  0.96884349  1
  O  O3  1  0.00000000  0.00000000  0.23630414  1
  O  O4  1  0.00000000  0.50000000  0.63776222  1
  O  O5  1  0.50000000  0.00000000  0.60972618  1
  O  O6  1  0.00000000  0.00000000  0.78735151  1
  O  O7  1  0.00000000  0.50000000  0.95716347  1
loop_
_geom_bond_atom_site_label_1
_geom_bond_atom_site_label_2
_geom_bond_distance
_geom_bond_site_symmetry_2
Ba0 O2 2.538419 1_564
Ba0 O2 2.538419 1_554
Ba0 O7 2.557308 1_554
Ba0 O7 2.557308 1_654
Ba1 O6 2.858239 1_555
Ba1 O6 2.858239 1_565
Ba1 O6 2.858239 1_665
Ba1 O6 2.858239 1_655
Ba1 O7 2.918201 1_555
Ba1 O7 2.918201 1_655
Ba1 O4 3.100693 1_555
Ba1 O4 3.100693 1_655
Ba1 O2 3.113056 1_565
Ba1 O2 3.113056 1_555
Mg0 O1 1.946055 1_555
Mg0 O3 2.031637 1_555
Mg0 O3 2.031637 1_655
Fe0 O1 1.962634 1_455
Fe0 O1 1.962634 1_555
Fe0 O0 2.141963 1_555
Fe0 O0 2.141963 1_545
Fe0 O3 2.363644 1_555
Fe1 O2 2.012602 1_555
Fe1 O2 2.012602 1_455
Fe1 O7 2.085452 1_555
Fe1 O7 2.085452 1_545
Fe1 O6 2.132971 1_555
Fe2 O6 1.878713 1_555
Fe2 O5 2.067356 1_455
Fe2 O5 2.067356 1_555
Fe2 O4 2.080807 1_545
Fe2 O4 2.080807 1_555
O0 Y0 2.269712 1_555
O0 Y0 2.269712 1_455
O1 Y0 2.609522 1_545
O1 Y0 2.609522 1_555
O4 Y0 2.566897 1_455
O4 Y0 2.566897 1_555
O5 Y0 2.417581 1_545
O5 Y0 2.417581 1_555
