# generated using pymatgen
data_Li5V2P5O18
_symmetry_space_group_name_H-M   'P 1'
_cell_length_a   9.38355333
_cell_length_b   10.64637197
_cell_length_c   6.53451009
_cell_angle_alpha   93.05640841
_cell_angle_beta   91.46383626
_cell_angle_gamma   96.59760163
_symmetry_Int_Tables_number   1
_chemical_formula_structural   Li5V2P5O18
_chemical_formula_sum   'Li10 V4 P10 O36'
_cell_volume   647.22704031
_cell_formula_units_Z   2
loop_
 _symmetry_equiv_pos_site_id
 _symmetry_equiv_pos_as_xyz
  1  'x, y, z'
loop_
 _atom_site_type_symbol
 _atom_site_label
 _atom_site_symmetry_multiplicity
 _atom_site_fract_x
 _atom_site_fract_y
 _atom_site_fract_z
 _atom_site_occupancy
  Li  Li0  1  0.04317500  0.87321700  0.98088000  1
  Li  Li1  1  0.13039800  0.35949600  0.82800800  1
  Li  Li2  1  0.20936400  0.66013500  0.12061700  1
  Li  Li3  1  0.27565400  0.58821000  0.55606400  1
  Li  Li4  1  0.36649900  0.86161800  0.34264000  1
  Li  Li5  1  0.63350100  0.13838200  0.65736000  1
  Li  Li6  1  0.72434600  0.41179000  0.44393600  1
  Li  Li7  1  0.79063600  0.33986500  0.87938300  1
  Li  Li8  1  0.86960200  0.64050400  0.17199200  1
  Li  Li9  1  0.95682500  0.12678400  0.01912000  1
  V  V0  1  0.23264900  0.05083900  0.67351800  1
  V  V1  1  0.35697200  0.40336100  0.23104500  1
  V  V2  1  0.64302800  0.59663900  0.76895500  1
  V  V3  1  0.76735200  0.94916000  0.32648200  1
  P  P0  1  0.04621100  0.79938700  0.48273400  1
  P  P1  1  0.01296400  0.40159400  0.22306300  1
  P  P2  1  0.27176200  0.10076200  0.17112300  1
  P  P3  1  0.41869700  0.82471500  0.83773900  1
  P  P4  1  0.41658900  0.34865900  0.71961600  1
  P  P5  1  0.58341200  0.65134100  0.28038400  1
  P  P6  1  0.58130300  0.17528500  0.16226100  1
  P  P7  1  0.95378900  0.20061200  0.51726600  1
  P  P8  1  0.98703600  0.59840600  0.77693700  1
  P  P9  1  0.72823900  0.89923900  0.82887700  1
  O  O0  1  0.33958200  0.38628900  0.91784000  1
  O  O1  1  0.07540700  0.90459100  0.65678700  1
  O  O2  1  0.03614300  0.31968600  0.41821400  1
  O  O3  1  0.06799100  0.16855600  0.67626000  1
  O  O4  1  0.11248300  0.52482800  0.73262300  1
  O  O5  1  0.17942700  0.75445800  0.39002100  1
  O  O6  1  0.16023900  0.48295600  0.21764700  1
  O  O7  1  0.17019600  0.04487300  0.99126800  1
  O  O8  1  0.32591000  0.81398600  0.02287700  1
  O  O9  1  0.24830000  0.23652500  0.22773100  1
  O  O10  1  0.37076300  0.91567100  0.67757300  1
  O  O11  1  0.26154500  0.02033000  0.35783800  1
  O  O12  1  0.01617500  0.68771400  0.96942300  1
  O  O13  1  0.34763800  0.41402600  0.54081000  1
  O  O14  1  0.42214100  0.59645700  0.25727600  1
  O  O15  1  0.44763900  0.69607500  0.73569600  1
  O  O16  1  0.39724800  0.20225900  0.67873700  1
  O  O17  1  0.42732000  0.10164900  0.07684300  1
  O  O18  1  0.57268000  0.89835100  0.92315700  1
  O  O19  1  0.60275100  0.79774200  0.32126300  1
  O  O20  1  0.55236100  0.30392600  0.26430400  1
  O  O21  1  0.57785900  0.40354300  0.74272200  1
  O  O22  1  0.65236200  0.58597500  0.45919000  1
  O  O23  1  0.66041900  0.61371100  0.08216000  1
  O  O24  1  0.73845600  0.97967100  0.64216100  1
  O  O25  1  0.62923700  0.08432900  0.32242700  1
  O  O26  1  0.75170000  0.76347400  0.77226700  1
  O  O27  1  0.67409000  0.18601500  0.97712200  1
  O  O28  1  0.82980400  0.95512700  0.00873200  1
  O  O29  1  0.83976000  0.51704300  0.78235300  1
  O  O30  1  0.82057300  0.24554200  0.60997900  1
  O  O31  1  0.88751700  0.47517200  0.26737700  1
  O  O32  1  0.93200800  0.83144400  0.32374000  1
  O  O33  1  0.96385800  0.68031400  0.58178600  1
  O  O34  1  0.92459400  0.09540900  0.34321100  1
  O  O35  1  0.98382500  0.31228600  0.03057700  1
loop_
_geom_bond_atom_site_label_1
_geom_bond_atom_site_label_2
_geom_bond_distance
_geom_bond_site_symmetry_2
Li0 O12 1.959195 1_555
Li0 O7 2.060864 1_565
Li0 O1 2.184724 1_555
Li0 O28 2.281492 1_456
Li0 O32 2.534655 1_456
Li1 O4 1.922146 1_555
Li1 O35 1.975233 1_456
Li1 O0 2.018289 1_555
Li1 O3 2.222695 1_555
Li2 O8 2.005599 1_555
Li2 O5 2.021878 1_555
Li2 O6 2.028631 1_555
Li2 O12 2.100070 1_554
Li2 O14 2.351166 1_555
Li3 O4 2.016587 1_555
Li3 O13 2.043687 1_555
Li3 O15 2.152819 1_555
Li3 O5 2.376389 1_555
Li3 O14 2.415949 1_555
Li3 O6 2.579406 1_555
Li4 O5 2.020916 1_555
Li4 O11 2.050459 1_565
Li4 O8 2.137796 1_555
Li4 O10 2.231314 1_555
Li4 O19 2.397639 1_555
Li5 O30 2.020916 1_555
Li5 O24 2.050455 1_545
Li5 O27 2.137791 1_555
Li5 O25 2.231314 1_555
Li5 O16 2.397652 1_555
Li6 O31 2.016587 1_555
Li6 O22 2.043697 1_555
Li6 O20 2.152815 1_555
Li6 O30 2.376389 1_555
Li6 O21 2.415938 1_555
Li6 O29 2.579399 1_555
Li7 O27 2.005589 1_555
Li7 O30 2.021878 1_555
Li7 O29 2.028620 1_555
Li7 O35 2.100070 1_556
Li7 O21 2.351171 1_555
Li8 O31 1.922146 1_555
Li8 O12 1.975233 1_654
Li8 O23 2.018280 1_555
Li8 O32 2.222694 1_555
Li9 O35 1.959184 1_555
Li9 O28 2.060872 1_545
Li9 O34 2.184712 1_555
Li9 O7 2.281498 1_654
Li9 O3 2.534649 1_654
O0 P4 1.555458 1_555
O0 V1 2.045692 1_556
O1 P0 1.549464 1_555
O1 V0 2.014695 1_565
O2 P7 1.584657 1_455
O2 P1 1.606830 1_555
O3 P7 1.552167 1_455
O3 V0 2.098148 1_555
O4 P8 1.512694 1_455
O5 P0 1.517769 1_555
O6 P1 1.546637 1_555
O6 V1 2.119621 1_555
O7 P2 1.543206 1_556
O7 V0 2.174014 1_555
O8 P3 1.510099 1_554
O9 P2 1.514827 1_555
O9 V1 1.942617 1_555
O10 P3 1.555478 1_555
O10 V0 2.045007 1_565
O11 P2 1.526304 1_555
O11 V0 2.100378 1_555
O12 P8 1.534932 1_455
O13 P4 1.555524 1_555
O13 V1 2.025989 1_555
O14 P5 1.558850 1_555
O14 V1 2.073094 1_555
O15 P3 1.546409 1_555
O15 V2 2.231510 1_555
O16 P4 1.556194 1_555
O16 V0 2.098759 1_555
O17 P2 1.598036 1_555
O17 P6 1.632707 1_555
O18 P9 1.598044 1_555
O18 P3 1.632707 1_555
O19 P5 1.556205 1_555
O19 V3 2.098757 1_555
O20 P6 1.546418 1_555
O20 V1 2.231504 1_555
O21 P4 1.558840 1_555
O21 V2 2.073095 1_555
O22 P5 1.555515 1_555
O22 V2 2.025989 1_555
O23 P5 1.555458 1_555
O23 V2 2.045693 1_554
O24 P9 1.526309 1_555
O24 V3 2.100375 1_555
O25 P6 1.555478 1_555
O25 V3 2.045022 1_545
O26 P9 1.514847 1_555
O26 V2 1.942608 1_555
O27 P6 1.510105 1_556
O28 P9 1.543198 1_554
O28 V3 2.174012 1_555
O29 P8 1.546650 1_555
O29 V2 2.119617 1_555
O30 P7 1.517773 1_555
O31 P1 1.512694 1_655
O32 P0 1.552177 1_655
O32 V3 2.098126 1_555
O33 P0 1.584645 1_655
O33 P8 1.606829 1_555
O34 P7 1.549465 1_555
O34 V3 2.014702 1_545
O35 P1 1.534932 1_655
