# generated using pymatgen
data_Sc3Si4Ni11
_symmetry_space_group_name_H-M   'P 1'
_cell_length_a   7.93197315
_cell_length_b   7.93197315
_cell_length_c   8.32308300
_cell_angle_alpha   90.00000000
_cell_angle_beta   90.00000000
_cell_angle_gamma   119.99999288
_symmetry_Int_Tables_number   1
_chemical_formula_structural   Sc3Si4Ni11
_chemical_formula_sum   'Sc6 Si8 Ni22'
_cell_volume   453.50007044
_cell_formula_units_Z   2
loop_
 _symmetry_equiv_pos_site_id
 _symmetry_equiv_pos_as_xyz
  1  'x, y, z'
loop_
 _atom_site_type_symbol
 _atom_site_label
 _atom_site_symmetry_multiplicity
 _atom_site_fract_x
 _atom_site_fract_y
 _atom_site_fract_z
 _atom_site_occupancy
  Sc  Sc0  1  0.80234100  0.60468300  0.75000000  1
  Sc  Sc1  1  0.19765900  0.80234100  0.25000000  1
  Sc  Sc2  1  0.60468300  0.80234100  0.25000000  1
  Sc  Sc3  1  0.39531700  0.19765900  0.75000000  1
  Sc  Sc4  1  0.80234100  0.19765900  0.75000000  1
  Sc  Sc5  1  0.19765900  0.39531700  0.25000000  1
  Si  Si0  1  0.00000000  0.00000000  0.75000000  1
  Si  Si1  1  0.50000000  0.00000000  0.00000000  1
  Si  Si2  1  0.50000000  0.50000000  0.50000000  1
  Si  Si3  1  0.00000000  0.50000000  0.50000000  1
  Si  Si4  1  0.00000000  0.50000000  0.00000000  1
  Si  Si5  1  0.50000000  0.50000000  0.00000000  1
  Si  Si6  1  0.50000000  0.00000000  0.50000000  1
  Si  Si7  1  0.00000000  0.00000000  0.25000000  1
  Ni  Ni0  1  0.84759700  0.69519500  0.09288200  1
  Ni  Ni1  1  0.69519500  0.84759700  0.90711800  1
  Ni  Ni2  1  0.15240300  0.30480500  0.90711800  1
  Ni  Ni3  1  0.15240300  0.84759700  0.90711800  1
  Ni  Ni4  1  0.30480500  0.15240300  0.40711800  1
  Ni  Ni5  1  0.43880100  0.56119900  0.75000000  1
  Ni  Ni6  1  0.12239800  0.56119900  0.75000000  1
  Ni  Ni7  1  0.87760200  0.43880100  0.25000000  1
  Ni  Ni8  1  0.56119900  0.43880100  0.25000000  1
  Ni  Ni9  1  0.43880100  0.87760200  0.75000000  1
  Ni  Ni10  1  0.33333300  0.66666700  0.00330900  1
  Ni  Ni11  1  0.66666700  0.33333300  0.50330900  1
  Ni  Ni12  1  0.66666700  0.33333300  0.99669100  1
  Ni  Ni13  1  0.33333300  0.66666700  0.49669100  1
  Ni  Ni14  1  0.84759700  0.15240300  0.40711800  1
  Ni  Ni15  1  0.84759700  0.69519500  0.40711800  1
  Ni  Ni16  1  0.15240300  0.84759700  0.59288200  1
  Ni  Ni17  1  0.69519500  0.84759700  0.59288200  1
  Ni  Ni18  1  0.30480500  0.15240300  0.09288200  1
  Ni  Ni19  1  0.84759700  0.15240300  0.09288200  1
  Ni  Ni20  1  0.15240300  0.30480500  0.59288200  1
  Ni  Ni21  1  0.56119900  0.12239800  0.25000000  1
loop_
_geom_bond_atom_site_label_1
_geom_bond_atom_site_label_2
_geom_bond_distance
_geom_bond_site_symmetry_2
Sc0 Si0 2.715547 1_665
Sc0 Si5 2.962930 1_556
Sc0 Si2 2.962930 1_555
Sc0 Si3 2.962935 1_655
Sc0 Si4 2.962935 1_656
Sc1 Si7 2.715554 1_565
Sc1 Si4 2.962931 1_555
Sc1 Si6 2.962931 1_565
Sc1 Si1 2.962931 1_565
Sc1 Si3 2.962931 1_555
Sc2 Si7 2.715547 1_665
Sc2 Si5 2.962930 1_555
Sc2 Si2 2.962930 1_555
Sc2 Si1 2.962935 1_565
Sc2 Si6 2.962935 1_565
Sc3 Si0 2.715547 1_555
Sc3 Si5 2.962930 1_556
Sc3 Si2 2.962930 1_555
Sc3 Si6 2.962935 1_555
Sc3 Si1 2.962935 1_556
Sc4 Si0 2.715554 1_655
Sc4 Si1 2.962931 1_556
Sc4 Si4 2.962931 1_656
Sc4 Si6 2.962931 1_555
Sc4 Si3 2.962931 1_655
Sc5 Si7 2.715547 1_555
Sc5 Si5 2.962930 1_555
Sc5 Si2 2.962930 1_555
Sc5 Si3 2.962935 1_555
Sc5 Si4 2.962935 1_555
Ni0 Si7 2.468617 1_665
Ni0 Si5 2.515504 1_555
Ni0 Si4 2.515510 1_655
Ni0 Ni8 2.527196 1_555
Ni0 Ni7 2.527199 1_555
Ni0 Ni1 2.602779 1_554
Ni0 Ni3 2.602790 1_654
Ni0 Ni12 2.611484 1_554
Ni0 Ni15 2.615412 1_555
Ni0 Sc2 2.789702 1_555
Ni0 Sc1 2.789715 1_655
Ni0 Sc0 2.920780 1_554
Ni1 Si0 2.468617 1_665
Ni1 Si5 2.515504 1_556
Ni1 Si1 2.515510 1_566
Ni1 Ni5 2.527196 1_555
Ni1 Ni9 2.527199 1_555
Ni1 Ni19 2.602790 1_566
Ni1 Ni10 2.611484 1_556
Ni1 Ni17 2.615412 1_555
Ni1 Sc0 2.789702 1_555
Ni1 Sc4 2.789715 1_565
Ni1 Sc2 2.920780 1_556
Ni2 Si0 2.468617 1_555
Ni2 Si5 2.515504 1_556
Ni2 Si4 2.515510 1_556
Ni2 Ni5 2.527196 1_555
Ni2 Ni6 2.527199 1_555
Ni2 Ni20 2.615412 1_555
Ni2 Sc3 2.789702 1_555
Ni2 Sc4 2.789715 1_455
Ni2 Sc5 2.920780 1_556
Ni3 Si0 2.468623 1_565
Ni3 Si4 2.515503 1_556
Ni3 Si1 2.515503 1_566
Ni3 Ni6 2.527193 1_555
Ni3 Ni9 2.527193 1_555
Ni3 Sc0 2.789712 1_455
Ni3 Sc3 2.789712 1_565
Ni3 Sc1 2.920780 1_556
Ni4 Si7 2.468617 1_555
Ni4 Si2 2.515504 1_555
Ni4 Si6 2.515510 1_555
Ni4 Ni8 2.527196 1_555
Ni4 Sc5 2.789702 1_555
Ni4 Sc1 2.789715 1_545
Ni4 Sc3 2.920780 1_555
Ni5 Si5 2.244222 1_556
Ni5 Si2 2.244222 1_555
Ni5 Ni9 2.509700 1_555
Ni5 Ni6 2.509700 1_555
Ni5 Sc3 2.727538 1_555
Ni5 Sc0 2.727538 1_555
Ni6 Si4 2.244222 1_556
Ni6 Si3 2.244222 1_555
Ni6 Ni9 2.509700 1_555
Ni6 Sc4 2.727542 1_455
Ni6 Sc0 2.727546 1_455
Ni7 Si4 2.244222 1_655
Ni7 Si3 2.244222 1_655
Ni7 Ni8 2.509700 1_555
Ni7 Sc1 2.727542 1_655
Ni7 Sc5 2.727546 1_655
Ni8 Si5 2.244222 1_555
Ni8 Si2 2.244222 1_555
Ni8 Sc5 2.727538 1_555
Ni8 Sc2 2.727538 1_555
Ni9 Si6 2.244222 1_565
Ni9 Si1 2.244222 1_566
Ni9 Sc4 2.727542 1_565
Ni9 Sc3 2.727546 1_565
Ni10 Si1 2.289927 1_565
Ni10 Si4 2.289927 1_555
Ni10 Si5 2.289934 1_555
Ni10 Ni9 2.558223 1_554
Ni10 Ni6 2.558223 1_554
Ni10 Ni5 2.558227 1_554
Ni10 Ni3 2.611471 1_554
Ni10 Ni2 2.611484 1_554
Ni10 Sc1 2.773108 1_555
Ni10 Sc2 2.773118 1_555
Ni10 Sc5 2.773118 1_555
Ni11 Si3 2.289927 1_655
Ni11 Si6 2.289927 1_555
Ni11 Si2 2.289934 1_555
Ni11 Ni7 2.558223 1_555
Ni11 Ni21 2.558223 1_555
Ni11 Ni8 2.558227 1_555
Ni11 Ni14 2.611471 1_555
Ni11 Ni4 2.611484 1_555
Ni11 Ni15 2.611484 1_555
Ni11 Sc4 2.773108 1_555
Ni11 Sc3 2.773118 1_555
Ni11 Sc0 2.773118 1_555
Ni12 Si4 2.289927 1_656
Ni12 Si1 2.289927 1_556
Ni12 Si5 2.289934 1_556
Ni12 Ni7 2.558223 1_556
Ni12 Ni21 2.558223 1_556
Ni12 Ni8 2.558227 1_556
Ni12 Ni19 2.611471 1_556
Ni12 Ni18 2.611484 1_556
Ni12 Sc4 2.773108 1_555
Ni12 Sc3 2.773118 1_555
Ni12 Sc0 2.773118 1_555
Ni13 Si3 2.289927 1_555
Ni13 Si6 2.289927 1_565
Ni13 Si2 2.289934 1_555
Ni13 Ni9 2.558223 1_555
Ni13 Ni6 2.558223 1_555
Ni13 Ni5 2.558227 1_555
Ni13 Ni16 2.611471 1_555
Ni13 Ni17 2.611484 1_555
Ni13 Ni20 2.611484 1_555
Ni13 Sc1 2.773108 1_555
Ni13 Sc2 2.773118 1_555
Ni13 Sc5 2.773118 1_555
Ni14 Si7 2.468623 1_655
Ni14 Si6 2.515503 1_555
Ni14 Si3 2.515503 1_655
Ni14 Ni21 2.527193 1_555
Ni14 Ni7 2.527193 1_555
Ni14 Ni20 2.602790 1_655
Ni14 Ni17 2.602790 1_545
Ni14 Ni19 2.615412 1_555
Ni14 Sc2 2.789712 1_545
Ni14 Sc5 2.789712 1_655
Ni14 Sc4 2.920780 1_555
Ni15 Si7 2.468617 1_665
Ni15 Si2 2.515504 1_555
Ni15 Si3 2.515510 1_655
Ni15 Ni8 2.527196 1_555
Ni15 Ni7 2.527199 1_555
Ni15 Ni17 2.602779 1_555
Ni15 Ni16 2.602790 1_655
Ni15 Sc2 2.789702 1_555
Ni15 Sc1 2.789715 1_655
Ni15 Sc0 2.920780 1_555
Ni16 Si0 2.468623 1_565
Ni16 Si3 2.515503 1_555
Ni16 Si6 2.515503 1_565
Ni16 Ni6 2.527193 1_555
Ni16 Ni9 2.527193 1_555
Ni16 Ni4 2.602790 1_565
Ni16 Ni3 2.615412 1_555
Ni16 Sc0 2.789712 1_455
Ni16 Sc3 2.789712 1_565
Ni16 Sc1 2.920780 1_555
Ni17 Si0 2.468617 1_665
Ni17 Si2 2.515504 1_555
Ni17 Si6 2.515510 1_565
Ni17 Ni5 2.527196 1_555
Ni17 Ni9 2.527199 1_555
Ni17 Sc0 2.789702 1_555
Ni17 Sc4 2.789715 1_565
Ni17 Sc2 2.920780 1_555
Ni18 Si7 2.468617 1_555
Ni18 Si5 2.515504 1_555
Ni18 Si1 2.515510 1_555
Ni18 Ni8 2.527196 1_555
Ni18 Ni21 2.527199 1_555
Ni18 Ni2 2.602779 1_554
Ni18 Ni3 2.602790 1_544
Ni18 Ni4 2.615412 1_555
Ni18 Sc5 2.789702 1_555
Ni18 Sc1 2.789715 1_545
Ni18 Sc3 2.920780 1_554
Ni19 Si7 2.468623 1_655
Ni19 Si1 2.515503 1_555
Ni19 Si4 2.515503 1_655
Ni19 Ni21 2.527193 1_555
Ni19 Ni7 2.527193 1_555
Ni19 Ni2 2.602790 1_654
Ni19 Sc2 2.789712 1_545
Ni19 Sc5 2.789712 1_655
Ni19 Sc4 2.920780 1_554
Ni20 Si0 2.468617 1_555
Ni20 Si2 2.515504 1_555
Ni20 Si3 2.515510 1_555
Ni20 Ni5 2.527196 1_555
Ni20 Ni6 2.527199 1_555
Ni20 Ni4 2.602779 1_555
Ni20 Sc3 2.789702 1_555
Ni20 Sc4 2.789715 1_455
Ni20 Sc5 2.920780 1_555
Ni21 Si1 2.244222 1_555
Ni21 Si6 2.244222 1_555
Ni21 Ni8 2.509700 1_555
Ni21 Ni7 2.509700 1_555
Ni21 Ni4 2.527199 1_555
Ni21 Sc1 2.727542 1_545
Ni21 Sc2 2.727546 1_545
