# generated using pymatgen
data_Mg(BrO3)2
_symmetry_space_group_name_H-M   'P 1'
_cell_length_a   4.90780652
_cell_length_b   4.90780652
_cell_length_c   6.44282533
_cell_angle_alpha   72.33509180
_cell_angle_beta   72.33509180
_cell_angle_gamma   67.96688633
_symmetry_Int_Tables_number   1
_chemical_formula_structural   Mg(BrO3)2
_chemical_formula_sum   'Mg1 Br2 O6'
_cell_volume   133.87325901
_cell_formula_units_Z   1
loop_
 _symmetry_equiv_pos_site_id
 _symmetry_equiv_pos_as_xyz
  1  'x, y, z'
loop_
 _atom_site_type_symbol
 _atom_site_label
 _atom_site_symmetry_multiplicity
 _atom_site_fract_x
 _atom_site_fract_y
 _atom_site_fract_z
 _atom_site_occupancy
  Mg  Mg0  1  0.00000000  0.00000000  -0.00000000  1
  Br  Br0  1  0.27097923  0.27097923  0.28180107  1
  Br  Br1  1  0.72902077  0.72902077  0.71819893  1
  O  O0  1  0.23423366  0.23423366  0.04581189  1
  O  O1  1  0.76576634  0.76576634  0.95418811  1
  O  O2  1  0.83873291  0.35734819  0.74029700  1
  O  O3  1  0.35734819  0.83873291  0.74029700  1
  O  O4  1  0.16126709  0.64265181  0.25970300  1
  O  O5  1  0.64265181  0.16126709  0.25970300  1
loop_
_geom_bond_atom_site_label_1
_geom_bond_atom_site_label_2
_geom_bond_distance
_geom_bond_site_symmetry_2
Mg0 O1 2.033106 1_444
Mg0 O0 2.033106 1_555
Mg0 O4 2.117361 1_545
Mg0 O5 2.117361 1_455
Mg0 O2 2.117361 1_454
Mg0 O3 2.117361 1_544
Br0 O0 1.653479 1_555
Br0 O4 1.670186 1_555
Br0 O5 1.670186 1_555
Br1 O1 1.653479 1_555
Br1 O2 1.670186 1_555
Br1 O3 1.670186 1_555
