# generated using pymatgen
data_Ta11(NiSe4)2
_symmetry_space_group_name_H-M   'P 1'
_cell_length_a   3.44293421
_cell_length_b   12.04594235
_cell_length_c   19.53314327
_cell_angle_alpha   90.02713801
_cell_angle_beta   89.99999772
_cell_angle_gamma   89.99999919
_symmetry_Int_Tables_number   1
_chemical_formula_structural   Ta11(NiSe4)2
_chemical_formula_sum   'Ta22 Ni4 Se16'
_cell_volume   810.10551922
_cell_formula_units_Z   2
loop_
 _symmetry_equiv_pos_site_id
 _symmetry_equiv_pos_as_xyz
  1  'x, y, z'
loop_
 _atom_site_type_symbol
 _atom_site_label
 _atom_site_symmetry_multiplicity
 _atom_site_fract_x
 _atom_site_fract_y
 _atom_site_fract_z
 _atom_site_occupancy
  Ta  Ta0  1  0.50000051  0.82101454  0.05091021  1
  Ta  Ta1  1  0.49999925  0.17900095  0.94908906  1
  Ta  Ta2  1  0.00000016  0.67873400  0.55112160  1
  Ta  Ta3  1  -0.00000031  0.32124717  0.44887457  1
  Ta  Ta4  1  0.49999915  0.44718854  0.74139385  1
  Ta  Ta5  1  0.50000090  0.55279948  0.25860503  1
  Ta  Ta6  1  -0.00000013  0.94738534  0.75884853  1
  Ta  Ta7  1  -0.00000007  0.05263654  0.24114584  1
  Ta  Ta8  1  0.49999968  0.06230027  0.11494135  1
  Ta  Ta9  1  0.50000007  0.93771347  0.88505102  1
  Ta  Ta10  1  0.00000006  0.56240094  0.38491171  1
  Ta  Ta11  1  -0.00000016  0.43758232  0.61509177  1
  Ta  Ta12  1  0.49999944  0.17576724  0.35553154  1
  Ta  Ta13  1  0.50000003  0.82422740  0.64448025  1
  Ta  Ta14  1  0.00000036  0.67557070  0.14428321  1
  Ta  Ta15  1  0.00000007  0.32443925  0.85572376  1
  Ta  Ta16  1  0.49999948  0.15508312  0.78809156  1
  Ta  Ta17  1  0.50000065  0.84493565  0.21189894  1
  Ta  Ta18  1  0.00000020  0.65498876  0.71220177  1
  Ta  Ta19  1  0.00000009  0.34500532  0.28780130  1
  Ta  Ta20  1  0.49999966  0.49999430  0.50000063  1
  Ta  Ta21  1  -0.00000042  -0.00000148  0.00000036  1
  Ni  Ni0  1  -0.00000031  0.09254011  0.87101358  1
  Ni  Ni1  1  0.00000021  0.90746009  0.12896054  1
  Ni  Ni2  1  0.49999991  0.59229806  0.62935420  1
  Ni  Ni3  1  0.50000017  0.40769851  0.37065688  1
  Se  Se0  1  0.50000024  0.29348228  0.55523892  1
  Se  Se1  1  0.50000110  0.70650905  0.44475041  1
  Se  Se2  1  0.00000017  0.79334249  0.94464853  1
  Se  Se3  1  0.00000004  0.20664559  0.05536273  1
  Se  Se4  1  0.49999987  0.03993188  0.67566209  1
  Se  Se5  1  0.50000007  0.96009527  0.32432169  1
  Se  Se6  1  -0.00000139  0.53995796  0.82463378  1
  Se  Se7  1  0.00000125  0.46002929  0.17537602  1
  Se  Se8  1  0.50000035  0.39026050  0.94646980  1
  Se  Se9  1  0.50000051  0.60975643  0.05354971  1
  Se  Se10  1  0.00000003  0.89011689  0.55373401  1
  Se  Se11  1  -0.00000127  0.10986039  0.44626976  1
  Se  Se12  1  -0.00000116  0.28503856  0.71461955  1
  Se  Se13  1  0.00000145  0.71495086  0.28536889  1
  Se  Se14  1  0.50000010  0.78521559  0.78557122  1
  Se  Se15  1  0.49999999  0.21479540  0.21443584  1
loop_
_geom_bond_atom_site_label_1
_geom_bond_atom_site_label_2
_geom_bond_distance
_geom_bond_site_symmetry_2
Ni0 Ta16 2.481072 1_555
Ni0 Ta16 2.481073 1_455
Ni0 Ta1 2.524376 1_555
Ni0 Ta1 2.524378 1_455
Ni0 Ta9 2.552932 1_445
Ni0 Ta9 2.552933 1_545
Ni0 Ta21 2.755594 1_556
Ni0 Ta6 2.802484 1_545
Ni0 Ta15 2.809504 1_555
Ni1 Ta17 2.481212 1_455
Ni1 Ta17 2.481214 1_555
Ni1 Ta0 2.524003 1_455
Ni1 Ta0 2.524005 1_555
Ni1 Ta8 2.553012 1_565
Ni1 Ta8 2.553014 1_465
Ni1 Ta21 2.755103 1_565
Ni1 Ta7 2.802956 1_565
Ni1 Ta14 2.809456 1_555
Ni2 Ta18 2.480197 1_555
Ni2 Ta18 2.480198 1_655
Ni2 Ta2 2.526704 1_555
Ni2 Ta2 2.526705 1_655
Ni2 Ta11 2.552241 1_655
Ni2 Ta11 2.552241 1_555
Ni2 Ta20 2.760027 1_555
Ni2 Ta4 2.801524 1_555
Ni2 Ta13 2.809248 1_555
Ni3 Ta19 2.480308 1_655
Ni3 Ta19 2.480309 1_555
Ni3 Ta3 2.526604 1_655
Ni3 Ta3 2.526606 1_555
Ni3 Ta10 2.552108 1_655
Ni3 Ta10 2.552108 1_555
Ni3 Ta20 2.759813 1_555
Ni3 Ta5 2.801646 1_555
Ni3 Ta12 2.809270 1_555
Se0 Ta11 2.709506 1_655
Se0 Ta11 2.709508 1_555
Se0 Ta20 2.712019 1_555
Se0 Ta3 2.718916 1_655
Se0 Ta3 2.718919 1_555
Se1 Ta10 2.709448 1_655
Se1 Ta10 2.709452 1_555
Se1 Ta20 2.712142 1_555
Se1 Ta2 2.719033 1_655
Se1 Ta2 2.719037 1_555
Se2 Ta9 2.710161 1_555
Se2 Ta9 2.710161 1_455
Se2 Ta21 2.713555 1_566
Se2 Ta0 2.717006 1_456
Se2 Ta0 2.717007 1_556
Se3 Ta8 2.709803 1_555
Se3 Ta8 2.709805 1_455
Se3 Ta21 2.713538 1_555
Se3 Ta1 2.717143 1_554
Se3 Ta1 2.717147 1_454
Se4 Ta16 2.596928 1_555
Se4 Ta6 2.616915 1_545
Se4 Ta6 2.616915 1_645
Se4 Ta13 2.668515 1_545
Se5 Ta17 2.596871 1_555
Se5 Ta7 2.616759 1_665
Se5 Ta7 2.616760 1_565
Se5 Ta12 2.668258 1_565
Se6 Ta18 2.597306 1_555
Se6 Ta4 2.618051 1_455
Se6 Ta4 2.618053 1_555
Se6 Ta15 2.666488 1_555
Se7 Ta19 2.597151 1_555
Se7 Ta5 2.617923 1_555
Se7 Ta5 2.617924 1_455
Se7 Ta14 2.666767 1_555
Se8 Ta1 2.545359 1_555
Se8 Ta15 2.594749 1_655
Se8 Ta15 2.594751 1_555
Se9 Ta0 2.545350 1_555
Se9 Ta14 2.594557 1_655
Se9 Ta14 2.594557 1_555
Se10 Ta2 2.546793 1_555
Se10 Ta13 2.595517 1_455
Se10 Ta13 2.595517 1_555
Se11 Ta3 2.546837 1_555
Se11 Ta12 2.595473 1_455
Se11 Ta12 2.595476 1_555
Se12 Ta4 2.655405 1_455
Se12 Ta4 2.655406 1_555
Se12 Ta11 2.675706 1_555
Se12 Ta16 2.734188 1_455
Se12 Ta16 2.734191 1_555
Se12 Ta15 2.796553 1_555
Se13 Ta5 2.655377 1_555
Se13 Ta5 2.655379 1_455
Se13 Ta10 2.675970 1_555
Se13 Ta17 2.734369 1_555
Se13 Ta17 2.734372 1_455
Se13 Ta14 2.796155 1_555
Se14 Ta6 2.655746 1_655
Se14 Ta6 2.655747 1_555
Se14 Ta9 2.673380 1_555
Se14 Ta18 2.734233 1_555
Se14 Ta18 2.734234 1_655
Se14 Ta13 2.795948 1_555
Se15 Ta7 2.655601 1_655
Se15 Ta7 2.655601 1_555
Se15 Ta8 2.673566 1_555
Se15 Ta19 2.734076 1_555
Se15 Ta19 2.734076 1_655
Se15 Ta12 2.796072 1_555
