# generated using pymatgen
data_MgMn6(OF)6
_symmetry_space_group_name_H-M   'P 1'
_cell_length_a   5.25370156
_cell_length_b   14.52306218
_cell_length_c   3.15132543
_cell_angle_alpha   90.00000000
_cell_angle_beta   90.00000000
_cell_angle_gamma   82.15442535
_symmetry_Int_Tables_number   1
_chemical_formula_structural   MgMn6(OF)6
_chemical_formula_sum   'Mg1 Mn6 O6 F6'
_cell_volume   238.19493565
_cell_formula_units_Z   1
loop_
 _symmetry_equiv_pos_site_id
 _symmetry_equiv_pos_as_xyz
  1  'x, y, z'
loop_
 _atom_site_type_symbol
 _atom_site_label
 _atom_site_symmetry_multiplicity
 _atom_site_fract_x
 _atom_site_fract_y
 _atom_site_fract_z
 _atom_site_occupancy
  Mg  Mg0  1  0.50000000  -0.00000000  0.47444179  1
  Mn  Mn0  1  -0.00000000  -0.00000000  0.97596351  1
  Mn  Mn1  1  0.12737036  0.34660701  0.99414336  1
  Mn  Mn2  1  0.87262964  0.65339299  0.99414336  1
  Mn  Mn3  1  0.73496763  0.20997840  0.49179777  1
  Mn  Mn4  1  0.50000000  0.50000000  0.49578824  1
  Mn  Mn5  1  0.26503237  0.79002160  0.49179777  1
  O  O0  1  0.18567775  0.93168330  0.47625896  1
  O  O1  1  0.10900887  0.74540915  0.99196475  1
  O  O2  1  0.37214271  0.43298360  0.99571435  1
  O  O3  1  0.89099113  0.25459085  0.99196475  1
  O  O4  1  0.62785729  0.56701640  0.99571435  1
  O  O5  1  0.81432225  0.06831670  0.47625896  1
  F  F0  1  0.34278067  0.26918913  0.49376981  1
  F  F1  1  0.08077311  0.59178393  0.49477347  1
  F  F2  1  0.33646734  0.07506616  0.97389727  1
  F  F3  1  0.66353266  0.92493384  0.97389727  1
  F  F4  1  0.91922689  0.40821607  0.49477347  1
  F  F5  1  0.65721933  0.73081087  0.49376981  1
loop_
_geom_bond_atom_site_label_1
_geom_bond_atom_site_label_2
_geom_bond_distance
_geom_bond_site_symmetry_2
Mg0 O5 2.039290 1_555
Mg0 O0 2.039290 1_545
Mn0 O5 2.037532 1_455
Mn0 O0 2.037532 1_545
Mn0 O5 2.038971 1_456
Mn0 O0 2.038971 1_546
Mn1 O2 1.915145 1_555
Mn1 O3 1.944531 1_455
Mn2 O4 1.915145 1_555
Mn2 O1 1.944531 1_655
Mn3 O3 1.928145 1_554
Mn3 O3 1.929005 1_555
Mn3 O5 2.043228 1_555
Mn4 O4 2.014686 1_555
Mn4 O2 2.014686 1_555
Mn4 O4 2.015050 1_554
Mn4 O2 2.015050 1_554
Mn5 O1 1.928145 1_554
Mn5 O1 1.929005 1_555
Mn5 O0 2.043228 1_555
F0 Mn3 2.121596 1_555
F0 Mn1 2.162527 1_554
F0 Mn1 2.164242 1_555
F1 Mn2 2.050784 1_455
F1 Mn2 2.053833 1_454
F1 Mn4 2.413776 1_555
F2 Mg0 2.036727 1_555
F2 Mg0 2.039380 1_556
F2 Mn0 2.199872 1_555
F3 Mg0 2.036727 1_565
F3 Mg0 2.039380 1_566
F3 Mn0 2.199872 1_665
F4 Mn1 2.050784 1_655
F4 Mn1 2.053833 1_654
F4 Mn4 2.413776 1_555
F5 Mn5 2.121596 1_555
F5 Mn2 2.162527 1_554
F5 Mn2 2.164242 1_555
