# generated using pymatgen
data_MgMn6(O2F)4
_symmetry_space_group_name_H-M   'P 1'
_cell_length_a   5.33016453
_cell_length_b   5.25945220
_cell_length_c   8.98756648
_cell_angle_alpha   90.60364887
_cell_angle_beta   89.82318368
_cell_angle_gamma   105.33874534
_symmetry_Int_Tables_number   1
_chemical_formula_structural   MgMn6(O2F)4
_chemical_formula_sum   'Mg1 Mn6 O8 F4'
_cell_volume   242.96669964
_cell_formula_units_Z   1
loop_
 _symmetry_equiv_pos_site_id
 _symmetry_equiv_pos_as_xyz
  1  'x, y, z'
loop_
 _atom_site_type_symbol
 _atom_site_label
 _atom_site_symmetry_multiplicity
 _atom_site_fract_x
 _atom_site_fract_y
 _atom_site_fract_z
 _atom_site_occupancy
  Mg  Mg0  1  0.01163968  0.53984224  0.65480580  1
  Mn  Mn0  1  0.01660251  0.97065270  0.00702344  1
  Mn  Mn1  1  0.01686713  0.97175374  0.32706586  1
  Mn  Mn2  1  0.97252949  0.02160436  0.65586068  1
  Mn  Mn3  1  0.50161866  0.48685354  0.83753954  1
  Mn  Mn4  1  0.47111982  0.51613896  0.16352718  1
  Mn  Mn5  1  0.51005210  0.48187883  0.48912315  1
  O  O0  1  0.12502006  0.84864430  0.51518656  1
  O  O1  1  0.31628282  0.28327101  0.99505593  1
  O  O2  1  0.31165972  0.29262556  0.33010449  1
  O  O3  1  0.27689924  0.33627187  0.66188744  1
  O  O4  1  0.68799814  0.68833677  0.99632853  1
  O  O5  1  0.68141471  0.69743825  0.33123345  1
  O  O6  1  0.69540783  0.68726782  0.66832238  1
  O  O7  1  0.88964940  0.11468415  0.16444861  1
  F  F0  1  0.19892934  0.77022578  0.16358721  1
  F  F1  1  0.14978189  0.80164983  0.82555483  1
  F  F2  1  0.81272940  0.26120155  0.51104475  1
  F  F3  1  0.82601905  0.22965876  0.80229717  1
loop_
_geom_bond_atom_site_label_1
_geom_bond_atom_site_label_2
_geom_bond_distance
_geom_bond_site_symmetry_2
Mg0 O3 1.988038 1_555
Mg0 O0 2.024012 1_555
Mg0 O6 2.036002 1_455
Mn0 O7 1.810055 1_465
Mn0 O1 1.969687 1_564
Mn0 O4 1.975826 1_454
Mn1 O7 1.860092 1_465
Mn1 O0 1.958761 1_555
Mn1 O2 1.978416 1_565
Mn1 O5 1.978860 1_455
Mn2 O0 1.856676 1_645
Mn2 O6 1.978744 1_545
Mn2 O3 1.987980 1_655
Mn3 O4 1.888513 1_555
Mn3 O1 1.894793 1_555
Mn3 O6 1.984705 1_555
Mn3 O3 2.009387 1_555
Mn4 O2 1.961212 1_555
Mn4 O5 1.962704 1_555
Mn4 O4 1.969457 1_554
Mn4 O1 1.976784 1_554
Mn5 O2 1.890520 1_555
Mn5 O5 1.900355 1_555
Mn5 O3 2.012833 1_555
Mn5 O6 2.036040 1_555
F0 Mn0 2.148801 1_555
F0 Mn1 2.174048 1_555
F0 Mn4 2.217305 1_555
F1 Mg0 2.054094 1_555
F1 Mn0 2.061589 1_556
F1 Mn2 2.276235 1_465
F2 Mg0 2.021812 1_655
F2 Mn2 2.148661 1_555
F2 Mn5 2.232964 1_555
F2 Mn1 2.654765 1_645
F3 Mn2 1.988661 1_555
F3 Mg0 2.140342 1_655
F3 Mn3 2.478905 1_555
F3 Mn0 2.658877 1_646
