# generated using pymatgen
data_ErSe
_symmetry_space_group_name_H-M   'P 1'
_cell_length_a   4.01272218
_cell_length_b   4.01272183
_cell_length_c   4.01272459
_cell_angle_alpha   60.00001113
_cell_angle_beta   60.00001400
_cell_angle_gamma   60.00001613
_symmetry_Int_Tables_number   1
_chemical_formula_structural   ErSe
_chemical_formula_sum   'Er1 Se1'
_cell_volume   45.68805163
_cell_formula_units_Z   1
loop_
 _symmetry_equiv_pos_site_id
 _symmetry_equiv_pos_as_xyz
  1  'x, y, z'
loop_
 _atom_site_type_symbol
 _atom_site_label
 _atom_site_symmetry_multiplicity
 _atom_site_fract_x
 _atom_site_fract_y
 _atom_site_fract_z
 _atom_site_occupancy
  Er  Er0  1  0.00000000  -0.00000000  -0.00000000  1
  Se  Se0  1  0.50000000  0.50000000  0.50000000  1
loop_
_geom_bond_atom_site_label_1
_geom_bond_atom_site_label_2
_geom_bond_distance
_geom_bond_site_symmetry_2
Er0 Se0 2.837423 1_554
Er0 Se0 2.837423 1_445
Er0 Se0 2.837424 1_455
Er0 Se0 2.837424 1_544
Er0 Se0 2.837424 1_545
Er0 Se0 2.837424 1_454
