# generated using pymatgen
data_TiFeSi2
_symmetry_space_group_name_H-M   'P 1'
_cell_length_a   7.63333287
_cell_length_b   8.56645754
_cell_length_c   9.36565768
_cell_angle_alpha   90.00044193
_cell_angle_beta   90.00002373
_cell_angle_gamma   90.00002317
_symmetry_Int_Tables_number   1
_chemical_formula_structural   TiFeSi2
_chemical_formula_sum   'Ti12 Fe12 Si24'
_cell_volume   612.42618037
_cell_formula_units_Z   12
loop_
 _symmetry_equiv_pos_site_id
 _symmetry_equiv_pos_as_xyz
  1  'x, y, z'
loop_
 _atom_site_type_symbol
 _atom_site_label
 _atom_site_symmetry_multiplicity
 _atom_site_fract_x
 _atom_site_fract_y
 _atom_site_fract_z
 _atom_site_occupancy
  Ti  Ti0  1  -0.00000189  0.16950628  0.82008432  1
  Ti  Ti1  1  0.23818245  0.16962515  0.54487362  1
  Ti  Ti2  1  0.76182379  0.33038034  0.04488859  1
  Ti  Ti3  1  0.76181871  0.66961516  0.95511807  1
  Ti  Ti4  1  0.76181768  0.16962172  0.54488412  1
  Ti  Ti5  1  0.76181683  0.83037669  0.45511759  1
  Ti  Ti6  1  0.23818293  0.66961250  0.95512650  1
  Ti  Ti7  1  0.23817808  0.33038267  0.04489344  1
  Ti  Ti8  1  0.00000988  0.33049382  0.32005926  1
  Ti  Ti9  1  0.00000125  0.66951485  0.67993300  1
  Ti  Ti10  1  0.00000640  0.83048550  0.17992088  1
  Ti  Ti11  1  0.23818378  0.83037371  0.45511536  1
  Fe  Fe0  1  0.24929423  0.08735165  0.24961040  1
  Fe  Fe1  1  0.24929403  0.58732696  0.25035741  1
  Fe  Fe2  1  0.24929550  0.41266089  0.74964682  1
  Fe  Fe3  1  0.75070497  0.08735135  0.24961004  1
  Fe  Fe4  1  0.75070739  0.91266268  0.75039027  1
  Fe  Fe5  1  0.75070720  0.41265433  0.74965446  1
  Fe  Fe6  1  0.75070571  0.58733238  0.25035022  1
  Fe  Fe7  1  0.24929333  0.91266509  0.75038907  1
  Fe  Fe8  1  0.24552187  0.00000646  0.00000074  1
  Fe  Fe9  1  0.75448736  0.49999811  0.49999395  1
  Fe  Fe10  1  0.75448242  0.00000542  -0.00000604  1
  Fe  Fe11  1  0.24551506  0.49999878  0.49998820  1
  Si  Si0  1  0.49999605  0.03784564  0.37549089  1
  Si  Si1  1  0.00000446  0.46213517  0.87816303  1
  Si  Si2  1  0.00000509  0.53786028  0.12184331  1
  Si  Si3  1  0.00000059  0.96213485  0.62184909  1
  Si  Si4  1  0.00000213  0.03787300  0.37815032  1
  Si  Si5  1  -0.00000022  0.37305830  0.60235641  1
  Si  Si6  1  0.00000147  0.62693759  0.39763797  1
  Si  Si7  1  -0.00000313  0.87306555  0.89764515  1
  Si  Si8  1  0.50000160  0.37329444  0.59461561  1
  Si  Si9  1  0.49999992  0.62670354  0.40537586  1
  Si  Si10  1  0.50000782  0.87330580  0.90538733  1
  Si  Si11  1  0.50000568  0.12669328  0.09461416  1
  Si  Si12  1  0.49999628  0.46215645  0.87550626  1
  Si  Si13  1  0.49999331  0.53783749  0.12450270  1
  Si  Si14  1  0.49999884  0.96215803  0.62450837  1
  Si  Si15  1  -0.00000476  0.12693543  0.10235536  1
  Si  Si16  1  0.34691063  0.33382960  0.31687713  1
  Si  Si17  1  0.65308022  0.83383649  0.18310797  1
  Si  Si18  1  0.34691011  0.83382626  0.18311359  1
  Si  Si19  1  0.65308279  0.16616248  0.81689168  1
  Si  Si20  1  0.65308060  0.66617055  0.68311938  1
  Si  Si21  1  0.65307832  0.33383280  0.31687994  1
  Si  Si22  1  0.34691119  0.16617152  0.81688874  1
  Si  Si23  1  0.34691205  0.66617297  0.68311943  1
loop_
_geom_bond_atom_site_label_1
_geom_bond_atom_site_label_2
_geom_bond_distance
_geom_bond_site_symmetry_2
Fe0 Si0 2.287357 1_555
Fe0 Si4 2.291307 1_555
Fe0 Si16 2.326004 1_555
Fe0 Si15 2.374523 1_555
Fe0 Si18 2.379043 1_545
Fe0 Si11 2.425561 1_555
Fe0 Fe8 2.454746 1_555
Fe0 Ti7 2.831555 1_555
Fe0 Ti1 2.854990 1_555
Fe0 Ti8 2.897338 1_555
Fe0 Ti11 2.925373 1_545
Fe0 Ti10 2.981425 1_545
Fe1 Si13 2.287188 1_555
Fe1 Si2 2.291136 1_555
Fe1 Si18 2.326121 1_555
Fe1 Si6 2.374653 1_555
Fe1 Si16 2.378891 1_555
Fe1 Si9 2.425690 1_555
Fe1 Fe11 2.454902 1_555
Fe1 Ti11 2.831891 1_555
Fe1 Ti6 2.854733 1_554
Fe1 Ti10 2.897436 1_555
Fe1 Ti7 2.924882 1_555
Fe1 Ti8 2.981232 1_555
Fe2 Si12 2.287229 1_555
Fe2 Si1 2.291173 1_555
Fe2 Si22 2.326038 1_555
Fe2 Si5 2.374715 1_555
Fe2 Si23 2.379024 1_555
Fe2 Si8 2.425752 1_555
Fe2 Ti1 2.831919 1_555
Fe2 Ti7 2.854862 1_556
Fe2 Ti0 2.897462 1_555
Fe2 Ti6 2.925026 1_555
Fe2 Ti9 2.981438 1_555
Fe3 Si0 2.287404 1_555
Fe3 Si4 2.291339 1_655
Fe3 Si21 2.326065 1_555
Fe3 Si15 2.374469 1_655
Fe3 Si17 2.378994 1_545
Fe3 Si11 2.425486 1_555
Fe3 Ti2 2.831572 1_555
Fe3 Ti4 2.855082 1_555
Fe3 Ti8 2.897443 1_655
Fe3 Ti5 2.925368 1_545
Fe3 Ti10 2.981491 1_645
Fe4 Si14 2.287390 1_555
Fe4 Si3 2.291309 1_655
Fe4 Si20 2.326151 1_555
Fe4 Si7 2.374480 1_655
Fe4 Si19 2.378875 1_565
Fe4 Si10 2.425512 1_555
Fe4 Ti3 2.831727 1_555
Fe4 Ti5 2.855102 1_555
Fe4 Ti9 2.897439 1_655
Fe4 Ti4 2.925258 1_565
Fe4 Ti0 2.981306 1_665
Fe5 Si12 2.287268 1_555
Fe5 Si1 2.291184 1_655
Fe5 Si19 2.326066 1_555
Fe5 Si5 2.374730 1_655
Fe5 Si20 2.379100 1_555
Fe5 Si8 2.425782 1_555
Fe5 Fe9 2.455208 1_555
Fe5 Ti4 2.831881 1_555
Fe5 Ti2 2.854739 1_556
Fe5 Ti0 2.897374 1_655
Fe5 Ti3 2.924986 1_555
Fe5 Ti9 2.981493 1_655
Fe6 Si13 2.287244 1_555
Fe6 Si2 2.291177 1_655
Fe6 Si17 2.326177 1_555
Fe6 Si6 2.374704 1_655
Fe6 Si21 2.378958 1_555
Fe6 Si9 2.425724 1_555
Fe6 Fe9 2.455033 1_555
Fe6 Ti5 2.831936 1_555
Fe6 Ti3 2.854739 1_554
Fe6 Ti10 2.897452 1_655
Fe6 Ti2 2.924918 1_555
Fe6 Ti8 2.981379 1_655
Fe7 Si14 2.287361 1_555
Fe7 Si3 2.291296 1_555
Fe7 Si23 2.326128 1_555
Fe7 Si7 2.374533 1_555
Fe7 Si22 2.378906 1_565
Fe7 Si10 2.425611 1_555
Fe7 Fe8 2.454754 1_566
Fe7 Ti6 2.831820 1_555
Fe7 Ti11 2.855123 1_555
Fe7 Ti9 2.897441 1_555
Fe7 Ti1 2.925322 1_565
Fe7 Ti0 2.981317 1_565
Fe8 Si22 2.359305 1_554
Fe8 Si18 2.359386 1_545
Fe8 Si15 2.369346 1_555
Fe8 Si7 2.369386 1_544
Fe8 Si11 2.395101 1_555
Fe8 Si10 2.395169 1_544
Fe8 Ti7 2.861760 1_555
Fe8 Ti6 2.861885 1_544
Fe8 Ti0 2.908645 1_554
Fe8 Ti10 2.908715 1_545
Fe9 Si21 2.359353 1_555
Fe9 Si20 2.359463 1_555
Fe9 Si6 2.369323 1_655
Fe9 Si5 2.369339 1_655
Fe9 Si8 2.395213 1_555
Fe9 Si9 2.395218 1_555
Fe9 Ti5 2.861762 1_555
Fe9 Ti4 2.861763 1_555
Fe9 Ti8 2.908745 1_655
Fe9 Ti9 2.908778 1_655
Fe10 Si19 2.359223 1_554
Fe10 Si17 2.359371 1_545
Fe10 Si15 2.369291 1_655
Fe10 Si7 2.369293 1_644
Fe10 Si10 2.395070 1_544
Fe10 Si11 2.395086 1_555
Fe10 Fe4 2.454687 1_544
Fe10 Fe3 2.454806 1_555
Fe10 Ti2 2.861752 1_555
Fe10 Ti3 2.861855 1_544
Fe10 Ti0 2.908573 1_654
Fe10 Ti10 2.908789 1_645
Fe11 Si16 2.359320 1_555
Fe11 Si23 2.359486 1_555
Fe11 Si6 2.369296 1_555
Fe11 Si5 2.369380 1_555
Fe11 Si9 2.395180 1_555
Fe11 Si8 2.395241 1_555
Fe11 Fe2 2.455176 1_555
Fe11 Ti11 2.861727 1_555
Fe11 Ti1 2.861733 1_555
Fe11 Ti8 2.908630 1_555
Fe11 Ti9 2.908808 1_555
Si0 Si14 2.420667 1_545
Si0 Ti11 2.776497 1_545
Si0 Ti5 2.776534 1_545
Si0 Ti1 2.790162 1_555
Si0 Ti4 2.790248 1_555
Si1 Si2 2.372623 1_556
Si1 Ti0 2.565125 1_555
Si1 Ti9 2.569597 1_555
Si1 Ti6 2.642722 1_555
Si1 Ti3 2.642755 1_455
Si1 Ti7 2.649080 1_556
Si1 Ti2 2.649099 1_456
Si2 Ti10 2.565092 1_555
Si2 Ti8 2.569424 1_555
Si2 Ti7 2.642661 1_555
Si2 Ti2 2.642729 1_455
Si2 Ti6 2.649026 1_554
Si2 Ti3 2.649127 1_454
Si3 Si4 2.372830 1_565
Si3 Ti9 2.565069 1_555
Si3 Ti0 2.569564 1_565
Si3 Ti4 2.642812 1_465
Si3 Ti1 2.642853 1_565
Si3 Ti5 2.649149 1_455
Si3 Ti11 2.649171 1_555
Si4 Ti8 2.565090 1_555
Si4 Ti10 2.569620 1_545
Si4 Ti11 2.642877 1_545
Si4 Ti5 2.642885 1_445
Si4 Ti1 2.649064 1_555
Si4 Ti4 2.649133 1_455
Si5 Ti4 2.575344 1_455
Si5 Ti1 2.575349 1_555
Si5 Ti9 2.641464 1_555
Si5 Ti8 2.668921 1_555
Si5 Ti0 2.683059 1_555
Si6 Ti11 2.575352 1_555
Si6 Ti5 2.575388 1_455
Si6 Ti8 2.641365 1_555
Si6 Ti9 2.668916 1_555
Si6 Ti10 2.682959 1_555
Si7 Ti3 2.575410 1_455
Si7 Ti6 2.575485 1_555
Si7 Ti0 2.641304 1_565
Si7 Ti10 2.668746 1_556
Si7 Ti9 2.682919 1_555
Si8 Ti4 2.693551 1_555
Si8 Ti1 2.693565 1_555
Si9 Ti11 2.693550 1_555
Si9 Ti5 2.693573 1_555
Si10 Ti3 2.693624 1_555
Si10 Ti6 2.693731 1_555
Si11 Ti2 2.693636 1_555
Si11 Ti7 2.693695 1_555
Si12 Si13 2.420452 1_556
Si12 Ti6 2.776399 1_555
Si12 Ti3 2.776441 1_555
Si12 Ti7 2.790200 1_556
Si12 Ti2 2.790233 1_556
Si13 Ti7 2.776374 1_555
Si13 Ti2 2.776484 1_555
Si13 Ti6 2.790103 1_554
Si13 Ti3 2.790239 1_554
Si14 Ti4 2.776488 1_565
Si14 Ti1 2.776520 1_565
Si14 Ti5 2.790235 1_555
Si14 Ti11 2.790239 1_555
Si15 Ti2 2.575330 1_455
Si15 Ti7 2.575395 1_555
Si15 Ti10 2.641392 1_545
Si15 Ti0 2.668691 1_554
Si15 Ti8 2.682903 1_555
Si16 Si21 2.337080 1_555
Si16 Ti8 2.648331 1_555
Si16 Ti7 2.679277 1_555
Si16 Ti1 2.688347 1_555
Si17 Si18 2.337098 1_555
Si17 Ti10 2.648527 1_655
Si17 Ti5 2.679519 1_555
Si17 Ti3 2.688381 1_554
Si18 Ti10 2.648355 1_555
Si18 Ti11 2.679425 1_555
Si18 Ti6 2.688298 1_554
Si19 Si22 2.337110 1_555
Si19 Ti0 2.648444 1_655
Si19 Ti4 2.679497 1_555
Si19 Ti2 2.688422 1_556
Si20 Si23 2.337086 1_555
Si20 Ti9 2.648484 1_655
Si20 Ti3 2.679423 1_555
Si20 Ti5 2.688413 1_555
Si21 Ti8 2.648566 1_655
Si21 Ti2 2.679377 1_555
Si21 Ti4 2.688460 1_555
Si22 Ti0 2.648426 1_555
Si22 Ti1 2.679549 1_555
Si22 Ti7 2.688432 1_556
Si23 Ti9 2.648409 1_555
Si23 Ti6 2.679477 1_555
Si23 Ti11 2.688386 1_555
