# generated using pymatgen
data_MgCu2(RhO2)4
_symmetry_space_group_name_H-M   'P 1'
_cell_length_a   6.51019265
_cell_length_b   6.51345103
_cell_length_c   6.51167627
_cell_angle_alpha   90.04885436
_cell_angle_beta   119.94911253
_cell_angle_gamma   119.99490916
_symmetry_Int_Tables_number   1
_chemical_formula_structural   MgCu2(RhO2)4
_chemical_formula_sum   'Mg1 Cu2 Rh4 O8'
_cell_volume   195.32815623
_cell_formula_units_Z   1
loop_
 _symmetry_equiv_pos_site_id
 _symmetry_equiv_pos_as_xyz
  1  'x, y, z'
loop_
 _atom_site_type_symbol
 _atom_site_label
 _atom_site_symmetry_multiplicity
 _atom_site_fract_x
 _atom_site_fract_y
 _atom_site_fract_z
 _atom_site_occupancy
  Mg  Mg0  1  0.49921600  0.24975800  0.74988000  1
  Cu  Cu0  1  0.00057600  0.99998500  0.00071100  1
  Cu  Cu1  1  0.50193700  0.75100900  0.25075700  1
  Rh  Rh0  1  0.77561200  0.38767600  0.16322400  1
  Rh  Rh1  1  0.77536800  0.38775300  0.61226800  1
  Rh  Rh2  1  0.22419400  0.38793700  0.61189000  1
  Rh  Rh3  1  0.22434000  0.83645400  0.61217300  1
  O  O0  1  0.22095100  0.61041900  0.38926800  1
  O  O1  1  0.77879000  0.16838700  0.38924500  1
  O  O2  1  0.73830500  0.13092100  0.86923700  1
  O  O3  1  0.77891600  0.61039500  0.38950500  1
  O  O4  1  0.22062600  0.61044600  0.83111200  1
  O  O5  1  0.26113100  0.13038900  0.86948300  1
  O  O6  1  0.26150900  0.13083700  0.39215500  1
  O  O7  1  0.73853000  0.60763100  0.86909300  1
loop_
_geom_bond_atom_site_label_1
_geom_bond_atom_site_label_2
_geom_bond_distance
_geom_bond_site_symmetry_2
Mg0 O5 1.901288 1_555
Mg0 O6 1.902642 1_555
Mg0 O7 1.903074 1_555
Mg0 O2 1.903601 1_555
Mg0 Rh2 2.197583 1_555
Mg0 Rh3 2.197837 1_545
Mg0 Rh0 2.198470 1_556
Mg0 Rh1 2.199356 1_555
Cu0 O6 2.081980 1_565
Cu0 O5 2.082520 1_564
Cu0 O7 2.086431 1_454
Cu0 O2 2.091243 1_464
Cu1 O1 2.219513 1_565
Cu1 O3 2.220952 1_555
Cu1 O0 2.229842 1_555
Cu1 O4 2.231995 1_554
O0 Rh2 2.050729 1_555
O0 Rh3 2.051042 1_555
O0 Rh0 2.051067 1_455
O1 Rh2 2.051340 1_655
O1 Rh0 2.051683 1_555
O1 Rh1 2.052238 1_555
O2 Rh0 2.375858 1_556
O2 Rh1 2.379273 1_555
O2 Rh3 2.379506 1_545
O3 Rh3 2.051439 1_655
O3 Rh0 2.051713 1_555
O3 Rh1 2.052120 1_555
O4 Rh2 2.049882 1_555
O4 Rh3 2.050013 1_555
O4 Rh1 2.050694 1_455
O5 Rh3 2.380232 1_545
O5 Rh0 2.381401 1_556
O5 Rh2 2.385552 1_555
O6 Rh1 2.378451 1_555
O6 Rh2 2.379150 1_555
O6 Rh3 2.382158 1_545
O7 Rh1 2.375959 1_555
O7 Rh0 2.380748 1_556
O7 Rh2 2.381266 1_555
