# generated using pymatgen
data_CaGa4
_symmetry_space_group_name_H-M   'P 1'
_cell_length_a   4.31308698
_cell_length_b   4.31308667
_cell_length_c   6.08504203
_cell_angle_alpha   69.46000227
_cell_angle_beta   69.45999699
_cell_angle_gamma   89.85064199
_symmetry_Int_Tables_number   1
_chemical_formula_structural   CaGa4
_chemical_formula_sum   'Ca1 Ga4'
_cell_volume   98.32157581
_cell_formula_units_Z   1
loop_
 _symmetry_equiv_pos_site_id
 _symmetry_equiv_pos_as_xyz
  1  'x, y, z'
loop_
 _atom_site_type_symbol
 _atom_site_label
 _atom_site_symmetry_multiplicity
 _atom_site_fract_x
 _atom_site_fract_y
 _atom_site_fract_z
 _atom_site_occupancy
  Ca  Ca0  1  -0.00000000  -0.00000000  0.00000000  1
  Ga  Ga0  1  0.39390765  0.39390765  0.23069258  1
  Ga  Ga1  1  0.60609235  0.60609235  0.76930742  1
  Ga  Ga2  1  0.24185862  0.75814138  0.50000000  1
  Ga  Ga3  1  0.75814138  0.24185862  0.50000000  1
loop_
_geom_bond_atom_site_label_1
_geom_bond_atom_site_label_2
_geom_bond_distance
_geom_bond_site_symmetry_2
Ca0 Ga1 3.243980 1_554
Ca0 Ga0 3.243980 1_445
Ca0 Ga0 3.281167 1_455
Ca0 Ga1 3.281167 1_544
Ca0 Ga1 3.281167 1_454
Ca0 Ga0 3.281167 1_545
Ca0 Ga0 3.332521 1_555
Ca0 Ga1 3.332521 1_444
Ca0 Ga2 3.380475 1_544
Ca0 Ga3 3.380475 1_455
Ca0 Ga3 3.380476 1_454
Ca0 Ga2 3.380476 1_545
Ca0 Ga3 3.441928 1_554
Ca0 Ga2 3.441928 1_445
Ca0 Ga3 3.441928 1_445
Ca0 Ga2 3.441928 1_554
Ga0 Ga1 2.440446 1_554
Ga0 Ga2 2.574984 1_555
Ga0 Ga3 2.574984 1_555
Ga0 Ga2 2.595519 1_545
Ga0 Ga3 2.595519 1_455
Ga1 Ga3 2.574984 1_555
Ga1 Ga2 2.574984 1_555
Ga1 Ga3 2.595519 1_565
Ga1 Ga2 2.595519 1_655
Ga2 Ga3 2.946646 1_465
Ga2 Ga3 3.055396 1_455
Ga2 Ga3 3.055396 1_565
Ga2 Ga3 3.145024 1_555
