# generated using pymatgen
data_MgFe4(HgO4)2
_symmetry_space_group_name_H-M   'P 1'
_cell_length_a   6.78733860
_cell_length_b   6.78733860
_cell_length_c   6.78733860
_cell_angle_alpha   53.28645460
_cell_angle_beta   53.28645460
_cell_angle_gamma   53.28645460
_symmetry_Int_Tables_number   1
_chemical_formula_structural   MgFe4(HgO4)2
_chemical_formula_sum   'Mg1 Fe4 Hg2 O8'
_cell_volume   186.33922091
_cell_formula_units_Z   1
loop_
 _symmetry_equiv_pos_site_id
 _symmetry_equiv_pos_as_xyz
  1  'x, y, z'
loop_
 _atom_site_type_symbol
 _atom_site_label
 _atom_site_symmetry_multiplicity
 _atom_site_fract_x
 _atom_site_fract_y
 _atom_site_fract_z
 _atom_site_occupancy
  Mg  Mg0  1  0.00000000  0.00000000  0.00000000  1
  Fe  Fe0  1  0.50000000  0.50000000  0.00000000  1
  Fe  Fe1  1  0.50000000  0.00000000  0.50000000  1
  Fe  Fe2  1  0.00000000  0.50000000  0.50000000  1
  Fe  Fe3  1  0.50000000  0.50000000  0.50000000  1
  Hg  Hg0  1  0.15604700  0.15604700  0.15604700  1
  Hg  Hg1  1  0.84395300  0.84395300  0.84395300  1
  O  O0  1  0.27787100  0.27787100  0.27787100  1
  O  O1  1  0.71740600  0.24098700  0.24098700  1
  O  O2  1  0.24098700  0.71740600  0.24098700  1
  O  O3  1  0.24098700  0.24098700  0.71740600  1
  O  O4  1  0.75901300  0.75901300  0.28259400  1
  O  O5  1  0.75901300  0.28259400  0.75901300  1
  O  O6  1  0.72212900  0.72212900  0.72212900  1
  O  O7  1  0.28259400  0.75901300  0.75901300  1
loop_
_geom_bond_atom_site_label_1
_geom_bond_atom_site_label_2
_geom_bond_distance
_geom_bond_site_symmetry_2
Mg0 O1 2.174031 1_455
Mg0 O2 2.174031 1_545
Mg0 O3 2.174031 1_554
Mg0 O7 2.174031 1_544
Mg0 O5 2.174031 1_454
Mg0 O4 2.174031 1_445
Fe0 O6 2.005341 1_554
Fe0 O0 2.005341 1_555
Fe0 O1 2.071112 1_555
Fe0 O2 2.071112 1_555
Fe0 O5 2.071112 1_554
Fe0 O7 2.071112 1_554
Fe1 O6 2.005341 1_545
Fe1 O0 2.005341 1_555
Fe1 O3 2.071112 1_555
Fe1 O1 2.071112 1_555
Fe1 O4 2.071112 1_545
Fe1 O7 2.071112 1_545
Fe2 O0 2.005341 1_555
Fe2 O6 2.005341 1_455
Fe2 O3 2.071112 1_555
Fe2 O2 2.071112 1_555
Fe2 O4 2.071112 1_455
Fe2 O5 2.071112 1_455
Fe3 O7 2.418796 1_555
Fe3 O5 2.418796 1_555
Fe3 O4 2.418796 1_555
Fe3 O1 2.418796 1_555
Fe3 O2 2.418796 1_555
Fe3 O3 2.418796 1_555
Hg0 O0 2.122133 1_555
Hg0 O3 2.412780 1_554
Hg0 O2 2.412780 1_545
Hg0 O1 2.412780 1_455
Hg1 O6 2.122133 1_555
Hg1 O5 2.412780 1_565
Hg1 O7 2.412780 1_655
Hg1 O4 2.412780 1_556
