# generated using pymatgen
data_Ga3Pd5
_symmetry_space_group_name_H-M   'P 1'
_cell_length_a   4.01474690
_cell_length_b   5.47384465
_cell_length_c   10.63403834
_cell_angle_alpha   90.00000000
_cell_angle_beta   90.00000000
_cell_angle_gamma   90.00000000
_symmetry_Int_Tables_number   1
_chemical_formula_structural   Ga3Pd5
_chemical_formula_sum   'Ga6 Pd10'
_cell_volume   233.69469889
_cell_formula_units_Z   2
loop_
 _symmetry_equiv_pos_site_id
 _symmetry_equiv_pos_as_xyz
  1  'x, y, z'
loop_
 _atom_site_type_symbol
 _atom_site_label
 _atom_site_symmetry_multiplicity
 _atom_site_fract_x
 _atom_site_fract_y
 _atom_site_fract_z
 _atom_site_occupancy
  Ga  Ga0  1  0.00000000  -0.00000000  0.00000000  1
  Ga  Ga1  1  0.00000000  0.50000000  0.50000000  1
  Ga  Ga2  1  0.50000000  0.65543899  0.85388880  1
  Ga  Ga3  1  0.50000000  0.34456101  0.14611120  1
  Ga  Ga4  1  0.50000000  0.15543899  0.64611120  1
  Ga  Ga5  1  0.50000000  0.84456101  0.35388880  1
  Pd  Pd0  1  0.00000000  0.50000000  0.00000000  1
  Pd  Pd1  1  0.00000000  -0.00000000  0.50000000  1
  Pd  Pd2  1  -0.00000000  0.90899662  0.76853741  1
  Pd  Pd3  1  0.00000000  0.09100338  0.23146259  1
  Pd  Pd4  1  0.00000000  0.40899662  0.73146259  1
  Pd  Pd5  1  0.00000000  0.59100338  0.26853741  1
  Pd  Pd6  1  0.50000000  0.69193274  0.60437518  1
  Pd  Pd7  1  0.50000000  0.30806726  0.39562482  1
  Pd  Pd8  1  0.50000000  0.19193274  0.89562482  1
  Pd  Pd9  1  0.50000000  0.80806726  0.10437518  1
loop_
_geom_bond_atom_site_label_1
_geom_bond_atom_site_label_2
_geom_bond_distance
_geom_bond_site_symmetry_2
Ga0 Pd3 2.511283 1_555
Ga0 Pd2 2.511283 1_544
Ga0 Pd9 2.522949 1_545
Ga0 Pd8 2.522949 1_454
Ga0 Pd9 2.522949 1_445
Ga0 Pd8 2.522949 1_554
Ga0 Pd0 2.736922 1_545
Ga0 Pd0 2.736922 1_555
Ga1 Pd5 2.511283 1_555
Ga1 Pd4 2.511283 1_555
Ga1 Pd7 2.522949 1_555
Ga1 Pd7 2.522949 1_455
Ga1 Pd6 2.522949 1_455
Ga1 Pd6 2.522949 1_555
Ga1 Pd1 2.736922 1_555
Ga1 Pd1 2.736922 1_565
Ga2 Pd8 2.575687 1_555
Ga2 Pd2 2.603786 1_555
Ga2 Pd2 2.603786 1_655
Ga2 Pd6 2.660846 1_555
Ga2 Pd0 2.677244 1_556
Ga2 Pd0 2.677244 1_656
Ga2 Pd4 2.746674 1_655
Ga2 Pd4 2.746674 1_555
Ga2 Pd9 2.791630 1_556
Ga2 Pd8 2.970032 1_565
Ga3 Pd9 2.575687 1_555
Ga3 Pd3 2.603786 1_555
Ga3 Pd3 2.603786 1_655
Ga3 Pd7 2.660846 1_555
Ga3 Pd0 2.677244 1_655
Ga3 Pd0 2.677244 1_555
Ga3 Pd5 2.746674 1_555
Ga3 Pd5 2.746674 1_655
Ga3 Pd8 2.791630 1_554
Ga3 Pd9 2.970032 1_545
Ga4 Pd6 2.575687 1_545
Ga4 Pd4 2.603786 1_555
Ga4 Pd4 2.603786 1_655
Ga4 Pd8 2.660846 1_555
Ga4 Pd1 2.677244 1_555
Ga4 Pd1 2.677244 1_655
Ga4 Pd2 2.746674 1_545
Ga4 Pd2 2.746674 1_645
Ga4 Pd7 2.791630 1_555
Ga4 Pd6 2.970032 1_555
Ga5 Pd7 2.575687 1_565
Ga5 Pd5 2.603786 1_655
Ga5 Pd5 2.603786 1_555
Ga5 Pd9 2.660846 1_555
Ga5 Pd1 2.677244 1_665
Ga5 Pd1 2.677244 1_565
Ga5 Pd3 2.746674 1_565
Ga5 Pd3 2.746674 1_665
Ga5 Pd6 2.791630 1_555
Ga5 Pd7 2.970032 1_555
