# generated using pymatgen
data_Th2CoB10
_symmetry_space_group_name_H-M   'P 1'
_cell_length_a   4.17950791
_cell_length_b   5.61482690
_cell_length_c   11.20433575
_cell_angle_alpha   90.00000429
_cell_angle_beta   89.99999884
_cell_angle_gamma   89.99999860
_symmetry_Int_Tables_number   1
_chemical_formula_structural   Th2CoB10
_chemical_formula_sum   'Th4 Co2 B20'
_cell_volume   262.93453852
_cell_formula_units_Z   2
loop_
 _symmetry_equiv_pos_site_id
 _symmetry_equiv_pos_as_xyz
  1  'x, y, z'
loop_
 _atom_site_type_symbol
 _atom_site_label
 _atom_site_symmetry_multiplicity
 _atom_site_fract_x
 _atom_site_fract_y
 _atom_site_fract_z
 _atom_site_occupancy
  Th  Th0  1  0.49999998  0.30137432  0.86574726  1
  Th  Th1  1  0.49999994  0.69862884  0.13430356  1
  Th  Th2  1  0.50000008  0.80137987  0.63422335  1
  Th  Th3  1  0.50000010  0.19862371  0.36572558  1
  Co  Co0  1  -0.00000002  0.49999152  0.49998428  1
  Co  Co1  1  -0.00000011  -0.00000869  1.00001561  1
  B  B0  1  0.00000006  0.12768841  0.53995699  1
  B  B1  1  0.00000001  0.87231309  0.46002690  1
  B  B2  1  -0.00000000  0.62769079  0.96004246  1
  B  B3  1  -0.00000003  0.37231092  0.03997438  1
  B  B4  1  -0.00000000  0.15326803  0.69705842  1
  B  B5  1  0.00000005  0.84673395  0.30293753  1
  B  B6  1  0.29965644  0.20004330  0.11304904  1
  B  B7  1  0.29965748  0.79995881  0.88696241  1
  B  B8  1  0.70034289  0.70004565  0.38695404  1
  B  B9  1  0.70034133  0.29995603  0.61303444  1
  B  B10  1  0.70034238  0.79995886  0.88696243  1
  B  B11  1  0.70034348  0.20004332  0.11304907  1
  B  B12  1  0.29965869  0.29995601  0.61303444  1
  B  B13  1  0.29965713  0.70004565  0.38695405  1
  B  B14  1  0.00000003  0.03420679  0.18701929  1
  B  B15  1  -0.00000000  0.96579127  0.81298875  1
  B  B16  1  0.00000007  0.53421046  0.31298695  1
  B  B17  1  0.00000000  0.46578804  0.68700483  1
  B  B18  1  -0.00000003  0.34673346  0.19706990  1
  B  B19  1  0.00000004  0.65326858  0.80293403  1
loop_
_geom_bond_atom_site_label_1
_geom_bond_atom_site_label_2
_geom_bond_distance
_geom_bond_site_symmetry_2
Co0 Th2 3.081063 1_455
Co0 Th2 3.081064 1_555
Co0 Th3 3.081108 1_455
Co0 Th3 3.081108 1_555
Co1 Th0 3.081207 1_455
Co1 Th0 3.081208 1_555
Co1 Th1 3.081251 1_446
Co1 Th1 3.081252 1_546
B0 B1 1.690583 1_545
B0 B4 1.766067 1_555
B0 B12 1.781728 1_555
B0 B9 1.781729 1_455
B0 Co0 2.137857 1_555
B0 Th3 2.887314 1_455
B0 Th3 2.887315 1_555
B0 Th2 2.973120 1_445
B0 Th2 2.973121 1_545
B1 B5 1.765932 1_555
B1 B13 1.781700 1_555
B1 B8 1.781700 1_455
B1 Co0 2.137922 1_555
B1 Th2 2.887048 1_455
B1 Th2 2.887048 1_555
B1 Th3 2.973267 1_465
B1 Th3 2.973267 1_565
B2 B3 1.690615 1_556
B2 B7 1.781740 1_555
B2 Co1 2.137843 1_565
B2 Th1 2.887541 1_556
B2 Th1 2.887542 1_456
B2 Th0 2.973263 1_555
B2 Th0 2.973263 1_455
B3 B6 1.781708 1_555
B3 Co1 2.137914 1_554
B3 Th0 2.887283 1_554
B3 Th0 2.887283 1_454
B3 Th1 2.973403 1_555
B3 Th1 2.973403 1_455
B4 B9 1.770093 1_455
B4 Th0 2.937838 1_555
B4 Th0 2.937838 1_455
B4 Th2 2.960823 1_445
B4 Th2 2.960823 1_545
B5 B8 1.770045 1_455
B5 Th1 2.937440 1_555
B5 Th1 2.937441 1_455
B5 Th3 2.960704 1_465
B5 Th3 2.960704 1_565
B6 Co1 2.105751 1_554
B6 Th1 2.931704 1_555
B6 Th1 2.946875 1_545
B6 Th0 2.949994 1_554
B6 Th3 2.952316 1_555
B7 Co1 2.105828 1_565
B7 Th0 2.931661 1_555
B7 Th0 2.946844 1_565
B7 Th1 2.950406 1_556
B7 Th2 2.952987 1_555
B8 Co0 2.105737 1_655
B8 Th3 2.931639 1_565
B8 Th3 2.946891 1_555
B8 Th2 2.949655 1_555
B8 Th1 2.952035 1_555
B9 Co0 2.105820 1_655
B9 Th2 2.931591 1_545
B9 Th2 2.946863 1_555
B9 Th3 2.950068 1_555
B9 Th0 2.952703 1_555
B10 B7 1.674666 1_555
B10 B15 1.767059 1_655
B10 B19 1.770122 1_655
B10 B2 1.781740 1_655
B10 Co1 2.105828 1_665
B10 Th0 2.931661 1_555
B10 Th0 2.946843 1_565
B10 Th1 2.950406 1_556
B10 Th2 2.952987 1_555
B11 B6 1.674675 1_555
B11 B14 1.767050 1_655
B11 B18 1.770073 1_655
B11 B3 1.781708 1_655
B11 Co1 2.105751 1_654
B11 Th1 2.931704 1_555
B11 Th1 2.946875 1_545
B11 Th0 2.949995 1_554
B11 Th3 2.952316 1_555
B12 B9 1.674656 1_555
B12 B17 1.767043 1_555
B12 B4 1.770093 1_555
B12 Co0 2.105820 1_555
B12 Th2 2.931591 1_545
B12 Th2 2.946864 1_555
B12 Th3 2.950068 1_555
B12 Th0 2.952703 1_555
B13 B8 1.674669 1_555
B13 B16 1.767031 1_555
B13 B5 1.770045 1_555
B13 Co0 2.105737 1_555
B13 Th3 2.931639 1_565
B13 Th3 2.946891 1_555
B13 Th2 2.949655 1_555
B13 Th1 2.952035 1_555
B14 B5 1.671787 1_545
B14 B18 1.758393 1_555
B14 B6 1.767049 1_555
B14 Co1 2.104041 1_554
B14 Th1 2.875098 1_545
B14 Th1 2.875098 1_445
B14 Th3 3.037839 1_455
B14 Th3 3.037839 1_555
B15 B4 1.671906 1_565
B15 B19 1.758373 1_555
B15 B7 1.767058 1_555
B15 Co1 2.104292 1_565
B15 Th0 2.875215 1_565
B15 Th0 2.875215 1_465
B15 Th2 3.038266 1_455
B15 Th2 3.038266 1_555
B16 B18 1.671791 1_555
B16 B5 1.758374 1_555
B16 B8 1.767031 1_455
B16 Co0 2.103972 1_555
B16 Th3 2.875183 1_455
B16 Th3 2.875183 1_555
B16 Th1 3.037672 1_555
B16 Th1 3.037673 1_455
B17 B19 1.671910 1_555
B17 B4 1.758358 1_555
B17 B9 1.767043 1_455
B17 Co0 2.104223 1_555
B17 Th2 2.875300 1_455
B17 Th2 2.875301 1_555
B17 Th0 3.038100 1_555
B17 Th0 3.038100 1_455
B18 B3 1.766000 1_555
B18 B6 1.770073 1_555
B18 Th3 2.937604 1_455
B18 Th3 2.937605 1_555
B18 Th1 2.960667 1_555
B18 Th1 2.960667 1_455
B19 B2 1.766144 1_555
B19 B7 1.770121 1_555
B19 Th2 2.938003 1_455
B19 Th2 2.938003 1_555
B19 Th0 2.960788 1_555
B19 Th0 2.960788 1_455
