# generated using pymatgen
data_Na14Hf4Si11Ge4SO48
_symmetry_space_group_name_H-M   'P 1'
_cell_length_a   17.91588593
_cell_length_b   8.94198322
_cell_length_c   22.25352154
_cell_angle_alpha   89.97985850
_cell_angle_beta   90.18075098
_cell_angle_gamma   120.00781500
_symmetry_Int_Tables_number   1
_chemical_formula_structural   Na14Hf4Si11Ge4SO48
_chemical_formula_sum   'Na42 Hf12 Si33 Ge12 S3 O144'
_cell_volume   3087.19964219
_cell_formula_units_Z   3
loop_
 _symmetry_equiv_pos_site_id
 _symmetry_equiv_pos_as_xyz
  1  'x, y, z'
loop_
 _atom_site_type_symbol
 _atom_site_label
 _atom_site_symmetry_multiplicity
 _atom_site_fract_x
 _atom_site_fract_y
 _atom_site_fract_z
 _atom_site_occupancy
  Na  Na0  1  0.31936997  0.00035040  0.25002708  1
  Na  Na1  1  0.81919452  0.99977495  0.25002421  1
  Na  Na2  1  0.31848689  0.63587153  0.74949988  1
  Na  Na3  1  0.81616653  0.63177294  0.74970060  1
  Na  Na4  1  0.49891746  0.36638416  0.74952657  1
  Na  Na5  1  0.68402336  0.00047916  0.74960253  1
  Na  Na6  1  0.15122503  0.33453076  0.58216446  1
  Na  Na7  1  0.64883815  0.33083079  0.58497249  1
  Na  Na8  1  0.01868537  0.69992978  0.58359080  1
  Na  Na9  1  0.51511987  0.70034218  0.58419493  1
  Na  Na10  1  0.33246494  0.96117310  0.58357242  1
  Na  Na11  1  0.83374269  0.97159327  0.58437000  1
  Na  Na12  1  0.15131327  0.96967498  0.08311593  1
  Na  Na13  1  0.65011227  0.96814888  0.08339411  1
  Na  Na14  1  0.33279375  0.69795966  0.08416543  1
  Na  Na15  1  0.83292382  0.69659197  0.08463766  1
  Na  Na16  1  0.01687302  0.33449166  0.08442219  1
  Na  Na17  1  0.51577282  0.33466607  0.08431362  1
  Na  Na18  1  0.48266447  0.66541712  0.91645726  1
  Na  Na19  1  0.98557878  0.66682657  0.91548849  1
  Na  Na20  1  0.34920292  0.03172947  0.91624773  1
  Na  Na21  1  0.84871948  0.03214923  0.91560467  1
  Na  Na22  1  0.16799094  0.30393056  0.91778993  1
  Na  Na23  1  0.66464687  0.29939862  0.91529570  1
  Na  Na24  1  0.48224677  0.30184710  0.41655254  1
  Na  Na25  1  0.98538325  0.30384857  0.41567473  1
  Na  Na26  1  0.16774773  0.03471793  0.41796632  1
  Na  Na27  1  0.66534128  0.02823809  0.41665500  1
  Na  Na28  1  0.34823795  0.66346518  0.41682739  1
  Na  Na29  1  0.84942594  0.66540125  0.41536878  1
  Na  Na30  1  0.00074723  0.00029826  0.50004097  1
  Na  Na31  1  0.49976094  0.99924268  0.50109110  1
  Na  Na32  1  0.00071258  0.00126340  0.00013769  1
  Na  Na33  1  0.49995645  0.99984347  0.99886439  1
  Na  Na34  1  0.33223281  0.32746116  0.83323974  1
  Na  Na35  1  0.83678852  0.33429074  0.83202787  1
  Na  Na36  1  0.33650625  0.34396409  0.33377736  1
  Na  Na37  1  0.83690675  0.34474100  0.33251671  1
  Na  Na38  1  0.16475653  0.65546334  0.16755845  1
  Na  Na39  1  0.66437764  0.65546681  0.16763092  1
  Na  Na40  1  0.16452339  0.67343845  0.66624243  1
  Na  Na41  1  0.66671341  0.66664570  0.66652235  1
  Hf  Hf0  1  0.83932675  0.33662752  0.68878598  1
  Hf  Hf1  1  0.33883848  0.34737434  0.18817952  1
  Hf  Hf2  1  0.83873113  0.34733915  0.18849936  1
  Hf  Hf3  1  0.83296516  0.33353571  0.98294358  1
  Hf  Hf4  1  0.83399844  0.33271472  0.48281623  1
  Hf  Hf5  1  0.16696890  0.66594551  0.01687509  1
  Hf  Hf6  1  0.66588117  0.66585411  0.01747233  1
  Hf  Hf7  1  0.66472166  0.66489175  0.51747530  1
  Hf  Hf8  1  0.16644575  0.65273947  0.31323243  1
  Hf  Hf9  1  0.66354572  0.65273427  0.31216422  1
  Hf  Hf10  1  0.16645359  0.67915061  0.81320814  1
  Hf  Hf11  1  0.66507831  0.66488422  0.81241276  1
  Si  Si0  1  0.36062051  0.71941590  0.25022561  1
  Si  Si1  1  0.86028051  0.71940452  0.25060200  1
  Si  Si2  1  0.00161621  0.28134653  0.24984238  1
  Si  Si3  1  0.50084047  0.28018268  0.24970918  1
  Si  Si4  1  0.63959342  0.27786398  0.74965993  1
  Si  Si5  1  0.00298983  0.72411664  0.74978466  1
  Si  Si6  1  0.49535998  0.71189453  0.74764129  1
  Si  Si7  1  0.35772695  0.00540126  0.74733946  1
  Si  Si8  1  0.86197204  0.00310899  0.75016455  1
  Si  Si9  1  0.47481652  0.32707171  0.58371766  1
  Si  Si10  1  0.98547319  0.33451091  0.58351257  1
  Si  Si11  1  0.19051694  0.04751126  0.58383467  1
  Si  Si12  1  0.68256850  0.03901735  0.58603848  1
  Si  Si13  1  0.33281326  0.61786341  0.58404156  1
  Si  Si14  1  0.83469986  0.63075592  0.58533041  1
  Si  Si15  1  0.47788753  0.62833291  0.08243765  1
  Si  Si16  1  0.98224265  0.63656629  0.08507964  1
  Si  Si17  1  0.33356105  0.04757981  0.08348974  1
  Si  Si18  1  0.83418119  0.03956709  0.08625947  1
  Si  Si19  1  0.18716910  0.32756489  0.08343953  1
  Si  Si20  1  0.68265009  0.32572774  0.08615887  1
  Si  Si21  1  0.31634996  0.66576439  0.91510478  1
  Si  Si22  1  0.81555004  0.66930008  0.91522722  1
  Si  Si23  1  0.01954634  0.36598013  0.91383869  1
  Si  Si24  1  0.51517592  0.36428923  0.91624685  1
  Si  Si25  1  0.16689904  0.96984735  0.91712030  1
  Si  Si26  1  0.66320223  0.96245555  0.91432937  1
  Si  Si27  1  0.30990689  0.95897312  0.41866782  1
  Si  Si28  1  0.81429221  0.95969284  0.41408038  1
  Si  Si29  1  0.16722979  0.37175854  0.41970669  1
  Si  Si30  1  0.66337439  0.36308066  0.41507683  1
  Si  Si31  1  0.02390623  0.67321456  0.41653298  1
  Si  Si32  1  0.51590072  0.66662650  0.41569211  1
  Ge  Ge0  1  0.99323233  0.99662892  0.35520406  1
  Ge  Ge1  1  0.48972428  0.99486341  0.35588742  1
  Ge  Ge2  1  0.99357342  0.98954108  0.85476735  1
  Ge  Ge3  1  0.49755436  0.99819460  0.85088718  1
  Ge  Ge4  1  0.99651768  0.98778198  0.64528277  1
  Ge  Ge5  1  0.49830817  0.99851590  0.64773340  1
  Ge  Ge6  1  0.99474084  0.00404538  0.14533042  1
  Ge  Ge7  1  0.49275131  0.00370657  0.14432230  1
  Ge  Ge8  1  0.33793637  0.32963983  0.68160130  1
  Ge  Ge9  1  0.33300063  0.33451504  0.98196020  1
  Ge  Ge10  1  0.33246616  0.33264199  0.48255172  1
  Ge  Ge11  1  0.16714004  0.66716257  0.51840227  1
  S  S0  1  0.14212450  0.99975796  0.25020747  1
  S  S1  1  0.64195581  0.00015176  0.24999262  1
  S  S2  1  0.14477909  0.28511322  0.74928723  1
  O  O0  1  0.10386169  0.02707842  0.30526925  1
  O  O1  1  0.60390972  0.02656340  0.30502613  1
  O  O2  1  0.41847274  0.80606555  0.31117605  1
  O  O3  1  0.91906147  0.80614744  0.31151079  1
  O  O4  1  0.48333740  0.15925391  0.31025852  1
  O  O5  1  0.98417683  0.15978453  0.31028976  1
  O  O6  1  0.10590491  0.18173783  0.80441503  1
  O  O7  1  0.59704564  0.15852314  0.80988270  1
  O  O8  1  0.47854304  0.79566455  0.80841241  1
  O  O9  1  0.98416567  0.80852968  0.81003207  1
  O  O10  1  0.41803157  0.04313712  0.80820265  1
  O  O11  1  0.91903764  0.03094993  0.81105449  1
  O  O12  1  0.40105807  0.96575615  0.68887110  1
  O  O13  1  0.90394700  0.96666752  0.68990265  1
  O  O14  1  0.09121066  0.20830830  0.69431083  1
  O  O15  1  0.57929317  0.19589588  0.68947034  1
  O  O16  1  0.01671107  0.83900100  0.68877025  1
  O  O17  1  0.51700226  0.83763701  0.68917187  1
  O  O18  1  0.40355562  0.84004892  0.18960086  1
  O  O19  1  0.90365151  0.84003144  0.19015721  1
  O  O20  1  0.01629193  0.19470401  0.18881847  1
  O  O21  1  0.51564899  0.19386375  0.18887365  1
  O  O22  1  0.09026627  0.97287178  0.19498031  1
  O  O23  1  0.59033426  0.97306478  0.19474135  1
  O  O24  1  0.43591013  0.37370005  0.64293347  1
  O  O25  1  0.94100527  0.37737194  0.63900871  1
  O  O26  1  0.25499465  0.13662608  0.64157539  1
  O  O27  1  0.74698867  0.12540245  0.64297960  1
  O  O28  1  0.31290199  0.49165692  0.64367137  1
  O  O29  1  0.81508327  0.50683774  0.64299552  1
  O  O30  1  0.43724229  0.50125478  0.13940601  1
  O  O31  1  0.93774815  0.50294506  0.14000307  1
  O  O32  1  0.31413255  0.12496862  0.14313169  1
  O  O33  1  0.81432657  0.12337926  0.14394498  1
  O  O34  1  0.25002325  0.36788910  0.14030488  1
  O  O35  1  0.74903000  0.36701450  0.14100328  1
  O  O36  1  0.22997889  0.29082039  0.02325959  1
  O  O37  1  0.72270632  0.28767272  0.02553990  1
  O  O38  1  0.41523252  0.54099276  0.02317050  1
  O  O39  1  0.92124843  0.55670746  0.02531705  1
  O  O40  1  0.35332105  0.17217583  0.02398177  1
  O  O41  1  0.85455852  0.15951073  0.02627971  1
  O  O42  1  0.23102040  0.17011235  0.52404583  1
  O  O43  1  0.72447888  0.15870472  0.52607099  1
  O  O44  1  0.35293278  0.53392920  0.52465609  1
  O  O45  1  0.85467372  0.55068515  0.52564650  1
  O  O46  1  0.41351907  0.29223095  0.52434733  1
  O  O47  1  0.92258075  0.28750443  0.52483682  1
  O  O48  1  0.27542953  0.70872135  0.97383794  1
  O  O49  1  0.77513536  0.70992701  0.97433056  1
  O  O50  1  0.07845669  0.44521570  0.97460207  1
  O  O51  1  0.57855987  0.44821833  0.97444215  1
  O  O52  1  0.14378247  0.84335677  0.97533726  1
  O  O53  1  0.64526087  0.84167198  0.97388349  1
  O  O54  1  0.26749379  0.82860311  0.47692353  1
  O  O55  1  0.77387710  0.83888440  0.47379448  1
  O  O56  1  0.14566549  0.45940431  0.47740341  1
  O  O57  1  0.64303773  0.44356299  0.47484738  1
  O  O58  1  0.08505018  0.70936439  0.47714986  1
  O  O59  1  0.57776833  0.71065361  0.47503868  1
  O  O60  1  0.06672751  0.63220760  0.35998754  1
  O  O61  1  0.56172233  0.62654440  0.36034085  1
  O  O62  1  0.25217779  0.88119716  0.35837931  1
  O  O63  1  0.75228402  0.87628804  0.35619663  1
  O  O64  1  0.18925810  0.49782400  0.36198287  1
  O  O65  1  0.68587916  0.49712847  0.36015047  1
  O  O66  1  0.06548653  0.49909029  0.85911657  1
  O  O67  1  0.55822162  0.49141236  0.85841741  1
  O  O68  1  0.18887711  0.88165740  0.86116699  1
  O  O69  1  0.68441968  0.87673301  0.85709721  1
  O  O70  1  0.25308342  0.62324750  0.85719637  1
  O  O71  1  0.75337883  0.63043414  0.85729640  1
  O  O72  1  0.01496329  0.84893688  0.40916196  1
  O  O73  1  0.50982021  0.84480026  0.40759181  1
  O  O74  1  0.40655504  0.97653186  0.41282663  1
  O  O75  1  0.91080814  0.97736247  0.41057598  1
  O  O76  1  0.08037174  0.17988790  0.40889971  1
  O  O77  1  0.57641501  0.17136144  0.40611639  1
  O  O78  1  0.01283021  0.17569810  0.90676693  1
  O  O79  1  0.50869321  0.17527844  0.90857255  1
  O  O80  1  0.07993379  0.98555924  0.90632009  1
  O  O81  1  0.57574962  0.97670879  0.90799172  1
  O  O82  1  0.41103024  0.84204777  0.90781298  1
  O  O83  1  0.91132942  0.84408259  0.91060234  1
  O  O84  1  0.48452546  0.15406053  0.59003836  1
  O  O85  1  0.99381857  0.15971264  0.59369275  1
  O  O86  1  0.09369900  0.02804185  0.59175935  1
  O  O87  1  0.58680962  0.02261558  0.59118083  1
  O  O88  1  0.41899460  0.81163105  0.59076785  1
  O  O89  1  0.92298324  0.82335300  0.58935999  1
  O  O90  1  0.48792420  0.82141082  0.09165195  1
  O  O91  1  0.99094702  0.82766720  0.09421184  1
  O  O92  1  0.42078636  0.02753988  0.08775696  1
  O  O93  1  0.92213285  0.02341652  0.08969396  1
  O  O94  1  0.09067686  0.15281734  0.09065283  1
  O  O95  1  0.58716656  0.14889065  0.09291409  1
  O  O96  1  0.34941715  0.18261530  0.74101580  1
  O  O97  1  0.84558341  0.16585820  0.74754694  1
  O  O98  1  0.23271372  0.30703369  0.74472476  1
  O  O99  1  0.73621116  0.30218493  0.74655118  1
  O  O100  1  0.40781594  0.51559032  0.74177775  1
  O  O101  1  0.91398515  0.53663518  0.74669523  1
  O  O102  1  0.34700782  0.52640185  0.24794703  1
  O  O103  1  0.84696259  0.52621826  0.24801237  1
  O  O104  1  0.41134385  0.28845843  0.24705699  1
  O  O105  1  0.91177184  0.28850981  0.24703031  1
  O  O106  1  0.23020597  0.15353438  0.24596148  1
  O  O107  1  0.73049743  0.15355003  0.24579309  1
  O  O108  1  0.32354526  0.49045967  0.92460096  1
  O  O109  1  0.82486749  0.49875029  0.92079510  1
  O  O110  1  0.42111414  0.35209308  0.92486285  1
  O  O111  1  0.92513516  0.34852377  0.92112662  1
  O  O112  1  0.25467277  0.15819519  0.92490463  1
  O  O113  1  0.75010904  0.15026729  0.92105089  1
  O  O114  1  0.32194720  0.15336209  0.42646410  1
  O  O115  1  0.82491772  0.15044647  0.42060330  1
  O  O116  1  0.25384628  0.35346466  0.42664747  1
  O  O117  1  0.74987514  0.34809084  0.42121561  1
  O  O118  1  0.42118559  0.49149107  0.42473221  1
  O  O119  1  0.92799664  0.50399283  0.42293265  1
  O  O120  1  0.17641935  0.49796996  0.07731949  1
  O  O121  1  0.67417570  0.49778321  0.07920772  1
  O  O122  1  0.07600888  0.65143331  0.07898949  1
  O  O123  1  0.57313376  0.64894505  0.07698803  1
  O  O124  1  0.25030535  0.85410844  0.07720641  1
  O  O125  1  0.74937312  0.84904110  0.07940654  1
  O  O126  1  0.17990041  0.85309748  0.57622538  1
  O  O127  1  0.67485851  0.85015198  0.57920993  1
  O  O128  1  0.24670678  0.63989291  0.57632009  1
  O  O129  1  0.74921291  0.64971024  0.57903858  1
  O  O130  1  0.07991068  0.51146439  0.57513552  1
  O  O131  1  0.57034303  0.49832516  0.57876335  1
  O  O132  1  0.15360866  0.84604668  0.25451811  1
  O  O133  1  0.65352517  0.84609681  0.25419878  1
  O  O134  1  0.26723256  0.71228500  0.25354907  1
  O  O135  1  0.76649018  0.71088888  0.25369236  1
  O  O136  1  0.08466326  0.47473171  0.25301061  1
  O  O137  1  0.58371722  0.47358856  0.25219836  1
  O  O138  1  0.15543493  0.46186821  0.75384286  1
  O  O139  1  0.65019944  0.47095236  0.75328955  1
  O  O140  1  0.08568411  0.69639787  0.75307796  1
  O  O141  1  0.58095794  0.69059648  0.75278717  1
  O  O142  1  0.26533780  0.82660278  0.75302051  1
  O  O143  1  0.76510054  0.82935954  0.75351731  1
loop_
_geom_bond_atom_site_label_1
_geom_bond_atom_site_label_2
_geom_bond_distance
_geom_bond_site_symmetry_2
Na0 O134 2.259968 1_545
Na0 O104 2.260778 1_555
Na0 O106 2.573706 1_555
Na0 O132 2.576131 1_545
Na0 O32 2.647743 1_555
Na0 O62 2.670568 1_545
Na0 O4 2.871688 1_555
Na0 O18 2.883462 1_545
Na1 O135 2.265355 1_555
Na1 O105 2.266869 1_565
Na1 O107 2.570875 1_565
Na1 O133 2.574618 1_555
Na1 O33 2.625854 1_565
Na1 O63 2.632633 1_555
Na1 O19 2.877633 1_555
Na1 O5 2.885957 1_565
Na2 O142 2.333794 1_555
Na2 O100 2.339070 1_555
Na2 O138 2.533609 1_555
Na2 O98 2.549230 1_555
Na2 O70 2.648548 1_555
Na2 O28 2.662868 1_555
Na2 O8 2.804020 1_555
Na2 O12 2.890541 1_555
Na3 O101 2.300327 1_555
Na3 O143 2.362902 1_555
Na3 O99 2.553327 1_555
Na3 O139 2.576858 1_555
Na3 O29 2.620474 1_555
Na3 O71 2.646152 1_555
Na3 O13 2.917463 1_555
Na3 O9 2.928745 1_555
Na4 O96 2.346227 1_555
Na4 O139 2.385591 1_555
Na4 O141 2.511520 1_555
Na4 O100 2.578758 1_555
Na4 O24 2.638584 1_555
Na4 O67 2.654853 1_555
Na4 O10 2.824784 1_555
Na4 O15 2.897107 1_555
Na5 O99 2.373692 1_555
Na5 O141 2.444531 1_545
Na5 O97 2.507275 1_555
Na5 O143 2.584799 1_545
Na5 O27 2.627709 1_555
Na5 O69 2.636792 1_545
Na5 O7 2.905543 1_555
Na5 O17 2.915573 1_545
Na6 O128 2.393354 1_555
Na6 O86 2.407182 1_555
Na6 O85 2.461127 1_455
Na6 O130 2.486064 1_555
Na6 O56 2.607619 1_555
Na6 O14 2.731184 1_555
Na6 O42 2.827263 1_555
Na6 O28 2.853659 1_555
Na7 O87 2.405637 1_555
Na7 O129 2.500842 1_555
Na7 O131 2.519008 1_555
Na7 O84 2.554391 1_555
Na7 O15 2.632215 1_555
Na7 O57 2.670991 1_555
Na7 O43 2.832402 1_555
Na7 O29 2.881621 1_555
Na8 O130 2.434998 1_555
Na8 O89 2.463448 1_455
Na8 O126 2.508200 1_555
Na8 O86 2.549948 1_565
Na8 O58 2.636052 1_555
Na8 O16 2.659466 1_555
Na8 O25 2.787514 1_455
Na8 O45 2.851831 1_455
Na9 O88 2.386100 1_555
Na9 O131 2.458705 1_555
Na9 O127 2.482805 1_555
Na9 O87 2.505047 1_565
Na9 O17 2.631702 1_555
Na9 O59 2.661278 1_555
Na9 O44 2.839935 1_555
Na9 O24 2.848998 1_555
Na10 O84 2.390640 1_565
Na10 O126 2.405601 1_555
Na10 O128 2.494765 1_555
Na10 O88 2.507752 1_555
Na10 O12 2.633308 1_555
Na10 O54 2.645216 1_555
Na10 O26 2.871362 1_565
Na10 O46 2.884221 1_565
Na11 O127 2.490266 1_555
Na11 O129 2.496229 1_555
Na11 O85 2.503726 1_565
Na11 O89 2.538562 1_555
Na11 O13 2.671322 1_555
Na11 O55 2.706643 1_555
Na11 O47 2.789587 1_565
Na11 O27 2.856702 1_565
Na12 O94 2.381397 1_565
Na12 O124 2.462796 1_555
Na12 O122 2.466965 1_555
Na12 O91 2.506632 1_455
Na12 O52 2.625656 1_554
Na12 O22 2.728098 1_555
Na12 O36 2.822775 1_565
Na12 O32 2.854167 1_565
Na13 O95 2.398650 1_565
Na13 O123 2.476102 1_555
Na13 O125 2.490039 1_555
Na13 O90 2.527525 1_555
Na13 O53 2.669802 1_554
Na13 O23 2.711579 1_555
Na13 O37 2.793498 1_565
Na13 O33 2.879169 1_565
Na14 O90 2.428842 1_555
Na14 O120 2.460966 1_555
Na14 O124 2.493996 1_555
Na14 O92 2.555250 1_565
Na14 O18 2.664374 1_555
Na14 O48 2.678845 1_554
Na14 O38 2.842788 1_555
Na14 O34 2.846457 1_555
Na15 O91 2.472190 1_555
Na15 O125 2.480392 1_555
Na15 O121 2.490911 1_555
Na15 O93 2.536732 1_565
Na15 O19 2.668791 1_555
Na15 O49 2.686825 1_554
Na15 O39 2.793824 1_555
Na15 O35 2.845420 1_555
Na16 O93 2.431200 1_455
Na16 O120 2.481057 1_555
Na16 O122 2.483217 1_555
Na16 O94 2.560066 1_555
Na16 O20 2.635306 1_555
Na16 O50 2.663239 1_554
Na16 O31 2.820742 1_455
Na16 O41 2.829373 1_455
Na17 O92 2.402107 1_555
Na17 O121 2.460853 1_555
Na17 O123 2.468269 1_555
Na17 O95 2.560433 1_555
Na17 O21 2.644717 1_555
Na17 O51 2.673514 1_554
Na17 O30 2.794650 1_555
Na17 O40 2.851561 1_555
Na18 O81 2.433786 1_555
Na18 O110 2.451812 1_555
Na18 O108 2.479783 1_555
Na18 O82 2.490868 1_555
Na18 O38 2.647376 1_556
Na18 O8 2.688099 1_555
Na18 O53 2.826426 1_555
Na18 O67 2.835630 1_555
Na19 O80 2.490985 1_655
Na19 O111 2.491438 1_555
Na19 O109 2.497331 1_555
Na19 O83 2.530136 1_555
Na19 O9 2.672673 1_555
Na19 O39 2.674389 1_556
Na19 O52 2.793143 1_655
Na19 O66 2.834318 1_655
Na20 O82 2.453536 1_545
Na20 O112 2.470236 1_555
Na20 O79 2.485131 1_555
Na20 O110 2.492040 1_555
Na20 O10 2.684173 1_555
Na20 O40 2.690501 1_556
Na20 O68 2.770790 1_545
Na20 O48 2.814514 1_545
Na21 O83 2.446721 1_545
Na21 O111 2.453147 1_555
Na21 O113 2.473733 1_555
Na21 O78 2.561165 1_655
Na21 O11 2.651863 1_555
Na21 O41 2.693522 1_556
Na21 O49 2.820746 1_545
Na21 O69 2.859464 1_545
Na22 O78 2.431077 1_555
Na22 O108 2.433067 1_555
Na22 O112 2.481456 1_555
Na22 O80 2.482809 1_545
Na22 O36 2.620961 1_556
Na22 O6 2.750489 1_555
Na22 O50 2.794373 1_555
Na22 O70 2.819844 1_555
Na23 O79 2.440617 1_555
Na23 O113 2.485960 1_555
Na23 O81 2.508194 1_545
Na23 O109 2.512402 1_555
Na23 O7 2.648519 1_555
Na23 O37 2.684135 1_556
Na23 O51 2.819403 1_555
Na23 O71 2.873805 1_555
Na24 O118 2.441855 1_555
Na24 O77 2.496665 1_555
Na24 O114 2.499829 1_555
Na24 O74 2.522228 1_545
Na24 O46 2.681498 1_555
Na24 O4 2.692341 1_555
Na24 O61 2.809932 1_555
Na24 O57 2.813088 1_555
Na25 O76 2.456845 1_655
Na25 O119 2.475447 1_555
Na25 O115 2.493193 1_555
Na25 O75 2.533542 1_545
Na25 O47 2.653503 1_555
Na25 O5 2.670923 1_555
Na25 O60 2.830109 1_655
Na25 O56 2.837089 1_655
Na26 O72 2.395676 1_545
Na26 O114 2.420459 1_555
Na26 O116 2.478190 1_555
Na26 O76 2.491327 1_555
Na26 O42 2.633592 1_555
Na26 O0 2.740094 1_555
Na26 O62 2.832293 1_545
Na26 O58 2.844639 1_545
Na27 O73 2.433097 1_545
Na27 O117 2.480090 1_555
Na27 O115 2.499807 1_555
Na27 O77 2.503610 1_555
Na27 O43 2.676125 1_555
Na27 O1 2.710861 1_555
Na27 O59 2.787105 1_545
Na27 O63 2.866014 1_545
Na28 O116 2.429961 1_555
Na28 O74 2.451785 1_555
Na28 O118 2.472325 1_555
Na28 O73 2.521950 1_555
Na28 O2 2.673709 1_555
Na28 O44 2.683450 1_555
Na28 O64 2.748751 1_555
Na28 O54 2.865647 1_555
Na29 O75 2.436071 1_555
Na29 O119 2.474572 1_555
Na29 O117 2.487592 1_555
Na29 O72 2.577239 1_655
Na29 O3 2.632055 1_555
Na29 O45 2.678950 1_555
Na29 O65 2.815691 1_555
Na29 O55 2.835787 1_555
Na30 O89 2.491119 1_445
Na30 O75 2.500340 1_445
Na30 O72 2.517288 1_545
Na30 O76 2.540100 1_555
Na30 O86 2.562500 1_555
Na30 O85 2.563496 1_455
Na31 O87 2.479861 1_565
Na31 O84 2.508445 1_565
Na31 O74 2.515581 1_555
Na31 O88 2.545291 1_555
Na31 O73 2.553879 1_555
Na31 O77 2.573643 1_565
Na32 O83 2.498076 1_444
Na32 O94 2.507663 1_555
Na32 O93 2.507979 1_455
Na32 O78 2.541518 1_554
Na32 O91 2.559544 1_445
Na32 O80 2.571232 1_544
Na33 O81 2.504941 1_555
Na33 O79 2.505380 1_565
Na33 O92 2.521068 1_566
Na33 O82 2.523460 1_555
Na33 O95 2.548796 1_566
Na33 O90 2.551919 1_556
Na34 O112 2.508954 1_555
Na34 O110 2.523982 1_555
Na34 O96 2.527653 1_555
Na34 O108 2.552086 1_555
Na34 O100 2.557880 1_555
Na34 O98 2.597053 1_555
Na35 O97 2.463504 1_555
Na35 O111 2.496338 1_555
Na35 O101 2.510728 1_555
Na35 O99 2.531581 1_555
Na35 O109 2.535599 1_555
Na35 O113 2.550523 1_555
Na36 O102 2.457233 1_555
Na36 O118 2.473739 1_555
Na36 O104 2.539867 1_555
Na36 O116 2.572320 1_555
Na36 O114 2.604511 1_555
Na36 O106 2.660950 1_555
Na37 O103 2.430997 1_555
Na37 O105 2.522343 1_555
Na37 O117 2.528728 1_555
Na37 O119 2.529105 1_555
Na37 O115 2.556197 1_555
Na37 O107 2.645914 1_555
Na38 O136 2.445907 1_555
Na38 O134 2.517175 1_555
Na38 O122 2.517354 1_555
Na38 O120 2.521617 1_555
Na38 O124 2.615497 1_555
Na38 O132 2.652208 1_555
Na39 O137 2.437044 1_555
Na39 O121 2.478423 1_555
Na39 O135 2.516352 1_555
Na39 O125 2.559212 1_555
Na39 O123 2.574569 1_555
Na39 O133 2.644022 1_555
Na40 O140 2.465552 1_555
Na40 O126 2.495615 1_555
Na40 O130 2.508559 1_555
Na40 O142 2.524445 1_555
Na40 O128 2.592883 1_555
Na40 O138 2.664049 1_555
Na41 O129 2.497986 1_555
Na41 O127 2.499840 1_555
Na41 O139 2.522162 1_555
Na41 O143 2.527271 1_555
Na41 O141 2.537637 1_555
Na41 O131 2.538089 1_555
Hf0 O25 2.006695 1_555
Hf0 O29 2.049610 1_555
Hf0 O27 2.051500 1_555
Hf0 O97 2.055029 1_555
Hf0 O101 2.060678 1_555
Hf0 O99 2.146118 1_555
Hf1 O30 1.940139 1_555
Hf1 O34 1.995431 1_555
Hf1 O102 2.029553 1_555
Hf1 O32 2.067392 1_555
Hf1 O104 2.086846 1_555
Hf1 O106 2.255136 1_555
Hf2 O31 1.946753 1_555
Hf2 O35 2.000690 1_555
Hf2 O103 2.024484 1_555
Hf2 O33 2.075489 1_555
Hf2 O105 2.088780 1_555
Hf2 O107 2.245345 1_555
Hf3 O41 2.024839 1_556
Hf3 O37 2.042086 1_556
Hf3 O39 2.051355 1_556
Hf3 O109 2.080391 1_555
Hf3 O113 2.083662 1_555
Hf3 O111 2.104760 1_555
Hf4 O45 2.030156 1_555
Hf4 O43 2.038312 1_555
Hf4 O47 2.046615 1_555
Hf4 O115 2.081949 1_555
Hf4 O117 2.088939 1_555
Hf4 O119 2.095352 1_555
Hf5 O48 2.026696 1_554
Hf5 O50 2.038772 1_554
Hf5 O52 2.049245 1_554
Hf5 O124 2.083007 1_555
Hf5 O120 2.084607 1_555
Hf5 O122 2.094218 1_555
Hf6 O51 2.024424 1_554
Hf6 O53 2.031425 1_554
Hf6 O49 2.036758 1_554
Hf6 O123 2.073769 1_555
Hf6 O125 2.087599 1_555
Hf6 O121 2.094948 1_555
Hf7 O59 2.028355 1_555
Hf7 O55 2.039006 1_555
Hf7 O57 2.048820 1_555
Hf7 O127 2.088958 1_555
Hf7 O129 2.092618 1_555
Hf7 O131 2.105163 1_555
Hf8 O64 1.955847 1_555
Hf8 O60 1.997879 1_555
Hf8 O136 2.032928 1_555
Hf8 O134 2.088298 1_555
Hf8 O62 2.096439 1_555
Hf8 O132 2.267628 1_555
Hf9 O65 1.946696 1_555
Hf9 O137 2.022431 1_555
Hf9 O61 2.029038 1_555
Hf9 O63 2.072794 1_555
Hf9 O135 2.102498 1_555
Hf9 O133 2.234550 1_555
Hf10 O68 1.962263 1_555
Hf10 O66 2.001396 1_555
Hf10 O140 2.029570 1_555
Hf10 O142 2.085257 1_555
Hf10 O70 2.093580 1_555
Hf10 O138 2.275028 1_555
Hf11 O69 2.009976 1_555
Hf11 O71 2.018035 1_555
Hf11 O67 2.039664 1_555
Hf11 O139 2.084794 1_555
Hf11 O141 2.102035 1_555
Hf11 O143 2.114080 1_555
Ge0 O3 1.827976 1_555
Ge0 O5 1.840792 1_565
Ge0 O75 1.866966 1_555
Ge0 O72 1.961570 1_655
Ge0 O76 1.995280 1_665
Ge0 O0 2.170545 1_665
Ge1 O2 1.818578 1_555
Ge1 O4 1.836146 1_565
Ge1 O74 1.902660 1_555
Ge1 O77 1.921193 1_565
Ge1 O73 1.932264 1_555
Ge1 O1 2.231772 1_565
Ge2 O11 1.831046 1_565
Ge2 O9 1.834811 1_555
Ge2 O83 1.870886 1_555
Ge2 O78 1.911392 1_665
Ge2 O80 1.937828 1_655
Ge2 O6 2.193797 1_665
Ge3 O7 1.875770 1_565
Ge3 O10 1.912458 1_565
Ge3 O8 1.916095 1_555
Ge3 O82 1.950263 1_555
Ge3 O81 1.967798 1_555
Ge3 O79 1.969483 1_565
Ge4 O16 1.820905 1_655
Ge4 O13 1.862586 1_555
Ge4 O89 1.870732 1_555
Ge4 O85 1.938234 1_565
Ge4 O86 1.991360 1_665
Ge4 O14 2.144926 1_665
Ge5 O12 1.859819 1_555
Ge5 O17 1.873788 1_555
Ge5 O15 1.874608 1_565
Ge5 O87 1.953188 1_565
Ge5 O84 1.996054 1_565
Ge5 O88 2.008427 1_555
Ge6 O20 1.825540 1_655
Ge6 O19 1.850555 1_545
Ge6 O93 1.862835 1_555
Ge6 O91 1.918254 1_545
Ge6 O94 1.982288 1_655
Ge6 O22 2.166212 1_645
Ge7 O21 1.828501 1_555
Ge7 O18 1.838624 1_545
Ge7 O92 1.885918 1_555
Ge7 O95 1.915751 1_555
Ge7 O90 1.974380 1_545
Ge7 O23 2.203863 1_545
Ge8 O24 1.815015 1_555
Ge8 O26 1.846012 1_555
Ge8 O28 1.912905 1_555
Ge8 O96 1.945874 1_555
Ge8 O100 2.008547 1_555
Ge8 O98 2.281066 1_555
Ge9 O40 1.907812 1_556
Ge9 O38 1.921543 1_556
Ge9 O36 1.921758 1_556
Ge9 O108 1.958615 1_555
Ge9 O112 1.960695 1_555
Ge9 O110 1.973721 1_555
Ge10 O44 1.894969 1_555
Ge10 O46 1.902751 1_555
Ge10 O42 1.906753 1_555
Ge10 O116 1.953836 1_555
Ge10 O114 1.964970 1_555
Ge10 O118 1.988211 1_555
Ge11 O54 1.892609 1_555
Ge11 O58 1.922112 1_555
Ge11 O56 1.927643 1_555
Ge11 O130 1.951800 1_555
Ge11 O128 2.022030 1_555
Ge11 O126 2.022826 1_555
O0 S0 1.484599 1_545
O1 S1 1.478767 1_555
O2 Si0 1.644062 1_555
O3 Si1 1.650024 1_555
O4 Si3 1.657013 1_555
O5 Si2 1.658491 1_655
O6 S2 1.484990 1_555
O7 Si4 1.645511 1_555
O8 Si6 1.646151 1_555
O9 Si5 1.655054 1_655
O10 Si7 1.655910 1_555
O11 Si8 1.637137 1_555
O12 Si7 1.644154 1_565
O13 Si8 1.649813 1_565
O14 S2 1.491108 1_555
O15 Si4 1.642545 1_555
O16 Si5 1.645562 1_555
O17 Si6 1.635134 1_555
O18 Si0 1.658605 1_555
O19 Si1 1.656444 1_555
O20 Si2 1.649327 1_555
O21 Si3 1.645229 1_555
O22 S0 1.483584 1_555
O23 S1 1.481464 1_565
O24 Si9 1.641064 1_555
O25 Si10 1.618249 1_555
O26 Si11 1.640457 1_555
O27 Si12 1.622993 1_555
O28 Si13 1.661615 1_555
O29 Si14 1.615674 1_555
O30 Si15 1.614262 1_555
O31 Si16 1.615361 1_555
O32 Si17 1.614343 1_555
O33 Si18 1.614408 1_555
O34 Si19 1.607687 1_555
O35 Si20 1.610031 1_555
O36 Si19 1.657878 1_555
O37 Si20 1.643552 1_555
O38 Si15 1.650455 1_555
O39 Si16 1.638216 1_555
O40 Si17 1.651575 1_555
O41 Si18 1.635731 1_555
O42 Si11 1.645615 1_555
O43 Si12 1.640608 1_555
O44 Si13 1.647422 1_555
O45 Si14 1.632391 1_555
O46 Si9 1.642432 1_555
O47 Si10 1.633595 1_555
O48 Si21 1.637497 1_555
O49 Si22 1.629600 1_555
O50 Si23 1.639536 1_555
O51 Si24 1.633675 1_555
O52 Si25 1.631890 1_555
O53 Si26 1.637267 1_555
O54 Si27 1.654136 1_555
O55 Si28 1.637004 1_555
O56 Si29 1.648856 1_555
O57 Si30 1.638860 1_555
O58 Si31 1.661604 1_555
O59 Si32 1.637802 1_555
O60 Si31 1.610660 1_555
O61 Si32 1.618833 1_555
O62 Si27 1.620430 1_555
O63 Si28 1.616339 1_555
O64 Si29 1.622893 1_555
O65 Si30 1.616181 1_555
O66 Si23 1.613232 1_555
O67 Si24 1.634449 1_555
O68 Si25 1.625335 1_555
O69 Si26 1.627684 1_555
O70 Si21 1.627902 1_555
O71 Si22 1.620942 1_555
O72 Si31 1.665247 1_555
O73 Si32 1.660124 1_555
O74 Si27 1.664104 1_555
O75 Si28 1.657901 1_555
O76 Si29 1.658454 1_555
O77 Si30 1.653103 1_555
O78 Si23 1.652159 1_555
O79 Si24 1.644060 1_555
O80 Si25 1.649733 1_555
O81 Si26 1.639909 1_555
O82 Si21 1.647887 1_555
O83 Si22 1.648116 1_555
O84 Si9 1.646908 1_555
O85 Si10 1.658334 1_555
O86 Si11 1.664341 1_555
O87 Si12 1.651501 1_555
O88 Si13 1.652680 1_555
O89 Si14 1.658409 1_555
O90 Si15 1.656705 1_555
O91 Si16 1.648995 1_555
O92 Si17 1.662038 1_555
O93 Si18 1.654231 1_555
O94 Si19 1.660008 1_555
O95 Si20 1.656865 1_555
O96 Si7 1.669956 1_555
O97 Si8 1.623188 1_555
O98 S2 1.490912 1_555
O99 Si4 1.634815 1_555
O100 Si6 1.674313 1_555
O101 Si5 1.638126 1_655
O102 Si0 1.618591 1_555
O103 Si1 1.622377 1_555
O104 Si3 1.642550 1_555
O105 Si2 1.643610 1_655
O106 S0 1.490102 1_545
O107 S1 1.493664 1_555
O108 Si21 1.649326 1_555
O109 Si22 1.619685 1_555
O110 Si24 1.645221 1_555
O111 Si23 1.627676 1_655
O112 Si25 1.639762 1_545
O113 Si26 1.627976 1_545
O114 Si27 1.650146 1_545
O115 Si28 1.625420 1_545
O116 Si29 1.646546 1_555
O117 Si30 1.626266 1_555
O118 Si32 1.648135 1_555
O119 Si31 1.631943 1_655
O120 Si19 1.634229 1_555
O121 Si20 1.627065 1_555
O122 Si16 1.623627 1_455
O123 Si15 1.627037 1_555
O124 Si17 1.629458 1_565
O125 Si18 1.626011 1_565
O126 Si11 1.660213 1_565
O127 Si12 1.631268 1_565
O128 Si13 1.658444 1_555
O129 Si14 1.628597 1_555
O130 Si10 1.650784 1_455
O131 Si9 1.632744 1_555
O132 S0 1.491103 1_555
O133 S1 1.494916 1_565
O134 Si0 1.644068 1_555
O135 Si1 1.645236 1_555
O136 Si2 1.623248 1_555
O137 Si3 1.621644 1_555
O138 S2 1.497669 1_555
O139 Si4 1.641827 1_555
O140 Si5 1.621227 1_555
O141 Si6 1.640795 1_555
O142 Si7 1.632828 1_565
O143 Si8 1.653841 1_565
