# generated using pymatgen
data_Rb2PuCl6
_symmetry_space_group_name_H-M   'P 1'
_cell_length_a   7.38654023
_cell_length_b   7.38653799
_cell_length_c   11.79006408
_cell_angle_alpha   90.00000000
_cell_angle_beta   90.00000000
_cell_angle_gamma   119.99999221
_symmetry_Int_Tables_number   1
_chemical_formula_structural   Rb2PuCl6
_chemical_formula_sum   'Rb4 Pu2 Cl12'
_cell_volume   557.09445333
_cell_formula_units_Z   2
loop_
 _symmetry_equiv_pos_site_id
 _symmetry_equiv_pos_as_xyz
  1  'x, y, z'
loop_
 _atom_site_type_symbol
 _atom_site_label
 _atom_site_symmetry_multiplicity
 _atom_site_fract_x
 _atom_site_fract_y
 _atom_site_fract_z
 _atom_site_occupancy
  Rb  Rb0  1  0.33333200  0.66666700  0.85809622  1
  Rb  Rb1  1  0.66666800  0.33333300  0.35809622  1
  Rb  Rb2  1  0.99999900  -0.00000000  0.60528163  1
  Rb  Rb3  1  0.00000100  -0.00000000  0.10528163  1
  Pu  Pu0  1  0.33333300  0.66666700  0.23995593  1
  Pu  Pu1  1  0.66666700  0.33333300  0.73995593  1
  Cl  Cl0  1  0.16113941  0.83886059  0.35567172  1
  Cl  Cl1  1  0.32227881  0.16113941  0.85567172  1
  Cl  Cl2  1  0.83886059  0.67771919  0.85567172  1
  Cl  Cl3  1  0.16113941  0.32227981  0.35567172  1
  Cl  Cl4  1  0.67772019  0.83886059  0.35567172  1
  Cl  Cl5  1  0.83886059  0.16113941  0.85567172  1
  Cl  Cl6  1  0.49807697  0.50192403  0.11298402  1
  Cl  Cl7  1  0.99615395  0.49807697  0.61298402  1
  Cl  Cl8  1  0.50192303  0.00384605  0.61298402  1
  Cl  Cl9  1  0.49807697  0.99615395  0.11298402  1
  Cl  Cl10  1  0.00384605  0.50192303  0.11298402  1
  Cl  Cl11  1  0.50192303  0.49807597  0.61298402  1
loop_
_geom_bond_atom_site_label_1
_geom_bond_atom_site_label_2
_geom_bond_distance
_geom_bond_site_symmetry_2
Cl0 Pu0 2.591256 1_555
Cl0 Rb2 3.593182 1_465
Cl0 Rb3 3.600713 1_565
Cl0 Rb1 3.694054 1_455
Cl0 Rb1 3.694061 1_565
Cl1 Pu1 2.591262 1_555
Cl1 Rb3 3.593175 1_556
Cl1 Rb2 3.600720 1_455
Cl1 Rb0 3.694049 1_545
Cl1 Rb0 3.694064 1_555
Cl2 Pu1 2.591250 1_555
Cl2 Rb3 3.593186 1_666
Cl2 Rb2 3.600724 1_565
Cl2 Rb0 3.694039 1_655
Cl2 Rb0 3.694076 1_555
Cl3 Pu0 2.591256 1_555
Cl3 Rb2 3.593182 1_455
Cl3 Rb3 3.600720 1_555
Cl3 Rb1 3.694043 1_455
Cl3 Rb1 3.694072 1_555
Cl4 Pu0 2.591256 1_555
Cl4 Rb2 3.593179 1_565
Cl4 Rb3 3.600724 1_665
Cl4 Rb1 3.694045 1_565
Cl4 Rb1 3.694067 1_555
Cl5 Pu1 2.591256 1_555
Cl5 Rb3 3.593182 1_656
Cl5 Rb2 3.600713 1_555
Cl5 Rb0 3.694054 1_655
Cl5 Rb0 3.694061 1_545
Cl6 Pu0 2.585237 1_555
Cl6 Rb1 3.606079 1_555
Cl6 Rb0 3.670604 1_554
Cl6 Rb3 3.694468 1_555
Cl6 Rb3 3.694468 1_665
Cl7 Pu1 2.585237 1_555
Cl7 Rb0 3.606064 1_655
Cl7 Rb1 3.670597 1_555
Cl7 Rb2 3.694463 1_555
Cl7 Rb2 3.694471 1_565
Cl8 Pu1 2.585237 1_555
Cl8 Rb0 3.606067 1_545
Cl8 Rb1 3.670600 1_555
Cl8 Rb2 3.694461 1_555
Cl8 Rb2 3.694476 1_455
Cl9 Pu0 2.585237 1_555
Cl9 Rb1 3.606067 1_565
Cl9 Rb0 3.670600 1_554
Cl9 Rb3 3.694461 1_565
Cl9 Rb3 3.694476 1_665
Cl10 Pu0 2.585237 1_555
Cl10 Rb1 3.606064 1_455
Cl10 Rb0 3.670597 1_554
Cl10 Rb3 3.694463 1_565
Cl10 Rb3 3.694471 1_555
Cl11 Pu1 2.585237 1_555
Cl11 Rb0 3.606079 1_555
Cl11 Rb1 3.670604 1_555
Cl11 Rb2 3.694468 1_565
Cl11 Rb2 3.694468 1_455
