# generated using pymatgen
data_NaYSnP2SO12
_symmetry_space_group_name_H-M   'P 1'
_cell_length_a   8.94199251
_cell_length_b   8.98369282
_cell_length_c   23.56696989
_cell_angle_alpha   89.05713879
_cell_angle_beta   90.00000000
_cell_angle_gamma   119.84656959
_symmetry_Int_Tables_number   1
_chemical_formula_structural   NaYSnP2SO12
_chemical_formula_sum   'Na6 Y6 Sn6 P12 S6 O72'
_cell_volume   1641.77930722
_cell_formula_units_Z   6
loop_
 _symmetry_equiv_pos_site_id
 _symmetry_equiv_pos_as_xyz
  1  'x, y, z'
loop_
 _atom_site_type_symbol
 _atom_site_label
 _atom_site_symmetry_multiplicity
 _atom_site_fract_x
 _atom_site_fract_y
 _atom_site_fract_z
 _atom_site_occupancy
  Na  Na0  1  0.98087199  0.98889222  0.49927438  1
  Na  Na1  1  0.00802023  0.98889222  0.99927438  1
  Na  Na2  1  0.64753899  0.32222522  0.83260738  1
  Na  Na3  1  0.67468723  0.32222522  0.33260738  1
  Na  Na4  1  0.31420499  0.65555922  0.16594138  1
  Na  Na5  1  0.34135323  0.65555922  0.66594138  1
  Y  Y0  1  0.99441703  0.00380274  0.64580057  1
  Y  Y1  1  0.00938571  0.00380274  0.14580057  1
  Y  Y2  1  0.66108403  0.33713574  0.97913357  1
  Y  Y3  1  0.67605271  0.33713574  0.47913357  1
  Y  Y4  1  0.32775003  0.67046974  0.31246757  1
  Y  Y5  1  0.34271871  0.67046974  0.81246757  1
  Sn  Sn0  1  0.00009323  0.00165930  0.34985392  1
  Sn  Sn1  1  0.00156607  0.00165930  0.84985392  1
  Sn  Sn2  1  0.66676023  0.33499230  0.68318692  1
  Sn  Sn3  1  0.66823307  0.33499230  0.18318692  1
  Sn  Sn4  1  0.33342623  0.66832630  0.01652092  1
  Sn  Sn5  1  0.33489907  0.66832630  0.51652092  1
  P  P0  1  0.30355026  0.01651168  0.24990190  1
  P  P1  1  0.98782179  0.28722699  0.24889314  1
  P  P2  1  0.29940520  0.28722699  0.74889314  1
  P  P3  1  0.71296142  0.01651168  0.74990190  1
  P  P4  1  0.97021726  0.34984468  0.58323490  1
  P  P5  1  0.65448879  0.62055999  0.58222614  1
  P  P6  1  0.96607220  0.62055999  0.08222614  1
  P  P7  1  0.37962842  0.34984468  0.08323490  1
  P  P8  1  0.63688326  0.68317868  0.91656890  1
  P  P9  1  0.32115479  0.95389399  0.91556014  1
  P  P10  1  0.63273820  0.95389399  0.41556014  1
  P  P11  1  0.04629442  0.68317868  0.41656890  1
  S  S0  1  0.71069920  0.69813931  0.24999579  1
  S  S1  1  0.98744011  0.69813931  0.74999579  1
  S  S2  1  0.37736620  0.03147231  0.58332879  1
  S  S3  1  0.65410711  0.03147231  0.08332879  1
  S  S4  1  0.04403220  0.36480631  0.91666279  1
  S  S5  1  0.32077311  0.36480631  0.41666279  1
  O  O0  1  0.21732046  0.03910332  0.30501029  1
  O  O1  1  0.81510668  0.77711307  0.30227497  1
  O  O2  1  0.95803896  0.17620577  0.30512381  1
  O  O3  1  0.21816681  0.17620577  0.80512381  1
  O  O4  1  0.96200638  0.77711307  0.80227497  1
  O  O5  1  0.82178286  0.03910332  0.80501029  1
  O  O6  1  0.79591983  0.99062049  0.69794970  1
  O  O7  1  0.19439605  0.19916691  0.69721819  1
  O  O8  1  0.01151025  0.80154376  0.69889712  1
  O  O9  1  0.79003351  0.80154376  0.19889712  1
  O  O10  1  0.00477085  0.19916691  0.19721819  1
  O  O11  1  0.19470066  0.99062049  0.19794970  1
  O  O12  1  0.88398746  0.37243632  0.63834329  1
  O  O13  1  0.48177368  0.11044607  0.63560797  1
  O  O14  1  0.62470596  0.50953877  0.63845681  1
  O  O15  1  0.88483381  0.50953877  0.13845681  1
  O  O16  1  0.62867338  0.11044607  0.13560797  1
  O  O17  1  0.48844986  0.37243632  0.13834329  1
  O  O18  1  0.46258683  0.32395349  0.03128270  1
  O  O19  1  0.86106305  0.53249991  0.03055119  1
  O  O20  1  0.67817725  0.13487676  0.03223012  1
  O  O21  1  0.45670051  0.13487676  0.53223012  1
  O  O22  1  0.67143785  0.53249991  0.53055119  1
  O  O23  1  0.86136766  0.32395349  0.53128270  1
  O  O24  1  0.55065346  0.70577032  0.97167729  1
  O  O25  1  0.14843968  0.44378007  0.96894197  1
  O  O26  1  0.29137196  0.84287277  0.97179081  1
  O  O27  1  0.55149981  0.84287277  0.47179081  1
  O  O28  1  0.29533938  0.44378007  0.46894197  1
  O  O29  1  0.15511586  0.70577032  0.47167729  1
  O  O30  1  0.12925283  0.65728749  0.36461670  1
  O  O31  1  0.52772905  0.86583391  0.36388519  1
  O  O32  1  0.34484325  0.46821076  0.36556412  1
  O  O33  1  0.12336651  0.46821076  0.86556412  1
  O  O34  1  0.33810385  0.86583391  0.86388519  1
  O  O35  1  0.52803366  0.65728749  0.86461670  1
  O  O36  1  0.03724666  0.85325180  0.41109281  1
  O  O37  1  0.81699392  0.97120267  0.41127381  1
  O  O38  1  0.15994156  0.19300716  0.41292658  1
  O  O39  1  0.03306559  0.19300716  0.91292658  1
  O  O40  1  0.15420875  0.97120267  0.91127381  1
  O  O41  1  0.81600514  0.85325180  0.91109281  1
  O  O42  1  0.00109254  0.19713491  0.58804870  1
  O  O43  1  0.20274592  0.00620892  0.58887612  1
  O  O44  1  0.81371092  0.79920898  0.58758823  1
  O  O45  1  0.98549806  0.79920898  0.08758823  1
  O  O46  1  0.80346299  0.00620892  0.08887612  1
  O  O47  1  0.19604237  0.19713491  0.08804870  1
  O  O48  1  0.70391366  0.18658480  0.74442581  1
  O  O49  1  0.48366092  0.30453567  0.74460681  1
  O  O50  1  0.82660856  0.52634016  0.74625958  1
  O  O51  1  0.69973259  0.52634016  0.24625958  1
  O  O52  1  0.82087575  0.30453567  0.24460681  1
  O  O53  1  0.48267214  0.18658480  0.24442581  1
  O  O54  1  0.66775954  0.53046791  0.92138170  1
  O  O55  1  0.86941292  0.33954192  0.92220912  1
  O  O56  1  0.48037792  0.13254198  0.92092123  1
  O  O57  1  0.65216506  0.13254198  0.42092123  1
  O  O58  1  0.47012999  0.33954192  0.42220912  1
  O  O59  1  0.86270937  0.53046791  0.42138170  1
  O  O60  1  0.37057966  0.51991880  0.07775981  1
  O  O61  1  0.15032692  0.63786967  0.07794081  1
  O  O62  1  0.49327456  0.85967416  0.07959358  1
  O  O63  1  0.36639859  0.85967416  0.57959358  1
  O  O64  1  0.48754175  0.63786967  0.57794081  1
  O  O65  1  0.14933814  0.51991880  0.57775981  1
  O  O66  1  0.33442554  0.86380191  0.25471570  1
  O  O67  1  0.53607892  0.67287592  0.25554312  1
  O  O68  1  0.14704392  0.46587598  0.25425523  1
  O  O69  1  0.31883106  0.46587598  0.75425523  1
  O  O70  1  0.13679599  0.67287592  0.75554312  1
  O  O71  1  0.52937537  0.86380191  0.75471570  1
loop_
_geom_bond_atom_site_label_1
_geom_bond_atom_site_label_2
_geom_bond_distance
_geom_bond_site_symmetry_2
Na0 O37 2.500556 1_555
Na0 O36 2.598567 1_655
Na0 O44 2.611095 1_555
Na0 O38 2.649927 1_665
Na0 O42 2.775197 1_665
Na0 O43 2.850099 1_665
Na1 O40 2.500556 1_555
Na1 O41 2.598567 1_455
Na1 O45 2.611095 1_456
Na1 O39 2.649927 1_565
Na1 O47 2.775197 1_566
Na1 O46 2.850099 1_466
Na2 O49 2.500556 1_555
Na2 O48 2.598567 1_555
Na2 O56 2.611095 1_555
Na2 O50 2.649927 1_555
Na2 O54 2.775197 1_555
Na2 O55 2.850099 1_555
Na3 O52 2.500556 1_555
Na3 O53 2.598567 1_555
Na3 O57 2.611095 1_555
Na3 O51 2.649927 1_555
Na3 O59 2.775197 1_555
Na3 O58 2.850099 1_555
Na4 O61 2.500556 1_555
Na4 O60 2.598567 1_555
Na4 O68 2.611095 1_555
Na4 O62 2.649927 1_555
Na4 O66 2.775197 1_555
Na4 O67 2.850099 1_555
Na5 O64 2.500556 1_555
Na5 O65 2.598567 1_555
Na5 O69 2.611095 1_555
Na5 O63 2.649927 1_555
Na5 O71 2.775197 1_555
Na5 O70 2.850099 1_555
O0 P0 1.576989 1_555
O0 Sn0 2.083520 1_555
O1 S0 1.504138 1_555
O1 Sn0 2.194518 1_665
O2 P1 1.585537 1_555
O2 Sn0 2.060106 1_655
O3 P2 1.585537 1_555
O3 Sn1 2.060106 1_555
O4 S1 1.504138 1_555
O4 Sn1 2.194518 1_665
O5 P3 1.576989 1_555
O5 Sn1 2.083520 1_655
O6 P3 1.511474 1_565
O6 Y0 2.112091 1_565
O7 P2 1.510945 1_555
O7 Y0 2.166215 1_455
O8 S1 1.457273 1_455
O8 Y0 2.256633 1_465
O9 S0 1.457273 1_555
O9 Y1 2.256633 1_665
O10 P1 1.510945 1_455
O10 Y1 2.166215 1_555
O11 P0 1.511474 1_565
O11 Y1 2.112091 1_565
O12 P4 1.576989 1_555
O12 Sn2 2.083520 1_555
O13 S2 1.504138 1_555
O13 Sn2 2.194518 1_555
O14 P5 1.585537 1_555
O14 Sn2 2.060106 1_555
O15 P6 1.585537 1_555
O15 Sn3 2.060106 1_555
O16 S3 1.504138 1_555
O16 Sn3 2.194518 1_555
O17 P7 1.576989 1_555
O17 Sn3 2.083520 1_555
O18 P7 1.511474 1_555
O18 Y2 2.112091 1_554
O19 P6 1.510945 1_555
O19 Y2 2.166215 1_554
O20 S3 1.457273 1_555
O20 Y2 2.256633 1_554
O21 S2 1.457273 1_555
O21 Y3 2.256633 1_555
O22 P5 1.510945 1_555
O22 Y3 2.166215 1_555
O23 P4 1.511474 1_555
O23 Y3 2.112091 1_555
O24 P8 1.576989 1_555
O24 Sn4 2.083520 1_556
O25 S4 1.504138 1_555
O25 Sn4 2.194518 1_556
O26 P9 1.585537 1_555
O26 Sn4 2.060106 1_556
O27 P10 1.585537 1_555
O27 Sn5 2.060106 1_555
O28 S5 1.504138 1_555
O28 Sn5 2.194518 1_555
O29 P11 1.576989 1_555
O29 Sn5 2.083520 1_555
O30 P11 1.511474 1_555
O30 Y4 2.112091 1_555
O31 P10 1.510945 1_555
O31 Y4 2.166215 1_555
O32 S5 1.457273 1_555
O32 Y4 2.256633 1_555
O33 S4 1.457273 1_555
O33 Y5 2.256633 1_555
O34 P9 1.510945 1_555
O34 Y5 2.166215 1_555
O35 P8 1.511474 1_555
O35 Y5 2.112091 1_555
O36 P11 1.572954 1_555
O36 Sn0 2.085270 1_565
O37 P10 1.579078 1_555
O37 Sn0 2.095660 1_665
O38 S5 1.501079 1_555
O38 Sn0 2.201354 1_555
O39 S4 1.501083 1_555
O39 Sn1 2.201355 1_555
O40 P9 1.579069 1_555
O40 Sn1 2.095660 1_565
O41 P8 1.572958 1_555
O41 Sn1 2.085270 1_665
O42 P4 1.530712 1_455
O42 Y0 2.166009 1_455
O43 S2 1.467318 1_555
O43 Y0 2.286801 1_455
O44 P5 1.533332 1_555
O44 Y0 2.235661 1_565
O45 P6 1.533336 1_555
O45 Y1 2.235661 1_665
O46 S3 1.467309 1_555
O46 Y1 2.286801 1_655
O47 P7 1.530718 1_555
O47 Y1 2.166009 1_555
O48 P3 1.572954 1_555
O48 Sn2 2.085270 1_555
O49 P2 1.579078 1_555
O49 Sn2 2.095660 1_555
O50 S1 1.501079 1_555
O50 Sn2 2.201354 1_555
O51 S0 1.501083 1_555
O51 Sn3 2.201355 1_555
O52 P1 1.579069 1_555
O52 Sn3 2.095660 1_555
O53 P0 1.572958 1_555
O53 Sn3 2.085270 1_555
O54 P8 1.530725 1_555
O54 Y2 2.166009 1_555
O55 S4 1.467303 1_655
O55 Y2 2.286801 1_555
O56 P9 1.533328 1_545
O56 Y2 2.235661 1_555
O57 P10 1.533321 1_545
O57 Y3 2.235661 1_555
O58 S5 1.467321 1_555
O58 Y3 2.286801 1_555
O59 P11 1.530714 1_655
O59 Y3 2.166009 1_555
O60 P7 1.572966 1_555
O60 Sn4 2.085270 1_555
O61 P6 1.579064 1_455
O61 Sn4 2.095660 1_555
O62 S3 1.501076 1_565
O62 Sn4 2.201354 1_555
O63 S2 1.501068 1_565
O63 Sn5 2.201355 1_555
O64 P5 1.579082 1_555
O64 Sn5 2.095660 1_555
O65 P4 1.572956 1_455
O65 Sn5 2.085270 1_555
O66 P0 1.530712 1_565
O66 Y4 2.166009 1_555
O67 S0 1.467318 1_555
O67 Y4 2.286801 1_555
O68 P1 1.533332 1_455
O68 Y4 2.235661 1_555
O69 P2 1.533336 1_555
O69 Y5 2.235661 1_555
O70 S1 1.467309 1_455
O70 Y5 2.286801 1_555
O71 P3 1.530718 1_565
O71 Y5 2.166009 1_555
