# generated using pymatgen
data_Na2Ti4Al4Si3(S3O16)3
_symmetry_space_group_name_H-M   'P 1'
_cell_length_a   17.03768005
_cell_length_b   8.51948217
_cell_length_c   22.09138745
_cell_angle_alpha   89.87098057
_cell_angle_beta   90.19022348
_cell_angle_gamma   120.04140810
_symmetry_Int_Tables_number   1
_chemical_formula_structural   Na2Ti4Al4Si3(S3O16)3
_chemical_formula_sum   'Na6 Ti12 Al12 Si9 S27 O144'
_cell_volume   2775.83357063
_cell_formula_units_Z   3
loop_
 _symmetry_equiv_pos_site_id
 _symmetry_equiv_pos_as_xyz
  1  'x, y, z'
loop_
 _atom_site_type_symbol
 _atom_site_label
 _atom_site_symmetry_multiplicity
 _atom_site_fract_x
 _atom_site_fract_y
 _atom_site_fract_z
 _atom_site_occupancy
  Na  Na0  1  0.99486956  0.00624055  0.50065662  1
  Na  Na1  1  0.49567621  0.98695728  0.00320297  1
  Na  Na2  1  0.32907614  0.32470394  0.83917282  1
  Na  Na3  1  0.82767955  0.32966441  0.83205703  1
  Na  Na4  1  0.33078448  0.32619721  0.33114870  1
  Na  Na5  1  0.82315697  0.32368476  0.33619742  1
  Ti  Ti0  1  0.51452740  0.01723011  0.35781407  1
  Ti  Ti1  1  0.00477999  0.99826676  0.86152536  1
  Ti  Ti2  1  0.50822065  0.02610552  0.64358547  1
  Ti  Ti3  1  0.00783514  0.98877820  0.14363956  1
  Ti  Ti4  1  0.34031719  0.33959455  0.68673297  1
  Ti  Ti5  1  0.83417746  0.33577769  0.68762311  1
  Ti  Ti6  1  0.33604129  0.33591757  0.18941981  1
  Ti  Ti7  1  0.83664600  0.33356481  0.19205415  1
  Ti  Ti8  1  0.16186387  0.67914384  0.02640489  1
  Ti  Ti9  1  0.66015332  0.66349504  0.02729577  1
  Ti  Ti10  1  0.16107975  0.65956511  0.52477004  1
  Ti  Ti11  1  0.66253441  0.64945149  0.52307108  1
  Al  Al0  1  0.00310364  0.00256597  0.35109725  1
  Al  Al1  1  0.50303939  0.00432539  0.85190172  1
  Al  Al2  1  0.99836296  0.00699601  0.64712877  1
  Al  Al3  1  0.49952960  0.98037334  0.14803109  1
  Al  Al4  1  0.33197588  0.33455993  0.97994663  1
  Al  Al5  1  0.83152194  0.33613495  0.98081078  1
  Al  Al6  1  0.33211557  0.32476765  0.47797798  1
  Al  Al7  1  0.83364534  0.32680767  0.47708245  1
  Al  Al8  1  0.16813292  0.67468247  0.30965931  1
  Al  Al9  1  0.66908640  0.66218211  0.31024360  1
  Al  Al10  1  0.17013795  0.67918174  0.81420637  1
  Al  Al11  1  0.66617460  0.66048427  0.81014780  1
  Si  Si0  1  0.14522001  0.99755110  0.25558610  1
  Si  Si1  1  0.64267983  0.98477668  0.24881794  1
  Si  Si2  1  0.64558209  0.29380147  0.75549413  1
  Si  Si3  1  0.47366973  0.33204019  0.57830307  1
  Si  Si4  1  0.96936916  0.31647608  0.58141187  1
  Si  Si5  1  0.46717755  0.62224356  0.08032000  1
  Si  Si6  1  0.96979036  0.60966166  0.08056839  1
  Si  Si7  1  0.17813004  0.96389988  0.91562498  1
  Si  Si8  1  0.67703856  0.39141794  0.41434047  1
  S  S0  1  0.35491507  0.71705240  0.25163401  1
  S  S1  1  0.85637491  0.71923044  0.25203384  1
  S  S2  1  0.00386632  0.28872012  0.25444595  1
  S  S3  1  0.50323378  0.28451959  0.24869215  1
  S  S4  1  0.14169329  0.29402312  0.75146964  1
  S  S5  1  0.00549726  0.72189418  0.74956792  1
  S  S6  1  0.50093404  0.71555741  0.75410705  1
  S  S7  1  0.35318902  0.98958950  0.75196573  1
  S  S8  1  0.85597486  0.99399245  0.75158070  1
  S  S9  1  0.18808598  0.05028769  0.58276068  1
  S  S10  1  0.69217151  0.04955272  0.58072046  1
  S  S11  1  0.33425784  0.61588871  0.58063750  1
  S  S12  1  0.83877331  0.62771075  0.58320629  1
  S  S13  1  0.33904346  0.05191036  0.08353687  1
  S  S14  1  0.83428005  0.05307305  0.08093463  1
  S  S15  1  0.19208878  0.33511831  0.08071296  1
  S  S16  1  0.68825508  0.32660850  0.08145260  1
  S  S17  1  0.31447521  0.67285154  0.91262584  1
  S  S18  1  0.80609732  0.65691406  0.91569084  1
  S  S19  1  0.02017763  0.38351872  0.91480638  1
  S  S20  1  0.52361270  0.37745077  0.91509478  1
  S  S21  1  0.66701693  0.95506570  0.91551019  1
  S  S22  1  0.30660624  0.95408109  0.41590086  1
  S  S23  1  0.81616878  0.95795305  0.41419270  1
  S  S24  1  0.16730905  0.37854352  0.41597705  1
  S  S25  1  0.02309543  0.66847807  0.41485091  1
  S  S26  1  0.51755236  0.65480194  0.41625625  1
  O  O0  1  0.09958358  0.04251008  0.31122219  1
  O  O1  1  0.60170930  0.03633488  0.31009881  1
  O  O2  1  0.41205190  0.79845504  0.30523644  1
  O  O3  1  0.91280912  0.80184099  0.30661387  1
  O  O4  1  0.48374846  0.16927704  0.30345180  1
  O  O5  1  0.98189974  0.16822793  0.30783005  1
  O  O6  1  0.10141368  0.17774967  0.80570748  1
  O  O7  1  0.59840551  0.15497037  0.81054961  1
  O  O8  1  0.47944854  0.79194333  0.80731593  1
  O  O9  1  0.98996015  0.80534363  0.80391621  1
  O  O10  1  0.41033866  0.02486521  0.80624273  1
  O  O11  1  0.91359601  0.02619006  0.80526766  1
  O  O12  1  0.39504539  0.96640752  0.69698877  1
  O  O13  1  0.89616814  0.96162182  0.69698221  1
  O  O14  1  0.08604889  0.20750527  0.69700816  1
  O  O15  1  0.58434723  0.19590225  0.69275579  1
  O  O16  1  0.01709552  0.83302013  0.69526729  1
  O  O17  1  0.51191491  0.81569829  0.69817381  1
  O  O18  1  0.39202770  0.82648931  0.19628103  1
  O  O19  1  0.89815525  0.82887102  0.19699654  1
  O  O20  1  0.01460062  0.21007626  0.19848384  1
  O  O21  1  0.51031441  0.19573104  0.19371967  1
  O  O22  1  0.08412272  0.97201128  0.19286408  1
  O  O23  1  0.58111977  0.96351944  0.19120044  1
  O  O24  1  0.42823230  0.36150448  0.64164766  1
  O  O25  1  0.92877768  0.36211411  0.64200045  1
  O  O26  1  0.24507918  0.13377691  0.63759570  1
  O  O27  1  0.74587198  0.13338178  0.63691187  1
  O  O28  1  0.31477282  0.49868400  0.63655995  1
  O  O29  1  0.81784522  0.51210080  0.63842861  1
  O  O30  1  0.42727841  0.49693580  0.14087627  1
  O  O31  1  0.92545720  0.49035614  0.14143775  1
  O  O32  1  0.31745864  0.12517099  0.13774351  1
  O  O33  1  0.81298349  0.12499526  0.13553405  1
  O  O34  1  0.24585559  0.36080282  0.13619712  1
  O  O35  1  0.74351500  0.35720194  0.13574148  1
  O  O36  1  0.22970461  0.29270487  0.02748589  1
  O  O37  1  0.72635865  0.28925272  0.02632340  1
  O  O38  1  0.41052506  0.52513158  0.02076695  1
  O  O39  1  0.91136361  0.52254966  0.02092278  1
  O  O40  1  0.35106271  0.15941808  0.02862952  1
  O  O41  1  0.84431091  0.16032190  0.02580168  1
  O  O42  1  0.22482563  0.16423510  0.52828099  1
  O  O43  1  0.73027177  0.16760632  0.52782178  1
  O  O44  1  0.34411943  0.52716626  0.52677344  1
  O  O45  1  0.85258558  0.54500796  0.52928037  1
  O  O46  1  0.40880497  0.29848067  0.52275545  1
  O  O47  1  0.90954775  0.29360118  0.52301524  1
  O  O48  1  0.27572989  0.70315739  0.96728998  1
  O  O49  1  0.76882232  0.68755134  0.97067260  1
  O  O50  1  0.07543393  0.45851124  0.96945354  1
  O  O51  1  0.58018116  0.45715618  0.97018521  1
  O  O52  1  0.15494408  0.83608891  0.97599683  1
  O  O53  1  0.65574200  0.84500791  0.97020834  1
  O  O54  1  0.26509615  0.84813365  0.47178018  1
  O  O55  1  0.77774365  0.85322495  0.47033100  1
  O  O56  1  0.15555616  0.46529705  0.47129560  1
  O  O57  1  0.65818644  0.48031272  0.47591058  1
  O  O58  1  0.07949610  0.70128625  0.47077575  1
  O  O59  1  0.57380168  0.68896111  0.47167832  1
  O  O60  1  0.06680142  0.63938761  0.36246218  1
  O  O61  1  0.55913763  0.62373703  0.36324833  1
  O  O62  1  0.24844049  0.86358369  0.36279240  1
  O  O63  1  0.75974450  0.87459094  0.36077276  1
  O  O64  1  0.18214874  0.49081823  0.36214697  1
  O  O65  1  0.68788578  0.51232627  0.35641678  1
  O  O66  1  0.06331139  0.49612030  0.86057481  1
  O  O67  1  0.56742362  0.49422084  0.86211348  1
  O  O68  1  0.18912371  0.86982686  0.85631604  1
  O  O69  1  0.68189840  0.87306998  0.86113042  1
  O  O70  1  0.25625096  0.64019348  0.85814768  1
  O  O71  1  0.75069155  0.63608284  0.86179843  1
  O  O72  1  0.01273618  0.83116286  0.40912136  1
  O  O73  1  0.50480711  0.81370309  0.40977700  1
  O  O74  1  0.39657866  0.97726915  0.40874724  1
  O  O75  1  0.90885349  0.97801040  0.40733856  1
  O  O76  1  0.08376566  0.19850505  0.41215361  1
  O  O77  1  0.58180398  0.19443472  0.40953000  1
  O  O78  1  0.00857039  0.19871251  0.90628141  1
  O  O79  1  0.51299623  0.19346933  0.90858054  1
  O  O80  1  0.08520438  0.98157548  0.90571614  1
  O  O81  1  0.58288592  0.96673591  0.91114646  1
  O  O82  1  0.40619806  0.83877891  0.90426340  1
  O  O83  1  0.89905452  0.81635461  0.90716033  1
  O  O84  1  0.48196758  0.15273590  0.59114663  1
  O  O85  1  0.98612472  0.14866288  0.59274250  1
  O  O86  1  0.09641393  0.02171082  0.59302089  1
  O  O87  1  0.59887833  0.01790373  0.58982168  1
  O  O88  1  0.41602647  0.78871082  0.59109617  1
  O  O89  1  0.92301574  0.80348567  0.59386624  1
  O  O90  1  0.48000883  0.82071864  0.08830362  1
  O  O91  1  0.98232014  0.81082016  0.09092844  1
  O  O92  1  0.42236781  0.04378643  0.09314434  1
  O  O93  1  0.91609275  0.04234474  0.08966287  1
  O  O94  1  0.09883484  0.18117932  0.08917202  1
  O  O95  1  0.59518622  0.17506476  0.08823389  1
  O  O96  1  0.34019518  0.15224025  0.74570110  1
  O  O97  1  0.84831946  0.15999640  0.74460982  1
  O  O98  1  0.23355430  0.31453081  0.74454457  1
  O  O99  1  0.74530814  0.31192313  0.74312522  1
  O  O100  1  0.41811650  0.52583244  0.74827493  1
  O  O101  1  0.92217266  0.54058096  0.74503551  1
  O  O102  1  0.34666913  0.53416635  0.24455381  1
  O  O103  1  0.84802947  0.53574652  0.24675843  1
  O  O104  1  0.42083706  0.30680733  0.24457151  1
  O  O105  1  0.92262067  0.31396772  0.24938518  1
  O  O106  1  0.24441272  0.17861925  0.24237958  1
  O  O107  1  0.74398439  0.17072166  0.24084219  1
  O  O108  1  0.32538030  0.51134439  0.91759781  1
  O  O109  1  0.81321158  0.48930387  0.91973403  1
  O  O110  1  0.43372969  0.36025173  0.92150082  1
  O  O111  1  0.92755937  0.35859351  0.92027270  1
  O  O112  1  0.26119098  0.16382520  0.92624629  1
  O  O113  1  0.74815459  0.13978928  0.92262540  1
  O  O114  1  0.31080227  0.13456323  0.42062897  1
  O  O115  1  0.82712787  0.14263303  0.41978513  1
  O  O116  1  0.24844293  0.35697769  0.42374615  1
  O  O117  1  0.76216133  0.36155885  0.42536811  1
  O  O118  1  0.42472946  0.49210253  0.42315596  1
  O  O119  1  0.93349433  0.50546116  0.42215672  1
  O  O120  1  0.18811423  0.50151933  0.07104920  1
  O  O121  1  0.68504364  0.49751397  0.07195293  1
  O  O122  1  0.07152247  0.63199385  0.07600956  1
  O  O123  1  0.56983672  0.64150131  0.07004931  1
  O  O124  1  0.26129175  0.86378801  0.07605708  1
  O  O125  1  0.75420175  0.86727587  0.07189749  1
  O  O126  1  0.18368514  0.87374057  0.57500156  1
  O  O127  1  0.68832457  0.87607613  0.57301571  1
  O  O128  1  0.25381842  0.63839617  0.57402185  1
  O  O129  1  0.76227084  0.66105285  0.57606985  1
  O  O130  1  0.07096654  0.50190799  0.56937859  1
  O  O131  1  0.57312867  0.51200110  0.57568168  1
  O  O132  1  0.15329434  0.82068484  0.26222484  1
  O  O133  1  0.65344466  0.81599789  0.26562764  1
  O  O134  1  0.26288605  0.68703810  0.26125143  1
  O  O135  1  0.76665427  0.69760845  0.25732945  1
  O  O136  1  0.08545664  0.46382319  0.26540352  1
  O  O137  1  0.58383923  0.46211530  0.25610823  1
  O  O138  1  0.14956859  0.47200207  0.76091402  1
  O  O139  1  0.65382392  0.48694772  0.76238083  1
  O  O140  1  0.08517326  0.70023305  0.75720168  1
  O  O141  1  0.58163610  0.70005587  0.76473167  1
  O  O142  1  0.26397023  0.82534136  0.75793860  1
  O  O143  1  0.76470944  0.83797727  0.76083817  1
loop_
_geom_bond_atom_site_label_1
_geom_bond_atom_site_label_2
_geom_bond_distance
_geom_bond_site_symmetry_2
Na0 O85 2.413915 1_555
Na0 O75 2.466724 1_545
Na0 O76 2.514134 1_655
Na0 O89 2.570199 1_545
Na0 O72 2.622744 1_645
Na0 O86 2.631248 1_655
Na1 O90 2.285662 1_555
Na1 O95 2.498650 1_565
Na1 O92 2.523606 1_565
Na1 O81 2.578978 1_554
Na1 O82 2.599704 1_554
Na1 O79 2.649474 1_564
Na2 O112 2.309133 1_555
Na2 O108 2.376408 1_555
Na2 O110 2.453383 1_555
Na2 O100 2.582993 1_555
Na2 O96 2.598767 1_555
Na2 O98 2.619777 1_555
Na3 O99 2.371250 1_555
Na3 O109 2.452101 1_555
Na3 O113 2.502918 1_555
Na3 O111 2.512897 1_555
Na3 O97 2.543834 1_555
Na3 O101 2.573899 1_555
Na4 O106 2.394032 1_555
Na4 O114 2.474326 1_555
Na4 O104 2.512783 1_555
Na4 O102 2.525889 1_555
Na4 O118 2.533221 1_555
Na4 O116 2.571234 1_555
Na5 O117 2.327407 1_555
Na5 O115 2.425784 1_555
Na5 O107 2.487713 1_555
Na5 O103 2.563282 1_555
Na5 O119 2.571566 1_555
Na5 O105 2.592172 1_555
Al0 O0 1.744139 1_555
Al0 O5 1.881008 1_455
Al0 O3 1.902681 1_445
Al0 O75 1.960044 1_445
Al0 O72 2.008117 1_545
Al0 O76 2.048270 1_555
Al1 O7 1.743091 1_555
Al1 O8 1.919065 1_545
Al1 O82 1.930002 1_545
Al1 O10 1.951386 1_555
Al1 O79 1.981711 1_555
Al1 O81 2.022051 1_545
Al2 O85 1.785345 1_555
Al2 O13 1.931557 1_545
Al2 O14 1.951026 1_655
Al2 O89 1.951710 1_545
Al2 O16 1.973308 1_645
Al2 O86 2.009520 1_655
Al3 O23 1.747265 1_555
Al3 O90 1.803856 1_555
Al3 O18 1.952446 1_555
Al3 O21 2.021958 1_565
Al3 O92 2.046461 1_565
Al3 O95 2.109544 1_565
Al4 O38 1.750219 1_556
Al4 O112 1.794277 1_555
Al4 O36 1.911708 1_556
Al4 O40 1.991255 1_556
Al4 O108 2.082605 1_555
Al4 O110 2.086664 1_555
Al5 O39 1.730076 1_556
Al5 O41 1.896704 1_556
Al5 O37 1.916866 1_556
Al5 O109 2.004381 1_555
Al5 O113 2.021508 1_555
Al5 O111 2.049978 1_555
Al6 O46 1.737612 1_555
Al6 O118 1.934309 1_555
Al6 O114 1.944173 1_555
Al6 O44 1.957282 1_555
Al6 O116 1.980356 1_555
Al6 O42 1.987548 1_555
Al7 O47 1.771541 1_555
Al7 O117 1.796226 1_555
Al7 O43 1.952554 1_555
Al7 O115 1.977390 1_555
Al7 O119 2.023816 1_555
Al7 O45 2.072701 1_555
Al8 O132 1.736786 1_555
Al8 O134 1.897815 1_555
Al8 O136 1.905853 1_555
Al8 O62 1.906034 1_555
Al8 O60 1.980849 1_555
Al8 O64 2.054198 1_555
Al9 O133 1.761198 1_555
Al9 O65 1.781684 1_555
Al9 O135 1.931280 1_555
Al9 O137 1.990956 1_555
Al9 O63 2.026216 1_555
Al9 O61 2.094292 1_555
Al10 O68 1.756930 1_555
Al10 O142 1.914289 1_555
Al10 O70 1.918918 1_555
Al10 O66 1.989305 1_555
Al10 O140 1.990077 1_555
Al10 O138 2.002892 1_555
Al11 O139 1.742887 1_555
Al11 O141 1.915705 1_555
Al11 O71 1.925213 1_555
Al11 O143 1.937663 1_555
Al11 O67 1.942776 1_555
Al11 O69 2.035143 1_555
O0 Si0 1.602675 1_545
O1 Si1 1.681926 1_545
O1 Ti0 1.763948 1_555
O2 S0 1.466600 1_555
O2 Ti0 2.146952 1_565
O3 S1 1.480618 1_555
O4 S3 1.486115 1_555
O4 Ti0 2.015977 1_555
O5 S2 1.482384 1_655
O6 S4 1.485713 1_555
O6 Ti1 2.013369 1_545
O7 Si2 1.603874 1_555
O8 S6 1.477845 1_555
O9 S5 1.487084 1_655
O9 Ti1 1.994150 1_655
O10 S7 1.475471 1_545
O11 S8 1.473018 1_545
O11 Ti1 2.090603 1_645
O12 S7 1.473252 1_555
O12 Ti2 2.097401 1_565
O13 S8 1.481855 1_555
O14 S4 1.478638 1_555
O15 Si2 1.682081 1_555
O15 Ti2 1.753255 1_555
O16 S5 1.477661 1_555
O17 S6 1.458304 1_555
O17 Ti2 2.185003 1_565
O18 S0 1.474488 1_555
O19 S1 1.480675 1_555
O19 Ti3 2.048361 1_655
O20 S2 1.462418 1_555
O20 Ti3 2.197162 1_545
O21 S3 1.469025 1_555
O22 Si0 1.678054 1_555
O22 Ti3 1.751606 1_555
O23 Si1 1.598438 1_555
O24 Si3 1.680446 1_555
O24 Ti4 1.731933 1_555
O25 Si4 1.642782 1_555
O25 Ti5 1.819785 1_555
O26 S9 1.490235 1_555
O26 Ti4 2.008479 1_555
O27 S10 1.493419 1_555
O27 Ti5 1.972779 1_555
O28 S11 1.516162 1_555
O28 Ti4 1.958466 1_555
O29 S12 1.493764 1_555
O29 Ti5 1.980966 1_555
O30 Si5 1.632302 1_555
O30 Ti6 1.821423 1_555
O31 Si6 1.625952 1_555
O31 Ti7 1.817964 1_555
O32 S13 1.481524 1_555
O32 Ti6 2.016137 1_555
O33 S14 1.480139 1_555
O33 Ti7 2.041649 1_555
O34 S15 1.477327 1_555
O34 Ti6 2.025197 1_555
O35 S16 1.463191 1_555
O35 Ti7 2.100376 1_555
O36 S15 1.470624 1_555
O37 S16 1.489911 1_555
O38 Si5 1.594956 1_555
O39 Si6 1.591830 1_555
O40 S13 1.470033 1_555
O41 S14 1.479026 1_555
O42 S9 1.474459 1_555
O43 S10 1.464451 1_555
O44 S11 1.465621 1_555
O45 S12 1.463786 1_555
O46 Si3 1.576430 1_555
O47 Si4 1.592034 1_555
O48 S17 1.462224 1_555
O48 Ti8 2.264771 1_556
O49 S18 1.455777 1_555
O49 Ti9 2.160774 1_556
O50 S19 1.464786 1_555
O50 Ti8 2.124022 1_556
O51 S20 1.487214 1_555
O51 Ti9 2.034419 1_556
O52 Si7 1.639129 1_555
O52 Ti8 1.786628 1_556
O53 S21 1.480637 1_555
O53 Ti9 2.023468 1_556
O54 S22 1.483371 1_555
O54 Ti10 2.060727 1_555
O55 S23 1.475892 1_555
O55 Ti11 2.195089 1_555
O56 S24 1.494548 1_555
O56 Ti10 1.998933 1_555
O57 Si8 1.666699 1_555
O57 Ti11 1.751199 1_555
O58 S25 1.500875 1_555
O58 Ti10 1.990725 1_555
O59 S26 1.488872 1_555
O59 Ti11 2.045537 1_555
O60 S25 1.465317 1_555
O61 S26 1.462182 1_555
O62 S22 1.477957 1_555
O63 S23 1.460783 1_555
O64 S24 1.465518 1_555
O65 Si8 1.593001 1_555
O66 S19 1.480022 1_555
O67 S20 1.474381 1_555
O68 Si7 1.597105 1_555
O69 S21 1.476006 1_555
O70 S17 1.492356 1_555
O71 S18 1.471660 1_555
O72 S25 1.487324 1_555
O73 S26 1.481064 1_555
O73 Ti0 2.014081 1_565
O74 S22 1.453309 1_555
O74 Ti0 2.179130 1_565
O75 S23 1.509000 1_555
O76 S24 1.483113 1_555
O77 Si8 1.653371 1_555
O77 Ti0 1.778967 1_555
O78 S19 1.497603 1_555
O78 Ti1 1.948005 1_545
O79 S20 1.492389 1_555
O80 Si7 1.677349 1_555
O80 Ti1 1.742531 1_555
O81 S21 1.488468 1_555
O82 S17 1.504481 1_555
O83 S18 1.495255 1_555
O83 Ti1 1.967946 1_655
O84 Si3 1.627270 1_555
O84 Ti2 1.783260 1_555
O85 Si4 1.610809 1_555
O86 S9 1.473596 1_555
O87 S10 1.487412 1_555
O87 Ti2 1.980392 1_555
O88 S11 1.451789 1_555
O88 Ti2 2.172550 1_565
O89 S12 1.485043 1_555
O90 Si5 1.602818 1_555
O91 Si6 1.634038 1_555
O91 Ti3 1.785561 1_655
O92 S13 1.470227 1_555
O93 S14 1.454023 1_555
O93 Ti3 2.184658 1_645
O94 S15 1.481157 1_555
O94 Ti3 1.999358 1_545
O95 S16 1.467857 1_555
O96 S7 1.514734 1_545
O96 Ti4 2.057198 1_555
O97 S8 1.491462 1_545
O97 Ti5 2.058253 1_555
O98 S4 1.493701 1_555
O98 Ti4 2.147257 1_555
O99 Si2 1.650965 1_555
O99 Ti5 1.881583 1_555
O100 S6 1.528513 1_555
O100 Ti4 2.003699 1_555
O101 S5 1.488491 1_655
O101 Ti5 2.068551 1_555
O102 S0 1.501213 1_555
O102 Ti6 2.017551 1_555
O103 S1 1.501840 1_555
O103 Ti7 2.034293 1_555
O104 S3 1.510332 1_555
O104 Ti6 1.994711 1_555
O105 S2 1.507269 1_655
O105 Ti7 2.002302 1_555
O106 Si0 1.646772 1_545
O106 Ti6 1.874082 1_555
O107 Si1 1.668157 1_545
O107 Ti7 1.841289 1_555
O108 S17 1.481552 1_555
O109 S18 1.494781 1_555
O110 S20 1.470833 1_555
O111 S19 1.488423 1_655
O112 Si7 1.595314 1_545
O113 S21 1.494596 1_545
O114 S22 1.506947 1_545
O115 S23 1.494062 1_545
O116 S24 1.492191 1_555
O117 Si8 1.610647 1_555
O118 S26 1.500477 1_555
O119 S25 1.470771 1_655
O120 S15 1.467840 1_555
O120 Ti8 2.032414 1_555
O121 S16 1.498453 1_555
O121 Ti9 1.934957 1_555
O122 Si6 1.649693 1_455
O122 Ti8 1.766785 1_555
O123 Si5 1.689024 1_555
O123 Ti9 1.736429 1_555
O124 S13 1.491571 1_565
O124 Ti8 1.968426 1_555
O125 S14 1.498050 1_565
O125 Ti9 1.940193 1_555
O126 S9 1.478326 1_565
O126 Ti10 2.002942 1_555
O127 S10 1.456577 1_565
O127 Ti11 2.072460 1_555
O128 S11 1.482589 1_555
O128 Ti10 1.996482 1_555
O129 S12 1.474315 1_555
O129 Ti11 2.021700 1_555
O130 Si4 1.681026 1_455
O130 Ti10 1.752640 1_555
O131 Si3 1.620011 1_555
O131 Ti11 1.806112 1_555
O132 Si0 1.586608 1_555
O133 Si1 1.581238 1_555
O134 S0 1.472941 1_555
O135 S1 1.450340 1_555
O136 S2 1.462696 1_555
O137 S3 1.456454 1_555
O138 S4 1.469081 1_555
O139 Si2 1.587509 1_555
O140 S5 1.467806 1_555
O141 S6 1.463769 1_555
O142 S7 1.468638 1_555
O143 S8 1.468978 1_555
