# generated using pymatgen
data_Eu(MnAs)2
_symmetry_space_group_name_H-M   'P 1'
_cell_length_a   4.01480465
_cell_length_b   4.01480465
_cell_length_c   7.12474200
_cell_angle_alpha   90.00000000
_cell_angle_beta   90.00000000
_cell_angle_gamma   120.00001063
_symmetry_Int_Tables_number   1
_chemical_formula_structural   Eu(MnAs)2
_chemical_formula_sum   'Eu1 Mn2 As2'
_cell_volume   99.45544466
_cell_formula_units_Z   1
loop_
 _symmetry_equiv_pos_site_id
 _symmetry_equiv_pos_as_xyz
  1  'x, y, z'
loop_
 _atom_site_type_symbol
 _atom_site_label
 _atom_site_symmetry_multiplicity
 _atom_site_fract_x
 _atom_site_fract_y
 _atom_site_fract_z
 _atom_site_occupancy
  Eu  Eu0  1  0.00000000  0.00000000  0.00000000  1
  Mn  Mn0  1  0.66666700  0.33333300  0.38567900  1
  Mn  Mn1  1  0.33333300  0.66666700  0.61432100  1
  As  As0  1  0.66666700  0.33333300  0.72484300  1
  As  As1  1  0.33333300  0.66666700  0.27515700  1
loop_
_geom_bond_atom_site_label_1
_geom_bond_atom_site_label_2
_geom_bond_distance
_geom_bond_site_symmetry_2
As0 Mn0 2.416456 1_555
As0 Mn1 2.448047 1_545
As0 Mn1 2.448047 1_655
As0 Mn1 2.448054 1_555
As0 Eu0 3.035808 1_656
As0 Eu0 3.035811 1_556
As0 Eu0 3.035811 1_666
As1 Mn1 2.416456 1_555
As1 Mn0 2.448047 1_565
As1 Mn0 2.448047 1_455
As1 Mn0 2.448054 1_555
As1 Eu0 3.035808 1_565
As1 Eu0 3.035811 1_555
As1 Eu0 3.035811 1_665
