# generated using pymatgen
data_MgFe5CuO8
_symmetry_space_group_name_H-M   'P 1'
_cell_length_a   6.37350698
_cell_length_b   6.37350844
_cell_length_c   6.37350807
_cell_angle_alpha   56.48187462
_cell_angle_beta   56.48187578
_cell_angle_gamma   56.48188276
_symmetry_Int_Tables_number   1
_chemical_formula_structural   MgFe5CuO8
_chemical_formula_sum   'Mg1 Fe5 Cu1 O8'
_cell_volume   168.18345293
_cell_formula_units_Z   1
loop_
 _symmetry_equiv_pos_site_id
 _symmetry_equiv_pos_as_xyz
  1  'x, y, z'
loop_
 _atom_site_type_symbol
 _atom_site_label
 _atom_site_symmetry_multiplicity
 _atom_site_fract_x
 _atom_site_fract_y
 _atom_site_fract_z
 _atom_site_occupancy
  Mg  Mg0  1  0.12500000  0.12500000  0.12500000  1
  Fe  Fe0  1  0.97321700  0.97321700  0.97321700  1
  Fe  Fe1  1  0.27678300  0.27678300  0.27678300  1
  Fe  Fe2  1  0.12500000  0.62500000  0.62500000  1
  Fe  Fe3  1  0.62500000  0.12500000  0.62500000  1
  Fe  Fe4  1  0.62500000  0.62500000  0.12500000  1
  Cu  Cu0  1  0.62500000  0.62500000  0.62500000  1
  O  O0  1  0.39401800  0.39401800  0.39401800  1
  O  O1  1  0.36794700  0.89368300  0.36794700  1
  O  O2  1  0.36794700  0.36794700  0.89368300  1
  O  O3  1  0.89368300  0.36794700  0.36794700  1
  O  O4  1  0.35631700  0.88205300  0.88205300  1
  O  O5  1  0.88205300  0.88205300  0.35631700  1
  O  O6  1  0.88205300  0.35631700  0.88205300  1
  O  O7  1  0.85598200  0.85598200  0.85598200  1
loop_
_geom_bond_atom_site_label_1
_geom_bond_atom_site_label_2
_geom_bond_distance
_geom_bond_site_symmetry_2
Mg0 O2 2.138780 1_554
Mg0 O5 2.138780 1_445
Mg0 O6 2.138781 1_454
Mg0 O1 2.138781 1_545
Mg0 O3 2.138781 1_455
Mg0 O4 2.138781 1_544
Fe0 O7 1.877417 1_555
Fe0 O4 1.968822 1_655
Fe0 O5 1.968822 1_556
Fe0 O6 1.968822 1_565
Fe1 O0 1.877417 1_555
Fe1 O3 1.968822 1_455
Fe1 O2 1.968822 1_554
Fe1 O1 1.968822 1_545
Fe2 O0 2.023000 1_555
Fe2 O7 2.023000 1_455
Fe2 O1 2.245557 1_555
Fe2 O6 2.245557 1_455
Fe2 O5 2.245557 1_455
Fe2 O2 2.245557 1_555
Fe3 O7 2.022999 1_545
Fe3 O0 2.022999 1_555
Fe3 O4 2.245557 1_545
Fe3 O3 2.245557 1_555
Fe3 O5 2.245558 1_545
Fe3 O2 2.245558 1_555
Fe4 O7 2.022999 1_554
Fe4 O0 2.022999 1_555
Fe4 O4 2.245557 1_554
Fe4 O3 2.245557 1_555
Fe4 O6 2.245558 1_554
Fe4 O1 2.245558 1_555
Cu0 O5 2.251257 1_555
Cu0 O2 2.251257 1_555
Cu0 O1 2.251257 1_555
Cu0 O6 2.251257 1_555
Cu0 O3 2.251257 1_555
Cu0 O4 2.251257 1_555
