# generated using pymatgen
data_NaYNb(PO4)3
_symmetry_space_group_name_H-M   'P 1'
_cell_length_a   9.01239501
_cell_length_b   9.01239471
_cell_length_c   23.19790772
_cell_angle_alpha   90.00000000
_cell_angle_beta   90.00000000
_cell_angle_gamma   120.00000113
_symmetry_Int_Tables_number   1
_chemical_formula_structural   NaYNb(PO4)3
_chemical_formula_sum   'Na6 Y6 Nb6 P18 O72'
_cell_volume   1631.77346176
_cell_formula_units_Z   6
loop_
 _symmetry_equiv_pos_site_id
 _symmetry_equiv_pos_as_xyz
  1  'x, y, z'
loop_
 _atom_site_type_symbol
 _atom_site_label
 _atom_site_symmetry_multiplicity
 _atom_site_fract_x
 _atom_site_fract_y
 _atom_site_fract_z
 _atom_site_occupancy
  Na  Na0  1  0.00000000  0.00000000  0.49713202  1
  Na  Na1  1  0.00000000  0.00000000  0.99713202  1
  Na  Na2  1  0.66666700  0.33333300  0.83046502  1
  Na  Na3  1  0.66666700  0.33333300  0.33046502  1
  Na  Na4  1  0.33333300  0.66666700  0.16379902  1
  Na  Na5  1  0.33333300  0.66666700  0.66379902  1
  Y  Y0  1  0.00000000  0.00000000  0.35482272  1
  Y  Y1  1  0.00000000  0.00000000  0.85482272  1
  Y  Y2  1  0.66666700  0.33333300  0.68815572  1
  Y  Y3  1  0.66666700  0.33333300  0.18815572  1
  Y  Y4  1  0.33333300  0.66666700  0.02148972  1
  Y  Y5  1  0.33333300  0.66666700  0.52148972  1
  Nb  Nb0  1  0.00000000  0.00000000  0.64784996  1
  Nb  Nb1  1  0.00000000  0.00000000  0.14784996  1
  Nb  Nb2  1  0.66666700  0.33333300  0.98118296  1
  Nb  Nb3  1  0.66666700  0.33333300  0.48118296  1
  Nb  Nb4  1  0.33333300  0.66666700  0.31451696  1
  Nb  Nb5  1  0.33333300  0.66666700  0.81451696  1
  P  P0  1  0.28453966  0.98424503  0.25067666  1
  P  P1  1  0.69970537  0.71546034  0.25067666  1
  P  P2  1  0.01575497  0.30029463  0.25067666  1
  P  P3  1  0.28453966  0.30029463  0.75067666  1
  P  P4  1  0.01575497  0.71546034  0.75067666  1
  P  P5  1  0.69970537  0.98424503  0.75067666  1
  P  P6  1  0.95120666  0.31757803  0.58400966  1
  P  P7  1  0.36637237  0.04879334  0.58400966  1
  P  P8  1  0.68242197  0.63362763  0.58400966  1
  P  P9  1  0.95120666  0.63362763  0.08400966  1
  P  P10  1  0.68242197  0.04879334  0.08400966  1
  P  P11  1  0.36637237  0.31757803  0.08400966  1
  P  P12  1  0.61787266  0.65091203  0.91734366  1
  P  P13  1  0.03303837  0.38212734  0.91734366  1
  P  P14  1  0.34908797  0.96696163  0.91734366  1
  P  P15  1  0.61787266  0.96696163  0.41734366  1
  P  P16  1  0.34908797  0.38212734  0.41734366  1
  P  P17  1  0.03303837  0.65091203  0.41734366  1
  O  O0  1  0.20446082  0.00798409  0.30386084  1
  O  O1  1  0.80352327  0.79553918  0.30386084  1
  O  O2  1  0.99201591  0.19647673  0.30386084  1
  O  O3  1  0.20446082  0.19647673  0.80386084  1
  O  O4  1  0.99201591  0.79553918  0.80386084  1
  O  O5  1  0.80352327  0.00798409  0.80386084  1
  O  O6  1  0.79939891  0.96716758  0.69583973  1
  O  O7  1  0.16776866  0.20060109  0.69583973  1
  O  O8  1  0.03283242  0.83223134  0.69583973  1
  O  O9  1  0.79939891  0.83223134  0.19583973  1
  O  O10  1  0.03283242  0.20060109  0.19583973  1
  O  O11  1  0.16776866  0.96716758  0.19583973  1
  O  O12  1  0.87112782  0.34131709  0.63719384  1
  O  O13  1  0.47019027  0.12887218  0.63719384  1
  O  O14  1  0.65868291  0.52980973  0.63719384  1
  O  O15  1  0.87112782  0.52980973  0.13719384  1
  O  O16  1  0.65868291  0.12887218  0.13719384  1
  O  O17  1  0.47019027  0.34131709  0.13719384  1
  O  O18  1  0.46606591  0.30050058  0.02917273  1
  O  O19  1  0.83443566  0.53393409  0.02917273  1
  O  O20  1  0.69949942  0.16556434  0.02917273  1
  O  O21  1  0.46606591  0.16556434  0.52917273  1
  O  O22  1  0.69949942  0.53393409  0.52917273  1
  O  O23  1  0.83443566  0.30050058  0.52917273  1
  O  O24  1  0.53779382  0.67465109  0.97052784  1
  O  O25  1  0.13685627  0.46220618  0.97052784  1
  O  O26  1  0.32534891  0.86314373  0.97052784  1
  O  O27  1  0.53779382  0.86314373  0.47052784  1
  O  O28  1  0.32534891  0.46220618  0.47052784  1
  O  O29  1  0.13685627  0.67465109  0.47052784  1
  O  O30  1  0.13273191  0.63383458  0.36250673  1
  O  O31  1  0.50110166  0.86726809  0.36250673  1
  O  O32  1  0.36616542  0.49889834  0.36250673  1
  O  O33  1  0.13273191  0.49889834  0.86250673  1
  O  O34  1  0.36616542  0.86726809  0.86250673  1
  O  O35  1  0.50110166  0.63383458  0.86250673  1
  O  O36  1  0.99710083  0.79734408  0.41054181  1
  O  O37  1  0.80024324  0.00289917  0.41054181  1
  O  O38  1  0.20265592  0.19975676  0.41054181  1
  O  O39  1  0.99710083  0.19975676  0.91054181  1
  O  O40  1  0.20265592  0.00289917  0.91054181  1
  O  O41  1  0.80024324  0.79734408  0.91054181  1
  O  O42  1  0.95390643  0.14418252  0.58914606  1
  O  O43  1  0.19027609  0.04609357  0.58914606  1
  O  O44  1  0.85581748  0.80972391  0.58914606  1
  O  O45  1  0.95390643  0.80972391  0.08914606  1
  O  O46  1  0.85581748  0.04609357  0.08914606  1
  O  O47  1  0.19027609  0.14418252  0.08914606  1
  O  O48  1  0.66376783  0.13067708  0.74387481  1
  O  O49  1  0.46691024  0.33623217  0.74387481  1
  O  O50  1  0.86932292  0.53308976  0.74387481  1
  O  O51  1  0.66376783  0.53308976  0.24387481  1
  O  O52  1  0.86932292  0.33623217  0.24387481  1
  O  O53  1  0.46691024  0.13067708  0.24387481  1
  O  O54  1  0.62057343  0.47751552  0.92247906  1
  O  O55  1  0.85694309  0.37942657  0.92247906  1
  O  O56  1  0.52248448  0.14305691  0.92247906  1
  O  O57  1  0.62057343  0.14305691  0.42247906  1
  O  O58  1  0.52248448  0.37942657  0.42247906  1
  O  O59  1  0.85694309  0.47751552  0.42247906  1
  O  O60  1  0.33043383  0.46401108  0.07720881  1
  O  O61  1  0.13357624  0.66956617  0.07720881  1
  O  O62  1  0.53598892  0.86642376  0.07720881  1
  O  O63  1  0.33043383  0.86642376  0.57720881  1
  O  O64  1  0.53598892  0.66956617  0.57720881  1
  O  O65  1  0.13357624  0.46401108  0.57720881  1
  O  O66  1  0.28723943  0.81084952  0.25581306  1
  O  O67  1  0.52360909  0.71276057  0.25581306  1
  O  O68  1  0.18915048  0.47639091  0.25581306  1
  O  O69  1  0.28723943  0.47639091  0.75581306  1
  O  O70  1  0.18915048  0.71276057  0.75581306  1
  O  O71  1  0.52360909  0.81084952  0.75581306  1
loop_
_geom_bond_atom_site_label_1
_geom_bond_atom_site_label_2
_geom_bond_distance
_geom_bond_site_symmetry_2
Na0 O44 2.637635 1_445
Na0 O42 2.637635 1_455
Na0 O43 2.637635 1_555
Na0 O36 2.706229 1_445
Na0 O38 2.706229 1_555
Na0 O37 2.706229 1_455
Na1 O45 2.637635 1_446
Na1 O47 2.637635 1_556
Na1 O46 2.637635 1_456
Na1 O41 2.706229 1_445
Na1 O40 2.706229 1_555
Na1 O39 2.706229 1_455
Na2 O56 2.637635 1_555
Na2 O54 2.637635 1_555
Na2 O55 2.637635 1_555
Na2 O48 2.706229 1_555
Na2 O50 2.706229 1_555
Na2 O49 2.706229 1_555
Na3 O57 2.637635 1_555
Na3 O59 2.637635 1_555
Na3 O58 2.637635 1_555
Na3 O53 2.706229 1_555
Na3 O52 2.706229 1_555
Na3 O51 2.706229 1_555
Na4 O68 2.637635 1_555
Na4 O66 2.637635 1_555
Na4 O67 2.637635 1_555
Na4 O60 2.706229 1_555
Na4 O62 2.706229 1_555
Na4 O61 2.706229 1_555
Na5 O69 2.637635 1_555
Na5 O71 2.637635 1_555
Na5 O70 2.637635 1_555
Na5 O65 2.706229 1_555
Na5 O64 2.706229 1_555
Na5 O63 2.706229 1_555
Nb0 O8 2.015054 1_545
Nb0 O7 2.015054 1_555
Nb0 O6 2.015054 1_445
Nb0 O44 2.062864 1_445
Nb0 O42 2.062864 1_455
Nb0 O43 2.062864 1_555
Nb1 O11 2.015054 1_545
Nb1 O9 2.015054 1_445
Nb1 O10 2.015054 1_555
Nb1 O45 2.062864 1_445
Nb1 O47 2.062864 1_555
Nb1 O46 2.062864 1_455
Nb2 O20 2.015054 1_556
Nb2 O19 2.015054 1_556
Nb2 O18 2.015054 1_556
Nb2 O56 2.062864 1_555
Nb2 O54 2.062864 1_555
Nb2 O55 2.062864 1_555
Nb3 O23 2.015054 1_555
Nb3 O21 2.015054 1_555
Nb3 O22 2.015054 1_555
Nb3 O57 2.062864 1_555
Nb3 O59 2.062864 1_555
Nb3 O58 2.062864 1_555
Nb4 O32 2.015054 1_555
Nb4 O31 2.015054 1_555
Nb4 O30 2.015054 1_555
Nb4 O68 2.062864 1_555
Nb4 O66 2.062864 1_555
Nb4 O67 2.062864 1_555
Nb5 O35 2.015054 1_555
Nb5 O33 2.015054 1_555
Nb5 O34 2.015054 1_555
Nb5 O69 2.062864 1_555
Nb5 O71 2.062864 1_555
Nb5 O70 2.062864 1_555
O0 P0 1.497732 1_545
O0 Y0 2.160018 1_555
O1 P1 1.497732 1_555
O1 Y0 2.160018 1_665
O2 P2 1.497732 1_655
O2 Y0 2.160018 1_655
O3 P3 1.497732 1_555
O3 Y1 2.160018 1_555
O4 P4 1.497732 1_655
O4 Y1 2.160018 1_665
O5 P5 1.497732 1_545
O5 Y1 2.160018 1_655
O6 P5 1.608564 1_555
O7 P3 1.608564 1_555
O8 P4 1.608564 1_555
O9 P1 1.608564 1_555
O10 P2 1.608564 1_555
O11 P0 1.608564 1_555
O12 P6 1.497732 1_555
O12 Y2 2.160018 1_555
O13 P7 1.497732 1_555
O13 Y2 2.160018 1_555
O14 P8 1.497732 1_555
O14 Y2 2.160018 1_555
O15 P9 1.497732 1_555
O15 Y3 2.160018 1_555
O16 P10 1.497732 1_555
O16 Y3 2.160018 1_555
O17 P11 1.497732 1_555
O17 Y3 2.160018 1_555
O18 P11 1.608564 1_555
O19 P9 1.608564 1_555
O20 P10 1.608564 1_555
O21 P7 1.608564 1_555
O22 P8 1.608564 1_555
O23 P6 1.608564 1_555
O24 P12 1.497732 1_555
O24 Y4 2.160018 1_556
O25 P13 1.497732 1_555
O25 Y4 2.160018 1_556
O26 P14 1.497732 1_555
O26 Y4 2.160018 1_556
O27 P15 1.497732 1_555
O27 Y5 2.160018 1_555
O28 P16 1.497732 1_555
O28 Y5 2.160018 1_555
O29 P17 1.497732 1_555
O29 Y5 2.160018 1_555
O30 P17 1.608564 1_555
O31 P15 1.608564 1_555
O32 P16 1.608564 1_555
O33 P13 1.608564 1_555
O34 P14 1.608564 1_555
O35 P12 1.608564 1_555
O36 P17 1.516194 1_655
O36 Y0 2.226989 1_665
O37 P15 1.516203 1_545
O37 Y0 2.226989 1_655
O38 P16 1.516200 1_555
O38 Y0 2.226989 1_555
O39 P13 1.516203 1_655
O39 Y1 2.226989 1_655
O40 P14 1.516194 1_545
O40 Y1 2.226989 1_555
O41 P12 1.516200 1_555
O41 Y1 2.226989 1_665
O42 P6 1.579516 1_555
O43 P7 1.579525 1_555
O44 P8 1.579521 1_555
O45 P9 1.579525 1_555
O46 P10 1.579516 1_555
O47 P11 1.579521 1_555
O48 P5 1.516194 1_545
O48 Y2 2.226989 1_555
O49 P3 1.516203 1_555
O49 Y2 2.226989 1_555
O50 P4 1.516200 1_655
O50 Y2 2.226989 1_555
O51 P1 1.516203 1_555
O51 Y3 2.226989 1_555
O52 P2 1.516194 1_655
O52 Y3 2.226989 1_555
O53 P0 1.516200 1_545
O53 Y3 2.226989 1_555
O54 P12 1.579528 1_555
O55 P13 1.579510 1_655
O56 P14 1.579519 1_545
O57 P15 1.579510 1_545
O58 P16 1.579528 1_555
O59 P17 1.579519 1_655
O60 P11 1.516206 1_555
O60 Y4 2.226989 1_555
O61 P9 1.516189 1_455
O61 Y4 2.226989 1_555
O62 P10 1.516195 1_565
O62 Y4 2.226989 1_555
O63 P7 1.516189 1_565
O63 Y5 2.226989 1_555
O64 P8 1.516206 1_555
O64 Y5 2.226989 1_555
O65 P6 1.516195 1_455
O65 Y5 2.226989 1_555
O66 P0 1.579516 1_555
O67 P1 1.579525 1_555
O68 P2 1.579521 1_555
O69 P3 1.579525 1_555
O70 P4 1.579516 1_555
O71 P5 1.579521 1_555
