# generated using pymatgen
data_MgTiZn2WO6
_symmetry_space_group_name_H-M   'P 1'
_cell_length_a   5.47577426
_cell_length_b   5.26444123
_cell_length_c   8.61025520
_cell_angle_alpha   82.95574608
_cell_angle_beta   141.20555814
_cell_angle_gamma   115.99133134
_symmetry_Int_Tables_number   1
_chemical_formula_structural   MgTiZn2WO6
_chemical_formula_sum   'Mg1 Ti1 Zn2 W1 O6'
_cell_volume   128.78637752
_cell_formula_units_Z   1
loop_
 _symmetry_equiv_pos_site_id
 _symmetry_equiv_pos_as_xyz
  1  'x, y, z'
loop_
 _atom_site_type_symbol
 _atom_site_label
 _atom_site_symmetry_multiplicity
 _atom_site_fract_x
 _atom_site_fract_y
 _atom_site_fract_z
 _atom_site_occupancy
  Mg  Mg0  1  0.37442767  0.15967714  0.51959107  1
  Ti  Ti0  1  0.71224521  0.81196767  0.49203582  1
  Zn  Zn0  1  0.71961433  0.31032466  0.05352052  1
  Zn  Zn1  1  0.37231704  0.65818884  0.96920168  1
  W  W0  1  0.04572511  0.98574977  0.00766493  1
  O  O0  1  0.04536866  0.76177274  0.23810024  1
  O  O1  1  0.02053895  0.20059148  0.76435118  1
  O  O2  1  0.34887644  0.39310975  0.27514148  1
  O  O3  1  0.39825462  0.95788468  0.75978956  1
  O  O4  1  0.70489549  0.03355159  0.26165218  1
  O  O5  1  0.77318549  0.60962268  0.74227135  1
loop_
_geom_bond_atom_site_label_1
_geom_bond_atom_site_label_2
_geom_bond_distance
_geom_bond_site_symmetry_2
Mg0 O5 2.027186 1_555
Mg0 O4 2.085727 1_455
Mg0 O3 2.141230 1_545
Mg0 O0 2.153729 1_545
Mg0 O1 2.196774 1_655
Mg0 O2 2.239882 1_555
O0 Zn0 2.036590 1_455
O0 Zn1 2.118429 1_454
O0 W0 2.181101 1_555
O0 Ti0 2.243945 1_555
O1 Zn1 2.074535 1_555
O1 Ti0 2.124275 1_445
O1 Zn0 2.178088 1_556
O1 W0 2.189154 1_546
O2 Ti0 1.918642 1_555
O2 Zn0 2.083877 1_455
O2 W0 2.188714 1_545
O3 Zn0 2.070593 1_566
O3 Ti0 2.102769 1_455
O3 W0 2.229859 1_656
O3 Zn1 2.294687 1_555
O4 Zn1 2.116638 1_544
O4 Ti0 2.155561 1_545
O4 Zn0 2.196085 1_555
O4 W0 2.215525 1_545
O5 Zn1 2.010298 1_655
O5 Ti0 2.125140 1_555
O5 W0 2.138602 1_656
