# generated using pymatgen
data_V4P2C
_symmetry_space_group_name_H-M   'P 1'
_cell_length_a   9.50119361
_cell_length_b   9.50122689
_cell_length_c   3.15018177
_cell_angle_alpha   90.00000254
_cell_angle_beta   89.99999601
_cell_angle_gamma   119.99939950
_symmetry_Int_Tables_number   1
_chemical_formula_structural   V4P2C
_chemical_formula_sum   'V12 P6 C3'
_cell_volume   246.27863106
_cell_formula_units_Z   3
loop_
 _symmetry_equiv_pos_site_id
 _symmetry_equiv_pos_as_xyz
  1  'x, y, z'
loop_
 _atom_site_type_symbol
 _atom_site_label
 _atom_site_symmetry_multiplicity
 _atom_site_fract_x
 _atom_site_fract_y
 _atom_site_fract_z
 _atom_site_occupancy
  V  V0  1  0.81409631  -0.00003211  -0.00000008  1
  V  V1  1  0.18585026  0.18587482  -0.00000007  1
  V  V2  1  0.00000927  0.81413100  0.00000011  1
  V  V3  1  -0.00003375  0.53322041  0.00000005  1
  V  V4  1  0.46681588  0.46675607  -0.00000002  1
  V  V5  1  0.53328393  0.00005709  -0.00000006  1
  V  V6  1  0.45156228  0.20703459  0.49999980  1
  V  V7  1  0.79297446  0.24452928  0.49999988  1
  V  V8  1  0.75547189  0.54844718  0.49999997  1
  V  V9  1  0.54844212  0.75549286  0.49999980  1
  V  V10  1  0.24451945  0.79294465  0.50000004  1
  V  V11  1  0.20707395  0.45157682  0.50000011  1
  P  P0  1  0.00005054  0.00002939  0.50000008  1
  P  P1  1  0.66662893  0.33331802  0.00000023  1
  P  P2  1  0.33331363  0.66664611  0.00000003  1
  P  P3  1  0.00002018  0.28207314  -0.00000009  1
  P  P4  1  0.71791551  0.71793671  0.00000002  1
  P  P5  1  0.28204527  -0.00000357  0.00000014  1
  C  C0  1  -0.00001466  0.66947533  0.50000004  1
  C  C1  1  0.33050633  0.33051832  0.50000008  1
  C  C2  1  0.66946722  -0.00002611  0.49999995  1
loop_
_geom_bond_atom_site_label_1
_geom_bond_atom_site_label_2
_geom_bond_distance
_geom_bond_site_symmetry_2
P0 V1 2.366030 1_556
P0 V1 2.366030 1_555
P0 V2 2.366411 1_545
P0 V2 2.366412 1_546
P0 V0 2.366731 1_456
P0 V0 2.366732 1_455
P1 V6 2.375768 1_555
P1 V6 2.375769 1_554
P1 V8 2.376133 1_555
P1 V8 2.376134 1_554
P1 V7 2.376191 1_555
P1 V7 2.376192 1_554
P1 V4 2.760148 1_555
P1 V5 2.760362 1_555
P1 V3 2.760928 1_655
P2 V11 2.375756 1_554
P2 V11 2.375757 1_555
P2 V10 2.375919 1_555
P2 V10 2.375919 1_554
P2 V9 2.376121 1_555
P2 V9 2.376121 1_554
P2 V3 2.761017 1_555
P2 V4 2.761311 1_555
P2 V5 2.761572 1_565
P3 V1 2.359345 1_555
P3 V0 2.360091 1_455
P3 V3 2.386463 1_555
P3 V7 2.403383 1_455
P3 V7 2.403384 1_454
P3 V11 2.403436 1_554
P3 V11 2.403437 1_555
P4 V0 2.359422 1_565
P4 V2 2.359950 1_655
P4 V4 2.386157 1_555
P4 V9 2.403234 1_555
P4 V9 2.403235 1_554
P4 V8 2.403353 1_555
P4 V8 2.403354 1_554
P5 V2 2.359484 1_545
P5 V1 2.359757 1_555
P5 V5 2.386779 1_555
P5 V6 2.403399 1_555
P5 V6 2.403400 1_554
P5 V10 2.403476 1_545
P5 V10 2.403477 1_544
C0 V8 2.011970 1_455
C0 V10 2.012139 1_555
C0 V3 2.038783 1_555
C0 V3 2.038783 1_556
C0 V2 2.090357 1_555
C0 V2 2.090357 1_556
C1 V11 2.011767 1_555
C1 V6 2.012170 1_555
C1 V4 2.038960 1_556
C1 V4 2.038960 1_555
C1 V1 2.090401 1_556
C1 V1 2.090402 1_555
C2 V9 2.011709 1_545
C2 V7 2.012322 1_555
C2 V5 2.038657 1_556
C2 V5 2.038657 1_555
C2 V0 2.090281 1_555
C2 V0 2.090281 1_556
