# generated using pymatgen
data_CdP2(HO)4
_symmetry_space_group_name_H-M   'P 1'
_cell_length_a   8.41353847
_cell_length_b   8.41353847
_cell_length_c   6.64482872
_cell_angle_alpha   79.25011936
_cell_angle_beta   79.25011936
_cell_angle_gamma   38.53647326
_symmetry_Int_Tables_number   1
_chemical_formula_structural   CdP2(HO)4
_chemical_formula_sum   'Cd2 P4 H8 O8'
_cell_volume   287.27001100
_cell_formula_units_Z   2
loop_
 _symmetry_equiv_pos_site_id
 _symmetry_equiv_pos_as_xyz
  1  'x, y, z'
loop_
 _atom_site_type_symbol
 _atom_site_label
 _atom_site_symmetry_multiplicity
 _atom_site_fract_x
 _atom_site_fract_y
 _atom_site_fract_z
 _atom_site_occupancy
  Cd  Cd0  1  0.17163800  0.82836200  0.25000000  1
  Cd  Cd1  1  0.82836200  0.17163800  0.75000000  1
  P  P0  1  0.81953400  0.45334500  0.29046100  1
  P  P1  1  0.54665500  0.18046600  0.20953900  1
  P  P2  1  0.18046600  0.54665500  0.70953900  1
  P  P3  1  0.45334500  0.81953400  0.79046100  1
  H  H0  1  0.89686800  0.51702200  0.39195400  1
  H  H1  1  0.48297800  0.10313200  0.10804600  1
  H  H2  1  0.10313200  0.48297800  0.60804600  1
  H  H3  1  0.51702200  0.89686800  0.89195400  1
  H  H4  1  0.95018200  0.38937900  0.09340400  1
  H  H5  1  0.61062100  0.04981800  0.40659600  1
  H  H6  1  0.04981800  0.61062100  0.90659600  1
  H  H7  1  0.38937900  0.95018200  0.59340400  1
  O  O0  1  0.31135600  0.46672200  0.22917100  1
  O  O1  1  0.53327800  0.68864400  0.27082900  1
  O  O2  1  0.20693200  0.92957600  0.89926700  1
  O  O3  1  0.07042400  0.79306800  0.60073300  1
  O  O4  1  0.79306800  0.07042400  0.10073300  1
  O  O5  1  0.92957600  0.20693200  0.39926700  1
  O  O6  1  0.46672200  0.31135600  0.72917100  1
  O  O7  1  0.68864400  0.53327800  0.77082900  1
loop_
_geom_bond_atom_site_label_1
_geom_bond_atom_site_label_2
_geom_bond_distance
_geom_bond_site_symmetry_2
Cd0 O0 2.271507 1_555
Cd0 O1 2.271507 1_555
Cd0 O4 2.356547 1_465
Cd0 O5 2.356547 1_465
Cd0 O3 2.375276 1_555
Cd0 O2 2.375276 1_554
Cd1 O6 2.271507 1_555
Cd1 O7 2.271507 1_555
Cd1 O2 2.356547 1_645
Cd1 O3 2.356547 1_645
Cd1 O5 2.375276 1_555
Cd1 O4 2.375276 1_556
H0 P0 1.417396 1_555
H1 P1 1.417396 1_555
H2 P2 1.417396 1_555
H3 P3 1.417396 1_555
H4 P0 1.418782 1_555
H5 P1 1.418782 1_555
H6 P2 1.418782 1_555
H7 P3 1.418782 1_555
O0 P1 1.516080 1_555
O1 P0 1.516080 1_555
O2 P3 1.538110 1_555
O3 P2 1.538110 1_555
O4 P1 1.538110 1_555
O5 P0 1.538110 1_555
O6 P2 1.516080 1_555
O7 P3 1.516080 1_555
