# generated using pymatgen
data_CaH2
_symmetry_space_group_name_H-M   'P 1'
_cell_length_a   3.81411849
_cell_length_b   3.81411849
_cell_length_c   5.34611167
_cell_angle_alpha   90.00000000
_cell_angle_beta   90.00000000
_cell_angle_gamma   120.45054859
_symmetry_Int_Tables_number   1
_chemical_formula_structural   CaH2
_chemical_formula_sum   'Ca2 H4'
_cell_volume   67.04514796
_cell_formula_units_Z   2
loop_
 _symmetry_equiv_pos_site_id
 _symmetry_equiv_pos_as_xyz
  1  'x, y, z'
loop_
 _atom_site_type_symbol
 _atom_site_label
 _atom_site_symmetry_multiplicity
 _atom_site_fract_x
 _atom_site_fract_y
 _atom_site_fract_z
 _atom_site_occupancy
  Ca  Ca0  1  0.16436503  0.83563497  0.25000000  1
  Ca  Ca1  1  0.83563497  0.16436503  0.75000000  1
  H  H0  1  0.83215228  0.16784772  0.25000000  1
  H  H1  1  0.16784772  0.83215228  0.75000000  1
  H  H2  1  0.50000000  0.50000000  0.00000000  1
  H  H3  1  0.50000000  0.50000000  0.50000000  1
loop_
_geom_bond_atom_site_label_1
_geom_bond_atom_site_label_2
_geom_bond_distance
_geom_bond_site_symmetry_2
Ca0 H0 2.195829 1_565
Ca0 H0 2.195829 1_455
Ca0 H0 2.199644 1_465
Ca0 H2 2.560887 1_565
Ca0 H2 2.560887 1_455
Ca0 H3 2.560887 1_455
Ca0 H3 2.560887 1_565
Ca0 H3 2.593249 1_555
Ca0 H2 2.593249 1_555
Ca0 H1 2.673155 1_554
Ca0 H1 2.673155 1_555
Ca1 H1 2.195829 1_545
Ca1 H1 2.195829 1_655
Ca1 H1 2.199644 1_645
Ca1 H3 2.560887 1_655
Ca1 H3 2.560887 1_545
Ca1 H2 2.560887 1_656
Ca1 H2 2.560887 1_546
Ca1 H3 2.593249 1_555
Ca1 H2 2.593249 1_556
Ca1 H0 2.673155 1_555
Ca1 H0 2.673155 1_556
