# generated using pymatgen
data_Na18Mg4Nb20Si27(SO16)9
_symmetry_space_group_name_H-M   'P 1'
_cell_length_a   17.93765804
_cell_length_b   8.95099810
_cell_length_c   22.84570776
_cell_angle_alpha   90.06526998
_cell_angle_beta   89.98671407
_cell_angle_gamma   119.97494655
_symmetry_Int_Tables_number   1
_chemical_formula_structural   Na18Mg4Nb20Si27(SO16)9
_chemical_formula_sum   'Na18 Mg4 Nb20 Si27 S9 O144'
_cell_volume   3177.47194203
_cell_formula_units_Z   1
loop_
 _symmetry_equiv_pos_site_id
 _symmetry_equiv_pos_as_xyz
  1  'x, y, z'
loop_
 _atom_site_type_symbol
 _atom_site_label
 _atom_site_symmetry_multiplicity
 _atom_site_fract_x
 _atom_site_fract_y
 _atom_site_fract_z
 _atom_site_occupancy
  Na  Na0  1  0.31647780  0.01515266  0.24255859  1
  Na  Na1  1  0.81600400  0.01097005  0.25011196  1
  Na  Na2  1  0.99380115  0.62158236  0.24275716  1
  Na  Na3  1  0.31657838  0.62118155  0.75173273  1
  Na  Na4  1  0.81635920  0.61758345  0.74584815  1
  Na  Na5  1  0.49359990  0.36624308  0.74436727  1
  Na  Na6  1  0.99559643  0.99616054  0.49565296  1
  Na  Na7  1  0.50054266  0.00205470  0.49889741  1
  Na  Na8  1  0.00051219  0.99976040  0.00043943  1
  Na  Na9  1  0.49493237  0.99108620  0.99797326  1
  Na  Na10  1  0.32705002  0.32276780  0.82909288  1
  Na  Na11  1  0.83265662  0.33006493  0.82718890  1
  Na  Na12  1  0.33405104  0.33723500  0.32412424  1
  Na  Na13  1  0.82744584  0.33054753  0.32417938  1
  Na  Na14  1  0.16566739  0.66403034  0.16119043  1
  Na  Na15  1  0.65765686  0.65516568  0.16853015  1
  Na  Na16  1  0.16281148  0.66636655  0.67228722  1
  Na  Na17  1  0.66376293  0.66488158  0.66312374  1
  Mg  Mg0  1  0.33546532  0.32991546  0.69069678  1
  Mg  Mg1  1  0.83174125  0.34140696  0.68730345  1
  Mg  Mg2  1  0.33769791  0.32784488  0.18565104  1
  Mg  Mg3  1  0.83477797  0.34012074  0.18960858  1
  Nb  Nb0  1  0.99852117  0.00036231  0.35461628  1
  Nb  Nb1  1  0.50692437  0.01350162  0.35617611  1
  Nb  Nb2  1  0.00754171  0.99972099  0.85824997  1
  Nb  Nb3  1  0.49835980  0.99612684  0.85571752  1
  Nb  Nb4  1  0.00252117  0.99183993  0.64771943  1
  Nb  Nb5  1  0.50063924  0.01252976  0.65056584  1
  Nb  Nb6  1  0.00122168  0.99031528  0.14945418  1
  Nb  Nb7  1  0.50299840  0.00465148  0.14291353  1
  Nb  Nb8  1  0.34066051  0.33947523  0.97815265  1
  Nb  Nb9  1  0.84000784  0.34994095  0.97435132  1
  Nb  Nb10  1  0.34089189  0.33250470  0.47398258  1
  Nb  Nb11  1  0.83338484  0.34328042  0.47477197  1
  Nb  Nb12  1  0.16722274  0.67559821  0.01996981  1
  Nb  Nb13  1  0.66210226  0.66802417  0.01789653  1
  Nb  Nb14  1  0.16702695  0.66458248  0.51582002  1
  Nb  Nb15  1  0.66657078  0.65888678  0.51996097  1
  Nb  Nb16  1  0.16298274  0.66016871  0.31352958  1
  Nb  Nb17  1  0.66348365  0.66483811  0.31043073  1
  Nb  Nb18  1  0.16461667  0.66427567  0.81275991  1
  Nb  Nb19  1  0.66217377  0.66441539  0.81525834  1
  Si  Si0  1  0.14905398  0.01028476  0.25244442  1
  Si  Si1  1  0.64544310  0.00366100  0.24856965  1
  Si  Si2  1  0.85256672  0.70482383  0.25127043  1
  Si  Si3  1  0.00137462  0.28805879  0.24858816  1
  Si  Si4  1  0.49891644  0.29105356  0.24989373  1
  Si  Si5  1  0.14539254  0.28911316  0.74930684  1
  Si  Si6  1  0.64861289  0.28912780  0.75316542  1
  Si  Si7  1  0.99943213  0.70180995  0.75254744  1
  Si  Si8  1  0.50211825  0.71501628  0.74862205  1
  Si  Si9  1  0.35216845  0.00029332  0.75211160  1
  Si  Si10  1  0.47773675  0.33296730  0.58688576  1
  Si  Si11  1  0.83335436  0.62430496  0.58615071  1
  Si  Si12  1  0.47745121  0.61957459  0.08678609  1
  Si  Si13  1  0.97780179  0.62123679  0.08710859  1
  Si  Si14  1  0.33247642  0.04467986  0.08650567  1
  Si  Si15  1  0.30939636  0.66362287  0.91665813  1
  Si  Si16  1  0.81040619  0.67280501  0.91634863  1
  Si  Si17  1  0.02546932  0.37926013  0.91740173  1
  Si  Si18  1  0.52131995  0.37237266  0.91718384  1
  Si  Si19  1  0.17145776  0.95892031  0.91657541  1
  Si  Si20  1  0.66746972  0.96118010  0.91675332  1
  Si  Si21  1  0.31207055  0.95174593  0.41450042  1
  Si  Si22  1  0.80962590  0.95247825  0.41663693  1
  Si  Si23  1  0.16714116  0.37294977  0.41641255  1
  Si  Si24  1  0.66728640  0.38373613  0.41531944  1
  Si  Si25  1  0.02226171  0.67046840  0.41680477  1
  Si  Si26  1  0.52636776  0.67392773  0.41709242  1
  S  S0  1  0.35686689  0.71100085  0.25007940  1
  S  S1  1  0.85714100  0.00369462  0.74961543  1
  S  S2  1  0.97825190  0.33436919  0.58402956  1
  S  S3  1  0.18985635  0.04456546  0.58374412  1
  S  S4  1  0.69019831  0.04702192  0.58427553  1
  S  S5  1  0.33258684  0.62162044  0.58371560  1
  S  S6  1  0.83363335  0.04487174  0.08377960  1
  S  S7  1  0.18917191  0.33271982  0.08440127  1
  S  S8  1  0.69156511  0.33692430  0.08383814  1
  O  O0  1  0.09488863  0.01895106  0.30854064  1
  O  O1  1  0.59376495  0.01984310  0.30651158  1
  O  O2  1  0.40805469  0.79275836  0.30332267  1
  O  O3  1  0.91628097  0.80874986  0.30705457  1
  O  O4  1  0.48750325  0.16241462  0.30661341  1
  O  O5  1  0.98963508  0.16810876  0.30624527  1
  O  O6  1  0.09241949  0.16461996  0.80554300  1
  O  O7  1  0.59489563  0.17124050  0.80842542  1
  O  O8  1  0.48967357  0.81158344  0.80566536  1
  O  O9  1  0.98443859  0.80777621  0.80590762  1
  O  O10  1  0.41647278  0.02421299  0.80681805  1
  O  O11  1  0.90791072  0.02614989  0.80239368  1
  O  O12  1  0.40204241  0.96724432  0.69367331  1
  O  O13  1  0.89778503  0.97014457  0.69637127  1
  O  O14  1  0.08096597  0.19155368  0.69151393  1
  O  O15  1  0.58239660  0.20243453  0.69456603  1
  O  O16  1  0.01179412  0.83221449  0.69375122  1
  O  O17  1  0.51734367  0.83895501  0.69051778  1
  O  O18  1  0.39548103  0.82235528  0.19733698  1
  O  O19  1  0.90233749  0.83774345  0.19376226  1
  O  O20  1  0.01711767  0.19572123  0.19113555  1
  O  O21  1  0.51161324  0.18800402  0.19352379  1
  O  O22  1  0.08200653  0.96215334  0.19465301  1
  O  O23  1  0.58182117  0.97146748  0.19214939  1
  O  O24  1  0.43751147  0.36132368  0.64459594  1
  O  O25  1  0.93966992  0.35861399  0.63629819  1
  O  O26  1  0.23964705  0.12116703  0.63620668  1
  O  O27  1  0.74143461  0.12446030  0.63649938  1
  O  O28  1  0.31810407  0.52254749  0.63712567  1
  O  O29  1  0.81866175  0.51848630  0.64473081  1
  O  O30  1  0.43690044  0.50770804  0.14308414  1
  O  O31  1  0.93798090  0.51432219  0.14504237  1
  O  O32  1  0.31283225  0.10938409  0.14593132  1
  O  O33  1  0.82005890  0.11668175  0.13742401  1
  O  O34  1  0.23890947  0.35644702  0.13692497  1
  O  O35  1  0.74072514  0.35738212  0.13590196  1
  O  O36  1  0.22814327  0.30739709  0.03058638  1
  O  O37  1  0.72942816  0.30909821  0.02977403  1
  O  O38  1  0.41954067  0.53135634  0.02622421  1
  O  O39  1  0.91498265  0.52224314  0.02823371  1
  O  O40  1  0.34559240  0.16772182  0.02816404  1
  O  O41  1  0.84291116  0.15051622  0.03115070  1
  O  O42  1  0.22720584  0.14594721  0.52998294  1
  O  O43  1  0.73193658  0.15250720  0.53079491  1
  O  O44  1  0.34130365  0.53450357  0.53098496  1
  O  O45  1  0.84659317  0.52453681  0.52799807  1
  O  O46  1  0.41483618  0.30789302  0.52809881  1
  O  O47  1  0.92728581  0.31099124  0.53024799  1
  O  O48  1  0.26201779  0.69318648  0.97267571  1
  O  O49  1  0.76347805  0.69450776  0.97397262  1
  O  O50  1  0.08309996  0.46619986  0.97478992  1
  O  O51  1  0.58335937  0.47297578  0.97330284  1
  O  O52  1  0.15146840  0.83494619  0.97361578  1
  O  O53  1  0.65335249  0.83513961  0.97341684  1
  O  O54  1  0.26230337  0.83246064  0.47311438  1
  O  O55  1  0.76211630  0.83053629  0.47328227  1
  O  O56  1  0.15398881  0.47390210  0.47413015  1
  O  O57  1  0.65188452  0.46749026  0.47407113  1
  O  O58  1  0.08345681  0.69114605  0.47409263  1
  O  O59  1  0.58344278  0.69887123  0.47495440  1
  O  O60  1  0.06677054  0.63579114  0.35907836  1
  O  O61  1  0.56754380  0.63373218  0.35982720  1
  O  O62  1  0.25157589  0.86528964  0.35724668  1
  O  O63  1  0.75176809  0.87135650  0.35750481  1
  O  O64  1  0.18268861  0.50151373  0.36068674  1
  O  O65  1  0.68418252  0.50230880  0.35854890  1
  O  O66  1  0.06684157  0.49999503  0.85939240  1
  O  O67  1  0.56696071  0.49628345  0.85871560  1
  O  O68  1  0.18243314  0.86434488  0.85889017  1
  O  O69  1  0.68298946  0.86519175  0.85987400  1
  O  O70  1  0.25158254  0.63590500  0.85706508  1
  O  O71  1  0.75203154  0.63905036  0.85684446  1
  O  O72  1  0.01278913  0.83810684  0.41267128  1
  O  O73  1  0.50965540  0.83439760  0.40853639  1
  O  O74  1  0.40578596  0.97159625  0.40993983  1
  O  O75  1  0.90551473  0.97578154  0.41019433  1
  O  O76  1  0.08116709  0.18869867  0.41169768  1
  O  O77  1  0.58288445  0.19042411  0.41069086  1
  O  O78  1  0.00961639  0.18519216  0.90750070  1
  O  O79  1  0.51327923  0.18670921  0.91176269  1
  O  O80  1  0.08322428  0.97380631  0.91016193  1
  O  O81  1  0.58161297  0.97392558  0.91042485  1
  O  O82  1  0.40483524  0.83434198  0.90934127  1
  O  O83  1  0.90557215  0.83889668  0.90811768  1
  O  O84  1  0.48817569  0.15644135  0.58811185  1
  O  O85  1  0.98978097  0.17999607  0.58818380  1
  O  O86  1  0.10016441  0.02304948  0.58813057  1
  O  O87  1  0.60247959  0.02913288  0.58750855  1
  O  O88  1  0.41039075  0.79647126  0.58624906  1
  O  O89  1  0.92100730  0.82352106  0.59022940  1
  O  O90  1  0.49120885  0.81811351  0.09053539  1
  O  O91  1  0.98789155  0.81867689  0.08859682  1
  O  O92  1  0.42017812  0.02382678  0.09089648  1
  O  O93  1  0.91251027  0.02798229  0.08666480  1
  O  O94  1  0.10000501  0.17448672  0.08833804  1
  O  O95  1  0.60207935  0.17987881  0.08709131  1
  O  O96  1  0.34801671  0.17165604  0.74654562  1
  O  O97  1  0.84608228  0.15204415  0.74046911  1
  O  O98  1  0.23974264  0.31759191  0.74255838  1
  O  O99  1  0.74145119  0.31048039  0.74749345  1
  O  O100  1  0.41758762  0.52904330  0.74528954  1
  O  O101  1  0.91480748  0.51941117  0.74605218  1
  O  O102  1  0.34365162  0.53825543  0.24376112  1
  O  O103  1  0.84833679  0.52476271  0.24682130  1
  O  O104  1  0.41372363  0.30352172  0.24950653  1
  O  O105  1  0.91743308  0.30657010  0.24615362  1
  O  O106  1  0.24166038  0.17382451  0.24735954  1
  O  O107  1  0.74069621  0.16253773  0.24366854  1
  O  O108  1  0.31841022  0.49271737  0.92587869  1
  O  O109  1  0.81928668  0.49788307  0.92465665  1
  O  O110  1  0.42848198  0.36114090  0.92255932  1
  O  O111  1  0.92805337  0.35736039  0.92582507  1
  O  O112  1  0.25231678  0.14959598  0.92533461  1
  O  O113  1  0.75309134  0.14706298  0.92811407  1
  O  O114  1  0.31863189  0.14031150  0.42523179  1
  O  O115  1  0.82108274  0.14501458  0.43016870  1
  O  O116  1  0.25281347  0.35976786  0.42910721  1
  O  O117  1  0.75064977  0.35556069  0.42535301  1
  O  O118  1  0.42868960  0.49963309  0.42617637  1
  O  O119  1  0.92923513  0.49412633  0.42564936  1
  O  O120  1  0.17721016  0.48612079  0.07759547  1
  O  O121  1  0.67996789  0.49071617  0.07707207  1
  O  O122  1  0.07382825  0.64598288  0.07475606  1
  O  O123  1  0.57700259  0.64824141  0.07464080  1
  O  O124  1  0.25093371  0.84629975  0.07391495  1
  O  O125  1  0.75682844  0.86666154  0.07649467  1
  O  O126  1  0.17689301  0.86501465  0.57706134  1
  O  O127  1  0.67885696  0.87079570  0.57752387  1
  O  O128  1  0.25438946  0.64541885  0.57614135  1
  O  O129  1  0.75112338  0.65505804  0.57460125  1
  O  O130  1  0.06766434  0.49230092  0.57707532  1
  O  O131  1  0.57390525  0.50157638  0.57465583  1
  O  O132  1  0.15360655  0.82685188  0.25774572  1
  O  O133  1  0.65194550  0.82662191  0.25645554  1
  O  O134  1  0.27058515  0.70441104  0.25555993  1
  O  O135  1  0.76259455  0.70779190  0.25524567  1
  O  O136  1  0.08873684  0.48214151  0.25614768  1
  O  O137  1  0.58850128  0.47577877  0.25669833  1
  O  O138  1  0.15136014  0.47777043  0.75573907  1
  O  O139  1  0.65456993  0.48224046  0.75669446  1
  O  O140  1  0.08952284  0.70191273  0.75532674  1
  O  O141  1  0.58922172  0.69501533  0.75550336  1
  O  O142  1  0.26229609  0.81688083  0.75470398  1
  O  O143  1  0.77145362  0.83928436  0.75350638  1
loop_
_geom_bond_atom_site_label_1
_geom_bond_atom_site_label_2
_geom_bond_distance
_geom_bond_site_symmetry_2
Na0 O104 2.287054 1_555
Na0 O32 2.376609 1_555
Na0 O106 2.394683 1_555
Na0 O134 2.493219 1_545
Na0 O132 2.564560 1_545
Na1 O105 2.347211 1_555
Na1 O107 2.349227 1_555
Na1 O135 2.387212 1_545
Na1 O133 2.559711 1_545
Na1 O33 2.732223 1_555
Na1 O63 2.734170 1_545
Na2 O103 2.304030 1_555
Na2 O31 2.437898 1_555
Na2 O105 2.444159 1_555
Na2 O132 2.538962 1_655
Na2 O136 2.583864 1_655
Na2 O22 2.862057 1_655
Na2 O60 2.936985 1_655
Na3 O100 2.340403 1_555
Na3 O98 2.363113 1_555
Na3 O142 2.392738 1_555
Na3 O138 2.576428 1_555
Na3 O70 2.705339 1_555
Na3 O28 2.766667 1_555
Na4 O101 2.332671 1_555
Na4 O99 2.381726 1_555
Na4 O29 2.481321 1_555
Na4 O143 2.492763 1_555
Na4 O139 2.537430 1_555
Na4 O71 2.831553 1_555
Na4 O9 2.956111 1_555
Na4 O13 2.961663 1_555
Na5 O96 2.304524 1_555
Na5 O100 2.443019 1_555
Na5 O24 2.483174 1_555
Na5 O139 2.549231 1_555
Na5 O141 2.573270 1_555
Na5 O15 2.882780 1_555
Na5 O67 2.893976 1_555
Na6 O72 2.473893 1_655
Na6 O75 2.482359 1_555
Na6 O76 2.523451 1_665
Na6 O89 2.605155 1_555
Na6 O85 2.711235 1_565
Na6 O86 2.754875 1_665
Na7 O84 2.532335 1_555
Na7 O77 2.569659 1_555
Na7 O74 2.575050 1_545
Na7 O73 2.603519 1_545
Na7 O88 2.648984 1_545
Na7 O87 2.656703 1_555
Na8 O91 2.524941 1_455
Na8 O93 2.613798 1_465
Na8 O80 2.617411 1_554
Na8 O94 2.620876 1_565
Na8 O83 2.639414 1_454
Na8 O78 2.650814 1_564
Na9 O82 2.531739 1_555
Na9 O79 2.546607 1_565
Na9 O81 2.584197 1_555
Na9 O90 2.603348 1_556
Na9 O92 2.603952 1_566
Na9 O95 2.728250 1_566
Na10 O96 2.455522 1_555
Na10 O98 2.508348 1_555
Na10 O100 2.592754 1_555
Na10 O112 2.638961 1_555
Na10 O110 2.713592 1_555
Na10 O108 2.730388 1_555
Na11 O99 2.395055 1_555
Na11 O101 2.447481 1_555
Na11 O97 2.626446 1_555
Na11 O109 2.761219 1_555
Na11 O111 2.765595 1_555
Na11 O113 2.776227 1_555
Na12 O104 2.338402 1_555
Na12 O106 2.352635 1_555
Na12 O102 2.517087 1_555
Na12 O118 2.821142 1_555
Na12 O114 2.835633 1_555
Na12 O116 2.864870 1_555
Na13 O103 2.375209 1_555
Na13 O107 2.392233 1_555
Na13 O105 2.484560 1_555
Na13 O117 2.756043 1_555
Na13 O119 2.859075 1_555
Na13 O115 2.907538 1_555
Na14 O122 2.524693 1_555
Na14 O124 2.547380 1_555
Na14 O120 2.558997 1_555
Na14 O136 2.650049 1_555
Na14 O132 2.710030 1_555
Na14 O134 2.764225 1_555
Na15 O137 2.488011 1_555
Na15 O133 2.559443 1_555
Na15 O123 2.570866 1_555
Na15 O135 2.608321 1_555
Na15 O121 2.697011 1_555
Na15 O125 2.794917 1_555
Na16 O140 2.417413 1_555
Na16 O142 2.477539 1_555
Na16 O138 2.487452 1_555
Na16 O130 2.721894 1_555
Na16 O126 2.741900 1_555
Na16 O128 2.804188 1_555
Na17 O131 2.541668 1_555
Na17 O141 2.583111 1_555
Na17 O129 2.586329 1_555
Na17 O127 2.608468 1_555
Na17 O139 2.647256 1_555
Na17 O143 2.722748 1_555
Mg0 O96 2.002065 1_555
Mg0 O24 2.006105 1_555
Mg0 O98 2.043105 1_555
Mg0 O100 2.067509 1_555
Mg0 O26 2.186720 1_555
Mg0 O28 2.260402 1_555
Mg1 O29 1.971941 1_555
Mg1 O99 2.035288 1_555
Mg1 O101 2.045475 1_555
Mg1 O27 2.143495 1_555
Mg1 O25 2.197951 1_555
Mg1 O97 2.203396 1_555
Mg2 O30 1.960668 1_555
Mg2 O32 1.992670 1_555
Mg2 O104 2.081739 1_555
Mg2 O106 2.117994 1_555
Mg2 O34 2.213529 1_555
Mg2 O102 2.261495 1_555
Mg3 O31 2.003333 1_555
Mg3 O103 2.023030 1_555
Mg3 O107 2.054994 1_555
Mg3 O105 2.098540 1_555
Mg3 O35 2.153472 1_555
Mg3 O33 2.226680 1_555
Nb0 O5 1.934967 1_555
Nb0 O3 1.940819 1_545
Nb0 O0 1.958558 1_655
Nb0 O75 2.019096 1_545
Nb0 O76 2.058849 1_655
Nb0 O72 2.076025 1_645
Nb1 O1 1.904742 1_555
Nb1 O4 1.909908 1_555
Nb1 O77 1.937955 1_555
Nb1 O73 2.021462 1_545
Nb1 O74 2.064135 1_545
Nb1 O2 2.236371 1_545
Nb2 O80 1.902459 1_555
Nb2 O6 1.924637 1_565
Nb2 O9 1.958983 1_455
Nb2 O78 1.989352 1_565
Nb2 O83 2.021755 1_455
Nb2 O11 2.302700 1_465
Nb3 O8 1.949106 1_555
Nb3 O10 1.959376 1_565
Nb3 O7 1.978267 1_565
Nb3 O82 1.996948 1_555
Nb3 O81 2.032161 1_555
Nb3 O79 2.039638 1_565
Nb4 O16 1.848260 1_555
Nb4 O14 1.913041 1_565
Nb4 O89 1.981914 1_455
Nb4 O13 2.106577 1_455
Nb4 O86 2.123647 1_565
Nb4 O85 2.264647 1_465
Nb5 O12 1.883045 1_545
Nb5 O15 1.885852 1_555
Nb5 O17 1.950714 1_545
Nb5 O84 2.009278 1_555
Nb5 O87 2.272110 1_555
Nb5 O88 2.320789 1_545
Nb6 O22 1.896302 1_555
Nb6 O19 1.902022 1_455
Nb6 O20 1.959785 1_565
Nb6 O91 1.994674 1_455
Nb6 O94 2.211812 1_565
Nb6 O93 2.289496 1_465
Nb7 O23 1.942606 1_545
Nb7 O21 1.948481 1_555
Nb7 O92 1.976047 1_555
Nb7 O90 1.976675 1_545
Nb7 O95 2.112629 1_555
Nb7 O18 2.187900 1_545
Nb8 O38 1.930314 1_556
Nb8 O40 1.953632 1_556
Nb8 O110 1.956184 1_555
Nb8 O108 2.004487 1_555
Nb8 O112 2.039814 1_555
Nb8 O36 2.238633 1_556
Nb9 O111 1.903228 1_555
Nb9 O39 1.904327 1_556
Nb9 O109 1.917320 1_555
Nb9 O113 2.002890 1_555
Nb9 O37 2.224087 1_556
Nb9 O41 2.229606 1_556
Nb10 O118 1.886727 1_555
Nb10 O46 1.905175 1_555
Nb10 O114 1.915416 1_555
Nb10 O116 1.998333 1_555
Nb10 O44 2.224056 1_555
Nb10 O42 2.277011 1_555
Nb11 O117 1.911358 1_555
Nb11 O119 1.929108 1_555
Nb11 O45 1.943852 1_555
Nb11 O115 1.959894 1_555
Nb11 O43 2.182738 1_555
Nb11 O47 2.239455 1_555
Nb12 O52 1.908420 1_554
Nb12 O124 1.952481 1_555
Nb12 O48 1.953356 1_554
Nb12 O122 1.999858 1_555
Nb12 O50 2.006390 1_554
Nb12 O120 2.224979 1_555
Nb13 O53 1.879610 1_554
Nb13 O51 1.900931 1_554
Nb13 O123 1.942057 1_555
Nb13 O49 1.984652 1_554
Nb13 O125 2.194862 1_555
Nb13 O121 2.227667 1_555
Nb14 O56 1.863453 1_555
Nb14 O54 1.888677 1_555
Nb14 O58 1.889391 1_555
Nb14 O128 2.157410 1_555
Nb14 O130 2.184137 1_555
Nb14 O126 2.210117 1_555
Nb15 O57 1.910129 1_555
Nb15 O55 1.951109 1_555
Nb15 O129 1.978038 1_555
Nb15 O59 1.985841 1_555
Nb15 O131 1.992806 1_555
Nb15 O127 2.225431 1_555
Nb16 O60 1.931916 1_555
Nb16 O64 1.951310 1_555
Nb16 O136 1.976599 1_555
Nb16 O62 1.993731 1_555
Nb16 O132 2.033130 1_555
Nb16 O134 2.207352 1_555
Nb17 O61 1.957976 1_555
Nb17 O137 1.975185 1_555
Nb17 O133 1.991010 1_555
Nb17 O65 2.001579 1_555
Nb17 O63 2.037799 1_555
Nb17 O135 2.053041 1_555
Nb18 O66 1.949087 1_555
Nb18 O68 1.960560 1_555
Nb18 O70 1.979812 1_555
Nb18 O140 2.026033 1_555
Nb18 O138 2.034445 1_555
Nb18 O142 2.075213 1_555
Nb19 O67 1.897822 1_555
Nb19 O69 1.932244 1_555
Nb19 O71 1.979665 1_555
Nb19 O141 2.002718 1_555
Nb19 O139 2.059260 1_555
Nb19 O143 2.284860 1_555
O0 Si0 1.633071 1_555
O1 Si1 1.663036 1_555
O2 S0 1.478262 1_555
O3 Si2 1.652671 1_555
O4 Si4 1.677667 1_555
O5 Si3 1.646010 1_655
O6 Si5 1.655261 1_555
O7 Si6 1.619317 1_555
O8 Si8 1.638717 1_555
O9 Si7 1.646268 1_555
O10 Si9 1.640620 1_555
O11 S1 1.463097 1_555
O12 Si9 1.712673 1_565
O13 S1 1.522784 1_565
O14 Si5 1.682567 1_555
O15 Si6 1.697810 1_555
O16 Si7 1.720680 1_455
O17 Si8 1.663676 1_555
O18 S0 1.495861 1_555
O19 Si2 1.697151 1_555
O20 Si3 1.648098 1_555
O21 Si4 1.663796 1_555
O22 Si0 1.690231 1_565
O23 Si1 1.648661 1_565
O24 Si10 1.582754 1_555
O25 S2 1.449506 1_555
O26 S3 1.446037 1_555
O27 S4 1.452809 1_555
O28 S5 1.454265 1_555
O29 Si11 1.584599 1_555
O30 Si12 1.568651 1_555
O31 Si13 1.580251 1_555
O32 Si14 1.582608 1_555
O33 S6 1.459062 1_555
O34 S7 1.446208 1_555
O35 S8 1.436845 1_555
O36 S7 1.486227 1_555
O37 S8 1.488896 1_555
O38 Si12 1.671952 1_555
O39 Si13 1.692424 1_555
O40 Si14 1.670062 1_555
O41 S6 1.487540 1_555
O42 S3 1.474958 1_555
O43 S4 1.496888 1_555
O44 S5 1.484366 1_555
O45 Si11 1.681654 1_555
O46 Si10 1.695321 1_555
O47 S2 1.482565 1_555
O48 Si15 1.628964 1_555
O49 Si16 1.625333 1_555
O50 Si17 1.608604 1_555
O51 Si18 1.640036 1_555
O52 Si19 1.632057 1_555
O53 Si20 1.652396 1_555
O54 Si21 1.667437 1_555
O55 Si22 1.632656 1_555
O56 Si23 1.679603 1_555
O57 Si24 1.626165 1_555
O58 Si25 1.658073 1_555
O59 Si26 1.617702 1_555
O60 Si25 1.649001 1_555
O61 Si26 1.628053 1_555
O62 Si21 1.626805 1_555
O63 Si22 1.635456 1_555
O64 Si23 1.644785 1_555
O65 Si24 1.606844 1_555
O66 Si17 1.635965 1_555
O67 Si18 1.667382 1_555
O68 Si19 1.629732 1_555
O69 Si20 1.655467 1_555
O70 Si15 1.653281 1_555
O71 Si16 1.649035 1_555
O72 Si25 1.595144 1_555
O73 Si26 1.619308 1_555
O74 Si21 1.603061 1_555
O75 Si22 1.632512 1_555
O76 Si23 1.602518 1_555
O77 Si24 1.636862 1_555
O78 Si17 1.629445 1_555
O79 Si18 1.599372 1_555
O80 Si19 1.659833 1_555
O81 Si20 1.606685 1_555
O82 Si15 1.637136 1_555
O83 Si16 1.619934 1_555
O84 Si10 1.681743 1_555
O85 S2 1.498993 1_555
O86 S3 1.525099 1_555
O87 S4 1.501703 1_555
O88 S5 1.489236 1_555
O89 Si11 1.690754 1_555
O90 Si12 1.669681 1_555
O91 Si13 1.684478 1_555
O92 Si14 1.677283 1_555
O93 S6 1.497614 1_555
O94 S7 1.519513 1_555
O95 S8 1.517761 1_555
O96 Si9 1.577675 1_555
O97 S1 1.452627 1_555
O98 Si5 1.588052 1_555
O99 Si6 1.583813 1_555
O100 Si8 1.597984 1_555
O101 Si7 1.585848 1_555
O102 S0 1.449533 1_555
O103 Si2 1.578349 1_555
O104 Si4 1.586893 1_555
O105 Si3 1.595959 1_655
O106 Si0 1.576773 1_555
O107 Si1 1.589520 1_555
O108 Si15 1.630532 1_555
O109 Si16 1.662171 1_555
O110 Si18 1.622047 1_555
O111 Si17 1.669301 1_655
O112 Si19 1.607004 1_545
O113 Si20 1.624896 1_545
O114 Si21 1.650262 1_545
O115 Si22 1.659155 1_545
O116 Si23 1.625158 1_555
O117 Si24 1.652068 1_555
O118 Si26 1.678116 1_555
O119 Si25 1.638732 1_655
O120 S7 1.500164 1_555
O121 S8 1.499607 1_555
O122 Si13 1.647526 1_455
O123 Si12 1.695197 1_555
O124 Si14 1.667035 1_565
O125 S6 1.507914 1_565
O126 S3 1.512073 1_565
O127 S4 1.494046 1_565
O128 S5 1.530226 1_555
O129 Si11 1.651418 1_555
O130 S2 1.526698 1_455
O131 Si10 1.652517 1_555
O132 Si0 1.688678 1_565
O133 Si1 1.656084 1_565
O134 S0 1.524209 1_555
O135 Si2 1.629836 1_555
O136 Si3 1.668130 1_555
O137 Si4 1.638571 1_555
O138 Si5 1.644225 1_555
O139 Si6 1.679562 1_555
O140 Si7 1.616819 1_455
O141 Si8 1.666627 1_555
O142 Si9 1.628862 1_565
O143 S1 1.508667 1_565
