# generated using pymatgen
data_MgSc4(FeO3)4
_symmetry_space_group_name_H-M   'P 1'
_cell_length_a   5.34341095
_cell_length_b   5.92400392
_cell_length_c   7.74265710
_cell_angle_alpha   83.51849354
_cell_angle_beta   89.92585063
_cell_angle_gamma   90.06371318
_symmetry_Int_Tables_number   1
_chemical_formula_structural   MgSc4(FeO3)4
_chemical_formula_sum   'Mg1 Sc4 Fe4 O12'
_cell_volume   243.52214298
_cell_formula_units_Z   1
loop_
 _symmetry_equiv_pos_site_id
 _symmetry_equiv_pos_as_xyz
  1  'x, y, z'
loop_
 _atom_site_type_symbol
 _atom_site_label
 _atom_site_symmetry_multiplicity
 _atom_site_fract_x
 _atom_site_fract_y
 _atom_site_fract_z
 _atom_site_occupancy
  Mg  Mg0  1  0.99991300  0.32467300  0.95834300  1
  Sc  Sc0  1  0.99465400  0.80204300  0.68686700  1
  Sc  Sc1  1  0.49471800  0.52204500  0.80434400  1
  Sc  Sc2  1  0.48968100  0.53563400  0.30077400  1
  Sc  Sc3  1  0.98264100  0.05729400  0.29972600  1
  Fe  Fe0  1  0.99407400  0.70626300  0.12674900  1
  Fe  Fe1  1  0.99218600  0.40772200  0.50486300  1
  Fe  Fe2  1  0.49426800  0.94648900  0.98194900  1
  Fe  Fe3  1  0.48877500  0.95482900  0.49680600  1
  O  O0  1  0.14068500  0.39371800  0.24317800  1
  O  O1  1  0.13305600  0.08795900  0.54562200  1
  O  O2  1  0.34063200  0.22795400  0.90378900  1
  O  O3  1  0.29812300  0.59241500  0.55915300  1
  O  O4  1  0.20309300  0.72299200  0.90254200  1
  O  O5  1  0.32386000  0.87770100  0.23009000  1
  O  O6  1  0.63823800  0.87830200  0.74129000  1
  O  O7  1  0.65589700  0.58030700  0.05705500  1
  O  O8  1  0.69202600  0.25514600  0.40243400  1
  O  O9  1  0.82975600  0.04116600  0.06046200  1
  O  O10  1  0.82108400  0.73364900  0.40421300  1
  O  O11  1  0.85514000  0.45170200  0.73141900  1
loop_
_geom_bond_atom_site_label_1
_geom_bond_atom_site_label_2
_geom_bond_distance
_geom_bond_site_symmetry_2
Mg0 O2 1.968822 1_655
Mg0 O11 1.989487 1_555
Mg0 O9 1.991857 1_556
Mg0 O0 2.409164 1_656
Mg0 O7 2.553506 1_556
Mg0 O4 2.587701 1_655
Fe0 O7 2.050290 1_555
Fe0 O4 2.055888 1_654
Fe0 O0 2.117243 1_655
Fe0 O9 2.178442 1_565
Fe0 O5 2.227122 1_655
Fe0 O10 2.360056 1_555
Fe1 O11 1.944592 1_555
Fe1 O1 2.030591 1_655
Fe1 O3 2.036622 1_655
Fe1 O8 2.044568 1_555
Fe1 O0 2.185332 1_655
Fe1 O10 2.199369 1_555
Fe2 O2 1.896553 1_565
Fe2 O9 1.993807 1_566
Fe2 O6 2.096168 1_555
Fe2 O5 2.122345 1_556
Fe2 O4 2.175631 1_555
Fe2 O7 2.347431 1_556
Fe3 O6 2.058545 1_555
Fe3 O1 2.108668 1_565
Fe3 O8 2.139791 1_565
Fe3 O5 2.338103 1_555
Fe3 O10 2.365949 1_555
Fe3 O3 2.374886 1_555
O0 Sc2 2.113423 1_555
O0 Sc3 2.162204 1_455
O1 Sc0 2.046627 1_445
O1 Sc3 2.094156 1_455
O2 Sc1 1.999579 1_555
O3 Sc1 2.169979 1_555
O3 Sc2 2.304430 1_555
O3 Sc0 2.329591 1_455
O4 Sc0 2.019351 1_455
O4 Sc1 2.151456 1_555
O5 Sc3 2.208666 1_465
O5 Sc2 2.223914 1_555
O6 Sc0 2.012832 1_555
O6 Sc1 2.245740 1_555
O7 Sc2 2.074163 1_555
O7 Sc1 2.201257 1_554
O8 Sc2 2.064087 1_555
O8 Sc3 2.151479 1_555
O9 Sc3 2.037671 1_555
O10 Sc3 2.172554 1_565
O10 Sc2 2.316122 1_555
O10 Sc0 2.453251 1_555
O11 Sc1 2.062420 1_555
O11 Sc0 2.194623 1_555
