# generated using pymatgen
data_Na6La2Ga2Si3(SO8)3
_symmetry_space_group_name_H-M   'P 1'
_cell_length_a   9.33704111
_cell_length_b   9.16601213
_cell_length_c   23.15163655
_cell_angle_alpha   91.28106433
_cell_angle_beta   90.08129417
_cell_angle_gamma   119.44607959
_symmetry_Int_Tables_number   1
_chemical_formula_structural   Na6La2Ga2Si3(SO8)3
_chemical_formula_sum   'Na18 La6 Ga6 Si9 S9 O72'
_cell_volume   1724.83066498
_cell_formula_units_Z   3
loop_
 _symmetry_equiv_pos_site_id
 _symmetry_equiv_pos_as_xyz
  1  'x, y, z'
loop_
 _atom_site_type_symbol
 _atom_site_label
 _atom_site_symmetry_multiplicity
 _atom_site_fract_x
 _atom_site_fract_y
 _atom_site_fract_z
 _atom_site_occupancy
  Na  Na0  1  0.63599260  0.99227349  0.27180660  1
  Na  Na1  1  0.35636965  0.36439522  0.25818966  1
  Na  Na2  1  0.64061408  0.64098196  0.72892185  1
  Na  Na3  1  0.97576832  0.35814310  0.73569500  1
  Na  Na4  1  0.03144330  0.69060631  0.59508336  1
  Na  Na5  1  0.67595203  0.96350357  0.58276562  1
  Na  Na6  1  0.31613112  0.97432344  0.10213660  1
  Na  Na7  1  0.02159720  0.32600321  0.08827423  1
  Na  Na8  1  0.97084267  0.64792611  0.89380456  1
  Na  Na9  1  0.70688324  0.04360989  0.90649205  1
  Na  Na10  1  0.95122406  0.29441627  0.42185903  1
  Na  Na11  1  0.34899002  0.03214411  0.41465004  1
  Na  Na12  1  0.97407312  0.98771821  0.50659763  1
  Na  Na13  1  0.98578562  0.01782511  0.99989486  1
  Na  Na14  1  0.66695649  0.32247771  0.81508260  1
  Na  Na15  1  0.67874760  0.35183186  0.34223069  1
  Na  Na16  1  0.32358979  0.67237585  0.17974769  1
  Na  Na17  1  0.33215848  0.66134052  0.66235042  1
  La  La0  1  0.00333964  0.02225800  0.83481875  1
  La  La1  1  0.99403277  0.00577013  0.16761916  1
  La  La2  1  0.67458001  0.33642809  0.98813541  1
  La  La3  1  0.34353433  0.65973003  0.01986879  1
  La  La4  1  0.35253967  0.65495012  0.51715740  1
  La  La5  1  0.31730477  0.67010441  0.80544363  1
  Ga  Ga0  1  0.99642517  0.02040480  0.34278544  1
  Ga  Ga1  1  0.95756807  0.97107721  0.64641233  1
  Ga  Ga2  1  0.69133353  0.34815197  0.67977048  1
  Ga  Ga3  1  0.66092801  0.28734703  0.20230990  1
  Ga  Ga4  1  0.67697714  0.30400789  0.49925808  1
  Ga  Ga5  1  0.31861991  0.69597217  0.31794927  1
  Si  Si0  1  0.29863144  0.00229576  0.25292739  1
  Si  Si1  1  0.01390495  0.32837266  0.25336006  1
  Si  Si2  1  0.98740460  0.69746717  0.74130935  1
  Si  Si3  1  0.69087187  0.01118239  0.74159117  1
  Si  Si4  1  0.96200520  0.31725625  0.58673239  1
  Si  Si5  1  0.67793122  0.60987513  0.58435611  1
  Si  Si6  1  0.66492678  0.03288584  0.08937835  1
  Si  Si7  1  0.02506801  0.35751409  0.91952603  1
  Si  Si8  1  0.64239706  0.96929163  0.41491455  1
  S  S0  1  0.68758113  0.68771490  0.25511116  1
  S  S1  1  0.31150133  0.29361486  0.73984524  1
  S  S2  1  0.37966136  0.05421357  0.58196397  1
  S  S3  1  0.97024054  0.63933649  0.08885201  1
  S  S4  1  0.36580993  0.33090322  0.09366177  1
  S  S5  1  0.64940566  0.67406581  0.91080233  1
  S  S6  1  0.32273599  0.97299286  0.92171950  1
  S  S7  1  0.32121594  0.34576399  0.40672263  1
  S  S8  1  0.03844851  0.67763660  0.41394311  1
  O  O0  1  0.18357545  0.02887722  0.30140711  1
  O  O1  1  0.80578536  0.78439215  0.30250184  1
  O  O2  1  0.96616965  0.17401404  0.29869074  1
  O  O3  1  0.25754643  0.22691677  0.79912444  1
  O  O4  1  0.98519376  0.77377575  0.80634494  1
  O  O5  1  0.78609200  0.05190943  0.80541573  1
  O  O6  1  0.80356703  0.98528851  0.69259305  1
  O  O7  1  0.19058598  0.18941044  0.69564585  1
  O  O8  1  0.00396960  0.82574800  0.69006710  1
  O  O9  1  0.74326425  0.77770594  0.20005007  1
  O  O10  1  0.06289067  0.27683692  0.19130186  1
  O  O11  1  0.21720600  0.97574548  0.18929826  1
  O  O12  1  0.86997584  0.35241290  0.64045632  1
  O  O13  1  0.48884388  0.14908583  0.63039918  1
  O  O14  1  0.65585575  0.50845981  0.64318230  1
  O  O15  1  0.86139973  0.53413298  0.13380401  1
  O  O16  1  0.65079838  0.15083249  0.14257619  1
  O  O17  1  0.46306460  0.33412488  0.14418070  1
  O  O18  1  0.45032072  0.34122165  0.03823757  1
  O  O19  1  0.89921694  0.57681773  0.02969409  1
  O  O20  1  0.67337028  0.11737147  0.02649405  1
  O  O21  1  0.45485448  0.13608328  0.52469885  1
  O  O22  1  0.69223199  0.50303773  0.52731444  1
  O  O23  1  0.84746285  0.27399753  0.52584184  1
  O  O24  1  0.56402199  0.68147225  0.96428764  1
  O  O25  1  0.11344912  0.44401418  0.98237700  1
  O  O26  1  0.32420813  0.89173144  0.97653457  1
  O  O27  1  0.57967366  0.86913882  0.47446120  1
  O  O28  1  0.28844373  0.41957833  0.45918294  1
  O  O29  1  0.13598418  0.70713534  0.46810886  1
  O  O30  1  0.12798363  0.64475739  0.36528615  1
  O  O31  1  0.50209923  0.87039450  0.36179307  1
  O  O32  1  0.34069480  0.44894810  0.35634229  1
  O  O33  1  0.12793865  0.47371276  0.86535321  1
  O  O34  1  0.34361339  0.87917621  0.87247670  1
  O  O35  1  0.55829143  0.67521841  0.85918016  1
  O  O36  1  0.02819376  0.83100458  0.40370763  1
  O  O37  1  0.83009702  0.00319691  0.39836473  1
  O  O38  1  0.16679484  0.17460154  0.40270862  1
  O  O39  1  0.99446732  0.16629917  0.91809016  1
  O  O40  1  0.16449368  0.97056245  0.91751018  1
  O  O41  1  0.81526137  0.82486736  0.91394522  1
  O  O42  1  0.97260817  0.14211729  0.59302753  1
  O  O43  1  0.21316060  0.03188607  0.58349714  1
  O  O44  1  0.85054448  0.79857972  0.58475666  1
  O  O45  1  0.00745327  0.81644225  0.09146848  1
  O  O46  1  0.83768807  0.02881676  0.09315552  1
  O  O47  1  0.20438309  0.17171512  0.08913998  1
  O  O48  1  0.67356145  0.17773523  0.73141184  1
  O  O49  1  0.47835411  0.31677654  0.73412662  1
  O  O50  1  0.81454735  0.51532706  0.74097852  1
  O  O51  1  0.66813021  0.51635294  0.25033046  1
  O  O52  1  0.83596473  0.32997199  0.25106823  1
  O  O53  1  0.48620369  0.17784670  0.25478693  1
  O  O54  1  0.66706489  0.52223136  0.90972092  1
  O  O55  1  0.84140010  0.34589129  0.91415265  1
  O  O56  1  0.46482936  0.14449476  0.91923087  1
  O  O57  1  0.65358441  0.16167205  0.42446656  1
  O  O58  1  0.46520541  0.32226504  0.41391326  1
  O  O59  1  0.87732301  0.52309291  0.41625612  1
  O  O60  1  0.33268017  0.47431574  0.09800447  1
  O  O61  1  0.13143724  0.63859414  0.09286235  1
  O  O62  1  0.49154505  0.85468745  0.09339476  1
  O  O63  1  0.36717349  0.88359785  0.58092665  1
  O  O64  1  0.52937756  0.65771442  0.58397383  1
  O  O65  1  0.13589087  0.49243476  0.57992199  1
  O  O66  1  0.33881177  0.84872743  0.26194222  1
  O  O67  1  0.52168051  0.67080694  0.26500090  1
  O  O68  1  0.18116426  0.50594840  0.27032153  1
  O  O69  1  0.32513121  0.46476702  0.73904509  1
  O  O70  1  0.13839770  0.65447216  0.73484348  1
  O  O71  1  0.52040834  0.83152893  0.74141531  1
loop_
_geom_bond_atom_site_label_1
_geom_bond_atom_site_label_2
_geom_bond_distance
_geom_bond_site_symmetry_2
Na0 O66 2.424449 1_555
Na0 O31 2.426830 1_555
Na0 O67 2.594780 1_555
Na0 O53 2.715142 1_565
Na0 O2 2.750526 1_565
Na0 O52 2.772096 1_565
Na1 O32 2.412376 1_555
Na1 O67 2.452063 1_555
Na1 O53 2.536114 1_555
Na1 O51 2.544217 1_555
Na1 O68 2.551553 1_555
Na1 O17 2.877992 1_555
Na1 O10 2.884632 1_555
Na1 O0 2.885431 1_555
Na2 O14 2.344988 1_555
Na2 O50 2.427768 1_555
Na2 O71 2.509884 1_555
Na2 O69 2.584904 1_555
Na2 O49 2.594344 1_555
Na2 O6 2.895410 1_555
Na3 O70 2.372968 1_655
Na3 O12 2.403713 1_555
Na3 O48 2.471955 1_555
Na3 O50 2.545930 1_555
Na3 O69 2.909177 1_655
Na3 O5 2.990641 1_555
Na4 O44 2.354265 1_455
Na4 O65 2.467371 1_555
Na4 O8 2.574521 1_555
Na4 O43 2.748923 1_565
Na4 O63 2.764037 1_555
Na4 O12 2.922463 1_455
Na5 O42 2.435400 1_565
Na5 O64 2.441707 1_555
Na5 O63 2.602400 1_555
Na5 O27 2.641130 1_555
Na5 O44 2.714898 1_555
Na5 O6 2.767610 1_555
Na5 O23 2.844927 1_565
Na6 O11 2.222914 1_555
Na6 O62 2.383883 1_555
Na6 O47 2.516410 1_565
Na6 O45 2.518553 1_555
Na6 O61 2.691000 1_555
Na6 O16 2.865620 1_565
Na6 O26 2.998826 1_554
Na7 O46 2.407688 1_455
Na7 O10 2.501499 1_555
Na7 O61 2.523778 1_555
Na7 O60 2.537248 1_555
Na7 O25 2.669985 1_554
Na7 O47 2.699514 1_555
Na8 O4 2.324176 1_555
Na8 O55 2.473285 1_555
Na8 O54 2.513407 1_555
Na8 O40 2.642600 1_655
Na8 O41 2.691209 1_555
Na8 O33 2.719185 1_655
Na9 O39 2.358485 1_555
Na9 O55 2.416954 1_555
Na9 O5 2.446691 1_555
Na9 O41 2.661506 1_545
Na9 O56 2.845082 1_555
Na9 O20 2.898300 1_556
Na10 O37 2.380195 1_555
Na10 O57 2.426207 1_555
Na10 O59 2.514024 1_555
Na10 O23 2.572464 1_555
Na10 O38 2.758286 1_655
Na10 O28 2.893633 1_655
Na11 O58 2.326871 1_555
Na11 O57 2.493161 1_555
Na11 O38 2.621879 1_555
Na11 O36 2.642423 1_545
Na11 O21 2.708221 1_555
Na11 O31 2.783357 1_545
Na11 O29 2.951007 1_545
Na11 O0 3.033063 1_555
Na12 O44 2.406317 1_555
Na12 O42 2.428890 1_565
Na12 O43 2.717522 1_665
Na12 O37 2.880979 1_565
Na12 O36 2.925249 1_655
Na12 O38 3.020454 1_665
Na13 O39 2.335120 1_555
Na13 O41 2.586060 1_545
Na13 O46 2.592269 1_556
Na13 O40 2.700493 1_645
Na13 O47 2.729775 1_656
Na13 O45 2.912708 1_646
Na14 O48 2.341421 1_555
Na14 O50 2.390467 1_555
Na14 O49 2.551950 1_555
Na14 O55 2.753809 1_555
Na14 O54 2.823433 1_555
Na15 O59 2.418282 1_555
Na15 O58 2.510235 1_555
Na15 O57 2.542656 1_555
Na15 O53 2.626817 1_555
Na15 O52 2.632212 1_555
Na15 O51 2.664696 1_555
Na16 O66 2.426945 1_555
Na16 O68 2.578573 1_555
Na16 O61 2.603225 1_555
Na16 O62 2.613483 1_555
Na16 O60 2.623511 1_555
Na16 O67 2.708120 1_555
Na17 O70 2.448500 1_555
Na17 O71 2.457828 1_555
Na17 O69 2.535882 1_555
Na17 O65 2.542723 1_555
Na17 O64 2.598376 1_555
Na17 O63 2.707270 1_555
La0 O5 2.279971 1_455
La0 O4 2.281191 1_445
La0 O39 2.336850 1_455
La0 O3 2.352175 1_555
La0 O41 2.597435 1_445
La0 O40 2.624338 1_545
La1 O11 2.288411 1_645
La1 O10 2.292316 1_655
La1 O46 2.336663 1_555
La1 O9 2.383009 1_545
La1 O45 2.492608 1_645
La1 O47 2.582390 1_655
La2 O20 2.208577 1_556
La2 O55 2.291025 1_555
La2 O19 2.352782 1_556
La2 O18 2.413912 1_556
La2 O56 2.439967 1_555
La2 O54 2.540971 1_555
La3 O25 2.240477 1_554
La3 O62 2.330241 1_555
La3 O24 2.355718 1_554
La3 O26 2.456294 1_554
La3 O60 2.477824 1_555
La3 O61 2.542067 1_555
La4 O64 2.251602 1_555
La4 O27 2.308277 1_555
La4 O28 2.326567 1_555
La4 O65 2.358997 1_555
La4 O63 2.483982 1_555
La4 O29 2.564259 1_555
La5 O70 2.286710 1_555
La5 O33 2.297758 1_555
La5 O71 2.308719 1_555
La5 O34 2.354640 1_555
La5 O69 2.432489 1_555
La5 O35 2.549247 1_555
Ga0 O2 1.886508 1_555
Ga0 O0 1.962629 1_655
Ga0 O37 1.966307 1_555
Ga0 O38 2.036725 1_655
Ga0 O1 2.199348 1_545
Ga0 O36 2.388683 1_645
Ga1 O6 1.846608 1_555
Ga1 O8 1.900011 1_655
Ga1 O42 1.968707 1_565
Ga1 O44 1.969170 1_555
Ga1 O7 2.376519 1_665
Ga2 O14 1.876110 1_555
Ga2 O12 1.885207 1_555
Ga2 O48 1.930322 1_555
Ga2 O50 1.960781 1_555
Ga2 O13 2.172366 1_555
Ga2 O49 2.254301 1_555
Ga3 O16 1.814684 1_555
Ga3 O52 1.856116 1_555
Ga3 O53 1.896088 1_555
Ga3 O51 2.324494 1_555
Ga3 O17 2.491116 1_555
Ga4 O23 1.850323 1_555
Ga4 O22 1.860532 1_555
Ga4 O21 1.980593 1_555
Ga4 O57 2.089453 1_555
Ga5 O66 1.870729 1_555
Ga5 O68 1.899736 1_555
Ga5 O31 1.936707 1_555
Ga5 O30 1.948521 1_555
Ga5 O67 2.361059 1_555
Ga5 O32 2.550999 1_555
O0 Si0 1.649769 1_555
O1 S0 1.482780 1_555
O2 Si1 1.658183 1_655
O3 S1 1.499240 1_555
O4 Si2 1.650429 1_555
O5 Si3 1.660880 1_555
O6 Si3 1.639289 1_565
O7 S1 1.458360 1_555
O8 Si2 1.642551 1_455
O9 S0 1.484232 1_555
O10 Si1 1.637233 1_555
O11 Si0 1.614372 1_565
O12 Si4 1.626838 1_555
O13 S2 1.460971 1_555
O14 Si5 1.621865 1_555
O15 S3 1.459479 1_555
O16 Si6 1.668594 1_555
O17 S4 1.470543 1_555
O18 S4 1.487622 1_555
O19 S3 1.494208 1_555
O20 Si6 1.648086 1_555
O21 S2 1.530641 1_555
O22 Si5 1.670942 1_555
O23 Si4 1.685855 1_555
O24 S5 1.491898 1_555
O25 Si7 1.651862 1_555
O26 S6 1.489219 1_555
O27 Si8 1.617571 1_555
O28 S7 1.481343 1_555
O29 S8 1.488136 1_555
O30 S8 1.514560 1_555
O31 Si8 1.681759 1_555
O32 S7 1.472702 1_555
O33 Si7 1.639289 1_555
O34 S6 1.482833 1_555
O35 S5 1.469264 1_555
O36 S8 1.479422 1_555
O37 Si8 1.669307 1_545
O38 S7 1.522473 1_555
O39 Si7 1.630835 1_655
O40 S6 1.469754 1_555
O41 S5 1.484805 1_555
O42 Si4 1.665771 1_555
O43 S2 1.465491 1_555
O44 Si5 1.687529 1_555
O45 S3 1.483456 1_455
O46 Si6 1.634002 1_555
O47 S4 1.497392 1_555
O48 Si3 1.634267 1_555
O49 S1 1.471849 1_555
O50 Si2 1.655992 1_555
O51 S0 1.491324 1_555
O52 Si1 1.669469 1_655
O53 Si0 1.698304 1_555
O54 S5 1.479447 1_555
O55 Si7 1.669410 1_655
O56 S6 1.479312 1_545
O57 Si8 1.723559 1_545
O58 S7 1.472175 1_555
O59 S8 1.476856 1_655
O60 S4 1.492561 1_555
O61 S3 1.511190 1_455
O62 Si6 1.644594 1_565
O63 S2 1.509595 1_565
O64 Si5 1.647547 1_555
O65 Si4 1.639500 1_455
O66 Si0 1.642499 1_565
O67 S0 1.497487 1_555
O68 Si1 1.647072 1_555
O69 S1 1.510837 1_555
O70 Si2 1.646077 1_455
O71 Si3 1.633303 1_565
