# generated using pymatgen
data_MgV4O7F5
_symmetry_space_group_name_H-M   'P 1'
_cell_length_a   5.14540667
_cell_length_b   5.42229769
_cell_length_c   8.94534699
_cell_angle_alpha   74.25168605
_cell_angle_beta   91.09087314
_cell_angle_gamma   61.09732681
_symmetry_Int_Tables_number   1
_chemical_formula_structural   MgV4O7F5
_chemical_formula_sum   'Mg1 V4 O7 F5'
_cell_volume   206.91772432
_cell_formula_units_Z   1
loop_
 _symmetry_equiv_pos_site_id
 _symmetry_equiv_pos_as_xyz
  1  'x, y, z'
loop_
 _atom_site_type_symbol
 _atom_site_label
 _atom_site_symmetry_multiplicity
 _atom_site_fract_x
 _atom_site_fract_y
 _atom_site_fract_z
 _atom_site_occupancy
  Mg  Mg0  1  0.31233500  0.37471400  0.10358900  1
  V  V0  1  0.71409400  0.50296000  0.26314000  1
  V  V1  1  0.46700700  0.00820400  0.47975600  1
  V  V2  1  0.27906900  0.52828800  0.74279500  1
  V  V3  1  0.98195500  0.00518500  0.97691100  1
  O  O0  1  0.52795100  0.74771100  0.38694700  1
  O  O1  1  0.43144200  0.72028000  0.09524500  1
  O  O2  1  0.42727000  0.74566900  0.67453700  1
  O  O3  1  0.56814800  0.22835800  0.32212400  1
  O  O4  1  0.58033600  0.24506700  0.94224100  1
  O  O5  1  0.05705600  0.72209300  0.89167900  1
  O  O6  1  0.08168500  0.23811700  0.42034300  1
  F  F0  1  0.91697200  0.75307600  0.58173000  1
  F  F1  1  0.94762800  0.71709100  0.17622700  1
  F  F2  1  0.01534700  0.23666100  0.12565900  1
  F  F3  1  0.47425100  0.24055500  0.62438100  1
  F  F4  1  0.07995200  0.24847000  0.82126900  1
loop_
_geom_bond_atom_site_label_1
_geom_bond_atom_site_label_2
_geom_bond_distance
_geom_bond_site_symmetry_2
Mg0 O4 2.041665 1_554
Mg0 O3 2.057676 1_555
Mg0 O5 2.107600 1_554
Mg0 O1 2.219912 1_555
O0 V1 1.732326 1_565
O0 V0 1.874740 1_555
O1 V0 1.748972 1_555
O1 V3 2.102721 1_464
O2 V2 1.685099 1_555
O2 V1 2.013132 1_565
O3 V1 1.843609 1_555
O3 V0 1.931022 1_555
O4 V3 1.793542 1_555
O4 V2 2.012625 1_555
O5 V3 1.777639 1_465
O5 V2 1.959657 1_555
O6 V1 1.725822 1_555
O6 V0 1.947852 1_455
F0 V2 1.944767 1_655
F0 V1 2.060285 1_565
F1 V0 2.071398 1_555
F1 V3 2.101711 1_564
F1 Mg0 2.173435 1_655
F2 Mg0 1.992862 1_555
F2 V3 2.117001 1_454
F2 V0 2.207513 1_455
F3 V2 1.996933 1_555
F3 V1 2.047123 1_555
F4 V3 1.898844 1_455
F4 V2 2.190066 1_555
