# generated using pymatgen
data_Na15Mg2Nb10Si15(PO24)3
_symmetry_space_group_name_H-M   'P 1'
_cell_length_a   9.04042737
_cell_length_b   9.04885438
_cell_length_c   22.56851279
_cell_angle_alpha   90.04330211
_cell_angle_beta   90.01755180
_cell_angle_gamma   120.01390669
_symmetry_Int_Tables_number   1
_chemical_formula_structural   Na15Mg2Nb10Si15(PO24)3
_chemical_formula_sum   'Na15 Mg2 Nb10 Si15 P3 O72'
_cell_volume   1598.65591077
_cell_formula_units_Z   1
loop_
 _symmetry_equiv_pos_site_id
 _symmetry_equiv_pos_as_xyz
  1  'x, y, z'
loop_
 _atom_site_type_symbol
 _atom_site_label
 _atom_site_symmetry_multiplicity
 _atom_site_fract_x
 _atom_site_fract_y
 _atom_site_fract_z
 _atom_site_occupancy
  Na  Na0  1  0.63540744  0.01872466  0.24479171  1
  Na  Na1  1  0.38279480  0.36643110  0.24166997  1
  Na  Na2  1  0.98367555  0.61517801  0.24160457  1
  Na  Na3  1  0.63371866  0.61724926  0.74219072  1
  Na  Na4  1  0.97926945  0.36670696  0.74337419  1
  Na  Na5  1  0.38353048  0.01593232  0.74127332  1
  Na  Na6  1  0.02400882  0.68729200  0.58462659  1
  Na  Na7  1  0.66035747  0.97567102  0.58480337  1
  Na  Na8  1  0.02351762  0.33766480  0.08583522  1
  Na  Na9  1  0.00962899  0.01026723  0.49709269  1
  Na  Na10  1  0.99949920  0.98976899  0.99844992  1
  Na  Na11  1  0.67172781  0.33242889  0.83187122  1
  Na  Na12  1  0.66744267  0.32983693  0.33255736  1
  Na  Na13  1  0.34178070  0.67435930  0.16239937  1
  Na  Na14  1  0.33260622  0.65563612  0.66350873  1
  Mg  Mg0  1  0.66982283  0.33461598  0.68431712  1
  Mg  Mg1  1  0.66659579  0.33241286  0.18402105  1
  Nb  Nb0  1  0.00337446  0.00572098  0.35746454  1
  Nb  Nb1  1  0.99436759  0.99637186  0.85802056  1
  Nb  Nb2  1  0.99954708  0.99774956  0.64338227  1
  Nb  Nb3  1  0.00896614  0.99960730  0.14298385  1
  Nb  Nb4  1  0.66461156  0.33881825  0.97826836  1
  Nb  Nb5  1  0.66569633  0.33112529  0.47870228  1
  Nb  Nb6  1  0.33282988  0.66761835  0.02015383  1
  Nb  Nb7  1  0.33375527  0.66430568  0.51931022  1
  Nb  Nb8  1  0.32851594  0.66474249  0.31462292  1
  Nb  Nb9  1  0.33299353  0.67108532  0.81502868  1
  Si  Si0  1  0.29144012  0.99967568  0.25117271  1
  Si  Si1  1  -0.00006172  0.28964561  0.24956101  1
  Si  Si2  1  0.00004109  0.70956858  0.75079379  1
  Si  Si3  1  0.70857371  0.99875614  0.75055205  1
  Si  Si4  1  0.95793688  0.33576995  0.58608502  1
  Si  Si5  1  0.37905750  0.04613978  0.58592979  1
  Si  Si6  1  0.66009724  0.61613323  0.58681394  1
  Si  Si7  1  0.95452458  0.62168161  0.08632468  1
  Si  Si8  1  0.38190371  0.33815558  0.08681436  1
  Si  Si9  1  0.62059391  0.66469448  0.91656173  1
  Si  Si10  1  0.04152510  0.37605692  0.91709005  1
  Si  Si11  1  0.33554359  0.96038462  0.91768296  1
  Si  Si12  1  0.62368065  0.95847508  0.41631370  1
  Si  Si13  1  0.33749427  0.37762801  0.41589358  1
  Si  Si14  1  0.03918490  0.66535515  0.41765020  1
  P  P0  1  0.71413118  0.71698471  0.25063526  1
  P  P1  1  0.28403704  0.28637284  0.75138138  1
  P  P2  1  0.66412548  0.04271657  0.08528393  1
  O  O0  1  0.18412823  0.01699014  0.30653632  1
  O  O1  1  0.82562156  0.80746870  0.30561482  1
  O  O2  1  0.97873484  0.16408221  0.30560725  1
  O  O3  1  0.19313634  0.17526275  0.80594747  1
  O  O4  1  0.98687363  0.82046094  0.80590296  1
  O  O5  1  0.83559215  0.02060719  0.80606163  1
  O  O6  1  0.80215333  0.96966684  0.69146531  1
  O  O7  1  0.16803056  0.19854691  0.69561757  1
  O  O8  1  0.03465305  0.83249287  0.69129771  1
  O  O9  1  0.80009958  0.83312255  0.19539796  1
  O  O10  1  0.02988462  0.19735934  0.19071763  1
  O  O11  1  0.16198691  0.96552131  0.19305456  1
  O  O12  1  0.89305980  0.38085416  0.64591435  1
  O  O13  1  0.49106084  0.11068791  0.64524971  1
  O  O14  1  0.63288632  0.51941587  0.64807006  1
  O  O15  1  0.89064017  0.50971981  0.14564513  1
  O  O16  1  0.63697354  0.11174140  0.14350176  1
  O  O17  1  0.47969925  0.36427357  0.14783355  1
  O  O18  1  0.47585209  0.30878104  0.02866623  1
  O  O19  1  0.83304258  0.52066764  0.02848804  1
  O  O20  1  0.69554409  0.16227186  0.03162650  1
  O  O21  1  0.47501122  0.16792426  0.52805387  1
  O  O22  1  0.69981775  0.52671365  0.52975383  1
  O  O23  1  0.82918231  0.29902974  0.52898819  1
  O  O24  1  0.52369666  0.68969213  0.97290450  1
  O  O25  1  0.16091320  0.47009895  0.97499705  1
  O  O26  1  0.30789607  0.83390042  0.97295619  1
  O  O27  1  0.53095716  0.84193120  0.47475328  1
  O  O28  1  0.31102068  0.47653987  0.47195490  1
  O  O29  1  0.15931680  0.69298680  0.47533233  1
  O  O30  1  0.13802779  0.64194989  0.35862149  1
  O  O31  1  0.50408300  0.86088134  0.35732207  1
  O  O32  1  0.35779648  0.49318636  0.35633801  1
  O  O33  1  0.13734541  0.49647685  0.85794561  1
  O  O34  1  0.35978137  0.86462858  0.85774282  1
  O  O35  1  0.50566068  0.64124133  0.85650875  1
  O  O36  1  0.02277454  0.83530136  0.40922682  1
  O  O37  1  0.81022954  0.97272971  0.40956224  1
  O  O38  1  0.16421734  0.19025406  0.41071398  1
  O  O39  1  0.02864412  0.19051778  0.90956283  1
  O  O40  1  0.16615406  0.97795827  0.90960742  1
  O  O41  1  0.80998624  0.83517137  0.91084470  1
  O  O42  1  0.97069992  0.15911262  0.58980556  1
  O  O43  1  0.18317341  0.01878433  0.58863348  1
  O  O44  1  0.83831189  0.81234268  0.58928994  1
  O  O45  1  0.96930669  0.81190416  0.08880260  1
  O  O46  1  0.83193289  0.02947747  0.08877858  1
  O  O47  1  0.18136600  0.16595664  0.08841906  1
  O  O48  1  0.68571861  0.16343942  0.75028147  1
  O  O49  1  0.46041906  0.30615445  0.74756525  1
  O  O50  1  0.83158685  0.52485124  0.75130654  1
  O  O51  1  0.69416767  0.54018290  0.24737856  1
  O  O52  1  0.83473357  0.31220209  0.24935385  1
  O  O53  1  0.47693783  0.16656945  0.24898122  1
  O  O54  1  0.63947663  0.49507537  0.92257393  1
  O  O55  1  0.85362989  0.35627326  0.92404328  1
  O  O56  1  0.50802256  0.14433874  0.92394576  1
  O  O57  1  0.64041350  0.14538035  0.42174567  1
  O  O58  1  0.50673633  0.36092290  0.42240447  1
  O  O59  1  0.85455565  0.49306634  0.42267558  1
  O  O60  1  0.34352998  0.49759381  0.07598038  1
  O  O61  1  0.14764357  0.64814455  0.07426234  1
  O  O62  1  0.50891315  0.86044661  0.07527287  1
  O  O63  1  0.34814409  0.85077102  0.57463856  1
  O  O64  1  0.50598910  0.66099169  0.57593885  1
  O  O65  1  0.14796943  0.50324168  0.57402971  1
  O  O66  1  0.30228974  0.82192954  0.25412346  1
  O  O67  1  0.53424619  0.70401648  0.25487434  1
  O  O68  1  0.18017821  0.47706497  0.25440104  1
  O  O69  1  0.29529909  0.46517170  0.75471830  1
  O  O70  1  0.17708815  0.69613513  0.75455221  1
  O  O71  1  0.52208393  0.81783252  0.75444999  1
loop_
_geom_bond_atom_site_label_1
_geom_bond_atom_site_label_2
_geom_bond_distance
_geom_bond_site_symmetry_2
Na0 O52 2.349936 1_555
Na0 O53 2.401763 1_555
Na0 O16 2.434191 1_555
Na0 O67 2.528530 1_545
Na0 O66 2.630713 1_545
Na0 O31 2.865352 1_545
Na1 O17 2.295844 1_555
Na1 O53 2.358507 1_555
Na1 O51 2.446282 1_555
Na1 O68 2.504891 1_555
Na1 O67 2.666293 1_555
Na1 O32 2.884270 1_555
Na1 O10 2.992305 1_555
Na2 O15 2.345410 1_555
Na2 O51 2.356076 1_555
Na2 O52 2.380695 1_555
Na2 O66 2.546428 1_655
Na2 O68 2.649997 1_655
Na2 O30 2.939181 1_655
Na2 O11 2.956877 1_655
Na3 O14 2.299202 1_555
Na3 O50 2.331848 1_555
Na3 O49 2.445857 1_555
Na3 O71 2.494286 1_555
Na3 O69 2.668911 1_555
Na3 O35 2.880306 1_555
Na3 O6 2.991225 1_555
Na4 O12 2.358157 1_555
Na4 O48 2.359578 1_555
Na4 O50 2.402822 1_555
Na4 O69 2.544532 1_655
Na4 O70 2.610223 1_655
Na4 O33 2.901958 1_655
Na5 O13 2.355163 1_555
Na5 O49 2.360780 1_555
Na5 O48 2.374346 1_555
Na5 O70 2.558450 1_545
Na5 O71 2.667882 1_545
Na5 O34 2.922593 1_545
Na5 O8 2.955090 1_545
Na6 O65 2.439982 1_555
Na6 O44 2.451570 1_455
Na6 O63 2.547584 1_555
Na6 O43 2.599596 1_565
Na6 O8 2.720258 1_555
Na6 O29 2.742647 1_555
Na6 O12 2.779644 1_455
Na6 O22 2.823004 1_455
Na7 O42 2.445421 1_565
Na7 O63 2.470740 1_555
Na7 O64 2.473713 1_555
Na7 O44 2.676104 1_555
Na7 O6 2.740221 1_555
Na7 O13 2.750561 1_565
Na7 O27 2.753005 1_555
Na7 O23 2.831404 1_565
Na8 O46 2.439169 1_455
Na8 O61 2.463320 1_555
Na8 O60 2.515131 1_555
Na8 O47 2.583063 1_555
Na8 O10 2.701047 1_555
Na8 O15 2.749157 1_455
Na8 O25 2.784512 1_554
Na8 O20 2.845004 1_455
Na9 O38 2.476972 1_555
Na9 O43 2.571449 1_555
Na9 O36 2.576180 1_545
Na9 O37 2.579053 1_445
Na9 O42 2.605082 1_455
Na9 O44 2.677405 1_445
Na10 O45 2.527597 1_556
Na10 O41 2.529291 1_555
Na10 O40 2.542473 1_655
Na10 O47 2.595866 1_666
Na10 O39 2.630685 1_665
Na10 O46 2.669288 1_566
Na11 O50 2.432134 1_555
Na11 O48 2.436045 1_555
Na11 O55 2.592350 1_555
Na11 O54 2.620404 1_555
Na11 O49 2.620817 1_555
Na11 O56 2.625337 1_555
Na12 O52 2.466079 1_555
Na12 O53 2.480889 1_555
Na12 O57 2.548446 1_555
Na12 O59 2.583281 1_555
Na12 O58 2.590624 1_555
Na12 O51 2.631061 1_555
Na13 O60 2.526499 1_555
Na13 O62 2.538958 1_555
Na13 O66 2.582446 1_555
Na13 O61 2.583376 1_555
Na13 O67 2.642909 1_555
Na13 O68 2.651598 1_555
Na14 O64 2.508219 1_555
Na14 O65 2.541023 1_555
Na14 O69 2.597246 1_555
Na14 O71 2.603627 1_555
Na14 O70 2.617048 1_555
Na14 O63 2.630149 1_555
Mg0 O14 2.034102 1_555
Mg0 O12 2.038637 1_555
Mg0 O13 2.053135 1_555
Mg0 O48 2.205045 1_555
Mg0 O50 2.205413 1_555
Mg0 O49 2.280816 1_555
Mg1 O17 2.022816 1_555
Mg1 O15 2.044230 1_555
Mg1 O16 2.087434 1_555
Mg1 O53 2.184473 1_555
Mg1 O52 2.189782 1_555
Mg1 O51 2.273388 1_555
Nb0 O2 1.947944 1_455
Nb0 O0 1.958657 1_555
Nb0 O38 1.978307 1_555
Nb0 O37 2.000189 1_445
Nb0 O36 2.011641 1_545
Nb0 O1 2.069191 1_445
Nb1 O5 1.948797 1_565
Nb1 O4 1.952207 1_555
Nb1 O41 1.974558 1_555
Nb1 O39 1.996884 1_665
Nb1 O40 2.013245 1_655
Nb1 O3 2.079581 1_665
Nb2 O6 1.993644 1_555
Nb2 O44 1.994753 1_555
Nb2 O8 1.995823 1_655
Nb2 O43 2.001059 1_665
Nb2 O42 2.011347 1_565
Nb2 O7 2.058674 1_665
Nb3 O11 1.926717 1_555
Nb3 O47 1.966815 1_565
Nb3 O45 1.973834 1_455
Nb3 O10 2.014143 1_565
Nb3 O9 2.095829 1_455
Nb3 O46 2.136148 1_465
Nb4 O19 1.949448 1_556
Nb4 O18 1.953774 1_556
Nb4 O54 1.988648 1_555
Nb4 O56 2.026665 1_555
Nb4 O55 2.043076 1_555
Nb4 O20 2.128404 1_556
Nb5 O21 1.962133 1_555
Nb5 O23 1.996404 1_555
Nb5 O22 2.001378 1_555
Nb5 O58 2.034508 1_555
Nb5 O57 2.035142 1_555
Nb5 O59 2.040192 1_555
Nb6 O26 1.947053 1_554
Nb6 O24 1.952191 1_554
Nb6 O25 1.966195 1_554
Nb6 O61 2.007864 1_555
Nb6 O60 2.028687 1_555
Nb6 O62 2.083935 1_555
Nb7 O28 1.928480 1_555
Nb7 O27 1.977327 1_555
Nb7 O29 1.987020 1_555
Nb7 O65 2.006310 1_555
Nb7 O64 2.025896 1_555
Nb7 O63 2.049446 1_555
Nb8 O30 1.907929 1_555
Nb8 O31 1.943231 1_555
Nb8 O32 1.944083 1_555
Nb8 O68 2.060750 1_555
Nb8 O66 2.069714 1_555
Nb8 O67 2.178250 1_555
Nb9 O34 1.904768 1_555
Nb9 O33 1.941794 1_555
Nb9 O35 1.951200 1_555
Nb9 O70 2.054189 1_555
Nb9 O71 2.070736 1_555
Nb9 O69 2.191173 1_555
O0 Si0 1.636895 1_545
O1 P0 1.548545 1_555
O2 Si1 1.646833 1_655
O3 P1 1.542282 1_555
O4 Si2 1.638796 1_655
O5 Si3 1.642778 1_545
O6 Si3 1.669182 1_555
O7 P1 1.574535 1_555
O8 Si2 1.671058 1_555
O9 P0 1.564604 1_555
O10 Si1 1.661019 1_555
O11 Si0 1.679925 1_555
O12 Si4 1.603952 1_555
O13 Si5 1.601572 1_555
O14 Si6 1.588806 1_555
O15 Si7 1.602951 1_555
O16 P2 1.526112 1_555
O17 Si8 1.588608 1_555
O18 Si8 1.655356 1_555
O19 Si7 1.654830 1_555
O20 P2 1.553150 1_555
O21 Si5 1.649097 1_555
O22 Si6 1.652688 1_555
O23 Si4 1.654440 1_555
O24 Si9 1.622932 1_555
O25 Si10 1.635727 1_555
O26 Si11 1.626250 1_555
O27 Si12 1.634842 1_555
O28 Si13 1.634605 1_555
O29 Si14 1.632075 1_555
O30 Si14 1.675622 1_555
O31 Si12 1.662383 1_555
O32 Si13 1.656484 1_555
O33 Si10 1.666747 1_555
O34 Si11 1.678427 1_555
O35 Si9 1.655177 1_555
O36 Si14 1.628404 1_555
O37 Si12 1.632983 1_555
O38 Si13 1.638539 1_555
O39 Si10 1.632527 1_555
O40 Si11 1.626973 1_555
O41 Si9 1.638897 1_555
O42 Si4 1.661456 1_555
O43 Si5 1.662092 1_555
O44 Si6 1.699778 1_555
O45 Si7 1.659389 1_555
O46 P2 1.582331 1_555
O47 Si8 1.700024 1_555
O48 Si3 1.603576 1_545
O49 P1 1.515476 1_555
O50 Si2 1.602085 1_655
O51 P0 1.519362 1_555
O52 Si1 1.605384 1_655
O53 Si0 1.600603 1_545
O54 Si9 1.632717 1_555
O55 Si10 1.624217 1_655
O56 Si11 1.620193 1_545
O57 Si12 1.625441 1_545
O58 Si13 1.617615 1_555
O59 Si14 1.620640 1_655
O60 Si8 1.662170 1_555
O61 Si7 1.661833 1_455
O62 P2 1.556993 1_565
O63 Si5 1.665348 1_565
O64 Si6 1.652794 1_555
O65 Si4 1.648736 1_455
O66 Si0 1.661020 1_555
O67 P0 1.573775 1_555
O68 Si1 1.666802 1_555
O69 P1 1.571220 1_555
O70 Si2 1.666856 1_555
O71 Si3 1.664157 1_555
