# generated using pymatgen
data_Li6Br3N
_symmetry_space_group_name_H-M   'P 1'
_cell_length_a   6.39551496
_cell_length_b   6.39551496
_cell_length_c   6.39551496
_cell_angle_alpha   60.00000000
_cell_angle_beta   60.00000000
_cell_angle_gamma   60.00000000
_symmetry_Int_Tables_number   1
_chemical_formula_structural   Li6Br3N
_chemical_formula_sum   'Li6 Br3 N1'
_cell_volume   184.97437150
_cell_formula_units_Z   1
loop_
 _symmetry_equiv_pos_site_id
 _symmetry_equiv_pos_as_xyz
  1  'x, y, z'
loop_
 _atom_site_type_symbol
 _atom_site_label
 _atom_site_symmetry_multiplicity
 _atom_site_fract_x
 _atom_site_fract_y
 _atom_site_fract_z
 _atom_site_occupancy
  Li  Li0  1  0.71245300  0.71245300  0.28754700  1
  Li  Li1  1  0.71245300  0.28754700  0.71245300  1
  Li  Li2  1  0.28754700  0.71245300  0.28754700  1
  Li  Li3  1  0.71245300  0.28754700  0.28754700  1
  Li  Li4  1  0.28754700  0.28754700  0.71245300  1
  Li  Li5  1  0.28754700  0.71245300  0.71245300  1
  Br  Br0  1  0.25000000  0.25000000  0.25000000  1
  Br  Br1  1  0.75000000  0.75000000  0.75000000  1
  Br  Br2  1  0.00000000  0.00000000  0.00000000  1
  N  N0  1  0.50000000  0.50000000  0.50000000  1
loop_
_geom_bond_atom_site_label_1
_geom_bond_atom_site_label_2
_geom_bond_distance
_geom_bond_site_symmetry_2
Li0 N0 1.921558 1_555
Li1 N0 1.921558 1_555
Li2 N0 1.921558 1_555
Li3 N0 1.921558 1_555
Li4 N0 1.921558 1_555
Li5 N0 1.921558 1_555
Br0 Li4 3.215739 1_555
Br0 Li5 3.215739 1_554
Br0 Li3 3.215739 1_455
Br0 Li0 3.215739 1_545
Br0 Li0 3.215739 1_455
Br0 Li5 3.215739 1_545
Br0 Li2 3.215739 1_555
Br0 Li2 3.215739 1_545
Br0 Li4 3.215739 1_554
Br0 Li1 3.215739 1_455
Br0 Li1 3.215739 1_554
Br0 Li3 3.215739 1_555
Br1 Li1 3.215739 1_555
Br1 Li3 3.215739 1_565
Br1 Li5 3.215739 1_555
Br1 Li1 3.215739 1_565
Br1 Li4 3.215739 1_565
Br1 Li4 3.215739 1_655
Br1 Li3 3.215739 1_556
Br1 Li5 3.215739 1_655
Br1 Li0 3.215739 1_556
Br1 Li2 3.215739 1_655
Br1 Li2 3.215739 1_556
Br1 Li0 3.215739 1_555
Br2 Li0 2.600754 1_445
Br2 Li3 2.600754 1_455
Br2 Li5 2.600754 1_544
Br2 Li4 2.600754 1_554
Br2 Li1 2.600754 1_454
Br2 Li2 2.600754 1_545
