# generated using pymatgen
data_LiNiO2
_symmetry_space_group_name_H-M   'P 1'
_cell_length_a   4.99869847
_cell_length_b   8.73934058
_cell_length_c   5.06412462
_cell_angle_alpha   90.74842514
_cell_angle_beta   79.94897781
_cell_angle_gamma   149.89240500
_symmetry_Int_Tables_number   1
_chemical_formula_structural   LiNiO2
_chemical_formula_sum   'Li3 Ni3 O6'
_cell_volume   104.92425290
_cell_formula_units_Z   3
loop_
 _symmetry_equiv_pos_site_id
 _symmetry_equiv_pos_as_xyz
  1  'x, y, z'
loop_
 _atom_site_type_symbol
 _atom_site_label
 _atom_site_symmetry_multiplicity
 _atom_site_fract_x
 _atom_site_fract_y
 _atom_site_fract_z
 _atom_site_occupancy
  Li  Li0  1  0.98034685  0.98212514  0.00700157  1
  Li  Li1  1  0.01083590  0.33882337  0.99888081  1
  Li  Li2  1  0.00700210  0.67535865  0.99535987  1
  Ni  Ni0  1  0.99506695  0.16469252  0.49932434  1
  Ni  Ni1  1  0.99475502  0.83137812  0.50020443  1
  Ni  Ni2  1  0.00465030  0.50223441  0.50023046  1
  O  O0  1  0.43506680  0.21320877  0.28195191  1
  O  O1  1  0.48638400  0.92127666  0.27569859  1
  O  O2  1  0.53448469  0.59903976  0.27170300  1
  O  O3  1  0.49412874  0.07296366  0.71749915  1
  O  O4  1  0.52173757  0.44124524  0.71796778  1
  O  O5  1  0.53567809  0.75772269  0.73406310  1
loop_
_geom_bond_atom_site_label_1
_geom_bond_atom_site_label_2
_geom_bond_distance
_geom_bond_site_symmetry_2
Li0 O2 2.034024 1_555
Li0 O5 2.038801 1_554
Li0 O0 2.067089 1_665
Li0 O3 2.136368 1_664
Li0 O1 2.192145 1_555
Li0 O4 2.355681 1_664
Li1 O4 2.038904 1_555
Li1 O5 2.089588 1_555
Li1 O1 2.110232 1_446
Li1 O0 2.162865 1_456
Li1 O2 2.193907 1_556
Li1 O3 2.217035 1_455
Li2 O2 2.031536 1_456
Li2 O3 2.067856 1_565
Li2 O4 2.137976 1_455
Li2 O1 2.138668 1_556
Li2 O5 2.183119 1_555
Li2 O0 2.306339 1_456
Ni0 O3 1.928199 1_555
Ni0 O0 1.944899 1_655
Ni0 O1 1.963883 1_545
Ni0 O4 1.984186 1_655
Ni0 O2 2.080592 1_655
Ni0 O5 2.088752 1_545
Ni1 O2 1.881627 1_555
Ni1 O5 1.896975 1_555
Ni1 O1 1.912263 1_655
Ni1 O4 1.916137 1_555
Ni1 O3 1.918133 1_665
Ni1 O0 1.934173 1_665
Ni2 O2 2.036793 1_555
Ni2 O4 2.046261 1_455
Ni2 O5 2.051183 1_555
Ni2 O0 2.071531 1_455
Ni2 O3 2.088225 1_455
Ni2 O1 2.097207 1_555
