# generated using pymatgen
data_MgV4Zn2O12
_symmetry_space_group_name_H-M   'P 1'
_cell_length_a   5.01589177
_cell_length_b   5.34171954
_cell_length_c   7.75193336
_cell_angle_alpha   89.98857054
_cell_angle_beta   90.19305055
_cell_angle_gamma   89.98556109
_symmetry_Int_Tables_number   1
_chemical_formula_structural   MgV4Zn2O12
_chemical_formula_sum   'Mg1 V4 Zn2 O12'
_cell_volume   207.70013677
_cell_formula_units_Z   1
loop_
 _symmetry_equiv_pos_site_id
 _symmetry_equiv_pos_as_xyz
  1  'x, y, z'
loop_
 _atom_site_type_symbol
 _atom_site_label
 _atom_site_symmetry_multiplicity
 _atom_site_fract_x
 _atom_site_fract_y
 _atom_site_fract_z
 _atom_site_occupancy
  Mg  Mg0  1  0.93724000  0.99794700  0.24255400  1
  V  V0  1  0.51135600  0.99937900  0.96774800  1
  V  V1  1  0.98284200  0.49939300  0.95555300  1
  V  V2  1  0.03328800  0.49942100  0.48791300  1
  V  V3  1  0.48292400  0.99936400  0.47976600  1
  Zn  Zn0  1  0.56615300  0.49849200  0.24706100  1
  Zn  Zn1  1  0.04479500  0.00016800  0.74574700  1
  O  O0  1  0.75547000  0.25008300  0.42583900  1
  O  O1  1  0.22600200  0.24334500  0.57878300  1
  O  O2  1  0.74372900  0.74444200  0.07605400  1
  O  O3  1  0.21752800  0.75935300  0.94097900  1
  O  O4  1  0.22433900  0.75686600  0.57842500  1
  O  O5  1  0.75395800  0.74704600  0.42588000  1
  O  O6  1  0.21981200  0.24187100  0.94096200  1
  O  O7  1  0.74532600  0.25282600  0.07605000  1
  O  O8  1  0.17514500  0.49998900  0.28397000  1
  O  O9  1  0.64882600  0.99884900  0.75943900  1
  O  O10  1  0.33882500  0.99978100  0.27258500  1
  O  O11  1  0.85906500  0.49894300  0.75625300  1
loop_
_geom_bond_atom_site_label_1
_geom_bond_atom_site_label_2
_geom_bond_distance
_geom_bond_site_symmetry_2
Mg0 O10 2.026962 1_655
Mg0 O2 2.105865 1_555
Mg0 O7 2.106310 1_565
Mg0 O5 2.160945 1_555
Mg0 O0 2.161673 1_565
O0 V3 1.960053 1_545
O0 V2 1.985955 1_655
O0 Zn0 2.138431 1_555
O1 V2 1.815505 1_555
O1 V3 1.988630 1_545
O1 Zn1 2.048544 1_555
O2 V0 1.977391 1_554
O2 V1 2.007917 1_554
O2 Zn0 2.069920 1_555
O3 V1 1.824398 1_455
O3 V0 1.964201 1_555
O3 Zn1 2.164645 1_565
O4 V2 1.816126 1_555
O4 V3 1.988039 1_555
O4 Zn1 2.047063 1_565
O5 V3 1.960203 1_555
O5 V2 1.984493 1_655
O5 Zn0 2.136418 1_555
O6 V1 1.821551 1_455
O6 V0 1.963759 1_545
O6 Zn1 2.172572 1_555
O7 V0 1.977274 1_544
O7 V1 2.008574 1_554
O7 Zn0 2.072505 1_555
O8 V2 1.735882 1_555
O8 Zn0 1.982982 1_555
O9 V0 1.757993 1_555
O9 Zn1 1.989343 1_665
O9 V3 2.319605 1_555
O10 V3 1.758979 1_555
O10 V0 2.519291 1_554
O11 V1 1.663101 1_555
O11 V2 2.258975 1_655
