# generated using pymatgen
data_Na3In2(PO4)3
_symmetry_space_group_name_H-M   'P 1'
_cell_length_a   15.83664875
_cell_length_b   9.13142873
_cell_length_c   9.11812595
_cell_angle_alpha   90.00000000
_cell_angle_beta   125.25394702
_cell_angle_gamma   90.00000000
_symmetry_Int_Tables_number   1
_chemical_formula_structural   Na3In2(PO4)3
_chemical_formula_sum   'Na12 In8 P12 O48'
_cell_volume   1076.75757298
_cell_formula_units_Z   4
loop_
 _symmetry_equiv_pos_site_id
 _symmetry_equiv_pos_as_xyz
  1  'x, y, z'
loop_
 _atom_site_type_symbol
 _atom_site_label
 _atom_site_symmetry_multiplicity
 _atom_site_fract_x
 _atom_site_fract_y
 _atom_site_fract_z
 _atom_site_occupancy
  Na  Na0  1  0.24482398  0.77194614  0.99752560  1
  Na  Na1  1  0.74482398  0.72805386  0.49752560  1
  Na  Na2  1  0.74482398  0.27194614  0.99752560  1
  Na  Na3  1  0.24482398  0.22805386  0.49752560  1
  Na  Na4  1  0.50163055  0.10246721  0.74750685  1
  Na  Na5  1  0.50163055  0.89753279  0.24750685  1
  Na  Na6  1  0.00163055  0.60246721  0.74750685  1
  Na  Na7  1  0.00163055  0.39753279  0.24750685  1
  Na  Na8  1  0.81236742  0.93172890  0.20766622  1
  Na  Na9  1  0.81236742  0.06827110  0.70766622  1
  Na  Na10  1  0.31236742  0.43172890  0.20766622  1
  Na  Na11  1  0.31236742  0.56827110  0.70766622  1
  In  In0  1  0.10207985  0.75820526  0.55075791  1
  In  In1  1  0.89966870  0.75093307  0.94560866  1
  In  In2  1  0.89966870  0.24906693  0.44560866  1
  In  In3  1  0.10207985  0.24179474  0.05075791  1
  In  In4  1  0.60207985  0.25820526  0.55075791  1
  In  In5  1  0.39966870  0.25093307  0.94560866  1
  In  In6  1  0.39966870  0.74906693  0.44560866  1
  In  In7  1  0.60207985  0.74179474  0.05075791  1
  P  P0  1  0.99929583  0.94641694  0.74629276  1
  P  P1  1  0.99929583  0.05358306  0.24629276  1
  P  P2  1  0.49929583  0.44641694  0.74629276  1
  P  P3  1  0.49929583  0.55358306  0.24629276  1
  P  P4  1  0.35366324  0.89840171  0.75751851  1
  P  P5  1  0.65189548  0.90146657  0.74617693  1
  P  P6  1  0.65189548  0.09853343  0.24617693  1
  P  P7  1  0.35366324  0.10159829  0.25751851  1
  P  P8  1  0.85366324  0.39840171  0.75751851  1
  P  P9  1  0.15189548  0.40146657  0.74617693  1
  P  P10  1  0.15189548  0.59853343  0.24617693  1
  P  P11  1  0.85366324  0.60159829  0.25751851  1
  O  O0  1  0.15919105  0.57236908  0.74557355  1
  O  O1  1  0.84608948  0.56804096  0.75351697  1
  O  O2  1  0.84608948  0.43195904  0.25351697  1
  O  O3  1  0.15919105  0.42763092  0.24557355  1
  O  O4  1  0.65919105  0.07236908  0.74557355  1
  O  O5  1  0.34608948  0.06804096  0.75351697  1
  O  O6  1  0.34608948  0.93195904  0.25351697  1
  O  O7  1  0.65919105  0.92763092  0.24557355  1
  O  O8  1  0.43183049  0.53883562  0.57293241  1
  O  O9  1  0.55982293  0.54222711  0.91447711  1
  O  O10  1  0.55982293  0.45777289  0.41447711  1
  O  O11  1  0.43183049  0.46116438  0.07293241  1
  O  O12  1  0.93183049  0.03883562  0.57293241  1
  O  O13  1  0.05982293  0.04222711  0.91447711  1
  O  O14  1  0.05982293  0.95777289  0.41447711  1
  O  O15  1  0.93183049  0.96116438  0.07293241  1
  O  O16  1  0.26293205  0.82218700  0.74748634  1
  O  O17  1  0.74361893  0.83794611  0.74916848  1
  O  O18  1  0.74361893  0.16205389  0.24916848  1
  O  O19  1  0.26293205  0.17781300  0.24748634  1
  O  O20  1  0.76293205  0.32218700  0.74748634  1
  O  O21  1  0.24361893  0.33794611  0.74916848  1
  O  O22  1  0.24361893  0.66205389  0.24916848  1
  O  O23  1  0.76293205  0.67781300  0.24748634  1
  O  O24  1  0.35581577  0.85470954  0.59607708  1
  O  O25  1  0.65704914  0.86568761  0.91808857  1
  O  O26  1  0.65704914  0.13431239  0.41808857  1
  O  O27  1  0.35581577  0.14529046  0.09607708  1
  O  O28  1  0.85581577  0.35470954  0.59607708  1
  O  O29  1  0.15704914  0.36568761  0.91808857  1
  O  O30  1  0.15704914  0.63431239  0.41808857  1
  O  O31  1  0.85581577  0.64529046  0.09607708  1
  O  O32  1  0.45349330  0.84515256  0.93515557  1
  O  O33  1  0.55033901  0.84672863  0.57432261  1
  O  O34  1  0.55033901  0.15327137  0.07432261  1
  O  O35  1  0.45349330  0.15484744  0.43515557  1
  O  O36  1  0.95349330  0.34515256  0.93515557  1
  O  O37  1  0.05033901  0.34672863  0.57432261  1
  O  O38  1  0.05033901  0.65327137  0.07432261  1
  O  O39  1  0.95349330  0.65484744  0.43515557  1
  O  O40  1  0.07584974  0.84125186  0.74560662  1
  O  O41  1  0.91854304  0.84851952  0.74854124  1
  O  O42  1  0.91854304  0.15148048  0.24854124  1
  O  O43  1  0.07584974  0.15874814  0.24560662  1
  O  O44  1  0.57584974  0.34125186  0.74560662  1
  O  O45  1  0.41854304  0.34851952  0.74854124  1
  O  O46  1  0.41854304  0.65148048  0.24854124  1
  O  O47  1  0.57584974  0.65874814  0.24560662  1
loop_
_geom_bond_atom_site_label_1
_geom_bond_atom_site_label_2
_geom_bond_distance
_geom_bond_site_symmetry_2
Na0 O40 2.396216 1_555
Na0 O6 2.415335 1_556
Na0 O16 2.499072 1_555
Na0 O22 2.514489 1_556
Na0 O46 2.597754 1_556
Na0 O0 2.615631 1_555
Na1 O47 2.396216 1_555
Na1 O1 2.415335 1_555
Na1 O23 2.499072 1_555
Na1 O17 2.514489 1_555
Na1 O41 2.597754 1_555
Na1 O7 2.615631 1_555
Na2 O44 2.396216 1_555
Na2 O2 2.415335 1_556
Na2 O20 2.499072 1_555
Na2 O18 2.514489 1_556
Na2 O42 2.597754 1_556
Na2 O4 2.615631 1_555
Na3 O43 2.396216 1_555
Na3 O5 2.415335 1_555
Na3 O19 2.499072 1_555
Na3 O21 2.514489 1_555
Na3 O45 2.597754 1_555
Na3 O3 2.615631 1_555
Na4 O44 2.481870 1_555
Na4 O5 2.515006 1_555
Na4 O4 2.520476 1_555
Na4 O35 2.532777 1_555
Na4 O45 2.606524 1_555
Na4 O34 2.652685 1_556
Na4 O24 2.945602 1_545
Na4 O25 2.955117 1_545
Na5 O47 2.481870 1_555
Na5 O6 2.515006 1_555
Na5 O7 2.520476 1_555
Na5 O32 2.532777 1_554
Na5 O46 2.606524 1_555
Na5 O33 2.652685 1_555
Na5 O27 2.945602 1_565
Na5 O26 2.955117 1_565
Na6 O40 2.481870 1_555
Na6 O1 2.515006 1_455
Na6 O0 2.520476 1_555
Na6 O39 2.532777 1_455
Na6 O41 2.606524 1_455
Na6 O38 2.652685 1_556
Na6 O28 2.945602 1_455
Na6 O29 2.955117 1_555
Na7 O43 2.481870 1_555
Na7 O2 2.515006 1_455
Na7 O3 2.520476 1_555
Na7 O36 2.532777 1_454
Na7 O42 2.606524 1_455
Na7 O37 2.652685 1_555
Na7 O31 2.945602 1_455
Na7 O30 2.955117 1_555
Na8 O25 2.426558 1_554
Na8 O18 2.495521 1_565
Na8 O42 2.503880 1_565
Na8 O23 2.539462 1_555
Na8 O7 2.640701 1_555
Na8 O15 2.800691 1_555
Na8 O12 2.890399 1_565
Na9 O26 2.426558 1_555
Na9 O17 2.495521 1_545
Na9 O41 2.503880 1_545
Na9 O20 2.539462 1_555
Na9 O4 2.640701 1_555
Na9 O12 2.800691 1_555
Na9 O15 2.890399 1_546
Na10 O29 2.426558 1_554
Na10 O22 2.495521 1_555
Na10 O46 2.503880 1_555
Na10 O19 2.539462 1_555
Na10 O3 2.640701 1_555
Na10 O11 2.800691 1_555
Na10 O8 2.890399 1_555
Na11 O30 2.426558 1_555
Na11 O21 2.495521 1_555
Na11 O45 2.503880 1_555
Na11 O16 2.539462 1_555
Na11 O0 2.640701 1_555
Na11 O8 2.800691 1_555
Na11 O11 2.890399 1_556
In0 O14 2.086360 1_555
In0 O39 2.162325 1_455
In0 O30 2.171806 1_555
In0 O40 2.180848 1_555
In0 O16 2.184744 1_555
In0 O0 2.235712 1_555
In1 O31 2.096471 1_556
In1 O15 2.147072 1_556
In1 O38 2.152540 1_656
In1 O41 2.175371 1_555
In1 O17 2.199308 1_555
In1 O1 2.204824 1_555
In2 O28 2.096471 1_555
In2 O12 2.147072 1_555
In2 O37 2.152540 1_655
In2 O42 2.175371 1_555
In2 O18 2.199308 1_555
In2 O2 2.204824 1_555
In3 O13 2.086360 1_554
In3 O36 2.162325 1_454
In3 O29 2.171806 1_554
In3 O43 2.180848 1_555
In3 O19 2.184744 1_555
In3 O3 2.235712 1_555
In4 O10 2.086360 1_555
In4 O35 2.162325 1_555
In4 O26 2.171806 1_555
In4 O44 2.180848 1_555
In4 O20 2.184744 1_555
In4 O4 2.235712 1_555
In5 O27 2.096471 1_556
In5 O11 2.147072 1_556
In5 O34 2.152540 1_556
In5 O45 2.175371 1_555
In5 O21 2.199308 1_555
In5 O5 2.204824 1_555
In6 O24 2.096471 1_555
In6 O8 2.147072 1_555
In6 O33 2.152540 1_555
In6 O46 2.175371 1_555
In6 O22 2.199308 1_555
In6 O6 2.204824 1_555
In7 O9 2.086360 1_554
In7 O32 2.162325 1_554
In7 O25 2.171806 1_554
In7 O47 2.180848 1_555
In7 O23 2.184744 1_555
In7 O7 2.235712 1_555
O0 P9 1.565099 1_555
O1 P8 1.552488 1_555
O2 P11 1.552488 1_555
O3 P10 1.565099 1_555
O4 P5 1.565099 1_545
O5 P4 1.552488 1_545
O6 P7 1.552488 1_565
O7 P6 1.565099 1_565
O8 P2 1.550082 1_555
O9 P2 1.529383 1_555
O10 P3 1.529383 1_555
O11 P3 1.550082 1_555
O12 P0 1.550082 1_545
O13 P0 1.529383 1_445
O14 P1 1.529383 1_465
O15 P1 1.550082 1_565
O16 P4 1.550999 1_555
O17 P5 1.549666 1_555
O18 P6 1.549666 1_555
O19 P7 1.550999 1_555
O20 P8 1.550999 1_555
O21 P9 1.549666 1_555
O22 P10 1.549666 1_555
O23 P11 1.550999 1_555
O24 P4 1.544403 1_555
O25 P5 1.556537 1_555
O26 P6 1.556537 1_555
O27 P7 1.544403 1_555
O28 P8 1.544403 1_555
O29 P9 1.556537 1_555
O30 P10 1.556537 1_555
O31 P11 1.544403 1_555
O32 P4 1.550251 1_555
O33 P5 1.543576 1_555
O34 P6 1.543576 1_555
O35 P7 1.550251 1_555
O36 P8 1.550251 1_555
O37 P9 1.543576 1_555
O38 P10 1.543576 1_555
O39 P11 1.550251 1_555
O40 P0 1.549450 1_455
O41 P0 1.570124 1_555
O42 P1 1.570124 1_555
O43 P1 1.549450 1_455
O44 P2 1.549450 1_555
O45 P2 1.570124 1_555
O46 P3 1.570124 1_555
O47 P3 1.549450 1_555
