# generated using pymatgen
data_MgMo3(Se2S)2
_symmetry_space_group_name_H-M   'P 1'
_cell_length_a   6.56577800
_cell_length_b   6.56606665
_cell_length_c   72.88140043
_cell_angle_alpha   89.93183212
_cell_angle_beta   90.00000000
_cell_angle_gamma   119.99851557
_symmetry_Int_Tables_number   1
_chemical_formula_structural   MgMo3(Se2S)2
_chemical_formula_sum   'Mg8 Mo24 Se32 S16'
_cell_volume   2721.10254244
_cell_formula_units_Z   8
loop_
 _symmetry_equiv_pos_site_id
 _symmetry_equiv_pos_as_xyz
  1  'x, y, z'
loop_
 _atom_site_type_symbol
 _atom_site_label
 _atom_site_symmetry_multiplicity
 _atom_site_fract_x
 _atom_site_fract_y
 _atom_site_fract_z
 _atom_site_occupancy
  Mg  Mg0_0  1  0.49973900  0.49947850  0.12045550  1
  Mg  Mg0_1  1  0.49973900  0.49947850  0.62045550  1
  Mg  Mg0_2  1  0.49973900  0.99947850  0.12045550  1
  Mg  Mg0_3  1  0.49973900  0.99947850  0.62045550  1
  Mg  Mg0_4  1  0.99973900  0.49947850  0.12045550  1
  Mg  Mg0_5  1  0.99973900  0.49947850  0.62045550  1
  Mg  Mg0_6  1  0.99973900  0.99947850  0.12045550  1
  Mg  Mg0_7  1  0.99973900  0.99947850  0.62045550  1
  Mo  Mo0_0  1  0.16664450  0.33328900  0.05403300  1
  Mo  Mo0_1  1  0.16664450  0.33328900  0.55403300  1
  Mo  Mo0_2  1  0.16664450  0.83328900  0.05403300  1
  Mo  Mo0_3  1  0.16664450  0.83328900  0.55403300  1
  Mo  Mo0_4  1  0.66664450  0.33328900  0.05403300  1
  Mo  Mo0_5  1  0.66664450  0.33328900  0.55403300  1
  Mo  Mo0_6  1  0.66664450  0.83328900  0.05403300  1
  Mo  Mo0_7  1  0.66664450  0.83328900  0.55403300  1
  Mo  Mo1_0  1  0.16663500  0.33327050  0.28913950  1
  Mo  Mo1_1  1  0.16663500  0.33327050  0.78913950  1
  Mo  Mo1_2  1  0.16663500  0.83327050  0.28913950  1
  Mo  Mo1_3  1  0.16663500  0.83327050  0.78913950  1
  Mo  Mo1_4  1  0.66663500  0.33327050  0.28913950  1
  Mo  Mo1_5  1  0.66663500  0.33327050  0.78913950  1
  Mo  Mo1_6  1  0.66663500  0.83327050  0.28913950  1
  Mo  Mo1_7  1  0.66663500  0.83327050  0.78913950  1
  Mo  Mo2_0  1  0.33346200  0.16692300  0.17663750  1
  Mo  Mo2_1  1  0.33346200  0.16692300  0.67663750  1
  Mo  Mo2_2  1  0.33346200  0.66692300  0.17663750  1
  Mo  Mo2_3  1  0.33346200  0.66692300  0.67663750  1
  Mo  Mo2_4  1  0.83346200  0.16692300  0.17663750  1
  Mo  Mo2_5  1  0.83346200  0.16692300  0.67663750  1
  Mo  Mo2_6  1  0.83346200  0.66692300  0.17663750  1
  Mo  Mo2_7  1  0.83346200  0.66692300  0.67663750  1
  Se  Se0_0  1  0.33357700  0.16715350  0.03090100  1
  Se  Se0_1  1  0.33357700  0.16715350  0.53090100  1
  Se  Se0_2  1  0.33357700  0.66715350  0.03090100  1
  Se  Se0_3  1  0.33357700  0.66715350  0.53090100  1
  Se  Se0_4  1  0.83357700  0.16715350  0.03090100  1
  Se  Se0_5  1  0.83357700  0.16715350  0.53090100  1
  Se  Se0_6  1  0.83357700  0.66715350  0.03090100  1
  Se  Se0_7  1  0.83357700  0.66715350  0.53090100  1
  Se  Se1_0  1  0.33352850  0.16705650  0.26593900  1
  Se  Se1_1  1  0.33352850  0.16705650  0.76593900  1
  Se  Se1_2  1  0.33352850  0.66705650  0.26593900  1
  Se  Se1_3  1  0.33352850  0.66705650  0.76593900  1
  Se  Se1_4  1  0.83352850  0.16705650  0.26593900  1
  Se  Se1_5  1  0.83352850  0.16705650  0.76593900  1
  Se  Se1_6  1  0.83352850  0.66705650  0.26593900  1
  Se  Se1_7  1  0.83352850  0.66705650  0.76593900  1
  Se  Se2_0  1  0.33304650  0.16609300  0.07735850  1
  Se  Se2_1  1  0.33304650  0.16609300  0.57735850  1
  Se  Se2_2  1  0.33304650  0.66609300  0.07735850  1
  Se  Se2_3  1  0.33304650  0.66609300  0.57735850  1
  Se  Se2_4  1  0.83304650  0.16609300  0.07735850  1
  Se  Se2_5  1  0.83304650  0.16609300  0.57735850  1
  Se  Se2_6  1  0.83304650  0.66609300  0.07735850  1
  Se  Se2_7  1  0.83304650  0.66609300  0.57735850  1
  Se  Se3_0  1  0.33306300  0.16612600  0.31232500  1
  Se  Se3_1  1  0.33306300  0.16612600  0.81232500  1
  Se  Se3_2  1  0.33306300  0.66612600  0.31232500  1
  Se  Se3_3  1  0.33306300  0.66612600  0.81232500  1
  Se  Se3_4  1  0.83306300  0.16612600  0.31232500  1
  Se  Se3_5  1  0.83306300  0.16612600  0.81232500  1
  Se  Se3_6  1  0.83306300  0.66612600  0.31232500  1
  Se  Se3_7  1  0.83306300  0.66612600  0.81232500  1
  S  S0_0  1  0.16667350  0.33334850  0.19752250  1
  S  S0_1  1  0.16667350  0.33334850  0.69752250  1
  S  S0_2  1  0.16667350  0.83334850  0.19752250  1
  S  S0_3  1  0.16667350  0.83334850  0.69752250  1
  S  S0_4  1  0.66667350  0.33334850  0.19752250  1
  S  S0_5  1  0.66667350  0.33334850  0.69752250  1
  S  S0_6  1  0.66667350  0.83334850  0.19752250  1
  S  S0_7  1  0.66667350  0.83334850  0.69752250  1
  S  S1_0  1  0.16693100  0.33386300  0.15541250  1
  S  S1_1  1  0.16693100  0.33386300  0.65541250  1
  S  S1_2  1  0.16693100  0.83386300  0.15541250  1
  S  S1_3  1  0.16693100  0.83386300  0.65541250  1
  S  S1_4  1  0.66693100  0.33386300  0.15541250  1
  S  S1_5  1  0.66693100  0.33386300  0.65541250  1
  S  S1_6  1  0.66693100  0.83386300  0.15541250  1
  S  S1_7  1  0.66693100  0.83386300  0.65541250  1
loop_
_geom_bond_atom_site_label_1
_geom_bond_atom_site_label_2
_geom_bond_distance
_geom_bond_site_symmetry_2
Mg0_0 S1_4 3.172620 1_555
Mg0_0 S1_0 3.172622 1_555
Mg0_0 S1_6 3.181153 1_555
Mg0_0 Mg0_4 3.282889 1_555
Mg0_0 Mg0_4 3.282889 1_455
Mg0_0 Mg0_2 3.283033 1_545
Mg0_0 Mg0_2 3.283033 1_555
Mg0_0 Mg0_6 3.283035 1_555
Mg0_0 Mg0_6 3.283035 1_445
Mg0_1 S1_5 3.172620 1_555
Mg0_1 S1_1 3.172622 1_555
Mg0_1 S1_7 3.181153 1_555
Mg0_1 Mg0_5 3.282889 1_555
Mg0_1 Mg0_5 3.282889 1_455
Mg0_1 Mg0_3 3.283033 1_545
Mg0_1 Mg0_3 3.283033 1_555
Mg0_1 Mg0_7 3.283035 1_445
Mg0_1 Mg0_7 3.283035 1_555
Mg0_2 S1_6 3.172620 1_555
Mg0_2 S1_2 3.172622 1_555
Mg0_2 S1_4 3.181153 1_565
Mg0_2 Mg0_6 3.282889 1_555
Mg0_2 Mg0_6 3.282889 1_455
Mg0_2 Mg0_4 3.283035 1_565
Mg0_2 Mg0_4 3.283035 1_455
Mg0_3 S1_7 3.172620 1_555
Mg0_3 S1_3 3.172622 1_555
Mg0_3 S1_5 3.181153 1_565
Mg0_3 Mg0_7 3.282889 1_555
Mg0_3 Mg0_7 3.282889 1_455
Mg0_3 Mg0_5 3.283035 1_565
Mg0_3 Mg0_5 3.283035 1_455
Mg0_4 S1_0 3.172620 1_655
Mg0_4 S1_4 3.172622 1_555
Mg0_4 S1_2 3.181153 1_655
Mg0_4 Mg0_6 3.283033 1_545
Mg0_4 Mg0_6 3.283033 1_555
Mg0_5 S1_1 3.172620 1_655
Mg0_5 S1_5 3.172622 1_555
Mg0_5 S1_3 3.181153 1_655
Mg0_5 Mg0_7 3.283033 1_555
Mg0_5 Mg0_7 3.283033 1_545
Mg0_6 S1_2 3.172620 1_655
Mg0_6 S1_6 3.172622 1_555
Mg0_6 S1_0 3.181153 1_665
Mg0_7 S1_3 3.172620 1_655
Mg0_7 S1_7 3.172622 1_555
Mg0_7 S1_1 3.181153 1_665
Mo0_0 Se0_4 2.536424 1_455
Mo0_0 Se0_0 2.536426 1_555
Mo0_0 Se0_2 2.537277 1_555
Mo0_0 Se2_2 2.545643 1_555
Mo0_0 Se2_0 2.546334 1_555
Mo0_0 Se2_4 2.546334 1_455
Mo0_1 Se0_5 2.536424 1_455
Mo0_1 Se0_1 2.536426 1_555
Mo0_1 Se0_3 2.537277 1_555
Mo0_1 Se2_3 2.545643 1_555
Mo0_1 Se2_1 2.546334 1_555
Mo0_1 Se2_5 2.546334 1_455
Mo0_2 Se0_6 2.536424 1_455
Mo0_2 Se0_2 2.536426 1_555
Mo0_2 Se0_0 2.537277 1_565
Mo0_2 Se2_0 2.545643 1_565
Mo0_2 Se2_2 2.546334 1_555
Mo0_2 Se2_6 2.546334 1_455
Mo0_3 Se0_7 2.536424 1_455
Mo0_3 Se0_3 2.536426 1_555
Mo0_3 Se0_1 2.537277 1_565
Mo0_3 Se2_1 2.545643 1_565
Mo0_3 Se2_3 2.546334 1_555
Mo0_3 Se2_7 2.546334 1_455
Mo0_4 Se0_0 2.536424 1_555
Mo0_4 Se0_4 2.536426 1_555
Mo0_4 Se0_6 2.537277 1_555
Mo0_4 Se2_6 2.545643 1_555
Mo0_4 Se2_4 2.546334 1_555
Mo0_4 Se2_0 2.546334 1_555
Mo0_5 Se0_1 2.536424 1_555
Mo0_5 Se0_5 2.536426 1_555
Mo0_5 Se0_7 2.537277 1_555
Mo0_5 Se2_7 2.545643 1_555
Mo0_5 Se2_5 2.546334 1_555
Mo0_5 Se2_1 2.546334 1_555
Mo0_6 Se0_2 2.536424 1_555
Mo0_6 Se0_6 2.536426 1_555
Mo0_6 Se0_4 2.537277 1_565
Mo0_6 Se2_4 2.545643 1_565
Mo0_6 Se2_6 2.546334 1_555
Mo0_6 Se2_2 2.546334 1_555
Mo0_7 Se0_3 2.536424 1_555
Mo0_7 Se0_7 2.536426 1_555
Mo0_7 Se0_5 2.537277 1_565
Mo0_7 Se2_5 2.545643 1_565
Mo0_7 Se2_7 2.546334 1_555
Mo0_7 Se2_3 2.546334 1_555
Mo1_0 Se3_2 2.539048 1_555
Mo1_0 Se3_4 2.539428 1_455
Mo1_0 Se3_0 2.539430 1_555
Mo1_0 Se1_4 2.539913 1_455
Mo1_0 Se1_0 2.539917 1_555
Mo1_0 Se1_2 2.540259 1_555
Mo1_1 Se3_3 2.539048 1_555
Mo1_1 Se3_5 2.539428 1_455
Mo1_1 Se3_1 2.539430 1_555
Mo1_1 Se1_5 2.539913 1_455
Mo1_1 Se1_1 2.539917 1_555
Mo1_1 Se1_3 2.540259 1_555
Mo1_2 Se3_0 2.539048 1_565
Mo1_2 Se3_6 2.539428 1_455
Mo1_2 Se3_2 2.539430 1_555
Mo1_2 Se1_6 2.539913 1_455
Mo1_2 Se1_2 2.539917 1_555
Mo1_2 Se1_0 2.540259 1_565
Mo1_3 Se3_1 2.539048 1_565
Mo1_3 Se3_7 2.539428 1_455
Mo1_3 Se3_3 2.539430 1_555
Mo1_3 Se1_7 2.539913 1_455
Mo1_3 Se1_3 2.539917 1_555
Mo1_3 Se1_1 2.540259 1_565
Mo1_4 Se3_6 2.539048 1_555
Mo1_4 Se3_0 2.539428 1_555
Mo1_4 Se3_4 2.539430 1_555
Mo1_4 Se1_0 2.539913 1_555
Mo1_4 Se1_4 2.539917 1_555
Mo1_4 Se1_6 2.540259 1_555
Mo1_5 Se3_7 2.539048 1_555
Mo1_5 Se3_1 2.539428 1_555
Mo1_5 Se3_5 2.539430 1_555
Mo1_5 Se1_1 2.539913 1_555
Mo1_5 Se1_5 2.539917 1_555
Mo1_5 Se1_7 2.540259 1_555
Mo1_6 Se3_4 2.539048 1_565
Mo1_6 Se3_2 2.539428 1_555
Mo1_6 Se3_6 2.539430 1_555
Mo1_6 Se1_2 2.539913 1_555
Mo1_6 Se1_6 2.539917 1_555
Mo1_6 Se1_4 2.540259 1_565
Mo1_7 Se3_5 2.539048 1_565
Mo1_7 Se3_3 2.539428 1_555
Mo1_7 Se3_7 2.539430 1_555
Mo1_7 Se1_3 2.539913 1_555
Mo1_7 Se1_7 2.539917 1_555
Mo1_7 Se1_5 2.540259 1_565
Mo2_0 S0_2 2.430436 1_545
Mo2_0 S0_4 2.431207 1_555
Mo2_0 S0_0 2.431218 1_555
Mo2_0 S1_4 2.446299 1_555
Mo2_0 S1_0 2.446307 1_555
Mo2_0 S1_2 2.447031 1_545
Mo2_1 S0_3 2.430436 1_545
Mo2_1 S0_5 2.431207 1_555
Mo2_1 S0_1 2.431218 1_555
Mo2_1 S1_5 2.446299 1_555
Mo2_1 S1_1 2.446307 1_555
Mo2_1 S1_3 2.447031 1_545
Mo2_2 S0_0 2.430436 1_555
Mo2_2 S0_6 2.431207 1_555
Mo2_2 S0_2 2.431218 1_555
Mo2_2 S1_6 2.446299 1_555
Mo2_2 S1_2 2.446307 1_555
Mo2_2 S1_0 2.447031 1_555
Mo2_3 S0_1 2.430436 1_555
Mo2_3 S0_7 2.431207 1_555
Mo2_3 S0_3 2.431218 1_555
Mo2_3 S1_7 2.446299 1_555
Mo2_3 S1_3 2.446307 1_555
Mo2_3 S1_1 2.447031 1_555
Mo2_4 S0_6 2.430436 1_545
Mo2_4 S0_0 2.431207 1_655
Mo2_4 S0_4 2.431218 1_555
Mo2_4 S1_0 2.446299 1_655
Mo2_4 S1_4 2.446307 1_555
Mo2_4 S1_6 2.447031 1_545
Mo2_5 S0_7 2.430436 1_545
Mo2_5 S0_1 2.431207 1_655
Mo2_5 S0_5 2.431218 1_555
Mo2_5 S1_1 2.446299 1_655
Mo2_5 S1_5 2.446307 1_555
Mo2_5 S1_7 2.447031 1_545
Mo2_6 S0_4 2.430436 1_555
Mo2_6 S0_2 2.431207 1_655
Mo2_6 S0_6 2.431218 1_555
Mo2_6 S1_2 2.446299 1_655
Mo2_6 S1_6 2.446307 1_555
Mo2_6 S1_4 2.447031 1_555
Mo2_7 S0_5 2.430436 1_555
Mo2_7 S0_3 2.431207 1_655
Mo2_7 S0_7 2.431218 1_555
Mo2_7 S1_3 2.446299 1_655
Mo2_7 S1_7 2.446307 1_555
Mo2_7 S1_5 2.447031 1_555
