# generated using pymatgen
data_Na4YNb3Si5SO24
_symmetry_space_group_name_H-M   'P 1'
_cell_length_a   9.11569555
_cell_length_b   9.07580721
_cell_length_c   22.96100732
_cell_angle_alpha   90.23126934
_cell_angle_beta   89.89618926
_cell_angle_gamma   119.99222292
_symmetry_Int_Tables_number   1
_chemical_formula_structural   Na4YNb3Si5SO24
_chemical_formula_sum   'Na12 Y3 Nb9 Si15 S3 O72'
_cell_volume   1645.23189794
_cell_formula_units_Z   3
loop_
 _symmetry_equiv_pos_site_id
 _symmetry_equiv_pos_as_xyz
  1  'x, y, z'
loop_
 _atom_site_type_symbol
 _atom_site_label
 _atom_site_symmetry_multiplicity
 _atom_site_fract_x
 _atom_site_fract_y
 _atom_site_fract_z
 _atom_site_occupancy
  Na  Na0  1  0.63262678  0.62440189  0.74620945  1
  Na  Na1  1  0.99278440  0.36605490  0.75096728  1
  Na  Na2  1  0.37856263  0.00647042  0.74701186  1
  Na  Na3  1  0.65901566  0.68383441  0.08404818  1
  Na  Na4  1  0.02356675  0.34666943  0.08274858  1
  Na  Na5  1  0.32480712  0.02772118  0.41882518  1
  Na  Na6  1  0.98723290  0.99577586  0.49799735  1
  Na  Na7  1  0.00921082  0.99474256  0.99343625  1
  Na  Na8  1  0.66672590  0.33288238  0.83497472  1
  Na  Na9  1  0.69676083  0.33909025  0.33075914  1
  Na  Na10  1  0.33134875  0.67735912  0.16811796  1
  Na  Na11  1  0.34387075  0.67446904  0.66152687  1
  Y  Y0  1  0.98909262  0.00206250  0.35824841  1
  Y  Y1  1  0.66010233  0.33058024  0.68310249  1
  Y  Y2  1  0.67140228  0.33124921  0.18255709  1
  Nb  Nb0  1  0.99907617  0.00049965  0.85746037  1
  Nb  Nb1  1  0.00231960  0.98937962  0.64624332  1
  Nb  Nb2  1  0.00681623  0.01595939  0.14289764  1
  Nb  Nb3  1  0.66740078  0.33474023  0.97772927  1
  Nb  Nb4  1  0.65901362  0.34160282  0.47899016  1
  Nb  Nb5  1  0.33280713  0.67024327  0.01574957  1
  Nb  Nb6  1  0.34184227  0.67533804  0.51933549  1
  Nb  Nb7  1  0.32227453  0.65275535  0.31696307  1
  Nb  Nb8  1  0.33561249  0.66704516  0.81522076  1
  Si  Si0  1  0.00552086  0.30463255  0.25158972  1
  Si  Si1  1  0.28031073  0.28595981  0.75154877  1
  Si  Si2  1  0.00649704  0.71459372  0.75289717  1
  Si  Si3  1  0.71445055  0.99475558  0.75143144  1
  Si  Si4  1  0.36724647  0.03639936  0.58407932  1
  Si  Si5  1  0.66599128  0.63327273  0.58562253  1
  Si  Si6  1  0.96337188  0.63017296  0.08135042  1
  Si  Si7  1  0.66072587  0.03724780  0.08147328  1
  Si  Si8  1  0.37789206  0.33709457  0.08118779  1
  Si  Si9  1  0.62485208  0.66390175  0.91642875  1
  Si  Si10  1  0.04033436  0.37676833  0.91616607  1
  Si  Si11  1  0.33593073  0.96133537  0.91548497  1
  Si  Si12  1  0.61762974  0.95980879  0.41660110  1
  Si  Si13  1  0.33716948  0.38067052  0.41968755  1
  Si  Si14  1  0.03971101  0.65371665  0.41967922  1
  S  S0  1  0.28651558  0.99086992  0.25008350  1
  S  S1  1  0.70025114  0.71171997  0.24833307  1
  S  S2  1  0.96440236  0.33204623  0.58208103  1
  O  O0  1  0.20724226  0.00163864  0.30484174  1
  O  O1  1  0.80256179  0.79104786  0.30056714  1
  O  O2  1  0.99607644  0.19324274  0.30604593  1
  O  O3  1  0.18367998  0.16796043  0.80813524  1
  O  O4  1  0.98193795  0.81290826  0.80796031  1
  O  O5  1  0.83090654  0.01581172  0.80846360  1
  O  O6  1  0.80706554  0.96575489  0.69383556  1
  O  O7  1  0.15975877  0.19322377  0.69377311  1
  O  O8  1  0.03399772  0.83366983  0.69354396  1
  O  O9  1  0.79067058  0.81276425  0.19451433  1
  O  O10  1  0.02084342  0.19650263  0.19111818  1
  O  O11  1  0.17700189  0.97759735  0.19829046  1
  O  O12  1  0.89783085  0.35930723  0.63766312  1
  O  O13  1  0.46729241  0.09703234  0.64489567  1
  O  O14  1  0.63611741  0.53617081  0.64650139  1
  O  O15  1  0.89991529  0.50559699  0.13636695  1
  O  O16  1  0.62085925  0.10081524  0.14069297  1
  O  O17  1  0.49568580  0.39432929  0.13759636  1
  O  O18  1  0.47287579  0.30445731  0.02594771  1
  O  O19  1  0.83010671  0.53586971  0.02648712  1
  O  O20  1  0.70691331  0.17212536  0.02749296  1
  O  O21  1  0.47480424  0.16414117  0.52840949  1
  O  O22  1  0.68953246  0.52312328  0.53094772  1
  O  O23  1  0.85107167  0.31258035  0.53262559  1
  O  O24  1  0.52890856  0.68614565  0.97293462  1
  O  O25  1  0.15909418  0.46995218  0.97286243  1
  O  O26  1  0.31295731  0.83655172  0.97021968  1
  O  O27  1  0.51309703  0.84285368  0.47341886  1
  O  O28  1  0.31863382  0.48042797  0.47485668  1
  O  O29  1  0.16040219  0.67268987  0.47425062  1
  O  O30  1  0.13358908  0.62698742  0.35976610  1
  O  O31  1  0.49366248  0.86200790  0.35898477  1
  O  O32  1  0.36015230  0.49774490  0.36027981  1
  O  O33  1  0.13737771  0.49691207  0.85813675  1
  O  O34  1  0.36004388  0.86600141  0.85704045  1
  O  O35  1  0.50458081  0.64076665  0.85837206  1
  O  O36  1  0.03676690  0.82753849  0.41480447  1
  O  O37  1  0.79840416  0.97381435  0.41932682  1
  O  O38  1  0.18855426  0.18689404  0.41761397  1
  O  O39  1  0.02302276  0.18913575  0.91001789  1
  O  O40  1  0.16600149  0.97715376  0.91035799  1
  O  O41  1  0.81125271  0.83418266  0.91044577  1
  O  O42  1  0.97701006  0.17509837  0.58499475  1
  O  O43  1  0.18166549  0.02840932  0.58904563  1
  O  O44  1  0.83983089  0.82243124  0.58852607  1
  O  O45  1  0.97154842  0.81474475  0.09274047  1
  O  O46  1  0.83901878  0.02155366  0.09098455  1
  O  O47  1  0.18480439  0.16385289  0.09029124  1
  O  O48  1  0.69620108  0.16256078  0.74895276  1
  O  O49  1  0.46719023  0.30699127  0.74976783  1
  O  O50  1  0.84334208  0.52704781  0.74881733  1
  O  O51  1  0.67229549  0.53767365  0.24467262  1
  O  O52  1  0.84679511  0.33441026  0.24894634  1
  O  O53  1  0.45407427  0.14359084  0.24549106  1
  O  O54  1  0.64016793  0.49303281  0.92277083  1
  O  O55  1  0.85555353  0.36223658  0.92342645  1
  O  O56  1  0.50721234  0.14499521  0.92408204  1
  O  O57  1  0.62193331  0.14269226  0.42405879  1
  O  O58  1  0.51671328  0.37475711  0.42465463  1
  O  O59  1  0.85501768  0.48184357  0.42735470  1
  O  O60  1  0.33522141  0.49043239  0.06946695  1
  O  O61  1  0.15314456  0.65859047  0.06853639  1
  O  O62  1  0.51224409  0.84003389  0.07032635  1
  O  O63  1  0.33199571  0.84216598  0.57288208  1
  O  O64  1  0.50110491  0.65605732  0.57387525  1
  O  O65  1  0.13656412  0.48221582  0.57541152  1
  O  O66  1  0.29970867  0.83340924  0.25017684  1
  O  O67  1  0.53500253  0.70833974  0.25163919  1
  O  O68  1  0.18899473  0.49255784  0.25375835  1
  O  O69  1  0.29456845  0.47507329  0.75693101  1
  O  O70  1  0.18255314  0.70575901  0.75666477  1
  O  O71  1  0.52616407  0.82005014  0.75683371  1
loop_
_geom_bond_atom_site_label_1
_geom_bond_atom_site_label_2
_geom_bond_distance
_geom_bond_site_symmetry_2
Na0 O71 2.423391 1_555
Na0 O14 2.427755 1_555
Na0 O50 2.484236 1_555
Na0 O49 2.497560 1_555
Na0 O69 2.686693 1_555
Na0 O35 2.859429 1_555
Na0 O6 2.944587 1_555
Na1 O48 2.393770 1_555
Na1 O69 2.417558 1_655
Na1 O50 2.446217 1_555
Na1 O70 2.679641 1_655
Na1 O12 2.734052 1_555
Na1 O33 2.761533 1_655
Na2 O70 2.412123 1_545
Na2 O49 2.427258 1_555
Na2 O13 2.484227 1_555
Na2 O48 2.508345 1_555
Na2 O71 2.646483 1_545
Na2 O34 2.801002 1_545
Na3 O62 2.408398 1_555
Na3 O45 2.486774 1_555
Na3 O60 2.593116 1_555
Na3 O17 2.596255 1_555
Na3 O46 2.661071 1_565
Na3 O9 2.797502 1_555
Na3 O24 2.819995 1_554
Na3 O19 2.838076 1_555
Na4 O60 2.482051 1_555
Na4 O61 2.485733 1_555
Na4 O15 2.544166 1_455
Na4 O46 2.571580 1_455
Na4 O47 2.717465 1_555
Na4 O25 2.788140 1_554
Na4 O20 2.806530 1_455
Na4 O10 2.836003 1_555
Na5 O38 2.329093 1_555
Na5 O36 2.331059 1_545
Na5 O57 2.369366 1_555
Na5 O0 2.793865 1_555
Na6 O37 2.435342 1_555
Na6 O44 2.550315 1_555
Na6 O38 2.571812 1_665
Na6 O42 2.602371 1_565
Na6 O36 2.616625 1_655
Na6 O43 2.661416 1_665
Na7 O40 2.433682 1_555
Na7 O41 2.524275 1_455
Na7 O39 2.569336 1_565
Na7 O47 2.718942 1_566
Na7 O45 2.729850 1_456
Na7 O46 2.800585 1_466
Na8 O54 2.561530 1_555
Na8 O55 2.590055 1_555
Na8 O56 2.597435 1_555
Na8 O48 2.598384 1_555
Na8 O49 2.602528 1_555
Na8 O50 2.605969 1_555
Na9 O52 2.334356 1_555
Na9 O59 2.607438 1_555
Na9 O57 2.653621 1_555
Na9 O51 2.763572 1_555
Na9 O53 2.817579 1_555
Na9 O58 2.821219 1_555
Na10 O66 2.454375 1_555
Na10 O68 2.491004 1_555
Na10 O67 2.586471 1_555
Na10 O62 2.742274 1_555
Na10 O61 2.762171 1_555
Na10 O60 2.835270 1_555
Na11 O64 2.521703 1_555
Na11 O63 2.580973 1_555
Na11 O71 2.662835 1_555
Na11 O65 2.685978 1_555
Na11 O70 2.723199 1_555
Na11 O69 2.736941 1_555
Nb0 O5 1.963545 1_555
Nb0 O3 1.968350 1_655
Nb0 O4 1.983420 1_545
Nb0 O39 2.011375 1_655
Nb0 O41 2.028173 1_545
Nb0 O40 2.041226 1_645
Nb1 O8 1.918740 1_555
Nb1 O43 1.984957 1_565
Nb1 O44 1.998290 1_455
Nb1 O7 2.002065 1_565
Nb1 O6 2.005336 1_455
Nb1 O42 2.298078 1_465
Nb2 O10 1.924461 1_555
Nb2 O47 1.929204 1_555
Nb2 O46 1.961574 1_455
Nb2 O45 2.040105 1_445
Nb2 O11 2.167103 1_545
Nb2 O9 2.250370 1_445
Nb3 O18 1.988404 1_556
Nb3 O19 2.016938 1_556
Nb3 O54 2.022439 1_555
Nb3 O56 2.022503 1_555
Nb3 O55 2.031125 1_555
Nb3 O20 2.039620 1_556
Nb4 O58 1.931012 1_555
Nb4 O22 1.934383 1_555
Nb4 O59 1.987191 1_555
Nb4 O21 2.001325 1_555
Nb4 O57 2.082593 1_555
Nb4 O23 2.263317 1_555
Nb5 O26 1.921026 1_554
Nb5 O25 1.973571 1_554
Nb5 O24 1.979803 1_554
Nb5 O61 1.995776 1_555
Nb5 O62 2.022952 1_555
Nb5 O60 2.058451 1_555
Nb6 O27 1.869262 1_555
Nb6 O29 1.942685 1_555
Nb6 O28 1.956796 1_555
Nb6 O63 1.983084 1_555
Nb6 O64 1.992205 1_555
Nb6 O65 2.227541 1_555
Nb7 O30 1.890123 1_555
Nb7 O32 1.893631 1_555
Nb7 O68 1.979752 1_555
Nb7 O31 2.000706 1_555
Nb7 O67 2.298282 1_555
Nb7 O66 2.332536 1_555
Nb8 O35 1.945681 1_555
Nb8 O34 1.953680 1_555
Nb8 O33 1.958797 1_555
Nb8 O69 2.073199 1_555
Nb8 O71 2.082758 1_555
Nb8 O70 2.092504 1_555
O0 S0 1.476106 1_545
O0 Y0 2.336023 1_455
O1 S1 1.467094 1_555
O1 Y0 2.246123 1_565
O2 Si0 1.586083 1_655
O2 Y0 2.087450 1_555
O3 Si1 1.635518 1_555
O4 Si2 1.623064 1_655
O5 Si3 1.636611 1_545
O6 Si3 1.657177 1_555
O7 Si1 1.657531 1_555
O8 Si2 1.681614 1_555
O9 S1 1.515638 1_555
O10 Si0 1.742362 1_555
O11 S0 1.519298 1_555
O12 S2 1.484240 1_555
O12 Y1 2.298219 1_555
O13 Si4 1.606599 1_555
O13 Y1 2.148857 1_555
O14 Si5 1.604181 1_555
O14 Y1 2.157972 1_555
O15 Si6 1.601159 1_555
O15 Y2 2.162858 1_555
O16 Si7 1.585971 1_555
O16 Y2 2.128883 1_555
O17 Si8 1.594465 1_555
O17 Y2 2.210601 1_555
O18 Si8 1.641822 1_555
O19 Si6 1.659074 1_555
O20 Si7 1.645310 1_555
O21 Si4 1.676392 1_555
O22 Si5 1.680718 1_555
O23 S2 1.485971 1_555
O24 Si9 1.630734 1_555
O25 Si10 1.631806 1_555
O26 Si11 1.636863 1_555
O27 Si12 1.652912 1_555
O28 Si13 1.611147 1_555
O29 Si14 1.619861 1_555
O30 Si14 1.698301 1_555
O31 Si12 1.675751 1_555
O32 Si13 1.679782 1_555
O33 Si10 1.670311 1_555
O34 Si11 1.666571 1_555
O35 Si9 1.672115 1_555
O36 Si14 1.595541 1_555
O36 Y0 2.256306 1_465
O37 Si12 1.589494 1_555
O37 Y0 2.145363 1_565
O38 Si13 1.596275 1_555
O38 Y0 2.217914 1_455
O39 Si10 1.635307 1_555
O40 Si11 1.630053 1_555
O41 Si9 1.633999 1_555
O42 S2 1.486992 1_555
O43 Si4 1.660371 1_555
O44 Si5 1.656049 1_555
O45 Si6 1.658839 1_555
O46 Si7 1.715356 1_555
O47 Si8 1.687721 1_555
O48 Si3 1.613807 1_545
O48 Y1 2.289507 1_555
O49 Si1 1.617054 1_555
O49 Y1 2.257832 1_555
O50 Si2 1.608192 1_655
O50 Y1 2.292588 1_555
O51 S1 1.470964 1_555
O51 Y2 2.346768 1_555
O52 Si0 1.600507 1_655
O52 Y2 2.200768 1_555
O53 S0 1.466045 1_545
O53 Y2 2.355791 1_555
O54 Si9 1.632162 1_555
O55 Si10 1.630788 1_655
O56 Si11 1.628412 1_545
O57 Si12 1.648781 1_545
O58 Si13 1.668265 1_555
O59 Si14 1.635349 1_655
O60 Si8 1.644704 1_555
O61 Si6 1.642676 1_455
O62 Si7 1.636053 1_565
O63 Si4 1.645364 1_565
O64 Si5 1.639313 1_555
O65 S2 1.485366 1_455
O66 S0 1.492849 1_555
O67 S1 1.493056 1_555
O68 Si0 1.690094 1_555
O69 Si1 1.659329 1_555
O70 Si2 1.648861 1_555
O71 Si3 1.659938 1_555
