# generated using pymatgen
data_Na3TaSi3SnO12
_symmetry_space_group_name_H-M   'P 1'
_cell_length_a   15.71887939
_cell_length_b   9.08094673
_cell_length_c   9.06644526
_cell_angle_alpha   90.00000000
_cell_angle_beta   124.96926458
_cell_angle_gamma   90.00000000
_symmetry_Int_Tables_number   1
_chemical_formula_structural   Na3TaSi3SnO12
_chemical_formula_sum   'Na12 Ta4 Si12 Sn4 O48'
_cell_volume   1060.51620178
_cell_formula_units_Z   4
loop_
 _symmetry_equiv_pos_site_id
 _symmetry_equiv_pos_as_xyz
  1  'x, y, z'
loop_
 _atom_site_type_symbol
 _atom_site_label
 _atom_site_symmetry_multiplicity
 _atom_site_fract_x
 _atom_site_fract_y
 _atom_site_fract_z
 _atom_site_occupancy
  Na  Na0  1  0.25172653  0.72624545  0.99392480  1
  Na  Na1  1  0.75172653  0.77375455  0.49392480  1
  Na  Na2  1  0.75172653  0.22624545  0.99392480  1
  Na  Na3  1  0.25172653  0.27375455  0.49392480  1
  Na  Na4  1  0.49940963  0.11427061  0.74529984  1
  Na  Na5  1  0.49940963  0.88572939  0.24529984  1
  Na  Na6  1  0.99940963  0.61427061  0.74529984  1
  Na  Na7  1  0.99940963  0.38572939  0.24529984  1
  Na  Na8  1  0.19022275  0.94545619  0.28732549  1
  Na  Na9  1  0.19022275  0.05454381  0.78732549  1
  Na  Na10  1  0.69022275  0.44545619  0.28732549  1
  Na  Na11  1  0.69022275  0.55454381  0.78732549  1
  Ta  Ta0  1  0.89244271  0.75362862  0.93176669  1
  Ta  Ta1  1  0.89244271  0.24637138  0.43176669  1
  Ta  Ta2  1  0.39244271  0.25362862  0.93176669  1
  Ta  Ta3  1  0.39244271  0.74637138  0.43176669  1
  Si  Si0  1  0.99847868  0.95943360  0.75395217  1
  Si  Si1  1  0.99847868  0.04056640  0.25395217  1
  Si  Si2  1  0.49847868  0.45943360  0.75395217  1
  Si  Si3  1  0.49847868  0.54056640  0.25395217  1
  Si  Si4  1  0.35365513  0.89301638  0.75610666  1
  Si  Si5  1  0.64325105  0.89465449  0.74389337  1
  Si  Si6  1  0.64325105  0.10534551  0.24389337  1
  Si  Si7  1  0.35365513  0.10698362  0.25610666  1
  Si  Si8  1  0.85365513  0.39301638  0.75610666  1
  Si  Si9  1  0.14325105  0.39465449  0.74389337  1
  Si  Si10  1  0.14325105  0.60534551  0.24389337  1
  Si  Si11  1  0.85365513  0.60698362  0.25610666  1
  Sn  Sn0  1  0.10423410  0.74920175  0.56367989  1
  Sn  Sn1  1  0.10423410  0.25079825  0.06367989  1
  Sn  Sn2  1  0.60423410  0.24920175  0.56367989  1
  Sn  Sn3  1  0.60423410  0.75079825  0.06367989  1
  O  O0  1  0.15173697  0.57291409  0.74089464  1
  O  O1  1  0.84924294  0.57650436  0.76002615  1
  O  O2  1  0.84924294  0.42349564  0.26002615  1
  O  O3  1  0.15173697  0.42708591  0.24089464  1
  O  O4  1  0.65173697  0.07291409  0.74089464  1
  O  O5  1  0.34924294  0.07650436  0.76002615  1
  O  O6  1  0.34924294  0.92349564  0.26002615  1
  O  O7  1  0.65173697  0.92708591  0.24089464  1
  O  O8  1  0.43461506  0.57352497  0.58104426  1
  O  O9  1  0.57541734  0.55340033  0.93653452  1
  O  O10  1  0.57541734  0.44659967  0.43653452  1
  O  O11  1  0.43461506  0.42647503  0.08104426  1
  O  O12  1  0.93461506  0.07352497  0.58104426  1
  O  O13  1  0.07541734  0.05340033  0.93653452  1
  O  O14  1  0.07541734  0.94659967  0.43653452  1
  O  O15  1  0.93461506  0.92647503  0.08104426  1
  O  O16  1  0.25375203  0.83194723  0.74825179  1
  O  O17  1  0.74036090  0.80720449  0.75935460  1
  O  O18  1  0.74036090  0.19279551  0.25935460  1
  O  O19  1  0.25375203  0.16805277  0.24825179  1
  O  O20  1  0.75375203  0.33194723  0.74825179  1
  O  O21  1  0.24036090  0.30720449  0.75935460  1
  O  O22  1  0.24036090  0.69279551  0.25935460  1
  O  O23  1  0.75375203  0.66805277  0.24825179  1
  O  O24  1  0.35537544  0.85604938  0.57800300  1
  O  O25  1  0.64202076  0.85952935  0.91694346  1
  O  O26  1  0.64202076  0.14047065  0.41694346  1
  O  O27  1  0.35537544  0.14395062  0.07800300  1
  O  O28  1  0.85537544  0.35604938  0.57800300  1
  O  O29  1  0.14202076  0.35952935  0.91694346  1
  O  O30  1  0.14202076  0.64047065  0.41694346  1
  O  O31  1  0.85537544  0.64395062  0.07800300  1
  O  O32  1  0.45764791  0.83452112  0.94066081  1
  O  O33  1  0.53482554  0.82930873  0.56087849  1
  O  O34  1  0.53482554  0.17069127  0.06087849  1
  O  O35  1  0.45764791  0.16547888  0.44066081  1
  O  O36  1  0.95764791  0.33452112  0.94066081  1
  O  O37  1  0.03482554  0.32930873  0.56087849  1
  O  O38  1  0.03482554  0.67069127  0.06087849  1
  O  O39  1  0.95764791  0.66547888  0.44066081  1
  O  O40  1  0.07751110  0.84970625  0.74329714  1
  O  O41  1  0.91407342  0.85524246  0.75816224  1
  O  O42  1  0.91407342  0.14475754  0.25816224  1
  O  O43  1  0.07751110  0.15029375  0.24329714  1
  O  O44  1  0.57751110  0.34970625  0.74329714  1
  O  O45  1  0.41407342  0.35524246  0.75816224  1
  O  O46  1  0.41407342  0.64475754  0.25816224  1
  O  O47  1  0.57751110  0.65029375  0.24329714  1
loop_
_geom_bond_atom_site_label_1
_geom_bond_atom_site_label_2
_geom_bond_distance
_geom_bond_site_symmetry_2
Na0 O0 2.353469 1_555
Na0 O46 2.406517 1_556
Na0 O16 2.442311 1_555
Na0 O22 2.531457 1_556
Na0 O40 2.605129 1_555
Na0 O6 2.672006 1_556
Na1 O7 2.353469 1_555
Na1 O41 2.406517 1_555
Na1 O23 2.442311 1_555
Na1 O17 2.531457 1_555
Na1 O47 2.605129 1_555
Na1 O1 2.672006 1_555
Na2 O4 2.353469 1_555
Na2 O42 2.406517 1_556
Na2 O20 2.442311 1_555
Na2 O18 2.531457 1_556
Na2 O44 2.605129 1_555
Na2 O2 2.672006 1_556
Na3 O3 2.353469 1_555
Na3 O45 2.406517 1_555
Na3 O19 2.442311 1_555
Na3 O21 2.531457 1_555
Na3 O43 2.605129 1_555
Na3 O5 2.672006 1_555
Na4 O4 2.446524 1_555
Na4 O5 2.463419 1_555
Na4 O44 2.470628 1_555
Na4 O35 2.489470 1_555
Na4 O45 2.603975 1_555
Na4 O34 2.633050 1_556
Na5 O7 2.446524 1_555
Na5 O6 2.463419 1_555
Na5 O47 2.470628 1_555
Na5 O32 2.489470 1_554
Na5 O46 2.603975 1_555
Na5 O33 2.633050 1_555
Na6 O0 2.446524 1_655
Na6 O1 2.463419 1_555
Na6 O40 2.470628 1_655
Na6 O39 2.489470 1_555
Na6 O41 2.603975 1_555
Na6 O38 2.633050 1_656
Na7 O3 2.446524 1_655
Na7 O2 2.463419 1_555
Na7 O43 2.470628 1_655
Na7 O36 2.489470 1_554
Na7 O42 2.603975 1_555
Na7 O37 2.633050 1_655
Na8 O19 2.369439 1_565
Na8 O43 2.438777 1_565
Na8 O22 2.485719 1_555
Na8 O24 2.549815 1_555
Na8 O6 2.656746 1_555
Na8 O13 2.784535 1_564
Na8 O14 2.808052 1_555
Na9 O16 2.369439 1_545
Na9 O40 2.438777 1_545
Na9 O21 2.485719 1_555
Na9 O27 2.549815 1_556
Na9 O5 2.656746 1_555
Na9 O14 2.784535 1_545
Na9 O13 2.808052 1_555
Na10 O23 2.369439 1_555
Na10 O47 2.438777 1_555
Na10 O18 2.485719 1_555
Na10 O28 2.549815 1_555
Na10 O2 2.656746 1_555
Na10 O9 2.784535 1_554
Na10 O10 2.808052 1_555
Na11 O20 2.369439 1_555
Na11 O44 2.438777 1_555
Na11 O17 2.485719 1_555
Na11 O31 2.549815 1_556
Na11 O1 2.656746 1_555
Na11 O10 2.784535 1_555
Na11 O9 2.808052 1_555
O0 Si9 1.625759 1_555
O0 Sn0 2.080049 1_555
O1 Si8 1.668912 1_555
O1 Ta0 2.064154 1_555
O2 Si11 1.668912 1_555
O2 Ta1 2.064154 1_555
O3 Si10 1.625759 1_555
O3 Sn1 2.080049 1_555
O4 Si5 1.625759 1_545
O4 Sn2 2.080049 1_555
O5 Si4 1.668912 1_545
O5 Ta2 2.064154 1_555
O6 Si7 1.668912 1_565
O6 Ta3 2.064154 1_555
O7 Si6 1.625759 1_565
O7 Sn3 2.080049 1_555
O8 Si2 1.653725 1_555
O8 Ta3 1.925210 1_555
O9 Si2 1.623633 1_555
O9 Sn3 2.036850 1_556
O10 Si3 1.623633 1_555
O10 Sn2 2.036850 1_555
O11 Si3 1.653725 1_555
O11 Ta2 1.925210 1_554
O12 Si0 1.653725 1_545
O12 Ta1 1.925210 1_555
O13 Si0 1.623633 1_445
O13 Sn1 2.036850 1_556
O14 Si1 1.623633 1_465
O14 Sn0 2.036850 1_555
O15 Si1 1.653725 1_565
O15 Ta0 1.925210 1_554
O16 Si4 1.628026 1_555
O16 Sn0 2.092937 1_555
O17 Si5 1.653810 1_555
O17 Ta0 2.027685 1_555
O18 Si6 1.653810 1_555
O18 Ta1 2.027685 1_555
O19 Si7 1.628026 1_555
O19 Sn1 2.092937 1_555
O20 Si8 1.628026 1_555
O20 Sn2 2.092937 1_555
O21 Si9 1.653810 1_555
O21 Ta2 2.027685 1_555
O22 Si10 1.653810 1_555
O22 Ta3 2.027685 1_555
O23 Si11 1.628026 1_555
O23 Sn3 2.092937 1_555
O24 Si4 1.664616 1_555
O24 Ta3 1.993699 1_555
O25 Si5 1.611985 1_555
O25 Sn3 2.000850 1_556
O26 Si6 1.611985 1_555
O26 Sn2 2.000850 1_555
O27 Si7 1.664616 1_555
O27 Ta2 1.993699 1_554
O28 Si8 1.664616 1_555
O28 Ta1 1.993699 1_555
O29 Si9 1.611985 1_555
O29 Sn1 2.000850 1_556
O30 Si10 1.611985 1_555
O30 Sn0 2.000850 1_555
O31 Si11 1.664616 1_555
O31 Ta0 1.993699 1_554
O32 Si4 1.618255 1_555
O32 Sn3 2.045817 1_556
O33 Si5 1.663873 1_555
O33 Ta3 1.985821 1_555
O34 Si6 1.663873 1_555
O34 Ta2 1.985821 1_554
O35 Si7 1.618255 1_555
O35 Sn2 2.045817 1_555
O36 Si8 1.618255 1_555
O36 Sn1 2.045817 1_656
O37 Si9 1.663873 1_555
O37 Ta1 1.985821 1_455
O38 Si10 1.663873 1_555
O38 Ta0 1.985821 1_454
O39 Si11 1.618255 1_555
O39 Sn0 2.045817 1_655
O40 Si0 1.638010 1_455
O40 Sn0 2.108440 1_555
O41 Si0 1.647725 1_555
O41 Ta0 2.014428 1_555
O42 Si1 1.647725 1_555
O42 Ta1 2.014428 1_555
O43 Si1 1.638010 1_455
O43 Sn1 2.108440 1_555
O44 Si2 1.638010 1_555
O44 Sn2 2.108440 1_555
O45 Si2 1.647725 1_555
O45 Ta2 2.014428 1_555
O46 Si3 1.647725 1_555
O46 Ta3 2.014428 1_555
O47 Si3 1.638010 1_555
O47 Sn3 2.108440 1_555
