# generated using pymatgen
data_CrCuH18Br5N6
_symmetry_space_group_name_H-M   'P 1'
_cell_length_a   16.56158491
_cell_length_b   16.56158482
_cell_length_c   16.56158424
_cell_angle_alpha   60.00000115
_cell_angle_beta   60.00000133
_cell_angle_gamma   59.99999949
_symmetry_Int_Tables_number   1
_chemical_formula_structural   CrCuH18Br5N6
_chemical_formula_sum   'Cr8 Cu8 H144 Br40 N48'
_cell_volume   3212.11196521
_cell_formula_units_Z   8
loop_
 _symmetry_equiv_pos_site_id
 _symmetry_equiv_pos_as_xyz
  1  'x, y, z'
loop_
 _atom_site_type_symbol
 _atom_site_label
 _atom_site_symmetry_multiplicity
 _atom_site_fract_x
 _atom_site_fract_y
 _atom_site_fract_z
 _atom_site_occupancy
  H  H0  1  0.99650309  0.93012431  0.18434356  1
  H  H1  1  0.56987569  0.31565644  0.11097096  1
  H  H2  1  0.11097096  0.50349691  0.56987569  1
  H  H3  1  0.56987569  0.11097096  0.50349691  1
  H  H4  1  0.31565644  0.50349691  0.11097096  1
  H  H5  1  0.31565644  0.11097096  0.56987569  1
  H  H6  1  0.11097096  0.31565644  0.50349691  1
  H  H7  1  0.18434356  0.99650309  0.93012431  1
  H  H8  1  0.93012431  0.18434356  0.99650309  1
  H  H9  1  0.38902904  0.99650309  0.18434356  1
  H  H10  1  0.93012431  0.38902904  0.18434356  1
  H  H11  1  0.38902904  0.93012431  0.99650309  1
  H  H12  1  0.18434356  0.93012431  0.38902904  1
  H  H13  1  0.99650309  0.18434356  0.38902904  1
  H  H14  1  0.99650309  0.38902904  0.93012431  1
  H  H15  1  0.11097096  0.56987569  0.31565644  1
  H  H16  1  0.50349691  0.11097096  0.31565644  1
  H  H17  1  0.50349691  0.56987569  0.11097096  1
  H  H18  1  0.56987569  0.50349691  0.31565644  1
  H  H19  1  0.31565644  0.56987569  0.50349691  1
  H  H20  1  0.50349691  0.31565644  0.56987569  1
  H  H21  1  0.18434356  0.38902904  0.99650309  1
  H  H22  1  0.38902904  0.18434356  0.93012431  1
  H  H23  1  0.93012431  0.99650309  0.38902904  1
  H  H24  1  0.00349691  0.06987569  0.81565644  1
  H  H25  1  0.43012431  0.68434356  0.88902904  1
  H  H26  1  0.88902904  0.49650309  0.43012431  1
  H  H27  1  0.43012431  0.88902904  0.49650309  1
  H  H28  1  0.68434356  0.49650309  0.88902904  1
  H  H29  1  0.68434356  0.88902904  0.43012431  1
  H  H30  1  0.88902904  0.68434356  0.49650309  1
  H  H31  1  0.81565644  0.00349691  0.06987569  1
  H  H32  1  0.06987569  0.81565644  0.00349691  1
  H  H33  1  0.61097096  0.00349691  0.81565644  1
  H  H34  1  0.06987569  0.61097096  0.81565644  1
  H  H35  1  0.61097096  0.06987569  0.00349691  1
  H  H36  1  0.81565644  0.06987569  0.61097096  1
  H  H37  1  0.00349691  0.81565644  0.61097096  1
  H  H38  1  0.00349691  0.61097096  0.06987569  1
  H  H39  1  0.88902904  0.43012431  0.68434356  1
  H  H40  1  0.49650309  0.88902904  0.68434356  1
  H  H41  1  0.49650309  0.43012431  0.88902904  1
  H  H42  1  0.43012431  0.49650309  0.68434356  1
  H  H43  1  0.68434356  0.43012431  0.49650309  1
  H  H44  1  0.49650309  0.68434356  0.43012431  1
  H  H45  1  0.81565644  0.61097096  0.00349691  1
  H  H46  1  0.61097096  0.81565644  0.06987569  1
  H  H47  1  0.06987569  0.00349691  0.61097096  1
  H  H48  1  0.88158235  0.98221384  0.18572067  1
  H  H49  1  0.51778616  0.31427933  0.04951686  1
  H  H50  1  0.04951686  0.61841765  0.51778616  1
  H  H51  1  0.51778616  0.04951686  0.61841765  1
  H  H52  1  0.31427933  0.61841765  0.04951686  1
  H  H53  1  0.31427933  0.04951686  0.51778616  1
  H  H54  1  0.04951686  0.31427933  0.61841765  1
  H  H55  1  0.18572067  0.88158235  0.98221384  1
  H  H56  1  0.98221384  0.18572067  0.88158235  1
  H  H57  1  0.45048314  0.88158235  0.18572067  1
  H  H58  1  0.98221384  0.45048314  0.18572067  1
  H  H59  1  0.45048314  0.98221384  0.88158235  1
  H  H60  1  0.18572067  0.98221384  0.45048314  1
  H  H61  1  0.88158235  0.18572067  0.45048314  1
  H  H62  1  0.88158235  0.45048314  0.98221384  1
  H  H63  1  0.04951686  0.51778616  0.31427933  1
  H  H64  1  0.61841765  0.04951686  0.31427933  1
  H  H65  1  0.61841765  0.51778616  0.04951686  1
  H  H66  1  0.51778616  0.61841765  0.31427933  1
  H  H67  1  0.31427933  0.51778616  0.61841765  1
  H  H68  1  0.61841765  0.31427933  0.51778616  1
  H  H69  1  0.18572067  0.45048314  0.88158235  1
  H  H70  1  0.45048314  0.18572067  0.98221384  1
  H  H71  1  0.98221384  0.88158235  0.45048314  1
  H  H72  1  0.11841765  0.01778616  0.81427933  1
  H  H73  1  0.48221384  0.68572067  0.95048314  1
  H  H74  1  0.95048314  0.38158235  0.48221384  1
  H  H75  1  0.48221384  0.95048314  0.38158235  1
  H  H76  1  0.68572067  0.38158235  0.95048314  1
  H  H77  1  0.68572067  0.95048314  0.48221384  1
  H  H78  1  0.95048314  0.68572067  0.38158235  1
  H  H79  1  0.81427933  0.11841765  0.01778616  1
  H  H80  1  0.01778616  0.81427933  0.11841765  1
  H  H81  1  0.54951686  0.11841765  0.81427933  1
  H  H82  1  0.01778616  0.54951686  0.81427933  1
  H  H83  1  0.54951686  0.01778616  0.11841765  1
  H  H84  1  0.81427933  0.01778616  0.54951686  1
  H  H85  1  0.11841765  0.81427933  0.54951686  1
  H  H86  1  0.11841765  0.54951686  0.01778616  1
  H  H87  1  0.95048314  0.48221384  0.68572067  1
  H  H88  1  0.38158235  0.95048314  0.68572067  1
  H  H89  1  0.38158235  0.48221384  0.95048314  1
  H  H90  1  0.48221384  0.38158235  0.68572067  1
  H  H91  1  0.68572067  0.48221384  0.38158235  1
  H  H92  1  0.38158235  0.68572067  0.48221384  1
  H  H93  1  0.81427933  0.54951686  0.11841765  1
  H  H94  1  0.54951686  0.81427933  0.01778616  1
  H  H95  1  0.01778616  0.11841765  0.54951686  1
  H  H96  1  0.94387496  0.05206757  0.15600536  1
  H  H97  1  0.44793243  0.34399464  0.15194790  1
  H  H98  1  0.15194790  0.55612504  0.44793243  1
  H  H99  1  0.44793243  0.15194790  0.55612504  1
  H  H100  1  0.34399464  0.55612504  0.15194790  1
  H  H101  1  0.34399464  0.15194790  0.44793243  1
  H  H102  1  0.15194790  0.34399464  0.55612504  1
  H  H103  1  0.15600536  0.94387496  0.05206757  1
  H  H104  1  0.05206757  0.15600536  0.94387496  1
  H  H105  1  0.34805210  0.94387496  0.15600536  1
  H  H106  1  0.05206757  0.34805210  0.15600536  1
  H  H107  1  0.34805210  0.05206757  0.94387496  1
  H  H108  1  0.15600536  0.05206757  0.34805210  1
  H  H109  1  0.94387496  0.15600536  0.34805210  1
  H  H110  1  0.94387496  0.34805210  0.05206757  1
  H  H111  1  0.15194790  0.44793243  0.34399464  1
  H  H112  1  0.55612504  0.15194790  0.34399464  1
  H  H113  1  0.55612504  0.44793243  0.15194790  1
  H  H114  1  0.44793243  0.55612504  0.34399464  1
  H  H115  1  0.34399464  0.44793243  0.55612504  1
  H  H116  1  0.55612504  0.34399464  0.44793243  1
  H  H117  1  0.15600536  0.34805210  0.94387496  1
  H  H118  1  0.34805210  0.15600536  0.05206757  1
  H  H119  1  0.05206757  0.94387496  0.34805210  1
  H  H120  1  0.05612504  0.94793243  0.84399464  1
  H  H121  1  0.55206757  0.65600536  0.84805210  1
  H  H122  1  0.84805210  0.44387496  0.55206757  1
  H  H123  1  0.55206757  0.84805210  0.44387496  1
  H  H124  1  0.65600536  0.44387496  0.84805210  1
  H  H125  1  0.65600536  0.84805210  0.55206757  1
  H  H126  1  0.84805210  0.65600536  0.44387496  1
  H  H127  1  0.84399464  0.05612504  0.94793243  1
  H  H128  1  0.94793243  0.84399464  0.05612504  1
  H  H129  1  0.65194790  0.05612504  0.84399464  1
  H  H130  1  0.94793243  0.65194790  0.84399464  1
  H  H131  1  0.65194790  0.94793243  0.05612504  1
  H  H132  1  0.84399464  0.94793243  0.65194790  1
  H  H133  1  0.05612504  0.84399464  0.65194790  1
  H  H134  1  0.05612504  0.65194790  0.94793243  1
  H  H135  1  0.84805210  0.55206757  0.65600536  1
  H  H136  1  0.44387496  0.84805210  0.65600536  1
  H  H137  1  0.44387496  0.55206757  0.84805210  1
  H  H138  1  0.55206757  0.44387496  0.65600536  1
  H  H139  1  0.65600536  0.55206757  0.44387496  1
  H  H140  1  0.44387496  0.65600536  0.55206757  1
  H  H141  1  0.84399464  0.65194790  0.05612504  1
  H  H142  1  0.65194790  0.84399464  0.94793243  1
  H  H143  1  0.94793243  0.05612504  0.65194790  1
  N  N0  1  0.94990216  0.99139176  0.14741077  1
  N  N1  1  0.50860824  0.35258923  0.08870468  1
  N  N2  1  0.08870468  0.55009784  0.50860824  1
  N  N3  1  0.50860824  0.08870468  0.55009784  1
  N  N4  1  0.35258923  0.55009784  0.08870468  1
  N  N5  1  0.35258923  0.08870468  0.50860824  1
  N  N6  1  0.08870468  0.35258923  0.55009784  1
  N  N7  1  0.14741077  0.94990216  0.99139176  1
  N  N8  1  0.99139176  0.14741077  0.94990216  1
  N  N9  1  0.41129532  0.94990216  0.14741077  1
  N  N10  1  0.99139176  0.41129532  0.14741077  1
  N  N11  1  0.41129532  0.99139176  0.94990216  1
  N  N12  1  0.14741077  0.99139176  0.41129532  1
  N  N13  1  0.94990216  0.14741077  0.41129532  1
  N  N14  1  0.94990216  0.41129532  0.99139176  1
  N  N15  1  0.08870468  0.50860824  0.35258923  1
  N  N16  1  0.55009784  0.08870468  0.35258923  1
  N  N17  1  0.55009784  0.50860824  0.08870468  1
  N  N18  1  0.50860824  0.55009784  0.35258923  1
  N  N19  1  0.35258923  0.50860824  0.55009784  1
  N  N20  1  0.55009784  0.35258923  0.50860824  1
  N  N21  1  0.14741077  0.41129532  0.94990216  1
  N  N22  1  0.41129532  0.14741077  0.99139176  1
  N  N23  1  0.99139176  0.94990216  0.41129532  1
  N  N24  1  0.05009784  0.00860824  0.85258923  1
  N  N25  1  0.49139176  0.64741077  0.91129532  1
  N  N26  1  0.91129532  0.44990216  0.49139176  1
  N  N27  1  0.49139176  0.91129532  0.44990216  1
  N  N28  1  0.64741077  0.44990216  0.91129532  1
  N  N29  1  0.64741077  0.91129532  0.49139176  1
  N  N30  1  0.91129532  0.64741077  0.44990216  1
  N  N31  1  0.85258923  0.05009784  0.00860824  1
  N  N32  1  0.00860824  0.85258923  0.05009784  1
  N  N33  1  0.58870468  0.05009784  0.85258923  1
  N  N34  1  0.00860824  0.58870468  0.85258923  1
  N  N35  1  0.58870468  0.00860824  0.05009784  1
  N  N36  1  0.85258923  0.00860824  0.58870468  1
  N  N37  1  0.05009784  0.85258923  0.58870468  1
  N  N38  1  0.05009784  0.58870468  0.00860824  1
  N  N39  1  0.91129532  0.49139176  0.64741077  1
  N  N40  1  0.44990216  0.91129532  0.64741077  1
  N  N41  1  0.44990216  0.49139176  0.91129532  1
  N  N42  1  0.49139176  0.44990216  0.64741077  1
  N  N43  1  0.64741077  0.49139176  0.44990216  1
  N  N44  1  0.44990216  0.64741077  0.49139176  1
  N  N45  1  0.85258923  0.58870468  0.05009784  1
  N  N46  1  0.58870468  0.85258923  0.00860824  1
  N  N47  1  0.00860824  0.05009784  0.58870468  1
  Cr  Cr0  1  0.00000000  0.00000000  0.00000000  1
  Cr  Cr1  1  0.50000000  0.50000000  0.00000000  1
  Cr  Cr2  1  0.00000000  0.50000000  0.50000000  1
  Cr  Cr3  1  0.50000000  0.00000000  0.50000000  1
  Cr  Cr4  1  0.50000000  0.00000000  0.00000000  1
  Cr  Cr5  1  0.00000000  0.50000000  0.00000000  1
  Cr  Cr6  1  0.00000000  0.00000000  0.50000000  1
  Cr  Cr7  1  0.50000000  0.50000000  0.50000000  1
  Cu  Cu0  1  0.25000000  0.25000000  0.25000000  1
  Cu  Cu1  1  0.25000000  0.25000000  0.75000000  1
  Cu  Cu2  1  0.75000000  0.25000000  0.25000000  1
  Cu  Cu3  1  0.25000000  0.75000000  0.25000000  1
  Cu  Cu4  1  0.75000000  0.75000000  0.75000000  1
  Cu  Cu5  1  0.75000000  0.75000000  0.25000000  1
  Cu  Cu6  1  0.25000000  0.75000000  0.75000000  1
  Cu  Cu7  1  0.75000000  0.25000000  0.75000000  1
  Br  Br0  1  0.18920623  0.18920623  0.18920623  1
  Br  Br1  1  0.31079377  0.31079377  0.56761870  1
  Br  Br2  1  0.56761870  0.31079377  0.31079377  1
  Br  Br3  1  0.31079377  0.56761870  0.31079377  1
  Br  Br4  1  0.93238130  0.18920623  0.18920623  1
  Br  Br5  1  0.18920623  0.93238130  0.18920623  1
  Br  Br6  1  0.18920623  0.18920623  0.93238130  1
  Br  Br7  1  0.31079377  0.31079377  0.31079377  1
  Br  Br8  1  0.81079377  0.81079377  0.81079377  1
  Br  Br9  1  0.68920623  0.68920623  0.43238130  1
  Br  Br10  1  0.43238130  0.68920623  0.68920623  1
  Br  Br11  1  0.68920623  0.43238130  0.68920623  1
  Br  Br12  1  0.06761870  0.81079377  0.81079377  1
  Br  Br13  1  0.81079377  0.06761870  0.81079377  1
  Br  Br14  1  0.81079377  0.81079377  0.06761870  1
  Br  Br15  1  0.68920623  0.68920623  0.68920623  1
  Br  Br16  1  0.75000000  0.09391826  0.40608174  1
  Br  Br17  1  0.40608174  0.09391826  0.25000000  1
  Br  Br18  1  0.25000000  0.75000000  0.40608174  1
  Br  Br19  1  0.40608174  0.25000000  0.75000000  1
  Br  Br20  1  0.09391826  0.75000000  0.25000000  1
  Br  Br21  1  0.09391826  0.25000000  0.40608174  1
  Br  Br22  1  0.25000000  0.09391826  0.75000000  1
  Br  Br23  1  0.40608174  0.75000000  0.09391826  1
  Br  Br24  1  0.09391826  0.40608174  0.75000000  1
  Br  Br25  1  0.75000000  0.40608174  0.25000000  1
  Br  Br26  1  0.75000000  0.25000000  0.09391826  1
  Br  Br27  1  0.25000000  0.40608174  0.09391826  1
  Br  Br28  1  0.25000000  0.90608174  0.59391826  1
  Br  Br29  1  0.59391826  0.90608174  0.75000000  1
  Br  Br30  1  0.75000000  0.25000000  0.59391826  1
  Br  Br31  1  0.59391826  0.75000000  0.25000000  1
  Br  Br32  1  0.90608174  0.25000000  0.75000000  1
  Br  Br33  1  0.90608174  0.75000000  0.59391826  1
  Br  Br34  1  0.75000000  0.90608174  0.25000000  1
  Br  Br35  1  0.59391826  0.25000000  0.90608174  1
  Br  Br36  1  0.90608174  0.59391826  0.25000000  1
  Br  Br37  1  0.25000000  0.59391826  0.75000000  1
  Br  Br38  1  0.25000000  0.75000000  0.90608174  1
  Br  Br39  1  0.75000000  0.59391826  0.90608174  1
loop_
_geom_bond_atom_site_label_1
_geom_bond_atom_site_label_2
_geom_bond_distance
_geom_bond_site_symmetry_2
H0 N0 1.033287 1_555
H1 N1 1.033287 1_555
H2 N2 1.033287 1_555
H3 N3 1.033287 1_555
H4 N4 1.033287 1_555
H5 N5 1.033287 1_555
H6 N6 1.033287 1_555
H7 N7 1.033287 1_555
H8 N8 1.033287 1_555
H9 N9 1.033287 1_555
H10 N10 1.033287 1_555
H11 N11 1.033287 1_555
H12 N12 1.033287 1_555
H13 N13 1.033287 1_555
H14 N14 1.033287 1_555
H15 N15 1.033287 1_555
H16 N16 1.033287 1_555
H17 N17 1.033287 1_555
H18 N18 1.033287 1_555
H19 N19 1.033287 1_555
H20 N20 1.033287 1_555
H21 N21 1.033287 1_555
H22 N22 1.033287 1_555
H23 N23 1.033287 1_555
H24 N24 1.033287 1_555
H25 N25 1.033287 1_555
H26 N26 1.033287 1_555
H27 N27 1.033287 1_555
H28 N28 1.033287 1_555
H29 N29 1.033287 1_555
H30 N30 1.033287 1_555
H31 N31 1.033287 1_555
H32 N32 1.033287 1_555
H33 N33 1.033287 1_555
H34 N34 1.033287 1_555
H35 N35 1.033287 1_555
H36 N36 1.033287 1_555
H37 N37 1.033287 1_555
H38 N38 1.033287 1_555
H39 N39 1.033287 1_555
H40 N40 1.033287 1_555
H41 N41 1.033287 1_555
H42 N42 1.033287 1_555
H43 N43 1.033287 1_555
H44 N44 1.033287 1_555
H45 N45 1.033287 1_555
H46 N46 1.033287 1_555
H47 N47 1.033287 1_555
H48 N0 1.031294 1_555
H49 N1 1.031294 1_555
H50 N2 1.031294 1_555
H51 N3 1.031294 1_555
H52 N4 1.031294 1_555
H53 N5 1.031294 1_555
H54 N6 1.031294 1_555
H55 N7 1.031294 1_555
H56 N8 1.031294 1_555
H57 N9 1.031294 1_555
H58 N10 1.031294 1_555
H59 N11 1.031294 1_555
H60 N12 1.031294 1_555
H61 N13 1.031294 1_555
H62 N14 1.031294 1_555
H63 N15 1.031294 1_555
H64 N16 1.031294 1_555
H65 N17 1.031294 1_555
H66 N18 1.031294 1_555
H67 N19 1.031294 1_555
H68 N20 1.031294 1_555
H69 N21 1.031294 1_555
H70 N22 1.031294 1_555
H71 N23 1.031294 1_555
H72 N24 1.031294 1_555
H73 N25 1.031294 1_555
H74 N26 1.031294 1_555
H75 N27 1.031294 1_555
H76 N28 1.031294 1_555
H77 N29 1.031294 1_555
H78 N30 1.031294 1_555
H79 N31 1.031294 1_555
H80 N32 1.031294 1_555
H81 N33 1.031294 1_555
H82 N34 1.031294 1_555
H83 N35 1.031294 1_555
H84 N36 1.031294 1_555
H85 N37 1.031294 1_555
H86 N38 1.031294 1_555
H87 N39 1.031294 1_555
H88 N40 1.031294 1_555
H89 N41 1.031294 1_555
H90 N42 1.031294 1_555
H91 N43 1.031294 1_555
H92 N44 1.031294 1_555
H93 N45 1.031294 1_555
H94 N46 1.031294 1_555
H95 N47 1.031294 1_555
H96 N0 1.033704 1_545
H97 N1 1.033704 1_555
H98 N2 1.033704 1_555
H99 N3 1.033704 1_555
H100 N4 1.033704 1_555
H101 N5 1.033704 1_555
H102 N6 1.033704 1_555
H103 N7 1.033704 1_554
H104 N8 1.033704 1_455
H105 N9 1.033704 1_555
H106 N10 1.033704 1_455
H107 N11 1.033704 1_545
H108 N12 1.033704 1_545
H109 N13 1.033704 1_555
H110 N14 1.033704 1_554
H111 N15 1.033704 1_555
H112 N16 1.033704 1_555
H113 N17 1.033704 1_555
H114 N18 1.033704 1_555
H115 N19 1.033704 1_555
H116 N20 1.033704 1_555
H117 N21 1.033704 1_555
H118 N22 1.033704 1_554
H119 N23 1.033704 1_455
H120 N24 1.033704 1_565
H121 N25 1.033704 1_555
H122 N26 1.033704 1_555
H123 N27 1.033704 1_555
H124 N28 1.033704 1_555
H125 N29 1.033704 1_555
H126 N30 1.033704 1_555
H127 N31 1.033704 1_556
H128 N32 1.033704 1_655
H129 N33 1.033704 1_555
H130 N34 1.033704 1_655
H131 N35 1.033704 1_565
H132 N36 1.033704 1_565
H133 N37 1.033704 1_555
H134 N38 1.033704 1_556
H135 N39 1.033704 1_555
H136 N40 1.033704 1_555
H137 N41 1.033704 1_555
H138 N42 1.033704 1_555
H139 N43 1.033704 1_555
H140 N44 1.033704 1_555
H141 N45 1.033704 1_555
H142 N46 1.033704 1_556
H143 N47 1.033704 1_655
Cr0 N24 2.100854 1_554
Cr0 N0 2.100854 1_445
Cr0 N31 2.100854 1_455
Cr0 N7 2.100854 1_544
Cr0 N8 2.100854 1_454
Cr0 N32 2.100854 1_545
Cr1 N41 2.100853 1_554
Cr1 N17 2.100853 1_555
Cr1 N4 2.100854 1_555
Cr1 N28 2.100854 1_554
Cr1 N1 2.100854 1_555
Cr1 N25 2.100854 1_554
Cr2 N26 2.100853 1_455
Cr2 N2 2.100853 1_555
Cr2 N30 2.100854 1_455
Cr2 N6 2.100854 1_555
Cr2 N15 2.100854 1_555
Cr2 N39 2.100854 1_455
Cr3 N27 2.100853 1_545
Cr3 N3 2.100853 1_555
Cr3 N16 2.100854 1_555
Cr3 N40 2.100854 1_545
Cr3 N5 2.100854 1_555
Cr3 N29 2.100854 1_545
Cr4 N11 2.100853 1_544
Cr4 N35 2.100853 1_555
Cr4 N9 2.100854 1_545
Cr4 N33 2.100854 1_554
Cr4 N22 2.100854 1_554
Cr4 N46 2.100854 1_545
Cr5 N14 2.100853 1_454
Cr5 N38 2.100853 1_555
Cr5 N10 2.100854 1_455
Cr5 N34 2.100854 1_554
Cr5 N21 2.100854 1_554
Cr5 N45 2.100854 1_455
Cr6 N23 2.100853 1_445
Cr6 N47 2.100853 1_555
Cr6 N13 2.100854 1_455
Cr6 N37 2.100854 1_545
Cr6 N12 2.100854 1_545
Cr6 N36 2.100854 1_455
Cr7 N18 2.100854 1_555
Cr7 N42 2.100854 1_555
Cr7 N20 2.100854 1_555
Cr7 N44 2.100854 1_555
Cr7 N19 2.100854 1_555
Cr7 N43 2.100854 1_555
Br0 Cu0 2.466247 1_555
Br1 Cu1 2.466247 1_555
Br2 Cu2 2.466247 1_555
Br3 Cu3 2.466247 1_555
Br4 Cu2 2.466247 1_555
Br5 Cu3 2.466247 1_555
Br6 Cu1 2.466247 1_555
Br7 Cu0 2.466247 1_555
Br8 Cu4 2.466247 1_555
Br9 Cu5 2.466247 1_555
Br10 Cu6 2.466247 1_555
Br11 Cu7 2.466247 1_555
Br12 Cu6 2.466247 1_555
Br13 Cu7 2.466247 1_555
Br14 Cu5 2.466247 1_555
Br15 Cu4 2.466247 1_555
Br16 Cu2 2.584961 1_555
Br17 Cu0 2.584961 1_555
Br18 Cu3 2.584961 1_555
Br19 Cu1 2.584961 1_555
Br20 Cu3 2.584961 1_555
Br21 Cu0 2.584961 1_555
Br22 Cu1 2.584961 1_555
Br23 Cu3 2.584961 1_555
Br24 Cu1 2.584961 1_555
Br25 Cu2 2.584961 1_555
Br26 Cu2 2.584961 1_555
Br27 Cu0 2.584961 1_555
Br28 Cu6 2.584961 1_555
Br29 Cu4 2.584961 1_555
Br30 Cu7 2.584961 1_555
Br31 Cu5 2.584961 1_555
Br32 Cu7 2.584961 1_555
Br33 Cu4 2.584961 1_555
Br34 Cu5 2.584961 1_555
Br35 Cu7 2.584961 1_555
Br36 Cu5 2.584961 1_555
Br37 Cu6 2.584961 1_555
Br38 Cu6 2.584961 1_555
Br39 Cu4 2.584961 1_555
