# generated using pymatgen
data_Sr2CoClO3
_symmetry_space_group_name_H-M   'P 1'
_cell_length_a   3.87953800
_cell_length_b   3.87953800
_cell_length_c   14.96024900
_cell_angle_alpha   90.00000000
_cell_angle_beta   90.00000000
_cell_angle_gamma   90.00000000
_symmetry_Int_Tables_number   1
_chemical_formula_structural   Sr2CoClO3
_chemical_formula_sum   'Sr4 Co2 Cl2 O6'
_cell_volume   225.16394145
_cell_formula_units_Z   2
loop_
 _symmetry_equiv_pos_site_id
 _symmetry_equiv_pos_as_xyz
  1  'x, y, z'
loop_
 _atom_site_type_symbol
 _atom_site_label
 _atom_site_symmetry_multiplicity
 _atom_site_fract_x
 _atom_site_fract_y
 _atom_site_fract_z
 _atom_site_occupancy
  Sr  Sr0  1  0.00000000  0.50000000  0.09216900  1
  Sr  Sr1  1  0.50000000  0.00000000  0.90783100  1
  Sr  Sr2  1  0.00000000  0.50000000  0.33823200  1
  Sr  Sr3  1  0.50000000  0.00000000  0.66176800  1
  Co  Co0  1  0.50000000  0.00000000  0.20734900  1
  Co  Co1  1  0.00000000  0.50000000  0.79265100  1
  Cl  Cl0  1  0.50000000  0.00000000  0.42055100  1
  Cl  Cl1  1  0.00000000  0.50000000  0.57944900  1
  O  O0  1  0.00000000  0.50000000  0.92651200  1
  O  O1  1  0.50000000  0.00000000  0.07348800  1
  O  O2  1  0.50000000  0.50000000  0.77331500  1
  O  O3  1  0.50000000  0.50000000  0.22668500  1
  O  O4  1  0.00000000  0.00000000  0.22668500  1
  O  O5  1  0.00000000  0.00000000  0.77331500  1
loop_
_geom_bond_atom_site_label_1
_geom_bond_atom_site_label_2
_geom_bond_distance
_geom_bond_site_symmetry_2
Co0 O3 1.961219 1_555
Co0 O3 1.961219 1_545
Co0 O4 1.961219 1_555
Co0 O4 1.961219 1_655
Co0 O1 2.002594 1_555
Co1 O2 1.961219 1_455
Co1 O2 1.961219 1_555
Co1 O5 1.961219 1_555
Co1 O5 1.961219 1_565
Co1 O0 2.002594 1_555
Cl0 Sr2 3.006997 1_555
Cl0 Sr2 3.006997 1_545
Cl0 Sr2 3.006997 1_645
Cl0 Sr2 3.006997 1_655
Cl1 Sr3 3.006997 1_565
Cl1 Sr3 3.006997 1_555
Cl1 Sr3 3.006997 1_455
Cl1 Sr3 3.006997 1_465
O0 Sr0 2.478270 1_556
O0 Sr1 2.757447 1_455
O0 Sr1 2.757447 1_555
O0 Sr1 2.757447 1_565
O0 Sr1 2.757447 1_465
O1 Sr1 2.478270 1_554
O1 Sr0 2.757447 1_655
O1 Sr0 2.757447 1_545
O1 Sr0 2.757447 1_555
O1 Sr0 2.757447 1_645
O2 Sr3 2.558808 1_555
O2 Sr3 2.558808 1_565
O2 Sr1 2.795072 1_555
O2 Sr1 2.795072 1_565
O3 Sr2 2.558808 1_555
O3 Sr2 2.558808 1_655
O3 Sr0 2.795072 1_555
O3 Sr0 2.795072 1_655
O4 Sr2 2.558808 1_555
O4 Sr2 2.558808 1_545
O4 Sr0 2.795072 1_555
O4 Sr0 2.795072 1_545
O5 Sr3 2.558808 1_555
O5 Sr3 2.558808 1_455
O5 Sr1 2.795072 1_555
O5 Sr1 2.795072 1_455
