# generated using pymatgen
data_Ta3In(PO4)6
_symmetry_space_group_name_H-M   'P 1'
_cell_length_a   8.81131541
_cell_length_b   8.81131512
_cell_length_c   22.71464126
_cell_angle_alpha   90.00000000
_cell_angle_beta   90.00000000
_cell_angle_gamma   120.00000106
_symmetry_Int_Tables_number   1
_chemical_formula_structural   Ta3In(PO4)6
_chemical_formula_sum   'Ta9 In3 P18 O72'
_cell_volume   1527.27762716
_cell_formula_units_Z   3
loop_
 _symmetry_equiv_pos_site_id
 _symmetry_equiv_pos_as_xyz
  1  'x, y, z'
loop_
 _atom_site_type_symbol
 _atom_site_label
 _atom_site_symmetry_multiplicity
 _atom_site_fract_x
 _atom_site_fract_y
 _atom_site_fract_z
 _atom_site_occupancy
  Ta  Ta0  1  -0.00000000  -0.00000000  0.85644044  1
  Ta  Ta1  1  -0.00000000  -0.00000000  0.64035720  1
  Ta  Ta2  1  -0.00000000  -0.00000000  0.14755567  1
  Ta  Ta3  1  0.66666700  0.33333300  0.97856595  1
  Ta  Ta4  1  0.66666700  0.33333300  0.47467401  1
  Ta  Ta5  1  0.33333300  0.66666700  0.02335967  1
  Ta  Ta6  1  0.33333300  0.66666700  0.52114315  1
  Ta  Ta7  1  0.33333300  0.66666700  0.30744422  1
  Ta  Ta8  1  0.33333300  0.66666700  0.80785705  1
  In  In0  1  -0.00000000  -0.00000000  0.35819349  1
  In  In1  1  0.66666700  0.33333300  0.68877034  1
  In  In2  1  0.66666700  0.33333300  0.18790975  1
  P  P0  1  0.28745439  0.00005532  0.25158071  1
  P  P1  1  0.71260093  0.71254561  0.25158071  1
  P  P2  1  -0.00005532  0.28739907  0.25158071  1
  P  P3  1  0.28207722  0.28227471  0.75004391  1
  P  P4  1  0.00019750  0.71792278  0.75004391  1
  P  P5  1  0.71772529  -0.00019750  0.75004391  1
  P  P6  1  0.95390394  0.33562124  0.58270887  1
  P  P7  1  0.38171831  0.04609606  0.58270887  1
  P  P8  1  0.66437876  0.61828169  0.58270887  1
  P  P9  1  0.95410477  0.62384352  0.08300923  1
  P  P10  1  0.66973975  0.04589523  0.08300923  1
  P  P11  1  0.37615648  0.33026025  0.08300923  1
  P  P12  1  0.61631021  0.66532911  0.91623860  1
  P  P13  1  0.04901790  0.38368979  0.91623860  1
  P  P14  1  0.33467089  0.95098210  0.91623860  1
  P  P15  1  0.61568282  0.95036603  0.41639806  1
  P  P16  1  0.33468220  0.38431718  0.41639806  1
  P  P17  1  0.04963397  0.66531780  0.41639806  1
  O  O0  1  0.20798370  0.02787783  0.30591535  1
  O  O1  1  0.81989413  0.79201630  0.30591535  1
  O  O2  1  0.97212217  0.18010587  0.30591535  1
  O  O3  1  0.18632822  0.16980174  0.80549885  1
  O  O4  1  0.98347352  0.81367178  0.80549885  1
  O  O5  1  0.83019826  0.01652648  0.80549885  1
  O  O6  1  0.80235007  0.96621351  0.69574338  1
  O  O7  1  0.16386344  0.19764993  0.69574338  1
  O  O8  1  0.03378649  0.83613656  0.69574338  1
  O  O9  1  0.80214912  0.83534352  0.19510334  1
  O  O10  1  0.03319440  0.19785088  0.19510334  1
  O  O11  1  0.16465648  0.96680560  0.19510334  1
  O  O12  1  0.88839941  0.37521752  0.63904072  1
  O  O13  1  0.48681911  0.11160059  0.63904072  1
  O  O14  1  0.62478248  0.51318089  0.63904072  1
  O  O15  1  0.88774621  0.51068173  0.13634348  1
  O  O16  1  0.62293652  0.11225379  0.13634348  1
  O  O17  1  0.48931827  0.37706348  0.13634348  1
  O  O18  1  0.46908303  0.30483211  0.02737300  1
  O  O19  1  0.83575007  0.53091697  0.02737300  1
  O  O20  1  0.69516789  0.16424993  0.02737300  1
  O  O21  1  0.46713596  0.16550606  0.52881769  1
  O  O22  1  0.69837110  0.53286404  0.52881769  1
  O  O23  1  0.83449394  0.30162890  0.52881769  1
  O  O24  1  0.53132695  0.69612147  0.97037471  1
  O  O25  1  0.16479352  0.46867305  0.97037471  1
  O  O26  1  0.30387853  0.83520648  0.97037471  1
  O  O27  1  0.52038999  0.83799924  0.47134749  1
  O  O28  1  0.31760825  0.47961001  0.47134749  1
  O  O29  1  0.16200076  0.68239175  0.47134749  1
  O  O30  1  0.13465122  0.63169421  0.36219623  1
  O  O31  1  0.49704199  0.86534878  0.36219623  1
  O  O32  1  0.36830579  0.50295801  0.36219623  1
  O  O33  1  0.13602429  0.50000853  0.86180073  1
  O  O34  1  0.36398325  0.86397571  0.86180073  1
  O  O35  1  0.49999147  0.63601675  0.86180073  1
  O  O36  1  0.02700477  0.82230266  0.41379158  1
  O  O37  1  0.79529790  0.97299523  0.41379158  1
  O  O38  1  0.17769733  0.20470210  0.41379158  1
  O  O39  1  0.02633039  0.19967799  0.90587889  1
  O  O40  1  0.17334760  0.97366961  0.90587889  1
  O  O41  1  0.80032201  0.82665240  0.90587889  1
  O  O42  1  0.97466688  0.16950466  0.59259123  1
  O  O43  1  0.19483778  0.02533312  0.59259123  1
  O  O44  1  0.83049534  0.80516222  0.59259123  1
  O  O45  1  0.97572064  0.80701796  0.09032947  1
  O  O46  1  0.83129732  0.02427936  0.09032947  1
  O  O47  1  0.19298204  0.16870268  0.09032947  1
  O  O48  1  0.69507014  0.15693069  0.74646138  1
  O  O49  1  0.46186156  0.30492986  0.74646138  1
  O  O50  1  0.84306931  0.53813845  0.74646138  1
  O  O51  1  0.68203181  0.53217496  0.24074438  1
  O  O52  1  0.85014414  0.31796819  0.24074438  1
  O  O53  1  0.46782504  0.14985586  0.24074438  1
  O  O54  1  0.63870750  0.50450006  0.92736338  1
  O  O55  1  0.86579355  0.36129250  0.92736338  1
  O  O56  1  0.49549994  0.13420645  0.92736338  1
  O  O57  1  0.62750182  0.13195567  0.42822220  1
  O  O58  1  0.50445485  0.37249818  0.42822220  1
  O  O59  1  0.86804433  0.49554515  0.42822220  1
  O  O60  1  0.35096845  0.49008482  0.06755963  1
  O  O61  1  0.13911537  0.64903155  0.06755963  1
  O  O62  1  0.50991518  0.86088463  0.06755963  1
  O  O63  1  0.34873777  0.86029949  0.56960622  1
  O  O64  1  0.51156072  0.65126223  0.56960622  1
  O  O65  1  0.13970051  0.48843928  0.56960622  1
  O  O66  1  0.29631602  0.82652735  0.25870295  1
  O  O67  1  0.53021033  0.70368398  0.25870295  1
  O  O68  1  0.17347265  0.46978967  0.25870295  1
  O  O69  1  0.29422746  0.46426952  0.76179068  1
  O  O70  1  0.17004106  0.70577254  0.76179068  1
  O  O71  1  0.53573048  0.82995894  0.76179068  1
loop_
_geom_bond_atom_site_label_1
_geom_bond_atom_site_label_2
_geom_bond_distance
_geom_bond_site_symmetry_2
In0 O1 2.092544 1_445
In0 O2 2.092544 1_455
In0 O0 2.092544 1_555
In0 O38 2.115571 1_555
In0 O37 2.115571 1_445
In0 O36 2.115571 1_545
In1 O13 2.123272 1_555
In1 O14 2.123272 1_555
In1 O12 2.123272 1_555
In1 O49 2.141221 1_555
In1 O50 2.141221 1_555
In1 O48 2.141221 1_555
In2 O53 2.071503 1_555
In2 O52 2.071503 1_555
In2 O51 2.071503 1_555
In2 O16 2.136476 1_555
In2 O15 2.136476 1_555
In2 O17 2.136476 1_555
O0 P0 1.498444 1_555
O1 P1 1.498444 1_555
O2 P2 1.498444 1_655
O3 P3 1.563495 1_555
O3 Ta0 1.953599 1_555
O4 P4 1.563495 1_655
O4 Ta0 1.953599 1_665
O5 P5 1.563495 1_555
O5 Ta0 1.953599 1_655
O6 P5 1.544539 1_565
O6 Ta1 2.045956 1_665
O7 P3 1.544539 1_555
O7 Ta1 2.045956 1_555
O8 P4 1.544539 1_555
O8 Ta1 2.045956 1_565
O9 P1 1.607893 1_555
O9 Ta2 1.944556 1_665
O10 P2 1.607893 1_555
O10 Ta2 1.944556 1_555
O11 P0 1.607893 1_565
O11 Ta2 1.944556 1_565
O12 P6 1.514434 1_555
O13 P7 1.514434 1_555
O14 P8 1.514434 1_555
O15 P9 1.490215 1_555
O16 P10 1.490215 1_555
O17 P11 1.490215 1_555
O18 P11 1.581513 1_555
O18 Ta3 1.971273 1_554
O19 P9 1.581513 1_555
O19 Ta3 1.971273 1_554
O20 P10 1.581513 1_555
O20 Ta3 1.971273 1_554
O21 P7 1.542750 1_555
O21 Ta4 2.047062 1_555
O22 P8 1.542750 1_555
O22 Ta4 2.047062 1_555
O23 P6 1.542750 1_555
O23 Ta4 2.047062 1_555
O24 P12 1.532849 1_555
O24 Ta5 2.026489 1_556
O25 P13 1.532849 1_555
O25 Ta5 2.026489 1_556
O26 P14 1.532849 1_555
O26 Ta5 2.026489 1_556
O27 P15 1.553020 1_555
O27 Ta6 1.945974 1_555
O28 P16 1.553020 1_555
O28 Ta6 1.945974 1_555
O29 P17 1.553020 1_555
O29 Ta6 1.945974 1_555
O30 P17 1.544887 1_555
O30 Ta7 2.041317 1_555
O31 P15 1.544887 1_555
O31 Ta7 2.041317 1_555
O32 P16 1.544887 1_555
O32 Ta7 2.041317 1_555
O33 P13 1.543204 1_555
O33 Ta8 2.031588 1_555
O34 P14 1.543204 1_555
O34 Ta8 2.031588 1_555
O35 P12 1.543204 1_555
O35 Ta8 2.031588 1_555
O36 P17 1.494133 1_555
O37 P15 1.494142 1_555
O38 P16 1.494138 1_555
O39 P13 1.549227 1_555
O39 Ta0 2.000571 1_555
O40 P14 1.549218 1_555
O40 Ta0 2.000571 1_565
O41 P12 1.549223 1_555
O41 Ta0 2.000571 1_665
O42 P6 1.579264 1_555
O42 Ta1 1.947083 1_655
O43 P7 1.579273 1_555
O43 Ta1 1.947083 1_555
O44 P8 1.579270 1_555
O44 Ta1 1.947083 1_665
O45 P9 1.536729 1_555
O45 Ta2 2.064729 1_665
O46 P10 1.536720 1_555
O46 Ta2 2.064729 1_655
O47 P11 1.536725 1_555
O47 Ta2 2.064729 1_555
O48 P5 1.496564 1_555
O49 P3 1.496573 1_555
O50 P4 1.496570 1_655
O51 P1 1.493632 1_555
O52 P2 1.493623 1_655
O53 P0 1.493629 1_555
O54 P12 1.546184 1_555
O54 Ta3 2.014851 1_555
O55 P13 1.546167 1_655
O55 Ta3 2.014851 1_555
O56 P14 1.546174 1_545
O56 Ta3 2.014851 1_555
O57 P15 1.573687 1_545
O57 Ta4 1.941277 1_555
O58 P16 1.573704 1_555
O58 Ta4 1.941277 1_555
O59 P17 1.573695 1_655
O59 Ta4 1.941277 1_555
O60 P11 1.571041 1_555
O60 Ta5 1.922187 1_555
O61 P9 1.571024 1_455
O61 Ta5 1.922187 1_555
O62 P10 1.571031 1_565
O62 Ta5 1.922187 1_555
O63 P7 1.541887 1_565
O63 Ta6 1.977275 1_555
O64 P8 1.541905 1_555
O64 Ta6 1.977275 1_555
O65 P6 1.541893 1_455
O65 Ta6 1.977275 1_555
O66 P0 1.577824 1_565
O66 Ta7 1.943110 1_555
O67 P1 1.577833 1_555
O67 Ta7 1.943110 1_555
O68 P2 1.577829 1_555
O68 Ta7 1.943110 1_555
O69 P3 1.575611 1_555
O69 Ta8 1.944122 1_555
O70 P4 1.575603 1_555
O70 Ta8 1.944122 1_555
O71 P5 1.575607 1_565
O71 Ta8 1.944122 1_555
