# generated using pymatgen
data_MgFeBiO3
_symmetry_space_group_name_H-M   'P 1'
_cell_length_a   4.03487114
_cell_length_b   3.58943657
_cell_length_c   6.69405305
_cell_angle_alpha   90.00000000
_cell_angle_beta   90.00000000
_cell_angle_gamma   90.00000000
_symmetry_Int_Tables_number   1
_chemical_formula_structural   MgFeBiO3
_chemical_formula_sum   'Mg1 Fe1 Bi1 O3'
_cell_volume   96.94939480
_cell_formula_units_Z   1
loop_
 _symmetry_equiv_pos_site_id
 _symmetry_equiv_pos_as_xyz
  1  'x, y, z'
loop_
 _atom_site_type_symbol
 _atom_site_label
 _atom_site_symmetry_multiplicity
 _atom_site_fract_x
 _atom_site_fract_y
 _atom_site_fract_z
 _atom_site_occupancy
  Mg  Mg0  1  0.00000000  0.50000000  0.72721095  1
  Fe  Fe0  1  0.50000000  0.50000000  0.44003954  1
  Bi  Bi0  1  0.00000000  -0.00000000  0.13621632  1
  O  O0  1  0.00000000  0.50000000  0.42490697  1
  O  O1  1  0.50000000  0.00000000  0.28165039  1
  O  O2  1  0.50000000  0.50000000  0.74864382  1
loop_
_geom_bond_atom_site_label_1
_geom_bond_atom_site_label_2
_geom_bond_distance
_geom_bond_site_symmetry_2
Mg0 O2 2.022531 1_555
Mg0 O2 2.022531 1_455
Mg0 O0 2.023639 1_555
Fe0 O0 2.019977 1_655
Fe0 O0 2.019977 1_555
Fe0 O2 2.065813 1_555
Fe0 O1 2.084509 1_565
Fe0 O1 2.084509 1_555
Bi0 O1 2.240052 1_555
Bi0 O1 2.240052 1_455
Bi0 O0 2.637349 1_545
Bi0 O0 2.637349 1_555
