# generated using pymatgen
data_CrFeH18(NF)6
_symmetry_space_group_name_H-M   'P 1'
_cell_length_a   10.18150200
_cell_length_b   10.18150200
_cell_length_c   10.18150200
_cell_angle_alpha   90.00000000
_cell_angle_beta   90.00000000
_cell_angle_gamma   90.00000000
_symmetry_Int_Tables_number   1
_chemical_formula_structural   CrFeH18(NF)6
_chemical_formula_sum   'Cr4 Fe4 H72 N24 F24'
_cell_volume   1055.44486850
_cell_formula_units_Z   4
loop_
 _symmetry_equiv_pos_site_id
 _symmetry_equiv_pos_as_xyz
  1  'x, y, z'
loop_
 _atom_site_type_symbol
 _atom_site_label
 _atom_site_symmetry_multiplicity
 _atom_site_fract_x
 _atom_site_fract_y
 _atom_site_fract_z
 _atom_site_occupancy
  Cr  Cr0  1  0.50000000  0.50000000  0.50000000  1
  Cr  Cr1  1  0.00000000  0.50000000  0.00000000  1
  Cr  Cr2  1  0.00000000  0.00000000  0.50000000  1
  Cr  Cr3  1  0.50000000  0.00000000  0.00000000  1
  Fe  Fe0  1  0.00000000  0.00000000  0.00000000  1
  Fe  Fe1  1  0.50000000  0.00000000  0.50000000  1
  Fe  Fe2  1  0.50000000  0.50000000  0.00000000  1
  Fe  Fe3  1  0.00000000  0.50000000  0.50000000  1
  H  H0  1  0.73649000  0.04494400  0.10755400  1
  H  H1  1  0.23649000  0.45505600  0.89244600  1
  H  H2  1  0.26351000  0.54494400  0.39244600  1
  H  H3  1  0.45505600  0.89244600  0.23649000  1
  H  H4  1  0.39244600  0.26351000  0.54494400  1
  H  H5  1  0.89244600  0.23649000  0.45505600  1
  H  H6  1  0.04494400  0.10755400  0.73649000  1
  H  H7  1  0.10755400  0.73649000  0.04494400  1
  H  H8  1  0.54494400  0.39244600  0.26351000  1
  H  H9  1  0.95505600  0.60755400  0.76351000  1
  H  H10  1  0.60755400  0.76351000  0.95505600  1
  H  H11  1  0.76351000  0.95505600  0.60755400  1
  H  H12  1  0.26351000  0.95505600  0.89244600  1
  H  H13  1  0.76351000  0.54494400  0.10755400  1
  H  H14  1  0.73649000  0.45505600  0.60755400  1
  H  H15  1  0.54494400  0.10755400  0.76351000  1
  H  H16  1  0.60755400  0.73649000  0.45505600  1
  H  H17  1  0.10755400  0.76351000  0.54494400  1
  H  H18  1  0.95505600  0.89244600  0.26351000  1
  H  H19  1  0.89244600  0.26351000  0.95505600  1
  H  H20  1  0.45505600  0.60755400  0.73649000  1
  H  H21  1  0.04494400  0.39244600  0.23649000  1
  H  H22  1  0.39244600  0.23649000  0.04494400  1
  H  H23  1  0.23649000  0.04494400  0.39244600  1
  H  H24  1  0.62793000  0.04589400  0.22703200  1
  H  H25  1  0.12793000  0.45410600  0.77296800  1
  H  H26  1  0.37207000  0.54589400  0.27296800  1
  H  H27  1  0.45410600  0.77296800  0.12793000  1
  H  H28  1  0.27296800  0.37207000  0.54589400  1
  H  H29  1  0.77296800  0.12793000  0.45410600  1
  H  H30  1  0.04589400  0.22703200  0.62793000  1
  H  H31  1  0.67600200  0.37249000  0.35537500  1
  H  H32  1  0.22703200  0.62793000  0.04589400  1
  H  H33  1  0.95410600  0.72703200  0.87207000  1
  H  H34  1  0.72703200  0.87207000  0.95410600  1
  H  H35  1  0.87207000  0.95410600  0.72703200  1
  H  H36  1  0.37207000  0.95410600  0.77296800  1
  H  H37  1  0.87207000  0.54589400  0.22703200  1
  H  H38  1  0.62793000  0.45410600  0.72703200  1
  H  H39  1  0.54589400  0.22703200  0.87207000  1
  H  H40  1  0.72703200  0.62793000  0.45410600  1
  H  H41  1  0.22703200  0.87207000  0.54589400  1
  H  H42  1  0.95410600  0.77296800  0.37207000  1
  H  H43  1  0.77296800  0.37207000  0.95410600  1
  H  H44  1  0.45410600  0.72703200  0.62793000  1
  H  H45  1  0.04589400  0.27296800  0.12793000  1
  H  H46  1  0.27296800  0.12793000  0.04589400  1
  H  H47  1  0.12793000  0.04589400  0.27296800  1
  H  H48  1  0.64462500  0.17600200  0.12751000  1
  H  H49  1  0.14462500  0.32399800  0.87249000  1
  H  H50  1  0.35537500  0.67600200  0.37249000  1
  H  H51  1  0.32399800  0.87249000  0.14462500  1
  H  H52  1  0.37249000  0.35537500  0.67600200  1
  H  H53  1  0.87249000  0.14462500  0.32399800  1
  H  H54  1  0.17600200  0.12751000  0.64462500  1
  H  H55  1  0.12751000  0.64462500  0.17600200  1
  H  H56  1  0.14462500  0.17600200  0.37249000  1
  H  H57  1  0.37249000  0.14462500  0.17600200  1
  H  H58  1  0.17600200  0.37249000  0.14462500  1
  H  H59  1  0.32399800  0.62751000  0.64462500  1
  H  H60  1  0.87249000  0.35537500  0.82399800  1
  H  H61  1  0.82399800  0.87249000  0.35537500  1
  H  H62  1  0.12751000  0.85537500  0.67600200  1
  H  H63  1  0.62751000  0.64462500  0.32399800  1
  H  H64  1  0.67600200  0.12751000  0.85537500  1
  H  H65  1  0.64462500  0.32399800  0.62751000  1
  H  H66  1  0.85537500  0.67600200  0.12751000  1
  H  H67  1  0.35537500  0.82399800  0.87249000  1
  H  H68  1  0.85537500  0.82399800  0.62751000  1
  H  H69  1  0.62751000  0.85537500  0.82399800  1
  H  H70  1  0.82399800  0.62751000  0.85537500  1
  H  H71  1  0.54589400  0.27296800  0.37207000  1
  N  N0  1  0.86880500  0.14333700  0.42510500  1
  N  N1  1  0.36880500  0.35666300  0.57489500  1
  N  N2  1  0.13119500  0.64333700  0.07489500  1
  N  N3  1  0.35666300  0.57489500  0.36880500  1
  N  N4  1  0.07489500  0.13119500  0.64333700  1
  N  N5  1  0.57489500  0.36880500  0.35666300  1
  N  N6  1  0.14333700  0.42510500  0.86880500  1
  N  N7  1  0.42510500  0.86880500  0.14333700  1
  N  N8  1  0.64333700  0.07489500  0.13119500  1
  N  N9  1  0.85666300  0.92510500  0.63119500  1
  N  N10  1  0.92510500  0.63119500  0.85666300  1
  N  N11  1  0.63119500  0.85666300  0.92510500  1
  N  N12  1  0.13119500  0.85666300  0.57489500  1
  N  N13  1  0.63119500  0.64333700  0.42510500  1
  N  N14  1  0.86880500  0.35666300  0.92510500  1
  N  N15  1  0.64333700  0.42510500  0.63119500  1
  N  N16  1  0.92510500  0.86880500  0.35666300  1
  N  N17  1  0.42510500  0.63119500  0.64333700  1
  N  N18  1  0.85666300  0.57489500  0.13119500  1
  N  N19  1  0.57489500  0.13119500  0.85666300  1
  N  N20  1  0.35666300  0.92510500  0.86880500  1
  N  N21  1  0.14333700  0.07489500  0.36880500  1
  N  N22  1  0.07489500  0.36880500  0.14333700  1
  N  N23  1  0.36880500  0.14333700  0.07489500  1
  F  F0  1  0.61714400  0.14075900  0.56275900  1
  F  F1  1  0.11714400  0.35924100  0.43724100  1
  F  F2  1  0.38285600  0.64075900  0.93724100  1
  F  F3  1  0.35924100  0.43724100  0.11714400  1
  F  F4  1  0.11714400  0.14075900  0.93724100  1
  F  F5  1  0.43724100  0.11714400  0.35924100  1
  F  F6  1  0.14075900  0.56275900  0.61714400  1
  F  F7  1  0.56275900  0.61714400  0.14075900  1
  F  F8  1  0.64075900  0.93724100  0.38285600  1
  F  F9  1  0.85924100  0.06275900  0.88285600  1
  F  F10  1  0.06275900  0.88285600  0.85924100  1
  F  F11  1  0.88285600  0.85924100  0.06275900  1
  F  F12  1  0.38285600  0.85924100  0.43724100  1
  F  F13  1  0.88285600  0.64075900  0.56275900  1
  F  F14  1  0.61714400  0.35924100  0.06275900  1
  F  F15  1  0.64075900  0.56275900  0.88285600  1
  F  F16  1  0.06275900  0.61714400  0.35924100  1
  F  F17  1  0.56275900  0.88285600  0.64075900  1
  F  F18  1  0.85924100  0.43724100  0.38285600  1
  F  F19  1  0.43724100  0.38285600  0.85924100  1
  F  F20  1  0.35924100  0.06275900  0.61714400  1
  F  F21  1  0.14075900  0.93724100  0.11714400  1
  F  F22  1  0.93724100  0.11714400  0.14075900  1
  F  F23  1  0.93724100  0.38285600  0.64075900  1
loop_
_geom_bond_atom_site_label_1
_geom_bond_atom_site_label_2
_geom_bond_distance
_geom_bond_site_symmetry_2
Cr0 N15 2.120269 1_555
Cr0 N13 2.120269 1_555
Cr0 N17 2.120269 1_555
Cr0 N3 2.120269 1_555
Cr0 N5 2.120269 1_555
Cr0 N1 2.120269 1_555
Cr1 N6 2.120269 1_554
Cr1 N22 2.120269 1_555
Cr1 N14 2.120269 1_454
Cr1 N10 2.120269 1_454
Cr1 N2 2.120269 1_555
Cr1 N18 2.120269 1_455
Cr2 N21 2.120269 1_555
Cr2 N0 2.120269 1_455
Cr2 N16 2.120269 1_445
Cr2 N12 2.120269 1_545
Cr2 N4 2.120269 1_555
Cr2 N9 2.120269 1_445
Cr3 N23 2.120269 1_555
Cr3 N20 2.120269 1_544
Cr3 N7 2.120269 1_545
Cr3 N11 2.120269 1_544
Cr3 N8 2.120269 1_555
Cr3 N19 2.120269 1_554
H0 N8 1.024921 1_555
H1 N6 1.024921 1_555
H2 N3 1.024921 1_555
H3 N7 1.024921 1_555
H4 N1 1.024921 1_555
H5 N0 1.024921 1_555
H6 N4 1.024921 1_555
H7 N2 1.024921 1_555
H8 N5 1.024921 1_555
H9 N10 1.024921 1_555
H10 N11 1.024921 1_555
H11 N9 1.024921 1_555
H12 N20 1.024921 1_555
H13 N18 1.024921 1_555
H14 N15 1.024921 1_555
H15 N19 1.024921 1_555
H16 N13 1.024921 1_555
H17 N12 1.024921 1_555
H18 N16 1.024921 1_555
H19 N14 1.024921 1_555
H20 N17 1.024921 1_555
H21 N22 1.024921 1_555
H22 N23 1.024921 1_555
H23 N21 1.024921 1_555
H24 N8 1.031460 1_555
H25 N6 1.031460 1_555
H26 N3 1.031460 1_555
H27 N7 1.031460 1_555
H28 N1 1.031460 1_555
H29 N0 1.031460 1_555
H30 N4 1.031460 1_555
H31 N5 1.030188 1_555
H32 N2 1.031460 1_555
H33 N10 1.031460 1_555
H34 N11 1.031460 1_555
H35 N9 1.031460 1_555
H36 N20 1.031460 1_555
H37 N18 1.031460 1_555
H38 N15 1.031460 1_555
H39 N19 1.031460 1_555
H40 N13 1.031460 1_555
H41 N12 1.031460 1_555
H42 N16 1.031460 1_555
H43 N14 1.031460 1_555
H44 N17 1.031460 1_555
H45 N22 1.031460 1_555
H46 N23 1.031460 1_555
H47 N21 1.031460 1_555
H48 N8 1.030188 1_555
H49 N6 1.030188 1_555
H50 N3 1.030188 1_555
H51 N7 1.030188 1_555
H52 N1 1.030188 1_555
H53 N0 1.030188 1_555
H54 N4 1.030188 1_555
H55 N2 1.030188 1_555
H56 N21 1.030188 1_555
H57 N23 1.030188 1_555
H58 N22 1.030188 1_555
H59 N17 1.030188 1_555
H60 N14 1.030188 1_555
H61 N16 1.030188 1_555
H62 N12 1.030188 1_555
H63 N13 1.030188 1_555
H64 N19 1.030188 1_555
H65 N15 1.030188 1_555
H66 N18 1.030188 1_555
H67 N20 1.030188 1_555
H68 N9 1.030188 1_555
H69 N11 1.030188 1_555
H70 N10 1.030188 1_555
H71 N5 1.031460 1_555
F0 Fe1 1.970969 1_555
F1 Fe3 1.970969 1_555
F2 Fe2 1.970969 1_556
F3 Fe2 1.970969 1_555
F4 Fe0 1.970969 1_556
F5 Fe1 1.970969 1_555
F6 Fe3 1.970969 1_555
F7 Fe2 1.970969 1_555
F8 Fe1 1.970969 1_565
F9 Fe0 1.970969 1_656
F10 Fe0 1.970969 1_566
F11 Fe0 1.970969 1_665
F12 Fe1 1.970969 1_565
F13 Fe3 1.970969 1_655
F14 Fe2 1.970969 1_555
F15 Fe2 1.970969 1_556
F16 Fe3 1.970969 1_555
F17 Fe1 1.970969 1_565
F18 Fe3 1.970969 1_655
F19 Fe2 1.970969 1_556
F20 Fe1 1.970969 1_555
F21 Fe0 1.970969 1_565
F22 Fe0 1.970969 1_655
F23 Fe3 1.970969 1_655
