# generated using pymatgen
data_TiBrN
_symmetry_space_group_name_H-M   'P 1'
_cell_length_a   3.36527321
_cell_length_b   3.93536345
_cell_length_c   8.61130710
_cell_angle_alpha   90.00000000
_cell_angle_beta   90.00000000
_cell_angle_gamma   90.00000000
_symmetry_Int_Tables_number   1
_chemical_formula_structural   TiBrN
_chemical_formula_sum   'Ti2 Br2 N2'
_cell_volume   114.04447584
_cell_formula_units_Z   2
loop_
 _symmetry_equiv_pos_site_id
 _symmetry_equiv_pos_as_xyz
  1  'x, y, z'
loop_
 _atom_site_type_symbol
 _atom_site_label
 _atom_site_symmetry_multiplicity
 _atom_site_fract_x
 _atom_site_fract_y
 _atom_site_fract_z
 _atom_site_occupancy
  Ti  Ti0  1  0.25000000  0.75000000  0.91242514  1
  Ti  Ti1  1  0.75000000  0.25000000  0.08757486  1
  Br  Br0  1  0.75000000  0.75000000  0.68187274  1
  Br  Br1  1  0.25000000  0.25000000  0.31812726  1
  N  N0  1  0.25000000  0.25000000  0.96013541  1
  N  N1  1  0.75000000  0.75000000  0.03986459  1
loop_
_geom_bond_atom_site_label_1
_geom_bond_atom_site_label_2
_geom_bond_distance
_geom_bond_site_symmetry_2
Br0 Ti0 2.602482 1_555
Br0 Ti0 2.602482 1_655
Br1 Ti1 2.602482 1_555
Br1 Ti1 2.602482 1_455
N0 Ti1 2.008880 1_556
N0 Ti1 2.008880 1_456
N0 Ti0 2.010116 1_555
N0 Ti0 2.010116 1_545
N1 Ti0 2.008880 1_554
N1 Ti0 2.008880 1_654
N1 Ti1 2.010116 1_555
N1 Ti1 2.010116 1_565
