# generated using pymatgen
data_MgTe4Mo3W(SeS)2
_symmetry_space_group_name_H-M   'P 1'
_cell_length_a   3.39839003
_cell_length_b   3.39987644
_cell_length_c   45.53524152
_cell_angle_alpha   90.02128943
_cell_angle_beta   89.98811960
_cell_angle_gamma   119.99013403
_symmetry_Int_Tables_number   1
_chemical_formula_structural   MgTe4Mo3W(SeS)2
_chemical_formula_sum   'Mg1 Te4 Mo3 W1 Se2 S2'
_cell_volume   455.67769226
_cell_formula_units_Z   1
loop_
 _symmetry_equiv_pos_site_id
 _symmetry_equiv_pos_as_xyz
  1  'x, y, z'
loop_
 _atom_site_type_symbol
 _atom_site_label
 _atom_site_symmetry_multiplicity
 _atom_site_fract_x
 _atom_site_fract_y
 _atom_site_fract_z
 _atom_site_occupancy
  Mg  Mg0  1  0.99987800  0.00083500  0.38498600  1
  Te  Te0  1  0.33337700  0.66694300  0.31668500  1
  Te  Te1  1  0.33337200  0.66705900  0.69902700  1
  Te  Te2  1  0.33342100  0.66657600  0.23417000  1
  Te  Te3  1  0.33336900  0.66645800  0.61624200  1
  Mo  Mo0  1  0.33327900  0.66666700  0.09386100  1
  Mo  Mo1  1  0.33344400  0.66626200  0.47693700  1
  Mo  Mo2  1  0.66666000  0.33333500  0.27525400  1
  W  W0  1  0.66661300  0.33334200  0.65764900  1
  Se  Se0  1  0.66658500  0.33304800  0.05764000  1
  Se  Se1  1  0.66655100  0.33351900  0.13004700  1
  S  S0  1  0.66671500  0.33313400  0.44372300  1
  S  S1  1  0.66673700  0.33282200  0.50967900  1
loop_
_geom_bond_atom_site_label_1
_geom_bond_atom_site_label_2
_geom_bond_distance
_geom_bond_site_symmetry_2
Te1 W0 2.720610 1_565
Te1 W0 2.720616 1_455
Te1 W0 2.720649 1_555
Te3 W0 2.721202 1_555
Te3 W0 2.721456 1_455
Te3 W0 2.721960 1_565
Mo0 Se1 2.562292 1_555
Mo0 Se1 2.562428 1_455
Mo0 Se1 2.563006 1_565
Mo0 Se0 2.563440 1_455
Mo0 Se0 2.563611 1_555
Mo0 Se0 2.563750 1_565
Mo1 S1 2.464467 1_455
Mo1 S1 2.464468 1_565
Mo1 S1 2.465063 1_555
Mo1 S0 2.476547 1_555
Mo1 S0 2.477639 1_455
Mo1 S0 2.478993 1_565
Mo2 Te2 2.711284 1_555
Mo2 Te2 2.711298 1_655
Mo2 Te2 2.711530 1_545
Mo2 Te0 2.722178 1_555
Mo2 Te0 2.722199 1_655
Mo2 Te0 2.722514 1_545
