# generated using pymatgen
data_MgNbCrO4
_symmetry_space_group_name_H-M   'P 1'
_cell_length_a   3.00668431
_cell_length_b   5.51128633
_cell_length_c   5.51128633
_cell_angle_alpha   106.29796069
_cell_angle_beta   90.00000000
_cell_angle_gamma   90.00000000
_symmetry_Int_Tables_number   1
_chemical_formula_structural   MgNbCrO4
_chemical_formula_sum   'Mg1 Nb1 Cr1 O4'
_cell_volume   87.65595795
_cell_formula_units_Z   1
loop_
 _symmetry_equiv_pos_site_id
 _symmetry_equiv_pos_as_xyz
  1  'x, y, z'
loop_
 _atom_site_type_symbol
 _atom_site_label
 _atom_site_symmetry_multiplicity
 _atom_site_fract_x
 _atom_site_fract_y
 _atom_site_fract_z
 _atom_site_occupancy
  Mg  Mg0  1  0.00000000  0.69471102  0.30528898  1
  Nb  Nb0  1  0.00000000  0.02603925  0.97396075  1
  Cr  Cr0  1  0.50000000  0.43053161  0.56946839  1
  O  O0  1  0.00000000  0.70281586  0.68624566  1
  O  O1  1  0.50000000  0.83770865  0.16229135  1
  O  O2  1  0.50000000  0.18888326  0.81111674  1
  O  O3  1  0.00000000  0.31375434  0.29718414  1
loop_
_geom_bond_atom_site_label_1
_geom_bond_atom_site_label_2
_geom_bond_distance
_geom_bond_site_symmetry_2
Mg0 O1 1.962358 1_555
Mg0 O1 1.962358 1_455
Mg0 O3 2.087466 1_555
Mg0 O0 2.087466 1_555
Nb0 O3 2.025409 1_556
Nb0 O0 2.025409 1_545
Nb0 O2 2.079197 1_455
Nb0 O2 2.079197 1_555
Nb0 O1 2.240393 1_546
Nb0 O1 2.240393 1_446
Cr0 O0 2.093822 1_555
Cr0 O0 2.093822 1_655
Cr0 O3 2.093822 1_655
Cr0 O3 2.093822 1_555
Cr0 O2 2.131396 1_555
