# generated using pymatgen
data_Cs3Li2Br5
_symmetry_space_group_name_H-M   'P 1'
_cell_length_a   13.22294384
_cell_length_b   13.22294384
_cell_length_c   4.39419369
_cell_angle_alpha   80.43504237
_cell_angle_beta   80.43504237
_cell_angle_gamma   146.73970967
_symmetry_Int_Tables_number   1
_chemical_formula_structural   Cs3Li2Br5
_chemical_formula_sum   'Cs3 Li2 Br5'
_cell_volume   343.07532881
_cell_formula_units_Z   1
loop_
 _symmetry_equiv_pos_site_id
 _symmetry_equiv_pos_as_xyz
  1  'x, y, z'
loop_
 _atom_site_type_symbol
 _atom_site_label
 _atom_site_symmetry_multiplicity
 _atom_site_fract_x
 _atom_site_fract_y
 _atom_site_fract_z
 _atom_site_occupancy
  Cs  Cs0  1  0.64518425  0.40136308  0.72242091  1
  Cs  Cs1  1  0.40136308  0.64518425  0.72242091  1
  Cs  Cs2  1  0.02752628  0.02752628  0.21161070  1
  Li  Li0  1  0.77423904  0.20665491  0.75792979  1
  Li  Li1  1  0.20665491  0.77423904  0.75792979  1
  Br  Br0  1  0.52837140  0.52837140  0.21202975  1
  Br  Br1  1  0.35008492  0.82483971  0.16053555  1
  Br  Br2  1  0.82483971  0.35008492  0.16053555  1
  Br  Br3  1  0.91228177  0.14915563  0.71376552  1
  Br  Br4  1  0.14915563  0.91228177  0.71376552  1
loop_
_geom_bond_atom_site_label_1
_geom_bond_atom_site_label_2
_geom_bond_distance
_geom_bond_site_symmetry_2
Br0 Cs2 3.776843 1_665
Br0 Cs0 3.777510 1_554
Br0 Cs1 3.777510 1_554
Br0 Cs2 3.783181 1_664
Br0 Cs2 3.785211 1_556
Br0 Cs2 3.791774 1_555
Br0 Cs0 3.804471 1_555
Br0 Cs1 3.804471 1_555
Br1 Li0 2.540567 1_564
Br1 Li1 2.561387 1_554
Br1 Li1 2.564208 1_555
Br1 Cs1 3.674252 1_555
Br1 Cs1 3.686352 1_554
Br2 Li1 2.540567 1_654
Br2 Li0 2.561387 1_554
Br2 Li0 2.564208 1_555
Br2 Cs0 3.674252 1_555
Br2 Cs0 3.686352 1_554
Br3 Li0 2.489946 1_555
Br3 Cs2 3.705654 1_656
Br3 Cs2 3.733413 1_655
Br3 Cs1 3.744849 1_654
Br3 Cs1 3.751202 1_655
Br3 Cs1 3.819714 1_545
Br3 Cs1 3.825708 1_546
Br4 Li1 2.489946 1_555
Br4 Cs2 3.705654 1_566
Br4 Cs2 3.733413 1_565
Br4 Cs0 3.744849 1_564
Br4 Cs0 3.751202 1_565
Br4 Cs0 3.819714 1_455
Br4 Cs0 3.825708 1_456
