# generated using pymatgen
data_LiFe2(PO4)3
_symmetry_space_group_name_H-M   'P 1'
_cell_length_a   8.69710554
_cell_length_b   8.69710554
_cell_length_c   8.69710530
_cell_angle_alpha   59.78616225
_cell_angle_beta   59.78616225
_cell_angle_gamma   59.78616216
_symmetry_Int_Tables_number   1
_chemical_formula_structural   LiFe2(PO4)3
_chemical_formula_sum   'Li2 Fe4 P6 O24'
_cell_volume   462.90908074
_cell_formula_units_Z   2
loop_
 _symmetry_equiv_pos_site_id
 _symmetry_equiv_pos_as_xyz
  1  'x, y, z'
loop_
 _atom_site_type_symbol
 _atom_site_label
 _atom_site_symmetry_multiplicity
 _atom_site_fract_x
 _atom_site_fract_y
 _atom_site_fract_z
 _atom_site_occupancy
  Li  Li0  1  0.50000000  0.50000000  0.50000000  1
  Li  Li1  1  0.00000000  0.00000000  0.00000000  1
  Fe  Fe0  1  0.35664600  0.35664600  0.35664600  1
  Fe  Fe1  1  0.14335400  0.14335400  0.14335400  1
  Fe  Fe2  1  0.85664600  0.85664600  0.85664600  1
  Fe  Fe3  1  0.64335400  0.64335400  0.64335400  1
  P  P0  1  0.54159500  0.95840500  0.25000000  1
  P  P1  1  0.25000000  0.54159500  0.95840500  1
  P  P2  1  0.75000000  0.45840500  0.04159500  1
  P  P3  1  0.45840500  0.04159500  0.75000000  1
  P  P4  1  0.95840500  0.25000000  0.54159500  1
  P  P5  1  0.04159500  0.75000000  0.45840500  1
  O  O0  1  0.41153500  0.56118700  0.76546700  1
  O  O1  1  0.50703500  0.12081700  0.30078300  1
  O  O2  1  0.30078300  0.50703500  0.12081700  1
  O  O3  1  0.99296500  0.19921700  0.37918300  1
  O  O4  1  0.00703500  0.80078300  0.62081700  1
  O  O5  1  0.87918300  0.69921700  0.49296500  1
  O  O6  1  0.49296500  0.87918300  0.69921700  1
  O  O7  1  0.76546700  0.41153500  0.56118700  1
  O  O8  1  0.73453300  0.93881300  0.08846500  1
  O  O9  1  0.08846500  0.73453300  0.93881300  1
  O  O10  1  0.12081700  0.30078300  0.50703500  1
  O  O11  1  0.37918300  0.99296500  0.19921700  1
  O  O12  1  0.43881300  0.23453300  0.58846500  1
  O  O13  1  0.26546700  0.06118700  0.91153500  1
  O  O14  1  0.06118700  0.91153500  0.26546700  1
  O  O15  1  0.69921700  0.49296500  0.87918300  1
  O  O16  1  0.23453300  0.58846500  0.43881300  1
  O  O17  1  0.93881300  0.08846500  0.73453300  1
  O  O18  1  0.19921700  0.37918300  0.99296500  1
  O  O19  1  0.56118700  0.76546700  0.41153500  1
  O  O20  1  0.62081700  0.00703500  0.80078300  1
  O  O21  1  0.58846500  0.43881300  0.23453300  1
  O  O22  1  0.91153500  0.26546700  0.06118700  1
  O  O23  1  0.80078300  0.62081700  0.00703500  1
loop_
_geom_bond_atom_site_label_1
_geom_bond_atom_site_label_2
_geom_bond_distance
_geom_bond_site_symmetry_2
Li0 O0 2.289613 1_555
Li0 O21 2.289613 1_555
Li0 O16 2.289613 1_555
Li0 O7 2.289613 1_555
Li0 O12 2.289613 1_555
Li0 O19 2.289613 1_555
Li1 O14 2.289613 1_545
Li1 O17 2.289613 1_454
Li1 O9 2.289613 1_544
Li1 O22 2.289613 1_455
Li1 O13 2.289613 1_554
Li1 O8 2.289613 1_445
Fe0 O2 1.953686 1_555
Fe0 O1 1.953686 1_555
Fe0 O10 1.953686 1_555
Fe0 O12 2.057827 1_555
Fe0 O16 2.057827 1_555
Fe0 O21 2.057827 1_555
Fe1 O3 1.953686 1_455
Fe1 O11 1.953686 1_545
Fe1 O18 1.953686 1_554
Fe1 O13 2.057827 1_554
Fe1 O22 2.057827 1_455
Fe1 O14 2.057827 1_545
Fe2 O4 1.953686 1_655
Fe2 O20 1.953686 1_565
Fe2 O23 1.953686 1_556
Fe2 O8 2.057827 1_556
Fe2 O9 2.057827 1_655
Fe2 O17 2.057827 1_565
Fe3 O15 1.953686 1_555
Fe3 O6 1.953686 1_555
Fe3 O5 1.953686 1_555
Fe3 O19 2.057827 1_555
Fe3 O7 2.057827 1_555
Fe3 O0 2.057827 1_555
O0 P1 1.548861 1_555
O1 P0 1.532182 1_545
O2 P1 1.532182 1_554
O3 P4 1.532182 1_555
O4 P5 1.532182 1_555
O5 P5 1.532182 1_655
O6 P3 1.532182 1_565
O7 P4 1.548861 1_555
O8 P0 1.548861 1_555
O9 P1 1.548861 1_555
O10 P4 1.532182 1_455
O11 P0 1.532182 1_555
O12 P3 1.548861 1_555
O13 P3 1.548861 1_555
O14 P5 1.548861 1_555
O15 P2 1.532182 1_556
O16 P5 1.548861 1_555
O17 P4 1.548861 1_555
O18 P1 1.532182 1_555
O19 P0 1.548861 1_555
O20 P3 1.532182 1_555
O21 P2 1.548861 1_555
O22 P2 1.548861 1_555
O23 P2 1.532182 1_555
