# generated using pymatgen
data_MgTe4MoW3S4
_symmetry_space_group_name_H-M   'P 1'
_cell_length_a   3.36179234
_cell_length_b   3.36160037
_cell_length_c   43.88593762
_cell_angle_alpha   90.00148145
_cell_angle_beta   90.12385226
_cell_angle_gamma   119.99807791
_symmetry_Int_Tables_number   1
_chemical_formula_structural   MgTe4MoW3S4
_chemical_formula_sum   'Mg1 Te4 Mo1 W3 S4'
_cell_volume   429.51666696
_cell_formula_units_Z   1
loop_
 _symmetry_equiv_pos_site_id
 _symmetry_equiv_pos_as_xyz
  1  'x, y, z'
loop_
 _atom_site_type_symbol
 _atom_site_label
 _atom_site_symmetry_multiplicity
 _atom_site_fract_x
 _atom_site_fract_y
 _atom_site_fract_z
 _atom_site_occupancy
  Mg  Mg0  1  0.66782400  0.33390300  0.37615100  1
  Te  Te0  1  0.33464200  0.66734300  0.70092900  1
  Te  Te1  1  0.66554200  0.33273100  0.05074000  1
  Te  Te2  1  0.66848600  0.33424000  0.13686100  1
  Te  Te3  1  0.33183900  0.66590700  0.61433400  1
  Mo  Mo0  1  0.33371600  0.66683800  0.09379200  1
  W  W0  1  0.33396200  0.66694900  0.47392000  1
  W  W1  1  0.66931800  0.33471100  0.27426600  1
  W  W2  1  0.66652800  0.33327000  0.65762400  1
  S  S0  1  0.33736900  0.66874700  0.30890300  1
  S  S1  1  0.66618200  0.33304500  0.43943900  1
  S  S2  1  0.66839000  0.33417800  0.50821900  1
  S  S3  1  0.33477100  0.66742200  0.23988900  1
loop_
_geom_bond_atom_site_label_1
_geom_bond_atom_site_label_2
_geom_bond_distance
_geom_bond_site_symmetry_2
Mg0 S1 2.777469 1_555
Te0 W2 2.716063 1_455
Te0 W2 2.716579 1_565
Te0 W2 2.716584 1_555
Te3 W2 2.715619 1_555
Te3 W2 2.715636 1_565
Te3 W2 2.716590 1_455
Mo0 Te1 2.708451 1_455
Mo0 Te1 2.708742 1_565
Mo0 Te1 2.708764 1_555
Mo0 Te2 2.708939 1_555
Mo0 Te2 2.708950 1_565
Mo0 Te2 2.709630 1_455
S0 W1 2.465182 1_555
S0 W1 2.465188 1_565
S0 W1 2.465525 1_455
S1 W0 2.460701 1_655
S1 W0 2.461268 1_545
S1 W0 2.461279 1_555
S2 W0 2.455908 1_555
S2 W0 2.455925 1_545
S2 W0 2.456706 1_655
S3 W1 2.458140 1_555
S3 W1 2.458158 1_565
S3 W1 2.458539 1_455
