# generated using pymatgen
data_Nd(GePt)2
_symmetry_space_group_name_H-M   'P 1'
_cell_length_a   4.36461616
_cell_length_b   4.36380612
_cell_length_c   9.97270923
_cell_angle_alpha   90.00000000
_cell_angle_beta   90.00000000
_cell_angle_gamma   90.00000000
_symmetry_Int_Tables_number   1
_chemical_formula_structural   Nd(GePt)2
_chemical_formula_sum   'Nd2 Ge4 Pt4'
_cell_volume   189.94359786
_cell_formula_units_Z   2
loop_
 _symmetry_equiv_pos_site_id
 _symmetry_equiv_pos_as_xyz
  1  'x, y, z'
loop_
 _atom_site_type_symbol
 _atom_site_label
 _atom_site_symmetry_multiplicity
 _atom_site_fract_x
 _atom_site_fract_y
 _atom_site_fract_z
 _atom_site_occupancy
  Nd  Nd0  1  0.25429137  0.00000000  0.74571518  1
  Nd  Nd1  1  0.75429137  0.50000000  0.25428482  1
  Ge  Ge0  1  0.25462326  -0.00000000  0.12963300  1
  Ge  Ge1  1  0.75462326  0.50000000  0.87036700  1
  Ge  Ge2  1  0.25411109  0.50000000  0.50004344  1
  Ge  Ge3  1  0.75411109  0.00000000  0.49995656  1
  Pt  Pt0  1  0.25416246  -0.00000000  0.37668223  1
  Pt  Pt1  1  0.75416246  0.50000000  0.62331777  1
  Pt  Pt2  1  0.25481081  0.50000000  0.99994002  1
  Pt  Pt3  1  0.75481081  0.00000000  0.00005998  1
loop_
_geom_bond_atom_site_label_1
_geom_bond_atom_site_label_2
_geom_bond_distance
_geom_bond_site_symmetry_2
Nd0 Pt1 3.318232 1_555
Nd0 Pt1 3.318232 1_545
Nd0 Pt1 3.318972 1_455
Nd0 Pt1 3.318972 1_445
Nd0 Pt3 3.344614 1_456
Nd0 Pt2 3.344922 1_545
Nd0 Pt2 3.344922 1_555
Nd0 Pt3 3.347572 1_556
Nd1 Pt0 3.318232 1_665
Nd1 Pt0 3.318232 1_655
Nd1 Pt0 3.318972 1_555
Nd1 Pt0 3.318972 1_565
Nd1 Pt2 3.344614 1_554
Nd1 Pt3 3.344922 1_565
Nd1 Pt3 3.344922 1_555
Nd1 Pt2 3.347572 1_654
Ge0 Pt0 2.463751 1_555
Ge0 Pt3 2.535481 1_455
Ge0 Pt2 2.536446 1_554
Ge0 Pt2 2.536446 1_544
Ge0 Pt3 2.536889 1_555
Ge0 Nd1 3.325987 1_545
Ge0 Nd1 3.325987 1_555
Ge0 Nd1 3.327887 1_445
Ge0 Nd1 3.327887 1_455
Ge1 Pt1 2.463751 1_555
Ge1 Pt2 2.535481 1_555
Ge1 Pt3 2.536446 1_566
Ge1 Pt3 2.536446 1_556
Ge1 Pt2 2.536889 1_655
Ge1 Nd0 3.325987 1_655
Ge1 Nd0 3.325987 1_665
Ge1 Nd0 3.327887 1_565
Ge1 Nd0 3.327887 1_555
Ge2 Pt1 2.504568 1_455
Ge2 Pt0 2.504836 1_555
Ge2 Pt0 2.504836 1_565
Ge2 Pt1 2.504959 1_555
Ge2 Nd0 3.280741 1_565
Ge2 Nd0 3.280741 1_555
Ge2 Nd1 3.281135 1_455
Ge2 Nd1 3.282181 1_555
Ge3 Pt0 2.504568 1_555
Ge3 Pt1 2.504836 1_545
Ge3 Pt1 2.504836 1_555
Ge3 Pt0 2.504959 1_655
Ge3 Nd1 3.280741 1_545
Ge3 Nd1 3.280741 1_555
Ge3 Nd0 3.281135 1_555
Ge3 Nd0 3.282181 1_655
