# generated using pymatgen
data_TbCo5
_symmetry_space_group_name_H-M   'P 1'
_cell_length_a   4.93273199
_cell_length_b   4.93278768
_cell_length_c   3.87061035
_cell_angle_alpha   90.00000000
_cell_angle_beta   90.00000000
_cell_angle_gamma   118.18743734
_symmetry_Int_Tables_number   1
_chemical_formula_structural   TbCo5
_chemical_formula_sum   'Tb1 Co5'
_cell_volume   83.01105089
_cell_formula_units_Z   1
loop_
 _symmetry_equiv_pos_site_id
 _symmetry_equiv_pos_as_xyz
  1  'x, y, z'
loop_
 _atom_site_type_symbol
 _atom_site_label
 _atom_site_symmetry_multiplicity
 _atom_site_fract_x
 _atom_site_fract_y
 _atom_site_fract_z
 _atom_site_occupancy
  Tb  Tb0  1  -0.00000000  -0.00000000  0.00000000  1
  Co  Co0  1  -0.00000000  0.50000000  0.50000000  1
  Co  Co1  1  0.32704031  0.67292283  -0.00000000  1
  Co  Co2  1  0.67295969  0.32707717  -0.00000000  1
  Co  Co3  1  0.50000000  -0.00000000  0.50000000  1
  Co  Co4  1  0.50000000  0.50000000  0.50000000  1
loop_
_geom_bond_atom_site_label_1
_geom_bond_atom_site_label_2
_geom_bond_distance
_geom_bond_site_symmetry_2
Co0 Co2 2.403216 1_455
Co0 Co2 2.403216 1_456
Co0 Co1 2.403216 1_556
Co0 Co1 2.403216 1_555
Co0 Co4 2.466366 1_455
Co0 Co4 2.466366 1_555
Co0 Co3 2.533640 1_565
Co0 Co3 2.533640 1_455
Co0 Tb0 3.135045 1_556
Co0 Tb0 3.135045 1_565
Co0 Tb0 3.135045 1_566
Co0 Tb0 3.135045 1_555
Co1 Co3 2.403324 1_565
Co1 Co3 2.403324 1_564
Co1 Co4 2.426602 1_555
Co1 Co4 2.426602 1_554
Co1 Tb0 2.768454 1_565
Co1 Co2 2.849591 1_455
Co1 Co2 2.849953 1_565
Co1 Tb0 2.926080 1_555
Co1 Tb0 2.926209 1_665
Co1 Co2 2.927792 1_555
Co2 Co3 2.403324 1_554
Co2 Co3 2.403324 1_555
Co2 Co4 2.426602 1_555
Co2 Co4 2.426602 1_554
Co2 Tb0 2.768454 1_655
Co2 Tb0 2.926080 1_665
Co2 Tb0 2.926209 1_555
Co3 Co4 2.466394 1_555
Co3 Co4 2.466394 1_545
Co3 Tb0 3.135023 1_555
Co3 Tb0 3.135023 1_556
Co3 Tb0 3.135023 1_656
Co3 Tb0 3.135023 1_655
Co4 Tb0 3.188218 1_555
Co4 Tb0 3.188218 1_556
Co4 Tb0 3.188218 1_665
Co4 Tb0 3.188218 1_666
