# generated using pymatgen
data_DyGe
_symmetry_space_group_name_H-M   'P 1'
_cell_length_a   3.94104833
_cell_length_b   4.26603723
_cell_length_c   5.75049258
_cell_angle_alpha   111.77287544
_cell_angle_beta   90.00000000
_cell_angle_gamma   90.00000000
_symmetry_Int_Tables_number   1
_chemical_formula_structural   DyGe
_chemical_formula_sum   'Dy2 Ge2'
_cell_volume   89.78399096
_cell_formula_units_Z   2
loop_
 _symmetry_equiv_pos_site_id
 _symmetry_equiv_pos_as_xyz
  1  'x, y, z'
loop_
 _atom_site_type_symbol
 _atom_site_label
 _atom_site_symmetry_multiplicity
 _atom_site_fract_x
 _atom_site_fract_y
 _atom_site_fract_z
 _atom_site_occupancy
  Dy  Dy0  1  0.25000000  0.86161489  0.72323178  1
  Dy  Dy1  1  0.75000000  0.13838511  0.27676822  1
  Ge  Ge0  1  0.25000000  0.58492521  0.16985042  1
  Ge  Ge1  1  0.75000000  0.41507479  0.83014958  1
loop_
_geom_bond_atom_site_label_1
_geom_bond_atom_site_label_2
_geom_bond_distance
_geom_bond_site_symmetry_2
Dy0 Ge0 2.955201 1_555
Dy0 Ge1 2.959514 1_455
Dy0 Ge1 2.959514 1_555
Dy0 Ge1 2.959520 1_565
Dy0 Ge1 2.959520 1_465
Dy0 Ge0 3.199729 1_556
Dy0 Ge0 3.199734 1_566
Dy1 Ge1 2.955201 1_555
Dy1 Ge0 2.959514 1_555
Dy1 Ge0 2.959514 1_655
Dy1 Ge0 2.959520 1_645
Dy1 Ge0 2.959520 1_545
Dy1 Ge1 3.199729 1_554
Dy1 Ge1 3.199734 1_544
Ge0 Ge1 2.678412 1_554
Ge0 Ge1 2.678412 1_454
