# generated using pymatgen
data_MgVS2
_symmetry_space_group_name_H-M   'P 1'
_cell_length_a   6.54880971
_cell_length_b   6.54881021
_cell_length_c   6.54880954
_cell_angle_alpha   31.99678628
_cell_angle_beta   31.99678546
_cell_angle_gamma   31.99679474
_symmetry_Int_Tables_number   1
_chemical_formula_structural   MgVS2
_chemical_formula_sum   'Mg1 V1 S2'
_cell_volume   70.06173175
_cell_formula_units_Z   1
loop_
 _symmetry_equiv_pos_site_id
 _symmetry_equiv_pos_as_xyz
  1  'x, y, z'
loop_
 _atom_site_type_symbol
 _atom_site_label
 _atom_site_symmetry_multiplicity
 _atom_site_fract_x
 _atom_site_fract_y
 _atom_site_fract_z
 _atom_site_occupancy
  Mg  Mg0  1  0.83167605  0.83167605  0.83167605  1
  V  V0  1  0.99805485  0.99805485  0.99805485  1
  S  S0  1  0.59108014  0.59108014  0.59108014  1
  S  S1  1  0.41252197  0.41252197  0.41252197  1
loop_
_geom_bond_atom_site_label_1
_geom_bond_atom_site_label_2
_geom_bond_distance
_geom_bond_site_symmetry_2
Mg0 S1 2.626511 1_556
Mg0 S1 2.626511 1_565
Mg0 S1 2.626511 1_655
Mg0 S0 2.706839 1_556
Mg0 S0 2.706839 1_655
Mg0 S0 2.706839 1_565
S0 V0 2.494964 1_554
S0 V0 2.494965 1_545
S0 V0 2.494965 1_455
S1 V0 2.574318 1_445
S1 V0 2.574318 1_454
S1 V0 2.574319 1_544
