# generated using pymatgen
data_AlH36C12S6(ClO2)3
_symmetry_space_group_name_H-M   'P 1'
_cell_length_a   9.66530816
_cell_length_b   9.66530816
_cell_length_c   9.66530834
_cell_angle_alpha   66.38609653
_cell_angle_beta   66.38609653
_cell_angle_gamma   66.38609681
_symmetry_Int_Tables_number   1
_chemical_formula_structural   AlH36C12S6(ClO2)3
_chemical_formula_sum   'Al1 H36 C12 S6 Cl3 O6'
_cell_volume   726.37128021
_cell_formula_units_Z   1
loop_
 _symmetry_equiv_pos_site_id
 _symmetry_equiv_pos_as_xyz
  1  'x, y, z'
loop_
 _atom_site_type_symbol
 _atom_site_label
 _atom_site_symmetry_multiplicity
 _atom_site_fract_x
 _atom_site_fract_y
 _atom_site_fract_z
 _atom_site_occupancy
  Al  Al0  1  0.50000000  0.50000000  0.50000000  1
  H  H0  1  0.06505600  0.61187700  0.80124800  1
  H  H1  1  0.00079900  0.63946900  0.44049300  1
  H  H2  1  0.63946900  0.44049300  0.00079900  1
  H  H3  1  0.44049300  0.00079900  0.63946900  1
  H  H4  1  0.99920100  0.36053100  0.55950700  1
  H  H5  1  0.36053100  0.55950700  0.99920100  1
  H  H6  1  0.55950700  0.99920100  0.36053100  1
  H  H7  1  0.04616100  0.72922000  0.22897200  1
  H  H8  1  0.72922000  0.22897200  0.04616100  1
  H  H9  1  0.71899900  0.92822600  0.04040700  1
  H  H10  1  0.04040700  0.71899900  0.92822600  1
  H  H11  1  0.92822600  0.04040700  0.71899900  1
  H  H12  1  0.28100100  0.07177400  0.95959300  1
  H  H13  1  0.95959300  0.28100100  0.07177400  1
  H  H14  1  0.07177400  0.95959300  0.28100100  1
  H  H15  1  0.61187700  0.80124800  0.06505600  1
  H  H16  1  0.03045900  0.85387700  0.48943400  1
  H  H17  1  0.80124800  0.06505600  0.61187700  1
  H  H18  1  0.38812300  0.19875200  0.93494400  1
  H  H19  1  0.93494400  0.38812300  0.19875200  1
  H  H20  1  0.19875200  0.93494400  0.38812300  1
  H  H21  1  0.51056600  0.96954100  0.14612300  1
  H  H22  1  0.14612300  0.51056600  0.96954100  1
  H  H23  1  0.96954100  0.14612300  0.51056600  1
  H  H24  1  0.48943400  0.03045900  0.85387700  1
  H  H25  1  0.85387700  0.48943400  0.03045900  1
  H  H26  1  0.85347000  0.47597900  0.69347500  1
  H  H27  1  0.95383900  0.27078000  0.77102800  1
  H  H28  1  0.27078000  0.77102800  0.95383900  1
  H  H29  1  0.77102800  0.95383900  0.27078000  1
  H  H30  1  0.14653000  0.52402100  0.30652500  1
  H  H31  1  0.52402100  0.30652500  0.14653000  1
  H  H32  1  0.30652500  0.14653000  0.52402100  1
  H  H33  1  0.69347500  0.85347000  0.47597900  1
  H  H34  1  0.47597900  0.69347500  0.85347000  1
  H  H35  1  0.22897200  0.04616100  0.72922000  1
  C  C0  1  0.09259400  0.64111300  0.32714100  1
  C  C1  1  0.64111300  0.32714100  0.09259400  1
  C  C2  1  0.32714100  0.09259400  0.64111300  1
  C  C3  1  0.90740600  0.35888700  0.67285900  1
  C  C4  1  0.35888700  0.67285900  0.90740600  1
  C  C5  1  0.67285900  0.90740600  0.35888700  1
  C  C6  1  0.62115500  0.87711300  0.11839500  1
  C  C7  1  0.12288700  0.88160500  0.37884500  1
  C  C8  1  0.11839500  0.62115500  0.87711300  1
  C  C9  1  0.37884500  0.12288700  0.88160500  1
  C  C10  1  0.87711300  0.11839500  0.62115500  1
  C  C11  1  0.88160500  0.37884500  0.12288700  1
  S  S0  1  0.32708900  0.24349300  0.70309000  1
  S  S1  1  0.24349300  0.70309000  0.32708900  1
  S  S2  1  0.70309000  0.32708900  0.24349300  1
  S  S3  1  0.75650700  0.29691000  0.67291100  1
  S  S4  1  0.67291100  0.75650700  0.29691000  1
  S  S5  1  0.29691000  0.67291100  0.75650700  1
  Cl  Cl0  1  0.25360100  0.25360100  0.25360100  1
  Cl  Cl1  1  0.74639900  0.74639900  0.74639900  1
  Cl  Cl2  1  0.00000000  0.00000000  0.00000000  1
  O  O0  1  0.52158500  0.70908700  0.41280200  1
  O  O1  1  0.47841500  0.29091300  0.58719800  1
  O  O2  1  0.58719800  0.47841500  0.29091300  1
  O  O3  1  0.70908700  0.41280200  0.52158500  1
  O  O4  1  0.41280200  0.52158500  0.70908700  1
  O  O5  1  0.29091300  0.58719800  0.47841500  1
loop_
_geom_bond_atom_site_label_1
_geom_bond_atom_site_label_2
_geom_bond_distance
_geom_bond_site_symmetry_2
Al0 O0 1.915784 1_555
Al0 O1 1.915784 1_555
Al0 O3 1.915784 1_555
Al0 O5 1.915784 1_555
Al0 O4 1.915784 1_555
Al0 O2 1.915784 1_555
C0 H1 1.098334 1_555
C0 H7 1.102054 1_555
C0 H30 1.103208 1_555
C0 S1 1.784691 1_555
C1 H2 1.098334 1_555
C1 H8 1.102054 1_555
C1 H31 1.103208 1_555
C1 S2 1.784691 1_555
C2 H3 1.098334 1_555
C2 H35 1.102054 1_555
C2 H32 1.103208 1_555
C2 S0 1.784691 1_555
C3 H4 1.098334 1_555
C3 H27 1.102054 1_555
C3 H26 1.103208 1_555
C3 S3 1.784691 1_555
C4 H5 1.098334 1_555
C4 H28 1.102054 1_555
C4 H34 1.103208 1_555
C4 S5 1.784691 1_555
C5 H6 1.098334 1_555
C5 H29 1.102054 1_555
C5 H33 1.103208 1_555
C5 S4 1.784691 1_555
C6 H15 1.097295 1_555
C6 H21 1.099867 1_555
C6 H9 1.100655 1_555
C6 S4 1.788595 1_555
C7 H20 1.097295 1_555
C7 H16 1.099867 1_555
C7 H14 1.100655 1_555
C7 S1 1.788595 1_555
C8 H0 1.097295 1_555
C8 H22 1.099867 1_555
C8 H10 1.100655 1_555
C8 S5 1.788595 1_555
C9 H18 1.097295 1_555
C9 H24 1.099867 1_555
C9 H12 1.100655 1_555
C9 S0 1.788595 1_555
C10 H17 1.097295 1_555
C10 H23 1.099867 1_555
C10 H11 1.100655 1_555
C10 S3 1.788595 1_555
C11 H19 1.097295 1_555
C11 H25 1.099867 1_555
C11 H13 1.100655 1_555
C11 S2 1.788595 1_555
O0 S4 1.554742 1_555
O1 S0 1.554742 1_555
O2 S2 1.554742 1_555
O3 S3 1.554742 1_555
O4 S5 1.554742 1_555
O5 S1 1.554742 1_555
