# generated using pymatgen
data_HfAl
_symmetry_space_group_name_H-M   'P 1'
_cell_length_a   6.52583991
_cell_length_b   8.49652656
_cell_length_c   11.28083586
_cell_angle_alpha   90.00000000
_cell_angle_beta   106.81273860
_cell_angle_gamma   90.00000000
_symmetry_Int_Tables_number   1
_chemical_formula_structural   HfAl
_chemical_formula_sum   'Hf16 Al16'
_cell_volume   598.75183226
_cell_formula_units_Z   16
loop_
 _symmetry_equiv_pos_site_id
 _symmetry_equiv_pos_as_xyz
  1  'x, y, z'
loop_
 _atom_site_type_symbol
 _atom_site_label
 _atom_site_symmetry_multiplicity
 _atom_site_fract_x
 _atom_site_fract_y
 _atom_site_fract_z
 _atom_site_occupancy
  Hf  Hf0_0  1  0.41838339  0.12500000  0.33676677  1
  Hf  Hf0_1  1  0.41838339  0.12500000  0.83676677  1
  Hf  Hf0_2  1  0.41838339  0.62500000  0.33676677  1
  Hf  Hf0_3  1  0.41838339  0.62500000  0.83676677  1
  Hf  Hf0_4  1  0.91838339  0.12500000  0.33676677  1
  Hf  Hf0_5  1  0.91838339  0.12500000  0.83676677  1
  Hf  Hf0_6  1  0.91838339  0.62500000  0.33676677  1
  Hf  Hf0_7  1  0.91838339  0.62500000  0.83676677  1
  Hf  Hf1_0  1  0.08161662  0.37500000  0.16323323  1
  Hf  Hf1_1  1  0.08161662  0.37500000  0.66323323  1
  Hf  Hf1_2  1  0.08161662  0.87500000  0.16323323  1
  Hf  Hf1_3  1  0.08161662  0.87500000  0.66323323  1
  Hf  Hf1_4  1  0.58161662  0.37500000  0.16323323  1
  Hf  Hf1_5  1  0.58161662  0.37500000  0.66323323  1
  Hf  Hf1_6  1  0.58161662  0.87500000  0.16323323  1
  Hf  Hf1_7  1  0.58161662  0.87500000  0.66323323  1
  Al  Al0_0  1  0.28518824  0.12500000  0.07037699  1
  Al  Al0_1  1  0.28518824  0.12500000  0.57037699  1
  Al  Al0_2  1  0.28518824  0.62500000  0.07037699  1
  Al  Al0_3  1  0.28518824  0.62500000  0.57037699  1
  Al  Al0_4  1  0.78518824  0.12500000  0.07037699  1
  Al  Al0_5  1  0.78518824  0.12500000  0.57037699  1
  Al  Al0_6  1  0.78518824  0.62500000  0.07037699  1
  Al  Al0_7  1  0.78518824  0.62500000  0.57037699  1
  Al  Al1_0  1  0.21481176  0.37500000  0.42962301  1
  Al  Al1_1  1  0.21481176  0.37500000  0.92962301  1
  Al  Al1_2  1  0.21481176  0.87500000  0.42962301  1
  Al  Al1_3  1  0.21481176  0.87500000  0.92962301  1
  Al  Al1_4  1  0.71481176  0.37500000  0.42962301  1
  Al  Al1_5  1  0.71481176  0.37500000  0.92962301  1
  Al  Al1_6  1  0.71481176  0.87500000  0.42962301  1
  Al  Al1_7  1  0.71481176  0.87500000  0.92962301  1
loop_
_geom_bond_atom_site_label_1
_geom_bond_atom_site_label_2
_geom_bond_distance
_geom_bond_site_symmetry_2
Hf0_0 Hf0_4 3.262920 1_455
Hf0_0 Hf0_4 3.262920 1_555
Hf0_0 Hf1_0 3.268822 1_555
Hf0_0 Hf1_2 3.268822 1_545
Hf0_0 Hf1_4 3.268822 1_555
Hf0_0 Hf1_6 3.268822 1_545
Hf0_1 Hf0_5 3.262920 1_555
Hf0_1 Hf0_5 3.262920 1_455
Hf0_1 Hf1_3 3.268822 1_545
Hf0_1 Hf1_1 3.268822 1_555
Hf0_1 Hf1_5 3.268822 1_555
Hf0_1 Hf1_7 3.268822 1_545
Hf0_2 Hf0_6 3.262920 1_455
Hf0_2 Hf0_6 3.262920 1_555
Hf0_2 Hf1_2 3.268822 1_555
Hf0_2 Hf1_0 3.268822 1_555
Hf0_2 Hf1_6 3.268822 1_555
Hf0_2 Hf1_4 3.268822 1_555
Hf0_3 Hf0_7 3.262920 1_555
Hf0_3 Hf0_7 3.262920 1_455
Hf0_3 Hf1_3 3.268822 1_555
Hf0_3 Hf1_1 3.268822 1_555
Hf0_3 Hf1_7 3.268822 1_555
Hf0_3 Hf1_5 3.268822 1_555
Hf0_4 Hf1_4 3.268822 1_555
Hf0_4 Hf1_6 3.268822 1_545
Hf0_4 Hf1_0 3.268822 1_655
Hf0_4 Hf1_2 3.268822 1_645
Hf0_5 Hf1_5 3.268822 1_555
Hf0_5 Hf1_7 3.268822 1_545
Hf0_5 Hf1_3 3.268822 1_645
Hf0_5 Hf1_1 3.268822 1_655
Hf0_6 Hf1_6 3.268822 1_555
Hf0_6 Hf1_4 3.268822 1_555
Hf0_6 Hf1_2 3.268822 1_655
Hf0_6 Hf1_0 3.268822 1_655
Hf0_7 Hf1_5 3.268822 1_555
Hf0_7 Hf1_7 3.268822 1_555
Hf0_7 Hf1_3 3.268822 1_655
Hf0_7 Hf1_1 3.268822 1_655
Hf1_0 Hf1_4 3.262920 1_455
Hf1_0 Hf1_4 3.262920 1_555
Hf1_1 Hf1_5 3.262920 1_455
Hf1_1 Hf1_5 3.262920 1_555
Hf1_2 Hf1_6 3.262920 1_455
Hf1_2 Hf1_6 3.262920 1_555
Hf1_3 Hf1_7 3.262920 1_455
Hf1_3 Hf1_7 3.262920 1_555
Al0_0 Al1_1 2.611932 1_554
Al0_0 Al1_3 2.611932 1_544
Al0_0 Hf1_0 2.859902 1_555
Al0_0 Hf1_2 2.859902 1_545
Al0_0 Hf1_4 2.859904 1_555
Al0_0 Hf1_6 2.859904 1_545
Al0_0 Hf0_0 2.876647 1_555
Al0_0 Hf0_5 3.004252 1_454
Al0_0 Hf0_1 3.004254 1_554
Al0_1 Al1_2 2.611932 1_545
Al0_1 Al1_0 2.611932 1_555
Al0_1 Hf1_3 2.859902 1_545
Al0_1 Hf1_1 2.859902 1_555
Al0_1 Hf1_7 2.859904 1_545
Al0_1 Hf1_5 2.859904 1_555
Al0_1 Hf0_1 2.876647 1_555
Al0_1 Hf0_4 3.004252 1_455
Al0_1 Hf0_0 3.004254 1_555
Al0_2 Al1_1 2.611932 1_554
Al0_2 Al1_3 2.611932 1_554
Al0_2 Hf1_2 2.859902 1_555
Al0_2 Hf1_0 2.859902 1_555
Al0_2 Hf1_4 2.859904 1_555
Al0_2 Hf1_6 2.859904 1_555
Al0_2 Hf0_2 2.876647 1_555
Al0_2 Hf0_7 3.004252 1_454
Al0_2 Hf0_3 3.004254 1_554
Al0_3 Al1_2 2.611932 1_555
Al0_3 Al1_0 2.611932 1_555
Al0_3 Hf1_1 2.859902 1_555
Al0_3 Hf1_3 2.859902 1_555
Al0_3 Hf1_7 2.859904 1_555
Al0_3 Hf1_5 2.859904 1_555
Al0_3 Hf0_3 2.876647 1_555
Al0_3 Hf0_6 3.004252 1_455
Al0_3 Hf0_2 3.004254 1_555
Al0_4 Al1_5 2.611932 1_554
Al0_4 Al1_7 2.611932 1_544
Al0_4 Hf1_4 2.859902 1_555
Al0_4 Hf1_6 2.859902 1_545
Al0_4 Hf1_0 2.859904 1_655
Al0_4 Hf1_2 2.859904 1_645
Al0_4 Hf0_4 2.876647 1_555
Al0_4 Hf0_1 3.004252 1_554
Al0_4 Hf0_5 3.004254 1_554
Al0_5 Al1_6 2.611932 1_545
Al0_5 Al1_4 2.611932 1_555
Al0_5 Hf1_5 2.859902 1_555
Al0_5 Hf1_7 2.859902 1_545
Al0_5 Hf1_1 2.859904 1_655
Al0_5 Hf1_3 2.859904 1_645
Al0_5 Hf0_5 2.876647 1_555
Al0_5 Hf0_0 3.004252 1_555
Al0_5 Hf0_4 3.004254 1_555
Al0_6 Al1_7 2.611932 1_554
Al0_6 Al1_5 2.611932 1_554
Al0_6 Hf1_6 2.859902 1_555
Al0_6 Hf1_4 2.859902 1_555
Al0_6 Hf1_0 2.859904 1_655
Al0_6 Hf1_2 2.859904 1_655
Al0_6 Hf0_6 2.876647 1_555
Al0_6 Hf0_3 3.004252 1_554
Al0_6 Hf0_7 3.004254 1_554
Al0_7 Al1_6 2.611932 1_555
Al0_7 Al1_4 2.611932 1_555
Al0_7 Hf1_5 2.859902 1_555
Al0_7 Hf1_7 2.859902 1_555
Al0_7 Hf1_1 2.859904 1_655
Al0_7 Hf1_3 2.859904 1_655
Al0_7 Hf0_7 2.876647 1_555
Al0_7 Hf0_2 3.004252 1_555
Al0_7 Hf0_6 3.004254 1_555
Al1_0 Hf0_0 2.859902 1_555
Al1_0 Hf0_2 2.859902 1_555
Al1_0 Hf0_6 2.859904 1_455
Al1_0 Hf0_4 2.859904 1_455
Al1_0 Hf1_0 2.876647 1_555
Al1_0 Hf1_5 3.004252 1_555
Al1_0 Hf1_1 3.004254 1_555
Al1_1 Hf0_1 2.859902 1_555
Al1_1 Hf0_3 2.859902 1_555
Al1_1 Hf0_5 2.859904 1_455
Al1_1 Hf0_7 2.859904 1_455
Al1_1 Hf1_1 2.876647 1_555
Al1_1 Hf1_4 3.004252 1_556
Al1_1 Hf1_0 3.004254 1_556
Al1_2 Hf0_0 2.859902 1_565
Al1_2 Hf0_2 2.859902 1_555
Al1_2 Hf0_4 2.859904 1_465
Al1_2 Hf0_6 2.859904 1_455
Al1_2 Hf1_2 2.876647 1_555
Al1_2 Hf1_7 3.004252 1_555
Al1_2 Hf1_3 3.004254 1_555
Al1_3 Hf0_1 2.859902 1_565
Al1_3 Hf0_3 2.859902 1_555
Al1_3 Hf0_5 2.859904 1_465
Al1_3 Hf0_7 2.859904 1_455
Al1_3 Hf1_3 2.876647 1_555
Al1_3 Hf1_6 3.004252 1_556
Al1_3 Hf1_2 3.004254 1_556
Al1_4 Hf0_4 2.859902 1_555
Al1_4 Hf0_6 2.859902 1_555
Al1_4 Hf0_0 2.859904 1_555
Al1_4 Hf0_2 2.859904 1_555
Al1_4 Hf1_4 2.876647 1_555
Al1_4 Hf1_1 3.004252 1_655
Al1_4 Hf1_5 3.004254 1_555
Al1_5 Hf0_7 2.859902 1_555
Al1_5 Hf0_5 2.859902 1_555
Al1_5 Hf0_3 2.859904 1_555
Al1_5 Hf0_1 2.859904 1_555
Al1_5 Hf1_5 2.876647 1_555
Al1_5 Hf1_0 3.004252 1_656
Al1_5 Hf1_4 3.004254 1_556
Al1_6 Hf0_6 2.859902 1_555
Al1_6 Hf0_4 2.859902 1_565
Al1_6 Hf0_2 2.859904 1_555
Al1_6 Hf0_0 2.859904 1_565
Al1_6 Hf1_6 2.876647 1_555
Al1_6 Hf1_3 3.004252 1_655
Al1_6 Hf1_7 3.004254 1_555
Al1_7 Hf0_7 2.859902 1_555
Al1_7 Hf0_5 2.859902 1_565
Al1_7 Hf0_3 2.859904 1_555
Al1_7 Hf0_1 2.859904 1_565
Al1_7 Hf1_7 2.876647 1_555
Al1_7 Hf1_2 3.004252 1_656
Al1_7 Hf1_6 3.004254 1_556
