# generated using pymatgen
data_Na3CrCl6
_symmetry_space_group_name_H-M   'P 1'
_cell_length_a   6.78339575
_cell_length_b   6.78339957
_cell_length_c   11.97391936
_cell_angle_alpha   89.99930743
_cell_angle_beta   89.99925331
_cell_angle_gamma   120.00598201
_symmetry_Int_Tables_number   1
_chemical_formula_structural   Na3CrCl6
_chemical_formula_sum   'Na6 Cr2 Cl12'
_cell_volume   477.12847190
_cell_formula_units_Z   2
loop_
 _symmetry_equiv_pos_site_id
 _symmetry_equiv_pos_as_xyz
  1  'x, y, z'
loop_
 _atom_site_type_symbol
 _atom_site_label
 _atom_site_symmetry_multiplicity
 _atom_site_fract_x
 _atom_site_fract_y
 _atom_site_fract_z
 _atom_site_occupancy
  Na  Na0  1  0.00000563  -0.00000331  0.74999992  1
  Na  Na1  1  0.99999490  0.00000396  0.24999993  1
  Na  Na2  1  0.66668376  0.33334602  0.45690779  1
  Na  Na3  1  0.66665122  0.33331620  0.04309262  1
  Na  Na4  1  0.33331778  0.66665362  0.54309265  1
  Na  Na5  1  0.33334798  0.66668348  0.95690779  1
  Cr  Cr0  1  0.33333271  0.66666725  0.25000103  1
  Cr  Cr1  1  0.66666832  0.33333394  0.75000111  1
  Cl  Cl0  1  0.37924188  0.32249595  0.86619151  1
  Cl  Cl1  1  0.94326046  0.62075786  0.86619514  1
  Cl  Cl2  1  0.37924248  0.05673995  0.63380446  1
  Cl  Cl3  1  0.94326105  0.32250614  0.63380556  1
  Cl  Cl4  1  0.32250507  0.94326017  0.13380532  1
  Cl  Cl5  1  0.67750614  0.62076034  0.63380783  1
  Cl  Cl6  1  0.05673881  0.37924170  0.13380438  1
  Cl  Cl7  1  0.62075942  0.67750519  0.13380813  1
  Cl  Cl8  1  0.32249494  0.37924157  0.36619200  1
  Cl  Cl9  1  0.62075723  0.94326036  0.36619515  1
  Cl  Cl10  1  0.05673536  0.67748790  0.36619127  1
  Cl  Cl11  1  0.67749487  0.05674172  0.86619440  1
loop_
_geom_bond_atom_site_label_1
_geom_bond_atom_site_label_2
_geom_bond_distance
_geom_bond_site_symmetry_2
Cl0 Cr1 2.366219 1_555
Cl0 Na5 2.730377 1_555
Cl0 Na0 2.776802 1_555
Cl0 Na3 2.854843 1_556
Cl1 Cr1 2.366156 1_555
Cl1 Na5 2.730270 1_655
Cl1 Na0 2.776925 1_665
Cl1 Na3 2.854766 1_556
Cl2 Cr1 2.366185 1_555
Cl2 Na4 2.730262 1_545
Cl2 Na0 2.776916 1_555
Cl2 Na2 2.854751 1_555
Cl3 Cr1 2.366261 1_555
Cl3 Na4 2.729905 1_655
Cl3 Na0 2.777076 1_655
Cl3 Na2 2.854814 1_555
Cl4 Cr0 2.366265 1_555
Cl4 Na3 2.729899 1_565
Cl4 Na1 2.777077 1_465
Cl4 Na5 2.854816 1_554
Cl5 Cr1 2.366241 1_555
Cl5 Na4 2.730374 1_555
Cl5 Na0 2.776806 1_665
Cl5 Na2 2.854851 1_555
Cl6 Cr0 2.366184 1_555
Cl6 Na3 2.730267 1_455
Cl6 Na1 2.776923 1_455
Cl6 Na5 2.854758 1_554
Cl7 Cr0 2.366238 1_555
Cl7 Na3 2.730374 1_555
Cl7 Na1 2.776799 1_565
Cl7 Na5 2.854843 1_554
Cl8 Cr0 2.366221 1_555
Cl8 Na2 2.730388 1_555
Cl8 Na1 2.776812 1_455
Cl8 Na4 2.854845 1_555
Cl9 Cr0 2.366161 1_555
Cl9 Na2 2.730257 1_565
Cl9 Na1 2.776919 1_565
Cl9 Na4 2.854755 1_555
Cl10 Cr0 2.366228 1_555
Cl10 Na2 2.729890 1_455
Cl10 Na1 2.777081 1_465
Cl10 Na4 2.854856 1_555
Cl11 Cr1 2.366241 1_555
Cl11 Na5 2.729912 1_545
Cl11 Na0 2.777084 1_655
Cl11 Na3 2.854813 1_556
