# generated using pymatgen
data_LiH4SeNO4
_symmetry_space_group_name_H-M   'P 1'
_cell_length_a   5.17815700
_cell_length_b   5.43094400
_cell_length_c   17.51864700
_cell_angle_alpha   90.00000000
_cell_angle_beta   90.00000000
_cell_angle_gamma   90.00000000
_symmetry_Int_Tables_number   1
_chemical_formula_structural   LiH4SeNO4
_chemical_formula_sum   'Li4 H16 Se4 N4 O16'
_cell_volume   492.66430825
_cell_formula_units_Z   4
loop_
 _symmetry_equiv_pos_site_id
 _symmetry_equiv_pos_as_xyz
  1  'x, y, z'
loop_
 _atom_site_type_symbol
 _atom_site_label
 _atom_site_symmetry_multiplicity
 _atom_site_fract_x
 _atom_site_fract_y
 _atom_site_fract_z
 _atom_site_occupancy
  Li  Li0  1  0.85459600  0.18681200  0.50098100  1
  Li  Li1  1  0.35459600  0.68681200  0.99901900  1
  Li  Li2  1  0.85459600  0.31318800  0.00098100  1
  Li  Li3  1  0.35459600  0.81318800  0.49901900  1
  H  H0  1  0.81833000  0.72085200  0.77667500  1
  H  H1  1  0.31833000  0.27914800  0.22332500  1
  H  H2  1  0.81833000  0.77914800  0.27667500  1
  H  H3  1  0.31833000  0.22085200  0.72332500  1
  H  H4  1  0.81198500  0.51218900  0.85033700  1
  H  H5  1  0.31198500  0.48781100  0.14966300  1
  H  H6  1  0.81198500  0.98781100  0.35033700  1
  H  H7  1  0.31198500  0.01218900  0.64966300  1
  H  H8  1  0.99965300  0.76871000  0.85750300  1
  H  H9  1  0.17444500  0.28868300  0.63912000  1
  H  H10  1  0.99965300  0.73129000  0.35750300  1
  H  H11  1  0.49965300  0.23129000  0.14249700  1
  H  H12  1  0.67444500  0.78868300  0.86088000  1
  H  H13  1  0.17444500  0.21131700  0.13912000  1
  H  H14  1  0.67444500  0.71131700  0.36088000  1
  H  H15  1  0.49965300  0.26871000  0.64249700  1
  Se  Se0  1  0.86175600  0.69569300  0.60163300  1
  Se  Se1  1  0.36175600  0.30430700  0.39836700  1
  Se  Se2  1  0.86175600  0.80430700  0.10163300  1
  Se  Se3  1  0.36175600  0.19569300  0.89836700  1
  N  N0  1  0.32779300  0.19740700  0.66390000  1
  N  N1  1  0.82779300  0.69740700  0.83610000  1
  N  N2  1  0.82779300  0.80259300  0.33610000  1
  N  N3  1  0.32779300  0.30259300  0.16390000  1
  O  O0  1  0.25088700  0.19598500  0.31623600  1
  O  O1  1  0.30295000  0.89103900  0.90566900  1
  O  O2  1  0.80295000  0.10896100  0.09433100  1
  O  O3  1  0.30295000  0.60896100  0.40566900  1
  O  O4  1  0.75088700  0.80401500  0.68376400  1
  O  O5  1  0.80295000  0.39103900  0.59433100  1
  O  O6  1  0.75088700  0.69598500  0.18376400  1
  O  O7  1  0.25088700  0.30401500  0.81623600  1
  O  O8  1  0.68294200  0.23351100  0.90406100  1
  O  O9  1  0.22466300  0.15264100  0.47185700  1
  O  O10  1  0.72466300  0.84735900  0.52814300  1
  O  O11  1  0.22466300  0.34735900  0.97185700  1
  O  O12  1  0.18294200  0.73351100  0.59593900  1
  O  O13  1  0.68294200  0.26648900  0.40406100  1
  O  O14  1  0.18294200  0.76648900  0.09593900  1
  O  O15  1  0.72466300  0.65264100  0.02814300  1
loop_
_geom_bond_atom_site_label_1
_geom_bond_atom_site_label_2
_geom_bond_distance
_geom_bond_site_symmetry_2
Li0 O13 1.964738 1_555
Li0 O9 1.991690 1_655
Li0 O5 1.994027 1_555
Li0 O10 2.019352 1_545
Li1 O14 1.964738 1_556
Li1 O15 1.991690 1_556
Li1 O1 1.994027 1_555
Li1 O11 2.019352 1_555
Li2 O8 1.964738 1_554
Li2 O11 1.991690 1_654
Li2 O2 1.994027 1_555
Li2 O15 2.019352 1_555
Li3 O12 1.964738 1_555
Li3 O10 1.991690 1_555
Li3 O3 1.994027 1_555
Li3 O9 2.019352 1_565
H0 N1 1.049947 1_555
H0 O4 1.724900 1_555
H1 N3 1.049947 1_555
H1 O0 1.724900 1_555
H2 N2 1.049947 1_555
H2 O6 1.724900 1_555
H3 N0 1.049947 1_555
H3 O7 1.724900 1_555
H4 N1 1.039596 1_555
H5 N3 1.039596 1_555
H6 N2 1.039596 1_555
H7 N0 1.039596 1_555
H8 N1 1.040432 1_555
H9 N0 1.031852 1_555
H10 N2 1.040432 1_555
H11 N3 1.040432 1_555
H12 N1 1.031852 1_555
H13 N3 1.031852 1_555
H14 N2 1.031852 1_555
H15 N0 1.040432 1_555
O0 Se1 1.657072 1_555
O1 Se3 1.687203 1_565
O2 Se2 1.687203 1_545
O3 Se1 1.687203 1_555
O4 Se0 1.657072 1_555
O5 Se0 1.687203 1_555
O6 Se2 1.657072 1_555
O7 Se3 1.657072 1_555
O8 Se3 1.678752 1_555
O9 Se1 1.685207 1_555
O10 Se0 1.685207 1_555
O11 Se3 1.685207 1_555
O12 Se0 1.678752 1_455
O13 Se1 1.678752 1_555
O14 Se2 1.678752 1_455
O15 Se2 1.685207 1_555
