# generated using pymatgen
data_ZrVP
_symmetry_space_group_name_H-M   'P 1'
_cell_length_a   3.51661332
_cell_length_b   6.60901620
_cell_length_c   7.89665552
_cell_angle_alpha   90.00000000
_cell_angle_beta   90.00000000
_cell_angle_gamma   90.00000000
_symmetry_Int_Tables_number   1
_chemical_formula_structural   ZrVP
_chemical_formula_sum   'Zr4 V4 P4'
_cell_volume   183.52896952
_cell_formula_units_Z   4
loop_
 _symmetry_equiv_pos_site_id
 _symmetry_equiv_pos_as_xyz
  1  'x, y, z'
loop_
 _atom_site_type_symbol
 _atom_site_label
 _atom_site_symmetry_multiplicity
 _atom_site_fract_x
 _atom_site_fract_y
 _atom_site_fract_z
 _atom_site_occupancy
  Zr  Zr0  1  0.25000000  0.54052996  0.33063722  1
  Zr  Zr1  1  0.75000000  0.45947004  0.66936278  1
  Zr  Zr2  1  0.25000000  0.04052996  0.16936278  1
  Zr  Zr3  1  0.75000000  0.95947004  0.83063722  1
  V  V0  1  0.75000000  0.87182316  0.44289897  1
  V  V1  1  0.25000000  0.12817684  0.55710203  1
  V  V2  1  0.75000000  0.37182316  0.05710103  1
  V  V3  1  0.25000000  0.62817684  0.94289797  1
  P  P0  1  0.25000000  0.26096772  0.86344040  1
  P  P1  1  0.75000000  0.73903228  0.13655960  1
  P  P2  1  0.25000000  0.76096772  0.63655960  1
  P  P3  1  0.75000000  0.23903228  0.36344040  1
loop_
_geom_bond_atom_site_label_1
_geom_bond_atom_site_label_2
_geom_bond_distance
_geom_bond_site_symmetry_2
P0 V2 2.442761 1_556
P0 V2 2.442761 1_456
P0 V3 2.506690 1_555
P0 V1 2.573326 1_555
P0 Zr3 2.670058 1_445
P0 Zr3 2.670058 1_545
P0 Zr1 2.676096 1_555
P0 Zr1 2.676096 1_455
P0 Zr2 2.821064 1_556
P1 V3 2.442766 1_654
P1 V3 2.442766 1_554
P1 V2 2.506691 1_555
P1 V0 2.573334 1_555
P1 Zr2 2.670058 1_565
P1 Zr2 2.670058 1_665
P1 Zr0 2.676096 1_655
P1 Zr0 2.676096 1_555
P1 Zr3 2.821064 1_554
P2 V0 2.442761 1_455
P2 V0 2.442761 1_555
P2 V1 2.506690 1_565
P2 V3 2.573326 1_555
P2 Zr1 2.670058 1_555
P2 Zr1 2.670058 1_455
P2 Zr3 2.676096 1_555
P2 Zr3 2.676096 1_455
P2 Zr0 2.821064 1_555
P3 V1 2.442766 1_655
P3 V1 2.442766 1_555
P3 V0 2.506691 1_545
P3 V2 2.573334 1_555
P3 Zr0 2.670058 1_655
P3 Zr0 2.670058 1_555
P3 Zr2 2.676096 1_555
P3 Zr2 2.676096 1_655
P3 Zr1 2.821064 1_555
