# generated using pymatgen
data_Cs4MgTi2(AgS2)4
_symmetry_space_group_name_H-M   'P 1'
_cell_length_a   6.07972700
_cell_length_b   6.07972700
_cell_length_c   14.30267800
_cell_angle_alpha   90.00000000
_cell_angle_beta   90.00000000
_cell_angle_gamma   90.00000000
_symmetry_Int_Tables_number   1
_chemical_formula_structural   Cs4MgTi2(AgS2)4
_chemical_formula_sum   'Cs4 Mg1 Ti2 Ag4 S8'
_cell_volume   528.67103677
_cell_formula_units_Z   1
loop_
 _symmetry_equiv_pos_site_id
 _symmetry_equiv_pos_as_xyz
  1  'x, y, z'
loop_
 _atom_site_type_symbol
 _atom_site_label
 _atom_site_symmetry_multiplicity
 _atom_site_fract_x
 _atom_site_fract_y
 _atom_site_fract_z
 _atom_site_occupancy
  Cs  Cs0  1  0.76045900  0.76045900  0.00707100  1
  Cs  Cs1  1  0.23954100  0.76045900  0.49292900  1
  Cs  Cs2  1  0.76045900  0.23954100  0.49292900  1
  Cs  Cs3  1  0.23954100  0.23954100  0.00707100  1
  Mg  Mg0  1  0.00000000  0.00000000  0.75000000  1
  Ti  Ti0  1  0.50000000  0.50000000  0.75000000  1
  Ti  Ti1  1  0.50000000  0.50000000  0.25000000  1
  Ag  Ag0  1  0.00000000  0.50000000  0.75000000  1
  Ag  Ag1  1  0.50000000  0.00000000  0.75000000  1
  Ag  Ag2  1  0.00000000  0.50000000  0.25000000  1
  Ag  Ag3  1  0.50000000  0.00000000  0.25000000  1
  S  S0  1  0.74542900  0.74542900  0.65057900  1
  S  S1  1  0.25457100  0.25457100  0.65057900  1
  S  S2  1  0.71407300  0.71407300  0.34770100  1
  S  S3  1  0.71407300  0.28592700  0.15229900  1
  S  S4  1  0.25457100  0.74542900  0.84942100  1
  S  S5  1  0.28592700  0.28592700  0.34770100  1
  S  S6  1  0.28592700  0.71407300  0.15229900  1
  S  S7  1  0.74542900  0.25457100  0.84942100  1
loop_
_geom_bond_atom_site_label_1
_geom_bond_atom_site_label_2
_geom_bond_distance
_geom_bond_site_symmetry_2
Cs0 S6 3.566153 1_555
Cs0 S3 3.566153 1_555
Cs0 S7 3.757255 1_564
Cs0 S4 3.757255 1_654
Cs0 S4 3.814740 1_554
Cs0 S7 3.814740 1_554
Cs0 S6 3.821021 1_655
Cs0 S3 3.821021 1_565
Cs1 S2 3.566153 1_555
Cs1 S5 3.566153 1_555
Cs1 S1 3.757255 1_565
Cs1 S0 3.757255 1_455
Cs1 S1 3.814740 1_555
Cs1 S0 3.814740 1_555
Cs1 S2 3.821021 1_455
Cs1 S5 3.821021 1_565
Cs2 S2 3.566153 1_555
Cs2 S5 3.566153 1_555
Cs2 S1 3.757255 1_655
Cs2 S0 3.757255 1_545
Cs2 S1 3.814740 1_555
Cs2 S0 3.814740 1_555
Cs2 S5 3.821021 1_655
Cs2 S2 3.821021 1_545
Cs3 S3 3.566153 1_555
Cs3 S6 3.566153 1_555
Cs3 S4 3.757255 1_544
Cs3 S7 3.757255 1_454
Cs3 S4 3.814740 1_554
Cs3 S7 3.814740 1_554
Cs3 S6 3.821021 1_545
Cs3 S3 3.821021 1_455
Mg0 S1 2.610160 1_555
Mg0 S7 2.610160 1_455
Mg0 S4 2.610160 1_545
Mg0 S0 2.610160 1_445
Ag0 S4 2.577591 1_555
Ag0 S1 2.577591 1_555
Ag0 S7 2.577591 1_455
Ag0 S0 2.577591 1_455
Ag1 S0 2.577591 1_545
Ag1 S7 2.577591 1_555
Ag1 S1 2.577591 1_555
Ag1 S4 2.577591 1_545
Ag2 S5 2.582342 1_555
Ag2 S6 2.582342 1_555
Ag2 S3 2.582342 1_455
Ag2 S2 2.582342 1_455
Ag3 S6 2.582342 1_545
Ag3 S5 2.582342 1_555
Ag3 S2 2.582342 1_545
Ag3 S3 2.582342 1_555
S0 Ti0 2.544606 1_555
S1 Ti0 2.544606 1_555
S2 Ti1 2.310957 1_555
S3 Ti1 2.310957 1_555
S4 Ti0 2.544606 1_555
S5 Ti1 2.310957 1_555
S6 Ti1 2.310957 1_555
S7 Ti0 2.544606 1_555
