# generated using pymatgen
data_Yb4MgTi2O10
_symmetry_space_group_name_H-M   'P 1'
_cell_length_a   4.16483200
_cell_length_b   5.69433768
_cell_length_c   10.58257807
_cell_angle_alpha   89.98700511
_cell_angle_beta   90.00000000
_cell_angle_gamma   68.54936734
_symmetry_Int_Tables_number   1
_chemical_formula_structural   Yb4MgTi2O10
_chemical_formula_sum   'Yb4 Mg1 Ti2 O10'
_cell_volume   233.59163701
_cell_formula_units_Z   1
loop_
 _symmetry_equiv_pos_site_id
 _symmetry_equiv_pos_as_xyz
  1  'x, y, z'
loop_
 _atom_site_type_symbol
 _atom_site_label
 _atom_site_symmetry_multiplicity
 _atom_site_fract_x
 _atom_site_fract_y
 _atom_site_fract_z
 _atom_site_occupancy
  Yb  Yb0  1  0.14080300  0.71839500  0.92881500  1
  Yb  Yb1  1  0.14081000  0.71838200  0.57097800  1
  Yb  Yb2  1  0.84579200  0.30841500  0.06654800  1
  Yb  Yb3  1  0.84570400  0.30859000  0.43356400  1
  Mg  Mg0  1  0.49275700  0.01448600  0.25013400  1
  Ti  Ti0  1  0.18778200  0.62443500  0.24996400  1
  Ti  Ti1  1  0.78663900  0.42672400  0.74996900  1
  O  O0  1  0.05068500  0.89863100  0.37321400  1
  O  O1  1  0.05096700  0.89806600  0.12655200  1
  O  O2  1  0.70720000  0.58559900  0.90846700  1
  O  O3  1  0.70706300  0.58587400  0.59152400  1
  O  O4  1  0.26156100  0.47687800  0.74995000  1
  O  O5  1  0.69412800  0.61174500  0.25000100  1
  O  O6  1  0.32773700  0.34452700  0.12578400  1
  O  O7  1  0.32734300  0.34531300  0.37461000  1
  O  O8  1  0.95870600  0.08258800  0.67928100  1
  O  O9  1  0.95869900  0.08260200  0.82064300  1
loop_
_geom_bond_atom_site_label_1
_geom_bond_atom_site_label_2
_geom_bond_distance
_geom_bond_site_symmetry_2
Mg0 O5 2.134491 1_545
Mg0 O6 2.188662 1_555
Mg0 O7 2.193306 1_555
Mg0 O0 2.531718 1_545
Mg0 O0 2.531721 1_645
Mg0 O1 2.535338 1_645
Mg0 O1 2.535338 1_545
O0 Ti0 1.952936 1_555
O0 Yb3 2.264814 1_465
O0 Yb1 2.300362 1_555
O1 Ti0 1.951382 1_555
O1 Yb2 2.265470 1_465
O1 Yb0 2.299254 1_554
O2 Ti1 1.876988 1_555
O2 Yb0 2.208671 1_555
O2 Yb0 2.208678 1_655
O2 Yb2 2.226099 1_556
O3 Ti1 1.876774 1_555
O3 Yb1 2.208356 1_555
O3 Yb1 2.208364 1_655
O3 Yb3 2.226025 1_555
O4 Ti1 2.099308 1_455
O4 Ti1 2.099316 1_555
O4 Yb0 2.285283 1_555
O4 Yb1 2.285666 1_555
O5 Ti0 2.083498 1_655
O5 Ti0 2.083506 1_555
O5 Yb3 2.520619 1_555
O5 Yb2 2.520917 1_555
O6 Ti0 1.982084 1_555
O6 Yb2 2.183138 1_555
O6 Yb2 2.183146 1_455
O6 Yb0 2.875602 1_554
O7 Ti0 1.981767 1_555
O7 Yb3 2.182545 1_555
O7 Yb3 2.182549 1_455
O7 Yb1 2.868774 1_555
O8 O9 1.495974 1_555
O8 Ti1 1.971505 1_555
O8 Yb1 2.245123 1_645
O8 Yb3 2.862664 1_555
O9 Ti1 1.971043 1_555
O9 Yb0 2.243940 1_645
O9 Yb2 2.864582 1_556
