# generated using pymatgen
data_Sr4MgV2Fe2(AsO3)2
_symmetry_space_group_name_H-M   'P 1'
_cell_length_a   4.07051896
_cell_length_b   3.97141455
_cell_length_c   19.65904930
_cell_angle_alpha   90.00000000
_cell_angle_beta   90.00000000
_cell_angle_gamma   90.00000000
_symmetry_Int_Tables_number   1
_chemical_formula_structural   Sr4MgV2Fe2(AsO3)2
_chemical_formula_sum   'Sr4 Mg1 V2 Fe2 As2 O6'
_cell_volume   317.80265153
_cell_formula_units_Z   1
loop_
 _symmetry_equiv_pos_site_id
 _symmetry_equiv_pos_as_xyz
  1  'x, y, z'
loop_
 _atom_site_type_symbol
 _atom_site_label
 _atom_site_symmetry_multiplicity
 _atom_site_fract_x
 _atom_site_fract_y
 _atom_site_fract_z
 _atom_site_occupancy
  Sr  Sr0  1  0.25000000  0.25000000  0.72682218  1
  Sr  Sr1  1  0.75000000  0.75000000  0.21078504  1
  Sr  Sr2  1  0.25000000  0.25000000  0.52725243  1
  Sr  Sr3  1  0.75000000  0.75000000  0.39105495  1
  Mg  Mg0  1  0.25000000  0.75000000  0.88490366  1
  V  V0  1  0.75000000  0.75000000  0.61960567  1
  V  V1  1  0.25000000  0.25000000  0.30562230  1
  Fe  Fe0  1  0.25000000  0.75000000  0.04969225  1
  Fe  Fe1  1  0.75000000  0.25000000  0.04871144  1
  As  As0  1  0.75000000  0.75000000  0.96506295  1
  As  As1  1  0.25000000  0.25000000  0.13300249  1
  O  O0  1  0.25000000  0.75000000  0.78939320  1
  O  O1  1  0.75000000  0.25000000  0.64517490  1
  O  O2  1  0.75000000  0.25000000  0.29697409  1
  O  O3  1  0.25000000  0.75000000  0.29514215  1
  O  O4  1  0.75000000  0.75000000  0.52288875  1
  O  O5  1  0.25000000  0.25000000  0.40934053  1
loop_
_geom_bond_atom_site_label_1
_geom_bond_atom_site_label_2
_geom_bond_distance
_geom_bond_site_symmetry_2
Mg0 O0 1.877645 1_555
As0 Mg0 2.574024 1_555
As0 Mg0 2.574024 1_655
As0 Fe1 2.578226 1_556
As0 Fe1 2.578226 1_566
As0 Fe0 2.628742 1_556
As0 Fe0 2.628742 1_656
As1 Fe0 2.573990 1_555
As1 Fe0 2.573990 1_545
As1 Fe1 2.624538 1_455
As1 Fe1 2.624538 1_555
As1 Sr1 3.228553 1_445
As1 Sr1 3.228553 1_545
As1 Sr1 3.228553 1_555
As1 Sr1 3.228553 1_455
O0 Sr0 2.335840 1_565
O0 Sr0 2.335840 1_555
O1 V0 2.048343 1_555
O1 V0 2.048343 1_545
O1 Sr0 2.592036 1_555
O1 Sr0 2.592036 1_655
O1 Sr2 3.084888 1_555
O1 Sr2 3.084888 1_655
O2 V1 2.042348 1_555
O2 V1 2.042348 1_655
O2 Sr1 2.610365 1_545
O2 Sr1 2.610365 1_555
O2 Sr3 2.713638 1_555
O2 Sr3 2.713638 1_545
O3 V1 1.996367 1_555
O3 V1 1.996367 1_565
O3 Sr1 2.625359 1_455
O3 Sr1 2.625359 1_555
O3 Sr3 2.774454 1_455
O3 Sr3 2.774454 1_555
O4 V0 1.901363 1_555
O4 Sr3 2.591727 1_555
O4 Sr2 2.844763 1_565
O4 Sr2 2.844763 1_555
O4 Sr2 2.844763 1_655
O4 Sr2 2.844763 1_665
O5 V1 2.039002 1_555
O5 Sr2 2.318036 1_555
O5 Sr3 2.866102 1_455
O5 Sr3 2.866102 1_555
O5 Sr3 2.866102 1_545
O5 Sr3 2.866102 1_445
