# generated using pymatgen
data_Ba2Nd2MgCo4O11
_symmetry_space_group_name_H-M   'P 1'
_cell_length_a   3.83235100
_cell_length_b   8.18911500
_cell_length_c   8.41788100
_cell_angle_alpha   90.00000000
_cell_angle_beta   90.00000000
_cell_angle_gamma   90.00000000
_symmetry_Int_Tables_number   1
_chemical_formula_structural   Ba2Nd2MgCo4O11
_chemical_formula_sum   'Ba2 Nd2 Mg1 Co4 O11'
_cell_volume   264.18309919
_cell_formula_units_Z   1
loop_
 _symmetry_equiv_pos_site_id
 _symmetry_equiv_pos_as_xyz
  1  'x, y, z'
loop_
 _atom_site_type_symbol
 _atom_site_label
 _atom_site_symmetry_multiplicity
 _atom_site_fract_x
 _atom_site_fract_y
 _atom_site_fract_z
 _atom_site_occupancy
  Ba  Ba0  1  0.50000000  0.00000000  0.72734700  1
  Ba  Ba1  1  0.50000000  0.00000000  0.27265300  1
  Nd  Nd0  1  0.50000000  0.50000000  0.29044500  1
  Nd  Nd1  1  0.50000000  0.50000000  0.70955500  1
  Mg  Mg0  1  0.00000000  0.50000000  0.00000000  1
  Co  Co0  1  0.00000000  0.22134700  0.00000000  1
  Co  Co1  1  0.00000000  0.77865300  0.00000000  1
  Co  Co2  1  0.00000000  0.74470300  0.49999900  1
  Co  Co3  1  0.00000000  0.25529800  0.49999900  1
  O  O0  1  0.00000000  0.31205600  0.77957100  1
  O  O1  1  0.00000000  0.68794500  0.22043000  1
  O  O2  1  0.00000000  0.31205600  0.22043000  1
  O  O3  1  0.00000000  0.68794500  0.77957100  1
  O  O4  1  0.50000000  0.26514100  0.49999900  1
  O  O5  1  0.50000000  0.73486000  0.49999900  1
  O  O6  1  0.50000000  0.34132100  0.00000000  1
  O  O7  1  0.50000000  0.65867800  0.00000000  1
  O  O8  1  0.00000000  0.00000000  0.00000000  1
  O  O9  1  0.00000000  0.50000000  0.49999900  1
  O  O10  1  0.00000000  0.00000000  0.49999900  1
loop_
_geom_bond_atom_site_label_1
_geom_bond_atom_site_label_2
_geom_bond_distance
_geom_bond_site_symmetry_2
Ba0 O10 2.708194 1_555
Ba0 O10 2.708194 1_655
Ba0 O5 2.894299 1_545
Ba0 O4 2.894305 1_555
Ba0 O8 2.989898 1_556
Ba0 O8 2.989898 1_656
Ba0 O3 3.224180 1_645
Ba0 O3 3.224180 1_545
Ba0 O0 3.224187 1_655
Ba0 O0 3.224187 1_555
Ba1 O10 2.708182 1_655
Ba1 O10 2.708182 1_555
Ba1 O5 2.894287 1_545
Ba1 O4 2.894294 1_555
Ba1 O8 2.989898 1_555
Ba1 O8 2.989898 1_655
Ba1 O1 3.224179 1_545
Ba1 O1 3.224179 1_645
Ba1 O2 3.224185 1_655
Ba1 O2 3.224185 1_555
Nd0 O2 2.527431 1_555
Nd0 O2 2.527431 1_655
Nd0 O1 2.527436 1_655
Nd0 O1 2.527436 1_555
Nd0 O9 2.604501 1_655
Nd0 O9 2.604501 1_555
Nd0 O4 2.609738 1_555
Nd0 O5 2.609744 1_555
Nd0 O7 2.768793 1_555
Nd0 O6 2.768797 1_555
Nd1 O0 2.527433 1_555
Nd1 O0 2.527433 1_655
Nd1 O3 2.527438 1_555
Nd1 O3 2.527438 1_655
Nd1 O9 2.604513 1_555
Nd1 O9 2.604513 1_655
Nd1 O4 2.609749 1_555
Nd1 O5 2.609755 1_555
Nd1 O7 2.768793 1_556
Nd1 O6 2.768797 1_556
Mg0 O7 2.315222 1_455
Mg0 O7 2.315222 1_555
Mg0 O6 2.315227 1_555
Mg0 O6 2.315227 1_455
Mg0 O0 2.410780 1_554
Mg0 O3 2.410785 1_554
Mg0 O2 2.410787 1_555
Mg0 O1 2.410792 1_555
Co0 O8 1.812636 1_555
Co0 O0 1.998709 1_554
Co0 O2 1.998717 1_555
Co0 O6 2.153369 1_555
Co0 O6 2.153369 1_455
Co0 Mg0 2.281921 1_555
Co1 O8 1.812636 1_565
Co1 O3 1.998706 1_554
Co1 O1 1.998714 1_555
Co1 O7 2.153373 1_455
Co1 O7 2.153373 1_555
Co1 Mg0 2.281921 1_555
Co2 O5 1.917870 1_455
Co2 O5 1.917870 1_555
Co2 O9 2.003901 1_555
Co2 O10 2.090656 1_565
Co2 O1 2.398839 1_555
Co2 O3 2.398864 1_555
Co3 O4 1.917870 1_455
Co3 O4 1.917870 1_555
Co3 O9 2.003893 1_555
Co3 O10 2.090665 1_555
Co3 O2 2.398839 1_555
Co3 O0 2.398864 1_555
