# generated using pymatgen
data_Na14Zr3Zn5Si6(SO8)6
_symmetry_space_group_name_H-M   'P 1'
_cell_length_a   18.51854908
_cell_length_b   9.19805660
_cell_length_c   22.54902828
_cell_angle_alpha   89.92611069
_cell_angle_beta   90.49724147
_cell_angle_gamma   119.98582122
_symmetry_Int_Tables_number   1
_chemical_formula_structural   Na14Zr3Zn5Si6(SO8)6
_chemical_formula_sum   'Na42 Zr9 Zn15 Si18 S18 O144'
_cell_volume   3326.62989371
_cell_formula_units_Z   3
loop_
 _symmetry_equiv_pos_site_id
 _symmetry_equiv_pos_as_xyz
  1  'x, y, z'
loop_
 _atom_site_type_symbol
 _atom_site_label
 _atom_site_symmetry_multiplicity
 _atom_site_fract_x
 _atom_site_fract_y
 _atom_site_fract_z
 _atom_site_occupancy
  Na  Na0  1  0.19603898  0.36190487  0.24700986  1
  Na  Na1  1  0.68885916  0.35747096  0.24809567  1
  Na  Na2  1  0.99559835  0.64187195  0.25056622  1
  Na  Na3  1  0.49320076  0.63260270  0.24214221  1
  Na  Na4  1  0.31721056  0.62922813  0.74601211  1
  Na  Na5  1  0.81578783  0.62302341  0.73717194  1
  Na  Na6  1  0.19075980  0.02430420  0.74823322  1
  Na  Na7  1  0.69499540  0.02932993  0.74683459  1
  Na  Na8  1  0.15292292  0.32898543  0.57698287  1
  Na  Na9  1  0.66338775  0.34650996  0.57772716  1
  Na  Na10  1  0.01239486  0.69523572  0.57712009  1
  Na  Na11  1  0.52358822  0.70062890  0.57857536  1
  Na  Na12  1  0.32229004  0.96792224  0.58849242  1
  Na  Na13  1  0.82083702  0.95321745  0.58727786  1
  Na  Na14  1  0.15571604  0.97621894  0.07864182  1
  Na  Na15  1  0.64788804  0.96149146  0.07524158  1
  Na  Na16  1  0.82092963  0.67743780  0.08753567  1
  Na  Na17  1  0.02082670  0.34382479  0.07833746  1
  Na  Na18  1  0.52421708  0.35366972  0.08625878  1
  Na  Na19  1  0.49337179  0.68636108  0.92176647  1
  Na  Na20  1  0.98715063  0.67795115  0.91824138  1
  Na  Na21  1  0.84772361  0.03498467  0.90811072  1
  Na  Na22  1  0.15956799  0.27715868  0.90880520  1
  Na  Na23  1  0.66519904  0.27911773  0.91604718  1
  Na  Na24  1  0.49079568  0.30245873  0.41841821  1
  Na  Na25  1  0.98626866  0.29594854  0.42118774  1
  Na  Na26  1  0.16489174  0.05197651  0.41580308  1
  Na  Na27  1  0.66711098  0.05274595  0.41622882  1
  Na  Na28  1  0.35082416  0.66029583  0.40723944  1
  Na  Na29  1  0.84900178  0.65506580  0.41718272  1
  Na  Na30  1  0.00384737  0.99805487  0.49772486  1
  Na  Na31  1  0.51296062  0.01487842  0.49391632  1
  Na  Na32  1  0.00811868  0.00653160  0.99378868  1
  Na  Na33  1  0.50182102  0.99485790  0.99718691  1
  Na  Na34  1  0.33143885  0.30403246  0.82669137  1
  Na  Na35  1  0.82851438  0.31298221  0.82592317  1
  Na  Na36  1  0.32533677  0.32663593  0.32518790  1
  Na  Na37  1  0.82158178  0.32458705  0.32964240  1
  Na  Na38  1  0.18660527  0.67994227  0.16193951  1
  Na  Na39  1  0.66694421  0.67116881  0.16082065  1
  Na  Na40  1  0.16375396  0.66554203  0.66341075  1
  Na  Na41  1  0.67334503  0.66853463  0.65990641  1
  Zr  Zr0  1  0.99984870  0.00610022  0.64980576  1
  Zr  Zr1  1  0.50447321  0.01672674  0.65256714  1
  Zr  Zr2  1  0.00358645  0.99686685  0.15214226  1
  Zr  Zr3  1  0.49973764  0.98190372  0.14766668  1
  Zr  Zr4  1  0.32580396  0.32643882  0.98504583  1
  Zr  Zr5  1  0.17619232  0.67410569  0.31221535  1
  Zr  Zr6  1  0.67527243  0.67172894  0.31161021  1
  Zr  Zr7  1  0.17126681  0.67782558  0.81249317  1
  Zr  Zr8  1  0.67170719  0.67682029  0.81226160  1
  Zn  Zn0  1  0.00965372  0.00272071  0.34330459  1
  Zn  Zn1  1  0.50958572  0.00381534  0.34156311  1
  Zn  Zn2  1  0.00793222  0.02000149  0.84014061  1
  Zn  Zn3  1  0.50768432  0.02245795  0.84509138  1
  Zn  Zn4  1  0.32040714  0.29390075  0.68667223  1
  Zn  Zn5  1  0.81680987  0.31131533  0.68077647  1
  Zn  Zn6  1  0.32763240  0.35687150  0.18227827  1
  Zn  Zn7  1  0.81555986  0.33150887  0.18684384  1
  Zn  Zn8  1  0.81101401  0.29519635  0.98620777  1
  Zn  Zn9  1  0.31419346  0.32631949  0.48500598  1
  Zn  Zn10  1  0.80793579  0.34215508  0.49262501  1
  Zn  Zn11  1  0.17214554  0.67174123  0.01397014  1
  Zn  Zn12  1  0.65448340  0.66264700  0.01962056  1
  Zn  Zn13  1  0.16361017  0.66401730  0.51338092  1
  Zn  Zn14  1  0.67508192  0.66251811  0.51833323  1
  Si  Si0  1  0.15497416  0.00576346  0.25235719  1
  Si  Si1  1  0.65137124  0.00101826  0.25258270  1
  Si  Si2  1  0.35687872  0.71105098  0.25535819  1
  Si  Si3  1  0.85630977  0.70685161  0.25269451  1
  Si  Si4  1  0.15211954  0.30185126  0.75114943  1
  Si  Si5  1  0.65235529  0.30228243  0.75493136  1
  Si  Si6  1  0.35723646  0.00526502  0.75246464  1
  Si  Si7  1  0.85707510  0.01263011  0.75407825  1
  Si  Si8  1  0.18285996  0.02336432  0.58097048  1
  Si  Si9  1  0.68039453  0.02275101  0.58159053  1
  Si  Si10  1  0.83616402  0.63039265  0.58455915  1
  Si  Si11  1  0.47854605  0.62057348  0.08542392  1
  Si  Si12  1  0.18119046  0.34359530  0.08455346  1
  Si  Si13  1  0.68260064  0.34020506  0.08154106  1
  Si  Si14  1  0.16314829  0.95861395  0.92033210  1
  Si  Si15  1  0.66481005  0.96280757  0.91910960  1
  Si  Si16  1  0.16403853  0.36897353  0.42019371  1
  Si  Si17  1  0.66235667  0.36504331  0.41862625  1
  S  S0  1  0.99878430  0.29605634  0.25143200  1
  S  S1  1  0.49818372  0.29323634  0.25203742  1
  S  S2  1  0.99957412  0.70291857  0.75197365  1
  S  S3  1  0.49880046  0.70220774  0.75088986  1
  S  S4  1  0.47550153  0.33186546  0.58272261  1
  S  S5  1  0.97940344  0.33531728  0.58280908  1
  S  S6  1  0.33598969  0.62983136  0.58376377  1
  S  S7  1  0.97889018  0.62453445  0.08340322  1
  S  S8  1  0.33253012  0.04026638  0.08587001  1
  S  S9  1  0.83768758  0.04734049  0.08353345  1
  S  S10  1  0.31515885  0.66740201  0.91750412  1
  S  S11  1  0.81586794  0.66761595  0.91905440  1
  S  S12  1  0.01889134  0.37493347  0.91924289  1
  S  S13  1  0.51811610  0.37146695  0.91770978  1
  S  S14  1  0.31620132  0.96577630  0.41983477  1
  S  S15  1  0.81676033  0.96625110  0.41823389  1
  S  S16  1  0.01895182  0.66341883  0.41658158  1
  S  S17  1  0.51830131  0.66146515  0.41931943  1
  O  O0  1  0.11429064  0.04124678  0.31029408  1
  O  O1  1  0.61456407  0.04037472  0.31155123  1
  O  O2  1  0.40792380  0.79916029  0.31590197  1
  O  O3  1  0.91137381  0.80000426  0.31118106  1
  O  O4  1  0.49060937  0.19799272  0.30666299  1
  O  O5  1  0.98780157  0.19794784  0.30534391  1
  O  O6  1  0.11559690  0.18506202  0.80992422  1
  O  O7  1  0.61313219  0.18346311  0.81190106  1
  O  O8  1  0.48689212  0.77612923  0.80512075  1
  O  O9  1  0.98971811  0.78184779  0.80631095  1
  O  O10  1  0.40955481  0.00320599  0.80858501  1
  O  O11  1  0.90569954  0.01479163  0.81476639  1
  O  O12  1  0.39445533  0.96627412  0.69031859  1
  O  O13  1  0.89890439  0.97078467  0.69610511  1
  O  O14  1  0.09402697  0.20862128  0.69199494  1
  O  O15  1  0.59310644  0.20972936  0.69432098  1
  O  O16  1  0.01468105  0.81494483  0.69901717  1
  O  O17  1  0.51331171  0.81606163  0.69789452  1
  O  O18  1  0.40184502  0.82987977  0.19739674  1
  O  O19  1  0.89883452  0.82098751  0.19170753  1
  O  O20  1  0.01316518  0.21316124  0.19808971  1
  O  O21  1  0.51236460  0.21459378  0.19862615  1
  O  O22  1  0.08953786  0.97013441  0.19358737  1
  O  O23  1  0.58969927  0.97116499  0.19364145  1
  O  O24  1  0.43400840  0.35365141  0.63457666  1
  O  O25  1  0.93825078  0.35499711  0.63415678  1
  O  O26  1  0.24239334  0.09995522  0.63956737  1
  O  O27  1  0.73711502  0.09841711  0.64101345  1
  O  O28  1  0.32779710  0.52964707  0.63722004  1
  O  O29  1  0.82438748  0.51576558  0.64247272  1
  O  O30  1  0.43594245  0.50212431  0.14236605  1
  O  O31  1  0.93941623  0.52446852  0.13672964  1
  O  O32  1  0.32019405  0.11905826  0.13734803  1
  O  O33  1  0.82989182  0.13561497  0.13482471  1
  O  O34  1  0.23073028  0.35965144  0.14486197  1
  O  O35  1  0.74272076  0.38168125  0.13978016  1
  O  O36  1  0.22629480  0.30298152  0.02701102  1
  O  O37  1  0.71744884  0.28962461  0.02303031  1
  O  O38  1  0.42373426  0.52915608  0.02357908  1
  O  O39  1  0.92983095  0.54684137  0.02846956  1
  O  O40  1  0.34301018  0.14484215  0.03063222  1
  O  O41  1  0.85368953  0.14695276  0.02745592  1
  O  O42  1  0.21993144  0.14137184  0.52210460  1
  O  O43  1  0.71581822  0.13875797  0.52211864  1
  O  O44  1  0.35007734  0.55581407  0.52934749  1
  O  O45  1  0.86083001  0.56512671  0.52395014  1
  O  O46  1  0.42755373  0.30661280  0.52700845  1
  O  O47  1  0.93287627  0.31038294  0.52634658  1
  O  O48  1  0.27343251  0.68325144  0.97008390  1
  O  O49  1  0.77506569  0.68725954  0.97194263  1
  O  O50  1  0.06924622  0.45036949  0.97391056  1
  O  O51  1  0.56705628  0.44579849  0.97291812  1
  O  O52  1  0.15174513  0.84478071  0.97906525  1
  O  O53  1  0.65385100  0.84834332  0.97728417  1
  O  O54  1  0.27610203  0.86519648  0.47352629  1
  O  O55  1  0.77737393  0.86691433  0.47225835  1
  O  O56  1  0.15232250  0.45883976  0.47920857  1
  O  O57  1  0.64776512  0.45190560  0.47711572  1
  O  O58  1  0.07009992  0.68918882  0.47100196  1
  O  O59  1  0.57012265  0.68460035  0.47286176  1
  O  O60  1  0.06480147  0.65290341  0.36331653  1
  O  O61  1  0.56078374  0.64547804  0.36507997  1
  O  O62  1  0.25969106  0.87757662  0.36682575  1
  O  O63  1  0.75981966  0.87623967  0.36552364  1
  O  O64  1  0.17517377  0.49188710  0.36208720  1
  O  O65  1  0.67401031  0.48852924  0.36062349  1
  O  O66  1  0.06465287  0.48070881  0.86691724  1
  O  O67  1  0.56225652  0.48164006  0.86606241  1
  O  O68  1  0.17318945  0.86267548  0.86115287  1
  O  O69  1  0.67496247  0.86365420  0.86035088  1
  O  O70  1  0.26206072  0.64112845  0.86290330  1
  O  O71  1  0.76122019  0.64419105  0.86486080  1
  O  O72  1  0.00742889  0.81228708  0.41336968  1
  O  O73  1  0.50655878  0.81015156  0.41579305  1
  O  O74  1  0.39817242  0.97796047  0.41364271  1
  O  O75  1  0.89873030  0.97660328  0.41170085  1
  O  O76  1  0.07915484  0.18197153  0.41438282  1
  O  O77  1  0.57781460  0.17832653  0.41255258  1
  O  O78  1  0.00731911  0.20277051  0.91461489  1
  O  O79  1  0.50835451  0.20276188  0.91229267  1
  O  O80  1  0.07920366  0.97767151  0.91494974  1
  O  O81  1  0.58002415  0.97927305  0.91443267  1
  O  O82  1  0.39984787  0.80788858  0.91254089  1
  O  O83  1  0.89911553  0.82003877  0.91324922  1
  O  O84  1  0.48268316  0.17194160  0.58826040  1
  O  O85  1  0.98888990  0.17820502  0.58789586  1
  O  O86  1  0.08964066  0.00813250  0.58946309  1
  O  O87  1  0.58462351  0.00647763  0.58920835  1
  O  O88  1  0.41207834  0.80357488  0.58784636  1
  O  O89  1  0.91847588  0.82467319  0.58990531  1
  O  O90  1  0.48861444  0.81200261  0.08529029  1
  O  O91  1  0.98494288  0.79836740  0.08692063  1
  O  O92  1  0.41137554  0.03278011  0.08800305  1
  O  O93  1  0.91408684  0.02643725  0.08876550  1
  O  O94  1  0.08605041  0.16449434  0.08605709  1
  O  O95  1  0.58673048  0.17498047  0.09052888  1
  O  O96  1  0.34176114  0.16326489  0.74887132  1
  O  O97  1  0.84136477  0.16884297  0.74699161  1
  O  O98  1  0.24761148  0.33497973  0.74437121  1
  O  O99  1  0.74572576  0.33037816  0.74839450  1
  O  O100  1  0.42508678  0.53747409  0.74020969  1
  O  O101  1  0.92749663  0.53778413  0.74406166  1
  O  O102  1  0.34762013  0.52546878  0.25123824  1
  O  O103  1  0.84999733  0.52323658  0.24798678  1
  O  O104  1  0.42735444  0.32013534  0.24646451  1
  O  O105  1  0.92893146  0.32492763  0.24160159  1
  O  O106  1  0.24547248  0.16701654  0.24246074  1
  O  O107  1  0.74373020  0.16280009  0.24535646  1
  O  O108  1  0.31894875  0.50526809  0.92001861  1
  O  O109  1  0.82548596  0.51623982  0.92022807  1
  O  O110  1  0.43489639  0.36358638  0.92022570  1
  O  O111  1  0.93657798  0.36647308  0.92145565  1
  O  O112  1  0.24779735  0.15075317  0.92145860  1
  O  O113  1  0.75345030  0.14592479  0.91709706  1
  O  O114  1  0.32530457  0.13554648  0.42067487  1
  O  O115  1  0.82630401  0.13546796  0.41923795  1
  O  O116  1  0.25189744  0.36155140  0.41845897  1
  O  O117  1  0.74955210  0.35630997  0.41757836  1
  O  O118  1  0.43511245  0.50450360  0.42210610  1
  O  O119  1  0.93797333  0.50546239  0.41779611  1
  O  O120  1  0.16511064  0.50138236  0.07432297  1
  O  O121  1  0.67551368  0.51137095  0.07424754  1
  O  O122  1  0.06531714  0.65506535  0.08085590  1
  O  O123  1  0.57387339  0.65221803  0.08321223  1
  O  O124  1  0.25834324  0.87060207  0.07791557  1
  O  O125  1  0.76337272  0.87719670  0.07906399  1
  O  O126  1  0.17078957  0.83192282  0.57455364  1
  O  O127  1  0.66640211  0.83185354  0.57471403  1
  O  O128  1  0.26048910  0.64754244  0.57946209  1
  O  O129  1  0.75170007  0.64758323  0.58100692  1
  O  O130  1  0.06635959  0.48253259  0.58072931  1
  O  O131  1  0.56155856  0.47608443  0.58061675  1
  O  O132  1  0.14817614  0.81852888  0.25626570  1
  O  O133  1  0.64723388  0.81665692  0.25656999  1
  O  O134  1  0.25874149  0.67896647  0.25472311  1
  O  O135  1  0.75899764  0.67592175  0.25405185  1
  O  O136  1  0.07833227  0.46541427  0.25493308  1
  O  O137  1  0.57785232  0.46616288  0.25568696  1
  O  O138  1  0.15897172  0.48787505  0.75683988  1
  O  O139  1  0.65840329  0.48723611  0.75711525  1
  O  O140  1  0.07921793  0.69439216  0.75532219  1
  O  O141  1  0.57719869  0.69175592  0.75413585  1
  O  O142  1  0.25960848  0.83160840  0.75505022  1
  O  O143  1  0.76061352  0.83430514  0.75601586  1
loop_
_geom_bond_atom_site_label_1
_geom_bond_atom_site_label_2
_geom_bond_distance
_geom_bond_site_symmetry_2
Na0 O106 2.388377 1_555
Na0 O34 2.399504 1_555
Na0 O102 2.434444 1_555
Na0 O134 2.548833 1_555
Na0 O136 2.787715 1_555
Na0 O0 2.931001 1_555
Na0 O64 2.966363 1_555
Na1 O107 2.462243 1_555
Na1 O135 2.545576 1_555
Na1 O103 2.584867 1_555
Na1 O35 2.613178 1_555
Na1 O137 2.704719 1_555
Na1 O65 2.884181 1_555
Na1 O1 2.908524 1_555
Na2 O103 2.349619 1_555
Na2 O132 2.458738 1_655
Na2 O105 2.542333 1_555
Na2 O136 2.733869 1_655
Na2 O31 2.770443 1_555
Na2 O60 2.816137 1_655
Na2 O22 2.927822 1_655
Na2 O3 2.954023 1_555
Na3 O102 2.373774 1_555
Na3 O104 2.501005 1_555
Na3 O133 2.503357 1_555
Na3 O30 2.513974 1_555
Na3 O137 2.698855 1_555
Na3 O23 2.923995 1_555
Na3 O61 3.009574 1_555
Na4 O98 2.345283 1_555
Na4 O100 2.531861 1_555
Na4 O138 2.557401 1_555
Na4 O142 2.575690 1_555
Na4 O28 2.662520 1_555
Na4 O70 2.856849 1_555
Na4 O12 2.970312 1_555
Na4 O8 3.027200 1_555
Na5 O99 2.346494 1_555
Na5 O29 2.393090 1_555
Na5 O101 2.556099 1_555
Na5 O139 2.576695 1_555
Na5 O143 2.644941 1_555
Na5 O13 2.924762 1_555
Na6 O96 2.424885 1_555
Na6 O98 2.505125 1_555
Na6 O26 2.602632 1_555
Na6 O142 2.654322 1_545
Na6 O140 2.690677 1_545
Na6 O6 2.855715 1_555
Na6 O68 2.884516 1_545
Na7 O97 2.348796 1_555
Na7 O99 2.439444 1_555
Na7 O27 2.497786 1_555
Na7 O143 2.628858 1_545
Na7 O141 2.767912 1_545
Na7 O69 2.907436 1_545
Na7 O7 2.941616 1_555
Na8 O56 2.508697 1_555
Na8 O86 2.590134 1_555
Na8 O128 2.592469 1_555
Na8 O130 2.614809 1_555
Na8 O85 2.648087 1_455
Na8 O14 2.824137 1_555
Na8 O42 2.867357 1_555
Na9 O129 2.412560 1_555
Na9 O57 2.536482 1_555
Na9 O131 2.688778 1_555
Na9 O87 2.724169 1_555
Na9 O43 2.836990 1_555
Na9 O84 2.911153 1_555
Na9 O15 2.933077 1_555
Na9 O29 2.955511 1_555
Na10 O86 2.507350 1_565
Na10 O126 2.550381 1_555
Na10 O89 2.570008 1_455
Na10 O130 2.604911 1_555
Na10 O58 2.641013 1_555
Na10 O45 2.708375 1_455
Na10 O16 2.954407 1_555
Na10 O25 3.009729 1_455
Na11 O127 2.296047 1_555
Na11 O87 2.463304 1_565
Na11 O131 2.492621 1_555
Na11 O59 2.571015 1_555
Na11 O88 2.677140 1_555
Na12 O126 2.452035 1_555
Na12 O128 2.581022 1_555
Na12 O84 2.602437 1_565
Na12 O26 2.611451 1_565
Na12 O12 2.650486 1_555
Na12 O54 2.739487 1_555
Na12 O88 2.750100 1_555
Na13 O129 2.441808 1_555
Na13 O127 2.510193 1_555
Na13 O89 2.608776 1_555
Na13 O55 2.708329 1_555
Na13 O85 2.744032 1_565
Na13 O27 2.786074 1_565
Na13 O13 2.800706 1_555
Na14 O124 2.530222 1_555
Na14 O52 2.534545 1_554
Na14 O122 2.566915 1_555
Na14 O94 2.632309 1_565
Na14 O91 2.747805 1_455
Na14 O36 2.861460 1_565
Na14 O22 2.865177 1_555
Na14 O32 2.947950 1_565
Na15 O53 2.469691 1_554
Na15 O123 2.471620 1_555
Na15 O90 2.568766 1_555
Na15 O125 2.614637 1_555
Na15 O95 2.736620 1_565
Na15 O37 2.878505 1_565
Na15 O23 2.905737 1_555
Na16 O121 2.355897 1_555
Na16 O125 2.549849 1_555
Na16 O35 2.639888 1_555
Na16 O91 2.662005 1_555
Na16 O19 2.718000 1_555
Na16 O49 2.749744 1_554
Na16 O93 2.783091 1_565
Na17 O120 2.319687 1_555
Na17 O94 2.489400 1_555
Na17 O50 2.541944 1_554
Na17 O122 2.553362 1_555
Na17 O93 2.592931 1_455
Na17 O41 2.918340 1_455
Na17 O20 2.929848 1_555
Na18 O123 2.422333 1_555
Na18 O95 2.439345 1_555
Na18 O121 2.444843 1_555
Na18 O92 2.629820 1_555
Na18 O51 2.690129 1_554
Na18 O21 2.797365 1_555
Na18 O30 2.899847 1_555
Na19 O81 2.354382 1_555
Na19 O82 2.494124 1_555
Na19 O110 2.602736 1_555
Na19 O38 2.683912 1_556
Na19 O8 2.775306 1_555
Na19 O108 2.798099 1_555
Na19 O53 2.851879 1_555
Na20 O80 2.411594 1_655
Na20 O111 2.531633 1_555
Na20 O83 2.550440 1_555
Na20 O109 2.593891 1_555
Na20 O9 2.690009 1_555
Na20 O39 2.741802 1_556
Na21 O11 2.420128 1_555
Na21 O113 2.432605 1_555
Na21 O78 2.563583 1_655
Na21 O83 2.589656 1_545
Na21 O111 2.659628 1_555
Na21 O41 2.864131 1_556
Na21 O69 2.963725 1_545
Na22 O6 2.374015 1_555
Na22 O80 2.393141 1_545
Na22 O112 2.448006 1_555
Na22 O78 2.551937 1_555
Na22 O108 2.641196 1_555
Na22 O36 2.887719 1_556
Na23 O81 2.397219 1_545
Na23 O113 2.484541 1_555
Na23 O7 2.517301 1_555
Na23 O37 2.575208 1_556
Na23 O79 2.625562 1_555
Na23 O109 2.664781 1_555
Na24 O77 2.400248 1_555
Na24 O118 2.537986 1_555
Na24 O74 2.596661 1_545
Na24 O114 2.655410 1_555
Na24 O4 2.697471 1_555
Na24 O46 2.731933 1_555
Na24 O57 2.834607 1_555
Na25 O76 2.426718 1_655
Na25 O119 2.498150 1_555
Na25 O75 2.556888 1_545
Na25 O115 2.565778 1_555
Na25 O47 2.605899 1_555
Na25 O5 2.769423 1_555
Na25 O56 2.956771 1_655
Na26 O76 2.418313 1_555
Na26 O116 2.473985 1_555
Na26 O0 2.533284 1_555
Na26 O42 2.566229 1_555
Na26 O72 2.634020 1_545
Na26 O114 2.671995 1_555
Na27 O117 2.422086 1_555
Na27 O77 2.445877 1_555
Na27 O1 2.526141 1_555
Na27 O43 2.528805 1_555
Na27 O115 2.651210 1_555
Na27 O73 2.680882 1_545
Na28 O2 2.381675 1_555
Na28 O116 2.438299 1_555
Na28 O73 2.504393 1_555
Na28 O74 2.600991 1_555
Na28 O118 2.612985 1_555
Na28 O44 2.913010 1_555
Na28 O64 2.987779 1_555
Na29 O117 2.425842 1_555
Na29 O72 2.543475 1_655
Na29 O45 2.587518 1_555
Na29 O119 2.621872 1_555
Na29 O75 2.624668 1_555
Na29 O3 2.706501 1_555
Na30 O76 2.453049 1_565
Na30 O86 2.570633 1_565
Na30 O72 2.581861 1_555
Na30 O89 2.625171 1_455
Na30 O75 2.672532 1_455
Na30 O85 2.726519 1_465
Na31 O77 2.301080 1_555
Na31 O87 2.537089 1_555
Na31 O73 2.538722 1_545
Na31 O74 2.669020 1_545
Na31 O84 2.786658 1_555
Na31 O88 2.860480 1_545
Na32 O80 2.314054 1_545
Na32 O94 2.526319 1_556
Na32 O78 2.542345 1_555
Na32 O83 2.607415 1_445
Na32 O91 2.728426 1_446
Na32 O93 2.834924 1_456
Na33 O81 2.419716 1_555
Na33 O90 2.534572 1_556
Na33 O82 2.620380 1_555
Na33 O95 2.644799 1_566
Na33 O79 2.664463 1_565
Na33 O92 2.786741 1_566
Na34 O96 2.247510 1_555
Na34 O98 2.515313 1_555
Na34 O112 2.611533 1_555
Na34 O110 2.702373 1_555
Na34 O100 2.783271 1_555
Na34 O108 2.890452 1_555
Na35 O97 2.304556 1_555
Na35 O99 2.372811 1_555
Na35 O113 2.535053 1_555
Na35 O101 2.702430 1_555
Na35 O111 2.798384 1_555
Na35 O109 2.852633 1_555
Na36 O102 2.354848 1_555
Na36 O106 2.368842 1_555
Na36 O116 2.619926 1_555
Na36 O104 2.625876 1_555
Na36 O114 2.777509 1_555
Na36 O118 2.862329 1_555
Na37 O107 2.391734 1_555
Na37 O103 2.460244 1_555
Na37 O117 2.496520 1_555
Na37 O115 2.693531 1_555
Na37 O119 2.777533 1_555
Na37 O105 2.820534 1_555
Na38 O120 2.469907 1_555
Na38 O134 2.474923 1_555
Na38 O124 2.477179 1_555
Na38 O132 2.755974 1_555
Na38 O122 2.802891 1_555
Na38 O136 2.901470 1_555
Na39 O123 2.389891 1_555
Na39 O121 2.498472 1_555
Na39 O125 2.616139 1_555
Na39 O133 2.663630 1_555
Na39 O135 2.681603 1_555
Na39 O137 2.791913 1_555
Na40 O126 2.484136 1_555
Na40 O130 2.545092 1_555
Na40 O138 2.639405 1_555
Na40 O142 2.643539 1_555
Na40 O128 2.678792 1_555
Na40 O140 2.699899 1_555
Na41 O129 2.373399 1_555
Na41 O127 2.478866 1_555
Na41 O131 2.626126 1_555
Na41 O143 2.667945 1_555
Na41 O139 2.683657 1_555
Na41 O141 2.859622 1_555
O0 Si0 1.626296 1_555
O0 Zn0 1.942267 1_555
O1 Si1 1.620900 1_555
O1 Zn1 1.928514 1_555
O2 Si2 1.621368 1_555
O2 Zn1 1.965746 1_565
O3 Si3 1.618474 1_555
O3 Zn0 1.975425 1_665
O4 S1 1.477076 1_555
O4 Zn1 2.133482 1_555
O5 S0 1.466813 1_555
O5 Zn0 2.199411 1_655
O6 Si4 1.628964 1_555
O6 Zn2 1.933818 1_555
O7 Si5 1.609764 1_555
O7 Zn3 1.923109 1_555
O8 S3 1.470720 1_555
O8 Zn3 2.285041 1_565
O9 S2 1.483326 1_555
O9 Zn2 2.180706 1_665
O10 Si6 1.592933 1_555
O10 Zn3 1.914163 1_555
O11 Si7 1.626247 1_555
O11 Zn2 1.950503 1_655
O12 Si6 1.683019 1_565
O12 Zr1 2.043256 1_565
O13 Si7 1.665516 1_565
O13 Zr0 2.028777 1_565
O14 Si4 1.651614 1_555
O14 Zr0 2.035951 1_455
O15 Si5 1.685164 1_555
O15 Zr1 1.948570 1_555
O16 S2 1.510110 1_455
O16 Zr0 2.206966 1_465
O17 S3 1.522488 1_555
O17 Zr1 2.184576 1_565
O18 Si2 1.643677 1_555
O18 Zr3 1.999130 1_555
O19 Si3 1.673962 1_555
O19 Zr2 2.016322 1_655
O20 S0 1.519853 1_455
O20 Zr2 2.170793 1_545
O21 S1 1.496776 1_555
O21 Zr3 2.336101 1_545
O22 Si0 1.705367 1_565
O22 Zr2 1.957583 1_555
O23 Si1 1.675495 1_565
O23 Zr3 1.998534 1_555
O24 S4 1.472365 1_555
O24 Zn4 2.234546 1_555
O25 S5 1.451856 1_555
O25 Zn5 2.336848 1_555
O26 Si8 1.630448 1_555
O26 Zn4 1.949325 1_555
O27 Si9 1.621834 1_555
O27 Zn5 1.977245 1_555
O28 S6 1.478412 1_555
O28 Zn4 2.379907 1_555
O29 Si10 1.623614 1_555
O29 Zn5 2.009049 1_555
O30 Si11 1.616438 1_555
O30 Zn6 1.991886 1_555
O31 S7 1.472174 1_555
O31 Zn7 2.378767 1_555
O32 S8 1.448136 1_555
O32 Zn6 2.352090 1_555
O33 S9 1.462959 1_555
O33 Zn7 2.276365 1_555
O34 Si12 1.598813 1_555
O34 Zn6 1.988014 1_555
O35 Si13 1.631260 1_555
O35 Zn7 1.937725 1_555
O36 Si12 1.689010 1_555
O36 Zr4 1.992507 1_554
O37 Si13 1.640151 1_555
O37 Zn8 1.905351 1_554
O38 Si11 1.675532 1_555
O38 Zr4 2.029129 1_554
O39 S7 1.484668 1_555
O39 Zn8 2.446557 1_554
O40 S8 1.526049 1_555
O40 Zr4 2.114255 1_554
O41 S9 1.502788 1_555
O41 Zn8 2.100009 1_554
O42 Si8 1.636654 1_555
O42 Zn9 1.922044 1_555
O43 Si9 1.636819 1_555
O43 Zn10 1.918027 1_555
O44 S6 1.490782 1_555
O44 Zn9 2.118725 1_555
O45 Si10 1.650417 1_555
O45 Zn10 1.910050 1_555
O46 S4 1.481853 1_555
O46 Zn9 2.383739 1_555
O47 S5 1.483288 1_555
O48 S10 1.467305 1_555
O48 Zn11 2.083784 1_556
O49 S11 1.475967 1_555
O49 Zn12 2.393561 1_556
O50 S12 1.485282 1_555
O50 Zn11 2.165551 1_556
O51 S13 1.483857 1_555
O51 Zn12 2.111053 1_556
O52 Si14 1.635584 1_555
O52 Zn11 1.971833 1_556
O53 Si15 1.630314 1_555
O53 Zn12 1.960739 1_556
O54 S14 1.482937 1_555
O54 Zn13 2.178646 1_555
O55 S15 1.482316 1_555
O55 Zn14 2.161395 1_555
O56 Si16 1.639598 1_555
O56 Zn13 1.950829 1_555
O57 Si17 1.635698 1_555
O57 Zn14 1.972177 1_555
O58 S16 1.488404 1_555
O58 Zn13 2.082534 1_555
O59 S17 1.483337 1_555
O59 Zn14 2.286921 1_555
O60 S16 1.507628 1_555
O60 Zr5 2.293356 1_555
O61 S17 1.506382 1_555
O61 Zr6 2.353508 1_555
O62 S14 1.521253 1_555
O62 Zr5 2.119013 1_555
O63 S15 1.522557 1_555
O63 Zr6 2.120554 1_555
O64 Si16 1.674897 1_555
O64 Zr5 2.009494 1_555
O65 Si17 1.674322 1_555
O65 Zr6 2.004443 1_555
O66 S12 1.499045 1_555
O66 Zr7 2.269261 1_555
O67 S13 1.495619 1_555
O67 Zr8 2.280963 1_555
O68 Si14 1.662939 1_555
O68 Zr7 2.009897 1_555
O69 Si15 1.673755 1_555
O69 Zr8 2.008202 1_555
O70 S10 1.511076 1_555
O70 Zr7 2.183153 1_555
O71 S11 1.524840 1_555
O71 Zr8 2.169532 1_555
O72 S16 1.489060 1_555
O72 Zn0 2.342607 1_565
O73 S17 1.490201 1_555
O73 Zn1 2.423233 1_565
O74 S14 1.473067 1_555
O74 Zn1 2.553789 1_565
O75 S15 1.481335 1_555
O75 Zn0 2.493306 1_665
O76 Si16 1.655618 1_555
O76 Zn0 2.189427 1_555
O77 Si17 1.651863 1_555
O77 Zn1 2.163245 1_555
O78 S12 1.491749 1_555
O78 Zn2 2.381829 1_555
O79 S13 1.474879 1_555
O79 Zn3 2.243298 1_555
O80 Si14 1.652598 1_555
O80 Zn2 2.283080 1_565
O81 Si15 1.653508 1_555
O81 Zn3 2.211584 1_565
O82 S10 1.455641 1_555
O82 Zn3 2.510315 1_565
O83 S11 1.483892 1_555
O83 Zn2 2.550756 1_665
O84 S4 1.546568 1_555
O84 Zr1 2.205470 1_555
O85 S5 1.544474 1_555
O85 Zr0 2.192376 1_555
O86 Si8 1.673404 1_555
O86 Zr0 2.150550 1_455
O87 Si9 1.713833 1_555
O87 Zr1 2.104775 1_555
O88 S6 1.514964 1_555
O88 Zr1 2.347802 1_565
O89 Si10 1.675113 1_555
O89 Zr0 2.082508 1_565
O90 Si11 1.675393 1_555
O90 Zr3 2.035151 1_555
O91 S7 1.548046 1_555
O91 Zr2 2.232422 1_655
O92 S8 1.496070 1_555
O92 Zr3 2.330700 1_545
O93 S9 1.523649 1_555
O93 Zr2 2.296026 1_645
O94 Si12 1.708461 1_555
O94 Zr2 2.147077 1_545
O95 Si13 1.676648 1_555
O95 Zr3 2.139984 1_545
O96 Si6 1.617514 1_555
O96 Zn4 2.007059 1_555
O97 Si7 1.609714 1_555
O97 Zn5 2.175367 1_555
O98 Si4 1.645996 1_555
O98 Zn4 2.047844 1_555
O99 Si5 1.623553 1_555
O99 Zn5 2.086768 1_555
O100 S3 1.464603 1_555
O100 Zn4 2.420698 1_555
O101 S2 1.445883 1_555
O101 Zn5 2.503202 1_555
O102 Si2 1.630781 1_555
O102 Zn6 2.093399 1_555
O103 Si3 1.637139 1_555
O103 Zn7 2.069880 1_555
O104 S1 1.455643 1_555
O104 Zn6 2.489051 1_555
O105 S0 1.459875 1_555
O105 Zn7 2.453138 1_555
O106 Si0 1.606034 1_555
O106 Zn6 2.140086 1_555
O107 Si1 1.620617 1_555
O107 Zn7 1.969814 1_555
O108 S10 1.528562 1_555
O108 Zr4 2.251902 1_555
O109 S11 1.489571 1_555
O109 Zn8 2.423541 1_555
O110 S13 1.507758 1_555
O110 Zr4 2.386301 1_555
O111 S12 1.488237 1_655
O111 Zn8 2.549746 1_555
O112 Si14 1.676765 1_545
O112 Zr4 2.095387 1_555
O113 Si15 1.664624 1_545
O113 Zn8 1.990914 1_555
O114 S14 1.484629 1_545
O114 Zn9 2.366084 1_555
O115 S15 1.476276 1_545
O116 Si16 1.662986 1_555
O116 Zn9 2.007483 1_555
O117 Si17 1.656712 1_555
O117 Zn10 2.039099 1_555
O118 S17 1.496614 1_555
O118 Zn9 2.468345 1_555
O119 S16 1.477579 1_655
O120 Si12 1.636517 1_555
O120 Zn11 2.029270 1_555
O121 Si13 1.651811 1_555
O121 Zn12 2.033226 1_555
O122 S7 1.481909 1_455
O122 Zn11 2.441269 1_555
O123 Si11 1.640566 1_555
O123 Zn12 2.046317 1_555
O124 S8 1.486065 1_565
O124 Zn11 2.240803 1_555
O125 S9 1.482723 1_565
O125 Zn12 2.395726 1_555
O126 Si8 1.666821 1_565
O126 Zn13 2.025496 1_555
O127 Si9 1.649102 1_565
O127 Zn14 2.080147 1_555
O128 S6 1.488651 1_555
O128 Zn13 2.384674 1_555
O129 Si10 1.650149 1_555
O129 Zn14 2.046649 1_555
O130 S5 1.500141 1_455
O130 Zn13 2.317787 1_555
O131 S4 1.479762 1_555
O131 Zn14 2.402956 1_555
O132 Si0 1.665130 1_565
O132 Zr5 2.073340 1_555
O133 Si1 1.661154 1_565
O133 Zr6 2.064799 1_555
O134 Si2 1.689246 1_555
O134 Zr5 1.996362 1_555
O135 Si3 1.678641 1_555
O135 Zr6 2.016179 1_555
O136 S0 1.519027 1_455
O136 Zr5 2.264030 1_555
O137 S1 1.538167 1_555
O137 Zr6 2.230913 1_555
O138 Si4 1.656363 1_555
O138 Zr7 2.069387 1_555
O139 Si5 1.648868 1_555
O139 Zr8 2.053943 1_555
O140 S2 1.516845 1_455
O140 Zr7 2.193586 1_555
O141 S3 1.503342 1_555
O141 Zr8 2.236038 1_555
O142 Si6 1.714176 1_565
O142 Zr7 2.018394 1_555
O143 Si7 1.719212 1_565
O143 Zr8 2.016222 1_555
