# generated using pymatgen
data_CsCu2Cl3
_symmetry_space_group_name_H-M   'P 1'
_cell_length_a   5.29983245
_cell_length_b   7.81005879
_cell_length_c   7.81005974
_cell_angle_alpha   102.90184022
_cell_angle_beta   90.00000000
_cell_angle_gamma   90.00000000
_symmetry_Int_Tables_number   1
_chemical_formula_structural   CsCu2Cl3
_chemical_formula_sum   'Cs2 Cu4 Cl6'
_cell_volume   315.11264791
_cell_formula_units_Z   2
loop_
 _symmetry_equiv_pos_site_id
 _symmetry_equiv_pos_as_xyz
  1  'x, y, z'
loop_
 _atom_site_type_symbol
 _atom_site_label
 _atom_site_symmetry_multiplicity
 _atom_site_fract_x
 _atom_site_fract_y
 _atom_site_fract_z
 _atom_site_occupancy
  Cs  Cs0  1  0.25000000  0.31013432  0.68986568  1
  Cs  Cs1  1  0.75000000  0.68986568  0.31013432  1
  Cu  Cu0  1  0.00000000  0.83228380  0.83228380  1
  Cu  Cu1  1  -0.00000000  0.16771620  0.16771620  1
  Cu  Cu2  1  0.50000000  0.16771620  0.16771620  1
  Cu  Cu3  1  0.50000000  0.83228380  0.83228380  1
  Cl  Cl0  1  0.25000000  0.89533969  0.10466031  1
  Cl  Cl1  1  0.75000000  0.10466031  0.89533969  1
  Cl  Cl2  1  0.25000000  0.84152513  0.59855566  1
  Cl  Cl3  1  0.75000000  0.15847487  0.40144434  1
  Cl  Cl4  1  0.25000000  0.40144434  0.15847487  1
  Cl  Cl5  1  0.75000000  0.59855566  0.84152513  1
loop_
_geom_bond_atom_site_label_1
_geom_bond_atom_site_label_2
_geom_bond_distance
_geom_bond_site_symmetry_2
Cl0 Cu2 2.460796 1_565
Cl0 Cu1 2.460796 1_565
Cl0 Cu3 2.460796 1_554
Cl0 Cu0 2.460796 1_554
Cl0 Cs1 3.650015 1_555
Cl0 Cs1 3.650015 1_455
Cl1 Cu0 2.460796 1_645
Cl1 Cu3 2.460796 1_545
Cl1 Cu1 2.460796 1_656
Cl1 Cu2 2.460796 1_556
Cl1 Cs0 3.650015 1_555
Cl1 Cs0 3.650015 1_655
Cl2 Cu3 2.269748 1_555
Cl2 Cu0 2.269748 1_555
Cl2 Cs1 3.508232 1_555
Cl2 Cs1 3.508232 1_455
Cl2 Cs0 3.568985 1_565
Cl3 Cu1 2.269748 1_655
Cl3 Cu2 2.269748 1_555
Cl3 Cs0 3.508232 1_555
Cl3 Cs0 3.508232 1_655
Cl3 Cs1 3.568985 1_545
Cl4 Cu1 2.269748 1_555
Cl4 Cu2 2.269748 1_555
Cl4 Cs1 3.508232 1_555
Cl4 Cs1 3.508232 1_455
Cl4 Cs0 3.568986 1_554
Cl5 Cu3 2.269748 1_555
Cl5 Cu0 2.269748 1_655
Cl5 Cs0 3.508232 1_555
Cl5 Cs0 3.508232 1_655
Cl5 Cs1 3.568986 1_556
