# generated using pymatgen
data_NaNb2SiSn2P5O24
_symmetry_space_group_name_H-M   'P 1'
_cell_length_a   8.79549584
_cell_length_b   8.79250552
_cell_length_c   22.77877628
_cell_angle_alpha   90.06074567
_cell_angle_beta   89.91441883
_cell_angle_gamma   119.95348385
_symmetry_Int_Tables_number   1
_chemical_formula_structural   NaNb2SiSn2P5O24
_chemical_formula_sum   'Na3 Nb6 Si3 Sn6 P15 O72'
_cell_volume   1526.28930312
_cell_formula_units_Z   3
loop_
 _symmetry_equiv_pos_site_id
 _symmetry_equiv_pos_as_xyz
  1  'x, y, z'
loop_
 _atom_site_type_symbol
 _atom_site_label
 _atom_site_symmetry_multiplicity
 _atom_site_fract_x
 _atom_site_fract_y
 _atom_site_fract_z
 _atom_site_occupancy
  Na  Na0  1  0.00002969  0.99857509  0.99756918  1
  Na  Na1  1  0.66738148  0.33416878  0.83077994  1
  Na  Na2  1  0.66764449  0.33461602  0.33703098  1
  Nb  Nb0  1  0.99855081  0.00373913  0.35724811  1
  Nb  Nb1  1  0.00079777  0.99938920  0.64230882  1
  Nb  Nb2  1  0.66862850  0.33317272  0.19147028  1
  Nb  Nb3  1  0.66425890  0.33357397  0.97582947  1
  Nb  Nb4  1  0.33632956  0.67148165  0.02413373  1
  Nb  Nb5  1  0.33841719  0.67012978  0.80785281  1
  Si  Si0  1  0.00619973  0.28923666  0.24917256  1
  Si  Si1  1  0.62027643  0.67178100  0.91596754  1
  Si  Si2  1  0.32948581  0.94997690  0.91627805  1
  Sn  Sn0  1  0.99986237  0.99934833  0.85498951  1
  Sn  Sn1  1  0.00165368  0.00070668  0.14671843  1
  Sn  Sn2  1  0.66592557  0.33357765  0.68469832  1
  Sn  Sn3  1  0.66785953  0.33370868  0.48157936  1
  Sn  Sn4  1  0.33147582  0.66569560  0.52023280  1
  Sn  Sn5  1  0.33233097  0.66558112  0.31218413  1
  P  P0  1  0.28468168  0.99770879  0.25014996  1
  P  P1  1  0.71347886  0.71593573  0.25036555  1
  P  P2  1  0.28837996  0.28388139  0.75010252  1
  P  P3  1  0.99446256  0.70917094  0.74997480  1
  P  P4  1  0.71721741  0.00654801  0.74995868  1
  P  P5  1  0.95724237  0.33649024  0.58331969  1
  P  P6  1  0.38039170  0.04260634  0.58306733  1
  P  P7  1  0.66225115  0.62039917  0.58312703  1
  P  P8  1  0.95034539  0.62074466  0.08360012  1
  P  P9  1  0.67157140  0.04950638  0.08333692  1
  P  P10  1  0.37704604  0.32782997  0.08333083  1
  P  P11  1  0.05204994  0.38462412  0.91662067  1
  P  P12  1  0.61765268  0.95577728  0.41663733  1
  P  P13  1  0.33941177  0.38092912  0.41680876  1
  P  P14  1  0.04248421  0.66321375  0.41676826  1
  O  O0  1  0.19789810  0.03096832  0.30387501  1
  O  O1  1  0.83449364  0.79803332  0.30417143  1
  O  O2  1  0.96784623  0.16031005  0.30643732  1
  O  O3  1  0.21224300  0.17210180  0.80573442  1
  O  O4  1  0.95778289  0.78590646  0.80539829  1
  O  O5  1  0.82792089  0.04157215  0.80565542  1
  O  O6  1  0.80648066  0.98133194  0.69560291  1
  O  O7  1  0.17479362  0.19304143  0.69560308  1
  O  O8  1  0.02026161  0.82395260  0.69544431  1
  O  O9  1  0.78995594  0.81895901  0.19336366  1
  O  O10  1  0.03513651  0.20856094  0.18971205  1
  O  O11  1  0.17732071  0.96164785  0.19356129  1
  O  O12  1  0.87822939  0.37206159  0.63831535  1
  O  O13  1  0.49370875  0.12115270  0.63827733  1
  O  O14  1  0.62666482  0.50642215  0.63824334  1
  O  O15  1  0.86040886  0.50913563  0.13909108  1
  O  O16  1  0.64772114  0.13813217  0.13872881  1
  O  O17  1  0.48881887  0.35269332  0.13834544  1
  O  O18  1  0.47156523  0.30654712  0.02843074  1
  O  O19  1  0.83564825  0.53127021  0.02909056  1
  O  O20  1  0.69550430  0.16414764  0.02901680  1
  O  O21  1  0.45344696  0.16124982  0.52885471  1
  O  O22  1  0.70874124  0.54771427  0.52891181  1
  O  O23  1  0.83907688  0.29061112  0.52894739  1
  O  O24  1  0.52147316  0.68903651  0.97461236  1
  O  O25  1  0.16107317  0.47017488  0.97230238  1
  O  O26  1  0.30511548  0.83137470  0.97486482  1
  O  O27  1  0.54156870  0.84521223  0.47202832  1
  O  O28  1  0.30155223  0.45433308  0.47237629  1
  O  O29  1  0.15249761  0.69911690  0.47259420  1
  O  O30  1  0.12288458  0.62729153  0.36251385  1
  O  O31  1  0.50493910  0.87779307  0.36160539  1
  O  O32  1  0.37646823  0.49667268  0.36244250  1
  O  O33  1  0.13213047  0.49512108  0.86071232  1
  O  O34  1  0.35834550  0.85784819  0.85805164  1
  O  O35  1  0.49822132  0.63534574  0.85755647  1
  O  O36  1  0.02384024  0.82766464  0.40598248  1
  O  O37  1  0.80101098  0.97086274  0.40726999  1
  O  O38  1  0.17386029  0.19625622  0.40663138  1
  O  O39  1  0.03092504  0.20112926  0.91166665  1
  O  O40  1  0.16299653  0.97886874  0.91287826  1
  O  O41  1  0.80962508  0.84674000  0.91278984  1
  O  O42  1  0.97504376  0.17033885  0.59493696  1
  O  O43  1  0.19649227  0.02535414  0.59456020  1
  O  O44  1  0.82887220  0.80394503  0.59491145  1
  O  O45  1  0.97010987  0.80481766  0.08794267  1
  O  O46  1  0.83281653  0.02528048  0.08652924  1
  O  O47  1  0.19593753  0.15933515  0.08520917  1
  O  O48  1  0.68885349  0.16559673  0.74359106  1
  O  O49  1  0.47547063  0.31069107  0.74366674  1
  O  O50  1  0.83306850  0.52299635  0.74344983  1
  O  O51  1  0.69384138  0.52842716  0.24300786  1
  O  O52  1  0.82280796  0.30208792  0.24240274  1
  O  O53  1  0.46717040  0.17123022  0.24244100  1
  O  O54  1  0.64014016  0.49608184  0.92465382  1
  O  O55  1  0.86789898  0.36747138  0.92485520  1
  O  O56  1  0.51126331  0.14053018  0.92485501  1
  O  O57  1  0.64511450  0.14363489  0.42223576  1
  O  O58  1  0.50047385  0.35479683  0.42249762  1
  O  O59  1  0.85584191  0.50030787  0.42235962  1
  O  O60  1  0.35857145  0.49139282  0.07442565  1
  O  O61  1  0.12993368  0.63294978  0.07579101  1
  O  O62  1  0.50253936  0.86837886  0.07631720  1
  O  O63  1  0.35440299  0.85929249  0.57508911  1
  O  O64  1  0.50508066  0.64646438  0.57483258  1
  O  O65  1  0.14025430  0.49405365  0.57521304  1
  O  O66  1  0.31915436  0.84748022  0.25986179  1
  O  O67  1  0.53379004  0.69496848  0.25977806  1
  O  O68  1  0.16694499  0.48195423  0.25901177  1
  O  O69  1  0.29914208  0.46428812  0.75713759  1
  O  O70  1  0.16123553  0.69375178  0.75752337  1
  O  O71  1  0.53509574  0.83657678  0.75667466  1
loop_
_geom_bond_atom_site_label_1
_geom_bond_atom_site_label_2
_geom_bond_distance
_geom_bond_site_symmetry_2
Na0 O40 2.458712 1_555
Na0 O41 2.467366 1_455
Na0 O47 2.554312 1_566
Na0 O39 2.568476 1_565
Na0 O46 2.580581 1_466
Na0 O45 2.601442 1_456
Na1 O50 2.533704 1_555
Na1 O48 2.539503 1_555
Na1 O49 2.547656 1_555
Na1 O54 2.643711 1_555
Na1 O56 2.653432 1_555
Na1 O55 2.698624 1_555
Na2 O58 2.496956 1_555
Na2 O59 2.497155 1_555
Na2 O57 2.509861 1_555
Na2 O52 2.640120 1_555
Na2 O51 2.675478 1_555
Na2 O53 2.700117 1_555
Nb0 O2 1.919183 1_555
Nb0 O37 1.973296 1_545
Nb0 O38 1.975593 1_655
Nb0 O36 2.006688 1_645
Nb0 O0 2.045667 1_655
Nb0 O1 2.051722 1_545
Nb1 O43 1.949431 1_565
Nb1 O44 1.952276 1_455
Nb1 O42 1.954255 1_465
Nb1 O7 2.028306 1_565
Nb1 O8 2.035178 1_555
Nb1 O6 2.035499 1_455
Nb2 O52 1.906612 1_555
Nb2 O51 1.997752 1_555
Nb2 O53 1.998271 1_555
Nb2 O15 2.013551 1_555
Nb2 O16 2.024695 1_555
Nb2 O17 2.066943 1_555
Nb3 O54 1.937130 1_555
Nb3 O56 1.938986 1_555
Nb3 O18 1.989211 1_556
Nb3 O55 2.026473 1_555
Nb3 O19 2.037198 1_556
Nb3 O20 2.043563 1_556
Nb4 O24 1.921447 1_554
Nb4 O26 1.923807 1_554
Nb4 O62 2.005178 1_555
Nb4 O60 2.042485 1_555
Nb4 O61 2.043328 1_555
Nb4 O25 2.044357 1_554
Nb5 O34 1.941686 1_555
Nb5 O35 1.945697 1_555
Nb5 O71 1.990683 1_555
Nb5 O69 2.025322 1_555
Nb5 O70 2.028582 1_555
Nb5 O33 2.078226 1_555
O0 P0 1.544399 1_545
O1 P1 1.546263 1_555
O2 Si0 1.649330 1_655
O3 P2 1.537245 1_555
O3 Sn0 2.054109 1_445
O4 P3 1.538665 1_555
O4 Sn0 2.058677 1_555
O5 P4 1.534911 1_555
O5 Sn0 2.062618 1_545
O6 P4 1.539135 1_565
O7 P2 1.543360 1_555
O8 P3 1.544684 1_455
O9 P1 1.533087 1_555
O9 Sn1 2.043525 1_665
O10 Si0 1.606132 1_555
O10 Sn1 1.960976 1_555
O11 P0 1.535442 1_555
O11 Sn1 2.044339 1_565
O12 P5 1.537448 1_555
O12 Sn2 2.020289 1_555
O13 P6 1.538333 1_555
O13 Sn2 2.019024 1_555
O14 P7 1.538428 1_555
O14 Sn2 2.019198 1_555
O15 P8 1.552721 1_555
O16 P9 1.550362 1_555
O17 P10 1.540513 1_555
O18 P10 1.562623 1_555
O19 P8 1.545149 1_555
O20 P9 1.543162 1_555
O21 P6 1.535274 1_555
O21 Sn3 2.038932 1_555
O22 P7 1.535747 1_555
O22 Sn3 2.038029 1_555
O23 P5 1.536557 1_555
O23 Sn3 2.037458 1_555
O24 Si1 1.640274 1_555
O25 P11 1.541231 1_555
O26 Si2 1.641118 1_555
O27 P12 1.528172 1_555
O27 Sn4 2.048585 1_555
O28 P13 1.530099 1_555
O28 Sn4 2.054123 1_555
O29 P14 1.533241 1_555
O29 Sn4 2.051763 1_555
O30 P14 1.531914 1_555
O30 Sn5 2.048541 1_555
O31 P12 1.532145 1_555
O31 Sn5 2.055622 1_555
O32 P13 1.531589 1_555
O32 Sn5 2.060970 1_555
O33 P11 1.542229 1_555
O34 Si2 1.637616 1_555
O35 Si1 1.638706 1_555
O36 P14 1.554230 1_555
O37 P12 1.565067 1_555
O38 P13 1.565157 1_555
O39 P11 1.533159 1_555
O39 Sn0 2.097908 1_445
O40 Si2 1.608327 1_555
O40 Sn0 2.023404 1_455
O41 Si1 1.608361 1_555
O41 Sn0 2.022081 1_555
O42 P5 1.567829 1_555
O43 P6 1.568954 1_555
O44 P7 1.569307 1_555
O45 P8 1.542136 1_555
O45 Sn1 2.086866 1_665
O46 P9 1.537546 1_555
O46 Sn1 2.111584 1_655
O47 P10 1.541891 1_555
O47 Sn1 2.108425 1_555
O48 P4 1.545258 1_555
O48 Sn2 2.079469 1_555
O49 P2 1.548196 1_555
O49 Sn2 2.075597 1_555
O50 P3 1.548044 1_555
O50 Sn2 2.069343 1_555
O51 P1 1.578346 1_555
O52 Si0 1.679635 1_655
O53 P0 1.577707 1_545
O54 Si1 1.651201 1_555
O55 P11 1.560953 1_655
O56 Si2 1.651297 1_545
O57 P12 1.550513 1_545
O57 Sn3 2.079053 1_555
O58 P13 1.549854 1_555
O58 Sn3 2.071743 1_555
O59 P14 1.553848 1_655
O59 Sn3 2.068358 1_555
O60 P10 1.539427 1_555
O61 P8 1.538871 1_455
O62 P9 1.551764 1_565
O63 P6 1.521424 1_565
O63 Sn4 2.037896 1_555
O64 P7 1.521995 1_555
O64 Sn4 2.042282 1_555
O65 P5 1.522241 1_455
O65 Sn4 2.034164 1_555
O66 P0 1.512073 1_555
O66 Sn5 2.044842 1_555
O67 P1 1.511920 1_555
O67 Sn5 2.041732 1_555
O68 Si0 1.590031 1_555
O68 Sn5 1.961017 1_555
O69 P2 1.549298 1_555
O70 P3 1.548866 1_455
O71 P4 1.559479 1_565
