# generated using pymatgen
data_MgNb2V2O10
_symmetry_space_group_name_H-M   'P 1'
_cell_length_a   7.17036973
_cell_length_b   7.14062834
_cell_length_c   4.11978923
_cell_angle_alpha   88.64039499
_cell_angle_beta   88.73237803
_cell_angle_gamma   90.86020653
_symmetry_Int_Tables_number   1
_chemical_formula_structural   MgNb2V2O10
_chemical_formula_sum   'Mg1 Nb2 V2 O10'
_cell_volume   210.80063163
_cell_formula_units_Z   1
loop_
 _symmetry_equiv_pos_site_id
 _symmetry_equiv_pos_as_xyz
  1  'x, y, z'
loop_
 _atom_site_type_symbol
 _atom_site_label
 _atom_site_symmetry_multiplicity
 _atom_site_fract_x
 _atom_site_fract_y
 _atom_site_fract_z
 _atom_site_occupancy
  Mg  Mg0  1  0.47722200  0.47756900  0.05474200  1
  Nb  Nb0  1  0.23348100  0.23697500  0.66606100  1
  Nb  Nb1  1  0.76461300  0.76257400  0.24972100  1
  V  V0  1  0.25013300  0.74762600  0.51265000  1
  V  V1  1  0.74445500  0.24814900  0.51916900  1
  O  O0  1  0.03111100  0.74587900  0.29510900  1
  O  O1  1  0.25164300  0.97096900  0.71901200  1
  O  O2  1  0.26917300  0.27271000  0.21934500  1
  O  O3  1  0.26712300  0.53001400  0.74582600  1
  O  O4  1  0.46411900  0.72678100  0.27770400  1
  O  O5  1  0.52735100  0.26633400  0.74740800  1
  O  O6  1  0.72554800  0.46307700  0.27997200  1
  O  O7  1  0.74263700  0.74128700  0.80473000  1
  O  O8  1  0.74521600  0.03041600  0.29751100  1
  O  O9  1  0.96913900  0.25186400  0.72041700  1
loop_
_geom_bond_atom_site_label_1
_geom_bond_atom_site_label_2
_geom_bond_distance
_geom_bond_site_symmetry_2
Mg0 O5 2.023421 1_554
Mg0 O4 2.024370 1_555
Mg0 O3 2.026964 1_554
Mg0 O6 2.028862 1_555
Mg0 O2 2.160505 1_555
Nb0 O2 1.863466 1_555
Nb0 O9 1.908535 1_455
Nb0 O1 1.913499 1_545
Nb0 O3 2.136737 1_555
Nb0 O5 2.148880 1_555
Nb0 O2 2.319005 1_556
Nb1 O7 1.853132 1_554
Nb1 O0 1.929317 1_655
Nb1 O8 1.934073 1_565
Nb1 O6 2.153000 1_555
Nb1 O4 2.166153 1_555
Nb1 O7 2.289750 1_555
O0 V0 1.825366 1_555
O1 V0 1.824980 1_555
O3 V0 1.814456 1_555
O4 V0 1.805902 1_555
O5 V1 1.808724 1_555
O6 V1 1.812521 1_555
O8 V1 1.821701 1_555
O9 V1 1.828252 1_555
