# generated using pymatgen
data_YSiNi
_symmetry_space_group_name_H-M   'P 1'
_cell_length_a   4.14293255
_cell_length_b   6.86444139
_cell_length_c   7.15943257
_cell_angle_alpha   90.00000000
_cell_angle_beta   90.00000000
_cell_angle_gamma   90.00000000
_symmetry_Int_Tables_number   1
_chemical_formula_structural   YSiNi
_chemical_formula_sum   'Y4 Si4 Ni4'
_cell_volume   203.60651344
_cell_formula_units_Z   4
loop_
 _symmetry_equiv_pos_site_id
 _symmetry_equiv_pos_as_xyz
  1  'x, y, z'
loop_
 _atom_site_type_symbol
 _atom_site_label
 _atom_site_symmetry_multiplicity
 _atom_site_fract_x
 _atom_site_fract_y
 _atom_site_fract_z
 _atom_site_occupancy
  Y  Y0  1  0.25000000  0.49141189  0.79772638  1
  Y  Y1  1  0.75000000  0.50858811  0.20227362  1
  Y  Y2  1  0.25000000  0.99141189  0.70227362  1
  Y  Y3  1  0.75000000  0.00858811  0.29772638  1
  Si  Si0  1  0.25000000  0.80770636  0.08821952  1
  Si  Si1  1  0.75000000  0.19229364  0.91178048  1
  Si  Si2  1  0.25000000  0.30770636  0.41178048  1
  Si  Si3  1  0.75000000  0.69229364  0.58821952  1
  Ni  Ni0  1  0.75000000  0.81602108  0.91999492  1
  Ni  Ni1  1  0.25000000  0.18397892  0.08000508  1
  Ni  Ni2  1  0.75000000  0.31602108  0.58000508  1
  Ni  Ni3  1  0.25000000  0.68397892  0.41999492  1
loop_
_geom_bond_atom_site_label_1
_geom_bond_atom_site_label_2
_geom_bond_distance
_geom_bond_site_symmetry_2
Si0 Y3 2.905564 1_565
Si0 Y3 2.905564 1_465
Si0 Y0 3.006571 1_554
Si0 Y1 3.028812 1_555
Si0 Y1 3.028812 1_455
Si0 Y2 3.037306 1_554
Si1 Y2 2.905564 1_645
Si1 Y2 2.905564 1_545
Si1 Y1 3.006571 1_556
Si1 Y0 3.028812 1_555
Si1 Y0 3.028812 1_655
Si1 Y3 3.037306 1_556
Si2 Y1 2.905564 1_555
Si2 Y1 2.905564 1_455
Si2 Y2 3.006571 1_545
Si2 Y3 3.028812 1_555
Si2 Y3 3.028812 1_455
Si2 Y0 3.037306 1_555
Si3 Y0 2.905564 1_655
Si3 Y0 2.905564 1_555
Si3 Y3 3.006571 1_565
Si3 Y2 3.028812 1_655
Si3 Y2 3.028812 1_555
Si3 Y1 3.037306 1_555
Ni0 Si0 2.396830 1_556
Ni0 Si0 2.396830 1_656
Ni0 Si3 2.522599 1_555
Ni0 Si1 2.583570 1_565
Ni0 Y2 2.858361 1_555
Ni0 Y2 2.858361 1_655
Ni0 Y1 2.921962 1_556
Ni0 Y3 3.010116 1_566
Ni0 Y0 3.165817 1_655
Ni0 Y0 3.165817 1_555
Ni1 Si1 2.396830 1_454
Ni1 Si1 2.396830 1_554
Ni1 Si2 2.522599 1_555
Ni1 Si0 2.583570 1_545
Ni1 Y3 2.858361 1_455
Ni1 Y3 2.858361 1_555
Ni1 Y0 2.921962 1_554
Ni1 Y2 3.010116 1_544
Ni1 Y1 3.165817 1_555
Ni1 Y1 3.165817 1_455
Ni2 Si2 2.396830 1_555
Ni2 Si2 2.396830 1_655
Ni2 Si1 2.522599 1_555
Ni2 Si3 2.583570 1_555
Ni2 Y0 2.858361 1_655
Ni2 Y0 2.858361 1_555
Ni2 Y3 2.921962 1_555
Ni2 Y1 3.010116 1_555
Ni2 Y2 3.165817 1_545
Ni2 Y2 3.165817 1_645
Ni3 Si3 2.396830 1_455
Ni3 Si3 2.396830 1_555
Ni3 Si0 2.522599 1_555
Ni3 Si2 2.583570 1_555
Ni3 Y1 2.858361 1_555
Ni3 Y1 2.858361 1_455
Ni3 Y2 2.921962 1_555
Ni3 Y0 3.010116 1_555
Ni3 Y3 3.165817 1_565
Ni3 Y3 3.165817 1_465
