# generated using pymatgen
data_Cs3Sb2Cl9
_symmetry_space_group_name_H-M   'P 1'
_cell_length_a   7.62122780
_cell_length_b   7.62122861
_cell_length_c   9.37098896
_cell_angle_alpha   90.00000000
_cell_angle_beta   90.00000000
_cell_angle_gamma   119.99999199
_symmetry_Int_Tables_number   1
_chemical_formula_structural   Cs3Sb2Cl9
_chemical_formula_sum   'Cs3 Sb2 Cl9'
_cell_volume   471.37443509
_cell_formula_units_Z   1
loop_
 _symmetry_equiv_pos_site_id
 _symmetry_equiv_pos_as_xyz
  1  'x, y, z'
loop_
 _atom_site_type_symbol
 _atom_site_label
 _atom_site_symmetry_multiplicity
 _atom_site_fract_x
 _atom_site_fract_y
 _atom_site_fract_z
 _atom_site_occupancy
  Cs  Cs0  1  0.66666700  0.33333300  0.66700843  1
  Cs  Cs1  1  0.33333300  0.66666700  0.33299157  1
  Cs  Cs2  1  0.00000000  -0.00000000  0.00000000  1
  Sb  Sb0  1  0.66666700  0.33333300  0.18597923  1
  Sb  Sb1  1  0.33333300  0.66666700  0.81402077  1
  Cl  Cl0  1  0.82479650  0.17520350  0.33455650  1
  Cl  Cl1  1  0.82479650  0.64959300  0.33455650  1
  Cl  Cl2  1  0.35040700  0.17520350  0.33455650  1
  Cl  Cl3  1  0.64959300  0.82479650  0.66544350  1
  Cl  Cl4  1  0.17520350  0.35040700  0.66544350  1
  Cl  Cl5  1  0.50000000  -0.00000000  0.00000000  1
  Cl  Cl6  1  0.00000000  0.50000000  0.00000000  1
  Cl  Cl7  1  0.50000000  0.50000000  0.00000000  1
  Cl  Cl8  1  0.17520350  0.82479650  0.66544350  1
loop_
_geom_bond_atom_site_label_1
_geom_bond_atom_site_label_2
_geom_bond_distance
_geom_bond_site_symmetry_2
Cl0 Sb0 2.509111 1_555
Cl0 Cs0 3.750044 1_555
Cl0 Cs1 3.812309 1_655
Cl0 Cs1 3.812309 1_545
Cl0 Cs2 3.895871 1_655
Cl1 Sb0 2.509117 1_555
Cl1 Cs0 3.750048 1_555
Cl1 Cs1 3.812304 1_655
Cl1 Cs1 3.812312 1_555
Cl1 Cs2 3.895872 1_665
Cl2 Sb0 2.509117 1_555
Cl2 Cs0 3.750048 1_555
Cl2 Cs1 3.812305 1_545
Cl2 Cs1 3.812312 1_555
Cl2 Cs2 3.895872 1_555
Cl3 Sb1 2.509117 1_555
Cl3 Cs1 3.750048 1_555
Cl3 Cs0 3.812305 1_565
Cl3 Cs0 3.812312 1_555
Cl3 Cs2 3.895872 1_666
Cl4 Sb1 2.509117 1_555
Cl4 Cs1 3.750048 1_555
Cl4 Cs0 3.812304 1_455
Cl4 Cs0 3.812312 1_555
Cl4 Cs2 3.895872 1_556
Cl5 Sb1 2.806713 1_544
Cl5 Sb0 2.806713 1_555
Cl5 Cs2 3.810614 1_655
Cl5 Cs2 3.810614 1_555
Cl5 Cs0 3.818052 1_554
Cl5 Cs1 3.818052 1_545
Cl6 Sb0 2.806712 1_455
Cl6 Sb1 2.806712 1_554
Cl6 Cs2 3.810614 1_555
Cl6 Cs2 3.810614 1_565
Cl6 Cs1 3.818052 1_555
Cl6 Cs0 3.818052 1_454
Cl7 Sb0 2.806718 1_555
Cl7 Sb1 2.806718 1_554
Cl7 Cs2 3.810615 1_555
Cl7 Cs2 3.810615 1_665
Cl7 Cs1 3.818056 1_555
Cl7 Cs0 3.818056 1_554
Cl8 Sb1 2.509111 1_555
Cl8 Cs1 3.750044 1_555
Cl8 Cs0 3.812309 1_455
Cl8 Cs0 3.812309 1_565
Cl8 Cs2 3.895871 1_566
