# generated using pymatgen
data_Na10Ta4Al4Si9(SO16)3
_symmetry_space_group_name_H-M   'P 1'
_cell_length_a   17.72613327
_cell_length_b   8.83840115
_cell_length_c   22.14185552
_cell_angle_alpha   89.94980502
_cell_angle_beta   90.72744570
_cell_angle_gamma   119.78619666
_symmetry_Int_Tables_number   1
_chemical_formula_structural   Na10Ta4Al4Si9(SO16)3
_chemical_formula_sum   'Na30 Ta12 Al12 Si27 S9 O144'
_cell_volume   3010.37420259
_cell_formula_units_Z   3
loop_
 _symmetry_equiv_pos_site_id
 _symmetry_equiv_pos_as_xyz
  1  'x, y, z'
loop_
 _atom_site_type_symbol
 _atom_site_label
 _atom_site_symmetry_multiplicity
 _atom_site_fract_x
 _atom_site_fract_y
 _atom_site_fract_z
 _atom_site_occupancy
  Na  Na0  1  0.18721625  0.36798139  0.24082431  1
  Na  Na1  1  0.68724229  0.36922712  0.24026947  1
  Na  Na2  1  0.18777559  0.00578147  0.73915788  1
  Na  Na3  1  0.68460731  0.00232668  0.74018611  1
  Na  Na4  1  0.65054649  0.33639726  0.57904333  1
  Na  Na5  1  0.02175343  0.70761009  0.57307952  1
  Na  Na6  1  0.51863569  0.69392734  0.57839474  1
  Na  Na7  1  0.32766406  0.97185134  0.58457282  1
  Na  Na8  1  0.15089429  0.96425279  0.07797288  1
  Na  Na9  1  0.65079285  0.96397848  0.07782620  1
  Na  Na10  1  0.32944528  0.69189042  0.08120818  1
  Na  Na11  1  0.82955702  0.69234140  0.08111728  1
  Na  Na12  1  0.01999152  0.34327246  0.07888973  1
  Na  Na13  1  0.51981521  0.34333856  0.07876807  1
  Na  Na14  1  0.48742256  0.67101291  0.91318249  1
  Na  Na15  1  0.98740911  0.67116158  0.91414584  1
  Na  Na16  1  0.35179933  0.66451986  0.40700662  1
  Na  Na17  1  0.85236168  0.67090196  0.40691596  1
  Na  Na18  1  0.01708045  0.02806696  0.49258872  1
  Na  Na19  1  0.51348046  0.01550926  0.49122324  1
  Na  Na20  1  0.00846197  0.02513844  0.99051954  1
  Na  Na21  1  0.50854544  0.02532372  0.99058728  1
  Na  Na22  1  0.34251083  0.32969042  0.82562278  1
  Na  Na23  1  0.84284846  0.32802557  0.82715840  1
  Na  Na24  1  0.34752697  0.33912714  0.32676155  1
  Na  Na25  1  0.84907983  0.33745330  0.32487519  1
  Na  Na26  1  0.16880465  0.67607540  0.16201034  1
  Na  Na27  1  0.66887289  0.67592506  0.16175219  1
  Na  Na28  1  0.17499287  0.65465279  0.66185939  1
  Na  Na29  1  0.67757661  0.67726414  0.65949283  1
  Ta  Ta0  1  0.99477612  0.98830015  0.64578788  1
  Ta  Ta1  1  0.49375610  0.98517566  0.64336116  1
  Ta  Ta2  1  0.99574869  0.00020457  0.14538660  1
  Ta  Ta3  1  0.49550269  0.00054220  0.14535755  1
  Ta  Ta4  1  0.33340027  0.32383234  0.97772878  1
  Ta  Ta5  1  0.83340443  0.32382364  0.97790695  1
  Ta  Ta6  1  0.33230255  0.33612877  0.47899777  1
  Ta  Ta7  1  0.82970238  0.33931950  0.47634141  1
  Ta  Ta8  1  0.16044854  0.64775027  0.31128995  1
  Ta  Ta9  1  0.66084211  0.65188095  0.31150723  1
  Ta  Ta10  1  0.16290834  0.67579730  0.81112942  1
  Ta  Ta11  1  0.66264435  0.67596018  0.81111650  1
  Al  Al0  1  0.00107155  0.00104375  0.35473982  1
  Al  Al1  1  0.50071687  0.99888116  0.35411962  1
  Al  Al2  1  0.00000216  0.00672556  0.85368366  1
  Al  Al3  1  0.50053054  0.00660302  0.85362305  1
  Al  Al4  1  0.34279933  0.33880699  0.68463877  1
  Al  Al5  1  0.83482780  0.33319689  0.68817999  1
  Al  Al6  1  0.34334876  0.34815161  0.18483398  1
  Al  Al7  1  0.84335269  0.34816811  0.18449651  1
  Al  Al8  1  0.15869766  0.66242253  0.02217623  1
  Al  Al9  1  0.65873311  0.66229308  0.02221619  1
  Al  Al10  1  0.16532854  0.66320449  0.51936047  1
  Al  Al11  1  0.66007371  0.65742537  0.52450241  1
  Si  Si0  1  0.35764636  0.70604706  0.25468082  1
  Si  Si1  1  0.85809841  0.70666734  0.25506575  1
  Si  Si2  1  0.98916117  0.27361964  0.25279809  1
  Si  Si3  1  0.48936565  0.27429320  0.25325975  1
  Si  Si4  1  0.98916627  0.70081162  0.75405545  1
  Si  Si5  1  0.48847940  0.70111748  0.75437376  1
  Si  Si6  1  0.35941776  0.01039669  0.75327331  1
  Si  Si7  1  0.85896707  0.01099845  0.75383983  1
  Si  Si8  1  0.47935569  0.33828246  0.58471955  1
  Si  Si9  1  0.19039133  0.04587555  0.58642169  1
  Si  Si10  1  0.69492814  0.04044857  0.58776935  1
  Si  Si11  1  0.32123502  0.60302939  0.58607432  1
  Si  Si12  1  0.82826494  0.61512223  0.58567729  1
  Si  Si13  1  0.47877726  0.61936362  0.08307979  1
  Si  Si14  1  0.97889909  0.61954542  0.08302231  1
  Si  Si15  1  0.32684058  0.04341365  0.08651585  1
  Si  Si16  1  0.82692435  0.04320366  0.08656224  1
  Si  Si17  1  0.19317431  0.34073528  0.08675339  1
  Si  Si18  1  0.69314878  0.34078928  0.08683260  1
  Si  Si19  1  0.02523687  0.36923589  0.91926260  1
  Si  Si20  1  0.52533728  0.36914110  0.91923844  1
  Si  Si21  1  0.16208669  0.95729637  0.91901342  1
  Si  Si22  1  0.66228203  0.95741459  0.91924469  1
  Si  Si23  1  0.15859188  0.36632802  0.41965579  1
  Si  Si24  1  0.65606497  0.36752101  0.41964767  1
  Si  Si25  1  0.02565066  0.67823821  0.42081952  1
  Si  Si26  1  0.52477563  0.67783923  0.42093543  1
  S  S0  1  0.14339804  0.99739644  0.25283684  1
  S  S1  1  0.64384710  0.99839856  0.25249872  1
  S  S2  1  0.14231705  0.28602478  0.75260156  1
  S  S3  1  0.64465413  0.28905150  0.75169825  1
  S  S4  1  0.97736820  0.33373844  0.58486771  1
  S  S5  1  0.30990837  0.66922122  0.91873031  1
  S  S6  1  0.81023895  0.66950637  0.91864612  1
  S  S7  1  0.30983813  0.95524770  0.41755397  1
  S  S8  1  0.80949032  0.95255371  0.41869533  1
  O  O0  1  0.09699356  0.01107618  0.30474227  1
  O  O1  1  0.59726389  0.01108539  0.30466394  1
  O  O2  1  0.41344507  0.80332228  0.31430153  1
  O  O3  1  0.91390622  0.80345696  0.31480334  1
  O  O4  1  0.48856020  0.15903622  0.30885818  1
  O  O5  1  0.98806186  0.15894277  0.30864551  1
  O  O6  1  0.09923529  0.17743734  0.80522117  1
  O  O7  1  0.60162731  0.17858641  0.80372238  1
  O  O8  1  0.48844724  0.80639035  0.81373501  1
  O  O9  1  0.98562842  0.80248807  0.81309403  1
  O  O10  1  0.42011637  0.02606275  0.80924429  1
  O  O11  1  0.91884606  0.02735369  0.81041941  1
  O  O12  1  0.40324988  0.98210054  0.69007207  1
  O  O13  1  0.90542024  0.98535707  0.69194647  1
  O  O14  1  0.08957857  0.20836223  0.69597823  1
  O  O15  1  0.59372426  0.21292951  0.69418751  1
  O  O16  1  0.01427571  0.83384305  0.69403321  1
  O  O17  1  0.51476073  0.83330393  0.69435699  1
  O  O18  1  0.40557203  0.82848161  0.19355743  1
  O  O19  1  0.90589184  0.82856728  0.19384453  1
  O  O20  1  0.01663342  0.20190789  0.19123317  1
  O  O21  1  0.51676591  0.20221508  0.19160696  1
  O  O22  1  0.09314707  0.97423198  0.19474108  1
  O  O23  1  0.59330678  0.97461910  0.19458621  1
  O  O24  1  0.43433082  0.36980408  0.64144617  1
  O  O25  1  0.93487934  0.35407360  0.63810569  1
  O  O26  1  0.25107895  0.13218666  0.64559514  1
  O  O27  1  0.74833150  0.13677587  0.64840663  1
  O  O28  1  0.31227580  0.48564095  0.64265310  1
  O  O29  1  0.81819896  0.48695674  0.63990492  1
  O  O30  1  0.43311362  0.49361467  0.13882183  1
  O  O31  1  0.93310803  0.49397279  0.13872122  1
  O  O32  1  0.30902503  0.13695025  0.14153068  1
  O  O33  1  0.80887290  0.13684090  0.14139086  1
  O  O34  1  0.25135792  0.37039984  0.14699505  1
  O  O35  1  0.75134359  0.37059968  0.14706800  1
  O  O36  1  0.23878177  0.30139450  0.02822808  1
  O  O37  1  0.73880441  0.30146845  0.02835280  1
  O  O38  1  0.41805828  0.54450231  0.02089019  1
  O  O39  1  0.91818797  0.54456314  0.02082412  1
  O  O40  1  0.35398598  0.17122009  0.02579343  1
  O  O41  1  0.85403701  0.17117622  0.02585983  1
  O  O42  1  0.23697993  0.16443983  0.52587687  1
  O  O43  1  0.74281091  0.17348637  0.52920514  1
  O  O44  1  0.34752804  0.53339773  0.52417691  1
  O  O45  1  0.85242122  0.53827140  0.52343230  1
  O  O46  1  0.41519080  0.29471665  0.52450832  1
  O  O47  1  0.92589211  0.30891943  0.52846152  1
  O  O48  1  0.26816918  0.68140014  0.97402041  1
  O  O49  1  0.76832550  0.68124417  0.97399893  1
  O  O50  1  0.07858232  0.46498228  0.98057997  1
  O  O51  1  0.57866408  0.46437100  0.98063966  1
  O  O52  1  0.15122725  0.83425066  0.97630910  1
  O  O53  1  0.65179277  0.83434329  0.97642887  1
  O  O54  1  0.26865756  0.85715751  0.47328366  1
  O  O55  1  0.76651193  0.84541201  0.47127103  1
  O  O56  1  0.15444792  0.48060578  0.47460257  1
  O  O57  1  0.65344579  0.47070861  0.47817305  1
  O  O58  1  0.07989324  0.69215079  0.48171004  1
  O  O59  1  0.58034250  0.69482889  0.48112291  1
  O  O60  1  0.07597285  0.65445061  0.36171928  1
  O  O61  1  0.57593626  0.65587632  0.36134944  1
  O  O62  1  0.25734584  0.86479662  0.36284749  1
  O  O63  1  0.75857657  0.87689309  0.36173094  1
  O  O64  1  0.18005168  0.49165247  0.35728390  1
  O  O65  1  0.68159819  0.49805283  0.35946273  1
  O  O66  1  0.07565873  0.50336837  0.86173255  1
  O  O67  1  0.57617369  0.50324042  0.86186924  1
  O  O68  1  0.17815922  0.86744696  0.85745981  1
  O  O69  1  0.67823875  0.86790482  0.85761385  1
  O  O70  1  0.25789531  0.65226473  0.86365062  1
  O  O71  1  0.75844242  0.65286819  0.86353412  1
  O  O72  1  0.00612034  0.83844670  0.41222816  1
  O  O73  1  0.50673743  0.84021460  0.41122064  1
  O  O74  1  0.39645414  0.97061151  0.41470945  1
  O  O75  1  0.89683495  0.97135357  0.41444998  1
  O  O76  1  0.07585851  0.17695351  0.40842219  1
  O  O77  1  0.57615810  0.17633593  0.40802508  1
  O  O78  1  0.01179053  0.17803741  0.90908752  1
  O  O79  1  0.51188426  0.17802651  0.90858180  1
  O  O80  1  0.07475462  0.97001949  0.90932018  1
  O  O81  1  0.57512099  0.97107056  0.91012371  1
  O  O82  1  0.39842752  0.82171976  0.91568706  1
  O  O83  1  0.89874143  0.82189381  0.91583041  1
  O  O84  1  0.48999258  0.16165838  0.58868190  1
  O  O85  1  0.98881188  0.17766774  0.58857805  1
  O  O86  1  0.09251583  0.02813492  0.59070822  1
  O  O87  1  0.59650712  0.02771099  0.59028089  1
  O  O88  1  0.41448785  0.80142477  0.59041511  1
  O  O89  1  0.91910285  0.80913027  0.58989318  1
  O  O90  1  0.48959497  0.81657293  0.08990262  1
  O  O91  1  0.98952765  0.81649011  0.08971666  1
  O  O92  1  0.41682886  0.02676362  0.09088809  1
  O  O93  1  0.91677541  0.02626220  0.09093596  1
  O  O94  1  0.09574026  0.16136895  0.09070798  1
  O  O95  1  0.59571817  0.16151383  0.09082506  1
  O  O96  1  0.33994172  0.17013746  0.74422532  1
  O  O97  1  0.84031697  0.17218878  0.74430434  1
  O  O98  1  0.22794025  0.30038759  0.74805442  1
  O  O99  1  0.73135495  0.30512289  0.74759039  1
  O  O100  1  0.40579319  0.51256471  0.74417182  1
  O  O101  1  0.90847671  0.51057165  0.74131568  1
  O  O102  1  0.34121099  0.50953469  0.24516360  1
  O  O103  1  0.84132678  0.50977360  0.24544326  1
  O  O104  1  0.40665591  0.29770416  0.24230304  1
  O  O105  1  0.90652962  0.29702308  0.24157113  1
  O  O106  1  0.22856865  0.15576360  0.24982726  1
  O  O107  1  0.72868201  0.15630731  0.24979530  1
  O  O108  1  0.31847446  0.50749151  0.91868212  1
  O  O109  1  0.81875748  0.50765390  0.91862517  1
  O  O110  1  0.42984820  0.36836239  0.92074572  1
  O  O111  1  0.92966862  0.36830269  0.92068814  1
  O  O112  1  0.25036897  0.15069481  0.92135171  1
  O  O113  1  0.75054615  0.15105257  0.92133955  1
  O  O114  1  0.31727675  0.13039924  0.41747015  1
  O  O115  1  0.82016164  0.13208152  0.42298149  1
  O  O116  1  0.25047899  0.35722327  0.42185831  1
  O  O117  1  0.74968164  0.35772865  0.42273249  1
  O  O118  1  0.42668744  0.49667510  0.42155556  1
  O  O119  1  0.92754927  0.49325474  0.42245110  1
  O  O120  1  0.17992187  0.50857292  0.07644242  1
  O  O121  1  0.67996828  0.50871052  0.07655213  1
  O  O122  1  0.07647690  0.64835563  0.07789070  1
  O  O123  1  0.57636713  0.64818203  0.07783856  1
  O  O124  1  0.24761723  0.84801463  0.07397818  1
  O  O125  1  0.74758695  0.84776648  0.07409017  1
  O  O126  1  0.17576443  0.84731012  0.57733504  1
  O  O127  1  0.67841594  0.84615631  0.57785143  1
  O  O128  1  0.24536636  0.65185151  0.57455112  1
  O  O129  1  0.74515337  0.63776264  0.57499171  1
  O  O130  1  0.06427986  0.49215799  0.58112397  1
  O  O131  1  0.57598168  0.50384899  0.57850811  1
  O  O132  1  0.15373464  0.84003633  0.25542457  1
  O  O133  1  0.65415615  0.84070971  0.25491014  1
  O  O134  1  0.25884985  0.69122344  0.25593731  1
  O  O135  1  0.75932503  0.69201706  0.25662541  1
  O  O136  1  0.08062851  0.47362239  0.25651983  1
  O  O137  1  0.58155107  0.47418392  0.25735878  1
  O  O138  1  0.15182070  0.46349455  0.75673506  1
  O  O139  1  0.65474850  0.46634243  0.75655091  1
  O  O140  1  0.08232314  0.69020734  0.75543777  1
  O  O141  1  0.58167002  0.68821220  0.75631428  1
  O  O142  1  0.26041418  0.82647774  0.75654974  1
  O  O143  1  0.76022173  0.82892160  0.75655954  1
loop_
_geom_bond_atom_site_label_1
_geom_bond_atom_site_label_2
_geom_bond_distance
_geom_bond_site_symmetry_2
Na0 O106 2.335982 1_555
Na0 O102 2.372002 1_555
Na0 O34 2.375958 1_555
Na0 O134 2.504617 1_555
Na0 O136 2.516406 1_555
Na0 O64 2.830444 1_555
Na0 O20 2.830596 1_555
Na1 O107 2.343991 1_555
Na1 O35 2.365527 1_555
Na1 O103 2.374387 1_555
Na1 O137 2.501804 1_555
Na1 O135 2.504276 1_555
Na1 O21 2.821346 1_555
Na1 O65 2.897717 1_555
Na2 O98 2.341197 1_555
Na2 O96 2.344780 1_555
Na2 O26 2.368230 1_555
Na2 O140 2.497788 1_545
Na2 O142 2.516216 1_545
Na2 O16 2.836800 1_545
Na2 O68 2.860767 1_545
Na3 O27 2.353338 1_555
Na3 O99 2.381128 1_555
Na3 O97 2.399461 1_555
Na3 O141 2.479201 1_545
Na3 O143 2.510889 1_545
Na3 O17 2.789687 1_545
Na3 O69 2.837852 1_545
Na4 O129 2.341058 1_555
Na4 O87 2.414829 1_555
Na4 O131 2.425010 1_555
Na4 O84 2.485630 1_555
Na4 O57 2.517503 1_555
Na4 O15 2.770133 1_555
Na4 O43 2.890341 1_555
Na4 O29 2.896714 1_555
Na5 O58 2.316682 1_555
Na5 O126 2.372992 1_555
Na5 O130 2.376626 1_555
Na5 O89 2.427868 1_455
Na5 O86 2.492036 1_565
Na5 O45 2.813153 1_455
Na5 O16 2.931887 1_555
Na6 O131 2.356334 1_555
Na6 O59 2.426192 1_555
Na6 O127 2.459068 1_555
Na6 O88 2.477370 1_555
Na6 O87 2.573732 1_565
Na6 O24 2.860342 1_555
Na6 O17 2.865130 1_555
Na6 O44 2.879018 1_555
Na7 O126 2.352031 1_555
Na7 O128 2.463781 1_555
Na7 O84 2.509981 1_565
Na7 O88 2.636706 1_555
Na7 O12 2.657134 1_555
Na7 O54 2.660669 1_555
Na7 O26 2.763702 1_565
Na7 O46 2.822412 1_565
Na8 O124 2.399360 1_555
Na8 O94 2.402229 1_565
Na8 O122 2.424097 1_555
Na8 O91 2.502389 1_455
Na8 O52 2.529621 1_554
Na8 O32 2.796450 1_565
Na8 O22 2.810256 1_555
Na8 O36 2.818694 1_565
Na9 O125 2.400091 1_555
Na9 O95 2.405311 1_565
Na9 O123 2.423320 1_555
Na9 O90 2.500768 1_555
Na9 O53 2.525743 1_554
Na9 O33 2.795944 1_565
Na9 O23 2.809527 1_555
Na9 O37 2.818796 1_565
Na10 O120 2.321184 1_555
Na10 O124 2.452742 1_555
Na10 O90 2.487728 1_555
Na10 O92 2.577425 1_565
Na10 O48 2.579922 1_554
Na10 O18 2.787138 1_555
Na10 O38 2.835003 1_555
Na10 O34 2.871928 1_555
Na11 O121 2.322331 1_555
Na11 O125 2.449391 1_555
Na11 O91 2.485262 1_555
Na11 O93 2.570423 1_565
Na11 O49 2.577287 1_554
Na11 O19 2.794894 1_555
Na11 O39 2.837527 1_555
Na11 O35 2.875445 1_555
Na12 O122 2.364723 1_555
Na12 O50 2.432576 1_554
Na12 O120 2.462333 1_555
Na12 O93 2.487368 1_455
Na12 O94 2.567363 1_555
Na12 O20 2.770681 1_555
Na12 O41 2.795699 1_455
Na12 O31 2.827373 1_455
Na13 O123 2.362565 1_555
Na13 O51 2.428607 1_554
Na13 O121 2.465550 1_555
Na13 O92 2.483908 1_555
Na13 O95 2.569529 1_555
Na13 O21 2.780646 1_555
Na13 O40 2.793481 1_555
Na13 O30 2.824412 1_555
Na14 O81 2.315340 1_555
Na14 O110 2.348658 1_555
Na14 O8 2.501077 1_555
Na14 O82 2.521109 1_555
Na14 O108 2.604056 1_555
Na14 O38 2.674589 1_556
Na14 O53 2.873227 1_555
Na14 O67 2.886308 1_555
Na15 O80 2.307862 1_655
Na15 O111 2.348370 1_555
Na15 O83 2.515657 1_555
Na15 O9 2.526778 1_555
Na15 O109 2.598182 1_555
Na15 O39 2.653636 1_556
Na15 O52 2.854469 1_655
Na15 O66 2.889174 1_655
Na16 O2 2.373431 1_555
Na16 O73 2.391562 1_555
Na16 O74 2.417523 1_555
Na16 O116 2.424360 1_555
Na16 O118 2.451841 1_555
Na16 O44 2.827029 1_555
Na16 O64 2.848060 1_555
Na17 O3 2.346263 1_555
Na17 O72 2.370127 1_655
Na17 O75 2.370356 1_555
Na17 O117 2.471056 1_555
Na17 O119 2.535036 1_555
Na17 O65 2.815687 1_555
Na17 O45 2.832991 1_555
Na18 O76 2.230032 1_555
Na18 O72 2.384427 1_545
Na18 O86 2.536424 1_555
Na18 O75 2.575702 1_445
Na18 O85 2.684563 1_455
Na18 O89 2.855061 1_445
Na19 O77 2.264243 1_555
Na19 O73 2.316898 1_545
Na19 O74 2.534750 1_545
Na19 O87 2.597896 1_555
Na19 O84 2.657165 1_555
Na19 O88 2.876618 1_545
Na20 O78 2.236055 1_555
Na20 O80 2.339792 1_545
Na20 O83 2.489356 1_445
Na20 O94 2.613654 1_556
Na20 O93 2.773607 1_456
Na20 O91 2.781063 1_446
Na21 O79 2.245237 1_555
Na21 O81 2.326775 1_545
Na21 O82 2.496399 1_545
Na21 O95 2.613856 1_556
Na21 O92 2.772682 1_556
Na21 O90 2.783621 1_546
Na22 O96 2.275420 1_555
Na22 O100 2.316941 1_555
Na22 O110 2.518414 1_555
Na22 O98 2.555595 1_555
Na22 O112 2.679202 1_555
Na22 O108 2.754988 1_555
Na23 O97 2.281574 1_555
Na23 O101 2.398991 1_555
Na23 O111 2.481929 1_555
Na23 O99 2.562333 1_555
Na23 O113 2.647744 1_555
Na23 O109 2.739658 1_555
Na24 O104 2.272000 1_555
Na24 O102 2.388067 1_555
Na24 O118 2.510472 1_555
Na24 O106 2.548159 1_555
Na24 O114 2.600542 1_555
Na24 O116 2.790076 1_555
Na25 O105 2.230998 1_555
Na25 O103 2.372536 1_555
Na25 O107 2.530109 1_555
Na25 O119 2.554350 1_555
Na25 O115 2.715360 1_555
Na25 O117 2.871003 1_555
Na26 O122 2.394306 1_555
Na26 O124 2.452576 1_555
Na26 O120 2.474766 1_555
Na26 O134 2.568022 1_555
Na26 O132 2.617905 1_555
Na26 O136 2.705858 1_555
Na27 O123 2.392719 1_555
Na27 O125 2.445246 1_555
Na27 O121 2.466745 1_555
Na27 O135 2.586940 1_555
Na27 O133 2.615406 1_555
Na27 O137 2.718645 1_555
Na28 O128 2.320750 1_555
Na28 O130 2.494964 1_555
Na28 O126 2.524717 1_555
Na28 O142 2.575892 1_555
Na28 O138 2.600477 1_555
Na28 O140 2.773219 1_555
Na29 O127 2.338830 1_555
Na29 O129 2.351817 1_555
Na29 O131 2.447086 1_555
Na29 O143 2.556602 1_555
Na29 O139 2.742810 1_555
Na29 O141 2.784205 1_555
Al0 O5 1.831323 1_455
Al0 O76 1.871629 1_555
Al0 O3 1.872484 1_445
Al0 O72 1.953257 1_545
Al0 O0 2.005576 1_555
Al0 O75 2.193291 1_445
Al1 O4 1.830179 1_565
Al1 O2 1.862638 1_555
Al1 O77 1.884612 1_565
Al1 O73 1.928386 1_555
Al1 O1 2.000907 1_565
Al1 O74 2.209428 1_555
Al2 O11 1.801588 1_455
Al2 O78 1.877108 1_555
Al2 O9 1.916040 1_445
Al2 O80 1.939997 1_545
Al2 O6 1.982509 1_555
Al2 O83 2.220261 1_445
Al3 O10 1.798531 1_555
Al3 O79 1.873749 1_555
Al3 O8 1.891724 1_545
Al3 O81 1.944679 1_545
Al3 O7 2.020831 1_555
Al3 O82 2.226033 1_545
Al4 O24 1.794298 1_555
Al4 O28 1.877221 1_555
Al4 O100 1.898778 1_555
Al4 O26 1.934656 1_555
Al4 O96 1.972026 1_555
Al4 O98 2.370045 1_555
Al5 O29 1.861111 1_555
Al5 O27 1.861205 1_555
Al5 O101 1.864695 1_555
Al5 O97 1.926201 1_555
Al5 O25 2.033024 1_555
Al5 O99 2.182822 1_555
Al6 O30 1.796973 1_555
Al6 O104 1.880736 1_555
Al6 O32 1.906291 1_555
Al6 O34 1.919167 1_555
Al6 O102 1.969435 1_555
Al6 O106 2.394727 1_555
Al7 O31 1.794693 1_555
Al7 O105 1.876574 1_555
Al7 O33 1.904542 1_555
Al7 O35 1.916458 1_555
Al7 O103 1.979414 1_555
Al7 O107 2.396555 1_555
Al8 O50 1.848703 1_554
Al8 O122 1.877981 1_555
Al8 O52 1.883890 1_554
Al8 O124 1.969600 1_555
Al8 O120 1.981974 1_555
Al8 O48 2.158577 1_554
Al9 O51 1.850650 1_554
Al9 O123 1.878434 1_555
Al9 O53 1.880248 1_554
Al9 O125 1.969615 1_555
Al9 O121 1.981168 1_555
Al9 O49 2.161208 1_554
Al10 O56 1.820063 1_555
Al10 O58 1.845660 1_555
Al10 O128 1.900919 1_555
Al10 O126 2.007077 1_555
Al10 O54 2.063777 1_555
Al10 O130 2.175383 1_555
Al11 O59 1.859710 1_555
Al11 O131 1.877898 1_555
Al11 O57 1.896522 1_555
Al11 O127 1.933495 1_555
Al11 O129 1.942080 1_555
Al11 O55 2.155937 1_555
O0 S0 1.461216 1_545
O1 S1 1.464569 1_545
O2 Si0 1.607528 1_555
O3 Si1 1.608709 1_555
O4 Si3 1.592864 1_555
O5 Si2 1.592348 1_555
O6 S2 1.467717 1_555
O7 S3 1.463675 1_555
O8 Si5 1.611204 1_555
O9 Si4 1.606388 1_555
O10 Si6 1.590955 1_555
O11 Si7 1.590936 1_555
O12 Si6 1.686954 1_565
O12 Ta1 1.908682 1_555
O13 Si7 1.679911 1_565
O13 Ta0 1.885261 1_555
O14 S2 1.500397 1_555
O14 Ta0 2.133312 1_445
O15 S3 1.502686 1_555
O15 Ta1 2.206368 1_545
O16 Si4 1.684982 1_455
O16 Ta0 1.892391 1_455
O17 Si5 1.679335 1_555
O17 Ta1 1.923171 1_555
O18 Si0 1.684527 1_555
O18 Ta3 1.903855 1_565
O19 Si1 1.683980 1_555
O19 Ta2 1.905109 1_565
O20 Si2 1.679913 1_455
O20 Ta2 1.919271 1_455
O21 Si3 1.682569 1_555
O21 Ta3 1.921934 1_555
O22 S0 1.510043 1_555
O22 Ta2 2.138484 1_465
O23 S1 1.508403 1_555
O23 Ta3 2.143019 1_565
O24 Si8 1.593490 1_555
O25 S4 1.465095 1_555
O26 Si9 1.614458 1_555
O27 Si10 1.610155 1_555
O28 Si11 1.584347 1_555
O29 Si12 1.599671 1_555
O30 Si13 1.594658 1_555
O31 Si14 1.593611 1_555
O32 Si15 1.593094 1_555
O33 Si16 1.592438 1_555
O34 Si17 1.615139 1_555
O35 Si18 1.614936 1_555
O36 Si17 1.661448 1_555
O36 Ta4 1.954333 1_554
O37 Si18 1.661089 1_555
O37 Ta5 1.953614 1_554
O38 Si13 1.657941 1_555
O38 Ta4 2.007033 1_554
O39 Si14 1.658120 1_555
O39 Ta5 2.005457 1_554
O40 Si15 1.670024 1_555
O40 Ta4 1.887272 1_554
O41 Si16 1.670471 1_555
O41 Ta5 1.886588 1_554
O42 Si9 1.656236 1_555
O42 Ta6 1.931193 1_555
O43 Si10 1.678754 1_555
O43 Ta7 1.921081 1_555
O44 Si11 1.666432 1_555
O44 Ta6 1.908445 1_555
O45 Si12 1.688135 1_555
O45 Ta7 1.905355 1_555
O46 Si8 1.657286 1_555
O46 Ta6 1.950455 1_555
O47 S4 1.487699 1_555
O47 Ta7 2.171618 1_555
O48 S5 1.469723 1_555
O49 S6 1.471329 1_555
O50 Si19 1.621104 1_555
O51 Si20 1.621486 1_555
O52 Si21 1.620183 1_555
O53 Si22 1.619745 1_555
O54 S7 1.483027 1_555
O55 S8 1.461555 1_555
O56 Si23 1.607442 1_555
O57 Si24 1.599639 1_555
O58 Si25 1.614699 1_555
O59 Si26 1.608976 1_555
O60 Si25 1.663957 1_555
O60 Ta8 1.903488 1_555
O61 Si26 1.675265 1_555
O61 Ta9 1.891932 1_555
O62 S7 1.485324 1_555
O62 Ta8 2.147984 1_555
O63 S8 1.491820 1_555
O63 Ta9 2.173705 1_555
O64 Si23 1.694374 1_555
O64 Ta8 1.877813 1_555
O65 Si24 1.674972 1_555
O65 Ta9 1.896280 1_555
O66 Si19 1.673453 1_555
O66 Ta10 1.915511 1_555
O67 Si20 1.672020 1_555
O67 Ta11 1.912761 1_555
O68 Si21 1.675074 1_555
O68 Ta10 1.880344 1_555
O69 Si22 1.673943 1_555
O69 Ta11 1.882639 1_555
O70 S5 1.481336 1_555
O70 Ta10 2.128016 1_555
O71 S6 1.480350 1_555
O71 Ta11 2.136873 1_555
O72 Si25 1.626638 1_555
O73 Si26 1.631489 1_555
O74 S7 1.474808 1_555
O75 S8 1.477056 1_555
O76 Si23 1.602127 1_555
O77 Si24 1.594173 1_555
O78 Si19 1.600755 1_555
O79 Si20 1.601508 1_555
O80 Si21 1.618542 1_555
O81 Si22 1.618572 1_555
O82 S5 1.478042 1_555
O83 S6 1.477200 1_555
O84 Si8 1.664926 1_555
O84 Ta1 2.000332 1_545
O85 S4 1.492672 1_555
O85 Ta0 2.141441 1_545
O86 Si9 1.666594 1_555
O86 Ta0 2.014914 1_445
O87 Si10 1.693161 1_555
O87 Ta1 2.052644 1_545
O88 Si11 1.712572 1_555
O88 Ta1 1.918478 1_555
O89 Si12 1.671831 1_555
O89 Ta0 1.920823 1_555
O90 Si13 1.662934 1_555
O90 Ta3 1.998389 1_565
O91 Si14 1.661727 1_555
O91 Ta2 1.997560 1_565
O92 Si15 1.674750 1_555
O92 Ta3 1.931594 1_555
O93 Si16 1.673777 1_555
O93 Ta2 1.934755 1_555
O94 Si17 1.669470 1_555
O94 Ta2 2.044370 1_455
O95 Si18 1.669140 1_555
O95 Ta3 2.044073 1_555
O96 Si6 1.623166 1_555
O97 Si7 1.627630 1_555
O98 S2 1.463661 1_555
O99 S3 1.475484 1_555
O100 Si5 1.594368 1_555
O101 Si4 1.598038 1_555
O102 Si0 1.625515 1_555
O103 Si1 1.627019 1_555
O104 Si3 1.594826 1_555
O105 Si2 1.594278 1_555
O106 S0 1.464862 1_545
O107 S1 1.459377 1_545
O108 S5 1.510624 1_555
O108 Ta4 2.197373 1_555
O109 S6 1.511223 1_555
O109 Ta5 2.199304 1_555
O110 Si20 1.689998 1_555
O110 Ta4 2.013727 1_555
O111 Si19 1.690670 1_655
O111 Ta5 2.014689 1_555
O112 Si21 1.647388 1_545
O112 Ta4 1.945556 1_555
O113 Si22 1.648347 1_545
O113 Ta5 1.945801 1_555
O114 S7 1.486969 1_545
O114 Ta6 2.178793 1_555
O115 S8 1.504702 1_545
O115 Ta7 2.114336 1_555
O116 Si23 1.670345 1_555
O116 Ta6 1.990173 1_555
O117 Si24 1.704634 1_555
O117 Ta7 1.906221 1_555
O118 Si26 1.679801 1_555
O118 Ta6 2.030401 1_555
O119 Si25 1.695622 1_655
O119 Ta7 1.997090 1_555
O120 Si17 1.628526 1_555
O121 Si18 1.628401 1_555
O122 Si14 1.623849 1_455
O123 Si13 1.624237 1_555
O124 Si15 1.616514 1_565
O125 Si16 1.617174 1_565
O126 Si9 1.653765 1_565
O127 Si10 1.606996 1_565
O128 Si11 1.620988 1_555
O129 Si12 1.597010 1_555
O130 S4 1.483479 1_455
O131 Si8 1.615368 1_555
O132 S0 1.491306 1_555
O132 Ta8 2.150832 1_555
O133 S1 1.493772 1_555
O133 Ta9 2.135164 1_555
O134 Si0 1.690618 1_555
O134 Ta8 2.019860 1_555
O135 Si1 1.691091 1_555
O135 Ta9 2.021856 1_555
O136 Si2 1.705785 1_455
O136 Ta8 1.907200 1_555
O137 Si3 1.711138 1_555
O137 Ta9 1.909701 1_555
O138 S2 1.494801 1_555
O138 Ta10 2.154454 1_555
O139 S3 1.490030 1_555
O139 Ta11 2.157253 1_555
O140 Si4 1.699714 1_455
O140 Ta10 1.926930 1_555
O141 Si5 1.711447 1_555
O141 Ta11 1.911637 1_555
O142 Si6 1.701837 1_565
O142 Ta10 1.996178 1_555
O143 Si7 1.691475 1_565
O143 Ta11 2.001413 1_555
