# generated using pymatgen
data_Sc3C4
_symmetry_space_group_name_H-M   'P 1'
_cell_length_a   7.51609489
_cell_length_b   7.51609489
_cell_length_c   15.04996468
_cell_angle_alpha   90.00000000
_cell_angle_beta   90.00000000
_cell_angle_gamma   90.00000000
_symmetry_Int_Tables_number   1
_chemical_formula_structural   Sc3C4
_chemical_formula_sum   'Sc30 C40'
_cell_volume   850.19782477
_cell_formula_units_Z   10
loop_
 _symmetry_equiv_pos_site_id
 _symmetry_equiv_pos_as_xyz
  1  'x, y, z'
loop_
 _atom_site_type_symbol
 _atom_site_label
 _atom_site_symmetry_multiplicity
 _atom_site_fract_x
 _atom_site_fract_y
 _atom_site_fract_z
 _atom_site_occupancy
  Sc  Sc0  1  0.78729400  0.60003805  0.64354693  1
  Sc  Sc1  1  0.21270600  0.39996195  0.64354693  1
  Sc  Sc2  1  0.10003805  0.28729400  0.85645307  1
  Sc  Sc3  1  0.60003805  0.21270600  0.64354693  1
  Sc  Sc4  1  0.39996195  0.78729400  0.64354693  1
  Sc  Sc5  1  0.71270600  0.10003805  0.85645307  1
  Sc  Sc6  1  0.28729400  0.89996195  0.85645307  1
  Sc  Sc7  1  0.89996195  0.71270600  0.85645307  1
  Sc  Sc8  1  0.21270600  0.39996195  0.35645307  1
  Sc  Sc9  1  0.78729400  0.60003805  0.35645307  1
  Sc  Sc10  1  0.89996195  0.71270600  0.14354693  1
  Sc  Sc11  1  0.39996195  0.78729400  0.35645307  1
  Sc  Sc12  1  0.60003805  0.21270600  0.35645307  1
  Sc  Sc13  1  0.28729400  0.89996195  0.14354693  1
  Sc  Sc14  1  0.71270600  0.10003805  0.14354693  1
  Sc  Sc15  1  0.10003805  0.28729400  0.14354693  1
  Sc  Sc16  1  0.30184387  0.09686642  0.50000000  1
  Sc  Sc17  1  0.69815613  0.90313358  0.50000000  1
  Sc  Sc18  1  0.59686642  0.80184387  -0.00000000  1
  Sc  Sc19  1  0.09686642  0.69815613  0.50000000  1
  Sc  Sc20  1  0.90313358  0.30184387  0.50000000  1
  Sc  Sc21  1  0.19815613  0.59686642  -0.00000000  1
  Sc  Sc22  1  0.80184387  0.40313358  -0.00000000  1
  Sc  Sc23  1  0.40313358  0.19815613  -0.00000000  1
  Sc  Sc24  1  0.50000000  0.50000000  0.81233899  1
  Sc  Sc25  1  -0.00000000  -0.00000000  0.68766101  1
  Sc  Sc26  1  0.50000000  0.50000000  0.18766101  1
  Sc  Sc27  1  -0.00000000  -0.00000000  0.31233899  1
  Sc  Sc28  1  0.50000000  0.50000000  0.50000000  1
  Sc  Sc29  1  -0.00000000  -0.00000000  -0.00000000  1
  C  C0  1  0.35016751  0.14983249  0.75000000  1
  C  C1  1  0.85016751  0.35016751  0.75000000  1
  C  C2  1  0.14983249  0.64983249  0.75000000  1
  C  C3  1  0.64983249  0.85016751  0.75000000  1
  C  C4  1  0.64983249  0.85016751  0.25000000  1
  C  C5  1  0.14983249  0.64983249  0.25000000  1
  C  C6  1  0.85016751  0.35016751  0.25000000  1
  C  C7  1  0.35016751  0.14983249  0.25000000  1
  C  C8  1  0.69307908  0.90274533  0.66789616  1
  C  C9  1  0.30692092  0.09725467  0.66789616  1
  C  C10  1  0.40274533  0.19307908  0.83210384  1
  C  C11  1  0.90274533  0.30692092  0.66789616  1
  C  C12  1  0.09725467  0.69307908  0.66789616  1
  C  C13  1  0.80692092  0.40274533  0.83210384  1
  C  C14  1  0.19307908  0.59725467  0.83210384  1
  C  C15  1  0.59725467  0.80692092  0.83210384  1
  C  C16  1  0.30692092  0.09725467  0.33210384  1
  C  C17  1  0.69307908  0.90274533  0.33210384  1
  C  C18  1  0.59725467  0.80692092  0.16789616  1
  C  C19  1  0.09725467  0.69307908  0.33210384  1
  C  C20  1  0.90274533  0.30692092  0.33210384  1
  C  C21  1  0.19307908  0.59725467  0.16789616  1
  C  C22  1  0.80692092  0.40274533  0.16789616  1
  C  C23  1  0.40274533  0.19307908  0.16789616  1
  C  C24  1  0.39365696  0.80331242  0.50000000  1
  C  C25  1  0.60634304  0.19668758  0.50000000  1
  C  C26  1  0.30331242  0.89365696  -0.00000000  1
  C  C27  1  0.80331242  0.60634304  0.50000000  1
  C  C28  1  0.19668758  0.39365696  0.50000000  1
  C  C29  1  0.10634304  0.30331242  -0.00000000  1
  C  C30  1  -0.00000000  -0.00000000  0.54263790  1
  C  C31  1  0.50000000  0.50000000  0.95736210  1
  C  C32  1  -0.00000000  -0.00000000  0.45736210  1
  C  C33  1  0.50000000  0.50000000  0.04263790  1
  C  C34  1  -0.00000000  -0.00000000  0.15697335  1
  C  C35  1  0.50000000  0.50000000  0.34302665  1
  C  C36  1  -0.00000000  -0.00000000  0.84302665  1
  C  C37  1  0.50000000  0.50000000  0.65697335  1
  C  C38  1  0.69668758  0.10634304  -0.00000000  1
  C  C39  1  0.89365696  0.69668758  -0.00000000  1
loop_
_geom_bond_atom_site_label_1
_geom_bond_atom_site_label_2
_geom_bond_distance
_geom_bond_site_symmetry_2
C0 C10 1.337414 1_555
C0 C9 1.337414 1_555
C0 Sc3 2.513397 1_555
C0 Sc6 2.513397 1_545
C0 Sc2 2.677426 1_555
C0 Sc1 2.677426 1_555
C1 C13 1.337414 1_555
C1 C11 1.337414 1_555
C1 Sc2 2.513397 1_655
C1 Sc0 2.513397 1_555
C1 Sc5 2.677426 1_555
C1 Sc3 2.677426 1_555
C2 Sc1 2.513397 1_555
C2 Sc7 2.513397 1_455
C2 Sc4 2.677426 1_555
C2 Sc6 2.677426 1_555
C3 C8 1.337414 1_555
C3 Sc5 2.513397 1_565
C3 Sc4 2.513397 1_555
C3 Sc0 2.677426 1_555
C3 Sc7 2.677426 1_555
C4 Sc14 2.513397 1_565
C4 Sc11 2.513397 1_555
C4 Sc9 2.677426 1_555
C4 Sc10 2.677426 1_555
C5 Sc8 2.513397 1_555
C5 Sc10 2.513397 1_455
C5 Sc11 2.677426 1_555
C5 Sc13 2.677426 1_555
C6 Sc15 2.513397 1_655
C6 Sc9 2.513397 1_555
C6 Sc14 2.677426 1_555
C6 Sc12 2.677426 1_555
C7 Sc12 2.513397 1_555
C7 Sc13 2.513397 1_545
C7 Sc15 2.677426 1_555
C7 Sc8 2.677426 1_555
C8 Sc4 2.396018 1_555
C8 Sc0 2.410843 1_555
C8 Sc25 2.438104 1_665
C8 Sc3 2.459835 1_565
C8 Sc17 2.527121 1_555
C9 Sc3 2.396018 1_555
C9 Sc1 2.410843 1_555
C9 Sc25 2.438104 1_555
C9 Sc4 2.459835 1_545
C9 Sc16 2.527121 1_555
C10 Sc6 2.396018 1_545
C10 Sc2 2.410843 1_555
C10 Sc24 2.438104 1_555
C10 Sc5 2.459835 1_555
C10 Sc23 2.527121 1_556
C11 Sc0 2.396018 1_555
C11 Sc3 2.410843 1_555
C11 Sc25 2.438104 1_655
C11 Sc1 2.459835 1_655
C11 Sc20 2.527121 1_555
C12 C2 1.337414 1_555
C12 Sc1 2.396018 1_555
C12 Sc4 2.410843 1_555
C12 Sc25 2.438104 1_565
C12 Sc0 2.459835 1_455
C12 Sc19 2.527121 1_555
C13 Sc2 2.396018 1_655
C13 Sc5 2.410843 1_555
C13 Sc24 2.438104 1_555
C13 Sc7 2.459835 1_555
C13 Sc22 2.527121 1_556
C14 C2 1.337414 1_555
C14 Sc7 2.396018 1_455
C14 Sc6 2.410843 1_555
C14 Sc24 2.438104 1_555
C14 Sc2 2.459835 1_555
C14 Sc21 2.527121 1_556
C15 C3 1.337414 1_555
C15 Sc5 2.396018 1_565
C15 Sc7 2.410843 1_555
C15 Sc24 2.438104 1_555
C15 Sc6 2.459835 1_555
C15 Sc18 2.527121 1_556
C16 C7 1.337414 1_555
C16 Sc12 2.396018 1_555
C16 Sc8 2.410843 1_555
C16 Sc27 2.438104 1_555
C16 Sc11 2.459835 1_545
C16 Sc16 2.527121 1_555
C17 C4 1.337414 1_555
C17 Sc11 2.396018 1_555
C17 Sc9 2.410843 1_555
C17 Sc27 2.438104 1_665
C17 Sc12 2.459835 1_565
C17 Sc17 2.527121 1_555
C18 C4 1.337414 1_555
C18 Sc14 2.396018 1_565
C18 Sc10 2.410843 1_555
C18 Sc26 2.438104 1_555
C18 Sc13 2.459835 1_555
C18 Sc18 2.527121 1_555
C19 C5 1.337414 1_555
C19 Sc8 2.396018 1_555
C19 Sc11 2.410843 1_555
C19 Sc27 2.438104 1_565
C19 Sc9 2.459835 1_455
C19 Sc19 2.527121 1_555
C20 C6 1.337414 1_555
C20 Sc9 2.396018 1_555
C20 Sc12 2.410843 1_555
C20 Sc27 2.438104 1_655
C20 Sc8 2.459835 1_655
C20 Sc20 2.527121 1_555
C21 C5 1.337414 1_555
C21 Sc10 2.396018 1_455
C21 Sc13 2.410843 1_555
C21 Sc26 2.438104 1_555
C21 Sc15 2.459835 1_555
C21 Sc21 2.527121 1_555
C22 C6 1.337414 1_555
C22 Sc15 2.396018 1_655
C22 Sc14 2.410843 1_555
C22 Sc26 2.438104 1_555
C22 Sc10 2.459835 1_555
C22 Sc22 2.527121 1_555
C23 C7 1.337414 1_555
C23 Sc13 2.396018 1_545
C23 Sc15 2.410843 1_555
C23 Sc26 2.438104 1_555
C23 Sc14 2.459835 1_555
C23 Sc23 2.527121 1_555
C24 Sc4 2.164247 1_555
C24 Sc11 2.164247 1_555
C24 Sc16 2.311778 1_565
C24 Sc19 2.366585 1_555
C24 Sc17 2.408483 1_555
C24 Sc28 2.415782 1_555
C25 Sc3 2.164247 1_555
C25 Sc12 2.164247 1_555
C25 Sc17 2.311778 1_545
C25 Sc20 2.366585 1_555
C25 Sc16 2.408483 1_555
C25 Sc28 2.415782 1_555
C26 Sc6 2.164247 1_554
C26 Sc13 2.164247 1_555
C26 Sc18 2.311778 1_555
C26 Sc21 2.366585 1_555
C26 Sc23 2.408483 1_565
C26 Sc29 2.415782 1_565
C27 Sc0 2.164247 1_555
C27 Sc9 2.164247 1_555
C27 Sc19 2.311778 1_655
C27 Sc17 2.366585 1_555
C27 Sc20 2.408483 1_555
C27 Sc28 2.415782 1_555
C28 Sc1 2.164247 1_555
C28 Sc8 2.164247 1_555
C28 Sc20 2.311778 1_455
C28 Sc16 2.366585 1_555
C28 Sc19 2.408483 1_555
C28 Sc28 2.415782 1_555
C29 Sc2 2.164247 1_554
C29 Sc15 2.164247 1_555
C29 Sc21 2.311778 1_555
C29 Sc23 2.366585 1_555
C29 Sc22 2.408483 1_455
C29 Sc29 2.415782 1_555
C30 C32 1.283398 1_555
C30 Sc25 2.182593 1_555
C30 Sc17 2.467547 1_445
C30 Sc16 2.467547 1_555
C30 Sc20 2.467547 1_455
C30 Sc19 2.467547 1_545
C31 C33 1.283398 1_556
C31 Sc24 2.182593 1_555
C31 Sc18 2.467547 1_556
C31 Sc21 2.467547 1_556
C31 Sc22 2.467547 1_556
C31 Sc23 2.467547 1_556
C32 Sc27 2.182593 1_555
C32 Sc17 2.467547 1_445
C32 Sc16 2.467547 1_555
C32 Sc20 2.467547 1_455
C32 Sc19 2.467547 1_545
C33 Sc26 2.182593 1_555
C33 Sc21 2.467547 1_555
C33 Sc22 2.467547 1_555
C33 Sc23 2.467547 1_555
C33 Sc18 2.467547 1_555
C34 Sc10 2.295404 1_445
C34 Sc15 2.295404 1_555
C34 Sc14 2.295404 1_455
C34 Sc13 2.295404 1_545
C34 Sc27 2.338247 1_555
C34 Sc29 2.362443 1_555
C35 Sc11 2.295404 1_555
C35 Sc9 2.295404 1_555
C35 Sc8 2.295404 1_555
C35 Sc12 2.295404 1_555
C35 Sc26 2.338247 1_555
C35 Sc28 2.362443 1_555
C36 Sc5 2.295404 1_455
C36 Sc6 2.295404 1_545
C36 Sc7 2.295404 1_445
C36 Sc2 2.295404 1_555
C36 Sc25 2.338247 1_555
C36 Sc29 2.362443 1_556
C37 Sc0 2.295404 1_555
C37 Sc4 2.295404 1_555
C37 Sc1 2.295404 1_555
C37 Sc3 2.295404 1_555
C37 Sc24 2.338247 1_555
C37 Sc28 2.362443 1_555
C38 Sc5 2.164247 1_554
C38 Sc14 2.164247 1_555
C38 Sc23 2.311778 1_555
C38 Sc22 2.366585 1_555
C38 Sc18 2.408483 1_545
C38 Sc29 2.415782 1_655
C39 Sc7 2.164247 1_554
C39 Sc10 2.164247 1_555
C39 Sc22 2.311778 1_555
C39 Sc18 2.366585 1_555
C39 Sc21 2.408483 1_655
C39 Sc29 2.415782 1_665
