# generated using pymatgen
data_Cs2ThCl6
_symmetry_space_group_name_H-M   'P 1'
_cell_length_a   7.64181860
_cell_length_b   7.64181866
_cell_length_c   6.07802610
_cell_angle_alpha   90.00000000
_cell_angle_beta   90.00000000
_cell_angle_gamma   119.99999973
_symmetry_Int_Tables_number   1
_chemical_formula_structural   Cs2ThCl6
_chemical_formula_sum   'Cs2 Th1 Cl6'
_cell_volume   307.38781340
_cell_formula_units_Z   1
loop_
 _symmetry_equiv_pos_site_id
 _symmetry_equiv_pos_as_xyz
  1  'x, y, z'
loop_
 _atom_site_type_symbol
 _atom_site_label
 _atom_site_symmetry_multiplicity
 _atom_site_fract_x
 _atom_site_fract_y
 _atom_site_fract_z
 _atom_site_occupancy
  Cs  Cs0  1  0.66666700  0.33333300  0.26346871  1
  Cs  Cs1  1  0.33333300  0.66666700  0.73653129  1
  Th  Th0  1  0.00000000  -0.00000000  0.00000000  1
  Cl  Cl0  1  0.82998017  0.17001983  0.75785593  1
  Cl  Cl1  1  0.82998017  0.65995935  0.75785593  1
  Cl  Cl2  1  0.34004065  0.17001983  0.75785593  1
  Cl  Cl3  1  0.17001983  0.82998017  0.24214407  1
  Cl  Cl4  1  0.17001983  0.34004065  0.24214407  1
  Cl  Cl5  1  0.65995935  0.82998017  0.24214407  1
loop_
_geom_bond_atom_site_label_1
_geom_bond_atom_site_label_2
_geom_bond_distance
_geom_bond_site_symmetry_2
Cl0 Th0 2.688923 1_656
Cl0 Cs0 3.701621 1_555
Cl0 Cs0 3.757219 1_556
Cl0 Cs1 3.823365 1_655
Cl0 Cs1 3.823365 1_545
Cl1 Th0 2.688928 1_666
Cl1 Cs0 3.701621 1_555
Cl1 Cs0 3.757219 1_556
Cl1 Cs1 3.823357 1_655
Cl1 Cs1 3.823372 1_555
Cl2 Th0 2.688928 1_556
Cl2 Cs0 3.701621 1_555
Cl2 Cs0 3.757219 1_556
Cl2 Cs1 3.823357 1_545
Cl2 Cs1 3.823372 1_555
Cl3 Th0 2.688923 1_565
Cl3 Cs1 3.701621 1_555
Cl3 Cs1 3.757219 1_554
Cl3 Cs0 3.823365 1_455
Cl3 Cs0 3.823365 1_565
Cl4 Th0 2.688928 1_555
Cl4 Cs1 3.701621 1_555
Cl4 Cs1 3.757219 1_554
Cl4 Cs0 3.823357 1_455
Cl4 Cs0 3.823372 1_555
Cl5 Th0 2.688928 1_665
Cl5 Cs1 3.701621 1_555
Cl5 Cs1 3.757219 1_554
Cl5 Cs0 3.823357 1_565
Cl5 Cs0 3.823372 1_555
