# generated using pymatgen
data_Na4Ga2S5
_symmetry_space_group_name_H-M   'P 1'
_cell_length_a   6.10452459
_cell_length_b   7.94829892
_cell_length_c   19.80446385
_cell_angle_alpha   88.81123136
_cell_angle_beta   90.00000000
_cell_angle_gamma   90.00000000
_symmetry_Int_Tables_number   1
_chemical_formula_structural   Na4Ga2S5
_chemical_formula_sum   'Na16 Ga8 S20'
_cell_volume   960.71737570
_cell_formula_units_Z   4
loop_
 _symmetry_equiv_pos_site_id
 _symmetry_equiv_pos_as_xyz
  1  'x, y, z'
loop_
 _atom_site_type_symbol
 _atom_site_label
 _atom_site_symmetry_multiplicity
 _atom_site_fract_x
 _atom_site_fract_y
 _atom_site_fract_z
 _atom_site_occupancy
  Na  Na0  1  0.74455811  0.07774686  0.95657662  1
  Na  Na1  1  0.24455811  0.92225314  0.54342338  1
  Na  Na2  1  0.25544189  0.92225314  0.04342338  1
  Na  Na3  1  0.75544189  0.07774686  0.45657662  1
  Na  Na4  1  0.46050037  0.40269134  0.89788523  1
  Na  Na5  1  0.96050037  0.59730866  0.60211477  1
  Na  Na6  1  0.53949963  0.59730866  0.10211477  1
  Na  Na7  1  0.03949963  0.40269134  0.39788523  1
  Na  Na8  1  0.47588279  0.34632787  0.71698823  1
  Na  Na9  1  0.97588279  0.65367213  0.78301177  1
  Na  Na10  1  0.52411721  0.65367213  0.28301177  1
  Na  Na11  1  0.02411721  0.34632787  0.21698823  1
  Na  Na12  1  0.50041047  0.88887258  0.70072174  1
  Na  Na13  1  0.00041047  0.11112742  0.79927826  1
  Na  Na14  1  0.49958953  0.11112742  0.29927826  1
  Na  Na15  1  0.99958953  0.88887258  0.20072174  1
  Ga  Ga0  1  0.08692007  0.34530841  0.03631475  1
  Ga  Ga1  1  0.91307993  0.65469159  0.96368525  1
  Ga  Ga2  1  0.41307993  0.34530841  0.53631475  1
  Ga  Ga3  1  0.06791267  0.83437047  0.36570321  1
  Ga  Ga4  1  0.56791267  0.16562953  0.13429679  1
  Ga  Ga5  1  0.93208733  0.16562953  0.63429679  1
  Ga  Ga6  1  0.43208733  0.83437047  0.86570321  1
  Ga  Ga7  1  0.58692007  0.65469159  0.46368525  1
  S  S0  1  0.52432839  0.38905756  0.42522673  1
  S  S1  1  0.97567161  0.38905756  0.92522673  1
  S  S2  1  0.47567161  0.61094244  0.57477327  1
  S  S3  1  0.01441663  0.63106627  0.29268894  1
  S  S4  1  0.51441663  0.36893373  0.20731106  1
  S  S5  1  0.98558337  0.36893373  0.70731106  1
  S  S6  1  0.02432839  0.61094244  0.07477327  1
  S  S7  1  0.48558337  0.63106627  0.79268894  1
  S  S8  1  0.56926310  0.13344753  0.59760491  1
  S  S9  1  0.06926310  0.86655247  0.90239509  1
  S  S10  1  0.43073690  0.86655247  0.40239509  1
  S  S11  1  0.93073690  0.13344753  0.09760491  1
  S  S12  1  0.56242547  0.74247901  0.97064377  1
  S  S13  1  0.06242547  0.25752099  0.52935623  1
  S  S14  1  0.43757453  0.25752099  0.02935623  1
  S  S15  1  0.93757453  0.74247901  0.47064377  1
  S  S16  1  0.52259178  0.09240964  0.82708805  1
  S  S17  1  0.02259178  0.90759036  0.67291195  1
  S  S18  1  0.47740822  0.90759036  0.17291195  1
  S  S19  1  0.97740822  0.09240964  0.32708805  1
loop_
_geom_bond_atom_site_label_1
_geom_bond_atom_site_label_2
_geom_bond_distance
_geom_bond_site_symmetry_2
Na0 S14 2.777870 1_556
Na0 S9 2.823643 1_645
Na0 S12 2.895547 1_545
Na0 S16 2.900623 1_555
Na0 S1 2.904274 1_555
Na0 S11 3.056111 1_556
Na1 S15 2.777870 1_455
Na1 S8 2.823643 1_565
Na1 S13 2.895547 1_565
Na1 S17 2.900623 1_555
Na1 S2 2.904274 1_555
Na1 S10 3.056111 1_555
Na2 S12 2.777870 1_554
Na2 S11 2.823643 1_465
Na2 S14 2.895547 1_565
Na2 S18 2.900623 1_555
Na2 S6 2.904274 1_555
Na2 S9 3.056111 1_554
Na3 S13 2.777870 1_655
Na3 S10 2.823643 1_545
Na3 S15 2.895547 1_545
Na3 S19 2.900623 1_555
Na3 S0 2.904274 1_555
Na3 S8 3.056111 1_555
Na4 S7 2.738946 1_555
Na4 S14 2.829423 1_556
Na4 S16 2.887080 1_555
Na4 S1 3.010322 1_455
Na4 S12 3.149428 1_555
Na4 S1 3.192609 1_555
Na5 S5 2.738946 1_555
Na5 S15 2.829423 1_555
Na5 S17 2.887080 1_655
Na5 S2 3.010322 1_555
Na5 S13 3.149428 1_655
Na5 S2 3.192609 1_655
Na6 S4 2.738946 1_555
Na6 S12 2.829423 1_554
Na6 S18 2.887080 1_555
Na6 S6 3.010322 1_655
Na6 S14 3.149428 1_555
Na6 S6 3.192609 1_555
Na7 S3 2.738946 1_555
Na7 S13 2.829423 1_555
Na7 S19 2.887080 1_455
Na7 S0 3.010322 1_555
Na7 S15 3.149428 1_455
Na7 S0 3.192609 1_455
Na8 S7 2.741156 1_555
Na8 S16 2.954040 1_555
Na8 S8 2.990644 1_555
Na8 S5 3.004314 1_455
Na8 S5 3.122322 1_555
Na9 S5 2.741156 1_555
Na9 S17 2.954040 1_655
Na9 S9 2.990644 1_655
Na9 S7 3.004314 1_555
Na9 S7 3.122322 1_655
Na10 S4 2.741156 1_555
Na10 S18 2.954040 1_555
Na10 S10 2.990644 1_555
Na10 S3 3.004314 1_655
Na10 S3 3.122322 1_555
Na11 S3 2.741156 1_555
Na11 S19 2.954040 1_455
Na11 S11 2.990644 1_455
Na11 S4 3.004314 1_555
Na11 S4 3.122322 1_455
Na12 S7 2.714699 1_555
Na12 S8 2.821591 1_565
Na12 S17 2.971551 1_555
Na12 S16 3.011081 1_565
Na12 S17 3.237792 1_655
Na12 S2 3.369448 1_555
Na13 S5 2.714699 1_455
Na13 S9 2.821591 1_545
Na13 S16 2.971551 1_455
Na13 S17 3.011081 1_545
Na13 S16 3.237792 1_555
Na13 S1 3.369448 1_455
Na14 S4 2.714699 1_555
Na14 S10 2.821591 1_545
Na14 S19 2.971551 1_555
Na14 S18 3.011081 1_545
Na14 S19 3.237792 1_455
Na14 S0 3.369448 1_555
Na15 S3 2.714699 1_655
Na15 S11 2.821591 1_565
Na15 S18 2.971551 1_655
Na15 S19 3.011081 1_565
Na15 S18 3.237792 1_555
Na15 S6 3.369448 1_655
Ga0 S14 2.256530 1_555
Ga0 S11 2.265655 1_455
Ga0 S6 2.291415 1_555
Ga0 S1 2.321755 1_454
Ga1 S12 2.256530 1_555
Ga1 S9 2.265655 1_655
Ga1 S1 2.291415 1_555
Ga1 S6 2.321755 1_656
Ga2 S13 2.256530 1_555
Ga2 S8 2.265655 1_555
Ga2 S2 2.291415 1_555
Ga2 S0 2.321755 1_555
Ga3 S3 2.214892 1_555
Ga3 S19 2.243099 1_465
Ga3 S15 2.328697 1_455
Ga3 S10 2.346663 1_555
Ga4 S4 2.214892 1_555
Ga4 S18 2.243099 1_545
Ga4 S14 2.328697 1_555
Ga4 S11 2.346663 1_555
Ga5 S5 2.214892 1_555
Ga5 S17 2.243099 1_645
Ga5 S13 2.328697 1_655
Ga5 S8 2.346663 1_555
Ga6 S7 2.214892 1_555
Ga6 S16 2.243099 1_565
Ga6 S12 2.328697 1_555
Ga6 S9 2.346663 1_555
Ga7 S15 2.256530 1_555
Ga7 S10 2.265655 1_555
Ga7 S0 2.291415 1_555
Ga7 S2 2.321755 1_555
