# generated using pymatgen
data_MgMn4(O2F3)2
_symmetry_space_group_name_H-M   'P 1'
_cell_length_a   5.17339005
_cell_length_b   6.05545631
_cell_length_c   7.93135349
_cell_angle_alpha   103.48629427
_cell_angle_beta   72.46830390
_cell_angle_gamma   63.81285498
_symmetry_Int_Tables_number   1
_chemical_formula_structural   MgMn4(O2F3)2
_chemical_formula_sum   'Mg1 Mn4 O4 F6'
_cell_volume   192.15961496
_cell_formula_units_Z   1
loop_
 _symmetry_equiv_pos_site_id
 _symmetry_equiv_pos_as_xyz
  1  'x, y, z'
loop_
 _atom_site_type_symbol
 _atom_site_label
 _atom_site_symmetry_multiplicity
 _atom_site_fract_x
 _atom_site_fract_y
 _atom_site_fract_z
 _atom_site_occupancy
  Mg  Mg0  1  0.00021000  0.50330200  0.00225500  1
  Mn  Mn0  1  0.35701600  0.94126300  0.87930000  1
  Mn  Mn1  1  0.79283000  0.49434200  0.39385800  1
  Mn  Mn2  1  0.20588800  0.51283500  0.61075000  1
  Mn  Mn3  1  0.64244100  0.06557800  0.12514500  1
  O  O0  1  0.77611900  0.76175300  0.87740000  1
  O  O1  1  0.40346100  0.71303500  0.64694700  1
  O  O2  1  0.59516100  0.29431200  0.35752000  1
  O  O3  1  0.22360300  0.24490500  0.12712100  1
  F  F0  1  0.94639200  0.71324200  0.47054700  1
  F  F1  1  0.89227100  0.21020900  0.95085400  1
  F  F2  1  0.62274600  0.74992500  0.24577900  1
  F  F3  1  0.37691700  0.25676000  0.75852100  1
  F  F4  1  0.10724500  0.79676400  0.05368800  1
  F  F5  1  0.05241700  0.29382700  0.53419700  1
loop_
_geom_bond_atom_site_label_1
_geom_bond_atom_site_label_2
_geom_bond_distance
_geom_bond_site_symmetry_2
Mg0 O3 2.140340 1_555
Mg0 O0 2.141757 1_454
Mn0 O1 1.901607 1_555
Mn0 O0 1.943025 1_555
Mn0 O3 2.024223 1_566
Mn1 O2 1.924576 1_555
Mn1 O1 1.952018 1_555
Mn1 O3 2.102795 1_655
Mn2 O1 1.924824 1_555
Mn2 O2 1.952452 1_555
Mn2 O0 2.100106 1_455
Mn3 O2 1.901007 1_555
Mn3 O3 1.941488 1_555
Mn3 O0 2.023934 1_544
F0 Mn1 1.898064 1_555
F0 Mn2 2.145318 1_655
F1 Mn0 2.011454 1_645
F1 Mg0 2.074218 1_656
F1 Mn3 2.199046 1_556
F2 Mg0 1.892750 1_655
F2 Mn1 2.194852 1_555
F2 Mn3 2.354897 1_565
F3 Mg0 1.892111 1_556
F3 Mn2 2.196024 1_555
F3 Mn0 2.354991 1_545
F4 Mn3 2.011717 1_465
F4 Mg0 2.073015 1_555
F4 Mn0 2.198647 1_554
F5 Mn2 1.897900 1_555
F5 Mn1 2.146742 1_455
