# generated using pymatgen
data_Na10YTa7(SiO4)12
_symmetry_space_group_name_H-M   'P 1'
_cell_length_a   18.14438949
_cell_length_b   9.08528630
_cell_length_c   22.65542850
_cell_angle_alpha   89.99585286
_cell_angle_beta   90.00825562
_cell_angle_gamma   120.13564830
_symmetry_Int_Tables_number   1
_chemical_formula_structural   Na10YTa7(SiO4)12
_chemical_formula_sum   'Na30 Y3 Ta21 Si36 O144'
_cell_volume   3229.89668932
_cell_formula_units_Z   3
loop_
 _symmetry_equiv_pos_site_id
 _symmetry_equiv_pos_as_xyz
  1  'x, y, z'
loop_
 _atom_site_type_symbol
 _atom_site_label
 _atom_site_symmetry_multiplicity
 _atom_site_fract_x
 _atom_site_fract_y
 _atom_site_fract_z
 _atom_site_occupancy
  Na  Na0  1  0.81550609  0.00838056  0.24849711  1
  Na  Na1  1  0.18517672  0.36743420  0.24901829  1
  Na  Na2  1  0.68578031  0.36439949  0.24782957  1
  Na  Na3  1  0.99632614  0.62436192  0.24847724  1
  Na  Na4  1  0.31599685  0.62340904  0.74920857  1
  Na  Na5  1  0.81645170  0.62369512  0.74863342  1
  Na  Na6  1  0.99529371  0.36673860  0.74816999  1
  Na  Na7  1  0.49509569  0.36593427  0.74829109  1
  Na  Na8  1  0.18832579  0.00966297  0.74932313  1
  Na  Na9  1  0.68848839  0.01020816  0.74869814  1
  Na  Na10  1  0.15429198  0.33859854  0.58389194  1
  Na  Na11  1  0.65548663  0.33862629  0.58332822  1
  Na  Na12  1  0.33219358  0.97245178  0.58345547  1
  Na  Na13  1  0.83271642  0.97436026  0.58313006  1
  Na  Na14  1  0.65172426  0.96878415  0.08460920  1
  Na  Na15  1  0.83098286  0.68960147  0.08326623  1
  Na  Na16  1  0.01674667  0.33906179  0.08245000  1
  Na  Na17  1  0.48381126  0.30009546  0.41644547  1
  Na  Na18  1  0.99975034  0.99173458  0.49717566  1
  Na  Na19  1  0.50132280  0.98556268  0.49805877  1
  Na  Na20  1  0.00519776  0.00030641  0.99742669  1
  Na  Na21  1  0.49488941  -0.00000831  0.99969392  1
  Na  Na22  1  0.33288837  0.33300719  0.83562978  1
  Na  Na23  1  0.83360020  0.33331790  0.83429187  1
  Na  Na24  1  0.33332595  0.33345554  0.33165855  1
  Na  Na25  1  0.83287451  0.33216254  0.33350513  1
  Na  Na26  1  0.17476687  0.68494555  0.16373082  1
  Na  Na27  1  0.65796105  0.65561982  0.16584141  1
  Na  Na28  1  0.16165896  0.66637470  0.66523464  1
  Na  Na29  1  0.66202693  0.66697456  0.66492252  1
  Y  Y0  1  0.33434231  0.33494131  0.68326521  1
  Y  Y1  1  0.83436702  0.33528497  0.68265779  1
  Y  Y2  1  0.83237021  0.33271574  0.18336413  1
  Ta  Ta0  1  0.00174705  0.00168881  0.35721770  1
  Ta  Ta1  1  0.49736771  0.99468468  0.35471711  1
  Ta  Ta2  1  0.00014540  0.00092455  0.85904781  1
  Ta  Ta3  1  0.49998220  0.99961846  0.85877016  1
  Ta  Ta4  1  0.99980276  0.99633416  0.64544492  1
  Ta  Ta5  1  0.50031310  0.99721365  0.64544382  1
  Ta  Ta6  1  0.00352603  0.00118400  0.14511051  1
  Ta  Ta7  1  0.49618780  0.99748281  0.14450175  1
  Ta  Ta8  1  0.33639275  0.33363898  0.18693909  1
  Ta  Ta9  1  0.33282003  0.33250981  0.97793775  1
  Ta  Ta10  1  0.83363492  0.33448400  0.97807473  1
  Ta  Ta11  1  0.33070539  0.33510704  0.47894980  1
  Ta  Ta12  1  0.83418705  0.33361939  0.47788441  1
  Ta  Ta13  1  0.17176780  0.67446709  0.01999107  1
  Ta  Ta14  1  0.66199269  0.65988164  0.01765832  1
  Ta  Ta15  1  0.16462794  0.66597855  0.51589095  1
  Ta  Ta16  1  0.66573746  0.66833420  0.51596845  1
  Ta  Ta17  1  0.16988801  0.67174454  0.31273486  1
  Ta  Ta18  1  0.66385464  0.66552298  0.31268362  1
  Ta  Ta19  1  0.16677597  0.66660421  0.81533900  1
  Ta  Ta20  1  0.66680554  0.66653961  0.81505616  1
  Si  Si0  1  0.14504354  0.00005267  0.25111350  1
  Si  Si1  1  0.63991401  0.99247345  0.25050428  1
  Si  Si2  1  0.35637156  0.71128109  0.24995402  1
  Si  Si3  1  0.85626332  0.71753898  0.25168351  1
  Si  Si4  1  0.00257686  0.28891753  0.25198886  1
  Si  Si5  1  0.49820766  0.28450787  0.25068511  1
  Si  Si6  1  0.14111916  0.28816112  0.75198832  1
  Si  Si7  1  0.64138871  0.28829449  0.75203149  1
  Si  Si8  1  0.00279987  0.71768304  0.75315551  1
  Si  Si9  1  0.50290144  0.71749937  0.75290849  1
  Si  Si10  1  0.35580926  0.99454012  0.75212778  1
  Si  Si11  1  0.85591177  0.99501092  0.75231746  1
  Si  Si12  1  0.48277985  0.33635541  0.58233166  1
  Si  Si13  1  0.98248777  0.33618579  0.58325828  1
  Si  Si14  1  0.18420626  0.03325162  0.58291885  1
  Si  Si15  1  0.68507670  0.03533951  0.58248788  1
  Si  Si16  1  0.33344552  0.63107762  0.58236312  1
  Si  Si17  1  0.83371520  0.62932588  0.58181166  1
  Si  Si18  1  0.47631750  0.62121805  0.08234211  1
  Si  Si19  1  0.98292223  0.63016150  0.08260111  1
  Si  Si20  1  0.33331960  0.04778531  0.08272909  1
  Si  Si21  1  0.83282101  0.03597828  0.08224826  1
  Si  Si22  1  0.19177422  0.33717331  0.08388868  1
  Si  Si23  1  0.68374618  0.33215388  0.08235827  1
  Si  Si24  1  0.31186633  0.66372300  0.91653477  1
  Si  Si25  1  0.81099956  0.66491163  0.91750868  1
  Si  Si26  1  0.02232219  0.37923704  0.91860917  1
  Si  Si27  1  0.51909297  0.37454627  0.91541069  1
  Si  Si28  1  0.16766021  0.95707895  0.91696569  1
  Si  Si29  1  0.66756249  0.95857897  0.91716782  1
  Si  Si30  1  0.31156301  0.95891917  0.41694461  1
  Si  Si31  1  0.81221068  0.95785639  0.41539289  1
  Si  Si32  1  0.16728734  0.37721304  0.41558736  1
  Si  Si33  1  0.66841556  0.37615775  0.41499046  1
  Si  Si34  1  0.02115061  0.66440561  0.41423815  1
  Si  Si35  1  0.52033624  0.66887631  0.41611451  1
  O  O0  1  0.09921073  0.03111983  0.30766411  1
  O  O1  1  0.58864166  0.01628173  0.30587416  1
  O  O2  1  0.41408439  0.80649625  0.30807536  1
  O  O3  1  0.91938663  0.82014226  0.30631025  1
  O  O4  1  0.48552127  0.17181109  0.31039421  1
  O  O5  1  0.99331421  0.16691365  0.30704144  1
  O  O6  1  0.09056363  0.16534507  0.80718568  1
  O  O7  1  0.59068500  0.16495287  0.80712040  1
  O  O8  1  0.49173496  0.81684234  0.80837480  1
  O  O9  1  0.99170498  0.81755285  0.80843520  1
  O  O10  1  0.41745029  0.01578840  0.80716591  1
  O  O11  1  0.91717696  0.01552916  0.80740388  1
  O  O12  1  0.40067497  0.96782640  0.69159655  1
  O  O13  1  0.90050800  0.96786877  0.69175021  1
  O  O14  1  0.08305890  0.19892726  0.69140180  1
  O  O15  1  0.58309859  0.19937271  0.69143212  1
  O  O16  1  0.01624913  0.83888571  0.69396757  1
  O  O17  1  0.51632909  0.83912713  0.69393627  1
  O  O18  1  0.40300102  0.83231025  0.19278418  1
  O  O19  1  0.90151930  0.83507449  0.19179082  1
  O  O20  1  0.01635643  0.19844118  0.19221446  1
  O  O21  1  0.51568507  0.19149182  0.19459987  1
  O  O22  1  0.08155746  0.96667124  0.19355310  1
  O  O23  1  0.58513521  0.97324687  0.19055467  1
  O  O24  1  0.45194604  0.37316357  0.64456532  1
  O  O25  1  0.95339409  0.37399956  0.64600284  1
  O  O26  1  0.23875373  0.09261214  0.64362702  1
  O  O27  1  0.73841245  0.09178884  0.64384037  1
  O  O28  1  0.30650429  0.52065404  0.64275130  1
  O  O29  1  0.80631623  0.52176892  0.64291487  1
  O  O30  1  0.42985705  0.50096359  0.14041977  1
  O  O31  1  0.95270868  0.52267925  0.14376300  1
  O  O32  1  0.32021374  0.14191758  0.14071715  1
  O  O33  1  0.80759670  0.09287859  0.14339794  1
  O  O34  1  0.24809093  0.35978315  0.14346855  1
  O  O35  1  0.73845724  0.38606304  0.14338023  1
  O  O36  1  0.23767760  0.30724571  0.02705473  1
  O  O37  1  0.73676680  0.30195917  0.02896533  1
  O  O38  1  0.41640001  0.52589412  0.02549408  1
  O  O39  1  0.91439493  0.52850481  0.02894451  1
  O  O40  1  0.34692642  0.16807944  0.02561007  1
  O  O41  1  0.84975029  0.17238833  0.02908849  1
  O  O42  1  0.23674910  0.16947484  0.52873222  1
  O  O43  1  0.73632969  0.17097624  0.52878596  1
  O  O44  1  0.34605205  0.52481180  0.52799160  1
  O  O45  1  0.84618421  0.52356438  0.52782869  1
  O  O46  1  0.41704109  0.30310952  0.52669336  1
  O  O47  1  0.91413571  0.30151565  0.52963140  1
  O  O48  1  0.26370453  0.69112155  0.97244686  1
  O  O49  1  0.76274458  0.68970456  0.97396182  1
  O  O50  1  0.08238125  0.47114144  0.97587383  1
  O  O51  1  0.58130681  0.47441350  0.97087758  1
  O  O52  1  0.15609888  0.83279652  0.97211770  1
  O  O53  1  0.65369532  0.83910636  0.97474450  1
  O  O54  1  0.26674084  0.84195127  0.47462052  1
  O  O55  1  0.76557661  0.83874792  0.47286553  1
  O  O56  1  0.15597438  0.47014656  0.47345387  1
  O  O57  1  0.65191678  0.46761970  0.47174851  1
  O  O58  1  0.08273910  0.68975017  0.47033920  1
  O  O59  1  0.58125661  0.69201968  0.47227047  1
  O  O60  1  0.06838140  0.63939154  0.35601981  1
  O  O61  1  0.56814068  0.63455125  0.36010775  1
  O  O62  1  0.25028332  0.85960475  0.36004979  1
  O  O63  1  0.75056794  0.86056842  0.35789116  1
  O  O64  1  0.18004098  0.49721155  0.35769082  1
  O  O65  1  0.67941004  0.49576328  0.35703551  1
  O  O66  1  0.06905008  0.49779259  0.85914278  1
  O  O67  1  0.56760024  0.49525993  0.85702103  1
  O  O68  1  0.17987272  0.86345183  0.85750402  1
  O  O69  1  0.67982581  0.86218542  0.85872938  1
  O  O70  1  0.25216087  0.63976805  0.85750598  1
  O  O71  1  0.75145977  0.64012420  0.85840777  1
  O  O72  1  0.01314176  0.83491808  0.40880328  1
  O  O73  1  0.51040603  0.83621049  0.41022900  1
  O  O74  1  0.40737427  0.98472501  0.41081963  1
  O  O75  1  0.90630612  0.97636223  0.40901834  1
  O  O76  1  0.08298272  0.18857081  0.41049294  1
  O  O77  1  0.57978064  0.19152705  0.40887599  1
  O  O78  1  0.01238631  0.19068993  0.91059376  1
  O  O79  1  0.51205864  0.18891622  0.91006124  1
  O  O80  1  0.08262522  0.97492492  0.91056207  1
  O  O81  1  0.58269005  0.97622018  0.91019526  1
  O  O82  1  0.40536113  0.83514412  0.91018210  1
  O  O83  1  0.90496063  0.83501000  0.91081831  1
  O  O84  1  0.48902046  0.15992595  0.58704009  1
  O  O85  1  0.98917832  0.16018452  0.58751202  1
  O  O86  1  0.09306577  0.02986870  0.58782987  1
  O  O87  1  0.59305227  0.02936511  0.58821729  1
  O  O88  1  0.41803784  0.82157201  0.58759499  1
  O  O89  1  0.91765970  0.82137164  0.58792630  1
  O  O90  1  0.48952954  0.81309281  0.09059856  1
  O  O91  1  0.98652096  0.81538564  0.08815155  1
  O  O92  1  0.41752183  0.02682852  0.09222239  1
  O  O93  1  0.92055704  0.02326534  0.08743359  1
  O  O94  1  0.09456642  0.16863389  0.09210890  1
  O  O95  1  0.59193582  0.15451380  0.08713754  1
  O  O96  1  0.34488077  0.16045271  0.75134230  1
  O  O97  1  0.84464732  0.16060153  0.75148202  1
  O  O98  1  0.23518390  0.30970899  0.75088611  1
  O  O99  1  0.73537867  0.30986158  0.75089158  1
  O  O100  1  0.41945131  0.52983503  0.75123263  1
  O  O101  1  0.91929125  0.52992455  0.75127613  1
  O  O102  1  0.34198557  0.51863380  0.24369403  1
  O  O103  1  0.84593691  0.53004907  0.25150546  1
  O  O104  1  0.41547279  0.30901205  0.24301074  1
  O  O105  1  0.91852662  0.30766064  0.25156925  1
  O  O106  1  0.23741518  0.17283367  0.24319085  1
  O  O107  1  0.73410725  0.16119288  0.25165833  1
  O  O108  1  0.31973555  0.49404350  0.92331177  1
  O  O109  1  0.81928750  0.49454235  0.92467476  1
  O  O110  1  0.42648791  0.35901664  0.92276237  1
  O  O111  1  0.92832358  0.36223850  0.92516199  1
  O  O112  1  0.25222927  0.14448188  0.92363200  1
  O  O113  1  0.75317819  0.14513540  0.92452744  1
  O  O114  1  0.32384165  0.15030331  0.42373294  1
  O  O115  1  0.81998009  0.14414463  0.42454230  1
  O  O116  1  0.25299941  0.36000742  0.42360275  1
  O  O117  1  0.75240512  0.35725321  0.42355071  1
  O  O118  1  0.42877770  0.49173118  0.42402314  1
  O  O119  1  0.92776395  0.49399264  0.42418968  1
  O  O120  1  0.17598613  0.49967536  0.07697969  1
  O  O121  1  0.67364564  0.49853364  0.06985904  1
  O  O122  1  0.07546733  0.64802262  0.07060213  1
  O  O123  1  0.57374556  0.65107425  0.07600862  1
  O  O124  1  0.24974458  0.85711861  0.07589375  1
  O  O125  1  0.75091348  0.84520589  0.07083371  1
  O  O126  1  0.17426507  0.84797122  0.57007043  1
  O  O127  1  0.67473526  0.84867019  0.56993310  1
  O  O128  1  0.25207568  0.65837137  0.57000999  1
  O  O129  1  0.75217144  0.65757116  0.56917557  1
  O  O130  1  0.07952095  0.49288107  0.57139485  1
  O  O131  1  0.58002620  0.49292991  0.57119513  1
  O  O132  1  0.15029115  0.82512054  0.25678884  1
  O  O133  1  0.65000188  0.82259389  0.25755248  1
  O  O134  1  0.26046434  0.68788978  0.25733633  1
  O  O135  1  0.76188055  0.70324503  0.25659823  1
  O  O136  1  0.08986695  0.47701402  0.25649252  1
  O  O137  1  0.58710098  0.47131876  0.25746670  1
  O  O138  1  0.14672380  0.47517763  0.75657595  1
  O  O139  1  0.64707277  0.47539323  0.75661660  1
  O  O140  1  0.09042285  0.70540427  0.75656629  1
  O  O141  1  0.59074177  0.70627364  0.75654526  1
  O  O142  1  0.26209743  0.81835353  0.75643356  1
  O  O143  1  0.76210635  0.81846338  0.75666680  1
loop_
_geom_bond_atom_site_label_1
_geom_bond_atom_site_label_2
_geom_bond_distance
_geom_bond_site_symmetry_2
Na0 O105 2.405978 1_555
Na0 O135 2.440754 1_545
Na0 O107 2.484531 1_555
Na0 O33 2.527782 1_555
Na0 O133 2.611434 1_545
Na0 O63 2.783093 1_545
Na1 O106 2.392564 1_555
Na1 O136 2.395675 1_555
Na1 O102 2.464219 1_555
Na1 O134 2.526773 1_555
Na1 O34 2.665826 1_555
Na1 O64 2.751589 1_555
Na1 O20 2.945024 1_555
Na1 O0 2.957858 1_555
Na2 O107 2.410451 1_555
Na2 O137 2.437950 1_555
Na2 O103 2.514965 1_555
Na2 O35 2.522609 1_555
Na2 O135 2.674898 1_555
Na2 O65 2.774523 1_555
Na2 O21 2.928859 1_555
Na3 O103 2.416023 1_555
Na3 O132 2.459693 1_655
Na3 O105 2.489624 1_555
Na3 O31 2.524570 1_555
Na3 O136 2.643292 1_655
Na3 O60 2.735684 1_655
Na4 O100 2.418834 1_555
Na4 O142 2.420622 1_555
Na4 O98 2.465387 1_555
Na4 O28 2.560644 1_555
Na4 O138 2.668642 1_555
Na4 O70 2.749032 1_555
Na5 O101 2.409840 1_555
Na5 O143 2.426680 1_555
Na5 O99 2.466736 1_555
Na5 O29 2.541072 1_555
Na5 O139 2.671229 1_555
Na5 O71 2.788479 1_555
Na6 O138 2.416210 1_655
Na6 O97 2.417520 1_555
Na6 O25 2.447388 1_555
Na6 O101 2.481463 1_555
Na6 O140 2.673945 1_655
Na6 O66 2.815852 1_655
Na7 O96 2.410303 1_555
Na7 O139 2.423817 1_555
Na7 O100 2.481501 1_555
Na7 O24 2.488099 1_555
Na7 O141 2.686925 1_555
Na7 O67 2.761630 1_555
Na8 O98 2.414133 1_555
Na8 O140 2.427587 1_545
Na8 O96 2.457719 1_555
Na8 O26 2.539133 1_555
Na8 O142 2.678542 1_545
Na8 O68 2.754993 1_545
Na9 O99 2.410864 1_555
Na9 O141 2.425826 1_545
Na9 O97 2.451889 1_555
Na9 O27 2.517853 1_555
Na9 O143 2.681038 1_545
Na9 O69 2.799059 1_545
Na10 O130 2.407233 1_555
Na10 O86 2.445561 1_555
Na10 O128 2.551767 1_555
Na10 O85 2.594901 1_455
Na10 O28 2.748448 1_555
Na10 O14 2.750807 1_555
Na10 O56 2.766295 1_555
Na10 O42 2.910350 1_555
Na11 O131 2.417163 1_555
Na11 O87 2.448293 1_555
Na11 O129 2.544173 1_555
Na11 O84 2.615742 1_555
Na11 O29 2.739988 1_555
Na11 O15 2.766947 1_555
Na11 O57 2.800642 1_555
Na11 O43 2.871011 1_555
Na12 O84 2.477526 1_565
Na12 O128 2.486646 1_555
Na12 O126 2.515543 1_555
Na12 O88 2.541211 1_555
Na12 O54 2.735244 1_555
Na12 O12 2.756747 1_555
Na12 O26 2.789960 1_565
Na12 O46 2.899092 1_565
Na13 O85 2.471226 1_565
Na13 O129 2.509161 1_555
Na13 O127 2.514584 1_555
Na13 O89 2.543647 1_555
Na13 O13 2.764802 1_555
Na13 O55 2.781186 1_555
Na13 O27 2.791361 1_565
Na13 O47 2.842013 1_565
Na14 O95 2.421888 1_565
Na14 O123 2.504174 1_555
Na14 O90 2.549566 1_555
Na14 O125 2.574121 1_555
Na14 O23 2.696780 1_555
Na14 O53 2.761771 1_554
Na14 O33 2.800222 1_565
Na14 O37 2.905675 1_565
Na15 O91 2.458518 1_555
Na15 O125 2.500133 1_555
Na15 O121 2.505857 1_555
Na15 O93 2.625435 1_565
Na15 O35 2.762197 1_555
Na15 O49 2.768669 1_554
Na15 O19 2.780461 1_555
Na15 O39 2.858721 1_555
Na16 O122 2.466469 1_555
Na16 O120 2.501884 1_555
Na16 O93 2.502521 1_455
Na16 O94 2.575701 1_555
Na16 O50 2.693259 1_554
Na16 O20 2.794047 1_555
Na16 O31 2.830132 1_455
Na16 O41 2.885794 1_455
Na17 O77 2.399838 1_555
Na17 O118 2.409075 1_555
Na17 O74 2.481776 1_545
Na17 O114 2.517528 1_555
Na17 O4 2.677453 1_555
Na17 O46 2.782311 1_555
Na17 O57 2.920208 1_555
Na17 O61 2.921487 1_555
Na18 O72 2.538796 1_655
Na18 O89 2.554781 1_555
Na18 O86 2.571968 1_665
Na18 O76 2.573710 1_665
Na18 O75 2.577685 1_555
Na18 O85 2.619717 1_565
Na19 O73 2.460240 1_555
Na19 O88 2.521484 1_555
Na19 O87 2.536675 1_565
Na19 O74 2.607330 1_555
Na19 O77 2.633618 1_565
Na19 O84 2.641755 1_565
Na20 O80 2.495164 1_545
Na20 O91 2.567134 1_446
Na20 O78 2.579129 1_555
Na20 O83 2.582641 1_445
Na20 O93 2.623505 1_456
Na20 O94 2.660630 1_556
Na21 O95 2.552128 1_556
Na21 O82 2.559488 1_545
Na21 O79 2.574796 1_555
Na21 O92 2.601734 1_556
Na21 O90 2.639692 1_546
Na21 O81 2.653738 1_545
Na22 O110 2.536337 1_555
Na22 O96 2.548447 1_555
Na22 O108 2.548475 1_555
Na22 O98 2.548707 1_555
Na22 O100 2.549671 1_555
Na22 O112 2.556146 1_555
Na23 O97 2.517653 1_555
Na23 O101 2.521314 1_555
Na23 O99 2.531675 1_555
Na23 O113 2.593634 1_555
Na23 O109 2.605467 1_555
Na23 O111 2.608990 1_555
Na24 O102 2.561420 1_555
Na24 O106 2.573827 1_555
Na24 O104 2.576373 1_555
Na24 O114 2.619520 1_555
Na24 O116 2.622106 1_555
Na24 O118 2.635307 1_555
Na25 O105 2.501776 1_555
Na25 O107 2.503404 1_555
Na25 O103 2.512257 1_555
Na25 O117 2.584680 1_555
Na25 O119 2.608565 1_555
Na25 O115 2.612444 1_555
Na26 O124 2.474112 1_555
Na26 O120 2.595068 1_555
Na26 O132 2.613895 1_555
Na26 O134 2.621653 1_555
Na26 O122 2.683737 1_555
Na26 O136 2.727020 1_555
Na27 O123 2.532667 1_555
Na27 O137 2.569896 1_555
Na27 O133 2.619111 1_555
Na27 O135 2.673956 1_555
Na27 O121 2.693474 1_555
Na27 O125 2.743703 1_555
Na28 O140 2.557124 1_555
Na28 O130 2.620354 1_555
Na28 O138 2.626820 1_555
Na28 O142 2.639950 1_555
Na28 O126 2.653927 1_555
Na28 O128 2.733444 1_555
Na29 O141 2.563935 1_555
Na29 O131 2.619216 1_555
Na29 O139 2.635166 1_555
Na29 O143 2.646076 1_555
Na29 O127 2.650814 1_555
Na29 O129 2.743953 1_555
O0 Si0 1.627484 1_555
O0 Ta0 1.996221 1_555
O1 Si1 1.639596 1_545
O1 Ta1 1.918302 1_545
O2 Si2 1.633690 1_555
O2 Ta1 1.931035 1_555
O3 Si3 1.624842 1_555
O3 Ta0 1.951593 1_665
O4 Si5 1.641479 1_555
O4 Ta1 1.997803 1_545
O5 Si4 1.620278 1_655
O5 Ta0 1.949184 1_655
O6 Si6 1.619470 1_555
O6 Ta2 1.960369 1_555
O7 Si7 1.620105 1_555
O7 Ta3 1.962687 1_545
O8 Si9 1.618207 1_555
O8 Ta3 1.958100 1_555
O9 Si8 1.617379 1_655
O9 Ta2 1.964130 1_665
O10 Si10 1.620432 1_545
O10 Ta3 1.962463 1_545
O11 Si11 1.618497 1_545
O11 Ta2 1.962866 1_655
O12 Si10 1.673614 1_555
O12 Ta5 1.987166 1_555
O13 Si11 1.673069 1_555
O13 Ta4 1.986454 1_555
O14 Si6 1.671318 1_555
O14 Ta4 1.990441 1_445
O15 Si7 1.672702 1_555
O15 Ta5 1.986162 1_545
O16 Si8 1.673397 1_555
O16 Ta4 1.942172 1_455
O17 Si9 1.671823 1_555
O17 Ta5 1.942427 1_555
O18 Si2 1.633539 1_555
O18 Ta7 1.939046 1_555
O19 Si3 1.665951 1_555
O19 Ta6 2.004320 1_665
O20 Si4 1.666949 1_555
O20 Ta6 1.996515 1_555
O21 Si5 1.642739 1_555
O21 Ta7 1.973393 1_545
O22 Si0 1.663818 1_565
O22 Ta6 1.937175 1_565
O23 Si1 1.639630 1_555
O23 Ta7 2.024358 1_555
O24 Si12 1.612726 1_555
O24 Y0 2.167733 1_555
O25 Si13 1.612375 1_555
O25 Y1 2.171465 1_555
O26 Si14 1.620438 1_555
O26 Y0 2.197143 1_555
O27 Si15 1.622630 1_555
O27 Y1 2.197965 1_555
O28 Si16 1.620109 1_555
O28 Y0 2.190843 1_555
O29 Si17 1.621911 1_555
O29 Y1 2.192206 1_555
O30 Si18 1.646477 1_555
O30 Ta8 1.925963 1_555
O31 Si19 1.623767 1_555
O31 Y2 2.183486 1_555
O32 Si20 1.648735 1_555
O32 Ta8 1.924455 1_555
O33 Si21 1.622907 1_555
O33 Y2 2.187826 1_555
O34 Si22 1.642315 1_555
O34 Ta8 1.993730 1_555
O35 Si23 1.627295 1_555
O35 Y2 2.188112 1_555
O36 Si22 1.628893 1_555
O36 Ta9 1.968172 1_554
O37 Si23 1.652076 1_555
O37 Ta10 1.996208 1_554
O38 Si18 1.626363 1_555
O38 Ta9 1.967724 1_554
O39 Si19 1.650266 1_555
O39 Ta10 1.997217 1_554
O40 Si20 1.630624 1_555
O40 Ta9 1.961463 1_554
O41 Si21 1.642681 1_555
O41 Ta10 2.005511 1_554
O42 Si14 1.662241 1_555
O42 Ta11 1.966517 1_555
O43 Si15 1.647125 1_555
O43 Ta12 2.007953 1_555
O44 Si16 1.650387 1_555
O44 Ta11 1.949570 1_555
O45 Si17 1.639738 1_555
O45 Ta12 1.982113 1_555
O46 Si12 1.655515 1_555
O46 Ta11 2.040871 1_555
O47 Si13 1.649478 1_555
O47 Ta12 1.997016 1_555
O48 Si24 1.627559 1_555
O48 Ta13 1.926874 1_556
O49 Si25 1.628341 1_555
O49 Ta14 1.974451 1_556
O50 Si26 1.629097 1_555
O50 Ta13 2.008319 1_556
O51 Si27 1.627252 1_555
O51 Ta14 1.904913 1_556
O52 Si28 1.625495 1_555
O52 Ta13 1.933049 1_556
O53 Si29 1.633609 1_555
O53 Ta14 1.966001 1_556
O54 Si30 1.621856 1_555
O54 Ta15 1.972065 1_555
O55 Si31 1.631893 1_555
O55 Ta16 1.953557 1_555
O56 Si32 1.627262 1_555
O56 Ta15 1.958116 1_555
O57 Si33 1.638179 1_555
O57 Ta16 1.983152 1_555
O58 Si34 1.630485 1_555
O58 Ta15 1.908157 1_555
O59 Si35 1.628155 1_555
O59 Ta16 1.925299 1_555
O60 Si34 1.649737 1_555
O60 Ta17 1.974103 1_555
O61 Si35 1.652750 1_555
O61 Ta18 1.938914 1_555
O62 Si30 1.644470 1_555
O62 Ta17 1.920908 1_555
O63 Si31 1.654214 1_555
O63 Ta18 1.965932 1_555
O64 Si32 1.645957 1_555
O64 Ta17 1.969437 1_555
O65 Si33 1.651292 1_555
O65 Ta18 1.976064 1_555
O66 Si26 1.666497 1_555
O66 Ta19 1.936714 1_555
O67 Si27 1.660798 1_555
O67 Ta20 1.937326 1_555
O68 Si28 1.666416 1_555
O68 Ta19 1.934139 1_555
O69 Si29 1.662897 1_555
O69 Ta20 1.942379 1_555
O70 Si24 1.665012 1_555
O70 Ta19 1.936770 1_555
O71 Si25 1.663111 1_555
O71 Ta20 1.936795 1_555
O72 Si34 1.631614 1_555
O72 Ta0 2.004624 1_565
O73 Si35 1.623730 1_555
O73 Ta1 2.013027 1_555
O74 Si30 1.639268 1_555
O74 Ta1 2.035240 1_555
O75 Si31 1.635804 1_555
O75 Ta0 2.007360 1_665
O76 Si32 1.630374 1_555
O76 Ta0 1.999767 1_555
O77 Si33 1.646380 1_555
O77 Ta1 2.062624 1_545
O78 Si26 1.640064 1_555
O78 Ta2 2.000307 1_555
O79 Si27 1.630692 1_555
O79 Ta3 1.994474 1_545
O80 Si28 1.636771 1_555
O80 Ta2 2.002980 1_565
O81 Si29 1.633973 1_555
O81 Ta3 1.993586 1_555
O82 Si24 1.634394 1_555
O82 Ta3 1.990345 1_555
O83 Si25 1.634729 1_555
O83 Ta2 2.004228 1_665
O84 Si12 1.666056 1_555
O84 Ta5 2.069264 1_545
O85 Si13 1.666067 1_555
O85 Ta4 2.064850 1_545
O86 Si14 1.642263 1_555
O86 Ta4 2.035451 1_445
O87 Si15 1.648285 1_555
O87 Ta5 2.026010 1_545
O88 Si16 1.642526 1_555
O88 Ta5 2.024948 1_555
O89 Si17 1.647708 1_555
O89 Ta4 2.016712 1_555
O90 Si18 1.646742 1_555
O90 Ta7 2.027160 1_555
O91 Si19 1.655789 1_555
O91 Ta6 2.021655 1_665
O92 Si20 1.645800 1_555
O92 Ta7 1.973020 1_545
O93 Si21 1.657077 1_555
O93 Ta6 2.077652 1_655
O94 Si22 1.666881 1_555
O94 Ta6 1.990465 1_555
O95 Si23 1.640717 1_555
O95 Ta7 2.062581 1_545
O96 Si10 1.616136 1_545
O96 Y0 2.287431 1_555
O97 Si11 1.616851 1_545
O97 Y1 2.298164 1_555
O98 Si6 1.617544 1_555
O98 Y0 2.285417 1_555
O99 Si7 1.616137 1_555
O99 Y1 2.291977 1_555
O100 Si9 1.615202 1_555
O100 Y0 2.268303 1_555
O101 Si8 1.616249 1_655
O101 Y1 2.276367 1_555
O102 Si2 1.641017 1_555
O102 Ta8 2.077853 1_555
O103 Si3 1.617475 1_555
O103 Y2 2.283686 1_555
O104 Si5 1.633648 1_555
O104 Ta8 2.011070 1_555
O105 Si4 1.617278 1_655
O105 Y2 2.289069 1_555
O106 Si0 1.632097 1_555
O106 Ta8 2.085582 1_555
O107 Si1 1.625047 1_545
O107 Y2 2.282941 1_555
O108 Si24 1.625245 1_555
O108 Ta9 2.022682 1_555
O109 Si25 1.636612 1_555
O109 Ta10 2.006434 1_555
O110 Si27 1.622641 1_555
O110 Ta9 2.024503 1_555
O111 Si26 1.640236 1_655
O111 Ta10 2.004475 1_555
O112 Si28 1.628780 1_545
O112 Ta9 2.015376 1_555
O113 Si29 1.634000 1_545
O113 Ta10 2.010068 1_555
O114 Si30 1.645510 1_545
O114 Ta11 2.046886 1_555
O115 Si31 1.639454 1_545
O115 Ta12 2.011186 1_555
O116 Si32 1.649258 1_555
O116 Ta11 1.982697 1_555
O117 Si33 1.628565 1_555
O117 Ta12 2.020550 1_555
O118 Si35 1.642424 1_555
O118 Ta11 2.048833 1_555
O119 Si34 1.638577 1_655
O119 Ta12 2.000482 1_555
O120 Si22 1.646472 1_555
O120 Ta13 2.077587 1_555
O121 Si23 1.636099 1_555
O121 Ta14 1.975614 1_555
O122 Si19 1.626770 1_455
O122 Ta13 2.001142 1_555
O123 Si18 1.654623 1_555
O123 Ta14 2.046879 1_555
O124 Si20 1.639088 1_565
O124 Ta13 2.000465 1_555
O125 Si21 1.641085 1_565
O125 Ta14 2.039955 1_555
O126 Si14 1.626662 1_565
O126 Ta15 1.995262 1_555
O127 Si15 1.634889 1_565
O127 Ta16 1.984289 1_555
O128 Si16 1.639228 1_555
O128 Ta15 2.033515 1_555
O129 Si17 1.648639 1_555
O129 Ta16 2.018808 1_555
O130 Si13 1.637696 1_455
O130 Ta15 2.000210 1_555
O131 Si12 1.637189 1_555
O131 Ta16 2.008826 1_555
O132 Si0 1.644206 1_565
O132 Ta17 2.042500 1_555
O133 Si1 1.650671 1_555
O133 Ta18 2.004859 1_555
O134 Si2 1.652302 1_555
O134 Ta17 2.013997 1_555
O135 Si3 1.654910 1_555
O135 Ta18 2.069782 1_555
O136 Si4 1.649715 1_555
O136 Ta17 2.069353 1_555
O137 Si5 1.660407 1_555
O137 Ta18 2.037166 1_555
O138 Si6 1.653665 1_555
O138 Ta19 2.072262 1_555
O139 Si7 1.653752 1_555
O139 Ta20 2.067079 1_555
O140 Si8 1.650496 1_555
O140 Ta19 2.075151 1_555
O141 Si9 1.649423 1_555
O141 Ta20 2.071698 1_555
O142 Si10 1.652291 1_555
O142 Ta19 2.068624 1_555
O143 Si11 1.654755 1_555
O143 Ta20 2.061304 1_555
