# generated using pymatgen
data_Tl6SCl4
_symmetry_space_group_name_H-M   'P 1'
_cell_length_a   8.51277076
_cell_length_b   8.51277076
_cell_length_c   9.27117177
_cell_angle_alpha   90.00000000
_cell_angle_beta   90.00000000
_cell_angle_gamma   90.00000000
_symmetry_Int_Tables_number   1
_chemical_formula_structural   Tl6SCl4
_chemical_formula_sum   'Tl12 S2 Cl8'
_cell_volume   671.85647090
_cell_formula_units_Z   2
loop_
 _symmetry_equiv_pos_site_id
 _symmetry_equiv_pos_as_xyz
  1  'x, y, z'
loop_
 _atom_site_type_symbol
 _atom_site_label
 _atom_site_symmetry_multiplicity
 _atom_site_fract_x
 _atom_site_fract_y
 _atom_site_fract_z
 _atom_site_occupancy
  Tl  Tl0  1  0.67576549  0.88892006  0.50000000  1
  Tl  Tl1  1  0.32423451  0.11107994  0.50000000  1
  Tl  Tl2  1  0.61107994  0.82423451  -0.00000000  1
  Tl  Tl3  1  0.11107994  0.67576549  0.50000000  1
  Tl  Tl4  1  0.88892006  0.32423451  0.50000000  1
  Tl  Tl5  1  0.17576549  0.61107994  -0.00000000  1
  Tl  Tl6  1  0.82423451  0.38892006  -0.00000000  1
  Tl  Tl7  1  0.38892006  0.17576549  -0.00000000  1
  Tl  Tl8  1  -0.00000000  -0.00000000  0.80574952  1
  Tl  Tl9  1  0.50000000  0.50000000  0.69425048  1
  Tl  Tl10  1  -0.00000000  -0.00000000  0.19425048  1
  Tl  Tl11  1  0.50000000  0.50000000  0.30574952  1
  S  S0  1  -0.00000000  -0.00000000  0.50000000  1
  S  S1  1  0.50000000  0.50000000  -0.00000000  1
  Cl  Cl0  1  0.17216777  0.32783223  0.75000000  1
  Cl  Cl1  1  0.67216777  0.17216777  0.75000000  1
  Cl  Cl2  1  0.32783223  0.82783223  0.75000000  1
  Cl  Cl3  1  0.82783223  0.67216777  0.75000000  1
  Cl  Cl4  1  0.82783223  0.67216777  0.25000000  1
  Cl  Cl5  1  0.32783223  0.82783223  0.25000000  1
  Cl  Cl6  1  0.67216777  0.17216777  0.25000000  1
  Cl  Cl7  1  0.17216777  0.32783223  0.25000000  1
loop_
_geom_bond_atom_site_label_1
_geom_bond_atom_site_label_2
_geom_bond_distance
_geom_bond_site_symmetry_2
S0 Tl10 2.834656 1_555
S0 Tl8 2.834656 1_555
S0 Tl1 2.917618 1_555
S0 Tl4 2.917618 1_455
S0 Tl0 2.917618 1_445
S0 Tl3 2.917618 1_545
S1 Tl11 2.834656 1_555
S1 Tl9 2.834656 1_554
S1 Tl7 2.917618 1_555
S1 Tl5 2.917618 1_555
S1 Tl2 2.917618 1_555
S1 Tl6 2.917618 1_555
Cl0 Tl9 3.194299 1_555
Cl0 Tl8 3.194299 1_555
Cl0 Tl7 3.233039 1_556
Cl0 Tl1 3.233039 1_555
Cl1 Tl8 3.194299 1_655
Cl1 Tl9 3.194299 1_555
Cl1 Tl4 3.233039 1_555
Cl1 Tl6 3.233039 1_556
Cl2 Tl9 3.194299 1_555
Cl2 Tl8 3.194299 1_565
Cl2 Tl5 3.233039 1_556
Cl2 Tl3 3.233039 1_555
Cl3 Tl9 3.194299 1_555
Cl3 Tl8 3.194299 1_665
Cl3 Tl2 3.233039 1_556
Cl3 Tl0 3.233039 1_555
Cl4 Tl10 3.194299 1_665
Cl4 Tl11 3.194299 1_555
Cl4 Tl0 3.233039 1_555
Cl4 Tl2 3.233039 1_555
Cl5 Tl11 3.194299 1_555
Cl5 Tl10 3.194299 1_565
Cl5 Tl5 3.233039 1_555
Cl5 Tl3 3.233039 1_555
Cl6 Tl10 3.194299 1_655
Cl6 Tl11 3.194299 1_555
Cl6 Tl4 3.233039 1_555
Cl6 Tl6 3.233039 1_555
Cl7 Tl10 3.194299 1_555
Cl7 Tl11 3.194299 1_555
Cl7 Tl7 3.233039 1_555
Cl7 Tl1 3.233039 1_555
