# generated using pymatgen
data_Na3YZnP2SO12
_symmetry_space_group_name_H-M   'P 1'
_cell_length_a   9.21878361
_cell_length_b   9.21654498
_cell_length_c   22.93453381
_cell_angle_alpha   88.62694594
_cell_angle_beta   90.00000000
_cell_angle_gamma   120.00803512
_symmetry_Int_Tables_number   1
_chemical_formula_structural   Na3YZnP2SO12
_chemical_formula_sum   'Na18 Y6 Zn6 P12 S6 O72'
_cell_volume   1686.78921084
_cell_formula_units_Z   6
loop_
 _symmetry_equiv_pos_site_id
 _symmetry_equiv_pos_as_xyz
  1  'x, y, z'
loop_
 _atom_site_type_symbol
 _atom_site_label
 _atom_site_symmetry_multiplicity
 _atom_site_fract_x
 _atom_site_fract_y
 _atom_site_fract_z
 _atom_site_occupancy
  Na  Na0  1  0.35690619  0.35187987  0.24347526  1
  Na  Na1  1  0.99777025  0.62806897  0.24260247  1
  Na  Na2  1  0.63029872  0.62806897  0.74260247  1
  Na  Na3  1  0.99497368  0.35187987  0.74347526  1
  Na  Na4  1  0.02357319  0.68521287  0.57680826  1
  Na  Na5  1  0.66443725  0.96140197  0.57593547  1
  Na  Na6  1  0.29696572  0.96140197  0.07593547  1
  Na  Na7  1  0.66164068  0.68521287  0.07680826  1
  Na  Na8  1  0.69023919  0.01854687  0.91014226  1
  Na  Na9  1  0.33110325  0.29473597  0.90926947  1
  Na  Na10  1  0.96363172  0.29473597  0.40926947  1
  Na  Na11  1  0.32830668  0.01854687  0.41014226  1
  Na  Na12  1  0.97471351  0.97883555  0.49074950  1
  Na  Na13  1  0.00412204  0.97883555  0.99074950  1
  Na  Na14  1  0.64138051  0.31216855  0.82408250  1
  Na  Na15  1  0.67078904  0.31216855  0.32408250  1
  Na  Na16  1  0.30804651  0.64550255  0.15741650  1
  Na  Na17  1  0.33745504  0.64550255  0.65741650  1
  Y  Y0  1  0.01069704  0.01499031  0.65028984  1
  Y  Y1  1  0.00429327  0.01499031  0.15028984  1
  Y  Y2  1  0.67736404  0.34832331  0.98362284  1
  Y  Y3  1  0.67096027  0.34832331  0.48362284  1
  Y  Y4  1  0.34403004  0.68165731  0.31695684  1
  Y  Y5  1  0.33762627  0.68165731  0.81695684  1
  Zn  Zn0  1  0.98777323  0.99243069  0.34681255  1
  Zn  Zn1  1  0.00465746  0.99243069  0.84681255  1
  Zn  Zn2  1  0.65444023  0.32576369  0.68014555  1
  Zn  Zn3  1  0.67132446  0.32576369  0.18014555  1
  Zn  Zn4  1  0.32110623  0.65909769  0.01347955  1
  Zn  Zn5  1  0.33799046  0.65909769  0.51347955  1
  P  P0  1  0.30436345  0.01196384  0.25101211  1
  P  P1  1  0.99464142  0.29976035  0.25554658  1
  P  P2  1  0.30511893  0.29976035  0.75554658  1
  P  P3  1  0.70760039  0.01196384  0.75101211  1
  P  P4  1  0.97103045  0.34529684  0.58434511  1
  P  P5  1  0.66130842  0.63309335  0.58887958  1
  P  P6  1  0.97178593  0.63309335  0.08887958  1
  P  P7  1  0.37426739  0.34529684  0.08434511  1
  P  P8  1  0.63769645  0.67863084  0.91767911  1
  P  P9  1  0.32797442  0.96642735  0.92221358  1
  P  P10  1  0.63845193  0.96642735  0.42221358  1
  P  P11  1  0.04093339  0.67863084  0.41767911  1
  S  S0  1  0.70301856  0.69441642  0.25019836  1
  S  S1  1  0.99139786  0.69441642  0.75019836  1
  S  S2  1  0.36968556  0.02774942  0.58353136  1
  S  S3  1  0.65806486  0.02774942  0.08353136  1
  S  S4  1  0.03635156  0.36108342  0.91686536  1
  S  S5  1  0.32473086  0.36108342  0.41686536  1
  O  O0  1  0.21651317  0.03074701  0.30598711  1
  O  O1  1  0.80672115  0.78700555  0.30008502  1
  O  O2  1  0.97842347  0.20068371  0.31316902  1
  O  O3  1  0.22226024  0.20068371  0.81316902  1
  O  O4  1  0.98028440  0.78700555  0.80008502  1
  O  O5  1  0.81423385  0.03074701  0.80598711  1
  O  O6  1  0.79299570  0.98708003  0.69659816  1
  O  O7  1  0.19387994  0.21067169  0.70286231  1
  O  O8  1  0.01440903  0.78862324  0.69409593  1
  O  O9  1  0.77421422  0.78862324  0.19409593  1
  O  O10  1  0.01679175  0.21067169  0.20286231  1
  O  O11  1  0.19408433  0.98708003  0.19659816  1
  O  O12  1  0.88318017  0.36408001  0.63932011  1
  O  O13  1  0.47338815  0.12033855  0.63341802  1
  O  O14  1  0.64509047  0.53401671  0.64650202  1
  O  O15  1  0.88892724  0.53401671  0.14650202  1
  O  O16  1  0.64695140  0.12033855  0.13341802  1
  O  O17  1  0.48090085  0.36408001  0.13932011  1
  O  O18  1  0.45966270  0.32041303  0.02993116  1
  O  O19  1  0.86054694  0.54400469  0.03619531  1
  O  O20  1  0.68107603  0.12195624  0.02742893  1
  O  O21  1  0.44088122  0.12195624  0.52742893  1
  O  O22  1  0.68345875  0.54400469  0.53619531  1
  O  O23  1  0.86075133  0.32041303  0.52993116  1
  O  O24  1  0.54984617  0.69741401  0.97265411  1
  O  O25  1  0.14005415  0.45367255  0.96675202  1
  O  O26  1  0.31175647  0.86735071  0.97983602  1
  O  O27  1  0.55559324  0.86735071  0.47983602  1
  O  O28  1  0.31361740  0.45367255  0.46675202  1
  O  O29  1  0.14756685  0.69741401  0.47265411  1
  O  O30  1  0.12632870  0.65374703  0.36326516  1
  O  O31  1  0.52721294  0.87733869  0.36952931  1
  O  O32  1  0.34774203  0.45529024  0.36076293  1
  O  O33  1  0.10754722  0.45529024  0.86076293  1
  O  O34  1  0.35012475  0.87733869  0.86952931  1
  O  O35  1  0.52741733  0.65374703  0.86326516  1
  O  O36  1  0.02785466  0.83985670  0.41091227  1
  O  O37  1  0.81816424  0.99518535  0.41575389  1
  O  O38  1  0.16928997  0.19470480  0.41657952  1
  O  O39  1  0.02541483  0.19470480  0.91657952  1
  O  O40  1  0.17702111  0.99518535  0.91575389  1
  O  O41  1  0.81200203  0.83985670  0.91091227  1
  O  O42  1  0.98638259  0.18455362  0.58748259  1
  O  O43  1  0.19474248  0.99824435  0.58739045  1
  O  O44  1  0.82705280  0.81029795  0.58839708  1
  O  O45  1  0.98324515  0.81029795  0.08839708  1
  O  O46  1  0.80350187  0.99824435  0.08739045  1
  O  O47  1  0.19817103  0.18455362  0.08748259  1
  O  O48  1  0.69452166  0.17318970  0.74424527  1
  O  O49  1  0.48483124  0.32851835  0.74908689  1
  O  O50  1  0.83595697  0.52803780  0.74991252  1
  O  O51  1  0.69208183  0.52803780  0.24991252  1
  O  O52  1  0.84368811  0.32851835  0.24908689  1
  O  O53  1  0.47866903  0.17318970  0.24424527  1
  O  O54  1  0.65304959  0.51788662  0.92081559  1
  O  O55  1  0.86140948  0.33157735  0.92072345  1
  O  O56  1  0.49371980  0.14363095  0.92173008  1
  O  O57  1  0.64991215  0.14363095  0.42173008  1
  O  O58  1  0.47016887  0.33157735  0.42072345  1
  O  O59  1  0.86483803  0.51788662  0.42081559  1
  O  O60  1  0.36118766  0.50652370  0.07757927  1
  O  O61  1  0.15149724  0.66185235  0.08242089  1
  O  O62  1  0.50262297  0.86137180  0.08324652  1
  O  O63  1  0.35874783  0.86137180  0.58324652  1
  O  O64  1  0.51035411  0.66185235  0.58242089  1
  O  O65  1  0.14533503  0.50652370  0.57757927  1
  O  O66  1  0.31971559  0.85122062  0.25414959  1
  O  O67  1  0.52807548  0.66491135  0.25405745  1
  O  O68  1  0.16038580  0.47696495  0.25506408  1
  O  O69  1  0.31657815  0.47696495  0.75506408  1
  O  O70  1  0.13683487  0.66491135  0.75405745  1
  O  O71  1  0.53150403  0.85122062  0.75414959  1
loop_
_geom_bond_atom_site_label_1
_geom_bond_atom_site_label_2
_geom_bond_distance
_geom_bond_site_symmetry_2
Na0 O53 2.412539 1_555
Na0 O67 2.520399 1_555
Na0 O68 2.604934 1_555
Na0 O17 2.623731 1_555
Na0 O51 2.683079 1_555
Na0 O32 2.890446 1_555
Na0 O10 2.892892 1_555
Na0 O0 2.907857 1_555
Na1 O52 2.391588 1_555
Na1 O15 2.416088 1_555
Na1 O51 2.492688 1_555
Na1 O68 2.517482 1_655
Na1 O66 2.651278 1_655
Na2 O49 2.391588 1_555
Na2 O14 2.416090 1_555
Na2 O50 2.492697 1_555
Na2 O69 2.517491 1_555
Na2 O71 2.651285 1_555
Na3 O48 2.412532 1_555
Na3 O70 2.520400 1_655
Na3 O69 2.604925 1_655
Na3 O12 2.623727 1_555
Na3 O50 2.683071 1_555
Na3 O33 2.890445 1_655
Na3 O7 2.892892 1_655
Na3 O5 2.907857 1_555
Na4 O65 2.412523 1_555
Na4 O43 2.520399 1_555
Na4 O44 2.604934 1_455
Na4 O29 2.623705 1_555
Na4 O63 2.683073 1_555
Na4 O8 2.890446 1_555
Na4 O22 2.892892 1_455
Na4 O12 2.907857 1_455
Na5 O64 2.391581 1_555
Na5 O27 2.416068 1_555
Na5 O63 2.492700 1_555
Na5 O44 2.517482 1_555
Na5 O42 2.651278 1_565
Na6 O61 2.391581 1_555
Na6 O26 2.416063 1_554
Na6 O62 2.492682 1_555
Na6 O45 2.517491 1_455
Na6 O47 2.651285 1_565
Na7 O60 2.412538 1_555
Na7 O46 2.520400 1_555
Na7 O45 2.604925 1_555
Na7 O24 2.623712 1_554
Na7 O62 2.683088 1_555
Na7 O9 2.890445 1_555
Na7 O19 2.892892 1_555
Na7 O17 2.907857 1_555
Na8 O41 2.412539 1_545
Na8 O55 2.520389 1_555
Na8 O56 2.604915 1_555
Na8 O5 2.623731 1_555
Na8 O39 2.683079 1_655
Na8 O20 2.890420 1_556
Na8 O34 2.892892 1_545
Na8 O24 2.907857 1_545
Na9 O40 2.391588 1_545
Na9 O3 2.416088 1_555
Na9 O39 2.492688 1_555
Na9 O56 2.517496 1_555
Na9 O54 2.651280 1_555
Na10 O37 2.391588 1_545
Na10 O2 2.416090 1_555
Na10 O38 2.492697 1_655
Na10 O57 2.517480 1_555
Na10 O59 2.651267 1_555
Na11 O36 2.412532 1_545
Na11 O58 2.520388 1_555
Na11 O57 2.604932 1_555
Na11 O0 2.623727 1_555
Na11 O38 2.683071 1_555
Na11 O21 2.890423 1_555
Na11 O31 2.892892 1_545
Na11 O29 2.907857 1_545
Na12 O37 2.295427 1_555
Na12 O36 2.444064 1_655
Na12 O38 2.517473 1_665
Na12 O44 2.645660 1_555
Na12 O42 2.919909 1_565
Na12 O43 2.952112 1_655
Na13 O40 2.295427 1_555
Na13 O41 2.444064 1_455
Na13 O39 2.517473 1_565
Na13 O45 2.645660 1_456
Na13 O47 2.919909 1_566
Na13 O46 2.952112 1_456
Na14 O49 2.295427 1_555
Na14 O48 2.444064 1_555
Na14 O50 2.517473 1_555
Na14 O56 2.645660 1_555
Na14 O54 2.919909 1_555
Na14 O55 2.952112 1_555
Na15 O52 2.295427 1_555
Na15 O53 2.444064 1_555
Na15 O51 2.517473 1_555
Na15 O57 2.645660 1_555
Na15 O59 2.919909 1_555
Na15 O58 2.952112 1_555
Na16 O61 2.295427 1_555
Na16 O60 2.444064 1_555
Na16 O62 2.517473 1_555
Na16 O68 2.645660 1_555
Na16 O66 2.919909 1_555
Na16 O67 2.952112 1_555
Na17 O64 2.295427 1_555
Na17 O65 2.444064 1_555
Na17 O63 2.517473 1_555
Na17 O69 2.645660 1_555
Na17 O71 2.919909 1_555
Na17 O70 2.952112 1_555
O0 P0 1.557640 1_555
O0 Zn0 2.165022 1_445
O1 S0 1.477150 1_555
O1 Zn0 2.110763 1_555
O2 P1 1.551861 1_555
O2 Zn0 2.093153 1_545
O3 P2 1.551861 1_555
O3 Zn1 2.093153 1_545
O4 S1 1.477150 1_555
O4 Zn1 2.110763 1_655
O5 P3 1.557640 1_555
O5 Zn1 2.165022 1_645
O6 P3 1.556938 1_565
O6 Y0 2.166213 1_665
O7 P2 1.546318 1_555
O7 Y0 2.148498 1_555
O8 S1 1.488845 1_455
O8 Y0 2.309597 1_565
O9 S0 1.488845 1_555
O9 Y1 2.309597 1_665
O10 P1 1.546318 1_455
O10 Y1 2.148498 1_555
O11 P0 1.556938 1_565
O11 Y1 2.166213 1_565
O12 P4 1.557640 1_555
O12 Zn2 2.165022 1_555
O13 S2 1.477150 1_555
O13 Zn2 2.110763 1_555
O14 P5 1.551861 1_555
O14 Zn2 2.093153 1_555
O15 P6 1.551861 1_555
O15 Zn3 2.093153 1_555
O16 S3 1.477150 1_555
O16 Zn3 2.110763 1_555
O17 P7 1.557640 1_555
O17 Zn3 2.165022 1_555
O18 P7 1.556938 1_555
O18 Y2 2.166213 1_554
O19 P6 1.546318 1_555
O19 Y2 2.148498 1_554
O20 S3 1.488845 1_555
O20 Y2 2.309597 1_554
O21 S2 1.488845 1_555
O21 Y3 2.309597 1_555
O22 P5 1.546318 1_555
O22 Y3 2.148498 1_555
O23 P4 1.556938 1_555
O23 Y3 2.166213 1_555
O24 P8 1.557640 1_555
O24 Zn4 2.165022 1_556
O25 S4 1.477150 1_555
O25 Zn4 2.110763 1_556
O26 P9 1.551861 1_555
O26 Zn4 2.093153 1_556
O27 P10 1.551861 1_555
O27 Zn5 2.093153 1_555
O28 S5 1.477150 1_555
O28 Zn5 2.110763 1_555
O29 P11 1.557640 1_555
O29 Zn5 2.165022 1_555
O30 P11 1.556938 1_555
O30 Y4 2.166213 1_555
O31 P10 1.546318 1_555
O31 Y4 2.148498 1_555
O32 S5 1.488845 1_555
O32 Y4 2.309597 1_555
O33 S4 1.488845 1_555
O33 Y5 2.309597 1_555
O34 P9 1.546318 1_555
O34 Y5 2.148498 1_555
O35 P8 1.556938 1_555
O35 Y5 2.166213 1_555
O36 P11 1.553965 1_555
O36 Zn0 2.166975 1_455
O37 P10 1.547852 1_555
O37 Zn0 2.233177 1_555
O38 S5 1.485752 1_555
O38 Zn0 2.420429 1_445
O39 S4 1.485757 1_555
O39 Zn1 2.420429 1_545
O40 P9 1.547843 1_555
O40 Zn1 2.233177 1_555
O41 P8 1.553970 1_555
O41 Zn1 2.166975 1_655
O42 P4 1.557131 1_555
O42 Y0 2.193162 1_655
O43 S2 1.497651 1_565
O43 Y0 2.292625 1_565
O44 P5 1.582788 1_555
O44 Y0 2.318158 1_665
O45 P6 1.582792 1_555
O45 Y1 2.318158 1_665
O46 S3 1.497642 1_565
O46 Y1 2.292625 1_665
O47 P7 1.557136 1_555
O47 Y1 2.193162 1_555
O48 P3 1.553965 1_555
O48 Zn2 2.166975 1_555
O49 P2 1.547852 1_555
O49 Zn2 2.233177 1_555
O50 S1 1.485752 1_555
O50 Zn2 2.420429 1_555
O51 S0 1.485757 1_555
O51 Zn3 2.420429 1_555
O52 P1 1.547843 1_555
O52 Zn3 2.233177 1_555
O53 P0 1.553970 1_555
O53 Zn3 2.166975 1_555
O54 P8 1.557145 1_555
O54 Y2 2.193162 1_555
O55 S4 1.497637 1_655
O55 Y2 2.292625 1_555
O56 P9 1.582786 1_545
O56 Y2 2.318158 1_555
O57 P10 1.582778 1_545
O57 Y3 2.318158 1_555
O58 S5 1.497655 1_555
O58 Y3 2.292625 1_555
O59 P11 1.557134 1_655
O59 Y3 2.193162 1_555
O60 P7 1.553978 1_555
O60 Zn4 2.166975 1_555
O61 P6 1.547838 1_455
O61 Zn4 2.233177 1_555
O62 S3 1.485751 1_565
O62 Zn4 2.420429 1_555
O63 S2 1.485743 1_565
O63 Zn5 2.420429 1_555
O64 P5 1.547856 1_555
O64 Zn5 2.233177 1_555
O65 P4 1.553968 1_455
O65 Zn5 2.166975 1_555
O66 P0 1.557131 1_565
O66 Y4 2.193162 1_555
O67 S0 1.497651 1_555
O67 Y4 2.292625 1_555
O68 P1 1.582788 1_455
O68 Y4 2.318158 1_555
O69 P2 1.582792 1_555
O69 Y5 2.318158 1_555
O70 S1 1.497642 1_455
O70 Y5 2.292625 1_555
O71 P3 1.557136 1_565
O71 Y5 2.193162 1_555
