# generated using pymatgen
data_Na5MgSiGe3P5O24
_symmetry_space_group_name_H-M   'P 1'
_cell_length_a   8.64394246
_cell_length_b   8.60878013
_cell_length_c   21.68835297
_cell_angle_alpha   90.11036562
_cell_angle_beta   89.87438902
_cell_angle_gamma   119.88384623
_symmetry_Int_Tables_number   1
_chemical_formula_structural   Na5MgSiGe3P5O24
_chemical_formula_sum   'Na15 Mg3 Si3 Ge9 P15 O72'
_cell_volume   1399.31848247
_cell_formula_units_Z   3
loop_
 _symmetry_equiv_pos_site_id
 _symmetry_equiv_pos_as_xyz
  1  'x, y, z'
loop_
 _atom_site_type_symbol
 _atom_site_label
 _atom_site_symmetry_multiplicity
 _atom_site_fract_x
 _atom_site_fract_y
 _atom_site_fract_z
 _atom_site_occupancy
  Na  Na0  1  0.63913616  0.00699783  0.24680156  1
  Na  Na1  1  0.36850391  0.36190011  0.24681883  1
  Na  Na2  1  0.99310597  0.63210303  0.24713873  1
  Na  Na3  1  0.63218225  0.62737371  0.74900737  1
  Na  Na4  1  0.99559480  0.36801115  0.74907787  1
  Na  Na5  1  0.37409442  0.00596002  0.74659435  1
  Na  Na6  1  0.66292188  0.97281444  0.58347443  1
  Na  Na7  1  0.33378173  0.30362507  0.92060569  1
  Na  Na8  1  0.32802356  0.03349260  0.41590564  1
  Na  Na9  1  0.00026878  0.00024349  0.49710453  1
  Na  Na10  1  0.99072123  0.99355375  0.00167285  1
  Na  Na11  1  0.67467241  0.33558721  0.83747186  1
  Na  Na12  1  0.67424158  0.34027389  0.33306350  1
  Na  Na13  1  0.33359450  0.66701696  0.16113876  1
  Na  Na14  1  0.32659970  0.66306926  0.66265096  1
  Mg  Mg0  1  0.99549915  0.99960385  0.35532445  1
  Mg  Mg1  1  0.66547335  0.33105196  0.68260732  1
  Mg  Mg2  1  0.66767637  0.33367583  0.18087162  1
  Si  Si0  1  0.37172006  0.04045545  0.58317483  1
  Si  Si1  1  0.62558977  0.66903404  0.91866756  1
  Si  Si2  1  0.03874508  0.37885304  0.91815764  1
  Ge  Ge0  1  0.99310106  0.99722390  0.85827974  1
  Ge  Ge1  1  0.00736984  0.99993159  0.64325386  1
  Ge  Ge2  1  0.99855227  0.00060072  0.14373880  1
  Ge  Ge3  1  0.67713181  0.34083507  0.98207007  1
  Ge  Ge4  1  0.66617703  0.33562063  0.48217291  1
  Ge  Ge5  1  0.33560092  0.66327476  0.01979481  1
  Ge  Ge6  1  0.32950140  0.66563814  0.51972304  1
  Ge  Ge7  1  0.33220888  0.66463087  0.31604826  1
  Ge  Ge8  1  0.33068092  0.66195758  0.82123447  1
  P  P0  1  0.28839520  0.99882015  0.25164231  1
  P  P1  1  0.71131202  0.71206191  0.25123096  1
  P  P2  1  0.00089013  0.28889335  0.25115990  1
  P  P3  1  0.28359825  0.28662459  0.75134345  1
  P  P4  1  0.00385133  0.71703208  0.75160126  1
  P  P5  1  0.71310031  0.99764601  0.75095770  1
  P  P6  1  0.96209391  0.33784846  0.58354113  1
  P  P7  1  0.66518589  0.62289262  0.58349958  1
  P  P8  1  0.96413682  0.62877516  0.08357216  1
  P  P9  1  0.66385086  0.03834360  0.08300577  1
  P  P10  1  0.37299161  0.33322274  0.08334750  1
  P  P11  1  0.33378950  0.95321891  0.91749679  1
  P  P12  1  0.62446307  0.95592290  0.41844619  1
  P  P13  1  0.33761692  0.38328120  0.41861337  1
  P  P14  1  0.03946763  0.65862250  0.41837071  1
  O  O0  1  0.21205500  0.03227062  0.30959422  1
  O  O1  1  0.82604189  0.79107752  0.30695631  1
  O  O2  1  0.96663698  0.17492273  0.30704638  1
  O  O3  1  0.20110541  0.16588328  0.80869220  1
  O  O4  1  0.96732743  0.80351686  0.80784524  1
  O  O5  1  0.83781631  0.03416131  0.80633530  1
  O  O6  1  0.79136255  0.95700678  0.69154790  1
  O  O7  1  0.15944793  0.20417296  0.69421115  1
  O  O8  1  0.04259139  0.83723901  0.69335527  1
  O  O9  1  0.78913693  0.83551837  0.19267840  1
  O  O10  1  0.04615665  0.21067234  0.19241527  1
  O  O11  1  0.16387053  0.95527081  0.19414251  1
  O  O12  1  0.89192988  0.37300116  0.64292470  1
  O  O13  1  0.49062110  0.10628535  0.64426173  1
  O  O14  1  0.63191849  0.51945609  0.64295735  1
  O  O15  1  0.89157435  0.52230692  0.14249563  1
  O  O16  1  0.63222191  0.11071241  0.14255802  1
  O  O17  1  0.47995386  0.36556220  0.14183084  1
  O  O18  1  0.45646758  0.29759155  0.02422834  1
  O  O19  1  0.84086781  0.54528602  0.02620762  1
  O  O20  1  0.70081522  0.16163132  0.02557358  1
  O  O21  1  0.46273114  0.16567333  0.52104817  1
  O  O22  1  0.70664015  0.54251201  0.52594169  1
  O  O23  1  0.83492877  0.29334773  0.52681832  1
  O  O24  1  0.53236359  0.70824358  0.97563278  1
  O  O25  1  0.17842541  0.46690365  0.97415788  1
  O  O26  1  0.29425770  0.83144778  0.97275407  1
  O  O27  1  0.53281177  0.83806487  0.47567016  1
  O  O28  1  0.30592991  0.47298295  0.47468987  1
  O  O29  1  0.16737305  0.69764486  0.47335619  1
  O  O30  1  0.12076635  0.62369158  0.35783982  1
  O  O31  1  0.49785642  0.87590035  0.35960867  1
  O  O32  1  0.37295646  0.49804513  0.35808344  1
  O  O33  1  0.11970736  0.49600163  0.85315863  1
  O  O34  1  0.37066806  0.87764528  0.85572587  1
  O  O35  1  0.50047871  0.62189336  0.85436389  1
  O  O36  1  0.02739273  0.82726683  0.41325676  1
  O  O37  1  0.80440411  0.97383574  0.41387171  1
  O  O38  1  0.17745893  0.19719783  0.41404320  1
  O  O39  1  0.03409541  0.18645696  0.90834726  1
  O  O40  1  0.16781175  0.97678638  0.90876236  1
  O  O41  1  0.82132469  0.84265809  0.90948310  1
  O  O42  1  0.97049416  0.15949276  0.58891029  1
  O  O43  1  0.17372721  0.02153350  0.58816023  1
  O  O44  1  0.83081754  0.81795884  0.58871225  1
  O  O45  1  0.98019569  0.81855122  0.08885939  1
  O  O46  1  0.83662127  0.02082430  0.08790395  1
  O  O47  1  0.18328143  0.16092815  0.08805391  1
  O  O48  1  0.69342015  0.16386224  0.74745467  1
  O  O49  1  0.47029645  0.31022513  0.74672255  1
  O  O50  1  0.83999965  0.53060048  0.74658942  1
  O  O51  1  0.68125799  0.52209482  0.24365325  1
  O  O52  1  0.84130488  0.31849626  0.24388523  1
  O  O53  1  0.47663506  0.15924068  0.24427787  1
  O  O54  1  0.63411700  0.48359617  0.92500690  1
  O  O55  1  0.84132814  0.35315505  0.92448536  1
  O  O56  1  0.49765204  0.14236848  0.92296919  1
  O  O57  1  0.63269557  0.14273633  0.42298242  1
  O  O58  1  0.51108488  0.36760040  0.42284080  1
  O  O59  1  0.85431832  0.48654905  0.42522853  1
  O  O60  1  0.35376870  0.50270561  0.07625174  1
  O  O61  1  0.15159423  0.64875678  0.07401363  1
  O  O62  1  0.49395783  0.85121893  0.07486487  1
  O  O63  1  0.35516399  0.84157326  0.57336539  1
  O  O64  1  0.49960235  0.64738685  0.57440733  1
  O  O65  1  0.15012437  0.49999136  0.57404068  1
  O  O66  1  0.30597177  0.82258877  0.25661675  1
  O  O67  1  0.51812507  0.69491175  0.25674938  1
  O  O68  1  0.17686871  0.48228535  0.25617542  1
  O  O69  1  0.30131600  0.47761085  0.75507581  1
  O  O70  1  0.17692520  0.70081771  0.75602373  1
  O  O71  1  0.52315144  0.82634429  0.75643917  1
loop_
_geom_bond_atom_site_label_1
_geom_bond_atom_site_label_2
_geom_bond_distance
_geom_bond_site_symmetry_2
Na0 O53 2.351360 1_555
Na0 O67 2.357914 1_545
Na0 O52 2.362071 1_555
Na0 O16 2.444145 1_555
Na0 O66 2.510368 1_545
Na0 O9 2.670641 1_545
Na0 O31 2.715706 1_545
Na0 O2 2.782436 1_555
Na1 O51 2.345102 1_555
Na1 O53 2.354747 1_555
Na1 O68 2.359575 1_555
Na1 O17 2.464603 1_555
Na1 O67 2.498378 1_555
Na1 O32 2.672639 1_555
Na1 O10 2.691581 1_555
Na1 O0 2.813863 1_555
Na2 O52 2.342028 1_555
Na2 O51 2.371832 1_555
Na2 O66 2.372136 1_655
Na2 O15 2.447099 1_555
Na2 O68 2.503758 1_655
Na2 O30 2.660692 1_655
Na2 O11 2.674442 1_655
Na2 O1 2.756059 1_555
Na3 O50 2.326892 1_555
Na3 O71 2.335623 1_555
Na3 O49 2.368033 1_555
Na3 O14 2.478514 1_555
Na3 O69 2.486712 1_555
Na3 O35 2.540674 1_555
Na3 O6 2.759394 1_555
Na3 O4 2.819853 1_555
Na4 O48 2.310454 1_555
Na4 O69 2.325316 1_655
Na4 O50 2.376445 1_555
Na4 O12 2.480545 1_555
Na4 O70 2.492480 1_655
Na4 O33 2.506730 1_655
Na4 O7 2.718123 1_655
Na4 O5 2.786153 1_555
Na5 O49 2.319910 1_555
Na5 O70 2.320848 1_545
Na5 O48 2.393378 1_555
Na5 O13 2.411855 1_555
Na5 O71 2.466655 1_545
Na5 O34 2.607756 1_545
Na5 O8 2.741278 1_545
Na5 O3 2.825011 1_555
Na6 O42 2.325503 1_565
Na6 O63 2.325514 1_555
Na6 O44 2.413620 1_555
Na6 O64 2.436848 1_555
Na6 O27 2.603509 1_555
Na6 O6 2.628377 1_555
Na6 O13 2.639584 1_565
Na6 O23 2.692871 1_565
Na7 O54 2.267517 1_555
Na7 O39 2.279665 1_555
Na7 O56 2.428230 1_555
Na7 O40 2.453033 1_545
Na7 O18 2.498790 1_556
Na7 O25 2.644992 1_555
Na7 O3 2.694202 1_555
Na7 O35 2.778368 1_555
Na8 O36 2.304574 1_545
Na8 O57 2.318805 1_555
Na8 O38 2.347289 1_555
Na8 O58 2.502689 1_555
Na8 O0 2.514129 1_555
Na8 O21 2.555793 1_555
Na8 O31 2.730729 1_545
Na8 O29 2.801005 1_545
Na9 O37 2.409365 1_445
Na9 O38 2.424428 1_555
Na9 O36 2.432091 1_545
Na9 O43 2.432994 1_555
Na9 O42 2.499820 1_455
Na9 O44 2.502844 1_445
Na10 O46 2.371943 1_565
Na10 O45 2.393168 1_555
Na10 O41 2.436533 1_554
Na10 O47 2.443335 1_665
Na10 O39 2.526746 1_664
Na10 O40 2.574904 1_654
Na11 O55 2.335221 1_555
Na11 O54 2.404902 1_555
Na11 O56 2.451483 1_555
Na11 O48 2.499911 1_555
Na11 O50 2.521026 1_555
Na11 O49 2.582953 1_555
Na12 O59 2.460687 1_555
Na12 O52 2.473364 1_555
Na12 O51 2.476011 1_555
Na12 O58 2.480408 1_555
Na12 O57 2.495048 1_555
Na12 O53 2.530735 1_555
Na13 O60 2.378054 1_555
Na13 O62 2.397270 1_555
Na13 O61 2.415722 1_555
Na13 O66 2.538611 1_555
Na13 O68 2.542911 1_555
Na13 O67 2.555930 1_555
Na14 O63 2.409057 1_555
Na14 O65 2.420679 1_555
Na14 O64 2.470833 1_555
Na14 O69 2.505533 1_555
Na14 O70 2.507078 1_555
Na14 O71 2.573772 1_555
Mg0 O2 1.954222 1_565
Mg0 O1 1.961590 1_555
Mg0 O37 2.004202 1_555
Mg0 O0 2.008766 1_665
Mg0 O36 2.066897 1_655
Mg0 O38 2.079325 1_665
Mg1 O13 1.950683 1_555
Mg1 O14 1.982305 1_555
Mg1 O12 1.998059 1_555
Mg1 O48 2.112759 1_555
Mg1 O49 2.121635 1_555
Mg1 O50 2.137775 1_555
Mg2 O17 1.968786 1_555
Mg2 O16 1.969129 1_555
Mg2 O15 1.985384 1_555
Mg2 O51 2.073963 1_555
Mg2 O52 2.083858 1_555
Mg2 O53 2.097621 1_555
Ge0 O41 1.799492 1_555
Ge0 O39 1.837987 1_665
Ge0 O5 1.898776 1_565
Ge0 O4 1.910702 1_555
Ge0 O40 1.945036 1_655
Ge0 O3 1.973236 1_665
Ge1 O43 1.804713 1_565
Ge1 O8 1.915018 1_555
Ge1 O7 1.933042 1_565
Ge1 O44 1.949577 1_455
Ge1 O42 1.954941 1_465
Ge1 O6 2.006309 1_455
Ge2 O45 1.908897 1_545
Ge2 O46 1.925371 1_555
Ge2 O47 1.927461 1_655
Ge2 O10 1.951252 1_655
Ge2 O9 1.963902 1_545
Ge2 O11 1.988350 1_645
Ge3 O55 1.851540 1_555
Ge3 O19 1.880025 1_556
Ge3 O20 1.906124 1_556
Ge3 O54 1.908819 1_555
Ge3 O18 1.974564 1_556
Ge3 O56 2.080379 1_555
Ge4 O21 1.838037 1_555
Ge4 O22 1.889414 1_555
Ge4 O23 1.932430 1_555
Ge4 O59 1.936506 1_555
Ge4 O58 1.976266 1_555
Ge4 O57 2.000888 1_555
Ge5 O24 1.816084 1_554
Ge5 O25 1.842314 1_554
Ge5 O60 1.912696 1_555
Ge5 O62 1.926354 1_555
Ge5 O61 1.929379 1_555
Ge5 O26 1.946143 1_554
Ge6 O63 1.832010 1_555
Ge6 O28 1.845007 1_555
Ge6 O29 1.855595 1_555
Ge6 O27 1.898242 1_555
Ge6 O65 1.902796 1_555
Ge6 O64 1.957497 1_555
Ge7 O32 1.876603 1_555
Ge7 O30 1.907436 1_555
Ge7 O31 1.911789 1_555
Ge7 O68 1.962846 1_555
Ge7 O66 1.969100 1_555
Ge7 O67 1.969613 1_555
Ge8 O33 1.802282 1_555
Ge8 O35 1.816443 1_555
Ge8 O34 1.866291 1_555
Ge8 O69 2.057492 1_555
Ge8 O70 2.081276 1_555
Ge8 O71 2.096843 1_555
O0 P0 1.510776 1_545
O1 P1 1.495584 1_555
O2 P2 1.494321 1_655
O3 P3 1.548689 1_555
O4 P4 1.539820 1_655
O5 P5 1.539491 1_545
O6 P5 1.571802 1_555
O7 P3 1.560207 1_555
O8 P4 1.560997 1_555
O9 P1 1.576000 1_555
O10 P2 1.576986 1_555
O11 P0 1.567263 1_555
O12 P6 1.515305 1_555
O13 Si0 1.598576 1_555
O14 P7 1.512007 1_555
O15 P8 1.514856 1_555
O16 P9 1.515313 1_555
O17 P10 1.512774 1_555
O18 P10 1.572817 1_555
O19 P8 1.561746 1_555
O20 P9 1.563819 1_555
O21 Si0 1.659024 1_555
O22 P7 1.551571 1_555
O23 P6 1.566194 1_555
O24 Si1 1.598379 1_555
O25 Si2 1.611953 1_555
O26 P11 1.515930 1_555
O27 P12 1.548205 1_555
O28 P13 1.534992 1_555
O29 P14 1.546452 1_555
O30 P14 1.585173 1_555
O31 P12 1.597536 1_555
O32 P13 1.579665 1_555
O33 Si2 1.670931 1_555
O34 P11 1.587813 1_555
O35 Si1 1.687113 1_555
O36 P14 1.510846 1_555
O37 P12 1.487704 1_555
O38 P13 1.510851 1_555
O39 Si2 1.650014 1_555
O40 P11 1.557825 1_555
O41 Si1 1.617416 1_555
O42 P6 1.577398 1_555
O43 Si0 1.639726 1_555
O44 P7 1.576941 1_555
O45 P8 1.573178 1_555
O46 P9 1.577825 1_555
O47 P10 1.573413 1_555
O48 P5 1.524887 1_545
O49 P3 1.525890 1_555
O50 P4 1.525946 1_655
O51 P1 1.531267 1_555
O52 P2 1.531055 1_655
O53 P0 1.529967 1_545
O54 Si1 1.640413 1_555
O55 Si2 1.613283 1_655
O56 P11 1.540622 1_545
O57 P12 1.576878 1_545
O58 P13 1.573952 1_555
O59 P14 1.554093 1_655
O60 P10 1.556488 1_555
O61 P8 1.555340 1_455
O62 P9 1.557401 1_565
O63 Si0 1.658828 1_565
O64 P7 1.560161 1_555
O65 P6 1.539947 1_455
O66 P0 1.602130 1_555
O67 P1 1.605674 1_555
O68 P2 1.604346 1_555
O69 P3 1.575401 1_555
O70 P4 1.573402 1_555
O71 P5 1.572176 1_555
