# generated using pymatgen
data_La2MgFe2(TeO6)2
_symmetry_space_group_name_H-M   'P 1'
_cell_length_a   5.66205838
_cell_length_b   5.57762858
_cell_length_c   7.88533208
_cell_angle_alpha   89.13361620
_cell_angle_beta   88.97773100
_cell_angle_gamma   90.21615936
_symmetry_Int_Tables_number   1
_chemical_formula_structural   La2MgFe2(TeO6)2
_chemical_formula_sum   'La2 Mg1 Fe2 Te2 O12'
_cell_volume   248.95542133
_cell_formula_units_Z   1
loop_
 _symmetry_equiv_pos_site_id
 _symmetry_equiv_pos_as_xyz
  1  'x, y, z'
loop_
 _atom_site_type_symbol
 _atom_site_label
 _atom_site_symmetry_multiplicity
 _atom_site_fract_x
 _atom_site_fract_y
 _atom_site_fract_z
 _atom_site_occupancy
  La  La0  1  0.04442065  0.00843309  0.26268085  1
  La  La1  1  0.56263642  0.49593209  0.78328050  1
  Mg  Mg0  1  0.05869338  0.49366410  0.52822657  1
  Fe  Fe0  1  0.53441141  0.00221138  0.01414015  1
  Fe  Fe1  1  0.63037703  0.50890317  0.31047515  1
  Te  Te0  1  0.52715376  0.99882566  0.51383129  1
  Te  Te1  1  0.03427412  0.50164306  0.01561527  1
  O  O0  1  0.00535153  0.56826543  0.77779450  1
  O  O1  1  0.31129020  0.30649762  0.98767288  1
  O  O2  1  0.24216049  0.17841126  0.53953902  1
  O  O3  1  0.23348403  0.77668483  0.05236843  1
  O  O4  1  0.35297958  0.70104198  0.46170798  1
  O  O5  1  0.53099603  0.10107546  0.27417125  1
  O  O6  1  0.54210925  0.92012379  0.75190996  1
  O  O7  1  0.72139289  0.29262913  0.53935314  1
  O  O8  1  0.83185293  0.22352656  0.99439900  1
  O  O9  1  0.80396622  0.79131812  0.46466523  1
  O  O10  1  0.74198734  0.68660788  0.07242106  1
  O  O11  1  0.01665275  0.43531441  0.26445478  1
loop_
_geom_bond_atom_site_label_1
_geom_bond_atom_site_label_2
_geom_bond_distance
_geom_bond_site_symmetry_2
La0 O3 2.361976 1_545
La0 O11 2.386998 1_555
La0 O9 2.389284 1_445
La0 O8 2.718122 1_454
La0 O5 2.804447 1_555
La0 O10 2.924910 1_445
La0 O5 2.954564 1_455
La1 O1 2.365292 1_555
La1 O6 2.378651 1_555
La1 O7 2.409450 1_555
La1 O0 2.536938 1_655
La1 O8 2.726709 1_555
La1 O10 2.740138 1_556
Mg0 O0 2.035090 1_555
Mg0 O2 2.047255 1_555
Mg0 O4 2.079757 1_555
Mg0 O11 2.127495 1_555
Mg0 O7 2.210721 1_455
Mg0 O9 2.259723 1_455
Fe0 O8 2.086494 1_554
Fe0 O6 2.124330 1_544
Fe0 O3 2.128471 1_545
Fe0 O1 2.129529 1_554
Fe0 O5 2.131097 1_555
Fe0 O10 2.168338 1_545
Fe1 O10 2.191367 1_555
Fe1 O7 2.224857 1_555
Fe1 O9 2.239298 1_555
Fe1 O4 2.240989 1_555
Fe1 O11 2.250908 1_655
Fe1 O5 2.364038 1_555
O0 Te1 1.916241 1_556
O1 Te1 1.923851 1_556
O2 Te0 1.911791 1_545
O3 Te1 1.929169 1_555
O4 Te0 1.980635 1_555
O5 Te0 1.965430 1_545
O6 Te0 1.924906 1_555
O7 Te0 1.984879 1_545
O8 Te1 1.936278 1_656
O9 Te0 1.987957 1_555
O10 Te1 2.001056 1_655
O11 Te1 1.991925 1_555
