# generated using pymatgen
data_Ni(PO3)3
_symmetry_space_group_name_H-M   'P 1'
_cell_length_a   8.42885300
_cell_length_b   8.56714500
_cell_length_c   8.74765900
_cell_angle_alpha   90.00000000
_cell_angle_beta   90.00000000
_cell_angle_gamma   90.00000000
_symmetry_Int_Tables_number   1
_chemical_formula_structural   Ni(PO3)3
_chemical_formula_sum   'Ni4 P12 O36'
_cell_volume   631.67900462
_cell_formula_units_Z   4
loop_
 _symmetry_equiv_pos_site_id
 _symmetry_equiv_pos_as_xyz
  1  'x, y, z'
loop_
 _atom_site_type_symbol
 _atom_site_label
 _atom_site_symmetry_multiplicity
 _atom_site_fract_x
 _atom_site_fract_y
 _atom_site_fract_z
 _atom_site_occupancy
  Ni  Ni0  1  0.36401500  0.64009000  0.85172900  1
  Ni  Ni1  1  0.13598500  0.35991000  0.35172900  1
  Ni  Ni2  1  0.86401500  0.85991000  0.14827100  1
  Ni  Ni3  1  0.63598500  0.14009000  0.64827100  1
  P  P0  1  0.17797700  0.98997000  0.30399000  1
  P  P1  1  0.20741700  0.30537400  0.94439800  1
  P  P2  1  0.29258300  0.69462600  0.44439800  1
  P  P3  1  0.32202300  0.01003000  0.80399000  1
  P  P4  1  0.53212800  0.67897400  0.19166000  1
  P  P5  1  0.67797700  0.51003000  0.69601000  1
  P  P6  1  0.70741700  0.19462600  0.05560200  1
  P  P7  1  0.79258300  0.80537400  0.55560200  1
  P  P8  1  0.82202300  0.48997000  0.19601000  1
  P  P9  1  0.96787200  0.32102600  0.69166000  1
  P  P10  1  0.03212800  0.82102600  0.80834000  1
  P  P11  1  0.46787200  0.17897400  0.30834000  1
  O  O0  1  0.13168700  0.68794500  0.86899400  1
  O  O1  1  0.45682200  0.72541900  0.35299900  1
  O  O2  1  0.40677200  0.87214700  0.87224600  1
  O  O3  1  0.40357700  0.62495400  0.08550700  1
  O  O4  1  0.54317800  0.22541900  0.14700100  1
  O  O5  1  0.59322800  0.37214700  0.62775400  1
  O  O6  1  0.59642300  0.12495400  0.41449300  1
  O  O7  1  0.60048600  0.59228800  0.82818900  1
  O  O8  1  0.63168700  0.81205500  0.13100600  1
  O  O9  1  0.64438100  0.53707200  0.24670000  1
  O  O10  1  0.66714100  0.16043300  0.89316300  1
  O  O11  1  0.68611500  0.91267700  0.64566200  1
  O  O12  1  0.71331000  0.63388900  0.56175000  1
  O  O13  1  0.78669000  0.36611100  0.06175000  1
  O  O14  1  0.81388500  0.08732300  0.14566200  1
  O  O15  1  0.83285900  0.83956700  0.39316300  1
  O  O16  1  0.85561900  0.46292800  0.74670000  1
  O  O17  1  0.86831300  0.18794500  0.63100600  1
  O  O18  1  0.89951400  0.40771200  0.32818900  1
  O  O19  1  0.90357700  0.87504600  0.91449300  1
  O  O20  1  0.90677200  0.62785300  0.12775400  1
  O  O21  1  0.95682200  0.77458100  0.64700100  1
  O  O22  1  0.04317800  0.27458100  0.85299900  1
  O  O23  1  0.36831300  0.31205500  0.36899400  1
  O  O24  1  0.09642300  0.37504600  0.58550700  1
  O  O25  1  0.10048600  0.90771200  0.17181100  1
  O  O26  1  0.39951400  0.09228800  0.67181100  1
  O  O27  1  0.14438100  0.96292800  0.75330000  1
  O  O28  1  0.16714100  0.33956700  0.10683700  1
  O  O29  1  0.18611500  0.58732300  0.35433800  1
  O  O30  1  0.21331000  0.86611100  0.43825000  1
  O  O31  1  0.28669000  0.13388900  0.93825000  1
  O  O32  1  0.31388500  0.41267700  0.85433800  1
  O  O33  1  0.33285900  0.66043300  0.60683700  1
  O  O34  1  0.35561900  0.03707200  0.25330000  1
  O  O35  1  0.09322800  0.12785300  0.37224600  1
loop_
_geom_bond_atom_site_label_1
_geom_bond_atom_site_label_2
_geom_bond_distance
_geom_bond_site_symmetry_2
Ni0 O32 1.993704 1_555
Ni0 O0 2.006407 1_555
Ni0 O2 2.028423 1_555
Ni0 O7 2.045209 1_555
Ni0 O3 2.076073 1_556
Ni0 O33 2.165293 1_555
Ni1 O29 1.993704 1_555
Ni1 O23 2.006407 1_555
Ni1 O35 2.028423 1_555
Ni1 O18 2.045209 1_455
Ni1 O24 2.076073 1_555
Ni1 O28 2.165293 1_555
Ni2 O14 1.993704 1_565
Ni2 O8 2.006407 1_555
Ni2 O20 2.028423 1_555
Ni2 O25 2.045209 1_655
Ni2 O19 2.076073 1_554
Ni2 O15 2.165293 1_555
Ni3 O11 1.993704 1_545
Ni3 O17 2.006407 1_555
Ni3 O5 2.028423 1_555
Ni3 O26 2.045209 1_555
Ni3 O6 2.076073 1_555
Ni3 O10 2.165293 1_555
O0 P10 1.511821 1_555
O1 P4 1.597843 1_555
O1 P2 1.620263 1_555
O2 P3 1.504050 1_565
O3 P4 1.500172 1_555
O4 P11 1.597843 1_555
O4 P6 1.620263 1_555
O5 P5 1.504050 1_555
O6 P11 1.500172 1_555
O7 P5 1.503387 1_555
O8 P4 1.511821 1_555
O9 P8 1.612891 1_555
O9 P4 1.613987 1_555
O10 P6 1.490030 1_556
O11 P7 1.507004 1_555
O12 P5 1.610597 1_555
O12 P7 1.614844 1_555
O13 P8 1.610597 1_555
O13 P6 1.614844 1_555
O14 P6 1.507004 1_555
O15 P7 1.490030 1_555
O16 P5 1.612891 1_555
O16 P9 1.613987 1_555
O17 P9 1.511821 1_555
O18 P8 1.503387 1_555
O19 P10 1.500172 1_655
O20 P8 1.504050 1_555
O21 P10 1.597843 1_655
O21 P7 1.620263 1_555
O22 P9 1.597843 1_455
O22 P1 1.620263 1_555
O23 P11 1.511821 1_555
O24 P9 1.500172 1_455
O25 P0 1.503387 1_555
O26 P3 1.503387 1_555
O27 P3 1.612891 1_565
O27 P10 1.613987 1_555
O28 P1 1.490030 1_554
O29 P2 1.507004 1_555
O30 P0 1.610597 1_555
O30 P2 1.614844 1_555
O31 P3 1.610597 1_555
O31 P1 1.614844 1_555
O32 P1 1.507004 1_555
O33 P2 1.490030 1_555
O34 P0 1.612891 1_545
O34 P11 1.613987 1_555
O35 P0 1.504050 1_545
