# generated using pymatgen
data_MgTiFeO4
_symmetry_space_group_name_H-M   'P 1'
_cell_length_a   5.57386162
_cell_length_b   5.57390024
_cell_length_c   5.57390089
_cell_angle_alpha   139.06193505
_cell_angle_beta   135.17068843
_cell_angle_gamma   62.31393689
_symmetry_Int_Tables_number   1
_chemical_formula_structural   MgTiFeO4
_chemical_formula_sum   'Mg1 Ti1 Fe1 O4'
_cell_volume   79.04140582
_cell_formula_units_Z   1
loop_
 _symmetry_equiv_pos_site_id
 _symmetry_equiv_pos_as_xyz
  1  'x, y, z'
loop_
 _atom_site_type_symbol
 _atom_site_label
 _atom_site_symmetry_multiplicity
 _atom_site_fract_x
 _atom_site_fract_y
 _atom_site_fract_z
 _atom_site_occupancy
  Mg  Mg0  1  0.32861100  0.82861700  0.49999500  1
  Ti  Ti0  1  0.73964100  0.23964500  0.49999600  1
  Fe  Fe0  1  0.01662900  0.01662200  0.00000700  1
  O  O0  1  0.53855400  0.03855300  0.50000100  1
  O  O1  1  0.24229800  0.24229800  0.00000000  1
  O  O2  1  0.94217200  0.44217200  0.50000000  1
  O  O3  1  0.76352500  0.76352400  0.00000100  1
loop_
_geom_bond_atom_site_label_1
_geom_bond_atom_site_label_2
_geom_bond_distance
_geom_bond_site_symmetry_2
Mg0 O0 2.002738 1_565
Mg0 O1 2.115998 1_566
Mg0 O1 2.116001 1_555
Mg0 O3 2.214182 1_455
Mg0 O3 2.214248 1_556
Fe0 O2 2.074562 1_444
Fe0 O2 2.074562 1_455
Fe0 O0 2.135604 1_555
Fe0 O0 2.135659 1_454
Fe0 O1 2.152888 1_555
Fe0 O3 2.414487 1_445
O0 Ti0 1.918364 1_555
O1 Ti0 2.125493 1_555
O1 Ti0 2.125527 1_454
O2 Ti0 1.932053 1_555
O3 Ti0 1.962465 1_554
O3 Ti0 1.962465 1_565
