# generated using pymatgen
data_La2(Zn2Ge)3
_symmetry_space_group_name_H-M   'P 1'
_cell_length_a   7.67127777
_cell_length_b   7.67127789
_cell_length_c   4.13504561
_cell_angle_alpha   90.00000000
_cell_angle_beta   90.00000000
_cell_angle_gamma   120.00000393
_symmetry_Int_Tables_number   1
_chemical_formula_structural   La2(Zn2Ge)3
_chemical_formula_sum   'La2 Zn6 Ge3'
_cell_volume   210.73969255
_cell_formula_units_Z   1
loop_
 _symmetry_equiv_pos_site_id
 _symmetry_equiv_pos_as_xyz
  1  'x, y, z'
loop_
 _atom_site_type_symbol
 _atom_site_label
 _atom_site_symmetry_multiplicity
 _atom_site_fract_x
 _atom_site_fract_y
 _atom_site_fract_z
 _atom_site_occupancy
  La  La0  1  0.66666700  0.33333300  -0.00000000  1
  La  La1  1  0.33333300  0.66666700  -0.00000000  1
  Zn  Zn0  1  0.71179553  -0.00000000  0.50000000  1
  Zn  Zn1  1  -0.00000000  0.71179553  0.50000000  1
  Zn  Zn2  1  0.18770800  0.00000000  -0.00000000  1
  Zn  Zn3  1  0.81229200  0.81229200  -0.00000000  1
  Zn  Zn4  1  0.28820447  0.28820447  0.50000000  1
  Zn  Zn5  1  0.00000000  0.18770800  0.00000000  1
  Ge  Ge0  1  0.37790774  0.00000000  0.50000000  1
  Ge  Ge1  1  0.62209226  0.62209226  0.50000000  1
  Ge  Ge2  1  0.00000000  0.37790774  0.50000000  1
loop_
_geom_bond_atom_site_label_1
_geom_bond_atom_site_label_2
_geom_bond_distance
_geom_bond_site_symmetry_2
La0 Zn5 3.262406 1_655
La0 Zn2 3.262411 1_555
La0 Zn3 3.262413 1_555
La0 Zn0 3.437798 1_554
La0 Zn0 3.437798 1_555
La0 Zn1 3.437802 1_654
La0 Zn1 3.437802 1_655
La0 Zn4 3.437804 1_554
La0 Zn4 3.437804 1_555
La1 Zn2 3.262406 1_565
La1 Zn5 3.262411 1_555
La1 Zn3 3.262413 1_555
La1 Zn1 3.437798 1_554
La1 Zn1 3.437798 1_555
La1 Zn0 3.437802 1_564
La1 Zn0 3.437802 1_565
La1 Zn4 3.437805 1_555
La1 Zn4 3.437805 1_554
Ge0 Zn2 2.530524 1_556
Ge0 Zn2 2.530524 1_555
Ge0 Zn0 2.561346 1_555
Ge0 Zn1 2.623547 1_545
Ge0 Zn4 2.623548 1_555
Ge0 La1 3.171104 1_545
Ge0 La1 3.171104 1_546
Ge0 La0 3.171106 1_556
Ge0 La0 3.171106 1_555
Ge1 Zn3 2.530524 1_555
Ge1 Zn3 2.530524 1_556
Ge1 Zn4 2.561346 1_555
Ge1 Zn1 2.623548 1_655
Ge1 Zn0 2.623548 1_565
Ge1 La1 3.171110 1_555
Ge1 La1 3.171110 1_556
Ge1 La0 3.171110 1_555
Ge1 La0 3.171110 1_556
Ge2 Zn5 2.530524 1_556
Ge2 Zn5 2.530524 1_555
Ge2 Zn1 2.561346 1_555
Ge2 Zn0 2.623547 1_455
Ge2 Zn4 2.623548 1_555
Ge2 La0 3.171104 1_456
Ge2 La0 3.171104 1_455
Ge2 La1 3.171106 1_555
Ge2 La1 3.171106 1_556
