# generated using pymatgen
data_Na10Ca3Ti5(PO4)12
_symmetry_space_group_name_H-M   'P 1'
_cell_length_a   17.98381774
_cell_length_b   9.00553352
_cell_length_c   22.32012363
_cell_angle_alpha   89.98506090
_cell_angle_beta   90.04905454
_cell_angle_gamma   120.21950569
_symmetry_Int_Tables_number   1
_chemical_formula_structural   Na10Ca3Ti5(PO4)12
_chemical_formula_sum   'Na30 Ca9 Ti15 P36 O144'
_cell_volume   3123.58648037
_cell_formula_units_Z   3
loop_
 _symmetry_equiv_pos_site_id
 _symmetry_equiv_pos_as_xyz
  1  'x, y, z'
loop_
 _atom_site_type_symbol
 _atom_site_label
 _atom_site_symmetry_multiplicity
 _atom_site_fract_x
 _atom_site_fract_y
 _atom_site_fract_z
 _atom_site_occupancy
  Na  Na0  1  0.32054182  0.01382531  0.25055467  1
  Na  Na1  1  0.68748277  0.36102578  0.24972535  1
  Na  Na2  1  0.31439421  0.62010349  0.74992899  1
  Na  Na3  1  0.81410762  0.61906374  0.75039141  1
  Na  Na4  1  0.15590756  0.34509691  0.57927208  1
  Na  Na5  1  0.65553365  0.34467379  0.57839900  1
  Na  Na6  1  0.01583271  0.68820575  0.58000775  1
  Na  Na7  1  0.51531688  0.68713972  0.57927172  1
  Na  Na8  1  0.32576335  0.96174883  0.57984692  1
  Na  Na9  1  0.82801118  0.96855319  0.57993125  1
  Na  Na10  1  0.15551465  0.96608612  0.07886148  1
  Na  Na11  1  0.65624330  0.96780391  0.07915330  1
  Na  Na12  1  0.32695226  0.68900709  0.07933302  1
  Na  Na13  1  0.82744701  0.69013585  0.07880615  1
  Na  Na14  1  0.01581446  0.34519140  0.07857232  1
  Na  Na15  1  0.51696003  0.34441053  0.07999749  1
  Na  Na16  1  0.66445340  0.02204943  0.41357543  1
  Na  Na17  1  0.34885747  0.67275843  0.41253568  1
  Na  Na18  1  0.99989702  0.99986278  0.49417499  1
  Na  Na19  1  0.49966811  0.01685352  0.49447173  1
  Na  Na20  1  0.99942505  0.99878085  0.99531887  1
  Na  Na21  1  0.49965293  0.99940269  0.99599583  1
  Na  Na22  1  0.33356008  0.31826943  0.83479346  1
  Na  Na23  1  0.83334578  0.31887903  0.83487843  1
  Na  Na24  1  0.33385031  0.34019517  0.32935629  1
  Na  Na25  1  0.84658241  0.34198916  0.33107492  1
  Na  Na26  1  0.16121340  0.65290986  0.16825073  1
  Na  Na27  1  0.66613673  0.67977939  0.16825542  1
  Na  Na28  1  0.16065504  0.66774801  0.67018080  1
  Na  Na29  1  0.66009975  0.66840653  0.67069677  1
  Ca  Ca0  1  0.50017224  0.00556225  0.35095855  1
  Ca  Ca1  1  0.33370114  0.32515766  0.69335182  1
  Ca  Ca2  1  0.83341118  0.32348144  0.69406933  1
  Ca  Ca3  1  0.32874279  0.33468881  0.18693231  1
  Ca  Ca4  1  0.84193727  0.33858907  0.19043865  1
  Ca  Ca5  1  0.16681565  0.66836116  0.00375677  1
  Ca  Ca6  1  0.66676788  0.66679620  0.00454289  1
  Ca  Ca7  1  0.15852097  0.65372944  0.50810641  1
  Ca  Ca8  1  0.67278534  0.67425982  0.51027915  1
  Ti  Ti0  1  0.00075139  0.99847401  0.35162974  1
  Ti  Ti1  1  0.00086030  0.00169222  0.85317036  1
  Ti  Ti2  1  0.50098951  0.00226793  0.85295100  1
  Ti  Ti3  1  0.00226408  0.00391683  0.65119044  1
  Ti  Ti4  1  0.50148890  0.00073527  0.65058724  1
  Ti  Ti5  1  0.99984555  0.00051911  0.15061123  1
  Ti  Ti6  1  0.49962501  0.99699598  0.15273761  1
  Ti  Ti7  1  0.33329743  0.33746681  0.97926300  1
  Ti  Ti8  1  0.83347702  0.33481195  0.97947324  1
  Ti  Ti9  1  0.33224659  0.31987045  0.48012452  1
  Ti  Ti10  1  0.83783152  0.34623786  0.47930135  1
  Ti  Ti11  1  0.16258901  0.66081819  0.31686528  1
  Ti  Ti12  1  0.66619325  0.67053599  0.31762283  1
  Ti  Ti13  1  0.16335955  0.66705535  0.82029339  1
  Ti  Ti14  1  0.66319294  0.66598409  0.82038327  1
  P  P0  1  0.13814788  0.98013868  0.25271394  1
  P  P1  1  0.64526411  0.98431855  0.25252154  1
  P  P2  1  0.34482578  0.70746726  0.25338137  1
  P  P3  1  0.85269354  0.72213566  0.25304573  1
  P  P4  1  0.00855475  0.29120957  0.25376244  1
  P  P5  1  0.50715721  0.30672343  0.24913689  1
  P  P6  1  0.13866842  0.29655171  0.75341175  1
  P  P7  1  0.63838845  0.29593913  0.75299047  1
  P  P8  1  0.00907724  0.72602476  0.75298626  1
  P  P9  1  0.50906100  0.72562838  0.75321755  1
  P  P10  1  0.35383755  0.98552168  0.75334580  1
  P  P11  1  0.85380393  0.98497080  0.75346436  1
  P  P12  1  0.47852508  0.32538396  0.58352786  1
  P  P13  1  0.97711399  0.32360287  0.58364381  1
  P  P14  1  0.18336956  0.04124969  0.58351717  1
  P  P15  1  0.68406601  0.04511408  0.58200395  1
  P  P16  1  0.33720479  0.63166844  0.58460989  1
  P  P17  1  0.83917358  0.63273055  0.58697826  1
  P  P18  1  0.47852238  0.63176067  0.08211875  1
  P  P19  1  0.97998553  0.63446325  0.08129366  1
  P  P20  1  0.33716200  0.04118466  0.08402873  1
  P  P21  1  0.83758582  0.04433077  0.08202865  1
  P  P22  1  0.18194248  0.32487244  0.08057781  1
  P  P23  1  0.68494815  0.32545204  0.08504116  1
  P  P24  1  0.31968296  0.66479660  0.91501639  1
  P  P25  1  0.81960998  0.66412259  0.91501925  1
  P  P26  1  0.01241896  0.36053392  0.91628245  1
  P  P27  1  0.51234904  0.36023031  0.91658473  1
  P  P28  1  0.16769660  0.97503471  0.91611643  1
  P  P29  1  0.66749502  0.97435902  0.91616923  1
  P  P30  1  0.31101384  0.96817677  0.41854084  1
  P  P31  1  0.82082863  0.97573632  0.41543276  1
  P  P32  1  0.16676350  0.36059064  0.41557938  1
  P  P33  1  0.67520624  0.37485312  0.41862019  1
  P  P34  1  0.01447598  0.66708147  0.41593534  1
  P  P35  1  0.51332576  0.65106340  0.41855726  1
  O  O0  1  0.08779254  0.99317593  0.30557970  1
  O  O1  1  0.60928037  0.00800472  0.31043367  1
  O  O2  1  0.39036644  0.78276586  0.31173636  1
  O  O3  1  0.90995710  0.82535714  0.30561579  1
  O  O4  1  0.49369472  0.20073552  0.30400726  1
  O  O5  1  0.00528436  0.17790381  0.30585603  1
  O  O6  1  0.08746141  0.18216091  0.80564851  1
  O  O7  1  0.58747616  0.18225321  0.80561919  1
  O  O8  1  0.50402054  0.83025286  0.80520373  1
  O  O9  1  0.00404162  0.83052671  0.80503710  1
  O  O10  1  0.40957408  0.98899595  0.80583496  1
  O  O11  1  0.90963474  0.98878644  0.80582210  1
  O  O12  1  0.40014208  0.96885140  0.69394835  1
  O  O13  1  0.90037819  0.96932416  0.69384940  1
  O  O14  1  0.08700173  0.20361559  0.69313487  1
  O  O15  1  0.58700911  0.20350174  0.69297195  1
  O  O16  1  0.01780302  0.83239486  0.69289566  1
  O  O17  1  0.51784138  0.83135760  0.69300022  1
  O  O18  1  0.40061612  0.83393043  0.19806143  1
  O  O19  1  0.89890442  0.82644938  0.19319249  1
  O  O20  1  0.01579281  0.20241266  0.19341498  1
  O  O21  1  0.51754422  0.20418783  0.19245874  1
  O  O22  1  0.08695427  0.97162478  0.19293672  1
  O  O23  1  0.58336024  0.96667389  0.19661209  1
  O  O24  1  0.44108495  0.36130162  0.63817085  1
  O  O25  1  0.93956546  0.35853179  0.63848366  1
  O  O26  1  0.23847540  0.11817191  0.63841406  1
  O  O27  1  0.74025032  0.12514965  0.63613111  1
  O  O28  1  0.32308663  0.53009329  0.64208283  1
  O  O29  1  0.82472988  0.53141024  0.64414570  1
  O  O30  1  0.44141162  0.52175922  0.13683523  1
  O  O31  1  0.94502584  0.52910440  0.13741045  1
  O  O32  1  0.32075958  0.10419960  0.14314242  1
  O  O33  1  0.82022185  0.11795033  0.13717202  1
  O  O34  1  0.23477540  0.36003489  0.13639706  1
  O  O35  1  0.73524772  0.35769578  0.14303187  1
  O  O36  1  0.23223914  0.30376978  0.02559461  1
  O  O37  1  0.73725928  0.30668725  0.03063318  1
  O  O38  1  0.41793310  0.53307278  0.02613748  1
  O  O39  1  0.91906876  0.53388212  0.02626416  1
  O  O40  1  0.34733580  0.16753805  0.03099846  1
  O  O41  1  0.84952576  0.16509687  0.02640256  1
  O  O42  1  0.23303799  0.16107307  0.52747703  1
  O  O43  1  0.72861272  0.15564322  0.52376557  1
  O  O44  1  0.34857968  0.53717458  0.52850373  1
  O  O45  1  0.84833037  0.52862590  0.53191538  1
  O  O46  1  0.41665612  0.30040375  0.52767437  1
  O  O47  1  0.91914023  0.30564420  0.52702443  1
  O  O48  1  0.29270950  0.70537812  0.97441708  1
  O  O49  1  0.79269318  0.70554738  0.97433233  1
  O  O50  1  0.05898494  0.41152247  0.97604136  1
  O  O51  1  0.55898619  0.41109654  0.97637862  1
  O  O52  1  0.14610276  0.88238260  0.97593884  1
  O  O53  1  0.64644252  0.88162100  0.97599366  1
  O  O54  1  0.27484779  0.87114764  0.47664915  1
  O  O55  1  0.79638631  0.88835402  0.47625357  1
  O  O56  1  0.14636164  0.40896347  0.47603190  1
  O  O57  1  0.66388862  0.44214502  0.47778004  1
  O  O58  1  0.05892015  0.70996099  0.47631842  1
  O  O59  1  0.56204813  0.68323417  0.47708559  1
  O  O60  1  0.06872086  0.64019613  0.36613305  1
  O  O61  1  0.56964151  0.64019122  0.36520788  1
  O  O62  1  0.25201001  0.86620675  0.36303706  1
  O  O63  1  0.74948660  0.86014143  0.36706881  1
  O  O64  1  0.17954541  0.50082344  0.36691466  1
  O  O65  1  0.68090102  0.49053953  0.36335177  1
  O  O66  1  0.07033830  0.49868173  0.86658750  1
  O  O67  1  0.56998891  0.49854548  0.86681843  1
  O  O68  1  0.17846031  0.85901513  0.86648690  1
  O  O69  1  0.67868369  0.85934281  0.86646931  1
  O  O70  1  0.25373400  0.64097469  0.86326308  1
  O  O71  1  0.75368351  0.64097712  0.86321981  1
  O  O72  1  0.99771415  0.81538187  0.40100352  1
  O  O73  1  0.49857209  0.80308401  0.41091926  1
  O  O74  1  0.40111259  0.99354062  0.41333602  1
  O  O75  1  0.91092502  0.00503789  0.40056303  1
  O  O76  1  0.09221735  0.17761173  0.40150015  1
  O  O77  1  0.60302700  0.18795326  0.41332850  1
  O  O78  1  0.99828585  0.18035458  0.90118388  1
  O  O79  1  0.49824160  0.18029296  0.90126768  1
  O  O80  1  0.09191768  0.00424017  0.90115909  1
  O  O81  1  0.59188836  0.00404854  0.90127233  1
  O  O82  1  0.41142436  0.81672035  0.90181151  1
  O  O83  1  0.91135912  0.81653448  0.90175906  1
  O  O84  1  0.47928677  0.15118178  0.58735168  1
  O  O85  1  0.97844989  0.14948349  0.58787896  1
  O  O86  1  0.09557929  0.04174659  0.58742774  1
  O  O87  1  0.59469652  0.04013468  0.58797306  1
  O  O88  1  0.42391959  0.81239981  0.58908164  1
  O  O89  1  0.92619838  0.81000708  0.58796590  1
  O  O90  1  0.47950723  0.80812950  0.08742251  1
  O  O91  1  0.98054122  0.81043854  0.08623410  1
  O  O92  1  0.42403734  0.03684728  0.08743276  1
  O  O93  1  0.92446878  0.03981999  0.08790484  1
  O  O94  1  0.09355580  0.14941247  0.08605554  1
  O  O95  1  0.59628427  0.15049860  0.08791904  1
  O  O96  1  0.34540578  0.14316755  0.75499674  1
  O  O97  1  0.84538266  0.14268812  0.75532246  1
  O  O98  1  0.22921453  0.32285912  0.75375428  1
  O  O99  1  0.72905529  0.32270987  0.75375930  1
  O  O100  1  0.42572471  0.55318804  0.75302062  1
  O  O101  1  0.92580338  0.55354810  0.75271717  1
  O  O102  1  0.32809548  0.52682517  0.24644986  1
  O  O103  1  0.83983198  0.54145968  0.25368212  1
  O  O104  1  0.42902228  0.32818977  0.24224813  1
  O  O105  1  0.92950191  0.30890244  0.25553690  1
  O  O106  1  0.22988920  0.13217955  0.25379355  1
  O  O107  1  0.73280602  0.14450851  0.24404043  1
  O  O108  1  0.32301524  0.49492249  0.91923891  1
  O  O109  1  0.82283337  0.49460488  0.91926483  1
  O  O110  1  0.42472190  0.35408983  0.91939231  1
  O  O111  1  0.92499796  0.35519418  0.91893683  1
  O  O112  1  0.25284952  0.14985253  0.91884681  1
  O  O113  1  0.75230339  0.15045804  0.91933024  1
  O  O114  1  0.31491528  0.14674167  0.42173096  1
  O  O115  1  0.81957446  0.14790976  0.41691028  1
  O  O116  1  0.25489352  0.36584402  0.41771819  1
  O  O117  1  0.76231861  0.37000989  0.42115384  1
  O  O118  1  0.42392243  0.48221748  0.42018303  1
  O  O119  1  0.92646656  0.49470497  0.42023525  1
  O  O120  1  0.16513098  0.47449632  0.07248058  1
  O  O121  1  0.66916531  0.47615084  0.07521758  1
  O  O122  1  0.07180469  0.66814978  0.07316181  1
  O  O123  1  0.57072771  0.66716991  0.07356532  1
  O  O124  1  0.26144091  0.85827841  0.07420150  1
  O  O125  1  0.76265173  0.85993712  0.07371605  1
  O  O126  1  0.16485638  0.85692369  0.57666581  1
  O  O127  1  0.66568370  0.85962235  0.57707343  1
  O  O128  1  0.26129815  0.66292583  0.57678759  1
  O  O129  1  0.76402428  0.66531641  0.57949824  1
  O  O130  1  0.06970709  0.47209513  0.57758818  1
  O  O131  1  0.57041275  0.47391268  0.57533192  1
  O  O132  1  0.14158215  0.81066499  0.25694242  1
  O  O133  1  0.64984998  0.81583785  0.25526814  1
  O  O134  1  0.25854919  0.71352258  0.25254139  1
  O  O135  1  0.76309019  0.70834306  0.25778087  1
  O  O136  1  0.09217524  0.47032034  0.25912333  1
  O  O137  1  0.59463375  0.48042396  0.25228521  1
  O  O138  1  0.14456875  0.47517573  0.75662769  1
  O  O139  1  0.64459436  0.47514536  0.75681116  1
  O  O140  1  0.09069949  0.70951601  0.75835039  1
  O  O141  1  0.59067785  0.70910669  0.75863047  1
  O  O142  1  0.26484665  0.81480544  0.75599855  1
  O  O143  1  0.76486861  0.81458151  0.75575449  1
loop_
_geom_bond_atom_site_label_1
_geom_bond_atom_site_label_2
_geom_bond_distance
_geom_bond_site_symmetry_2
Na0 O134 2.350236 1_545
Na0 O106 2.355513 1_555
Na0 O104 2.509134 1_555
Na0 O32 2.531003 1_555
Na0 O132 2.792666 1_545
Na0 O62 2.818462 1_545
Na0 O18 2.902299 1_545
Na0 O4 2.944794 1_555
Na1 O103 2.381792 1_555
Na1 O137 2.398978 1_555
Na1 O107 2.466279 1_555
Na1 O35 2.537591 1_555
Na1 O135 2.717158 1_555
Na1 O65 2.819126 1_555
Na1 O21 2.935612 1_555
Na2 O98 2.322015 1_555
Na2 O142 2.336617 1_555
Na2 O100 2.364476 1_555
Na2 O28 2.570025 1_555
Na2 O138 2.653591 1_555
Na2 O70 2.799250 1_555
Na3 O99 2.314895 1_555
Na3 O143 2.338468 1_555
Na3 O101 2.361895 1_555
Na3 O29 2.537076 1_555
Na3 O139 2.648973 1_555
Na3 O71 2.789737 1_555
Na4 O130 2.344607 1_555
Na4 O86 2.385309 1_555
Na4 O56 2.401718 1_555
Na4 O128 2.515340 1_555
Na4 O85 2.768873 1_455
Na4 O14 2.834114 1_555
Na4 O42 2.885255 1_555
Na4 O28 2.955011 1_555
Na5 O131 2.344322 1_555
Na5 O57 2.388221 1_555
Na5 O87 2.396630 1_555
Na5 O129 2.544417 1_555
Na5 O84 2.750242 1_555
Na5 O15 2.846266 1_555
Na5 O43 2.892756 1_555
Na5 O29 3.013775 1_555
Na6 O126 2.323337 1_555
Na6 O89 2.369305 1_455
Na6 O58 2.417662 1_555
Na6 O130 2.574398 1_555
Na6 O86 2.761245 1_565
Na6 O45 2.815883 1_455
Na6 O16 2.826896 1_555
Na6 O25 2.881153 1_455
Na7 O127 2.345131 1_555
Na7 O88 2.426770 1_555
Na7 O59 2.437761 1_555
Na7 O131 2.567531 1_555
Na7 O87 2.759129 1_565
Na7 O44 2.831584 1_555
Na7 O17 2.841593 1_555
Na7 O24 2.859819 1_555
Na8 O128 2.334517 1_555
Na8 O84 2.412304 1_565
Na8 O54 2.460702 1_555
Na8 O126 2.553370 1_555
Na8 O88 2.712301 1_555
Na8 O12 2.861364 1_555
Na8 O46 2.883101 1_565
Na8 O26 2.896171 1_565
Na9 O85 2.359609 1_565
Na9 O129 2.370302 1_555
Na9 O55 2.405259 1_555
Na9 O127 2.570117 1_555
Na9 O89 2.779557 1_555
Na9 O13 2.853802 1_555
Na9 O47 2.879087 1_565
Na9 O27 2.880626 1_565
Na10 O122 2.327078 1_555
Na10 O52 2.397081 1_554
Na10 O94 2.417688 1_565
Na10 O124 2.538578 1_555
Na10 O91 2.730260 1_455
Na10 O22 2.841315 1_555
Na10 O36 2.888305 1_565
Na10 O32 2.951215 1_565
Na11 O123 2.349282 1_555
Na11 O95 2.386262 1_565
Na11 O53 2.407829 1_554
Na11 O125 2.547940 1_555
Na11 O90 2.757559 1_555
Na11 O37 2.852073 1_565
Na11 O33 2.860449 1_565
Na11 O23 2.929813 1_555
Na12 O124 2.352104 1_555
Na12 O90 2.397275 1_555
Na12 O48 2.444062 1_554
Na12 O120 2.562140 1_555
Na12 O92 2.718058 1_565
Na12 O34 2.864452 1_555
Na12 O38 2.894115 1_555
Na12 O18 2.955731 1_555
Na13 O125 2.345723 1_555
Na13 O91 2.403781 1_555
Na13 O49 2.435603 1_554
Na13 O121 2.510083 1_555
Na13 O93 2.733337 1_565
Na13 O19 2.843379 1_555
Na13 O39 2.899732 1_555
Na13 O35 2.961763 1_555
Na14 O120 2.331974 1_555
Na14 O50 2.394226 1_554
Na14 O93 2.399463 1_455
Na14 O122 2.557227 1_555
Na14 O94 2.751687 1_555
Na14 O41 2.835869 1_455
Na14 O31 2.866165 1_455
Na14 O20 2.867329 1_555
Na15 O121 2.375463 1_555
Na15 O51 2.413758 1_554
Na15 O92 2.415107 1_555
Na15 O123 2.564153 1_555
Na15 O95 2.760958 1_555
Na15 O21 2.811980 1_555
Na15 O40 2.853556 1_555
Na15 O30 2.862594 1_555
Na16 O77 2.261398 1_555
Na16 O115 2.426785 1_555
Na16 O1 2.483998 1_555
Na16 O73 2.620973 1_545
Na16 O117 2.719117 1_555
Na16 O43 2.725251 1_555
Na16 O63 2.791055 1_545
Na16 O59 3.009440 1_545
Na17 O73 2.333925 1_555
Na17 O116 2.409740 1_555
Na17 O2 2.420291 1_555
Na17 O74 2.548714 1_555
Na17 O118 2.669668 1_555
Na17 O64 2.820507 1_555
Na17 O44 2.860601 1_555
Na18 O86 2.603153 1_665
Na18 O89 2.604632 1_555
Na18 O85 2.620037 1_565
Na18 O76 2.631819 1_665
Na18 O75 2.645252 1_565
Na18 O72 2.649974 1_555
Na19 O74 2.466819 1_545
Na19 O77 2.496136 1_555
Na19 O84 2.518803 1_555
Na19 O87 2.636930 1_555
Na19 O73 2.673556 1_545
Na19 O88 2.680144 1_545
Na20 O94 2.547833 1_666
Na20 O91 2.555295 1_556
Na20 O93 2.594398 1_566
Na20 O83 2.634837 1_555
Na20 O80 2.666420 1_665
Na20 O78 2.668463 1_565
Na21 O92 2.568041 1_566
Na21 O90 2.575622 1_556
Na21 O95 2.587689 1_566
Na21 O82 2.647984 1_555
Na21 O81 2.675686 1_565
Na21 O79 2.676661 1_565
Na22 O112 2.390389 1_555
Na22 O110 2.412465 1_555
Na22 O96 2.458544 1_555
Na22 O108 2.534805 1_555
Na22 O98 2.620511 1_555
Na22 O100 2.650953 1_555
Na23 O113 2.399115 1_555
Na23 O111 2.407533 1_555
Na23 O97 2.462810 1_555
Na23 O109 2.528046 1_555
Na23 O99 2.618466 1_555
Na23 O101 2.657036 1_555
Na24 O118 2.505939 1_555
Na24 O116 2.508894 1_555
Na24 O106 2.513942 1_555
Na24 O102 2.536316 1_555
Na24 O114 2.608501 1_555
Na24 O104 2.629326 1_555
Na25 O105 2.367907 1_555
Na25 O119 2.433792 1_555
Na25 O115 2.471131 1_555
Na25 O103 2.538322 1_555
Na25 O117 2.606316 1_555
Na25 O107 2.730422 1_555
Na26 O134 2.436134 1_555
Na26 O136 2.511320 1_555
Na26 O132 2.563073 1_555
Na26 O120 2.696630 1_555
Na26 O122 2.706459 1_555
Na26 O124 2.779345 1_555
Na27 O133 2.392166 1_555
Na27 O137 2.464315 1_555
Na27 O135 2.577205 1_555
Na27 O123 2.687298 1_555
Na27 O125 2.695802 1_555
Na27 O121 2.789405 1_555
Na28 O140 2.465369 1_555
Na28 O138 2.511648 1_555
Na28 O142 2.535958 1_555
Na28 O126 2.670876 1_555
Na28 O130 2.673197 1_555
Na28 O128 2.776466 1_555
Na29 O141 2.451607 1_555
Na29 O139 2.512344 1_555
Na29 O143 2.526983 1_555
Na29 O127 2.677044 1_555
Na29 O131 2.711522 1_555
Na29 O129 2.774202 1_555
Ca0 O4 2.099052 1_555
Ca0 O1 2.151366 1_555
Ca0 O2 2.168224 1_545
Ca0 O74 2.221218 1_545
Ca0 O77 2.235117 1_555
Ca0 O73 2.250068 1_545
Ca1 O26 2.166834 1_555
Ca1 O24 2.173345 1_555
Ca1 O96 2.229152 1_555
Ca1 O28 2.259460 1_555
Ca1 O100 2.303521 1_555
Ca1 O98 2.305236 1_555
Ca2 O27 2.157460 1_555
Ca2 O25 2.163491 1_555
Ca2 O97 2.217555 1_555
Ca2 O29 2.250606 1_555
Ca2 O99 2.299621 1_555
Ca2 O101 2.302027 1_555
Ca3 O34 2.136586 1_555
Ca3 O30 2.181912 1_555
Ca3 O102 2.186388 1_555
Ca3 O104 2.209633 1_555
Ca3 O32 2.232755 1_555
Ca3 O106 2.335160 1_555
Ca4 O31 2.140652 1_555
Ca4 O33 2.175641 1_555
Ca4 O107 2.210865 1_555
Ca4 O105 2.254369 1_555
Ca4 O35 2.271420 1_555
Ca4 O103 2.324413 1_555
Ca5 O48 2.215534 1_554
Ca5 O52 2.227271 1_554
Ca5 O50 2.230845 1_554
Ca5 O122 2.306638 1_555
Ca5 O120 2.312422 1_555
Ca5 O124 2.315234 1_555
Ca6 O49 2.216285 1_554
Ca6 O51 2.227205 1_554
Ca6 O53 2.234544 1_554
Ca6 O125 2.315214 1_555
Ca6 O123 2.316668 1_555
Ca6 O121 2.347524 1_555
Ca7 O54 2.140483 1_555
Ca7 O58 2.208836 1_555
Ca7 O56 2.221352 1_555
Ca7 O130 2.237136 1_555
Ca7 O126 2.344011 1_555
Ca7 O128 2.369451 1_555
Ca8 O57 2.141294 1_555
Ca8 O59 2.163535 1_555
Ca8 O55 2.218796 1_555
Ca8 O129 2.283500 1_555
Ca8 O127 2.289480 1_555
Ca8 O131 2.326477 1_555
O0 P0 1.528110 1_555
O0 Ti0 1.893928 1_555
O1 P1 1.508518 1_545
O2 P2 1.505539 1_555
O3 P3 1.528491 1_555
O3 Ti0 1.893922 1_655
O4 P5 1.495609 1_555
O5 P4 1.528291 1_555
O5 Ti0 1.878339 1_545
O6 P6 1.521485 1_555
O6 Ti1 1.909440 1_555
O7 P7 1.524458 1_555
O7 Ti2 1.904368 1_555
O8 P9 1.526127 1_555
O8 Ti2 1.903779 1_565
O9 P8 1.526479 1_555
O9 Ti1 1.903484 1_565
O10 P10 1.531241 1_555
O10 Ti2 1.903225 1_565
O11 P11 1.529144 1_555
O11 Ti1 1.904481 1_665
O12 P10 1.612902 1_555
O12 Ti4 1.953738 1_565
O13 P11 1.616397 1_555
O13 Ti3 1.946587 1_665
O14 P6 1.609198 1_555
O14 Ti3 1.916423 1_555
O15 P7 1.601720 1_555
O15 Ti4 1.940650 1_555
O16 P8 1.609194 1_555
O16 Ti3 1.940065 1_565
O17 P9 1.608217 1_555
O17 Ti4 1.938974 1_565
O18 P2 1.636900 1_555
O18 Ti6 1.928860 1_555
O19 P3 1.604124 1_555
O19 Ti5 1.947725 1_565
O20 P4 1.605103 1_555
O20 Ti5 1.943260 1_455
O21 P5 1.631738 1_555
O21 Ti6 1.940736 1_545
O22 P0 1.600176 1_555
O22 Ti5 1.954975 1_465
O23 P1 1.625281 1_555
O23 Ti6 1.926785 1_555
O24 P12 1.505438 1_555
O25 P13 1.506192 1_555
O26 P14 1.506872 1_555
O27 P15 1.505079 1_555
O28 P16 1.520839 1_555
O29 P17 1.513123 1_555
O30 P18 1.501171 1_555
O31 P19 1.504862 1_555
O32 P20 1.522988 1_555
O33 P21 1.503806 1_555
O34 P22 1.500199 1_555
O35 P23 1.520438 1_555
O36 P22 1.592306 1_555
O36 Ti7 1.977976 1_554
O37 P23 1.597002 1_555
O37 Ti8 1.980983 1_554
O38 P18 1.600578 1_555
O38 Ti7 1.952849 1_554
O39 P19 1.590168 1_555
O39 Ti8 1.973423 1_554
O40 P20 1.587247 1_555
O40 Ti7 2.031371 1_554
O41 P21 1.592200 1_555
O41 Ti8 1.989750 1_554
O42 P14 1.599305 1_555
O42 Ti9 1.944071 1_555
O43 P15 1.587665 1_555
O43 Ti10 2.097083 1_555
O44 P16 1.584444 1_555
O44 Ti9 2.122229 1_555
O45 P17 1.604020 1_555
O45 Ti10 1.949619 1_555
O46 P12 1.608894 1_555
O46 Ti9 1.930414 1_555
O47 P13 1.593215 1_555
O47 Ti10 1.985354 1_555
O48 P24 1.518717 1_555
O49 P25 1.519628 1_555
O50 P26 1.517419 1_555
O51 P27 1.518589 1_555
O52 P28 1.517897 1_555
O53 P29 1.518491 1_555
O54 P30 1.515745 1_555
O55 P31 1.519084 1_555
O56 P32 1.518902 1_555
O57 P33 1.509073 1_555
O58 P34 1.513983 1_555
O59 P35 1.516893 1_555
O60 P34 1.576602 1_555
O60 Ti11 1.944466 1_555
O61 P35 1.598486 1_555
O61 Ti12 1.934705 1_555
O62 P30 1.587907 1_555
O62 Ti11 2.018235 1_555
O63 P31 1.596504 1_555
O63 Ti12 1.949578 1_555
O64 P32 1.592173 1_555
O64 Ti11 1.964127 1_555
O65 P33 1.584228 1_555
O65 Ti12 2.041943 1_555
O66 P26 1.599953 1_555
O66 Ti13 1.901081 1_555
O67 P27 1.600439 1_555
O67 Ti14 1.901415 1_555
O68 P28 1.600236 1_555
O68 Ti13 1.911304 1_555
O69 P29 1.598335 1_555
O69 Ti14 1.918326 1_555
O70 P24 1.590177 1_555
O70 Ti13 1.999504 1_555
O71 P25 1.592124 1_555
O71 Ti14 1.994826 1_555
O72 P34 1.546097 1_655
O72 Ti0 1.960773 1_655
O73 P35 1.529426 1_555
O74 P30 1.522779 1_555
O75 P31 1.541289 1_545
O75 Ti0 1.976146 1_645
O76 P32 1.545038 1_555
O76 Ti0 1.968211 1_545
O77 P33 1.527219 1_555
O78 P26 1.547911 1_655
O78 Ti1 1.953280 1_655
O79 P27 1.547045 1_555
O79 Ti2 1.953584 1_555
O80 P28 1.548489 1_545
O80 Ti1 1.946432 1_555
O81 P29 1.547885 1_545
O81 Ti2 1.950994 1_555
O82 P24 1.552144 1_555
O82 Ti2 1.966886 1_565
O83 P25 1.553994 1_555
O83 Ti1 1.961538 1_665
O84 P12 1.578009 1_555
O84 Ti4 2.128322 1_555
O85 P13 1.583065 1_555
O85 Ti3 2.112330 1_655
O86 P14 1.583543 1_555
O86 Ti3 2.094303 1_555
O87 P15 1.590812 1_555
O87 Ti4 2.072164 1_555
O88 P16 1.592404 1_555
O88 Ti4 2.079303 1_565
O89 P17 1.575883 1_555
O89 Ti3 2.122614 1_665
O90 P18 1.583915 1_555
O90 Ti6 2.128384 1_555
O91 P19 1.583617 1_555
O91 Ti5 2.125470 1_565
O92 P20 1.584128 1_555
O92 Ti6 2.142123 1_545
O93 P21 1.588634 1_555
O93 Ti5 2.097897 1_555
O94 P22 1.584378 1_555
O94 Ti5 2.107764 1_455
O95 P23 1.581200 1_555
O95 Ti6 2.147118 1_545
O96 P10 1.502197 1_545
O97 P11 1.502851 1_545
O98 P6 1.522958 1_555
O99 P7 1.523586 1_555
O100 P9 1.521476 1_555
O101 P8 1.521123 1_655
O102 P2 1.506061 1_555
O103 P3 1.523895 1_555
O104 P5 1.519393 1_555
O105 P4 1.508717 1_655
O106 P0 1.524245 1_545
O107 P1 1.519749 1_545
O108 P24 1.563644 1_555
O108 Ti7 2.025409 1_555
O109 P25 1.559435 1_555
O109 Ti8 2.046754 1_555
O110 P27 1.550097 1_555
O110 Ti7 2.065751 1_555
O111 P26 1.549702 1_655
O111 Ti8 2.065895 1_555
O112 P28 1.549308 1_545
O112 Ti7 2.074474 1_555
O113 P29 1.552814 1_545
O113 Ti8 2.060952 1_555
O114 P30 1.575552 1_545
O114 Ti9 1.933368 1_555
O115 P31 1.562344 1_545
O115 Ti10 2.155750 1_555
O116 P32 1.562326 1_555
O116 Ti9 2.150101 1_555
O117 P33 1.589970 1_555
O117 Ti10 1.965693 1_555
O118 P35 1.561267 1_555
O118 Ti9 2.054753 1_555
O119 P34 1.565565 1_655
O119 Ti10 1.980879 1_555
O120 P22 1.532818 1_555
O121 P23 1.535550 1_555
O122 P19 1.532273 1_455
O123 P18 1.534930 1_555
O124 P20 1.535390 1_565
O125 P21 1.534616 1_565
O126 P14 1.527547 1_565
O127 P15 1.534912 1_565
O128 P16 1.536088 1_555
O129 P17 1.529468 1_555
O130 P13 1.529084 1_455
O131 P12 1.526012 1_555
O132 P0 1.561029 1_555
O132 Ti11 2.064940 1_555
O133 P1 1.561581 1_555
O133 Ti12 2.030052 1_555
O134 P2 1.579827 1_555
O134 Ti11 2.108098 1_555
O135 P3 1.556293 1_555
O135 Ti12 2.083999 1_555
O136 P4 1.560637 1_555
O136 Ti11 2.004790 1_555
O137 P5 1.565062 1_555
O137 Ti12 2.119970 1_555
O138 P6 1.559566 1_555
O138 Ti13 2.128867 1_555
O139 P7 1.563003 1_555
O139 Ti14 2.121480 1_555
O140 P8 1.552570 1_555
O140 Ti13 2.065142 1_555
O141 P9 1.552624 1_555
O141 Ti14 2.063422 1_555
O142 P10 1.565796 1_555
O142 Ti13 2.172523 1_555
O143 P11 1.563602 1_555
O143 Ti14 2.180709 1_555
