# generated using pymatgen
data_H2CO
_symmetry_space_group_name_H-M   'P 1'
_cell_length_a   6.16761624
_cell_length_b   6.16761624
_cell_length_c   6.16761636
_cell_angle_alpha   100.99131584
_cell_angle_beta   100.99131584
_cell_angle_gamma   100.99131608
_symmetry_Int_Tables_number   1
_chemical_formula_structural   H2CO
_chemical_formula_sum   'H12 C6 O6'
_cell_volume   219.72160809
_cell_formula_units_Z   6
loop_
 _symmetry_equiv_pos_site_id
 _symmetry_equiv_pos_as_xyz
  1  'x, y, z'
loop_
 _atom_site_type_symbol
 _atom_site_label
 _atom_site_symmetry_multiplicity
 _atom_site_fract_x
 _atom_site_fract_y
 _atom_site_fract_z
 _atom_site_occupancy
  H  H0  1  0.24198400  0.73419100  0.44949600  1
  H  H1  1  0.73419100  0.44949600  0.24198400  1
  H  H2  1  0.44949600  0.24198400  0.73419100  1
  H  H3  1  0.94949600  0.23419100  0.74198400  1
  H  H4  1  0.23419100  0.74198400  0.94949600  1
  H  H5  1  0.74198400  0.94949600  0.23419100  1
  H  H6  1  0.52251500  0.80617900  0.64250200  1
  H  H7  1  0.80617900  0.64250200  0.52251500  1
  H  H8  1  0.02251500  0.14250200  0.30617900  1
  H  H9  1  0.14250200  0.30617900  0.02251500  1
  H  H10  1  0.30617900  0.02251500  0.14250200  1
  H  H11  1  0.64250200  0.52251500  0.80617900  1
  C  C0  1  0.89221900  0.01056200  0.17291000  1
  C  C1  1  0.67291000  0.51056200  0.39221900  1
  C  C2  1  0.51056200  0.39221900  0.67291000  1
  C  C3  1  0.01056200  0.17291000  0.89221900  1
  C  C4  1  0.17291000  0.89221900  0.01056200  1
  C  C5  1  0.39221900  0.67291000  0.51056200  1
  O  O0  1  0.32014500  0.48431100  0.60398700  1
  O  O1  1  0.48431100  0.60398700  0.32014500  1
  O  O2  1  0.60398700  0.32014500  0.48431100  1
  O  O3  1  0.10398700  0.98431100  0.82014500  1
  O  O4  1  0.98431100  0.82014500  0.10398700  1
  O  O5  1  0.82014500  0.10398700  0.98431100  1
loop_
_geom_bond_atom_site_label_1
_geom_bond_atom_site_label_2
_geom_bond_distance
_geom_bond_site_symmetry_2
C0 H5 1.094544 1_545
C0 H8 1.107840 1_655
C0 O4 1.427808 1_545
C0 O5 1.427848 1_554
C1 H1 1.094544 1_555
C1 H7 1.107840 1_555
C1 O2 1.427808 1_555
C1 O1 1.427848 1_555
C2 H2 1.094544 1_555
C2 H11 1.107840 1_555
C2 O0 1.427808 1_555
C2 O2 1.427848 1_555
C3 H3 1.094544 1_455
C3 H9 1.107840 1_556
C3 O5 1.427808 1_455
C3 O3 1.427848 1_545
C4 H4 1.094544 1_554
C4 H10 1.107840 1_565
C4 O3 1.427808 1_554
C4 O4 1.427848 1_455
C5 H0 1.094544 1_555
C5 H6 1.107840 1_555
C5 O1 1.427808 1_555
C5 O0 1.427848 1_555
