# generated using pymatgen
data_Na14La4In4Si7S5O48
_symmetry_space_group_name_H-M   'P 1'
_cell_length_a   19.07228965
_cell_length_b   9.54040096
_cell_length_c   23.61788601
_cell_angle_alpha   89.97726483
_cell_angle_beta   89.88260009
_cell_angle_gamma   120.06863007
_symmetry_Int_Tables_number   1
_chemical_formula_structural   Na14La4In4Si7S5O48
_chemical_formula_sum   'Na42 La12 In12 Si21 S15 O144'
_cell_volume   3719.10858672
_cell_formula_units_Z   3
loop_
 _symmetry_equiv_pos_site_id
 _symmetry_equiv_pos_as_xyz
  1  'x, y, z'
loop_
 _atom_site_type_symbol
 _atom_site_label
 _atom_site_symmetry_multiplicity
 _atom_site_fract_x
 _atom_site_fract_y
 _atom_site_fract_z
 _atom_site_occupancy
  Na  Na0  1  0.80978657  0.98928948  0.24268814  1
  Na  Na1  1  0.18780527  0.36469651  0.26040508  1
  Na  Na2  1  0.69139316  0.36880220  0.25616319  1
  Na  Na3  1  0.99681143  0.64678807  0.24080351  1
  Na  Na4  1  0.50418335  0.65484121  0.24641651  1
  Na  Na5  1  0.30957001  0.63382486  0.75482732  1
  Na  Na6  1  0.00214810  0.35109565  0.75038363  1
  Na  Na7  1  0.49993932  0.35092250  0.74772505  1
  Na  Na8  1  0.18785163  0.00742775  0.76158624  1
  Na  Na9  1  0.68968368  0.01204161  0.76415423  1
  Na  Na10  1  0.14112543  0.33286745  0.58321341  1
  Na  Na11  1  0.63991334  0.33366922  0.58437497  1
  Na  Na12  1  0.33861085  0.97972418  0.57776568  1
  Na  Na13  1  0.84019971  0.98190763  0.57968368  1
  Na  Na14  1  0.13604721  0.94519308  0.08621785  1
  Na  Na15  1  0.65261115  0.95589655  0.08562741  1
  Na  Na16  1  0.33975212  0.69738010  0.07952523  1
  Na  Na17  1  0.83860392  0.71536746  0.07765592  1
  Na  Na18  1  0.48707846  0.68758673  0.92495198  1
  Na  Na19  1  0.98258416  0.67845149  0.92571308  1
  Na  Na20  1  0.34309360  0.01615761  0.91231805  1
  Na  Na21  1  0.84282557  0.02174687  0.92085270  1
  Na  Na22  1  0.17047208  0.29788730  0.90755450  1
  Na  Na23  1  0.67647624  0.30639546  0.90962802  1
  Na  Na24  1  0.48494099  0.28665267  0.41923132  1
  Na  Na25  1  0.98363356  0.28190270  0.42044471  1
  Na  Na26  1  0.17200837  0.04191523  0.40373725  1
  Na  Na27  1  0.67190380  0.04440410  0.40369415  1
  Na  Na28  1  0.34365723  0.66877697  0.40732322  1
  Na  Na29  1  0.84299601  0.66948829  0.40795942  1
  Na  Na30  1  0.99756852  0.01616319  0.49318355  1
  Na  Na31  1  0.49785374  0.01674438  0.49248777  1
  Na  Na32  1  0.98726630  0.97961646  0.00120258  1
  Na  Na33  1  0.50070389  0.98162971  0.99541265  1
  Na  Na34  1  0.32403008  0.32289557  0.83506996  1
  Na  Na35  1  0.82133688  0.32791355  0.83818071  1
  Na  Na36  1  0.32207898  0.31598349  0.33192449  1
  Na  Na37  1  0.82354955  0.32509709  0.32821203  1
  Na  Na38  1  0.16285890  0.68022613  0.17177892  1
  Na  Na39  1  0.66796357  0.68492298  0.16486552  1
  Na  Na40  1  0.15871082  0.64947951  0.67332531  1
  Na  Na41  1  0.66626621  0.64985772  0.67470044  1
  La  La0  1  0.99883656  0.00944233  0.65363685  1
  La  La1  1  0.49554662  0.00602095  0.65193182  1
  La  La2  1  0.99134661  0.98938942  0.14891282  1
  La  La3  1  0.50026323  0.98859312  0.15254045  1
  La  La4  1  0.83604756  0.33815025  0.68825654  1
  La  La5  1  0.33580896  0.33234706  0.18764855  1
  La  La6  1  0.15981535  0.66663547  0.01250047  1
  La  La7  1  0.67000379  0.68358885  0.01484929  1
  La  La8  1  0.16516696  0.65881552  0.51141149  1
  La  La9  1  0.66148110  0.65473929  0.51167247  1
  La  La10  1  0.18017182  0.68758922  0.31765441  1
  La  La11  1  0.68126734  0.67322942  0.82026920  1
  In  In0  1  0.99724482  0.99510845  0.34659245  1
  In  In1  1  0.50145673  0.00188072  0.34630089  1
  In  In2  1  0.00156158  0.00065357  0.84725155  1
  In  In3  1  0.49837060  0.00055951  0.84815864  1
  In  In4  1  0.33431569  0.32542246  0.68709242  1
  In  In5  1  0.83444600  0.33336072  0.18243519  1
  In  In6  1  0.33338569  0.34268580  0.98040235  1
  In  In7  1  0.83509753  0.33405722  0.98602639  1
  In  In8  1  0.33463109  0.32693185  0.48225774  1
  In  In9  1  0.83328705  0.32347390  0.48022006  1
  In  In10  1  0.68010460  0.67900830  0.31950154  1
  In  In11  1  0.17876214  0.67925366  0.82096642  1
  Si  Si0  1  0.14535994  0.99937927  0.25115607  1
  Si  Si1  1  0.65341287  0.99783197  0.25373285  1
  Si  Si2  1  0.35103994  0.69794738  0.25200345  1
  Si  Si3  1  0.84682643  0.68960946  0.25321873  1
  Si  Si4  1  0.15402369  0.30956663  0.75085823  1
  Si  Si5  1  0.64654419  0.29558450  0.75124427  1
  Si  Si6  1  0.34640994  0.99850254  0.75241362  1
  Si  Si7  1  0.85081557  0.00220716  0.75120438  1
  Si  Si8  1  0.47800265  0.33802345  0.58452703  1
  Si  Si9  1  0.98266478  0.33484500  0.58084868  1
  Si  Si10  1  0.48090878  0.63024506  0.08076729  1
  Si  Si11  1  0.97991734  0.62187819  0.08453843  1
  Si  Si12  1  0.83379220  0.04625159  0.08261237  1
  Si  Si13  1  0.32018106  0.66709602  0.91590419  1
  Si  Si14  1  0.82692158  0.66533736  0.92058079  1
  Si  Si15  1  0.16691708  0.97607514  0.91444140  1
  Si  Si16  1  0.66490143  0.98341911  0.91490680  1
  Si  Si17  1  0.32634387  0.98236022  0.42211721  1
  Si  Si18  1  0.82037566  0.97266601  0.41688843  1
  Si  Si19  1  0.16643919  0.34891588  0.41762272  1
  Si  Si20  1  0.66639750  0.35748086  0.41585543  1
  S  S0  1  0.99672642  0.29896348  0.25335621  1
  S  S1  1  0.50637605  0.30828400  0.25663854  1
  S  S2  1  0.00703035  0.70497775  0.75572213  1
  S  S3  1  0.49559751  0.69393401  0.75129715  1
  S  S4  1  0.18997692  0.04575894  0.58397011  1
  S  S5  1  0.68556508  0.04011075  0.58041130  1
  S  S6  1  0.33280791  0.61673729  0.58320077  1
  S  S7  1  0.83369157  0.62882514  0.57802267  1
  S  S8  1  0.33367225  0.03809280  0.07771240  1
  S  S9  1  0.18713305  0.33312473  0.08026645  1
  S  S10  1  0.68860983  0.33384765  0.08368377  1
  S  S11  1  0.01595395  0.36306401  0.91035422  1
  S  S12  1  0.51044492  0.35612538  0.91576044  1
  S  S13  1  0.00988989  0.66560265  0.41595433  1
  S  S14  1  0.51413911  0.66747283  0.41275778  1
  O  O0  1  0.10065676  0.02160637  0.30823591  1
  O  O1  1  0.61016874  0.03367034  0.30838087  1
  O  O2  1  0.40506948  0.79662443  0.30828949  1
  O  O3  1  0.90360597  0.77523251  0.30974000  1
  O  O4  1  0.49590985  0.20967276  0.30802351  1
  O  O5  1  0.98720683  0.20161579  0.30537575  1
  O  O6  1  0.11158781  0.18376931  0.80437502  1
  O  O7  1  0.59880474  0.17795356  0.80574168  1
  O  O8  1  0.48511713  0.77154658  0.80262043  1
  O  O9  1  0.99794953  0.78513087  0.80626495  1
  O  O10  1  0.40592083  0.02708457  0.80659670  1
  O  O11  1  0.90921718  0.01701060  0.80493322  1
  O  O12  1  0.38124867  0.96123986  0.69417603  1
  O  O13  1  0.88817052  0.98158723  0.69101212  1
  O  O14  1  0.10180067  0.23683646  0.69223184  1
  O  O15  1  0.60060383  0.21624997  0.69045545  1
  O  O16  1  0.01638318  0.79958380  0.70366649  1
  O  O17  1  0.50794102  0.79409225  0.70049839  1
  O  O18  1  0.39048027  0.79816623  0.19336498  1
  O  O19  1  0.88335107  0.80458019  0.19749012  1
  O  O20  1  0.00993745  0.22363076  0.20318807  1
  O  O21  1  0.51535526  0.23037512  0.20533729  1
  O  O22  1  0.09943240  0.98999358  0.19167302  1
  O  O23  1  0.59870086  0.96440451  0.19628297  1
  O  O24  1  0.43317056  0.34749887  0.64306968  1
  O  O25  1  0.94033879  0.34453756  0.63963224  1
  O  O26  1  0.23630388  0.12748546  0.63593660  1
  O  O27  1  0.73133241  0.11835479  0.63229668  1
  O  O28  1  0.32691981  0.52396706  0.63516182  1
  O  O29  1  0.82623513  0.53556819  0.62944081  1
  O  O30  1  0.43728120  0.53585141  0.13963498  1
  O  O31  1  0.93609427  0.52734548  0.14388353  1
  O  O32  1  0.32612216  0.11679000  0.12917521  1
  O  O33  1  0.82239905  0.12935115  0.14101208  1
  O  O34  1  0.23344496  0.34765744  0.13212401  1
  O  O35  1  0.73465723  0.34706907  0.13611297  1
  O  O36  1  0.22790469  0.31495096  0.02907849  1
  O  O37  1  0.72793293  0.31758098  0.03190510  1
  O  O38  1  0.42413140  0.53501756  0.02465476  1
  O  O39  1  0.92953857  0.53568725  0.02635270  1
  O  O40  1  0.33694968  0.12941879  0.02606966  1
  O  O41  1  0.83647529  0.13941874  0.02326845  1
  O  O42  1  0.22904213  0.14263292  0.53225753  1
  O  O43  1  0.72653067  0.14112300  0.52943901  1
  O  O44  1  0.33636187  0.53485199  0.53081510  1
  O  O45  1  0.83708984  0.54416587  0.52639851  1
  O  O46  1  0.42590402  0.32423415  0.52725101  1
  O  O47  1  0.92641209  0.31839626  0.52475114  1
  O  O48  1  0.28100977  0.69961765  0.97271741  1
  O  O49  1  0.78895512  0.70352222  0.97698132  1
  O  O50  1  0.06562793  0.43479635  0.96151278  1
  O  O51  1  0.56343560  0.43717956  0.96478824  1
  O  O52  1  0.14633958  0.86386634  0.97132459  1
  O  O53  1  0.64371650  0.86204660  0.96951368  1
  O  O54  1  0.29009967  0.87559716  0.48086488  1
  O  O55  1  0.78342383  0.86535435  0.47498996  1
  O  O56  1  0.14772591  0.42753519  0.47385228  1
  O  O57  1  0.64535035  0.42448727  0.47390628  1
  O  O58  1  0.06217332  0.69187612  0.46588657  1
  O  O59  1  0.56358920  0.69468360  0.46417395  1
  O  O60  1  0.04593535  0.63665179  0.36526233  1
  O  O61  1  0.55327541  0.64021568  0.36306604  1
  O  O62  1  0.25851552  0.89610895  0.37262234  1
  O  O63  1  0.75716372  0.88904722  0.36391068  1
  O  O64  1  0.18501071  0.46701958  0.36267520  1
  O  O65  1  0.68206426  0.48248062  0.36270460  1
  O  O66  1  0.05683508  0.46823799  0.86021339  1
  O  O67  1  0.54498600  0.45325226  0.86376455  1
  O  O68  1  0.18348186  0.88635612  0.86002271  1
  O  O69  1  0.68074906  0.90150782  0.85877174  1
  O  O70  1  0.25970240  0.62568727  0.86076682  1
  O  O71  1  0.76175973  0.61404087  0.86871148  1
  O  O72  1  0.00157192  0.81269995  0.41191299  1
  O  O73  1  0.50549559  0.81430498  0.40763118  1
  O  O74  1  0.41472923  0.99145617  0.41115945  1
  O  O75  1  0.91092692  0.98931645  0.40801950  1
  O  O76  1  0.08502855  0.16608072  0.41151217  1
  O  O77  1  0.58694381  0.17307920  0.40852222  1
  O  O78  1  0.00747027  0.19918106  0.90539666  1
  O  O79  1  0.50097755  0.19106877  0.91199817  1
  O  O80  1  0.08891974  0.00439271  0.90673822  1
  O  O81  1  0.58293609  0.00323136  0.91016419  1
  O  O82  1  0.41036070  0.83211818  0.90778748  1
  O  O83  1  0.91556387  0.83417687  0.90997880  1
  O  O84  1  0.48249065  0.16627928  0.58194697  1
  O  O85  1  0.98860059  0.16463709  0.57816048  1
  O  O86  1  0.10784309  0.02657223  0.58623218  1
  O  O87  1  0.60354359  0.02279764  0.58186249  1
  O  O88  1  0.40480927  0.78320952  0.58365028  1
  O  O89  1  0.90647806  0.79430113  0.57948974  1
  O  O90  1  0.48580419  0.81118610  0.07811596  1
  O  O91  1  0.98858458  0.80509815  0.08172105  1
  O  O92  1  0.40646916  0.01920043  0.07940005  1
  O  O93  1  0.91161626  0.01689592  0.08058724  1
  O  O94  1  0.10573353  0.18638041  0.08197394  1
  O  O95  1  0.60712692  0.18537641  0.08596608  1
  O  O96  1  0.34010011  0.16700358  0.74908823  1
  O  O97  1  0.84975677  0.17506082  0.75358755  1
  O  O98  1  0.24725271  0.33398521  0.74412900  1
  O  O99  1  0.73524071  0.30556330  0.75218203  1
  O  O100  1  0.41893401  0.53263162  0.74661533  1
  O  O101  1  0.93511905  0.53955816  0.75305911  1
  O  O102  1  0.35053739  0.52370825  0.25455242  1
  O  O103  1  0.84063512  0.50907662  0.24737980  1
  O  O104  1  0.43435175  0.32970314  0.25366843  1
  O  O105  1  0.92118191  0.30861226  0.24903174  1
  O  O106  1  0.23501952  0.16614336  0.25336777  1
  O  O107  1  0.74466253  0.16183433  0.24795985  1
  O  O108  1  0.33042492  0.50362333  0.91861288  1
  O  O109  1  0.83904751  0.50499555  0.92489115  1
  O  O110  1  0.42761062  0.33578692  0.92276505  1
  O  O111  1  0.93454428  0.34681460  0.91569298  1
  O  O112  1  0.25286293  0.15483494  0.92121344  1
  O  O113  1  0.74831182  0.16303802  0.92242567  1
  O  O114  1  0.33963717  0.16807472  0.42288913  1
  O  O115  1  0.83134826  0.15731571  0.41944839  1
  O  O116  1  0.25128905  0.33928331  0.42593104  1
  O  O117  1  0.75199171  0.34989392  0.42207717  1
  O  O118  1  0.43149522  0.52187616  0.41929830  1
  O  O119  1  0.92732452  0.52069990  0.42321754  1
  O  O120  1  0.18285627  0.48410491  0.07672981  1
  O  O121  1  0.68205619  0.48256566  0.08102469  1
  O  O122  1  0.07489851  0.65644326  0.08545993  1
  O  O123  1  0.57336556  0.66116058  0.08075579  1
  O  O124  1  0.25962574  0.87197158  0.07749531  1
  O  O125  1  0.75090473  0.86229162  0.08473089  1
  O  O126  1  0.18603475  0.88581768  0.58134636  1
  O  O127  1  0.68108754  0.88039820  0.57670058  1
  O  O128  1  0.25788202  0.63233353  0.58271600  1
  O  O129  1  0.75945627  0.64637983  0.57766916  1
  O  O130  1  0.07688529  0.48983788  0.58051786  1
  O  O131  1  0.57287105  0.48904722  0.58458490  1
  O  O132  1  0.14407040  0.82503686  0.25345824  1
  O  O133  1  0.65711349  0.82722824  0.26073906  1
  O  O134  1  0.25555618  0.65353347  0.25031671  1
  O  O135  1  0.75407722  0.66327492  0.25702902  1
  O  O136  1  0.06785262  0.46491259  0.25812020  1
  O  O137  1  0.58031842  0.47218690  0.26085110  1
  O  O138  1  0.15831543  0.48756960  0.75891817  1
  O  O139  1  0.64440536  0.46605254  0.75318288  1
  O  O140  1  0.08122994  0.68866856  0.75945114  1
  O  O141  1  0.56592382  0.66818310  0.75615630  1
  O  O142  1  0.25405039  0.83900133  0.75647450  1
  O  O143  1  0.75558488  0.85471633  0.75053768  1
loop_
_geom_bond_atom_site_label_1
_geom_bond_atom_site_label_2
_geom_bond_distance
_geom_bond_site_symmetry_2
Na0 O107 2.513248 1_565
Na0 O133 2.556167 1_555
Na0 O33 2.698703 1_565
Na0 O105 2.707953 1_565
Na0 O135 2.757495 1_555
Na0 O19 2.947257 1_555
Na0 O63 3.023741 1_555
Na1 O134 2.397920 1_555
Na1 O106 2.477038 1_555
Na1 O64 2.616003 1_555
Na1 O102 2.689465 1_555
Na1 O136 2.888475 1_555
Na2 O135 2.440664 1_555
Na2 O103 2.473083 1_555
Na2 O107 2.641656 1_555
Na2 O137 2.750616 1_555
Na2 O65 2.780873 1_555
Na2 O35 2.987522 1_555
Na2 O1 3.028067 1_555
Na3 O132 2.467201 1_655
Na3 O31 2.563173 1_555
Na3 O103 2.588237 1_555
Na3 O136 2.715043 1_655
Na3 O105 2.804022 1_555
Na4 O102 2.552062 1_555
Na4 O133 2.554239 1_555
Na4 O104 2.698886 1_555
Na4 O137 2.792587 1_555
Na4 O30 2.800183 1_555
Na4 O23 2.833270 1_555
Na4 O61 2.937246 1_555
Na5 O138 2.498676 1_555
Na5 O98 2.500855 1_555
Na5 O142 2.651669 1_555
Na5 O70 2.662150 1_555
Na5 O100 2.708631 1_555
Na6 O97 2.526137 1_455
Na6 O138 2.593022 1_555
Na6 O101 2.678474 1_455
Na6 O140 2.797709 1_555
Na6 O66 2.812604 1_555
Na6 O25 2.859092 1_455
Na6 O14 2.958622 1_555
Na6 O11 3.047399 1_455
Na7 O139 2.404921 1_555
Na7 O141 2.639953 1_555
Na7 O96 2.648131 1_555
Na7 O24 2.775513 1_555
Na7 O100 2.841981 1_555
Na7 O67 2.893689 1_555
Na8 O142 2.494617 1_545
Na8 O96 2.530374 1_555
Na8 O68 2.578125 1_545
Na8 O140 2.681338 1_545
Na8 O98 2.760421 1_555
Na8 O6 2.900816 1_555
Na9 O143 2.413542 1_545
Na9 O69 2.439532 1_545
Na9 O99 2.497369 1_555
Na9 O97 2.653348 1_555
Na9 O141 2.934620 1_545
Na9 O7 3.036100 1_555
Na10 O130 2.363629 1_555
Na10 O85 2.524972 1_455
Na10 O128 2.597315 1_555
Na10 O86 2.662337 1_555
Na10 O14 2.707962 1_555
Na10 O56 2.717666 1_555
Na11 O131 2.394103 1_555
Na11 O84 2.600797 1_555
Na11 O87 2.686942 1_555
Na11 O15 2.691185 1_555
Na11 O129 2.702947 1_555
Na11 O57 2.734156 1_555
Na12 O84 2.411383 1_565
Na12 O54 2.483949 1_555
Na12 O126 2.581515 1_555
Na12 O88 2.738766 1_555
Na12 O128 2.872978 1_555
Na12 O12 2.898947 1_555
Na13 O85 2.471115 1_565
Na13 O89 2.658689 1_555
Na13 O127 2.684737 1_555
Na13 O55 2.707316 1_555
Na13 O129 2.771510 1_555
Na13 O13 2.786247 1_555
Na14 O122 2.393745 1_555
Na14 O91 2.437638 1_455
Na14 O94 2.640487 1_565
Na14 O22 2.677011 1_555
Na14 O124 2.780922 1_555
Na14 O52 2.855858 1_554
Na15 O123 2.438564 1_555
Na15 O125 2.447419 1_555
Na15 O95 2.729269 1_565
Na15 O90 2.767661 1_555
Na15 O23 2.822531 1_555
Na15 O53 2.864027 1_554
Na16 O90 2.430667 1_555
Na16 O120 2.645441 1_555
Na16 O92 2.670380 1_565
Na16 O48 2.766682 1_554
Na16 O124 2.768235 1_555
Na16 O18 2.858316 1_555
Na17 O93 2.491125 1_565
Na17 O49 2.542673 1_554
Na17 O91 2.543961 1_555
Na17 O125 2.671862 1_555
Na17 O121 2.684696 1_555
Na17 O19 2.957514 1_555
Na18 O82 2.496060 1_555
Na18 O108 2.603222 1_555
Na18 O81 2.648099 1_565
Na18 O38 2.709155 1_556
Na18 O53 2.798997 1_555
Na18 O110 2.956293 1_555
Na18 O8 3.003198 1_555
Na19 O109 2.386164 1_555
Na19 O83 2.425636 1_555
Na19 O39 2.671150 1_556
Na19 O80 2.767518 1_665
Na19 O111 2.828890 1_555
Na19 O52 2.919423 1_655
Na19 O9 2.962407 1_555
Na20 O79 2.610876 1_555
Na20 O82 2.645203 1_545
Na20 O110 2.652285 1_555
Na20 O112 2.652615 1_555
Na20 O10 2.746568 1_555
Na20 O40 2.920086 1_556
Na20 O68 2.926598 1_545
Na20 O48 2.993875 1_545
Na21 O111 2.693571 1_555
Na21 O41 2.694994 1_556
Na21 O113 2.739053 1_555
Na21 O78 2.743632 1_655
Na21 O83 2.771172 1_545
Na22 O80 2.428143 1_555
Na22 O112 2.566454 1_555
Na22 O6 2.678257 1_555
Na22 O108 2.689010 1_555
Na22 O78 2.760650 1_555
Na22 O70 2.924703 1_555
Na23 O113 2.391254 1_555
Na23 O81 2.525386 1_555
Na23 O71 2.720567 1_555
Na23 O109 2.729804 1_555
Na23 O7 2.813243 1_555
Na23 O79 2.953979 1_555
Na23 O37 3.036702 1_556
Na24 O114 2.413417 1_555
Na24 O74 2.446097 1_545
Na24 O77 2.670810 1_555
Na24 O4 2.763122 1_555
Na24 O46 2.880706 1_555
Na24 O118 2.892646 1_555
Na24 O57 2.956786 1_555
Na25 O75 2.434005 1_545
Na25 O115 2.527838 1_555
Na25 O76 2.673019 1_655
Na25 O47 2.784149 1_555
Na25 O5 2.833791 1_555
Na25 O119 2.966398 1_555
Na25 O56 2.996041 1_655
Na26 O76 2.481341 1_555
Na26 O116 2.513068 1_555
Na26 O0 2.593375 1_555
Na26 O62 2.737311 1_545
Na26 O114 2.832818 1_555
Na26 O72 2.873984 1_545
Na27 O77 2.477569 1_555
Na27 O1 2.520811 1_555
Na27 O117 2.560983 1_555
Na27 O115 2.696056 1_555
Na27 O73 2.813822 1_545
Na27 O63 2.851995 1_545
Na28 O2 2.623982 1_555
Na28 O74 2.672426 1_555
Na28 O73 2.675952 1_555
Na28 O118 2.684229 1_555
Na28 O116 2.761278 1_555
Na28 O64 2.854937 1_555
Na29 O3 2.560028 1_555
Na29 O72 2.623541 1_655
Na29 O119 2.649781 1_555
Na29 O75 2.650945 1_555
Na29 O117 2.667240 1_555
Na29 O65 2.876427 1_555
Na30 O76 2.478444 1_655
Na30 O85 2.511435 1_555
Na30 O75 2.536104 1_545
Na30 O72 2.758424 1_645
Na30 O89 2.819674 1_545
Na30 O86 3.012073 1_655
Na31 O74 2.427070 1_545
Na31 O77 2.547279 1_555
Na31 O84 2.646493 1_555
Na31 O73 2.837581 1_545
Na31 O87 2.902259 1_555
Na31 O88 2.960982 1_545
Na32 O93 2.495421 1_565
Na32 O91 2.535503 1_555
Na32 O83 2.559366 1_554
Na32 O94 2.861783 1_665
Na32 O80 2.883554 1_664
Na32 O78 2.973243 1_664
Na33 O90 2.464225 1_556
Na33 O81 2.493750 1_565
Na33 O82 2.615443 1_555
Na33 O79 2.803593 1_565
Na33 O92 2.815112 1_566
Na33 O95 2.922273 1_566
Na34 O112 2.521448 1_555
Na34 O108 2.583390 1_555
Na34 O96 2.624179 1_555
Na34 O98 2.633737 1_555
Na34 O110 2.825076 1_555
Na34 O100 2.827779 1_555
Na35 O113 2.482686 1_555
Na35 O99 2.555454 1_555
Na35 O109 2.568265 1_555
Na35 O97 2.683648 1_555
Na35 O111 2.769841 1_555
Na35 O101 2.901042 1_555
Na36 O106 2.424675 1_555
Na36 O102 2.544894 1_555
Na36 O116 2.662809 1_555
Na36 O114 2.681982 1_555
Na36 O104 2.778673 1_555
Na36 O118 2.895667 1_555
Na37 O107 2.438844 1_555
Na37 O103 2.500660 1_555
Na37 O117 2.672967 1_555
Na37 O105 2.696041 1_555
Na37 O115 2.732166 1_555
Na37 O119 2.958871 1_555
Na38 O132 2.500773 1_555
Na38 O122 2.579724 1_555
Na38 O134 2.663711 1_555
Na38 O136 2.812996 1_555
Na38 O124 2.882339 1_555
Na39 O125 2.500116 1_555
Na39 O123 2.618754 1_555
Na39 O133 2.700977 1_555
Na39 O135 2.798631 1_555
Na39 O121 2.870738 1_555
Na39 O137 2.938328 1_555
Na40 O138 2.541348 1_555
Na40 O140 2.646323 1_555
Na40 O142 2.674893 1_555
Na40 O130 2.682258 1_555
Na40 O128 2.911626 1_555
Na40 O126 2.981381 1_555
Na41 O139 2.438496 1_555
Na41 O143 2.570765 1_555
Na41 O131 2.708529 1_555
Na41 O141 2.777510 1_555
Na41 O129 2.907628 1_555
La0 O13 2.175960 1_545
La0 O14 2.265724 1_655
La0 O85 2.386832 1_555
La0 O16 2.487540 1_645
La0 O86 2.555201 1_655
La0 O89 2.602866 1_545
La1 O15 2.201620 1_555
La1 O12 2.233277 1_545
La1 O84 2.347951 1_555
La1 O17 2.436763 1_545
La1 O88 2.538118 1_545
La1 O87 2.581144 1_555
La2 O19 2.239871 1_555
La2 O22 2.294803 1_655
La2 O93 2.322683 1_565
La2 O91 2.349930 1_555
La2 O20 2.444003 1_665
La2 O94 2.581832 1_665
La3 O18 2.189247 1_555
La3 O23 2.255487 1_555
La3 O90 2.359457 1_555
La3 O21 2.509383 1_565
La3 O95 2.510195 1_565
La3 O92 2.608641 1_565
La4 O25 2.268937 1_555
La4 O97 2.297284 1_555
La4 O99 2.336948 1_555
La4 O29 2.421611 1_555
La4 O27 2.439051 1_555
La4 O101 2.445576 1_555
La5 O30 2.241615 1_555
La5 O102 2.323567 1_555
La5 O106 2.355856 1_555
La5 O32 2.406888 1_555
La5 O34 2.418402 1_555
La5 O104 2.454315 1_555
La6 O52 2.244243 1_554
La6 O122 2.330727 1_555
La6 O48 2.363619 1_554
La6 O50 2.366174 1_554
La6 O124 2.468846 1_555
La6 O120 2.508841 1_555
La7 O53 2.269944 1_554
La7 O125 2.321214 1_555
La7 O123 2.336353 1_555
La7 O49 2.354176 1_554
La7 O51 2.505892 1_554
La7 O121 2.571875 1_555
La8 O56 2.243542 1_555
La8 O130 2.316122 1_555
La8 O54 2.351374 1_555
La8 O58 2.396530 1_555
La8 O128 2.546819 1_555
La8 O126 2.592024 1_555
La9 O57 2.245256 1_555
La9 O55 2.346178 1_555
La9 O59 2.368688 1_555
La9 O131 2.372596 1_555
La9 O129 2.467548 1_555
La9 O127 2.516293 1_555
La10 O62 2.215154 1_555
La10 O134 2.271811 1_555
La10 O132 2.323759 1_555
La10 O64 2.400109 1_555
La10 O136 2.556079 1_555
La10 O60 2.606927 1_555
La11 O71 2.204534 1_555
La11 O143 2.290896 1_555
La11 O139 2.350751 1_555
La11 O69 2.365000 1_555
La11 O67 2.595515 1_555
La11 O141 2.653703 1_555
In0 O0 2.065769 1_665
In0 O3 2.145024 1_555
In0 O75 2.171874 1_555
In0 O76 2.256219 1_665
In0 O5 2.289762 1_565
In0 O72 2.357459 1_655
In1 O2 2.102589 1_545
In1 O1 2.134254 1_555
In1 O77 2.197439 1_555
In1 O74 2.217440 1_545
In1 O4 2.228806 1_555
In1 O73 2.333041 1_545
In2 O11 2.099449 1_455
In2 O80 2.168222 1_555
In2 O83 2.187528 1_445
In2 O6 2.190265 1_555
In2 O9 2.242668 1_445
In2 O78 2.296677 1_555
In3 O7 2.068639 1_555
In3 O10 2.142566 1_555
In3 O82 2.160740 1_545
In3 O81 2.171418 1_555
In3 O8 2.333209 1_545
In3 O79 2.343321 1_555
In4 O24 2.067353 1_555
In4 O96 2.146239 1_555
In4 O98 2.169190 1_555
In4 O26 2.234690 1_555
In4 O100 2.302894 1_555
In4 O28 2.319215 1_555
In5 O33 2.086249 1_555
In5 O31 2.099673 1_555
In5 O103 2.231916 1_555
In5 O35 2.256995 1_555
In5 O107 2.276883 1_555
In5 O105 2.380752 1_555
In6 O38 2.069128 1_556
In6 O108 2.139106 1_555
In6 O112 2.185712 1_555
In6 O36 2.212626 1_556
In6 O110 2.279359 1_555
In6 O40 2.333427 1_556
In7 O41 2.066453 1_556
In7 O39 2.094815 1_556
In7 O109 2.150495 1_555
In7 O113 2.228015 1_555
In7 O37 2.246125 1_556
In7 O111 2.475307 1_555
In8 O46 2.052477 1_555
In8 O114 2.101960 1_555
In8 O116 2.122840 1_555
In8 O42 2.232026 1_555
In8 O44 2.277602 1_555
In8 O118 2.372040 1_555
In9 O47 2.087313 1_555
In9 O115 2.125475 1_555
In9 O117 2.180214 1_555
In9 O43 2.227704 1_555
In9 O119 2.275087 1_555
In9 O45 2.340291 1_555
In10 O63 2.081429 1_555
In10 O135 2.096146 1_555
In10 O65 2.151011 1_555
In10 O133 2.177221 1_555
In10 O137 2.384131 1_555
In10 O61 2.477742 1_555
In11 O70 2.079408 1_555
In11 O142 2.121526 1_555
In11 O68 2.141607 1_555
In11 O138 2.221206 1_555
In11 O66 2.370268 1_555
In11 O140 2.399475 1_555
O0 Si0 1.663117 1_545
O1 Si1 1.655760 1_545
O2 Si2 1.658257 1_555
O3 Si3 1.655999 1_555
O4 S1 1.485828 1_555
O5 S0 1.494711 1_555
O6 Si4 1.647496 1_555
O7 Si5 1.647797 1_555
O8 S3 1.485113 1_555
O9 S2 1.473871 1_655
O10 Si6 1.642040 1_545
O11 Si7 1.648992 1_555
O12 Si6 1.641063 1_555
O13 Si7 1.644317 1_565
O14 Si4 1.644561 1_555
O15 Si5 1.656289 1_555
O16 S2 1.481515 1_555
O17 S3 1.476628 1_555
O18 Si2 1.634619 1_555
O19 Si3 1.627933 1_555
O20 S0 1.471341 1_455
O21 S1 1.475552 1_555
O22 Si0 1.635690 1_555
O23 Si1 1.644465 1_555
O24 Si8 1.650371 1_555
O25 Si9 1.630343 1_555
O26 S4 1.486552 1_555
O27 S5 1.474107 1_555
O28 S6 1.483567 1_555
O29 S7 1.469078 1_555
O30 Si10 1.636994 1_555
O31 Si11 1.647815 1_555
O32 S8 1.473121 1_555
O33 Si12 1.658441 1_555
O34 S9 1.476922 1_555
O35 S10 1.487977 1_555
O36 S9 1.492555 1_555
O37 S10 1.481577 1_555
O38 Si10 1.665927 1_555
O39 Si11 1.643913 1_555
O40 S8 1.481542 1_555
O41 Si12 1.646279 1_555
O42 S4 1.485368 1_555
O43 S5 1.493033 1_555
O44 S6 1.482951 1_555
O45 S7 1.481906 1_555
O46 Si8 1.645961 1_555
O47 Si9 1.663828 1_555
O48 Si13 1.638095 1_555
O49 Si14 1.640793 1_555
O50 S11 1.476968 1_555
O51 S12 1.477350 1_555
O52 Si15 1.637257 1_555
O53 Si16 1.641723 1_555
O54 Si17 1.652226 1_555
O55 Si18 1.643097 1_555
O56 Si19 1.649461 1_555
O57 Si20 1.644728 1_555
O58 S13 1.484078 1_555
O59 S14 1.480238 1_555
O60 S13 1.472904 1_555
O61 S14 1.480976 1_555
O62 Si17 1.630140 1_555
O63 Si18 1.642755 1_555
O64 Si19 1.635912 1_555
O65 Si20 1.651502 1_555
O66 S11 1.492790 1_555
O67 S12 1.478096 1_555
O68 Si15 1.659681 1_555
O69 Si16 1.641840 1_555
O70 Si13 1.652963 1_555
O71 Si14 1.637680 1_555
O72 S13 1.492236 1_555
O73 S14 1.495172 1_555
O74 Si17 1.663652 1_555
O75 Si18 1.665920 1_555
O76 Si19 1.661757 1_555
O77 Si20 1.658674 1_555
O78 S11 1.493709 1_555
O79 S12 1.495142 1_555
O80 Si15 1.650090 1_545
O81 Si16 1.669992 1_545
O82 Si13 1.660889 1_555
O83 Si14 1.668711 1_555
O84 Si8 1.684146 1_555
O85 Si9 1.684640 1_555
O86 S4 1.484093 1_555
O87 S5 1.488778 1_555
O88 S6 1.490926 1_555
O89 S7 1.491562 1_555
O90 Si10 1.682546 1_555
O91 Si11 1.672585 1_555
O92 S8 1.487524 1_555
O93 Si12 1.643197 1_555
O94 S9 1.481057 1_555
O95 S10 1.489350 1_555
O96 Si6 1.672938 1_545
O97 Si7 1.660278 1_555
O98 Si4 1.680732 1_555
O99 Si5 1.646206 1_555
O100 S3 1.504770 1_555
O101 S2 1.485626 1_655
O102 Si2 1.658598 1_555
O103 Si3 1.672101 1_555
O104 S1 1.488393 1_555
O105 S0 1.492760 1_555
O106 Si0 1.652970 1_545
O107 Si1 1.663036 1_545
O108 Si13 1.667306 1_555
O109 Si14 1.660841 1_555
O110 S12 1.500877 1_555
O111 S11 1.486167 1_655
O112 Si15 1.679582 1_545
O113 Si16 1.663869 1_545
O114 Si17 1.659445 1_545
O115 Si18 1.667786 1_545
O116 Si19 1.678123 1_555
O117 Si20 1.676663 1_555
O118 S14 1.497536 1_555
O119 S13 1.495833 1_655
O120 S9 1.485289 1_555
O121 S10 1.486714 1_555
O122 Si11 1.671029 1_455
O123 Si10 1.635623 1_555
O124 S8 1.504467 1_565
O125 Si12 1.673673 1_565
O126 S4 1.490974 1_565
O127 S5 1.485411 1_565
O128 S6 1.509129 1_555
O129 S7 1.506777 1_555
O130 Si9 1.659222 1_455
O131 Si8 1.654507 1_555
O132 Si0 1.651983 1_555
O133 Si1 1.672269 1_555
O134 Si2 1.650630 1_555
O135 Si3 1.659622 1_555
O136 S0 1.485954 1_455
O137 S1 1.494917 1_555
O138 Si4 1.669705 1_555
O139 Si5 1.647802 1_555
O140 S2 1.501926 1_555
O141 S3 1.484378 1_555
O142 Si6 1.655546 1_555
O143 Si7 1.648694 1_565
