# generated using pymatgen
data_CsBa2MgNb3O10
_symmetry_space_group_name_H-M   'P 1'
_cell_length_a   4.11465186
_cell_length_b   4.11465186
_cell_length_c   16.46022803
_cell_angle_alpha   90.00000000
_cell_angle_beta   90.00000000
_cell_angle_gamma   90.00000000
_symmetry_Int_Tables_number   1
_chemical_formula_structural   CsBa2MgNb3O10
_chemical_formula_sum   'Cs1 Ba2 Mg1 Nb3 O10'
_cell_volume   278.67758506
_cell_formula_units_Z   1
loop_
 _symmetry_equiv_pos_site_id
 _symmetry_equiv_pos_as_xyz
  1  'x, y, z'
loop_
 _atom_site_type_symbol
 _atom_site_label
 _atom_site_symmetry_multiplicity
 _atom_site_fract_x
 _atom_site_fract_y
 _atom_site_fract_z
 _atom_site_occupancy
  Cs  Cs0  1  0.50000000  0.50000000  0.43943461  1
  Ba  Ba0  1  0.50000000  0.50000000  0.88367418  1
  Ba  Ba1  1  0.50000000  0.50000000  0.14009415  1
  Mg  Mg0  1  0.50000000  0.50000000  0.67643137  1
  Nb  Nb0  1  0.00000000  0.00000000  0.27230362  1
  Nb  Nb1  1  0.00000000  0.00000000  0.73823692  1
  Nb  Nb2  1  0.00000000  0.00000000  0.00457291  1
  O  O0  1  0.00000000  0.00000000  0.38274338  1
  O  O1  1  0.50000000  0.00000000  0.25420839  1
  O  O2  1  0.50000000  0.00000000  0.74206630  1
  O  O3  1  0.00000000  0.50000000  0.74206630  1
  O  O4  1  0.00000000  0.00000000  0.12443546  1
  O  O5  1  0.00000000  0.50000000  0.25420839  1
  O  O6  1  0.00000000  0.00000000  0.62455775  1
  O  O7  1  0.00000000  0.00000000  0.87422478  1
  O  O8  1  0.00000000  0.50000000  0.00045424  1
  O  O9  1  0.50000000  0.00000000  0.00045424  1
loop_
_geom_bond_atom_site_label_1
_geom_bond_atom_site_label_2
_geom_bond_distance
_geom_bond_site_symmetry_2
Cs0 O0 3.055479 1_565
Cs0 O0 3.055479 1_555
Cs0 O0 3.055479 1_665
Cs0 O0 3.055479 1_655
Ba0 O8 2.815590 1_556
Ba0 O8 2.815590 1_656
Ba0 O9 2.815590 1_556
Ba0 O9 2.815590 1_566
Ba0 O7 2.913653 1_665
Ba0 O7 2.913653 1_655
Ba0 O7 2.913653 1_555
Ba0 O7 2.913653 1_565
Ba0 O2 3.108967 1_565
Ba0 O3 3.108967 1_655
Ba0 O2 3.108967 1_555
Ba0 O3 3.108967 1_555
Ba1 O1 2.785817 1_555
Ba1 O5 2.785817 1_555
Ba1 O5 2.785817 1_655
Ba1 O1 2.785817 1_565
Ba1 O4 2.920892 1_665
Ba1 O4 2.920892 1_555
Ba1 O4 2.920892 1_565
Ba1 O4 2.920892 1_655
Ba1 O8 3.084755 1_555
Ba1 O8 3.084755 1_655
Ba1 O9 3.084755 1_555
Ba1 O9 3.084755 1_565
Mg0 O3 2.323743 1_555
Mg0 O3 2.323743 1_655
Mg0 O2 2.323743 1_565
Mg0 O2 2.323743 1_555
Nb0 O0 1.817864 1_555
Nb0 O5 2.078775 1_545
Nb0 O1 2.078775 1_455
Nb0 O1 2.078775 1_555
Nb0 O5 2.078775 1_555
Nb0 O4 2.433944 1_555
Nb1 O6 1.871185 1_555
Nb1 O3 2.058291 1_555
Nb1 O3 2.058291 1_545
Nb1 O2 2.058291 1_455
Nb1 O2 2.058291 1_555
Nb1 O7 2.238391 1_555
Nb2 O4 1.972965 1_555
Nb2 O8 2.058443 1_555
Nb2 O9 2.058443 1_455
Nb2 O9 2.058443 1_555
Nb2 O8 2.058443 1_545
Nb2 O7 2.145560 1_554
