# generated using pymatgen
data_NaYTiSi(SO6)2
_symmetry_space_group_name_H-M   'P 1'
_cell_length_a   8.98748912
_cell_length_b   9.01763112
_cell_length_c   23.36098423
_cell_angle_alpha   90.92184429
_cell_angle_beta   90.00000000
_cell_angle_gamma   119.88949036
_symmetry_Int_Tables_number   1
_chemical_formula_structural   NaYTiSi(SO6)2
_chemical_formula_sum   'Na6 Y6 Ti6 Si6 S12 O72'
_cell_volume   1641.19567305
_cell_formula_units_Z   6
loop_
 _symmetry_equiv_pos_site_id
 _symmetry_equiv_pos_as_xyz
  1  'x, y, z'
loop_
 _atom_site_type_symbol
 _atom_site_label
 _atom_site_symmetry_multiplicity
 _atom_site_fract_x
 _atom_site_fract_y
 _atom_site_fract_z
 _atom_site_occupancy
  Na  Na0  1  0.01541403  0.00137992  0.50012535  1
  Na  Na1  1  0.98596589  0.00137992  0.00012535  1
  Na  Na2  1  0.69070379  0.34211186  0.83299795  1
  Na  Na3  1  0.65140907  0.34211186  0.33299795  1
  Na  Na4  1  0.33616500  0.68602604  0.16577955  1
  Na  Na5  1  0.34986003  0.68602604  0.66577955  1
  Y  Y0  1  0.00036174  0.99629484  0.64650614  1
  Y  Y1  1  0.99593310  0.99629484  0.14650614  1
  Y  Y2  1  0.67130328  0.32801175  0.97966685  1
  Y  Y3  1  0.65670946  0.32801175  0.47966685  1
  Y  Y4  1  0.33804152  0.66830945  0.31293486  1
  Y  Y5  1  0.33026693  0.66830945  0.81293486  1
  Ti  Ti0  1  0.03164761  0.01574987  0.35267647  1
  Ti  Ti1  1  0.98410226  0.01574987  0.85267647  1
  Ti  Ti2  1  0.65430821  0.29926870  0.68597650  1
  Ti  Ti3  1  0.64496149  0.29926870  0.18597650  1
  Ti  Ti4  1  0.32625984  0.66479813  0.01892987  1
  Ti  Ti5  1  0.33853729  0.66479813  0.51892987  1
  Si  Si0  1  0.29846849  0.00499412  0.24794974  1
  Si  Si1  1  0.70652563  0.00499412  0.74794974  1
  Si  Si2  1  0.37318461  0.02459967  0.58069597  1
  Si  Si3  1  0.65141605  0.02459967  0.08069597  1
  Si  Si4  1  0.04639020  0.37440500  0.91559834  1
  Si  Si5  1  0.32801380  0.37440500  0.41559834  1
  S  S0  1  0.71750238  0.70080175  0.25109750  1
  S  S1  1  0.98425668  0.28535768  0.25139287  1
  S  S2  1  0.30110101  0.28535768  0.75139287  1
  S  S3  1  0.98329937  0.70080175  0.75109750  1
  S  S4  1  0.96624493  0.34684057  0.58427058  1
  S  S5  1  0.65201173  0.61914638  0.58370601  1
  S  S6  1  0.96713565  0.61914638  0.08370601  1
  S  S7  1  0.38059665  0.34684057  0.08427058  1
  S  S8  1  0.63163011  0.68114337  0.91766926  1
  S  S9  1  0.31526884  0.95043793  0.91903252  1
  S  S10  1  0.63516809  0.95043793  0.41903252  1
  S  S11  1  0.04951226  0.68114337  0.41766926  1
  O  O0  1  0.19837673  0.03249769  0.30689775  1
  O  O1  1  0.82268957  0.79422256  0.30277970  1
  O  O2  1  0.96674594  0.17958209  0.30241676  1
  O  O3  1  0.21283616  0.17958209  0.80241676  1
  O  O4  1  0.97153298  0.79422256  0.80277970  1
  O  O5  1  0.83412096  0.03249769  0.80689775  1
  O  O6  1  0.79704049  0.98691939  0.69287435  1
  O  O7  1  0.20194778  0.20848972  0.69874739  1
  O  O8  1  0.01116974  0.80106637  0.69913488  1
  O  O9  1  0.78989663  0.80106637  0.19913488  1
  O  O10  1  0.00654194  0.20848972  0.19874739  1
  O  O11  1  0.18987889  0.98691939  0.19287435  1
  O  O12  1  0.87457566  0.36432148  0.63583944  1
  O  O13  1  0.50220232  0.13174115  0.64041051  1
  O  O14  1  0.63311920  0.51680115  0.63458185  1
  O  O15  1  0.88368296  0.51680115  0.13458185  1
  O  O16  1  0.62953983  0.13174115  0.14041051  1
  O  O17  1  0.48974682  0.36432148  0.13583944  1
  O  O18  1  0.45598058  0.32440118  0.03176179  1
  O  O19  1  0.86654200  0.54597028  0.03098531  1
  O  O20  1  0.67638474  0.14361008  0.02848150  1
  O  O21  1  0.46722634  0.14361008  0.52848150  1
  O  O22  1  0.67942928  0.54597028  0.53098531  1
  O  O23  1  0.86842160  0.32440118  0.53176179  1
  O  O24  1  0.54662902  0.70457720  0.96944975  1
  O  O25  1  0.17308689  0.48089120  0.97296899  1
  O  O26  1  0.30667556  0.84474748  0.96986780  1
  O  O27  1  0.53807091  0.84474748  0.46986780  1
  O  O28  1  0.30780331  0.48089120  0.47296899  1
  O  O29  1  0.15794717  0.70457720  0.46944975  1
  O  O30  1  0.12536322  0.65841158  0.36530235  1
  O  O31  1  0.53168088  0.87982989  0.36671449  1
  O  O32  1  0.34098141  0.47524261  0.35955848  1
  O  O33  1  0.13426020  0.47524261  0.85955848  1
  O  O34  1  0.34814801  0.87982989  0.86671449  1
  O  O35  1  0.53304735  0.65841158  0.86530235  1
  O  O36  1  0.03407647  0.84006953  0.41227390  1
  O  O37  1  0.80066969  0.95256447  0.41491697  1
  O  O38  1  0.14423314  0.17950077  0.40701083  1
  O  O39  1  0.03526764  0.17950077  0.90701083  1
  O  O40  1  0.15189478  0.95256447  0.91491697  1
  O  O41  1  0.80599306  0.84006953  0.91227390  1
  O  O42  1  0.99259650  0.19847667  0.58940066  1
  O  O43  1  0.18300184  0.99410112  0.58716630  1
  O  O44  1  0.79713729  0.79589523  0.58814535  1
  O  O45  1  0.99875794  0.79589523  0.08814535  1
  O  O46  1  0.81109928  0.99410112  0.08716630  1
  O  O47  1  0.20588016  0.19847667  0.08940066  1
  O  O48  1  0.70131365  0.18940257  0.74082515  1
  O  O49  1  0.47427895  0.29813383  0.74610549  1
  O  O50  1  0.82320598  0.53165212  0.74525033  1
  O  O51  1  0.70844714  0.53165212  0.24525033  1
  O  O52  1  0.82385589  0.29813383  0.24610549  1
  O  O53  1  0.48808992  0.18940257  0.24082515  1
  O  O54  1  0.65456873  0.53171162  0.92349417  1
  O  O55  1  0.85297778  0.33820628  0.91918533  1
  O  O56  1  0.45933691  0.12732776  0.92490642  1
  O  O57  1  0.66799185  0.12732776  0.42490642  1
  O  O58  1  0.48522950  0.33820628  0.41918533  1
  O  O59  1  0.87714389  0.53171162  0.42349417  1
  O  O60  1  0.37002338  0.50760259  0.08077296  1
  O  O61  1  0.14052779  0.63018805  0.07706494  1
  O  O62  1  0.47167330  0.83736658  0.07166974  1
  O  O63  1  0.36569228  0.83736658  0.57166974  1
  O  O64  1  0.48965926  0.63018805  0.57706494  1
  O  O65  1  0.13757821  0.50760259  0.58077296  1
  O  O66  1  0.33564192  0.85109219  0.25424319  1
  O  O67  1  0.54106858  0.67392560  0.25532562  1
  O  O68  1  0.13194237  0.45978288  0.25646325  1
  O  O69  1  0.32783951  0.45978288  0.75646325  1
  O  O70  1  0.13285602  0.67392560  0.75532562  1
  O  O71  1  0.51544927  0.85109219  0.75424319  1
loop_
_geom_bond_atom_site_label_1
_geom_bond_atom_site_label_2
_geom_bond_distance
_geom_bond_site_symmetry_2
Na0 O36 2.550124 1_545
Na0 O43 2.551532 1_545
Na0 O38 2.628895 1_555
Na0 O37 2.646899 1_445
Na0 O42 2.791874 1_455
Na0 O44 2.830158 1_445
Na1 O41 2.550124 1_544
Na1 O46 2.551532 1_545
Na1 O39 2.628895 1_654
Na1 O40 2.646899 1_644
Na1 O47 2.791874 1_655
Na1 O45 2.830158 1_545
Na2 O55 2.497122 1_555
Na2 O48 2.564638 1_555
Na2 O50 2.574027 1_555
Na2 O49 2.695645 1_555
Na2 O54 2.816935 1_555
Na2 O56 2.967323 1_555
Na3 O58 2.497122 1_555
Na3 O53 2.564638 1_555
Na3 O51 2.574027 1_555
Na3 O52 2.695645 1_555
Na3 O59 2.816935 1_555
Na3 O57 2.967323 1_555
Na4 O66 2.528733 1_555
Na4 O62 2.572768 1_555
Na4 O61 2.593115 1_555
Na4 O60 2.647651 1_555
Na4 O67 2.826107 1_555
Na4 O68 2.902760 1_555
Na5 O71 2.528733 1_555
Na5 O63 2.572768 1_555
Na5 O64 2.593115 1_555
Na5 O65 2.647651 1_555
Na5 O70 2.826107 1_555
Na5 O69 2.902760 1_555
O0 Si0 1.725827 1_555
O0 Ti0 1.786499 1_555
O1 S0 1.494867 1_555
O1 Ti0 2.249944 1_665
O2 S1 1.497447 1_555
O2 Ti0 2.194569 1_655
O3 S2 1.497447 1_555
O3 Ti1 2.194569 1_455
O4 S3 1.494867 1_555
O4 Ti1 2.249944 1_565
O5 Si1 1.725827 1_555
O5 Ti1 1.786499 1_555
O6 Si1 1.571347 1_565
O6 Y0 2.090133 1_655
O7 S2 1.464263 1_555
O7 Y0 2.214265 1_545
O8 S3 1.470841 1_455
O8 Y0 2.204641 1_555
O9 S0 1.470841 1_555
O9 Y1 2.204641 1_555
O10 S1 1.464263 1_455
O10 Y1 2.214265 1_445
O11 Si0 1.571347 1_565
O11 Y1 2.090133 1_455
O12 S4 1.509387 1_555
O12 Ti2 2.121239 1_555
O13 Si2 1.750452 1_555
O13 Ti2 1.781597 1_555
O14 S5 1.473860 1_555
O14 Ti2 2.402885 1_555
O15 S6 1.473860 1_555
O15 Ti3 2.402885 1_555
O16 Si3 1.750452 1_555
O16 Ti3 1.781597 1_555
O17 S7 1.509387 1_555
O17 Ti3 2.121239 1_555
O18 S7 1.460584 1_555
O18 Y2 2.272804 1_554
O19 S6 1.465920 1_555
O19 Y2 2.205945 1_554
O20 Si3 1.578627 1_555
O20 Y2 2.050447 1_554
O21 Si2 1.578627 1_555
O21 Y3 2.050447 1_555
O22 S5 1.465920 1_555
O22 Y3 2.205945 1_555
O23 S4 1.460584 1_555
O23 Y3 2.272804 1_555
O24 S8 1.498058 1_555
O24 Ti4 2.166262 1_556
O25 Si4 1.698157 1_555
O25 Ti4 1.861603 1_556
O26 S9 1.512509 1_555
O26 Ti4 2.079022 1_556
O27 S10 1.512509 1_555
O27 Ti5 2.079022 1_555
O28 Si5 1.698157 1_555
O28 Ti5 1.861603 1_555
O29 S11 1.498058 1_555
O29 Ti5 2.166262 1_555
O30 S11 1.461000 1_555
O30 Y4 2.234203 1_555
O31 S10 1.465942 1_555
O31 Y4 2.204504 1_555
O32 Si5 1.577018 1_555
O32 Y4 2.079654 1_555
O33 Si4 1.577018 1_555
O33 Y5 2.079654 1_555
O34 S9 1.465942 1_555
O34 Y5 2.204504 1_555
O35 S8 1.461000 1_555
O35 Y5 2.234203 1_555
O36 S11 1.514259 1_555
O36 Ti0 2.134020 1_565
O37 S10 1.481125 1_555
O37 Ti0 2.365580 1_665
O38 Si5 1.718383 1_555
O38 Ti0 1.807208 1_555
O39 Si4 1.718387 1_555
O39 Ti1 1.807208 1_455
O40 S9 1.481116 1_555
O40 Ti1 2.365580 1_465
O41 S8 1.514264 1_555
O41 Ti1 2.134020 1_565
O42 S4 1.476944 1_555
O42 Y0 2.305141 1_645
O43 Si2 1.597778 1_565
O43 Y0 2.155915 1_555
O44 S5 1.474825 1_555
O44 Y0 2.256452 1_655
O45 S6 1.474828 1_555
O45 Y1 2.256452 1_555
O46 Si3 1.597769 1_565
O46 Y1 2.155915 1_555
O47 S7 1.476950 1_555
O47 Y1 2.305141 1_445
O48 Si1 1.697576 1_555
O48 Ti2 1.805490 1_555
O49 S2 1.507567 1_555
O49 Ti2 2.138955 1_555
O50 S3 1.490460 1_555
O50 Ti2 2.312837 1_555
O51 S0 1.490464 1_555
O51 Ti3 2.312837 1_555
O52 S1 1.507558 1_555
O52 Ti3 2.138955 1_555
O53 Si0 1.697581 1_555
O53 Ti3 1.805490 1_555
O54 S8 1.469560 1_555
O54 Y2 2.339165 1_555
O55 Si4 1.603305 1_655
O55 Y2 2.127291 1_555
O56 S9 1.474540 1_545
O56 Y2 2.242805 1_555
O57 S10 1.474534 1_545
O57 Y3 2.242805 1_555
O58 Si5 1.603323 1_555
O58 Y3 2.127290 1_555
O59 S11 1.469549 1_655
O59 Y3 2.339165 1_555
O60 S7 1.502806 1_555
O60 Ti4 2.207461 1_555
O61 S6 1.519315 1_455
O61 Ti4 2.054913 1_555
O62 Si3 1.665817 1_565
O62 Ti4 1.886516 1_555
O63 Si2 1.665809 1_565
O63 Ti5 1.886516 1_555
O64 S5 1.519333 1_555
O64 Ti5 2.054913 1_555
O65 S4 1.502796 1_455
O65 Ti5 2.207461 1_555
O66 Si0 1.589967 1_565
O66 Y4 2.169170 1_555
O67 S0 1.483467 1_555
O67 Y4 2.247977 1_555
O68 S1 1.470739 1_455
O68 Y4 2.270706 1_555
O69 S2 1.470742 1_555
O69 Y5 2.270706 1_555
O70 S3 1.483458 1_455
O70 Y5 2.247977 1_555
O71 Si1 1.589972 1_565
O71 Y5 2.169170 1_555
