# generated using pymatgen
data_NiGe2
_symmetry_space_group_name_H-M   'P 1'
_cell_length_a   5.74132120
_cell_length_b   5.72606233
_cell_length_c   6.12826901
_cell_angle_alpha   117.85168383
_cell_angle_beta   90.00000000
_cell_angle_gamma   90.00000000
_symmetry_Int_Tables_number   1
_chemical_formula_structural   NiGe2
_chemical_formula_sum   'Ni4 Ge8'
_cell_volume   178.12978992
_cell_formula_units_Z   4
loop_
 _symmetry_equiv_pos_site_id
 _symmetry_equiv_pos_as_xyz
  1  'x, y, z'
loop_
 _atom_site_type_symbol
 _atom_site_label
 _atom_site_symmetry_multiplicity
 _atom_site_fract_x
 _atom_site_fract_y
 _atom_site_fract_z
 _atom_site_occupancy
  Ni  Ni0  1  0.00000000  0.11533948  0.23067897  1
  Ni  Ni1  1  0.50000000  0.38466052  0.76932103  1
  Ni  Ni2  1  0.00000000  0.88466052  0.76932103  1
  Ni  Ni3  1  0.50000000  0.61533948  0.23067897  1
  Ge  Ge0  1  0.34267294  0.84507012  1.00000000  1
  Ge  Ge1  1  0.84267294  0.65492988  0.00000000  1
  Ge  Ge2  1  0.15732706  0.34507012  1.00000000  1
  Ge  Ge3  1  0.65732706  0.15492988  0.00000000  1
  Ge  Ge4  1  0.25000000  0.00511700  0.50000000  1
  Ge  Ge5  1  0.75000000  0.49488300  0.50000000  1
  Ge  Ge6  1  0.75000000  0.99488300  0.50000000  1
  Ge  Ge7  1  0.25000000  0.50511700  0.50000000  1
loop_
_geom_bond_atom_site_label_1
_geom_bond_atom_site_label_2
_geom_bond_distance
_geom_bond_site_symmetry_2
Ni0 Ni2 2.499808 1_544
Ni1 Ni3 2.499808 1_556
Ge0 Ni0 2.493976 1_566
Ge0 Ni2 2.493977 1_555
Ge0 Ni1 2.506452 1_555
Ge0 Ni3 2.506452 1_556
Ge0 Ge3 2.532115 1_566
Ge1 Ni1 2.493976 1_554
Ge1 Ni3 2.493977 1_555
Ge1 Ni0 2.506452 1_665
Ge1 Ni2 2.506452 1_654
Ge1 Ge2 2.532115 1_654
Ge2 Ni3 2.493976 1_556
Ge2 Ni1 2.493977 1_555
Ge2 Ni2 2.506452 1_545
Ge2 Ni0 2.506452 1_556
Ge3 Ni2 2.493976 1_644
Ge3 Ni0 2.493977 1_655
Ge3 Ni3 2.506452 1_555
Ge3 Ni1 2.506452 1_554
Ge4 Ni1 2.481105 1_555
Ge4 Ni0 2.481105 1_555
Ge4 Ni3 2.514688 1_545
Ge4 Ni2 2.514688 1_545
Ge5 Ni0 2.481105 1_655
Ge5 Ni1 2.481105 1_555
Ge5 Ni2 2.514688 1_655
Ge5 Ni3 2.514688 1_555
Ge6 Ni3 2.481105 1_555
Ge6 Ni2 2.481105 1_655
Ge6 Ni1 2.514688 1_565
Ge6 Ni0 2.514688 1_665
Ge7 Ni2 2.481105 1_555
Ge7 Ni3 2.481105 1_555
Ge7 Ni0 2.514688 1_555
Ge7 Ni1 2.514688 1_555
