# generated using pymatgen
data_CoB
_symmetry_space_group_name_H-M   'P 1'
_cell_length_a   3.04722352
_cell_length_b   3.88778294
_cell_length_c   5.10885145
_cell_angle_alpha   90.00000000
_cell_angle_beta   90.00000000
_cell_angle_gamma   90.00000000
_symmetry_Int_Tables_number   1
_chemical_formula_structural   CoB
_chemical_formula_sum   'Co4 B4'
_cell_volume   60.52427507
_cell_formula_units_Z   4
loop_
 _symmetry_equiv_pos_site_id
 _symmetry_equiv_pos_as_xyz
  1  'x, y, z'
loop_
 _atom_site_type_symbol
 _atom_site_label
 _atom_site_symmetry_multiplicity
 _atom_site_fract_x
 _atom_site_fract_y
 _atom_site_fract_z
 _atom_site_occupancy
  Co  Co0  1  0.25000000  0.37190893  0.67682875  1
  Co  Co1  1  0.75000000  0.62809107  0.32317125  1
  Co  Co2  1  0.75000000  0.87190893  0.82317125  1
  Co  Co3  1  0.25000000  0.12809107  0.17682875  1
  B  B0  1  0.25000000  0.87454871  0.53206609  1
  B  B1  1  0.75000000  0.12545129  0.46793391  1
  B  B2  1  0.75000000  0.37454871  0.96793391  1
  B  B3  1  0.25000000  0.62545129  0.03206609  1
loop_
_geom_bond_atom_site_label_1
_geom_bond_atom_site_label_2
_geom_bond_distance
_geom_bond_site_symmetry_2
B0 B1 1.838547 1_565
B0 B1 1.838547 1_465
B0 Co3 2.065269 1_565
B0 Co0 2.070238 1_565
B0 Co0 2.089422 1_555
B0 Co1 2.092471 1_555
B0 Co1 2.092471 1_455
B0 Co2 2.129155 1_555
B0 Co2 2.129155 1_455
B1 Co2 2.065269 1_545
B1 Co1 2.070238 1_545
B1 Co1 2.089422 1_555
B1 Co0 2.092471 1_655
B1 Co0 2.092471 1_555
B1 Co3 2.129155 1_555
B1 Co3 2.129155 1_655
B2 B3 1.838547 1_656
B2 B3 1.838547 1_556
B2 Co1 2.065269 1_556
B2 Co2 2.070238 1_555
B2 Co2 2.089422 1_545
B2 Co3 2.092471 1_556
B2 Co3 2.092471 1_656
B2 Co0 2.129155 1_555
B2 Co0 2.129155 1_655
B3 Co0 2.065269 1_554
B3 Co3 2.070238 1_555
B3 Co3 2.089422 1_565
B3 Co2 2.092471 1_554
B3 Co2 2.092471 1_454
B3 Co1 2.129155 1_555
B3 Co1 2.129155 1_455
