# generated using pymatgen
data_Na7La2Zn2P5SO24
_symmetry_space_group_name_H-M   'P 1'
_cell_length_a   9.35736494
_cell_length_b   9.39992838
_cell_length_c   23.03040948
_cell_angle_alpha   90.45812529
_cell_angle_beta   89.57356971
_cell_angle_gamma   120.01471584
_symmetry_Int_Tables_number   1
_chemical_formula_structural   Na7La2Zn2P5SO24
_chemical_formula_sum   'Na21 La6 Zn6 P15 S3 O72'
_cell_volume   1753.99628178
_cell_formula_units_Z   3
loop_
 _symmetry_equiv_pos_site_id
 _symmetry_equiv_pos_as_xyz
  1  'x, y, z'
loop_
 _atom_site_type_symbol
 _atom_site_label
 _atom_site_symmetry_multiplicity
 _atom_site_fract_x
 _atom_site_fract_y
 _atom_site_fract_z
 _atom_site_occupancy
  Na  Na0  1  0.63824608  0.98979607  0.25211328  1
  Na  Na1  1  0.00679983  0.62879445  0.25535973  1
  Na  Na2  1  0.62364486  0.63894938  0.74922012  1
  Na  Na3  1  0.01723657  0.37685860  0.75215306  1
  Na  Na4  1  0.36034155  0.98525234  0.75260965  1
  Na  Na5  1  0.30070975  0.33420639  0.58702776  1
  Na  Na6  1  0.03261246  0.69897210  0.58274134  1
  Na  Na7  1  0.66907356  0.96400512  0.58463292  1
  Na  Na8  1  0.29757150  0.96422570  0.08122953  1
  Na  Na9  1  0.66471389  0.69638759  0.08633285  1
  Na  Na10  1  0.03569858  0.33736638  0.08486506  1
  Na  Na11  1  0.98651821  0.67127535  0.91689427  1
  Na  Na12  1  0.33046470  0.29867560  0.92023349  1
  Na  Na13  1  0.96593948  0.30645129  0.41345952  1
  Na  Na14  1  0.70373404  0.67480784  0.41985538  1
  Na  Na15  1  0.00342243  0.99032667  0.51102278  1
  Na  Na16  1  0.99928989  0.00612727  0.00996709  1
  Na  Na17  1  0.66697440  0.31003982  0.83234834  1
  Na  Na18  1  0.66123979  0.32833468  0.33213700  1
  Na  Na19  1  0.33445181  0.64365978  0.16911387  1
  Na  Na20  1  0.33378394  0.66700712  0.66624771  1
  La  La0  1  0.00618038  -0.00003230  0.35128415  1
  La  La1  1  0.99431261  0.00475704  0.85113121  1
  La  La2  1  0.66670693  0.33373102  0.67581437  1
  La  La3  1  0.66429149  0.33737690  0.17810136  1
  La  La4  1  0.66885938  0.31910945  0.98474058  1
  La  La5  1  0.66124906  0.32098478  0.48484089  1
  Zn  Zn0  1  -0.00011539  0.99977088  0.65590532  1
  Zn  Zn1  1  0.98574716  0.00710852  0.15381649  1
  Zn  Zn2  1  0.32734856  0.67351182  0.01510467  1
  Zn  Zn3  1  0.33352876  0.68350741  0.51408020  1
  Zn  Zn4  1  0.33508424  0.66500700  0.31819936  1
  Zn  Zn5  1  0.32583068  0.67329753  0.81688089  1
  P  P0  1  0.69288284  0.70369764  0.24944530  1
  P  P1  1  0.00959373  0.30988192  0.24975794  1
  P  P2  1  0.29948312  0.30827275  0.74910047  1
  P  P3  1  0.00648570  0.70162906  0.74906471  1
  P  P4  1  0.69106794  0.99070579  0.74588641  1
  P  P5  1  0.98984371  0.33298687  0.58233791  1
  P  P6  1  0.34357170  0.01326989  0.58665630  1
  P  P7  1  0.66542653  0.65275458  0.58163593  1
  P  P8  1  0.98430102  0.65424281  0.08260955  1
  P  P9  1  0.66498266  0.01091561  0.08659464  1
  P  P10  1  0.34636704  0.33282056  0.07940835  1
  P  P11  1  0.05596799  0.39116279  0.91626423  1
  P  P12  1  0.33392638  0.95498435  0.91581009  1
  P  P13  1  0.61721313  0.95087437  0.41467763  1
  P  P14  1  0.04497260  0.66174925  0.41640086  1
  S  S0  1  0.30069533  0.98784031  0.24597481  1
  S  S1  1  0.61571817  0.66135321  0.91731369  1
  S  S2  1  0.33672456  0.39135242  0.41807982  1
  O  O0  1  0.22354235  0.00784515  0.29936902  1
  O  O1  1  0.79663390  0.78128944  0.30543472  1
  O  O2  1  0.98758996  0.20925633  0.30591179  1
  O  O3  1  0.22571403  0.20703864  0.80532311  1
  O  O4  1  0.98008840  0.77510967  0.80591686  1
  O  O5  1  0.80027223  0.02096717  0.79943050  1
  O  O6  1  0.77751334  0.97490504  0.69067005  1
  O  O7  1  0.19189896  0.21633166  0.69590900  1
  O  O8  1  0.01969088  0.80745539  0.69615794  1
  O  O9  1  0.78660539  0.81152257  0.19599715  1
  O  O10  1  0.02017403  0.21844303  0.19508504  1
  O  O11  1  0.20800538  0.98468464  0.19392570  1
  O  O12  1  0.91079652  0.36617478  0.63674826  1
  O  O13  1  0.44877997  0.08410000  0.64227920  1
  O  O14  1  0.63313321  0.54245793  0.63598950  1
  O  O15  1  0.90379069  0.54059268  0.13611509  1
  O  O16  1  0.63032222  0.08353251  0.14207395  1
  O  O17  1  0.46915838  0.36653112  0.12964648  1
  O  O18  1  0.42252071  0.29972695  0.02381967  1
  O  O19  1  0.86938136  0.57021222  0.02925322  1
  O  O20  1  0.70265742  0.13588781  0.03677529  1
  O  O21  1  0.43468845  0.13803098  0.53686588  1
  O  O22  1  0.69357730  0.56475009  0.52843844  1
  O  O23  1  0.87166955  0.30089409  0.52989882  1
  O  O24  1  0.53166370  0.66736343  0.97046112  1
  O  O25  1  0.14948490  0.47828053  0.97168716  1
  O  O26  1  0.33245084  0.86584797  0.97169475  1
  O  O27  1  0.53371086  0.85840708  0.47093350  1
  O  O28  1  0.33115284  0.47214788  0.47242027  1
  O  O29  1  0.13273061  0.66332135  0.47252209  1
  O  O30  1  0.13142335  0.65339163  0.35985802  1
  O  O31  1  0.52641781  0.86520539  0.35841559  1
  O  O32  1  0.34385298  0.48192756  0.36546177  1
  O  O33  1  0.14005663  0.48118828  0.85918301  1
  O  O34  1  0.34201016  0.87140192  0.85892821  1
  O  O35  1  0.53076970  0.65923019  0.86318938  1
  O  O36  1  0.01265703  0.81024275  0.41778492  1
  O  O37  1  0.79558774  0.96969440  0.41607864  1
  O  O38  1  0.18509615  0.22382111  0.41797568  1
  O  O39  1  0.03776592  0.21660643  0.91783171  1
  O  O40  1  0.17020318  0.96531273  0.91805072  1
  O  O41  1  0.79035114  0.80180910  0.91901381  1
  O  O42  1  0.00234333  0.17527885  0.58860104  1
  O  O43  1  0.17052608  0.99696262  0.59155386  1
  O  O44  1  0.82532921  0.82193853  0.58772466  1
  O  O45  1  0.99867000  0.82533958  0.09046457  1
  O  O46  1  0.82303140  0.99622289  0.09092742  1
  O  O47  1  0.17572761  0.17533573  0.08907621  1
  O  O48  1  0.66515044  0.14326769  0.74476320  1
  O  O49  1  0.47801846  0.33307119  0.74564878  1
  O  O50  1  0.85379225  0.52299305  0.74583145  1
  O  O51  1  0.67985496  0.53155850  0.24613614  1
  O  O52  1  0.84705661  0.32260029  0.24802761  1
  O  O53  1  0.47487133  0.12922316  0.24647767  1
  O  O54  1  0.62775100  0.50553636  0.91643390  1
  O  O55  1  0.88077752  0.37723977  0.91569894  1
  O  O56  1  0.47986129  0.13811519  0.91429857  1
  O  O57  1  0.65033534  0.13219903  0.41402741  1
  O  O58  1  0.48815449  0.37351790  0.41669023  1
  O  O59  1  0.86643581  0.50180056  0.41496859  1
  O  O60  1  0.32921303  0.48810306  0.07528976  1
  O  O61  1  0.15687899  0.67081271  0.07628551  1
  O  O62  1  0.51180948  0.84027002  0.07566363  1
  O  O63  1  0.32915216  0.84339829  0.57667622  1
  O  O64  1  0.51058649  0.67087139  0.57537988  1
  O  O65  1  0.16176211  0.48783984  0.57478477  1
  O  O66  1  0.30612604  0.83206548  0.24842456  1
  O  O67  1  0.52322193  0.69496261  0.25317783  1
  O  O68  1  0.15952907  0.48682923  0.25285240  1
  O  O69  1  0.31425497  0.48121949  0.75262441  1
  O  O70  1  0.16662044  0.68853460  0.75128187  1
  O  O71  1  0.51958665  0.83057502  0.75186702  1
loop_
_geom_bond_atom_site_label_1
_geom_bond_atom_site_label_2
_geom_bond_distance
_geom_bond_site_symmetry_2
Na0 O67 2.419966 1_555
Na0 O53 2.466128 1_565
Na0 O31 2.691068 1_555
Na0 O66 2.693664 1_555
Na0 O16 2.703360 1_565
Na0 O52 2.738590 1_565
Na0 O9 2.944778 1_555
Na1 O68 2.394181 1_555
Na1 O66 2.483050 1_555
Na1 O52 2.497744 1_455
Na1 O30 2.639772 1_555
Na1 O51 2.729316 1_455
Na1 O15 2.891690 1_455
Na2 O71 2.438944 1_555
Na2 O49 2.491736 1_555
Na2 O69 2.507995 1_555
Na2 O14 2.769512 1_555
Na2 O35 2.793702 1_555
Na2 O50 2.859469 1_555
Na3 O69 2.441233 1_555
Na3 O50 2.521018 1_455
Na3 O70 2.537931 1_555
Na3 O33 2.689695 1_555
Na3 O12 2.828634 1_455
Na3 O48 2.910273 1_455
Na4 O70 2.451003 1_555
Na4 O48 2.476331 1_565
Na4 O71 2.549798 1_555
Na4 O34 2.649937 1_555
Na4 O13 2.691063 1_565
Na4 O49 2.886461 1_565
Na5 O65 2.397079 1_555
Na5 O42 2.419615 1_555
Na5 O7 2.725823 1_555
Na5 O43 2.772025 1_545
Na5 O64 2.780590 1_555
Na5 O28 2.898821 1_555
Na5 O21 2.926439 1_555
Na5 O14 2.950325 1_555
Na6 O63 2.406398 1_555
Na6 O43 2.435380 1_555
Na6 O44 2.710884 1_455
Na6 O29 2.774619 1_555
Na6 O65 2.796995 1_555
Na6 O8 2.820149 1_555
Na6 O12 3.017636 1_455
Na6 O22 3.041362 1_455
Na7 O64 2.396731 1_555
Na7 O44 2.425442 1_555
Na7 O6 2.633013 1_555
Na7 O42 2.735491 1_665
Na7 O63 2.798903 1_555
Na7 O27 2.862934 1_555
Na8 O61 2.391159 1_555
Na8 O45 2.432067 1_455
Na8 O47 2.743211 1_565
Na8 O26 2.752768 1_554
Na8 O11 2.756192 1_555
Na8 O62 2.779128 1_555
Na9 O62 2.425541 1_555
Na9 O46 2.443314 1_555
Na9 O45 2.730690 1_555
Na9 O60 2.758338 1_555
Na9 O9 2.759557 1_555
Na9 O17 2.881564 1_555
Na9 O24 2.905810 1_554
Na9 O19 3.002102 1_555
Na10 O60 2.387954 1_555
Na10 O47 2.459043 1_555
Na10 O10 2.755303 1_555
Na10 O61 2.756802 1_555
Na10 O46 2.807398 1_445
Na10 O25 2.878393 1_554
Na10 O20 2.939118 1_455
Na10 O15 2.977780 1_455
Na11 O40 2.416826 1_655
Na11 O55 2.425325 1_555
Na11 O41 2.669906 1_555
Na11 O4 2.754921 1_555
Na11 O19 2.784834 1_556
Na11 O54 2.909514 1_555
Na12 O39 2.446923 1_555
Na12 O54 2.472785 1_555
Na12 O56 2.521011 1_555
Na12 O18 2.540678 1_556
Na12 O40 2.714420 1_545
Na12 O3 2.804251 1_555
Na13 O59 2.439061 1_555
Na13 O38 2.533300 1_655
Na13 O57 2.562219 1_555
Na13 O2 2.674350 1_555
Na13 O37 2.741969 1_545
Na13 O23 2.809450 1_555
Na14 O37 2.459476 1_555
Na14 O36 2.509256 1_655
Na14 O58 2.525612 1_555
Na14 O22 2.696725 1_555
Na14 O59 2.728881 1_555
Na14 O1 2.799849 1_555
Na15 O44 2.401026 1_455
Na15 O43 2.415038 1_555
Na15 O42 2.486441 1_565
Na15 O36 2.751242 1_555
Na15 O37 2.877535 1_455
Na15 O38 2.930437 1_565
Na16 O47 2.438499 1_655
Na16 O46 2.451292 1_545
Na16 O45 2.522941 1_545
Na16 O40 2.781467 1_644
Na16 O39 2.808859 1_654
Na16 O41 2.852863 1_544
Na17 O56 2.531433 1_555
Na17 O48 2.539638 1_555
Na17 O55 2.619135 1_555
Na17 O50 2.746658 1_555
Na17 O49 2.757261 1_555
Na17 O54 2.805190 1_555
Na18 O52 2.611588 1_555
Na18 O57 2.613602 1_555
Na18 O59 2.618619 1_555
Na18 O53 2.676344 1_555
Na18 O58 2.687665 1_555
Na18 O51 2.706461 1_555
Na19 O68 2.481144 1_555
Na19 O67 2.506923 1_555
Na19 O60 2.586296 1_555
Na19 O66 2.636986 1_555
Na19 O62 2.782753 1_555
Na19 O61 2.807581 1_555
Na20 O70 2.566643 1_555
Na20 O71 2.569662 1_555
Na20 O69 2.602195 1_555
Na20 O64 2.647155 1_555
Na20 O63 2.671030 1_555
Na20 O65 2.673213 1_555
La0 O1 2.269104 1_445
La0 O2 2.317410 1_455
La0 O0 2.320871 1_555
La0 O37 2.364954 1_445
La0 O36 2.383904 1_545
La0 O38 2.460053 1_555
La1 O5 2.247136 1_555
La1 O3 2.301313 1_655
La1 O4 2.332499 1_545
La1 O39 2.375062 1_655
La1 O40 2.424671 1_645
La1 O41 2.467121 1_545
La2 O12 2.322978 1_555
La2 O14 2.332202 1_555
La2 O13 2.338443 1_555
La2 O49 2.377202 1_555
La2 O50 2.389612 1_555
La2 O48 2.397093 1_555
La3 O17 2.278218 1_555
La3 O15 2.306688 1_555
La3 O51 2.345144 1_555
La3 O16 2.386737 1_555
La3 O52 2.412423 1_555
La3 O53 2.447031 1_555
La4 O20 2.255200 1_556
La4 O55 2.375301 1_555
La4 O56 2.375390 1_555
La4 O19 2.387884 1_556
La4 O18 2.389182 1_556
La4 O54 2.533988 1_555
La5 O21 2.288056 1_555
La5 O23 2.322700 1_555
La5 O57 2.365194 1_555
La5 O22 2.371568 1_555
La5 O59 2.428515 1_555
La5 O58 2.486195 1_555
O0 S0 1.479059 1_545
O1 P0 1.559610 1_555
O2 P1 1.558947 1_655
O3 P2 1.551723 1_555
O4 P3 1.550435 1_655
O5 P4 1.538865 1_545
O6 P4 1.547693 1_555
O6 Zn0 2.125335 1_655
O7 P2 1.546624 1_555
O7 Zn0 2.134586 1_545
O8 P3 1.543904 1_555
O8 Zn0 2.127499 1_555
O9 P0 1.557628 1_555
O9 Zn1 2.090534 1_565
O10 P1 1.549186 1_555
O10 Zn1 2.070634 1_455
O11 S0 1.476220 1_555
O11 Zn1 2.386075 1_465
O12 P5 1.557397 1_555
O13 P6 1.550117 1_555
O14 P7 1.560411 1_555
O15 P8 1.558632 1_555
O16 P9 1.550819 1_555
O17 P10 1.552079 1_555
O18 P10 1.563770 1_555
O19 P8 1.563537 1_555
O20 P9 1.556252 1_555
O21 P6 1.556855 1_555
O22 P7 1.565796 1_555
O23 P5 1.566090 1_555
O24 S1 1.465957 1_555
O24 Zn2 2.189968 1_556
O25 P11 1.532506 1_555
O25 Zn2 2.019262 1_556
O26 P12 1.537570 1_555
O26 Zn2 2.052384 1_556
O27 P13 1.538853 1_555
O27 Zn3 2.028928 1_555
O28 S2 1.472810 1_555
O28 Zn3 2.189499 1_555
O29 P14 1.532468 1_555
O29 Zn3 2.037068 1_555
O30 P14 1.550024 1_555
O30 Zn4 2.080985 1_555
O31 P13 1.537683 1_555
O31 Zn4 2.056877 1_555
O32 S2 1.468437 1_555
O32 Zn4 2.079825 1_555
O33 P11 1.549085 1_555
O33 Zn5 2.023452 1_555
O34 P12 1.542937 1_555
O34 Zn5 2.029683 1_555
O35 S1 1.478009 1_555
O35 Zn5 2.262485 1_555
O36 P14 1.569142 1_555
O37 P13 1.588580 1_555
O38 S2 1.502560 1_555
O39 P11 1.563284 1_555
O40 P12 1.583260 1_555
O41 S1 1.502217 1_555
O42 P5 1.552181 1_455
O42 Zn0 2.264349 1_545
O43 P6 1.551590 1_565
O43 Zn0 2.180157 1_555
O44 P7 1.551305 1_555
O44 Zn0 2.278693 1_655
O45 P8 1.554604 1_555
O45 Zn1 2.286251 1_565
O46 P9 1.556598 1_565
O46 Zn1 2.073907 1_565
O47 P10 1.557488 1_555
O47 Zn1 2.251617 1_455
O48 P4 1.569929 1_545
O49 P2 1.568550 1_555
O50 P3 1.570333 1_655
O51 P0 1.561962 1_555
O52 P1 1.584918 1_655
O53 S0 1.501910 1_545
O54 S1 1.524079 1_555
O55 P11 1.578075 1_655
O56 P12 1.574089 1_545
O57 P13 1.572651 1_545
O58 S2 1.507935 1_555
O59 P14 1.593656 1_655
O60 P10 1.549892 1_555
O60 Zn2 2.242411 1_555
O61 P8 1.548715 1_455
O61 Zn2 2.111184 1_555
O62 P9 1.545806 1_565
O62 Zn2 2.162320 1_555
O63 P6 1.549125 1_565
O63 Zn3 2.089227 1_555
O64 P7 1.549002 1_555
O64 Zn3 2.233049 1_555
O65 P5 1.547314 1_455
O65 Zn3 2.229559 1_555
O66 S0 1.491866 1_555
O66 Zn4 2.365205 1_555
O67 P0 1.549906 1_555
O67 Zn4 2.211909 1_555
O68 P1 1.550801 1_555
O68 Zn4 2.238878 1_555
O69 P2 1.562625 1_555
O69 Zn5 2.285957 1_555
O70 P3 1.564876 1_555
O70 Zn5 2.184686 1_555
O71 P4 1.563040 1_555
O71 Zn5 2.242339 1_555
