# generated using pymatgen
data_Na14Ca4Hf4Si7S5O48
_symmetry_space_group_name_H-M   'P 1'
_cell_length_a   18.67424137
_cell_length_b   9.33240443
_cell_length_c   22.84722830
_cell_angle_alpha   89.95877777
_cell_angle_beta   89.93901486
_cell_angle_gamma   119.92934848
_symmetry_Int_Tables_number   1
_chemical_formula_structural   Na14Ca4Hf4Si7S5O48
_chemical_formula_sum   'Na42 Ca12 Hf12 Si21 S15 O144'
_cell_volume   3450.71206176
_cell_formula_units_Z   3
loop_
 _symmetry_equiv_pos_site_id
 _symmetry_equiv_pos_as_xyz
  1  'x, y, z'
loop_
 _atom_site_type_symbol
 _atom_site_label
 _atom_site_symmetry_multiplicity
 _atom_site_fract_x
 _atom_site_fract_y
 _atom_site_fract_z
 _atom_site_occupancy
  Na  Na0  1  0.80507691  0.98211136  0.25895732  1
  Na  Na1  1  0.18430265  0.35004245  0.25705519  1
  Na  Na2  1  0.69389452  0.36523308  0.25421969  1
  Na  Na3  1  0.99142723  0.64518233  0.24254925  1
  Na  Na4  1  0.49855151  0.64816805  0.24988194  1
  Na  Na5  1  0.30681445  0.62826067  0.74244348  1
  Na  Na6  1  0.99752186  0.34686854  0.74330626  1
  Na  Na7  1  0.49548738  0.34418355  0.73648383  1
  Na  Na8  1  0.19186618  0.01992373  0.74799687  1
  Na  Na9  1  0.68645740  0.01935435  0.75088710  1
  Na  Na10  1  0.14609342  0.32716560  0.58711851  1
  Na  Na11  1  0.66105199  0.33498165  0.57946015  1
  Na  Na12  1  0.34215546  0.00008992  0.57750927  1
  Na  Na13  1  0.83695982  0.98603224  0.57757420  1
  Na  Na14  1  0.15906501  0.98881111  0.08668897  1
  Na  Na15  1  0.64679042  0.96391589  0.09348571  1
  Na  Na16  1  0.33655031  0.68631171  0.08894036  1
  Na  Na17  1  0.84063278  0.68659295  0.08409773  1
  Na  Na18  1  0.48453832  0.67905312  0.92846543  1
  Na  Na19  1  0.96896434  0.66541013  0.92538661  1
  Na  Na20  1  0.35534269  0.04392792  0.91558065  1
  Na  Na21  1  0.84674609  0.02825392  0.90715479  1
  Na  Na22  1  0.16722452  0.28603612  0.91477222  1
  Na  Na23  1  0.67405809  0.28558272  0.90624419  1
  Na  Na24  1  0.47164926  0.27713387  0.42660968  1
  Na  Na25  1  0.97353189  0.27039052  0.42832398  1
  Na  Na26  1  0.17093964  0.06249402  0.40588893  1
  Na  Na27  1  0.67755476  0.04001074  0.41201465  1
  Na  Na28  1  0.34928627  0.66736671  0.40738923  1
  Na  Na29  1  0.85094858  0.68083005  0.41940944  1
  Na  Na30  1  0.99120834  0.99661313  0.49702213  1
  Na  Na31  1  0.50283496  0.00232279  0.50026802  1
  Na  Na32  1  0.99788510  0.99683333  0.00317050  1
  Na  Na33  1  0.49989081  0.99866184  0.00438748  1
  Na  Na34  1  0.32513409  0.31741291  0.81899107  1
  Na  Na35  1  0.81918112  0.33068839  0.83029662  1
  Na  Na36  1  0.32076171  0.30993506  0.33403200  1
  Na  Na37  1  0.82283457  0.30969403  0.32912008  1
  Na  Na38  1  0.16782901  0.67613079  0.17032137  1
  Na  Na39  1  0.66210354  0.66418904  0.17484858  1
  Na  Na40  1  0.16022125  0.65687983  0.67127079  1
  Na  Na41  1  0.66764623  0.65853769  0.66296529  1
  Ca  Ca0  1  0.00012335  0.99871184  0.35119711  1
  Ca  Ca1  1  0.49668810  0.99289724  0.34756882  1
  Ca  Ca2  1  0.99578518  0.99954704  0.84647624  1
  Ca  Ca3  1  0.50523558  0.01010338  0.84736255  1
  Ca  Ca4  1  0.33809300  0.33306340  0.67810792  1
  Ca  Ca5  1  0.83721181  0.33930151  0.18018610  1
  Ca  Ca6  1  0.33485375  0.33172346  0.99518419  1
  Ca  Ca7  1  0.83163496  0.33609969  0.98365467  1
  Ca  Ca8  1  0.33190209  0.32806608  0.48372800  1
  Ca  Ca9  1  0.83331619  0.33133499  0.49078483  1
  Ca  Ca10  1  0.67001476  0.67722804  0.31358739  1
  Ca  Ca11  1  0.16724445  0.66312385  0.81042819  1
  Hf  Hf0  1  0.99200627  0.00224154  0.65227146  1
  Hf  Hf1  1  0.50524800  0.02129354  0.65196838  1
  Hf  Hf2  1  0.00481868  0.99083216  0.15265739  1
  Hf  Hf3  1  0.49230734  0.98316374  0.15277669  1
  Hf  Hf4  1  0.83010332  0.33261045  0.67706871  1
  Hf  Hf5  1  0.32981720  0.32749967  0.17740241  1
  Hf  Hf6  1  0.16797731  0.66722669  0.02700449  1
  Hf  Hf7  1  0.66400423  0.67002352  0.01718865  1
  Hf  Hf8  1  0.16353280  0.65837502  0.51668556  1
  Hf  Hf9  1  0.67394832  0.68073151  0.52389744  1
  Hf  Hf10  1  0.17946515  0.68064642  0.31289942  1
  Hf  Hf11  1  0.67968012  0.67999705  0.81165204  1
  Si  Si0  1  0.15432749  0.00043430  0.25192305  1
  Si  Si1  1  0.64927576  0.00343261  0.25006625  1
  Si  Si2  1  0.34823424  0.68505071  0.25159470  1
  Si  Si3  1  0.84934371  0.69774165  0.25032517  1
  Si  Si4  1  0.15009037  0.29357960  0.75186826  1
  Si  Si5  1  0.65533544  0.31029188  0.75198383  1
  Si  Si6  1  0.35005620  0.99877590  0.75272585  1
  Si  Si7  1  0.84919110  0.01403551  0.75254198  1
  Si  Si8  1  0.48874055  0.33387336  0.58225065  1
  Si  Si9  1  0.98744535  0.34005924  0.58540104  1
  Si  Si10  1  0.67832811  0.02901654  0.58291620  1
  Si  Si11  1  0.83912295  0.64099910  0.57761404  1
  Si  Si12  1  0.48654088  0.63669758  0.08320290  1
  Si  Si13  1  0.98608761  0.64406375  0.08224885  1
  Si  Si14  1  0.33978186  0.03689564  0.07664464  1
  Si  Si15  1  0.17849790  0.32650027  0.08078176  1
  Si  Si16  1  0.81345672  0.66736542  0.91987850  1
  Si  Si17  1  0.66442688  0.95623892  0.91513807  1
  Si  Si18  1  0.31366893  0.96054242  0.42048698  1
  Si  Si19  1  0.81560169  0.97048493  0.41607235  1
  Si  Si20  1  0.16666403  0.37555053  0.41536462  1
  S  S0  1  0.00306125  0.29847749  0.25070792  1
  S  S1  1  0.49454307  0.29150937  0.24787691  1
  S  S2  1  0.99522217  0.69786823  0.74885518  1
  S  S3  1  0.50142657  0.70454002  0.75263513  1
  S  S4  1  0.17627247  0.02166395  0.58401662  1
  S  S5  1  0.33215300  0.64587712  0.58310534  1
  S  S6  1  0.83218466  0.01979955  0.08143897  1
  S  S7  1  0.67614454  0.33084895  0.08258521  1
  S  S8  1  0.31260444  0.66284028  0.91855009  1
  S  S9  1  0.02397112  0.37863035  0.91946469  1
  S  S10  1  0.52326024  0.38430961  0.91490573  1
  S  S11  1  0.16789193  0.95912520  0.91747408  1
  S  S12  1  0.66540997  0.37283665  0.41728525  1
  S  S13  1  0.02503556  0.66432089  0.41429843  1
  S  S14  1  0.52195951  0.66701565  0.41913650  1
  O  O0  1  0.12346471  0.04997446  0.31040216  1
  O  O1  1  0.61358056  0.03728743  0.31037520  1
  O  O2  1  0.39990407  0.75442895  0.31104507  1
  O  O3  1  0.90187641  0.77999855  0.30930545  1
  O  O4  1  0.48328759  0.20604377  0.30421271  1
  O  O5  1  0.99534343  0.21234708  0.30608485  1
  O  O6  1  0.11671072  0.19602445  0.81416903  1
  O  O7  1  0.62482752  0.20266238  0.81161764  1
  O  O8  1  0.49198758  0.77201553  0.80865790  1
  O  O9  1  0.98610058  0.76195662  0.80576296  1
  O  O10  1  0.39601775  0.01412604  0.81491906  1
  O  O11  1  0.89902082  0.04475481  0.81284759  1
  O  O12  1  0.40630366  0.98213700  0.69849711  1
  O  O13  1  0.90008799  0.99110163  0.69781958  1
  O  O14  1  0.08992385  0.17133776  0.69780284  1
  O  O15  1  0.58959392  0.20575686  0.69834975  1
  O  O16  1  0.00126176  0.80913342  0.70031720  1
  O  O17  1  0.51235476  0.81851508  0.70352136  1
  O  O18  1  0.39756295  0.80709557  0.19548372  1
  O  O19  1  0.90455717  0.82300547  0.19356620  1
  O  O20  1  0.01381849  0.20670265  0.20083778  1
  O  O21  1  0.49954083  0.19107680  0.19892671  1
  O  O22  1  0.09053075  0.97415338  0.19639829  1
  O  O23  1  0.59039275  0.00677674  0.19422953  1
  O  O24  1  0.45498567  0.36534542  0.64301673  1
  O  O25  1  0.93786836  0.35676727  0.64211885  1
  O  O26  1  0.22956016  0.09628913  0.63588131  1
  O  O27  1  0.74554144  0.12935789  0.63655470  1
  O  O28  1  0.31792895  0.54318852  0.63570971  1
  O  O29  1  0.82176339  0.50128233  0.62848340  1
  O  O30  1  0.43393450  0.51546442  0.13777828  1
  O  O31  1  0.95355686  0.54251431  0.14206161  1
  O  O32  1  0.31953503  0.14019924  0.12612671  1
  O  O33  1  0.81750424  0.09485505  0.13296903  1
  O  O34  1  0.24668374  0.36229500  0.13345102  1
  O  O35  1  0.72967381  0.36117109  0.13380960  1
  O  O36  1  0.20828779  0.28198137  0.02051992  1
  O  O37  1  0.71202766  0.29864221  0.02974416  1
  O  O38  1  0.43574623  0.58023797  0.02243179  1
  O  O39  1  0.92770356  0.57043159  0.02492499  1
  O  O40  1  0.35299681  0.11842650  0.01276963  1
  O  O41  1  0.84038108  0.11248610  0.02735645  1
  O  O42  1  0.21311901  0.12804009  0.53192481  1
  O  O43  1  0.70652374  0.13983563  0.52439650  1
  O  O44  1  0.34035558  0.56704104  0.53004833  1
  O  O45  1  0.85280034  0.58436808  0.51446061  1
  O  O46  1  0.42541028  0.28298488  0.52707845  1
  O  O47  1  0.93502703  0.29383803  0.52596944  1
  O  O48  1  0.26515774  0.67102853  0.97042905  1
  O  O49  1  0.75874235  0.66722992  0.97777565  1
  O  O50  1  0.07938240  0.48278707  0.96833851  1
  O  O51  1  0.57271734  0.47653030  0.96763399  1
  O  O52  1  0.16811873  0.85915101  0.96885351  1
  O  O53  1  0.66083467  0.84278960  0.97299962  1
  O  O54  1  0.25963382  0.85205056  0.47882372  1
  O  O55  1  0.75891173  0.85026750  0.47257400  1
  O  O56  1  0.16375272  0.48140567  0.47370514  1
  O  O57  1  0.66342532  0.47020317  0.46879251  1
  O  O58  1  0.07482312  0.66888425  0.46704308  1
  O  O59  1  0.57544616  0.67112834  0.46833160  1
  O  O60  1  0.06893161  0.65570165  0.36105812  1
  O  O61  1  0.55405872  0.64505472  0.36296399  1
  O  O62  1  0.25682596  0.85078807  0.36397640  1
  O  O63  1  0.76425196  0.88855407  0.35653044  1
  O  O64  1  0.16715870  0.48577323  0.35795466  1
  O  O65  1  0.66620342  0.45663450  0.36225200  1
  O  O66  1  0.05770290  0.46541052  0.86376022  1
  O  O67  1  0.56713878  0.47752423  0.86163632  1
  O  O68  1  0.17103825  0.87831600  0.86292300  1
  O  O69  1  0.66480043  0.84664551  0.85816303  1
  O  O70  1  0.26652480  0.65106796  0.86486539  1
  O  O71  1  0.75654568  0.66339633  0.86348577  1
  O  O72  1  0.02229476  0.81980019  0.41634565  1
  O  O73  1  0.51912637  0.82398518  0.42095368  1
  O  O74  1  0.40348069  0.97095688  0.42213460  1
  O  O75  1  0.90424395  0.97401671  0.42233310  1
  O  O76  1  0.08526860  0.19419776  0.42151920  1
  O  O77  1  0.58863067  0.20655226  0.42088629  1
  O  O78  1  0.02068846  0.21594427  0.92193490  1
  O  O79  1  0.51592675  0.21880571  0.91712218  1
  O  O80  1  0.09045904  0.96862095  0.92108354  1
  O  O81  1  0.58099004  0.97122975  0.92145904  1
  O  O82  1  0.39547699  0.81515807  0.92007755  1
  O  O83  1  0.90356611  0.83631739  0.92174992  1
  O  O84  1  0.49731199  0.16119498  0.58963531  1
  O  O85  1  0.00234167  0.17818804  0.59675890  1
  O  O86  1  0.09305560  0.00248782  0.59265488  1
  O  O87  1  0.58661119  0.99728114  0.60098895  1
  O  O88  1  0.40513466  0.81456009  0.58968026  1
  O  O89  1  0.91430041  0.82868505  0.59439302  1
  O  O90  1  0.50049600  0.82710646  0.09471135  1
  O  O91  1  0.99828554  0.83553850  0.08867661  1
  O  O92  1  0.41481920  -0.00018969  0.09228298  1
  O  O93  1  0.90521083  0.99670837  0.08799518  1
  O  O94  1  0.08743398  0.17321435  0.09759675  1
  O  O95  1  0.59238120  0.18365547  0.09077771  1
  O  O96  1  0.34251067  0.16591778  0.74636247  1
  O  O97  1  0.83817580  0.17642174  0.74156127  1
  O  O98  1  0.24590024  0.33483572  0.74390323  1
  O  O99  1  0.74568120  0.33025052  0.73690345  1
  O  O100  1  0.42690285  0.54058149  0.74451661  1
  O  O101  1  0.92376788  0.52800940  0.74082123  1
  O  O102  1  0.33739961  0.50058331  0.23968183  1
  O  O103  1  0.84126434  0.51500039  0.24549355  1
  O  O104  1  0.42305851  0.31920306  0.23887186  1
  O  O105  1  0.92874918  0.31319444  0.24295320  1
  O  O106  1  0.24479476  0.16003087  0.23544269  1
  O  O107  1  0.74465471  0.15333843  0.24292850  1
  O  O108  1  0.32195738  0.51364949  0.92143340  1
  O  O109  1  0.81921076  0.49893307  0.91466389  1
  O  O110  1  0.44079605  0.37089833  0.91665464  1
  O  O111  1  0.93972575  0.35409395  0.92648429  1
  O  O112  1  0.24202570  0.12824545  0.91862498  1
  O  O113  1  0.75054697  0.13278642  0.91491400  1
  O  O114  1  0.31882973  0.13967840  0.41513816  1
  O  O115  1  0.82665108  0.15703930  0.41828816  1
  O  O116  1  0.25377059  0.37440615  0.41457990  1
  O  O117  1  0.74059258  0.35699889  0.41847521  1
  O  O118  1  0.43674243  0.52419036  0.42582520  1
  O  O119  1  0.94275679  0.51752155  0.41647029  1
  O  O120  1  0.17789634  0.50405007  0.07640889  1
  O  O121  1  0.66889494  0.48254034  0.07491256  1
  O  O122  1  0.08270999  0.68297313  0.07112507  1
  O  O123  1  0.58203627  0.66406250  0.07985361  1
  O  O124  1  0.25379076  0.84773782  0.07570566  1
  O  O125  1  0.75602137  0.84656360  0.07706377  1
  O  O126  1  0.16932944  0.85606713  0.57593943  1
  O  O127  1  0.67712906  0.85079370  0.57919130  1
  O  O128  1  0.25600978  0.66600081  0.57855562  1
  O  O129  1  0.75272616  0.65562848  0.57802556  1
  O  O130  1  0.08362452  0.50266374  0.58127613  1
  O  O131  1  0.58388765  0.48426796  0.57034988  1
  O  O132  1  0.15140275  0.81953543  0.25541561  1
  O  O133  1  0.64187388  0.82103349  0.24394313  1
  O  O134  1  0.25392883  0.66213002  0.25253883  1
  O  O135  1  0.75754805  0.67938051  0.24386537  1
  O  O136  1  0.07865470  0.46853501  0.25130857  1
  O  O137  1  0.57188865  0.45411933  0.24740130  1
  O  O138  1  0.14566812  0.46538461  0.74582180  1
  O  O139  1  0.65161337  0.48437660  0.75569129  1
  O  O140  1  0.07292249  0.68899345  0.74801623  1
  O  O141  1  0.57665906  0.68486282  0.75363200  1
  O  O142  1  0.25800709  0.83330322  0.74542885  1
  O  O143  1  0.75466660  0.84800890  0.75315460  1
loop_
_geom_bond_atom_site_label_1
_geom_bond_atom_site_label_2
_geom_bond_distance
_geom_bond_site_symmetry_2
Na0 O63 2.375411 1_555
Na0 O107 2.399992 1_565
Na0 O135 2.527511 1_555
Na0 O133 2.664052 1_555
Na0 O105 2.808962 1_565
Na1 O102 2.508745 1_555
Na1 O134 2.530708 1_555
Na1 O106 2.581345 1_555
Na1 O136 2.703654 1_555
Na1 O64 2.725544 1_555
Na1 O0 2.726851 1_555
Na2 O103 2.393131 1_555
Na2 O135 2.566130 1_555
Na2 O107 2.597348 1_555
Na2 O65 2.743660 1_555
Na2 O137 2.791025 1_555
Na2 O35 2.835062 1_555
Na2 O1 2.944854 1_555
Na3 O103 2.438008 1_555
Na3 O31 2.453493 1_555
Na3 O132 2.609727 1_655
Na3 O105 2.711179 1_555
Na3 O136 2.844449 1_655
Na3 O22 2.878168 1_655
Na4 O133 2.339802 1_555
Na4 O102 2.621767 1_555
Na4 O104 2.675614 1_555
Na4 O137 2.762804 1_555
Na4 O61 2.790338 1_555
Na4 O30 2.840737 1_555
Na4 O2 2.854674 1_555
Na5 O98 2.384362 1_555
Na5 O142 2.497482 1_555
Na5 O28 2.605027 1_555
Na5 O138 2.609052 1_555
Na5 O100 2.744468 1_555
Na5 O70 2.931002 1_555
Na6 O138 2.413989 1_655
Na6 O97 2.581389 1_555
Na6 O25 2.588825 1_555
Na6 O101 2.661062 1_555
Na6 O140 2.775463 1_655
Na6 O11 2.944384 1_555
Na6 O66 2.971688 1_655
Na7 O24 2.307193 1_555
Na7 O96 2.497037 1_555
Na7 O139 2.569409 1_555
Na7 O100 2.715855 1_555
Na7 O141 2.784518 1_555
Na7 O15 2.789282 1_555
Na8 O96 2.438582 1_555
Na8 O98 2.589255 1_555
Na8 O142 2.590125 1_545
Na8 O26 2.656647 1_555
Na8 O140 2.761616 1_545
Na8 O68 2.876143 1_545
Na9 O97 2.464820 1_555
Na9 O143 2.492916 1_545
Na9 O99 2.557210 1_555
Na9 O141 2.750472 1_545
Na9 O27 2.820370 1_555
Na9 O69 2.847870 1_545
Na9 O7 2.853232 1_555
Na10 O85 2.337055 1_555
Na10 O130 2.442883 1_555
Na10 O86 2.680029 1_555
Na10 O128 2.787852 1_555
Na10 O14 2.842004 1_555
Na10 O56 2.900702 1_555
Na10 O42 2.988507 1_555
Na10 O28 3.024776 1_555
Na11 O131 2.462577 1_555
Na11 O129 2.602724 1_555
Na11 O84 2.661479 1_555
Na11 O43 2.676682 1_555
Na11 O87 2.780525 1_545
Na11 O57 2.815471 1_555
Na11 O29 2.834076 1_555
Na11 O15 2.999178 1_555
Na12 O84 2.527390 1_555
Na12 O88 2.547621 1_545
Na12 O46 2.571144 1_555
Na12 O54 2.693421 1_545
Na12 O128 2.702654 1_545
Na12 O126 2.809915 1_545
Na12 O26 2.980779 1_555
Na12 O12 3.051351 1_545
Na13 O89 2.550790 1_555
Na13 O127 2.596832 1_555
Na13 O129 2.672483 1_555
Na13 O85 2.724625 1_665
Na13 O55 2.766537 1_555
Na13 O47 2.781487 1_565
Na13 O27 2.965750 1_565
Na13 O13 2.981764 1_555
Na14 O122 2.499508 1_555
Na14 O91 2.603234 1_455
Na14 O94 2.666460 1_565
Na14 O124 2.692368 1_555
Na14 O32 2.751504 1_565
Na14 O22 2.785222 1_555
Na14 O36 2.845621 1_565
Na14 O52 2.991431 1_554
Na15 O90 2.369302 1_555
Na15 O123 2.452642 1_555
Na15 O23 2.642655 1_565
Na15 O95 2.705673 1_565
Na15 O125 2.780132 1_555
Na15 O33 2.930946 1_565
Na16 O92 2.536790 1_565
Na16 O120 2.593615 1_555
Na16 O124 2.659520 1_555
Na16 O90 2.665328 1_555
Na16 O18 2.687465 1_555
Na16 O34 2.814672 1_555
Na16 O38 2.923415 1_555
Na16 O48 2.991264 1_554
Na17 O93 2.521127 1_555
Na17 O91 2.554962 1_555
Na17 O125 2.665561 1_555
Na17 O39 2.720857 1_555
Na17 O19 2.792030 1_555
Na17 O121 2.804202 1_555
Na17 O49 2.829287 1_554
Na17 O35 2.918443 1_555
Na18 O38 2.333283 1_556
Na18 O81 2.408893 1_555
Na18 O82 2.554311 1_555
Na18 O110 2.582230 1_555
Na18 O108 2.636511 1_555
Na18 O8 2.853070 1_555
Na19 O39 2.421383 1_556
Na19 O109 2.441495 1_555
Na19 O83 2.446647 1_555
Na19 O80 2.599448 1_655
Na19 O111 2.675184 1_555
Na19 O9 2.844428 1_555
Na20 O40 2.334162 1_556
Na20 O10 2.480236 1_555
Na20 O82 2.593632 1_545
Na20 O112 2.600632 1_555
Na20 O79 2.602716 1_555
Na20 O110 2.645653 1_555
Na21 O11 2.337574 1_555
Na21 O113 2.441035 1_555
Na21 O83 2.518337 1_545
Na21 O111 2.681727 1_555
Na21 O78 2.838826 1_655
Na21 O41 2.875715 1_556
Na22 O6 2.468861 1_555
Na22 O78 2.481039 1_555
Na22 O112 2.485970 1_555
Na22 O36 2.541550 1_556
Na22 O80 2.571430 1_545
Na22 O108 2.600246 1_555
Na23 O7 2.326973 1_555
Na23 O109 2.442329 1_555
Na23 O113 2.479007 1_555
Na23 O81 2.580175 1_545
Na23 O79 2.707788 1_555
Na23 O37 2.897885 1_556
Na24 O46 2.461828 1_555
Na24 O74 2.483259 1_545
Na24 O114 2.491473 1_555
Na24 O77 2.580422 1_555
Na24 O118 2.690887 1_555
Na24 O4 2.907349 1_555
Na25 O47 2.386682 1_555
Na25 O75 2.402665 1_545
Na25 O115 2.408606 1_555
Na25 O76 2.522632 1_655
Na25 O119 2.654208 1_555
Na25 O5 2.911893 1_555
Na26 O0 2.336701 1_555
Na26 O76 2.481801 1_555
Na26 O114 2.491402 1_555
Na26 O116 2.532556 1_555
Na26 O72 2.572232 1_545
Na26 O42 2.968687 1_555
Na27 O115 2.435607 1_555
Na27 O117 2.585514 1_555
Na27 O1 2.606932 1_555
Na27 O73 2.627808 1_545
Na27 O43 2.693823 1_555
Na27 O77 2.790958 1_555
Na27 O63 2.916797 1_545
Na28 O2 2.371823 1_555
Na28 O116 2.411624 1_555
Na28 O74 2.511131 1_555
Na28 O118 2.609267 1_555
Na28 O73 2.769218 1_555
Na28 O44 2.932134 1_555
Na29 O45 2.357137 1_555
Na29 O75 2.400939 1_555
Na29 O117 2.676957 1_555
Na29 O3 2.683721 1_555
Na29 O72 2.789944 1_655
Na29 O119 2.806038 1_555
Na30 O75 2.293128 1_555
Na30 O76 2.493624 1_665
Na30 O89 2.685145 1_555
Na30 O72 2.723098 1_655
Na30 O85 2.786070 1_665
Na30 O86 2.880842 1_665
Na31 O74 2.486086 1_545
Na31 O77 2.535871 1_555
Na31 O84 2.556236 1_555
Na31 O73 2.579668 1_545
Na31 O88 2.714604 1_545
Na31 O87 2.797534 1_545
Na32 O91 2.467668 1_555
Na32 O83 2.486950 1_554
Na32 O93 2.596493 1_555
Na32 O78 2.632754 1_664
Na32 O80 2.650139 1_654
Na32 O94 2.725119 1_665
Na33 O81 2.516040 1_554
Na33 O92 2.562594 1_565
Na33 O90 2.614461 1_555
Na33 O95 2.626063 1_565
Na33 O82 2.669420 1_554
Na33 O79 2.768496 1_564
Na34 O96 2.306008 1_555
Na34 O98 2.324635 1_555
Na34 O100 2.623544 1_555
Na34 O112 2.821304 1_555
Na34 O110 2.971407 1_555
Na34 O108 2.991609 1_555
Na35 O109 2.486820 1_555
Na35 O113 2.533536 1_555
Na35 O99 2.537237 1_555
Na35 O97 2.611689 1_555
Na35 O101 2.789587 1_555
Na36 O114 2.428607 1_555
Na36 O116 2.462011 1_555
Na36 O106 2.659755 1_555
Na36 O102 2.711149 1_555
Na36 O104 2.865258 1_555
Na36 O118 2.963379 1_555
Na37 O107 2.454186 1_555
Na37 O115 2.506487 1_555
Na37 O103 2.602952 1_555
Na37 O117 2.718928 1_555
Na37 O105 2.777747 1_555
Na37 O119 2.905284 1_555
Na38 O132 2.465173 1_555
Na38 O134 2.519226 1_555
Na38 O136 2.592137 1_555
Na38 O124 2.690161 1_555
Na38 O120 2.742897 1_555
Na38 O122 2.788517 1_555
Na39 O133 2.308919 1_555
Na39 O135 2.331839 1_555
Na39 O137 2.474466 1_555
Na39 O123 2.636527 1_555
Na39 O125 2.823392 1_555
Na39 O121 2.884895 1_555
Na40 O138 2.383021 1_555
Na40 O142 2.434443 1_555
Na40 O130 2.510235 1_555
Na40 O140 2.510813 1_555
Na40 O128 2.744784 1_555
Na40 O126 2.811804 1_555
Na41 O129 2.515484 1_555
Na41 O127 2.567343 1_555
Na41 O139 2.593773 1_555
Na41 O131 2.653792 1_555
Na41 O143 2.675521 1_555
Na41 O141 2.765534 1_555
Ca0 O3 2.172105 1_455
Ca0 O5 2.284748 1_465
Ca0 O0 2.301748 1_565
Ca0 O75 2.341344 1_455
Ca0 O76 2.356459 1_565
Ca0 O72 2.421224 1_555
Ca1 O1 2.179878 1_565
Ca1 O2 2.215377 1_555
Ca1 O4 2.344152 1_565
Ca1 O74 2.368842 1_555
Ca1 O73 2.475560 1_555
Ca1 O77 2.514832 1_565
Ca2 O11 2.190159 1_565
Ca2 O6 2.206603 1_665
Ca2 O9 2.327554 1_555
Ca2 O83 2.369830 1_555
Ca2 O78 2.517236 1_665
Ca2 O80 2.574767 1_655
Ca3 O10 2.188662 1_555
Ca3 O7 2.207522 1_555
Ca3 O8 2.287998 1_545
Ca3 O81 2.348427 1_545
Ca3 O79 2.447598 1_555
Ca3 O82 2.557035 1_545
Ca4 O24 2.199594 1_555
Ca4 O96 2.235397 1_555
Ca4 O98 2.290624 1_555
Ca4 O26 2.336560 1_555
Ca4 O100 2.368065 1_555
Ca4 O28 2.379162 1_555
Ca5 O103 2.191028 1_555
Ca5 O31 2.226601 1_555
Ca5 O107 2.247702 1_555
Ca5 O105 2.336278 1_555
Ca5 O35 2.368626 1_555
Ca5 O33 2.381183 1_555
Ca6 O40 2.216014 1_556
Ca6 O38 2.227210 1_556
Ca6 O36 2.244698 1_556
Ca6 O108 2.486872 1_555
Ca6 O112 2.529233 1_555
Ca6 O110 2.556666 1_555
Ca7 O39 2.231964 1_556
Ca7 O109 2.279650 1_555
Ca7 O37 2.331362 1_556
Ca7 O111 2.337636 1_555
Ca7 O113 2.345638 1_555
Ca7 O41 2.390820 1_556
Ca8 O46 2.223360 1_555
Ca8 O114 2.276581 1_555
Ca8 O118 2.312669 1_555
Ca8 O116 2.333518 1_555
Ca8 O42 2.340408 1_555
Ca8 O44 2.402328 1_555
Ca9 O47 2.245522 1_555
Ca9 O45 2.268507 1_555
Ca9 O43 2.271904 1_555
Ca9 O115 2.281906 1_555
Ca9 O117 2.490844 1_555
Ca9 O119 2.554132 1_555
Ca10 O63 2.119493 1_555
Ca10 O135 2.274100 1_555
Ca10 O133 2.304684 1_555
Ca10 O65 2.308619 1_555
Ca10 O61 2.323199 1_555
Ca10 O137 2.486558 1_555
Ca11 O142 2.214865 1_555
Ca11 O138 2.238262 1_555
Ca11 O70 2.282468 1_555
Ca11 O66 2.301924 1_555
Ca11 O68 2.310469 1_555
Ca11 O140 2.371345 1_555
Hf0 O13 1.964209 1_545
Hf0 O85 2.005561 1_655
Hf0 O14 2.010728 1_655
Hf0 O89 2.034600 1_545
Hf0 O16 2.188838 1_645
Hf0 O86 2.325143 1_655
Hf1 O15 1.966683 1_555
Hf1 O84 1.986358 1_555
Hf1 O12 1.999788 1_545
Hf1 O87 2.012900 1_545
Hf1 O17 2.287768 1_545
Hf1 O88 2.377621 1_545
Hf2 O22 1.958744 1_555
Hf2 O19 1.974881 1_455
Hf2 O91 2.019667 1_455
Hf2 O94 2.057231 1_565
Hf2 O20 2.228067 1_565
Hf2 O93 2.398557 1_455
Hf3 O18 1.968598 1_555
Hf3 O23 1.975288 1_565
Hf3 O90 2.031991 1_555
Hf3 O92 2.063139 1_565
Hf3 O21 2.153274 1_565
Hf3 O95 2.345458 1_565
Hf4 O27 1.991260 1_555
Hf4 O29 1.994183 1_555
Hf4 O25 2.069280 1_555
Hf4 O99 2.077370 1_555
Hf4 O97 2.129588 1_555
Hf4 O101 2.309280 1_555
Hf5 O34 2.007437 1_555
Hf5 O32 2.033024 1_555
Hf5 O106 2.058720 1_555
Hf5 O30 2.065822 1_555
Hf5 O102 2.104611 1_555
Hf5 O104 2.269305 1_555
Hf6 O122 1.950241 1_555
Hf6 O120 1.976575 1_555
Hf6 O124 1.989133 1_555
Hf6 O50 2.159369 1_554
Hf6 O48 2.212721 1_554
Hf6 O52 2.228250 1_554
Hf7 O53 1.927534 1_554
Hf7 O49 1.996032 1_554
Hf7 O123 2.075133 1_555
Hf7 O51 2.093796 1_554
Hf7 O125 2.172956 1_555
Hf7 O121 2.228316 1_555
Hf8 O56 1.923803 1_555
Hf8 O54 1.998380 1_555
Hf8 O58 2.050916 1_555
Hf8 O130 2.084362 1_555
Hf8 O128 2.206407 1_555
Hf8 O126 2.247864 1_555
Hf9 O55 1.970804 1_555
Hf9 O127 2.006816 1_555
Hf9 O129 2.023808 1_555
Hf9 O131 2.057410 1_555
Hf9 O59 2.200897 1_555
Hf9 O57 2.258914 1_555
Hf10 O62 1.920244 1_555
Hf10 O64 1.999909 1_555
Hf10 O134 2.025185 1_555
Hf10 O132 2.087191 1_555
Hf10 O60 2.245167 1_555
Hf10 O136 2.394516 1_555
Hf11 O71 1.926685 1_555
Hf11 O143 2.001916 1_555
Hf11 O69 2.014484 1_555
Hf11 O139 2.071768 1_555
Hf11 O67 2.306632 1_555
Hf11 O141 2.356469 1_555
O0 Si0 1.611266 1_555
O1 Si1 1.628363 1_555
O2 Si2 1.604931 1_555
O3 Si3 1.618753 1_555
O4 S1 1.472302 1_555
O5 S0 1.466348 1_655
O6 Si4 1.635068 1_555
O7 Si5 1.617143 1_555
O8 S3 1.475585 1_555
O9 S2 1.476322 1_555
O10 Si6 1.629868 1_545
O11 Si7 1.607344 1_555
O12 Si6 1.680099 1_555
O13 Si7 1.647170 1_565
O14 Si4 1.677981 1_555
O15 Si5 1.664420 1_555
O16 S2 1.483893 1_455
O17 S3 1.487734 1_555
O18 Si2 1.654608 1_555
O19 Si3 1.703984 1_555
O20 S0 1.498244 1_555
O21 S1 1.492159 1_555
O22 Si0 1.673585 1_565
O23 Si1 1.695495 1_555
O24 Si8 1.610760 1_555
O25 Si9 1.643911 1_555
O26 S4 1.480389 1_555
O27 Si10 1.669197 1_555
O28 S5 1.475494 1_555
O29 Si11 1.652641 1_555
O30 Si12 1.638950 1_555
O31 Si13 1.598917 1_555
O32 Si14 1.647687 1_555
O33 S6 1.464233 1_555
O34 Si15 1.661436 1_555
O35 S7 1.472990 1_555
O36 Si15 1.614786 1_555
O37 S7 1.482107 1_555
O38 Si12 1.615643 1_555
O39 Si13 1.622630 1_555
O40 Si14 1.606193 1_555
O41 S6 1.471181 1_555
O42 S4 1.479997 1_555
O43 Si10 1.608589 1_555
O44 S5 1.465452 1_555
O45 Si11 1.600459 1_555
O46 Si8 1.629943 1_555
O47 Si9 1.603228 1_555
O48 S8 1.503749 1_555
O49 Si16 1.670202 1_555
O50 S9 1.504259 1_555
O51 S10 1.501890 1_555
O52 S11 1.500291 1_555
O53 Si17 1.673323 1_555
O54 Si18 1.671975 1_555
O55 Si19 1.689880 1_555
O56 Si20 1.676567 1_555
O57 S12 1.498982 1_555
O58 S13 1.510423 1_555
O59 S14 1.492190 1_555
O60 S13 1.490586 1_555
O61 S14 1.473000 1_555
O62 Si18 1.662155 1_555
O63 Si19 1.620924 1_555
O64 Si20 1.663487 1_555
O65 S12 1.476390 1_555
O66 S9 1.469754 1_555
O67 S10 1.481374 1_555
O68 S11 1.473419 1_555
O69 Si17 1.658193 1_555
O70 S8 1.471413 1_555
O71 Si16 1.659691 1_555
O72 S13 1.477970 1_555
O73 S14 1.492610 1_555
O74 Si18 1.631328 1_555
O75 Si19 1.645516 1_555
O76 Si20 1.620724 1_555
O77 S12 1.500011 1_555
O78 S9 1.489641 1_555
O79 S10 1.481808 1_555
O80 S11 1.494388 1_555
O81 Si17 1.638668 1_555
O82 S8 1.490596 1_555
O83 Si16 1.634681 1_555
O84 Si8 1.705314 1_555
O85 Si9 1.686919 1_455
O86 S4 1.485838 1_555
O87 Si10 1.638245 1_565
O88 S5 1.489314 1_555
O89 Si11 1.653539 1_555
O90 Si12 1.683273 1_555
O91 Si13 1.691395 1_555
O92 Si14 1.641892 1_555
O93 S6 1.490708 1_565
O94 Si15 1.629785 1_555
O95 S7 1.491193 1_555
O96 Si6 1.641072 1_545
O97 Si7 1.646962 1_555
O98 Si4 1.641438 1_555
O99 Si5 1.638576 1_555
O100 S3 1.479365 1_555
O101 S2 1.489053 1_555
O102 Si2 1.652842 1_555
O103 Si3 1.639189 1_555
O104 S1 1.495298 1_555
O105 S0 1.471972 1_655
O106 Si0 1.643540 1_555
O107 Si1 1.633639 1_555
O108 S8 1.488597 1_555
O109 Si16 1.632583 1_555
O110 S10 1.481978 1_555
O111 S9 1.480915 1_655
O112 S11 1.492676 1_545
O113 Si17 1.630014 1_545
O114 Si18 1.630321 1_545
O115 Si19 1.648606 1_545
O116 Si20 1.632083 1_555
O117 S12 1.483538 1_555
O118 S14 1.488291 1_555
O119 S13 1.462670 1_655
O120 Si15 1.665528 1_555
O121 S7 1.498014 1_555
O122 Si13 1.672490 1_455
O123 Si12 1.672268 1_555
O124 Si14 1.693170 1_565
O125 S6 1.533841 1_565
O126 S4 1.496561 1_565
O127 Si10 1.654443 1_565
O128 S5 1.527965 1_555
O129 Si11 1.685687 1_555
O130 Si9 1.678473 1_455
O131 Si8 1.646456 1_555
O132 Si0 1.663499 1_565
O133 Si1 1.643726 1_565
O134 Si2 1.664825 1_555
O135 Si3 1.642297 1_555
O136 S0 1.508696 1_555
O137 S1 1.483910 1_555
O138 Si4 1.651811 1_555
O139 Si5 1.662616 1_555
O140 S2 1.494147 1_455
O141 S3 1.505163 1_555
O142 Si6 1.649079 1_555
O143 Si7 1.669584 1_565
