# generated using pymatgen
data_La7CoI12
_symmetry_space_group_name_H-M   'P 1'
_cell_length_a   9.96713027
_cell_length_b   10.12956501
_cell_length_c   10.15433189
_cell_angle_alpha   107.42002326
_cell_angle_beta   107.07317811
_cell_angle_gamma   107.05688314
_symmetry_Int_Tables_number   1
_chemical_formula_structural   La7CoI12
_chemical_formula_sum   'La7 Co1 I12'
_cell_volume   849.48839125
_cell_formula_units_Z   1
loop_
 _symmetry_equiv_pos_site_id
 _symmetry_equiv_pos_as_xyz
  1  'x, y, z'
loop_
 _atom_site_type_symbol
 _atom_site_label
 _atom_site_symmetry_multiplicity
 _atom_site_fract_x
 _atom_site_fract_y
 _atom_site_fract_z
 _atom_site_occupancy
  La  La0  1  0.53268236  0.60803595  0.80899981  1
  La  La1  1  0.79070441  0.53335369  0.60081592  1
  La  La2  1  0.60767896  0.80833444  0.53413338  1
  La  La3  1  0.47493999  0.39848086  0.19194490  1
  La  La4  1  0.20922014  0.47227299  0.40429906  1
  La  La5  1  0.39733414  0.19191733  0.47317771  1
  La  La6  1  0.97941794  0.97843412  0.97843511  1
  Co  Co0  1  0.49571513  0.49673408  0.49674118  1
  I  I0  1  0.27087777  0.81642092  0.42179316  1
  I  I1  1  0.42333836  0.27494051  0.81898623  1
  I  I2  1  0.82312212  0.42430072  0.27654782  1
  I  I3  1  0.73239069  0.18427597  0.57620814  1
  I  I4  1  0.57448250  0.72999896  0.18307544  1
  I  I5  1  0.17838007  0.57434645  0.72750287  1
  I  I6  1  0.02513226  0.10636413  0.33099769  1
  I  I7  1  0.33929505  0.03022497  0.11160784  1
  I  I8  1  0.10787870  0.33378684  0.03113857  1
  I  I9  1  0.97837759  0.89068865  0.64710691  1
  I  I10  1  0.64259763  0.97621861  0.88816100  1
  I  I11  1  0.89180219  0.64623882  0.97369526  1
loop_
_geom_bond_atom_site_label_1
_geom_bond_atom_site_label_2
_geom_bond_distance
_geom_bond_site_symmetry_2
Co0 La4 2.639761 1_555
Co0 La1 2.683309 1_555
Co0 La5 2.862891 1_555
Co0 La3 2.875918 1_555
Co0 La2 2.884352 1_555
Co0 La0 2.896647 1_555
I0 La2 3.247421 1_555
I0 La4 3.297001 1_555
I0 La5 3.455645 1_565
I1 La5 3.267156 1_555
I1 La0 3.270352 1_555
I1 La3 3.437164 1_556
I2 La3 3.229913 1_555
I2 La1 3.289828 1_555
I2 La4 3.510342 1_655
I3 La5 3.225172 1_555
I3 La1 3.329206 1_555
I3 La2 3.488056 1_545
I4 La3 3.247851 1_555
I4 La2 3.302481 1_555
I4 La0 3.476692 1_554
I5 La0 3.268007 1_555
I5 La4 3.268270 1_555
I5 La1 3.546556 1_455
I6 La6 3.259079 1_444
I6 La5 3.289042 1_555
I6 La4 3.348930 1_555
I7 La6 3.254714 1_444
I7 La3 3.313616 1_555
I7 La5 3.330718 1_555
I8 La6 3.259322 1_444
I8 La3 3.305404 1_555
I8 La4 3.329391 1_555
I9 La6 3.208277 1_555
I9 La2 3.285342 1_555
I9 La1 3.363742 1_555
I10 La6 3.201189 1_555
I10 La0 3.323662 1_555
I10 La2 3.345778 1_555
I11 La6 3.200402 1_555
I11 La0 3.323195 1_555
I11 La1 3.339266 1_555
