# generated using pymatgen
data_Na4ScNb3Si4(PO12)2
_symmetry_space_group_name_H-M   'P 1'
_cell_length_a   8.98674708
_cell_length_b   8.99675887
_cell_length_c   22.84863484
_cell_angle_alpha   90.04651362
_cell_angle_beta   89.89981163
_cell_angle_gamma   120.07204077
_symmetry_Int_Tables_number   1
_chemical_formula_structural   Na4ScNb3Si4(PO12)2
_chemical_formula_sum   'Na12 Sc3 Nb9 Si12 P6 O72'
_cell_volume   1598.68572743
_cell_formula_units_Z   3
loop_
 _symmetry_equiv_pos_site_id
 _symmetry_equiv_pos_as_xyz
  1  'x, y, z'
loop_
 _atom_site_type_symbol
 _atom_site_label
 _atom_site_symmetry_multiplicity
 _atom_site_fract_x
 _atom_site_fract_y
 _atom_site_fract_z
 _atom_site_occupancy
  Na  Na0  1  0.63417543  0.62620513  0.74717338  1
  Na  Na1  1  0.99494514  0.36632251  0.74775864  1
  Na  Na2  1  0.30948268  0.97371071  0.08416004  1
  Na  Na3  1  0.02829076  0.33933869  0.08419388  1
  Na  Na4  1  0.96664899  0.29601409  0.41401814  1
  Na  Na5  1  0.70559818  0.67528295  0.41537599  1
  Na  Na6  1  0.00545727  0.99727629  0.49973661  1
  Na  Na7  1  0.99305025  0.99288975  0.99673118  1
  Na  Na8  1  0.65687407  0.32271927  0.83321274  1
  Na  Na9  1  0.65930755  0.32600137  0.32672282  1
  Na  Na10  1  0.34084920  0.66582212  0.16603445  1
  Na  Na11  1  0.33382931  0.67137744  0.66606085  1
  Sc  Sc0  1  0.00368259  0.99852744  0.35217083  1
  Sc  Sc1  1  0.66031852  0.32854218  0.68527586  1
  Sc  Sc2  1  0.66678578  0.33387027  0.18448967  1
  Nb  Nb0  1  0.00406991  0.00821876  0.85659336  1
  Nb  Nb1  1  0.99276921  0.00168118  0.64472128  1
  Nb  Nb2  1  0.99473538  0.99609604  0.14600474  1
  Nb  Nb3  1  0.66744956  0.33428563  0.97792248  1
  Nb  Nb4  1  0.66987596  0.33189038  0.48174720  1
  Nb  Nb5  1  0.33814306  0.66729597  0.01862621  1
  Nb  Nb6  1  0.33504993  0.66966491  0.52231780  1
  Nb  Nb7  1  0.33101321  0.67212680  0.31081848  1
  Nb  Nb8  1  0.33628660  0.67020961  0.81459175  1
  Si  Si0  1  0.29149766  0.28786801  0.75009207  1
  Si  Si1  1  0.70871818  0.00104328  0.75114055  1
  Si  Si2  1  0.95862617  0.33454508  0.58566851  1
  Si  Si3  1  0.66783598  0.62376678  0.58477253  1
  Si  Si4  1  0.95299143  0.62055556  0.08379320  1
  Si  Si5  1  0.66457773  0.04405260  0.08389955  1
  Si  Si6  1  0.38211959  0.33819371  0.08444272  1
  Si  Si7  1  0.62555055  0.66565801  0.91579369  1
  Si  Si8  1  0.04263560  0.37917455  0.91657043  1
  Si  Si9  1  0.33356237  0.95750058  0.91741879  1
  Si  Si10  1  0.61966877  0.95737019  0.41652286  1
  Si  Si11  1  0.04685133  0.67110899  0.41723725  1
  P  P0  1  0.29213314  0.00339038  0.25039182  1
  P  P1  1  0.70803871  0.70649839  0.25214427  1
  P  P2  1  0.99902124  0.29045906  0.25176116  1
  P  P3  1  0.00391346  0.71781634  0.75024792  1
  P  P4  1  0.37485075  0.04309344  0.58349916  1
  P  P5  1  0.33462037  0.38209764  0.41662015  1
  O  O0  1  0.20196760  0.01953547  0.30446354  1
  O  O1  1  0.81200276  0.79274526  0.30757590  1
  O  O2  1  0.98137245  0.18685075  0.30723880  1
  O  O3  1  0.18962005  0.16667786  0.80657382  1
  O  O4  1  0.97518210  0.80376871  0.80427554  1
  O  O5  1  0.83509639  0.02214814  0.80597778  1
  O  O6  1  0.80189670  0.96312636  0.69376349  1
  O  O7  1  0.16059168  0.19171989  0.69401517  1
  O  O8  1  0.03024037  0.82938371  0.69505646  1
  O  O9  1  0.80227438  0.82807413  0.19758585  1
  O  O10  1  0.02620052  0.20139021  0.19594269  1
  O  O11  1  0.17719470  0.97200601  0.19438804  1
  O  O12  1  0.88162717  0.36783804  0.64400439  1
  O  O13  1  0.48586357  0.11772305  0.63760748  1
  O  O14  1  0.63135483  0.51336318  0.64347024  1
  O  O15  1  0.88110880  0.49988019  0.14003654  1
  O  O16  1  0.62154907  0.11933746  0.14053107  1
  O  O17  1  0.49227399  0.36894605  0.14197951  1
  O  O18  1  0.46367015  0.29335861  0.02685686  1
  O  O19  1  0.83291675  0.53301666  0.02563889  1
  O  O20  1  0.70664446  0.16969223  0.02644431  1
  O  O21  1  0.46638177  0.15834759  0.52833162  1
  O  O22  1  0.69037981  0.52792519  0.52501434  1
  O  O23  1  0.83633586  0.30409804  0.52595348  1
  O  O24  1  0.52944559  0.69546405  0.97202229  1
  O  O25  1  0.16111851  0.46680009  0.97459792  1
  O  O26  1  0.30462318  0.83849764  0.97526304  1
  O  O27  1  0.52530947  0.82933979  0.47173286  1
  O  O28  1  0.30615563  0.46842428  0.47088702  1
  O  O29  1  0.16688026  0.68707186  0.47260471  1
  O  O30  1  0.13742395  0.62975411  0.36060817  1
  O  O31  1  0.49488579  0.85614666  0.35963241  1
  O  O32  1  0.36847988  0.49997617  0.36218499  1
  O  O33  1  0.13509511  0.49547611  0.85777079  1
  O  O34  1  0.36035547  0.85923532  0.86040395  1
  O  O35  1  0.50357277  0.63852128  0.85779317  1
  O  O36  1  0.01272998  0.82965497  0.41292912  1
  O  O37  1  0.81060064  0.98151372  0.41178294  1
  O  O38  1  0.17155411  0.20593294  0.41127097  1
  O  O39  1  0.02574535  0.18971958  0.91013490  1
  O  O40  1  0.16120284  0.97148838  0.90896646  1
  O  O41  1  0.81285472  0.83625063  0.90838278  1
  O  O42  1  0.97863095  0.16174441  0.58883976  1
  O  O43  1  0.19447249  0.02284999  0.58824405  1
  O  O44  1  0.84250726  0.81432896  0.58866850  1
  O  O45  1  0.98450768  0.81875205  0.09219281  1
  O  O46  1  0.84096245  0.02888754  0.09219571  1
  O  O47  1  0.18427826  0.16290987  0.09263822  1
  O  O48  1  0.70342864  0.17612665  0.74701867  1
  O  O49  1  0.48527235  0.32293719  0.74825809  1
  O  O50  1  0.84337613  0.53700632  0.74596707  1
  O  O51  1  0.68726690  0.52951071  0.24546890  1
  O  O52  1  0.84366749  0.31360696  0.24570219  1
  O  O53  1  0.47225135  0.15601997  0.24561263  1
  O  O54  1  0.63861903  0.49325570  0.92318025  1
  O  O55  1  0.85331604  0.35883833  0.92269800  1
  O  O56  1  0.50513857  0.14490001  0.92347985  1
  O  O57  1  0.63889376  0.14843015  0.42319582  1
  O  O58  1  0.50032128  0.36954392  0.42366983  1
  O  O59  1  0.85482729  0.49182592  0.42383996  1
  O  O60  1  0.34019195  0.49494922  0.07502984  1
  O  O61  1  0.14926588  0.65183462  0.07404150  1
  O  O62  1  0.49589385  0.85267784  0.07436650  1
  O  O63  1  0.35531079  0.86253097  0.57339621  1
  O  O64  1  0.50138249  0.64917099  0.57245151  1
  O  O65  1  0.14912303  0.50028851  0.57262903  1
  O  O66  1  0.30167647  0.83098416  0.25648139  1
  O  O67  1  0.52713107  0.69507917  0.25648433  1
  O  O68  1  0.17031541  0.47119100  0.25680290  1
  O  O69  1  0.29762938  0.47568093  0.75592989  1
  O  O70  1  0.16402762  0.69342436  0.75585504  1
  O  O71  1  0.52333345  0.82033110  0.75549228  1
loop_
_geom_bond_atom_site_label_1
_geom_bond_atom_site_label_2
_geom_bond_distance
_geom_bond_site_symmetry_2
Na0 O49 2.361478 1_555
Na0 O50 2.385600 1_555
Na0 O71 2.412661 1_555
Na0 O14 2.572202 1_555
Na0 O69 2.629618 1_555
Na0 O35 2.810276 1_555
Na0 O6 2.893105 1_555
Na0 O4 2.958042 1_555
Na1 O48 2.301976 1_555
Na1 O69 2.391952 1_655
Na1 O50 2.512291 1_555
Na1 O70 2.553860 1_655
Na1 O12 2.584493 1_555
Na1 O33 2.791857 1_655
Na1 O7 2.919841 1_655
Na1 O5 2.993881 1_555
Na2 O62 2.422521 1_555
Na2 O47 2.473682 1_565
Na2 O61 2.516732 1_555
Na2 O45 2.534676 1_455
Na2 O16 2.751013 1_565
Na2 O26 2.759499 1_554
Na2 O11 2.779934 1_555
Na2 O18 2.812603 1_565
Na3 O60 2.434386 1_555
Na3 O46 2.440521 1_455
Na3 O61 2.465157 1_555
Na3 O47 2.598689 1_555
Na3 O15 2.714653 1_455
Na3 O25 2.762769 1_554
Na3 O20 2.831003 1_455
Na3 O10 2.835780 1_555
Na4 O38 2.355153 1_655
Na4 O59 2.436483 1_555
Na4 O37 2.449209 1_545
Na4 O57 2.561549 1_555
Na4 O2 2.657012 1_555
Na4 O23 2.827099 1_555
Na4 O30 2.870772 1_655
Na4 O28 2.944665 1_655
Na5 O36 2.389168 1_655
Na5 O37 2.425350 1_555
Na5 O58 2.432995 1_555
Na5 O59 2.603814 1_555
Na5 O1 2.661055 1_555
Na5 O22 2.806108 1_555
Na5 O32 2.892085 1_555
Na5 O27 2.905950 1_555
Na6 O36 2.511166 1_555
Na6 O44 2.561627 1_455
Na6 O43 2.578268 1_565
Na6 O42 2.596785 1_465
Na6 O37 2.624521 1_455
Na6 O38 2.650513 1_565
Na7 O41 2.530415 1_555
Na7 O39 2.572794 1_665
Na7 O40 2.573372 1_655
Na7 O45 2.665011 1_556
Na7 O46 2.676337 1_566
Na7 O47 2.732832 1_666
Na8 O49 2.481848 1_555
Na8 O48 2.517718 1_555
Na8 O56 2.545953 1_555
Na8 O55 2.615191 1_555
Na8 O54 2.617728 1_555
Na8 O50 2.693696 1_555
Na9 O53 2.455412 1_555
Na9 O52 2.521602 1_555
Na9 O51 2.530811 1_555
Na9 O57 2.674938 1_555
Na9 O59 2.760107 1_555
Na9 O58 2.765862 1_555
Na10 O60 2.583158 1_555
Na10 O67 2.590843 1_555
Na10 O62 2.608149 1_555
Na10 O68 2.649802 1_555
Na10 O66 2.668219 1_555
Na10 O61 2.682024 1_555
Na11 O71 2.567513 1_555
Na11 O69 2.617551 1_555
Na11 O70 2.620879 1_555
Na11 O65 2.669904 1_555
Na11 O63 2.673837 1_555
Na11 O64 2.677949 1_555
Nb0 O3 1.932016 1_555
Nb0 O5 1.963719 1_455
Nb0 O39 1.969714 1_555
Nb0 O40 2.002362 1_545
Nb0 O41 2.019474 1_445
Nb0 O4 2.097298 1_445
Nb1 O6 1.927667 1_545
Nb1 O7 1.971028 1_655
Nb1 O42 1.976630 1_555
Nb1 O44 2.006574 1_545
Nb1 O8 2.089581 1_645
Nb1 O43 2.152543 1_655
Nb2 O45 1.978918 1_555
Nb2 O46 1.980763 1_565
Nb2 O9 2.010254 1_555
Nb2 O47 2.018514 1_665
Nb2 O10 2.065796 1_665
Nb2 O11 2.078614 1_655
Nb3 O19 1.983585 1_556
Nb3 O54 2.013085 1_555
Nb3 O55 2.013523 1_555
Nb3 O18 2.014232 1_556
Nb3 O20 2.018103 1_556
Nb3 O56 2.022457 1_555
Nb4 O23 1.923823 1_555
Nb4 O22 1.947807 1_555
Nb4 O21 2.012310 1_555
Nb4 O57 2.031932 1_555
Nb4 O59 2.045049 1_555
Nb4 O58 2.173146 1_555
Nb5 O24 1.926425 1_554
Nb5 O26 1.978211 1_554
Nb5 O25 1.980756 1_554
Nb5 O62 2.011658 1_555
Nb5 O60 2.024201 1_555
Nb5 O61 2.063929 1_555
Nb6 O29 1.960166 1_555
Nb6 O27 1.963980 1_555
Nb6 O64 1.965469 1_555
Nb6 O65 1.969721 1_555
Nb6 O63 2.021596 1_555
Nb6 O28 2.062222 1_555
Nb7 O31 1.926915 1_555
Nb7 O30 1.948160 1_555
Nb7 O66 2.008771 1_555
Nb7 O68 2.064715 1_555
Nb7 O67 2.078020 1_555
Nb7 O32 2.101562 1_555
Nb8 O34 1.914112 1_555
Nb8 O35 1.936722 1_555
Nb8 O33 1.965063 1_555
Nb8 O71 2.047662 1_555
Nb8 O69 2.090132 1_555
Nb8 O70 2.138441 1_555
O0 P0 1.522568 1_555
O0 Sc0 2.013762 1_545
O1 P1 1.534640 1_555
O1 Sc0 2.059145 1_655
O2 P2 1.534233 1_555
O2 Sc0 2.075768 1_645
O3 Si0 1.640193 1_555
O4 P3 1.544659 1_655
O5 Si1 1.638385 1_555
O6 Si1 1.678677 1_565
O7 Si0 1.660582 1_555
O8 P3 1.554587 1_555
O9 P1 1.593030 1_555
O10 P2 1.588011 1_455
O11 P0 1.579811 1_565
O12 Si2 1.596557 1_555
O12 Sc1 2.063749 1_555
O13 P4 1.518621 1_555
O13 Sc1 2.064990 1_555
O14 Si3 1.602208 1_555
O14 Sc1 2.045050 1_555
O15 Si4 1.594977 1_555
O15 Sc2 2.021074 1_555
O16 Si5 1.594338 1_555
O16 Sc2 2.027631 1_555
O17 Si6 1.585641 1_555
O17 Sc2 2.001089 1_555
O18 Si6 1.650170 1_555
O19 Si4 1.643734 1_555
O20 Si5 1.648152 1_555
O21 P4 1.576192 1_555
O22 Si3 1.679593 1_555
O23 Si2 1.687414 1_555
O24 Si7 1.641973 1_555
O25 Si8 1.635577 1_555
O26 Si9 1.637909 1_555
O27 Si10 1.630001 1_555
O28 P5 1.549994 1_555
O29 Si11 1.622894 1_555
O30 Si11 1.665579 1_555
O31 Si10 1.660194 1_555
O32 P5 1.562586 1_555
O33 Si8 1.648416 1_555
O34 Si9 1.657400 1_555
O35 Si7 1.659462 1_555
O36 Si11 1.605307 1_555
O36 Sc0 2.090392 1_555
O37 Si10 1.621402 1_555
O37 Sc0 2.148340 1_655
O38 P5 1.532010 1_555
O38 Sc0 2.182458 1_545
O39 Si8 1.640214 1_555
O40 Si9 1.627520 1_555
O41 Si7 1.621094 1_555
O42 Si2 1.653730 1_555
O43 P4 1.541478 1_555
O44 Si3 1.647560 1_555
O45 Si4 1.670357 1_555
O46 Si5 1.668832 1_555
O47 Si6 1.694835 1_555
O48 Si1 1.602382 1_555
O48 Sc1 2.134959 1_555
O49 Si0 1.607150 1_555
O49 Sc1 2.112052 1_555
O50 P3 1.544476 1_655
O50 Sc1 2.249104 1_555
O51 P1 1.515057 1_555
O51 Sc2 2.178403 1_555
O52 P2 1.517830 1_555
O52 Sc2 2.194263 1_555
O53 P0 1.513177 1_555
O53 Sc2 2.181440 1_555
O54 Si7 1.622074 1_555
O55 Si8 1.623260 1_655
O56 Si9 1.623049 1_545
O57 Si10 1.646155 1_545
O58 P5 1.557426 1_555
O59 Si11 1.677003 1_655
O60 Si6 1.646351 1_555
O61 Si4 1.655701 1_455
O62 Si5 1.641558 1_565
O63 P4 1.560993 1_565
O64 Si3 1.647224 1_555
O65 Si2 1.638191 1_455
O66 P0 1.601976 1_565
O67 P1 1.579742 1_555
O68 P2 1.587032 1_455
O69 Si0 1.668019 1_555
O70 P3 1.565939 1_555
O71 Si1 1.647398 1_565
