# generated using pymatgen
data_Ba(SbS2)2
_symmetry_space_group_name_H-M   'P 1'
_cell_length_a   8.29773019
_cell_length_b   9.06812654
_cell_length_c   20.81592932
_cell_angle_alpha   79.39555741
_cell_angle_beta   90.00000000
_cell_angle_gamma   90.00000000
_symmetry_Int_Tables_number   1
_chemical_formula_structural   Ba(SbS2)2
_chemical_formula_sum   'Ba8 Sb16 S32'
_cell_volume   1539.54127140
_cell_formula_units_Z   8
loop_
 _symmetry_equiv_pos_site_id
 _symmetry_equiv_pos_as_xyz
  1  'x, y, z'
loop_
 _atom_site_type_symbol
 _atom_site_label
 _atom_site_symmetry_multiplicity
 _atom_site_fract_x
 _atom_site_fract_y
 _atom_site_fract_z
 _atom_site_occupancy
  Ba  Ba0  1  0.94643039  0.51685907  0.20207556  1
  Ba  Ba1  1  0.44643039  0.48314093  0.29792444  1
  Ba  Ba2  1  0.05356961  0.48314093  0.79792444  1
  Ba  Ba3  1  0.55356961  0.51685907  0.70207556  1
  Ba  Ba4  1  0.54140782  0.02123940  0.69268235  1
  Ba  Ba5  1  0.04140782  0.97876060  0.80731765  1
  Ba  Ba6  1  0.45859218  0.97876060  0.30731765  1
  Ba  Ba7  1  0.95859218  0.02123940  0.19268235  1
  Sb  Sb0  1  0.99330283  0.84555106  0.61432423  1
  Sb  Sb1  1  0.49330283  0.15444894  0.88567577  1
  Sb  Sb2  1  0.00669717  0.15444894  0.38567577  1
  Sb  Sb3  1  0.50669717  0.84555106  0.11432423  1
  Sb  Sb4  1  0.70056276  0.42820427  0.46779591  1
  Sb  Sb5  1  0.20056276  0.57179573  0.03220409  1
  Sb  Sb6  1  0.29943724  0.57179573  0.53220409  1
  Sb  Sb7  1  0.79943724  0.42820427  0.96779591  1
  Sb  Sb8  1  0.65349966  0.85223487  0.49870910  1
  Sb  Sb9  1  0.15349966  0.14776513  0.00129090  1
  Sb  Sb10  1  0.34650034  0.14776513  0.50129090  1
  Sb  Sb11  1  0.84650034  0.85223487  0.99870910  1
  Sb  Sb12  1  0.97989429  0.29825148  0.62448297  1
  Sb  Sb13  1  0.47989429  0.70174852  0.87551703  1
  Sb  Sb14  1  0.02010571  0.70174852  0.37551703  1
  Sb  Sb15  1  0.52010571  0.29825148  0.12448297  1
  S  S0  1  0.84512199  0.65721395  0.53766671  1
  S  S1  1  0.34512199  0.34278605  0.96233329  1
  S  S2  1  0.15487801  0.34278605  0.46233329  1
  S  S3  1  0.65487801  0.65721395  0.03766671  1
  S  S4  1  0.16545177  0.49301193  0.65139885  1
  S  S5  1  0.66545177  0.50698807  0.84860115  1
  S  S6  1  0.83454823  0.50698807  0.34860115  1
  S  S7  1  0.33454823  0.49301193  0.15139885  1
  S  S8  1  0.32786548  0.74247132  0.77243856  1
  S  S9  1  0.82786548  0.25752868  0.72756144  1
  S  S10  1  0.67213452  0.25752868  0.22756144  1
  S  S11  1  0.17213452  0.74247132  0.27243856  1
  S  S12  1  0.65243847  0.92538208  0.84644755  1
  S  S13  1  0.15243847  0.07461792  0.65355245  1
  S  S14  1  0.34756153  0.07461792  0.15355245  1
  S  S15  1  0.84756153  0.92538208  0.34644755  1
  S  S16  1  0.34528363  0.23229588  0.78433735  1
  S  S17  1  0.84528363  0.76770412  0.71566265  1
  S  S18  1  0.65471637  0.76770412  0.21566265  1
  S  S19  1  0.15471637  0.23229588  0.28433735  1
  S  S20  1  0.50370105  0.63028790  0.42740181  1
  S  S21  1  0.00370105  0.36971210  0.07259819  1
  S  S22  1  0.49629895  0.36971210  0.57259819  1
  S  S23  1  0.99629895  0.63028790  0.92740181  1
  S  S24  1  0.71111411  0.03315248  0.06323581  1
  S  S25  1  0.21111411  0.96684752  0.43676419  1
  S  S26  1  0.28888589  0.96684752  0.93676419  1
  S  S27  1  0.78888589  0.03315248  0.56323581  1
  S  S28  1  0.94286690  0.22582356  0.91490810  1
  S  S29  1  0.44286690  0.77417644  0.58509190  1
  S  S30  1  0.05713310  0.77417644  0.08509190  1
  S  S31  1  0.55713310  0.22582356  0.41490810  1
loop_
_geom_bond_atom_site_label_1
_geom_bond_atom_site_label_2
_geom_bond_distance
_geom_bond_site_symmetry_2
Ba0 S6 3.173689 1_555
Ba0 S30 3.182293 1_655
Ba0 S10 3.245429 1_555
Ba0 S21 3.254845 1_655
Ba0 S11 3.307761 1_655
Ba0 S19 3.309324 1_655
Ba0 S18 3.368998 1_555
Ba0 S7 3.408094 1_655
Ba1 S7 3.173689 1_555
Ba1 S31 3.182293 1_555
Ba1 S11 3.245429 1_555
Ba1 S20 3.254845 1_555
Ba1 S10 3.307761 1_555
Ba1 S18 3.309324 1_555
Ba1 S19 3.368998 1_555
Ba1 S6 3.408094 1_555
Ba2 S4 3.173689 1_555
Ba2 S28 3.182293 1_455
Ba2 S8 3.245429 1_555
Ba2 S23 3.254845 1_455
Ba2 S9 3.307761 1_455
Ba2 S17 3.309324 1_455
Ba2 S16 3.368998 1_555
Ba2 S5 3.408094 1_455
Ba3 S5 3.173689 1_555
Ba3 S29 3.182293 1_555
Ba3 S9 3.245429 1_555
Ba3 S22 3.254845 1_555
Ba3 S8 3.307761 1_555
Ba3 S16 3.309324 1_555
Ba3 S17 3.368998 1_555
Ba3 S4 3.408094 1_555
Ba4 S8 3.277436 1_545
Ba4 S12 3.290177 1_545
Ba4 S13 3.342125 1_555
Ba4 S16 3.360850 1_555
Ba4 S9 3.367605 1_555
Ba4 S27 3.373725 1_555
Ba4 S17 3.386402 1_545
Ba4 S29 3.542668 1_545
Ba4 S22 3.669706 1_555
Ba5 S9 3.277436 1_465
Ba5 S13 3.290177 1_565
Ba5 S12 3.342125 1_455
Ba5 S17 3.360850 1_455
Ba5 S8 3.367605 1_555
Ba5 S26 3.373725 1_555
Ba5 S16 3.386402 1_565
Ba5 S28 3.542668 1_465
Ba5 S23 3.669706 1_455
Ba6 S10 3.277436 1_565
Ba6 S14 3.290177 1_565
Ba6 S15 3.342125 1_555
Ba6 S18 3.360850 1_555
Ba6 S11 3.367605 1_555
Ba6 S25 3.373725 1_555
Ba6 S19 3.386402 1_565
Ba6 S31 3.542668 1_565
Ba6 S20 3.669706 1_555
Ba7 S11 3.277436 1_645
Ba7 S15 3.290177 1_545
Ba7 S14 3.342125 1_655
Ba7 S19 3.360850 1_655
Ba7 S10 3.367605 1_555
Ba7 S24 3.373725 1_555
Ba7 S18 3.386402 1_545
Ba7 S30 3.542668 1_645
Ba7 S21 3.669706 1_655
S0 Sb8 2.405303 1_555
S0 Sb0 2.824521 1_555
S0 Sb4 2.996413 1_555
S1 Sb9 2.405303 1_556
S1 Sb1 2.824521 1_555
S1 Sb5 2.996413 1_556
S2 Sb10 2.405303 1_555
S2 Sb2 2.824521 1_555
S2 Sb6 2.996413 1_555
S3 Sb11 2.405303 1_554
S3 Sb3 2.824521 1_555
S3 Sb7 2.996413 1_554
S4 Sb12 2.483537 1_455
S4 Sb6 2.692608 1_555
S5 Sb13 2.483537 1_555
S5 Sb7 2.692608 1_555
S6 Sb14 2.483537 1_655
S6 Sb4 2.692608 1_555
S7 Sb15 2.483537 1_555
S7 Sb5 2.692608 1_555
S8 Sb13 2.457646 1_555
S9 Sb12 2.457646 1_555
S10 Sb15 2.457646 1_555
S11 Sb14 2.457646 1_555
S12 Sb13 2.465132 1_555
S12 Sb1 2.710996 1_565
S13 Sb12 2.465132 1_455
S13 Sb0 2.710996 1_445
S14 Sb15 2.465132 1_555
S14 Sb3 2.710996 1_545
S15 Sb14 2.465132 1_655
S15 Sb2 2.710996 1_665
S16 Sb1 2.430757 1_555
S17 Sb0 2.430757 1_555
S18 Sb3 2.430757 1_555
S19 Sb2 2.430757 1_555
S20 Sb4 2.483216 1_555
S20 Sb6 2.736314 1_555
S20 Sb8 2.983038 1_555
S21 Sb5 2.483216 1_555
S21 Sb7 2.736314 1_454
S21 Sb9 2.983038 1_555
S22 Sb6 2.483216 1_555
S22 Sb4 2.736314 1_555
S22 Sb10 2.983038 1_555
S23 Sb7 2.483216 1_555
S23 Sb5 2.736314 1_656
S23 Sb11 2.983038 1_555
S24 Sb3 2.497241 1_545
S24 Sb11 2.562953 1_544
S25 Sb2 2.497241 1_565
S25 Sb10 2.562953 1_565
S26 Sb1 2.497241 1_565
S26 Sb9 2.562953 1_566
S27 Sb0 2.497241 1_545
S27 Sb8 2.562953 1_545
S28 Sb9 2.514080 1_656
S28 Sb7 2.596164 1_555
S29 Sb8 2.514080 1_555
S29 Sb6 2.596164 1_555
S30 Sb11 2.514080 1_454
S30 Sb5 2.596164 1_555
S31 Sb10 2.514080 1_555
S31 Sb4 2.596164 1_555
