# generated using pymatgen
data_MgTe2Mo2W2(Se2S)2
_symmetry_space_group_name_H-M   'P 1'
_cell_length_a   3.33929439
_cell_length_b   3.33931682
_cell_length_c   45.26756427
_cell_angle_alpha   89.79554181
_cell_angle_beta   90.20630379
_cell_angle_gamma   120.01411766
_symmetry_Int_Tables_number   1
_chemical_formula_structural   MgTe2Mo2W2(Se2S)2
_chemical_formula_sum   'Mg1 Te2 Mo2 W2 Se4 S2'
_cell_volume   437.08366006
_cell_formula_units_Z   1
loop_
 _symmetry_equiv_pos_site_id
 _symmetry_equiv_pos_as_xyz
  1  'x, y, z'
loop_
 _atom_site_type_symbol
 _atom_site_label
 _atom_site_symmetry_multiplicity
 _atom_site_fract_x
 _atom_site_fract_y
 _atom_site_fract_z
 _atom_site_occupancy
  Mg  Mg0  1  0.66690300  0.33322000  0.56498200  1
  Te  Te0  1  0.66569800  0.33415700  0.05188000  1
  Te  Te1  1  0.66782500  0.33216700  0.13571100  1
  Mo  Mo0  1  0.33352500  0.66638800  0.09379600  1
  Mo  Mo1  1  0.33318200  0.66685900  0.46391100  1
  W  W0  1  0.66683400  0.33324700  0.28187500  1
  W  W1  1  0.66445200  0.33546200  0.66711700  1
  Se  Se0  1  0.33490700  0.66521600  0.31890400  1
  Se  Se1  1  0.66526400  0.33476300  0.42708200  1
  Se  Se2  1  0.66758000  0.33245200  0.50097200  1
  Se  Se3  1  0.33221500  0.66784000  0.24483500  1
  S  S0  1  0.33233000  0.66763400  0.70063700  1
  S  S1  1  0.32999800  0.66988200  0.63343700  1
loop_
_geom_bond_atom_site_label_1
_geom_bond_atom_site_label_2
_geom_bond_distance
_geom_bond_site_symmetry_2
Mg0 Se2 2.897597 1_555
Mo0 Te1 2.703322 1_555
Mo0 Te0 2.704351 1_565
Mo0 Te0 2.704385 1_455
Mo0 Te1 2.705643 1_455
Mo0 Te1 2.705739 1_565
Mo0 Te0 2.706061 1_555
Mo1 Se1 2.548674 1_555
Mo1 Se1 2.548676 1_455
Mo1 Se1 2.548726 1_565
Mo1 Se2 2.555208 1_555
Mo1 Se2 2.555717 1_565
Mo1 Se2 2.555797 1_455
Se0 W0 2.554018 1_555
Se0 W0 2.554920 1_565
Se0 W0 2.554931 1_455
Se3 W0 2.554685 1_565
Se3 W0 2.554689 1_455
Se3 W0 2.555475 1_555
S0 W1 2.453088 1_555
S0 W1 2.453432 1_565
S0 W1 2.453469 1_455
S1 W1 2.457669 1_455
S1 W1 2.457690 1_565
S1 W1 2.458089 1_555
