# generated using pymatgen
data_Na2Gd2MgTi2O8
_symmetry_space_group_name_H-M   'P 1'
_cell_length_a   3.91154100
_cell_length_b   3.91199500
_cell_length_c   11.99471700
_cell_angle_alpha   90.00000000
_cell_angle_beta   90.00000000
_cell_angle_gamma   90.00000000
_symmetry_Int_Tables_number   1
_chemical_formula_structural   Na2Gd2MgTi2O8
_chemical_formula_sum   'Na2 Gd2 Mg1 Ti2 O8'
_cell_volume   183.54230592
_cell_formula_units_Z   1
loop_
 _symmetry_equiv_pos_site_id
 _symmetry_equiv_pos_as_xyz
  1  'x, y, z'
loop_
 _atom_site_type_symbol
 _atom_site_label
 _atom_site_symmetry_multiplicity
 _atom_site_fract_x
 _atom_site_fract_y
 _atom_site_fract_z
 _atom_site_occupancy
  Na  Na0  1  0.25000000  0.25000000  0.63779500  1
  Na  Na1  1  0.75000000  0.75000000  0.36234500  1
  Gd  Gd0  1  0.75000000  0.75000000  0.11012500  1
  Gd  Gd1  1  0.25000000  0.25000000  0.88977300  1
  Mg  Mg0  1  0.25000000  0.75000000  0.50003700  1
  Ti  Ti0  1  0.25000000  0.25000000  0.25673500  1
  Ti  Ti1  1  0.75000000  0.75000000  0.74348300  1
  O  O0  1  0.75000000  0.75000000  0.92548100  1
  O  O1  1  0.25000000  0.25000000  0.07438800  1
  O  O2  1  0.75000000  0.75000000  0.56986000  1
  O  O3  1  0.25000000  0.25000000  0.43002800  1
  O  O4  1  0.75000000  0.25000000  0.23384100  1
  O  O5  1  0.25000000  0.75000000  0.25023400  1
  O  O6  1  0.75000000  0.25000000  0.76595700  1
  O  O7  1  0.25000000  0.75000000  0.74991900  1
loop_
_geom_bond_atom_site_label_1
_geom_bond_atom_site_label_2
_geom_bond_distance
_geom_bond_site_symmetry_2
Na0 O7 2.373746 1_555
Na0 O7 2.373746 1_545
Na0 O6 2.487615 1_455
Na0 O6 2.487615 1_555
Na0 O3 2.492106 1_555
Na0 O2 2.883568 1_455
Na0 O2 2.883568 1_445
Na0 O2 2.883568 1_545
Na0 O2 2.883568 1_555
Na1 O5 2.373471 1_555
Na1 O5 2.373471 1_655
Na1 O2 2.489084 1_555
Na1 O4 2.490330 1_555
Na1 O4 2.490330 1_565
Na1 O3 2.882715 1_555
Na1 O3 2.882715 1_565
Na1 O3 2.882715 1_655
Na1 O3 2.882715 1_665
Gd0 O0 2.214753 1_554
Gd0 O4 2.455198 1_555
Gd0 O4 2.455198 1_565
Gd0 O5 2.578633 1_555
Gd0 O5 2.578633 1_655
Gd0 O1 2.799055 1_655
Gd0 O1 2.799055 1_565
Gd0 O1 2.799055 1_665
Gd0 O1 2.799055 1_555
Gd1 O1 2.214405 1_556
Gd1 O6 2.455743 1_555
Gd1 O6 2.455743 1_455
Gd1 O7 2.576813 1_555
Gd1 O7 2.576813 1_545
Gd1 O0 2.799002 1_455
Gd1 O0 2.799002 1_555
Gd1 O0 2.799002 1_445
Gd1 O0 2.799002 1_545
Mg0 O2 2.127547 1_555
Mg0 O2 2.127547 1_455
Mg0 O3 2.128635 1_565
Mg0 O3 2.128635 1_555
O0 Ti1 2.183015 1_555
O1 Ti0 2.187201 1_555
O2 Ti1 2.082559 1_555
O3 Ti0 2.078600 1_555
O4 Ti0 1.974955 1_555
O4 Ti0 1.974955 1_655
O5 Ti0 1.957551 1_565
O5 Ti0 1.957551 1_555
O6 Ti1 1.974486 1_545
O6 Ti1 1.974486 1_555
O7 Ti1 1.957293 1_455
O7 Ti1 1.957293 1_555
