# generated using pymatgen
data_Sm
_symmetry_space_group_name_H-M   'P 1'
_cell_length_a   7.26921206
_cell_length_b   7.26921249
_cell_length_c   7.25639978
_cell_angle_alpha   120.05842034
_cell_angle_beta   120.05843037
_cell_angle_gamma   89.99998452
_symmetry_Int_Tables_number   1
_chemical_formula_structural   Sm
_chemical_formula_sum   Sm8
_cell_volume   270.65253837
_cell_formula_units_Z   8
loop_
 _symmetry_equiv_pos_site_id
 _symmetry_equiv_pos_as_xyz
  1  'x, y, z'
loop_
 _atom_site_type_symbol
 _atom_site_label
 _atom_site_symmetry_multiplicity
 _atom_site_fract_x
 _atom_site_fract_y
 _atom_site_fract_z
 _atom_site_occupancy
  Sm  Sm0_0  1  0.00000000  0.00000000  0.00000000  1
  Sm  Sm0_1  1  0.00000000  0.00000000  0.50000000  1
  Sm  Sm0_2  1  0.00000000  0.50000000  0.00000000  1
  Sm  Sm0_3  1  0.00000000  0.50000000  0.50000000  1
  Sm  Sm0_4  1  0.50000000  0.00000000  0.00000000  1
  Sm  Sm0_5  1  0.50000000  0.00000000  0.50000000  1
  Sm  Sm0_6  1  0.50000000  0.50000000  0.00000000  1
  Sm  Sm0_7  1  0.50000000  0.50000000  0.50000000  1
loop_
_geom_bond_atom_site_label_1
_geom_bond_atom_site_label_2
_geom_bond_distance
_geom_bond_site_symmetry_2
Sm0_0 Sm0_5 3.628200 1_555
Sm0_0 Sm0_5 3.628200 1_454
Sm0_0 Sm0_1 3.628200 1_554
Sm0_0 Sm0_1 3.628200 1_555
Sm0_0 Sm0_3 3.628200 1_544
Sm0_0 Sm0_3 3.628200 1_555
Sm0_0 Sm0_7 3.628201 1_444
Sm0_0 Sm0_7 3.628201 1_555
Sm0_0 Sm0_4 3.634606 1_555
Sm0_0 Sm0_4 3.634606 1_455
Sm0_0 Sm0_2 3.634606 1_545
Sm0_0 Sm0_2 3.634606 1_555
Sm0_1 Sm0_4 3.628200 1_556
Sm0_1 Sm0_4 3.628200 1_455
Sm0_1 Sm0_2 3.628200 1_545
Sm0_1 Sm0_2 3.628200 1_556
Sm0_1 Sm0_6 3.628201 1_556
Sm0_1 Sm0_6 3.628201 1_445
Sm0_1 Sm0_5 3.634606 1_555
Sm0_1 Sm0_5 3.634606 1_455
Sm0_1 Sm0_3 3.634606 1_545
Sm0_1 Sm0_3 3.634606 1_555
Sm0_2 Sm0_7 3.628200 1_555
Sm0_2 Sm0_7 3.628200 1_454
Sm0_2 Sm0_3 3.628200 1_554
Sm0_2 Sm0_3 3.628200 1_555
Sm0_2 Sm0_5 3.628201 1_565
Sm0_2 Sm0_5 3.628201 1_454
Sm0_2 Sm0_6 3.634606 1_555
Sm0_2 Sm0_6 3.634606 1_455
Sm0_3 Sm0_6 3.628200 1_556
Sm0_3 Sm0_6 3.628200 1_455
Sm0_3 Sm0_4 3.628201 1_566
Sm0_3 Sm0_4 3.628201 1_455
Sm0_3 Sm0_7 3.634606 1_555
Sm0_3 Sm0_7 3.634606 1_455
Sm0_4 Sm0_5 3.628200 1_554
Sm0_4 Sm0_5 3.628200 1_555
Sm0_4 Sm0_7 3.628200 1_544
Sm0_4 Sm0_7 3.628200 1_555
Sm0_4 Sm0_6 3.634606 1_545
Sm0_4 Sm0_6 3.634606 1_555
Sm0_5 Sm0_6 3.628200 1_556
Sm0_5 Sm0_6 3.628200 1_545
Sm0_5 Sm0_7 3.634606 1_545
Sm0_5 Sm0_7 3.634606 1_555
Sm0_6 Sm0_7 3.628200 1_555
Sm0_6 Sm0_7 3.628200 1_554
