# generated using pymatgen
data_Na2Sm2MgTi2O8
_symmetry_space_group_name_H-M   'P 1'
_cell_length_a   3.62900368
_cell_length_b   3.62900368
_cell_length_c   16.86336203
_cell_angle_alpha   90.00000000
_cell_angle_beta   90.00000000
_cell_angle_gamma   90.00000000
_symmetry_Int_Tables_number   1
_chemical_formula_structural   Na2Sm2MgTi2O8
_chemical_formula_sum   'Na2 Sm2 Mg1 Ti2 O8'
_cell_volume   222.08487440
_cell_formula_units_Z   1
loop_
 _symmetry_equiv_pos_site_id
 _symmetry_equiv_pos_as_xyz
  1  'x, y, z'
loop_
 _atom_site_type_symbol
 _atom_site_label
 _atom_site_symmetry_multiplicity
 _atom_site_fract_x
 _atom_site_fract_y
 _atom_site_fract_z
 _atom_site_occupancy
  Na  Na0  1  0.25000000  0.25000000  0.56086660  1
  Na  Na1  1  0.75000000  0.75000000  0.43913340  1
  Sm  Sm0  1  0.75000000  0.75000000  0.18498299  1
  Sm  Sm1  1  0.25000000  0.25000000  0.81501701  1
  Mg  Mg0  1  0.25000000  0.75000000  0.00000000  1
  Ti  Ti0  1  0.25000000  0.25000000  0.31711077  1
  Ti  Ti1  1  0.75000000  0.75000000  0.68288923  1
  O  O0  1  0.75000000  0.75000000  0.84537430  1
  O  O1  1  0.25000000  0.25000000  0.15462570  1
  O  O2  1  0.75000000  0.75000000  0.57682348  1
  O  O3  1  0.25000000  0.25000000  0.42317652  1
  O  O4  1  0.75000000  0.25000000  0.28283599  1
  O  O5  1  0.25000000  0.75000000  0.28266646  1
  O  O6  1  0.75000000  0.25000000  0.71716401  1
  O  O7  1  0.25000000  0.75000000  0.71733354  1
loop_
_geom_bond_atom_site_label_1
_geom_bond_atom_site_label_2
_geom_bond_distance
_geom_bond_site_symmetry_2
Na0 O3 2.321918 1_555
Na0 O2 2.580163 1_455
Na0 O2 2.580163 1_555
Na0 O2 2.580163 1_445
Na0 O2 2.580163 1_545
Na1 O2 2.321918 1_555
Na1 O3 2.580163 1_655
Na1 O3 2.580163 1_565
Na1 O3 2.580163 1_665
Na1 O3 2.580163 1_555
O0 Sm1 2.616659 1_665
O0 Sm1 2.616659 1_565
O0 Sm1 2.616659 1_655
O0 Sm1 2.616659 1_555
O0 Ti1 2.740045 1_555
O1 Sm0 2.616659 1_445
O1 Sm0 2.616659 1_545
O1 Sm0 2.616659 1_455
O1 Sm0 2.616659 1_555
O1 Ti0 2.740045 1_555
O2 Ti1 1.788625 1_555
O3 Ti0 1.788625 1_555
O4 Ti0 1.904334 1_655
O4 Ti0 1.904334 1_555
O4 Sm0 2.452621 1_545
O4 Sm0 2.452621 1_555
O5 Ti0 1.905203 1_565
O5 Ti0 1.905203 1_555
O5 Sm0 2.450698 1_555
O5 Sm0 2.450698 1_455
O6 Ti1 1.904334 1_545
O6 Ti1 1.904334 1_555
O6 Sm1 2.452621 1_555
O6 Sm1 2.452621 1_655
O7 Ti1 1.905203 1_455
O7 Ti1 1.905203 1_555
O7 Sm1 2.450698 1_565
O7 Sm1 2.450698 1_555
