# generated using pymatgen
data_Ta2Mn4Si5
_symmetry_space_group_name_H-M   'P 1'
_cell_length_a   9.44507490
_cell_length_b   9.44507490
_cell_length_c   9.44507490
_cell_angle_alpha   148.12448352
_cell_angle_beta   134.65532744
_cell_angle_gamma   56.49307886
_symmetry_Int_Tables_number   1
_chemical_formula_structural   Ta2Mn4Si5
_chemical_formula_sum   'Ta4 Mn8 Si10'
_cell_volume   314.25463944
_cell_formula_units_Z   2
loop_
 _symmetry_equiv_pos_site_id
 _symmetry_equiv_pos_as_xyz
  1  'x, y, z'
loop_
 _atom_site_type_symbol
 _atom_site_label
 _atom_site_symmetry_multiplicity
 _atom_site_fract_x
 _atom_site_fract_y
 _atom_site_fract_z
 _atom_site_occupancy
  Ta  Ta0  1  0.68619700  0.93619700  0.25000000  1
  Ta  Ta1  1  0.68619700  0.43619700  0.75000000  1
  Ta  Ta2  1  0.31380300  0.06380300  0.75000000  1
  Ta  Ta3  1  0.31380300  0.56380300  0.25000000  1
  Mn  Mn0  1  0.26900500  0.14816900  0.12083600  1
  Mn  Mn1  1  0.18605700  0.93515300  0.25090500  1
  Mn  Mn2  1  0.97266600  0.35183100  0.62083600  1
  Mn  Mn3  1  0.02733400  0.64816900  0.37916400  1
  Mn  Mn4  1  0.68424800  0.43515300  0.24909500  1
  Mn  Mn5  1  0.31575200  0.56484700  0.75090500  1
  Mn  Mn6  1  0.81394300  0.06484700  0.74909500  1
  Mn  Mn7  1  0.73099500  0.85183100  0.87916400  1
  Si  Si0  1  0.45767500  0.05818900  0.39948600  1
  Si  Si1  1  0.39677900  0.70599600  0.69078300  1
  Si  Si2  1  0.01521300  0.20599600  0.80921700  1
  Si  Si3  1  0.98478700  0.79400400  0.19078300  1
  Si  Si4  1  0.00000000  0.25000000  0.25000000  1
  Si  Si5  1  0.00000000  0.75000000  0.75000000  1
  Si  Si6  1  0.60322100  0.29400400  0.30921700  1
  Si  Si7  1  0.65870300  0.55818900  0.10051400  1
  Si  Si8  1  0.54232500  0.94181100  0.60051400  1
  Si  Si9  1  0.34129700  0.44181100  0.89948600  1
loop_
_geom_bond_atom_site_label_1
_geom_bond_atom_site_label_2
_geom_bond_distance
_geom_bond_site_symmetry_2
Mn0 Si2 2.464642 1_554
Mn0 Si0 2.521645 1_555
Mn0 Si6 2.787623 1_555
Mn0 Si1 2.812809 1_555
Mn0 Si1 2.812809 1_544
Mn0 Si5 2.921495 1_544
Mn0 Si4 2.921495 1_555
Mn1 Si0 2.315679 1_565
Mn1 Si3 2.389257 1_455
Mn1 Si4 2.486724 1_565
Mn1 Si5 2.486727 1_554
Mn1 Si8 2.548060 1_555
Mn1 Si9 2.812337 1_565
Mn1 Si9 2.812342 1_554
Mn2 Si6 2.464636 1_555
Mn2 Si9 2.521653 1_655
Mn2 Si2 2.787618 1_655
Mn2 Si3 2.812804 1_556
Mn2 Si3 2.812809 1_545
Mn2 Si5 2.921500 1_655
Mn2 Si4 2.921502 1_655
Mn3 Si1 2.464636 1_555
Mn3 Si7 2.521653 1_455
Mn3 Si3 2.787618 1_455
Mn3 Si2 2.812804 1_554
Mn3 Si2 2.812809 1_565
Mn3 Si4 2.921500 1_555
Mn3 Si5 2.921502 1_555
Mn4 Si7 2.315670 1_555
Mn4 Si6 2.389266 1_555
Mn4 Si4 2.486724 1_655
Mn4 Si5 2.486724 1_655
Mn4 Si9 2.548056 1_554
Mn4 Si8 2.812338 1_555
Mn4 Si8 2.812338 1_544
Mn5 Si9 2.315670 1_555
Mn5 Si1 2.389266 1_555
Mn5 Si4 2.486724 1_555
Mn5 Si5 2.486724 1_555
Mn5 Si7 2.548056 1_556
Mn5 Si0 2.812338 1_555
Mn5 Si0 2.812338 1_566
Mn6 Si8 2.315679 1_545
Mn6 Si2 2.389257 1_655
Mn6 Si5 2.486724 1_645
Mn6 Si4 2.486727 1_656
Mn6 Si0 2.548060 1_555
Mn6 Si7 2.812337 1_545
Mn6 Si7 2.812342 1_556
Mn7 Si3 2.464642 1_556
Mn7 Si8 2.521645 1_555
Mn7 Si1 2.787623 1_555
Mn7 Si6 2.812809 1_555
Mn7 Si6 2.812809 1_566
Mn7 Si4 2.921495 1_666
Mn7 Si5 2.921495 1_655
Si0 Si8 2.427566 1_545
Si0 Ta0 2.598997 1_545
Si0 Ta1 2.598997 1_555
Si1 Ta3 2.613388 1_555
Si1 Ta2 2.613388 1_565
Si1 Ta0 2.619081 1_556
Si1 Ta1 2.619081 1_555
Si2 Ta2 2.613388 1_555
Si2 Ta3 2.613388 1_556
Si2 Ta1 2.619081 1_455
Si2 Ta0 2.619081 1_445
Si3 Ta0 2.613388 1_555
Si3 Ta1 2.613388 1_554
Si3 Ta2 2.619081 1_665
Si3 Ta3 2.619081 1_655
Si4 Si5 2.593551 1_544
Si4 Si5 2.593551 1_555
Si6 Ta1 2.613388 1_555
Si6 Ta0 2.613388 1_545
Si6 Ta3 2.619081 1_555
Si6 Ta2 2.619081 1_554
Si7 Si9 2.427566 1_554
Si7 Ta0 2.598997 1_555
Si7 Ta1 2.598997 1_554
Si8 Ta3 2.598997 1_555
Si8 Ta2 2.598997 1_565
Si9 Ta3 2.598997 1_556
Si9 Ta2 2.598997 1_555
