# generated using pymatgen
data_MgMn6O11F
_symmetry_space_group_name_H-M   'P 1'
_cell_length_a   7.07604119
_cell_length_b   5.66206174
_cell_length_c   5.87624313
_cell_angle_alpha   81.67818207
_cell_angle_beta   70.36585719
_cell_angle_gamma   73.94085131
_symmetry_Int_Tables_number   1
_chemical_formula_structural   MgMn6O11F
_chemical_formula_sum   'Mg1 Mn6 O11 F1'
_cell_volume   212.74079340
_cell_formula_units_Z   1
loop_
 _symmetry_equiv_pos_site_id
 _symmetry_equiv_pos_as_xyz
  1  'x, y, z'
loop_
 _atom_site_type_symbol
 _atom_site_label
 _atom_site_symmetry_multiplicity
 _atom_site_fract_x
 _atom_site_fract_y
 _atom_site_fract_z
 _atom_site_occupancy
  Mg  Mg0  1  0.98535620  0.01039490  0.51352464  1
  Mn  Mn0  1  0.81837085  0.63727748  0.68446634  1
  Mn  Mn1  1  0.66226752  0.37891516  0.28660058  1
  Mn  Mn2  1  0.33618117  0.66226191  0.68148039  1
  Mn  Mn3  1  0.16964801  0.36871412  0.33367824  1
  Mn  Mn4  1  0.50038969  0.98759229  0.00843106  1
  Mn  Mn5  1  0.99661031  0.98555198  0.02100125  1
  O  O0  1  0.68404270  0.97657258  0.68299508  1
  O  O1  1  0.29533327  0.91313826  0.89374198  1
  O  O2  1  0.63048460  0.54357807  0.57258109  1
  O  O3  1  0.95747683  0.24836624  0.22770487  1
  O  O4  1  0.69880167  0.10026014  0.10970525  1
  O  O5  1  0.03596903  0.75974089  0.78035290  1
  O  O6  1  0.36734152  0.45088173  0.43386968  1
  O  O7  1  0.30070365  0.02266965  0.33166101  1
  O  O8  1  0.64980577  0.64793318  0.01999544  1
  O  O9  1  0.00103509  0.31220481  0.65299243  1
  O  O10  1  0.99555413  0.70016381  0.35142247  1
  F  F0  1  0.34055600  0.36878279  0.98879329  1
loop_
_geom_bond_atom_site_label_1
_geom_bond_atom_site_label_2
_geom_bond_distance
_geom_bond_site_symmetry_2
Mg0 O5 2.013189 1_645
Mg0 O3 2.023817 1_555
Mg0 O9 2.043424 1_655
Mg0 O0 2.077999 1_545
Mg0 O10 2.089506 1_545
Mg0 O7 2.141926 1_655
Mn0 O2 1.886766 1_555
Mn0 O0 1.893318 1_555
Mn0 O9 1.927246 1_655
Mn0 O8 1.930790 1_556
Mn0 O10 1.981180 1_555
Mn0 O5 2.110891 1_655
Mn1 O6 1.920430 1_555
Mn1 O4 1.924882 1_555
Mn1 O3 1.940014 1_555
Mn1 O2 1.956376 1_555
Mn1 O8 2.027321 1_555
Mn2 O2 1.911167 1_555
Mn2 O1 1.923666 1_555
Mn2 O6 1.934071 1_555
Mn2 O5 1.941547 1_555
Mn2 O7 2.702218 1_565
Mn3 O6 1.874244 1_555
Mn3 O9 1.891981 1_555
Mn3 O7 1.921758 1_555
Mn3 O10 1.934334 1_455
Mn3 O3 2.103149 1_455
Mn4 O0 1.915548 1_554
Mn4 O8 1.925236 1_555
Mn4 O7 1.947811 1_565
Mn4 O1 1.953227 1_554
Mn4 O4 1.974628 1_565
Mn5 O4 1.933098 1_565
Mn5 O1 1.934519 1_654
Mn5 O5 1.942591 1_654
Mn5 O3 1.958463 1_565
Mn5 O10 2.338767 1_555
Mn5 O9 2.631913 1_664
F0 Mn3 1.980584 1_556
F0 Mn4 2.148465 1_546
F0 Mn2 2.272391 1_555
