# generated using pymatgen
data_NaTiSn(PO4)3
_symmetry_space_group_name_H-M   'P 1'
_cell_length_a   8.66528668
_cell_length_b   8.66528641
_cell_length_c   22.61047454
_cell_angle_alpha   90.00000000
_cell_angle_beta   90.00000000
_cell_angle_gamma   120.00000104
_symmetry_Int_Tables_number   1
_chemical_formula_structural   NaTiSn(PO4)3
_chemical_formula_sum   'Na6 Ti6 Sn6 P18 O72'
_cell_volume   1470.30069119
_cell_formula_units_Z   6
loop_
 _symmetry_equiv_pos_site_id
 _symmetry_equiv_pos_as_xyz
  1  'x, y, z'
loop_
 _atom_site_type_symbol
 _atom_site_label
 _atom_site_symmetry_multiplicity
 _atom_site_fract_x
 _atom_site_fract_y
 _atom_site_fract_z
 _atom_site_occupancy
  Na  Na0  1  0.00000000  0.00000000  0.50104902  1
  Na  Na1  1  0.00000000  0.00000000  0.00091181  1
  Na  Na2  1  0.66666700  0.33333300  0.83237220  1
  Na  Na3  1  0.66666700  0.33333300  0.33423618  1
  Na  Na4  1  0.33333300  0.66666700  0.16753754  1
  Na  Na5  1  0.33333300  0.66666700  0.66544369  1
  Ti  Ti0  1  0.00000000  0.00000000  0.64625796  1
  Ti  Ti1  1  0.00000000  0.00000000  0.14660028  1
  Ti  Ti2  1  0.66666700  0.33333300  0.68549825  1
  Ti  Ti3  1  0.66666700  0.33333300  0.48082259  1
  Ti  Ti4  1  0.33333300  0.66666700  0.51960422  1
  Ti  Ti5  1  0.33333300  0.66666700  0.31311236  1
  Sn  Sn0  1  0.00000000  0.00000000  0.35305005  1
  Sn  Sn1  1  0.00000000  0.00000000  0.85186531  1
  Sn  Sn2  1  0.66666700  0.33333300  0.18610398  1
  Sn  Sn3  1  0.66666700  0.33333300  0.98108205  1
  Sn  Sn4  1  0.33333300  0.66666700  0.01953531  1
  Sn  Sn5  1  0.33333300  0.66666700  0.81282818  1
  P  P0  1  0.28822705  0.99768653  0.24960579  1
  P  P1  1  0.70945947  0.71177295  0.24960579  1
  P  P2  1  0.00231347  0.29054053  0.24960579  1
  P  P3  1  0.29101004  0.28818365  0.74823293  1
  P  P4  1  0.99717361  0.70898996  0.74823293  1
  P  P5  1  0.71181635  0.00282639  0.74823293  1
  P  P6  1  0.95438289  0.33358614  0.58323431  1
  P  P7  1  0.37920425  0.04561711  0.58323431  1
  P  P8  1  0.66641386  0.62079575  0.58323431  1
  P  P9  1  0.95837561  0.62736253  0.08387691  1
  P  P10  1  0.66898793  0.04162439  0.08387691  1
  P  P11  1  0.37263747  0.33101207  0.08387691  1
  P  P12  1  0.62530740  0.66676760  0.91649629  1
  P  P13  1  0.04145920  0.37469260  0.91649629  1
  P  P14  1  0.33323240  0.95854080  0.91649629  1
  P  P15  1  0.61838207  0.95423181  0.41713821  1
  P  P16  1  0.33584874  0.38161793  0.41713821  1
  P  P17  1  0.04576819  0.66415126  0.41713821  1
  O  O0  1  0.21412160  0.03636767  0.30590584  1
  O  O1  1  0.82224607  0.78587840  0.30590584  1
  O  O2  1  0.96363233  0.17775393  0.30590584  1
  O  O3  1  0.21722804  0.17846615  0.80547979  1
  O  O4  1  0.96123811  0.78277196  0.80547979  1
  O  O5  1  0.82153385  0.03876189  0.80547979  1
  O  O6  1  0.80175833  0.97128838  0.69422536  1
  O  O7  1  0.16953005  0.19824167  0.69422536  1
  O  O8  1  0.02871162  0.83046995  0.69422536  1
  O  O9  1  0.79849534  0.82962878  0.19450101  1
  O  O10  1  0.03113344  0.20150466  0.19450101  1
  O  O11  1  0.17037122  0.96886656  0.19450101  1
  O  O12  1  0.86705101  0.36372623  0.63847147  1
  O  O13  1  0.49667623  0.13294899  0.63847147  1
  O  O14  1  0.63627377  0.50332377  0.63847147  1
  O  O15  1  0.88114764  0.51091814  0.13931343  1
  O  O16  1  0.62977150  0.11885236  0.13931343  1
  O  O17  1  0.48908186  0.37022850  0.13931343  1
  O  O18  1  0.44857466  0.29365872  0.02761728  1
  O  O19  1  0.84508506  0.55142534  0.02761728  1
  O  O20  1  0.70634128  0.15491494  0.02761728  1
  O  O21  1  0.46667819  0.16370203  0.52805625  1
  O  O22  1  0.69702484  0.53332181  0.52805625  1
  O  O23  1  0.83629797  0.30297516  0.52805625  1
  O  O24  1  0.54784761  0.70308127  0.97276480  1
  O  O25  1  0.15523265  0.45215239  0.97276480  1
  O  O26  1  0.29691873  0.84476735  0.97276480  1
  O  O27  1  0.53109209  0.83622036  0.47222126  1
  O  O28  1  0.30512726  0.46890791  0.47222126  1
  O  O29  1  0.16377964  0.69487274  0.47222126  1
  O  O30  1  0.13306586  0.63635481  0.36122012  1
  O  O31  1  0.50328794  0.86693414  0.36122012  1
  O  O32  1  0.36364519  0.49671206  0.36122012  1
  O  O33  1  0.11880068  0.48871629  0.86036053  1
  O  O34  1  0.36991461  0.88119932  0.86036053  1
  O  O35  1  0.51128371  0.63008539  0.86036053  1
  O  O36  1  0.02703650  0.83231438  0.41202534  1
  O  O37  1  0.80527788  0.97296350  0.41202534  1
  O  O38  1  0.16768562  0.19472212  0.41202534  1
  O  O39  1  0.02391667  0.18927868  0.91151979  1
  O  O40  1  0.16536201  0.97608333  0.91151979  1
  O  O41  1  0.81072132  0.83463799  0.91151979  1
  O  O42  1  0.97376617  0.16650068  0.59157287  1
  O  O43  1  0.19273451  0.02623383  0.59157287  1
  O  O44  1  0.83349932  0.80726549  0.59157287  1
  O  O45  1  0.97657286  0.81267344  0.09206214  1
  O  O46  1  0.83610058  0.02342714  0.09206214  1
  O  O47  1  0.18732656  0.16389942  0.09206214  1
  O  O48  1  0.69111503  0.16823717  0.74014824  1
  O  O49  1  0.47712314  0.30888497  0.74014824  1
  O  O50  1  0.83176283  0.52287686  0.74014824  1
  O  O51  1  0.68900957  0.52466427  0.24384425  1
  O  O52  1  0.83565570  0.31099043  0.24384425  1
  O  O53  1  0.47533573  0.16434430  0.24384425  1
  O  O54  1  0.64265307  0.49863078  0.92171956  1
  O  O55  1  0.85597871  0.35734693  0.92171956  1
  O  O56  1  0.50136922  0.14402129  0.92171956  1
  O  O57  1  0.63847895  0.14052911  0.42501421  1
  O  O58  1  0.50205116  0.36152105  0.42501421  1
  O  O59  1  0.85947089  0.49794884  0.42501421  1
  O  O60  1  0.35463081  0.49892128  0.07831933  1
  O  O61  1  0.14428948  0.64536919  0.07831933  1
  O  O62  1  0.50107872  0.85571052  0.07831933  1
  O  O63  1  0.35933577  0.85941277  0.57496996  1
  O  O64  1  0.50007601  0.64066423  0.57496996  1
  O  O65  1  0.14058723  0.49992399  0.57496996  1
  O  O66  1  0.30648719  0.83021674  0.25739032  1
  O  O67  1  0.52372855  0.69351281  0.25739032  1
  O  O68  1  0.16978326  0.47627145  0.25739032  1
  O  O69  1  0.30736985  0.47422995  0.75338876  1
  O  O70  1  0.16685910  0.69263015  0.75338876  1
  O  O71  1  0.52577005  0.83314090  0.75338876  1
loop_
_geom_bond_atom_site_label_1
_geom_bond_atom_site_label_2
_geom_bond_distance
_geom_bond_site_symmetry_2
Na0 O38 2.560913 1_555
Na0 O36 2.560913 1_545
Na0 O37 2.560913 1_445
Na0 O44 2.578875 1_445
Na0 O42 2.578875 1_455
Na0 O43 2.578875 1_555
Na1 O39 2.545265 1_554
Na1 O41 2.545265 1_444
Na1 O40 2.545265 1_544
Na1 O45 2.567901 1_445
Na1 O47 2.567901 1_555
Na1 O46 2.567901 1_455
Na2 O56 2.544433 1_555
Na2 O54 2.544433 1_555
Na2 O55 2.544433 1_555
Na2 O50 2.596681 1_555
Na2 O48 2.596681 1_555
Na2 O49 2.596681 1_555
Na3 O51 2.577285 1_555
Na3 O53 2.577285 1_555
Na3 O52 2.577285 1_555
Na3 O57 2.579868 1_555
Na3 O59 2.579868 1_555
Na3 O58 2.579868 1_555
Na4 O62 2.546474 1_555
Na4 O61 2.546474 1_555
Na4 O60 2.546474 1_555
Na4 O68 2.553374 1_555
Na4 O66 2.553374 1_555
Na4 O67 2.553375 1_555
Na5 O69 2.531826 1_555
Na5 O71 2.531826 1_555
Na5 O70 2.531826 1_555
Na5 O63 2.578507 1_555
Na5 O65 2.578507 1_555
Na5 O64 2.578507 1_555
O0 P0 1.536356 1_545
O0 Sn0 2.023229 1_555
O1 P1 1.536356 1_555
O1 Sn0 2.023229 1_665
O2 P2 1.536356 1_655
O2 Sn0 2.023229 1_655
O3 P3 1.542798 1_555
O3 Sn1 2.030706 1_555
O4 P4 1.542798 1_555
O4 Sn1 2.030705 1_665
O5 P5 1.542798 1_555
O5 Sn1 2.030706 1_655
O6 P5 1.544757 1_565
O6 Ti0 1.939512 1_665
O7 P3 1.544757 1_555
O7 Ti0 1.939512 1_555
O8 P4 1.544757 1_455
O8 Ti0 1.939512 1_565
O9 P1 1.550053 1_555
O9 Ti1 1.955399 1_665
O10 P2 1.550054 1_555
O10 Ti1 1.955399 1_555
O11 P0 1.550053 1_555
O11 Ti1 1.955399 1_565
O12 P6 1.548671 1_555
O12 Ti2 1.938477 1_555
O13 P7 1.548671 1_555
O13 Ti2 1.938477 1_555
O14 P8 1.548671 1_555
O14 Ti2 1.938477 1_555
O15 P9 1.536830 1_555
O15 Sn2 2.020260 1_555
O16 P10 1.536830 1_555
O16 Sn2 2.020260 1_555
O17 P11 1.536830 1_555
O17 Sn2 2.020260 1_555
O18 P11 1.539113 1_555
O18 Sn3 2.036429 1_554
O19 P9 1.539113 1_555
O19 Sn3 2.036429 1_554
O20 P10 1.539113 1_555
O20 Sn3 2.036429 1_554
O21 P7 1.549991 1_555
O21 Ti3 1.938312 1_555
O22 P8 1.549991 1_555
O22 Ti3 1.938312 1_555
O23 P6 1.549991 1_555
O23 Ti3 1.938312 1_555
O24 P12 1.542527 1_555
O24 Sn4 2.021533 1_556
O25 P13 1.542527 1_555
O25 Sn4 2.021533 1_556
O26 P14 1.542527 1_555
O26 Sn4 2.021533 1_556
O27 P15 1.547744 1_555
O27 Ti4 1.930093 1_555
O28 P16 1.547744 1_555
O28 Ti4 1.930093 1_555
O29 P17 1.547744 1_555
O29 Ti4 1.930093 1_555
O30 P17 1.552737 1_555
O30 Ti5 1.951375 1_555
O31 P15 1.552737 1_555
O31 Ti5 1.951375 1_555
O32 P16 1.552737 1_555
O32 Ti5 1.951375 1_555
O33 P13 1.540851 1_555
O33 Sn5 2.030287 1_555
O34 P14 1.540852 1_555
O34 Sn5 2.030287 1_555
O35 P12 1.540852 1_555
O35 Sn5 2.030287 1_555
O36 P17 1.549068 1_555
O36 Sn0 2.069965 1_565
O37 P15 1.549077 1_555
O37 Sn0 2.069965 1_665
O38 P16 1.549073 1_555
O38 Sn0 2.069965 1_555
O39 P13 1.540425 1_555
O39 Sn1 2.052425 1_555
O40 P14 1.540416 1_555
O40 Sn1 2.052425 1_565
O41 P12 1.540421 1_555
O41 Sn1 2.052425 1_665
O42 P6 1.550223 1_555
O42 Ti0 1.997518 1_655
O43 P7 1.550231 1_555
O43 Ti0 1.997518 1_555
O44 P8 1.550228 1_555
O44 Ti0 1.997518 1_665
O45 P9 1.544155 1_555
O45 Ti1 1.966522 1_665
O46 P10 1.544146 1_555
O46 Ti1 1.966522 1_655
O47 P11 1.544151 1_555
O47 Ti1 1.966522 1_555
O48 P5 1.541800 1_555
O48 Ti2 1.980262 1_555
O49 P3 1.541809 1_555
O49 Ti2 1.980262 1_555
O50 P4 1.541806 1_555
O50 Ti2 1.980262 1_555
O51 P1 1.545910 1_555
O51 Sn2 2.041981 1_555
O52 P2 1.545902 1_655
O52 Sn2 2.041981 1_555
O53 P0 1.545907 1_545
O53 Sn2 2.041981 1_555
O54 P12 1.542155 1_555
O54 Sn3 2.048055 1_555
O55 P13 1.542138 1_655
O55 Sn3 2.048055 1_555
O56 P14 1.542145 1_545
O56 Sn3 2.048055 1_555
O57 P15 1.544973 1_545
O57 Ti3 2.008755 1_555
O58 P16 1.544990 1_555
O58 Ti3 2.008755 1_555
O59 P17 1.544980 1_655
O59 Ti3 2.008755 1_555
O60 P11 1.544064 1_555
O60 Sn4 2.044937 1_555
O61 P9 1.544046 1_455
O61 Sn4 2.044937 1_555
O62 P10 1.544054 1_565
O62 Sn4 2.044937 1_555
O63 P7 1.546025 1_565
O63 Ti4 2.007764 1_555
O64 P8 1.546042 1_555
O64 Ti4 2.007764 1_555
O65 P6 1.546032 1_455
O65 Ti4 2.007764 1_555
O66 P0 1.546461 1_555
O66 Ti5 1.994898 1_555
O67 P1 1.546469 1_555
O67 Ti5 1.994898 1_555
O68 P2 1.546465 1_555
O68 Ti5 1.994898 1_555
O69 P3 1.550534 1_555
O69 Sn5 2.064534 1_555
O70 P4 1.550525 1_455
O70 Sn5 2.064534 1_555
O71 P5 1.550530 1_565
O71 Sn5 2.064534 1_555
