# generated using pymatgen
data_Fe3Ge
_symmetry_space_group_name_H-M   'P 1'
_cell_length_a   3.66064424
_cell_length_b   3.66041061
_cell_length_c   3.66044671
_cell_angle_alpha   90.00000000
_cell_angle_beta   90.00000000
_cell_angle_gamma   90.00000000
_symmetry_Int_Tables_number   1
_chemical_formula_structural   Fe3Ge
_chemical_formula_sum   'Fe3 Ge1'
_cell_volume   49.04801299
_cell_formula_units_Z   1
loop_
 _symmetry_equiv_pos_site_id
 _symmetry_equiv_pos_as_xyz
  1  'x, y, z'
loop_
 _atom_site_type_symbol
 _atom_site_label
 _atom_site_symmetry_multiplicity
 _atom_site_fract_x
 _atom_site_fract_y
 _atom_site_fract_z
 _atom_site_occupancy
  Fe  Fe0  1  -0.00000000  0.50000000  0.50000000  1
  Fe  Fe1  1  0.50000000  0.50000000  -0.00000000  1
  Fe  Fe2  1  0.50000000  0.00000000  0.50000000  1
  Ge  Ge0  1  -0.00000000  0.00000000  0.00000000  1
loop_
_geom_bond_atom_site_label_1
_geom_bond_atom_site_label_2
_geom_bond_distance
_geom_bond_site_symmetry_2
Fe0 Ge0 2.588314 1_555
Fe0 Ge0 2.588314 1_556
Fe0 Ge0 2.588314 1_565
Fe0 Ge0 2.588314 1_566
Fe0 Fe2 2.588384 1_565
Fe0 Fe2 2.588384 1_465
Fe0 Fe2 2.588384 1_455
Fe0 Fe2 2.588384 1_555
Fe0 Fe1 2.588397 1_456
Fe0 Fe1 2.588397 1_556
Fe0 Fe1 2.588397 1_555
Fe0 Fe1 2.588397 1_455
Fe1 Fe2 2.588314 1_555
Fe1 Fe2 2.588314 1_554
Fe1 Fe2 2.588314 1_565
Fe1 Fe2 2.588314 1_564
Fe1 Ge0 2.588384 1_655
Fe1 Ge0 2.588384 1_555
Fe1 Ge0 2.588384 1_565
Fe1 Ge0 2.588384 1_665
Fe2 Ge0 2.588397 1_655
Fe2 Ge0 2.588397 1_555
Fe2 Ge0 2.588397 1_656
Fe2 Ge0 2.588397 1_556
