# generated using pymatgen
data_Na4Mg2In2SiS5O24
_symmetry_space_group_name_H-M   'P 1'
_cell_length_a   8.95356058
_cell_length_b   8.89005796
_cell_length_c   22.86821504
_cell_angle_alpha   90.32285803
_cell_angle_beta   89.53671136
_cell_angle_gamma   119.65610335
_symmetry_Int_Tables_number   1
_chemical_formula_structural   Na4Mg2In2SiS5O24
_chemical_formula_sum   'Na12 Mg6 In6 Si3 S15 O72'
_cell_volume   1581.76830912
_cell_formula_units_Z   3
loop_
 _symmetry_equiv_pos_site_id
 _symmetry_equiv_pos_as_xyz
  1  'x, y, z'
loop_
 _atom_site_type_symbol
 _atom_site_label
 _atom_site_symmetry_multiplicity
 _atom_site_fract_x
 _atom_site_fract_y
 _atom_site_fract_z
 _atom_site_occupancy
  Na  Na0  1  0.99530573  0.63042269  0.23822949  1
  Na  Na1  1  0.98879510  0.34655113  0.75858898  1
  Na  Na2  1  0.37654023  0.99712038  0.74940626  1
  Na  Na3  1  0.65547939  0.97202633  0.59057711  1
  Na  Na4  1  0.67892475  0.68672796  0.07794401  1
  Na  Na5  1  0.33624092  0.03527141  0.42262563  1
  Na  Na6  1  0.01455876  0.00263385  0.50093532  1
  Na  Na7  1  0.01152005  0.99392184  0.00369903  1
  Na  Na8  1  0.66732514  0.32976863  0.84171598  1
  Na  Na9  1  0.66677874  0.33374823  0.33013656  1
  Na  Na10  1  0.31783709  0.66300497  0.16199452  1
  Na  Na11  1  0.35378635  0.68357545  0.66801512  1
  Mg  Mg0  1  0.99389258  0.00085065  0.34799352  1
  Mg  Mg1  1  0.67237147  0.33433055  0.17866512  1
  Mg  Mg2  1  0.67881427  0.34490565  0.98624769  1
  Mg  Mg3  1  0.65754214  0.32898064  0.48307824  1
  Mg  Mg4  1  0.33828891  0.66383506  0.31644453  1
  Mg  Mg5  1  0.35549258  0.67938285  0.81842303  1
  In  In0  1  0.98538840  0.99505329  0.85255523  1
  In  In1  1  0.00157969  0.99528682  0.64846468  1
  In  In2  1  0.00703809  0.00258682  0.15010422  1
  In  In3  1  0.65869310  0.32205450  0.67934478  1
  In  In4  1  0.31712325  0.66948748  0.01857396  1
  In  In5  1  0.33005650  0.66825040  0.51340736  1
  Si  Si0  1  0.70028180  0.99699938  0.74695914  1
  Si  Si1  1  0.36120905  0.03114784  0.57918639  1
  Si  Si2  1  0.96011333  0.62733862  0.08729891  1
  S  S0  1  0.30086343  0.00064368  0.25474416  1
  S  S1  1  0.69967621  0.70315698  0.25214782  1
  S  S2  1  0.00029214  0.29552505  0.25237626  1
  S  S3  1  0.29751229  0.30195907  0.75244472  1
  S  S4  1  0.00091902  0.69738419  0.75172876  1
  S  S5  1  0.96260915  0.33805781  0.58070509  1
  S  S6  1  0.66527936  0.62291221  0.58042548  1
  S  S7  1  0.66671859  0.04335316  0.08262885  1
  S  S8  1  0.37962898  0.33311100  0.08264072  1
  S  S9  1  0.62342670  0.65926948  0.91889930  1
  S  S10  1  0.03686247  0.37199466  0.91416752  1
  S  S11  1  0.33429472  0.97100269  0.91336964  1
  S  S12  1  0.63500377  0.96412697  0.41486518  1
  S  S13  1  0.33248282  0.37039061  0.41465557  1
  S  S14  1  0.03137027  0.66588053  0.41274062  1
  O  O0  1  0.21773020  0.02529900  0.30775026  1
  O  O1  1  0.81958542  0.79594630  0.30076333  1
  O  O2  1  0.98433925  0.18843589  0.30316590  1
  O  O3  1  0.22094014  0.18102531  0.80257133  1
  O  O4  1  0.97584325  0.77881582  0.80443443  1
  O  O5  1  0.83801937  0.04740349  0.79993810  1
  O  O6  1  0.78216842  0.97438784  0.68467237  1
  O  O7  1  0.19359973  0.22682332  0.69852184  1
  O  O8  1  0.04161153  0.81026567  0.69935474  1
  O  O9  1  0.77023249  0.80207946  0.19627540  1
  O  O10  1  0.02745803  0.22042415  0.19729962  1
  O  O11  1  0.18729049  0.96601362  0.20256385  1
  O  O12  1  0.89890315  0.36653554  0.63849067  1
  O  O13  1  0.46997194  0.10339887  0.64125200  1
  O  O14  1  0.65386220  0.53515742  0.63718506  1
  O  O15  1  0.88143956  0.53248775  0.14957280  1
  O  O16  1  0.64000198  0.11904213  0.13635844  1
  O  O17  1  0.47820535  0.34834245  0.13601845  1
  O  O18  1  0.45635499  0.30678595  0.02934495  1
  O  O19  1  0.83683479  0.53874847  0.03179877  1
  O  O20  1  0.67681834  0.13866867  0.02931099  1
  O  O21  1  0.45485141  0.13940824  0.52093184  1
  O  O22  1  0.68376937  0.53353586  0.53007065  1
  O  O23  1  0.85156207  0.32619784  0.53226944  1
  O  O24  1  0.54449871  0.68279593  0.97376046  1
  O  O25  1  0.14302641  0.45716481  0.96625655  1
  O  O26  1  0.30807640  0.86430763  0.96614217  1
  O  O27  1  0.56745690  0.86680980  0.47166600  1
  O  O28  1  0.30566946  0.44429306  0.47036021  1
  O  O29  1  0.14368848  0.70232957  0.46590171  1
  O  O30  1  0.11731193  0.64161668  0.36081418  1
  O  O31  1  0.51213826  0.86926415  0.36739258  1
  O  O32  1  0.34926694  0.48027069  0.36465903  1
  O  O33  1  0.12154011  0.46945509  0.85987076  1
  O  O34  1  0.34923701  0.88429158  0.85952669  1
  O  O35  1  0.52311486  0.65096827  0.86702984  1
  O  O36  1  0.01999504  0.82776072  0.40729554  1
  O  O37  1  0.80658859  0.98370359  0.40602621  1
  O  O38  1  0.18112532  0.19232746  0.40949561  1
  O  O39  1  0.02272371  0.19611116  0.91370438  1
  O  O40  1  0.17602653  0.98953102  0.91007186  1
  O  O41  1  0.80079779  0.81589016  0.91604897  1
  O  O42  1  0.96303570  0.16998264  0.58260368  1
  O  O43  1  0.17040490  0.01357873  0.58505024  1
  O  O44  1  0.81535897  0.80295103  0.58180787  1
  O  O45  1  0.97476895  0.82446658  0.08746623  1
  O  O46  1  0.82691153  0.02911493  0.08675566  1
  O  O47  1  0.19881984  0.18837786  0.08722781  1
  O  O48  1  0.68532060  0.17823598  0.74690338  1
  O  O49  1  0.47414611  0.32790412  0.74577585  1
  O  O50  1  0.84315391  0.52684213  0.74404086  1
  O  O51  1  0.68659930  0.52918112  0.24798993  1
  O  O52  1  0.84251312  0.31182388  0.24841891  1
  O  O53  1  0.47192127  0.15399562  0.24619627  1
  O  O54  1  0.63711220  0.50089985  0.92156502  1
  O  O55  1  0.86384927  0.35359726  0.91933874  1
  O  O56  1  0.48934510  0.14218137  0.91926613  1
  O  O57  1  0.64582199  0.13726583  0.41966874  1
  O  O58  1  0.49033487  0.35394050  0.41855412  1
  O  O59  1  0.86111968  0.51226042  0.42153802  1
  O  O60  1  0.37746174  0.50202518  0.07895291  1
  O  O61  1  0.15502312  0.65071065  0.08374557  1
  O  O62  1  0.52052820  0.85839360  0.07893282  1
  O  O63  1  0.35595796  0.84070174  0.57800825  1
  O  O64  1  0.50737795  0.64024626  0.57760016  1
  O  O65  1  0.14105160  0.48259016  0.57545034  1
  O  O66  1  0.31160633  0.83834980  0.26020040  1
  O  O67  1  0.52785368  0.68475783  0.26101481  1
  O  O68  1  0.15206128  0.47425817  0.25763812  1
  O  O69  1  0.30280752  0.46856789  0.76236415  1
  O  O70  1  0.15011535  0.66885430  0.75894659  1
  O  O71  1  0.50799173  0.83442560  0.75521898  1
loop_
_geom_bond_atom_site_label_1
_geom_bond_atom_site_label_2
_geom_bond_distance
_geom_bond_site_symmetry_2
Na0 O15 2.245663 1_555
Na0 O51 2.455640 1_555
Na0 O68 2.457544 1_655
Na0 O52 2.473045 1_555
Na0 O66 2.553777 1_655
Na0 O11 2.729582 1_655
Na1 O48 2.382698 1_555
Na1 O69 2.464481 1_655
Na1 O70 2.490113 1_655
Na1 O5 2.498816 1_555
Na1 O50 2.541928 1_555
Na1 O33 2.588788 1_655
Na1 O7 2.873431 1_655
Na1 O12 2.899138 1_555
Na2 O71 2.276875 1_555
Na2 O48 2.415079 1_565
Na2 O70 2.611400 1_555
Na2 O49 2.622343 1_565
Na2 O13 2.630666 1_565
Na2 O34 2.680179 1_555
Na2 O8 2.857765 1_555
Na2 O3 2.880328 1_565
Na3 O63 2.355408 1_555
Na3 O42 2.431693 1_565
Na3 O6 2.435717 1_555
Na3 O44 2.543595 1_555
Na3 O64 2.583075 1_555
Na3 O13 2.709051 1_565
Na3 O27 2.857806 1_555
Na4 O45 2.315134 1_555
Na4 O60 2.365535 1_555
Na4 O62 2.545935 1_555
Na4 O19 2.577611 1_555
Na4 O46 2.658478 1_565
Na4 O24 2.670191 1_554
Na4 O9 2.866605 1_555
Na4 O17 2.949505 1_555
Na5 O38 2.428770 1_555
Na5 O57 2.453651 1_555
Na5 O58 2.463937 1_555
Na5 O21 2.465970 1_555
Na5 O36 2.526515 1_545
Na5 O29 2.769147 1_545
Na5 O0 2.825640 1_555
Na5 O31 2.915583 1_545
Na6 O43 2.358720 1_555
Na6 O42 2.558920 1_455
Na6 O44 2.569661 1_445
Na6 O38 2.634596 1_555
Na6 O36 2.653378 1_545
Na6 O37 2.820890 1_445
Na7 O45 2.362001 1_455
Na7 O47 2.568115 1_565
Na7 O40 2.600042 1_554
Na7 O46 2.625228 1_465
Na7 O41 2.674447 1_454
Na7 O39 2.708566 1_564
Na8 O56 2.413166 1_555
Na8 O55 2.443236 1_555
Na8 O54 2.467792 1_555
Na8 O48 2.591916 1_555
Na8 O50 2.791936 1_555
Na8 O49 2.799654 1_555
Na9 O52 2.501547 1_555
Na9 O51 2.511035 1_555
Na9 O53 2.557901 1_555
Na9 O58 2.615564 1_555
Na9 O57 2.643497 1_555
Na9 O59 2.684013 1_555
Na10 O61 2.285024 1_555
Na10 O60 2.578446 1_555
Na10 O62 2.603971 1_555
Na10 O68 2.706794 1_555
Na10 O66 2.742483 1_555
Na10 O67 2.899128 1_555
Na11 O71 2.421498 1_555
Na11 O63 2.488587 1_555
Na11 O64 2.604586 1_555
Na11 O70 2.715183 1_555
Na11 O69 2.772056 1_555
Na11 O65 2.820649 1_555
Mg0 O2 2.000270 1_555
Mg0 O1 2.027873 1_545
Mg0 O37 2.076103 1_545
Mg0 O0 2.110009 1_655
Mg0 O36 2.155477 1_645
Mg0 O38 2.207544 1_655
Mg1 O15 1.944166 1_555
Mg1 O16 2.029254 1_555
Mg1 O17 2.057190 1_555
Mg1 O52 2.291225 1_555
Mg1 O51 2.298715 1_555
Mg1 O53 2.304769 1_555
Mg2 O19 1.909809 1_556
Mg2 O20 2.078298 1_556
Mg2 O18 2.087462 1_556
Mg2 O54 2.189760 1_555
Mg2 O55 2.219353 1_555
Mg2 O56 2.336139 1_555
Mg3 O21 1.961505 1_555
Mg3 O22 2.019014 1_555
Mg3 O23 2.087641 1_555
Mg3 O57 2.194571 1_555
Mg3 O58 2.199080 1_555
Mg3 O59 2.236769 1_555
Mg4 O32 2.017225 1_555
Mg4 O67 2.043909 1_555
Mg4 O31 2.075538 1_555
Mg4 O66 2.124294 1_555
Mg4 O30 2.136863 1_555
Mg4 O68 2.158458 1_555
Mg5 O35 1.989250 1_555
Mg5 O71 1.995339 1_555
Mg5 O34 2.070243 1_555
Mg5 O69 2.118078 1_555
Mg5 O33 2.210974 1_555
Mg5 O70 2.260259 1_555
In0 O5 2.011248 1_565
In0 O39 2.156422 1_665
In0 O4 2.174591 1_555
In0 O41 2.181508 1_555
In0 O40 2.183086 1_655
In0 O3 2.240472 1_665
In1 O43 2.034283 1_565
In1 O6 2.047842 1_455
In1 O8 2.190909 1_555
In1 O7 2.237495 1_565
In1 O44 2.284235 1_455
In1 O42 2.316170 1_465
In2 O45 2.042341 1_445
In2 O10 2.139599 1_555
In2 O11 2.168998 1_545
In2 O47 2.219076 1_555
In2 O9 2.243357 1_445
In2 O46 2.274494 1_455
In3 O13 2.036405 1_555
In3 O48 2.099586 1_555
In3 O14 2.150084 1_555
In3 O12 2.187446 1_555
In3 O49 2.254855 1_555
In3 O50 2.294500 1_555
In4 O61 2.020789 1_555
In4 O25 2.125355 1_554
In4 O26 2.146558 1_554
In4 O24 2.222174 1_554
In4 O62 2.242813 1_555
In4 O60 2.290388 1_555
In5 O63 2.052997 1_555
In5 O28 2.128845 1_555
In5 O29 2.142361 1_555
In5 O27 2.195078 1_555
In5 O65 2.196488 1_555
In5 O64 2.273883 1_555
O0 S0 1.488377 1_555
O1 S1 1.483800 1_555
O2 S2 1.466622 1_655
O3 S3 1.487173 1_555
O4 S4 1.474391 1_655
O5 Si0 1.631159 1_545
O6 Si0 1.653048 1_555
O7 S3 1.492199 1_555
O8 S4 1.489617 1_555
O9 S1 1.501610 1_555
O10 S2 1.495842 1_555
O11 S0 1.502799 1_565
O12 S5 1.504203 1_555
O13 Si1 1.663874 1_555
O14 S6 1.494725 1_555
O15 Si2 1.626280 1_555
O16 S7 1.471361 1_555
O17 S8 1.478047 1_555
O18 S8 1.467810 1_555
O19 Si2 1.612631 1_555
O20 S7 1.465225 1_555
O21 Si1 1.613012 1_555
O22 S6 1.449662 1_555
O23 S5 1.462633 1_555
O24 S9 1.498694 1_555
O25 S10 1.480431 1_555
O26 S11 1.482963 1_555
O27 S12 1.511179 1_555
O28 S13 1.501241 1_555
O29 S14 1.512320 1_555
O30 S14 1.481654 1_555
O31 S12 1.480160 1_555
O32 S13 1.465792 1_555
O33 S10 1.487986 1_555
O34 S11 1.488930 1_555
O35 S9 1.473006 1_555
O36 S14 1.498075 1_555
O37 S12 1.470420 1_555
O38 S13 1.494621 1_555
O39 S10 1.504986 1_555
O40 S11 1.507893 1_555
O41 S9 1.508695 1_555
O42 S5 1.496966 1_555
O43 Si1 1.641160 1_555
O44 S6 1.496732 1_555
O45 Si2 1.691385 1_555
O46 S7 1.504700 1_555
O47 S8 1.491585 1_555
O48 Si0 1.681527 1_545
O49 S3 1.487657 1_555
O50 S4 1.485454 1_655
O51 S1 1.494728 1_555
O52 S2 1.493198 1_655
O53 S0 1.474599 1_555
O54 S9 1.474030 1_555
O55 S10 1.478828 1_655
O56 S11 1.473552 1_545
O57 S12 1.497117 1_545
O58 S13 1.494517 1_555
O59 S14 1.472159 1_655
O60 S8 1.514183 1_555
O61 Si2 1.653586 1_455
O62 S7 1.514769 1_565
O63 Si1 1.670383 1_565
O64 S6 1.497959 1_555
O65 S5 1.478234 1_455
O66 S0 1.498684 1_565
O67 S1 1.476797 1_555
O68 S2 1.499856 1_555
O69 S3 1.474598 1_555
O70 S4 1.488408 1_555
O71 Si0 1.619917 1_555
