# generated using pymatgen
data_Ce4Sb3
_symmetry_space_group_name_H-M   'P 1'
_cell_length_a   8.27340755
_cell_length_b   8.27246072
_cell_length_c   8.27374903
_cell_angle_alpha   109.46754689
_cell_angle_beta   109.47547145
_cell_angle_gamma   109.46916832
_symmetry_Int_Tables_number   1
_chemical_formula_structural   Ce4Sb3
_chemical_formula_sum   'Ce8 Sb6'
_cell_volume   435.92069732
_cell_formula_units_Z   2
loop_
 _symmetry_equiv_pos_site_id
 _symmetry_equiv_pos_as_xyz
  1  'x, y, z'
loop_
 _atom_site_type_symbol
 _atom_site_label
 _atom_site_symmetry_multiplicity
 _atom_site_fract_x
 _atom_site_fract_y
 _atom_site_fract_z
 _atom_site_occupancy
  Ce  Ce0  1  0.14501542  0.14495250  0.14487465  1
  Ce  Ce1  1  0.85498458  0.49993609  -0.00014077  1
  Ce  Ce2  1  0.00015732  0.85502904  0.49996603  1
  Ce  Ce3  1  0.49994559  0.00003509  0.85495388  1
  Ce  Ce4  1  -0.00015732  0.35487271  0.49980971  1
  Ce  Ce5  1  0.50005441  0.00008950  0.35500830  1
  Ce  Ce6  1  0.35500445  0.50002917  0.00002171  1
  Ce  Ce7  1  0.64499555  0.64502471  0.64501725  1
  Sb  Sb0  1  0.24996009  0.62505730  0.37509974  1
  Sb  Sb1  1  0.37505645  0.25002796  0.62511499  1
  Sb  Sb2  1  0.12507922  0.74997772  0.87507778  1
  Sb  Sb3  1  0.87492078  0.12489849  0.74999856  1
  Sb  Sb4  1  0.62494355  0.37497151  0.25005754  1
  Sb  Sb5  1  0.75003991  0.87509721  0.12513965  1
loop_
_geom_bond_atom_site_label_1
_geom_bond_atom_site_label_2
_geom_bond_distance
_geom_bond_site_symmetry_2
Ce0 Sb3 3.196627 1_454
Ce0 Sb2 3.196836 1_544
Ce0 Sb5 3.197978 1_445
Ce0 Sb4 3.420487 1_555
Ce0 Sb0 3.422293 1_555
Ce0 Sb1 3.423183 1_555
Ce1 Sb2 3.196631 1_654
Ce1 Sb3 3.196830 1_554
Ce1 Sb0 3.197975 1_655
Ce1 Sb1 3.420485 1_554
Ce1 Sb5 3.422301 1_555
Ce1 Sb4 3.423173 1_555
Ce2 Sb1 3.196421 1_565
Ce2 Sb5 3.196906 1_455
Ce2 Sb3 3.198433 1_465
Ce2 Sb0 3.419433 1_555
Ce2 Sb4 3.422252 1_455
Ce2 Sb2 3.422456 1_555
Ce3 Sb2 3.197326 1_545
Ce3 Sb4 3.197700 1_556
Ce3 Sb5 3.198130 1_546
Ce3 Sb1 3.419971 1_555
Ce3 Sb0 3.420748 1_545
Ce3 Sb3 3.421045 1_555
Ce4 Sb4 3.196422 1_455
Ce4 Sb0 3.196907 1_555
Ce4 Sb2 3.198424 1_555
Ce4 Sb5 3.419440 1_445
Ce4 Sb1 3.422258 1_555
Ce4 Sb3 3.422454 1_455
Ce5 Sb3 3.197326 1_555
Ce5 Sb1 3.197705 1_555
Ce5 Sb0 3.198130 1_545
Ce5 Sb4 3.419977 1_555
Ce5 Sb5 3.420749 1_545
Ce5 Sb2 3.421045 1_544
Ce6 Sb1 3.197225 1_554
Ce6 Sb4 3.197429 1_555
Ce6 Sb5 3.197445 1_555
Ce6 Sb2 3.420234 1_554
Ce6 Sb3 3.422211 1_454
Ce6 Sb0 3.422524 1_555
Ce7 Sb4 3.197231 1_555
Ce7 Sb1 3.197433 1_555
Ce7 Sb0 3.197445 1_555
Ce7 Sb3 3.420234 1_565
Ce7 Sb2 3.422211 1_655
Ce7 Sb5 3.422524 1_556
