# generated using pymatgen
data_Na8Ca3Zr(PO4)6
_symmetry_space_group_name_H-M   'P 1'
_cell_length_a   9.41291443
_cell_length_b   9.41291408
_cell_length_c   23.05407814
_cell_angle_alpha   90.00000000
_cell_angle_beta   90.00000000
_cell_angle_gamma   120.00000119
_symmetry_Int_Tables_number   1
_chemical_formula_structural   Na8Ca3Zr(PO4)6
_chemical_formula_sum   'Na24 Ca9 Zr3 P18 O72'
_cell_volume   1768.99494767
_cell_formula_units_Z   3
loop_
 _symmetry_equiv_pos_site_id
 _symmetry_equiv_pos_as_xyz
  1  'x, y, z'
loop_
 _atom_site_type_symbol
 _atom_site_label
 _atom_site_symmetry_multiplicity
 _atom_site_fract_x
 _atom_site_fract_y
 _atom_site_fract_z
 _atom_site_occupancy
  Na  Na0  1  0.63441016  0.99920059  0.25252309  1
  Na  Na1  1  0.36479043  0.36558984  0.25252309  1
  Na  Na2  1  0.00079941  0.63520957  0.25252309  1
  Na  Na3  1  0.64601975  0.63462090  0.74260346  1
  Na  Na4  1  0.98860114  0.35398025  0.74260346  1
  Na  Na5  1  0.36537910  0.01139886  0.74260346  1
  Na  Na6  1  0.29697794  0.33597880  0.57903655  1
  Na  Na7  1  0.03900186  0.70302206  0.57903655  1
  Na  Na8  1  0.66402120  0.96099814  0.57903655  1
  Na  Na9  1  0.29618614  0.96237354  0.09208313  1
  Na  Na10  1  0.66618840  0.70381386  0.09208313  1
  Na  Na11  1  0.03762646  0.33381160  0.09208313  1
  Na  Na12  1  0.97344744  0.67869824  0.91450725  1
  Na  Na13  1  0.70524980  0.02655256  0.91450725  1
  Na  Na14  1  0.32130176  0.29475020  0.91450725  1
  Na  Na15  1  0.98027074  0.30086971  0.40867694  1
  Na  Na16  1  0.32059797  0.01972926  0.40867694  1
  Na  Na17  1  0.69913029  0.67940203  0.40867694  1
  Na  Na18  1  0.00000000  0.00000000  0.49610762  1
  Na  Na19  1  0.00000000  0.00000000  0.00672938  1
  Na  Na20  1  0.66666700  0.33333300  0.82733486  1
  Na  Na21  1  0.66666700  0.33333300  0.32378781  1
  Na  Na22  1  0.33333300  0.66666700  0.17672318  1
  Na  Na23  1  0.33333300  0.66666700  0.65607107  1
  Ca  Ca0  1  0.00000000  0.00000000  0.34591419  1
  Ca  Ca1  1  0.00000000  0.00000000  0.84657800  1
  Ca  Ca2  1  0.00000000  0.00000000  0.65123273  1
  Ca  Ca3  1  0.00000000  0.00000000  0.15267005  1
  Ca  Ca4  1  0.66666700  0.33333300  0.68087893  1
  Ca  Ca5  1  0.66666700  0.33333300  0.18201002  1
  Ca  Ca6  1  0.33333300  0.66666700  0.01612713  1
  Ca  Ca7  1  0.33333300  0.66666700  0.51198121  1
  Ca  Ca8  1  0.33333300  0.66666700  0.32209592  1
  Zr  Zr0  1  0.66666700  0.33333300  0.98280422  1
  Zr  Zr1  1  0.66666700  0.33333300  0.48502753  1
  Zr  Zr2  1  0.33333300  0.66666700  0.81891503  1
  P  P0  1  0.30615923  0.99795418  0.24951370  1
  P  P1  1  0.69179495  0.69384077  0.24951370  1
  P  P2  1  0.00204582  0.30820505  0.24951370  1
  P  P3  1  0.30524776  0.31185078  0.75331371  1
  P  P4  1  0.00660302  0.69475224  0.75331371  1
  P  P5  1  0.68814922  0.99339698  0.75331371  1
  P  P6  1  0.96567796  0.33375928  0.58427978  1
  P  P7  1  0.36808232  0.03432204  0.58427978  1
  P  P8  1  0.66624072  0.63191768  0.58427978  1
  P  P9  1  0.96218298  0.63011685  0.08098363  1
  P  P10  1  0.66793487  0.03781702  0.08098363  1
  P  P11  1  0.36988315  0.33206513  0.08098363  1
  P  P12  1  0.63047202  0.66101099  0.91732297  1
  P  P13  1  0.03053798  0.36952798  0.91732297  1
  P  P14  1  0.33898901  0.96946202  0.91732297  1
  P  P15  1  0.64060391  0.97920911  0.42004024  1
  P  P16  1  0.33860420  0.35939609  0.42004024  1
  P  P17  1  0.02079089  0.66139580  0.42004024  1
  O  O0  1  0.22023146  0.01437607  0.30415052  1
  O  O1  1  0.79414461  0.77976854  0.30415052  1
  O  O2  1  0.98562393  0.20585539  0.30415052  1
  O  O3  1  0.22570162  0.20843940  0.80763963  1
  O  O4  1  0.98273778  0.77429838  0.80763963  1
  O  O5  1  0.79156060  0.01726222  0.80763963  1
  O  O6  1  0.76161696  0.96005240  0.69871861  1
  O  O7  1  0.19843544  0.23838304  0.69871861  1
  O  O8  1  0.03994760  0.80156456  0.69871861  1
  O  O9  1  0.77447983  0.79393649  0.19363565  1
  O  O10  1  0.01945666  0.22552017  0.19363565  1
  O  O11  1  0.20606351  0.98054334  0.19363565  1
  O  O12  1  0.89045150  0.35128691  0.64099112  1
  O  O13  1  0.46083641  0.10954850  0.64099112  1
  O  O14  1  0.64871309  0.53916359  0.64099112  1
  O  O15  1  0.88265719  0.53219189  0.13560061  1
  O  O16  1  0.64953570  0.11734281  0.13560061  1
  O  O17  1  0.46780811  0.35046430  0.13560061  1
  O  O18  1  0.47308601  0.32345058  0.02622791  1
  O  O19  1  0.85036557  0.52691399  0.02622791  1
  O  O20  1  0.67654942  0.14963443  0.02622791  1
  O  O21  1  0.47306135  0.14740067  0.53220948  1
  O  O22  1  0.67434032  0.52693865  0.53220948  1
  O  O23  1  0.85259933  0.32565968  0.53220948  1
  O  O24  1  0.55329927  0.68469595  0.97164831  1
  O  O25  1  0.13139568  0.44670073  0.97164831  1
  O  O26  1  0.31530405  0.86860432  0.97164831  1
  O  O27  1  0.56024101  0.87517297  0.47428555  1
  O  O28  1  0.31493095  0.43975899  0.47428555  1
  O  O29  1  0.12482703  0.68506905  0.47428555  1
  O  O30  1  0.09394817  0.62749339  0.36555474  1
  O  O31  1  0.53354422  0.90605183  0.36555474  1
  O  O32  1  0.37250661  0.46645578  0.36555474  1
  O  O33  1  0.12444271  0.48396036  0.86378432  1
  O  O34  1  0.35951665  0.87555729  0.86378432  1
  O  O35  1  0.51603964  0.64048335  0.86378432  1
  O  O36  1  0.99562761  0.81115060  0.41522833  1
  O  O37  1  0.81552300  0.00437239  0.41522833  1
  O  O38  1  0.18884940  0.18447700  0.41522833  1
  O  O39  1  0.00370571  0.19550491  0.90997652  1
  O  O40  1  0.19179920  0.99629429  0.90997652  1
  O  O41  1  0.80449509  0.80820080  0.90997652  1
  O  O42  1  0.97266851  0.17247587  0.58160681  1
  O  O43  1  0.19980736  0.02733149  0.58160681  1
  O  O44  1  0.82752413  0.80019264  0.58160681  1
  O  O45  1  0.96832230  0.79731260  0.07786732  1
  O  O46  1  0.82899030  0.03167770  0.07786732  1
  O  O47  1  0.20268740  0.17100970  0.07786732  1
  O  O48  1  0.66201261  0.14308746  0.74885662  1
  O  O49  1  0.48107585  0.33798739  0.74885662  1
  O  O50  1  0.85691254  0.51892415  0.74885662  1
  O  O51  1  0.67453440  0.52041447  0.24836793  1
  O  O52  1  0.84588107  0.32546560  0.24836793  1
  O  O53  1  0.47958553  0.15411893  0.24836793  1
  O  O54  1  0.63839421  0.49673688  0.91895872  1
  O  O55  1  0.85834367  0.36160579  0.91895872  1
  O  O56  1  0.50326312  0.14165633  0.91895872  1
  O  O57  1  0.65829280  0.15545672  0.42738158  1
  O  O58  1  0.49716492  0.34170720  0.42738158  1
  O  O59  1  0.84454328  0.50283508  0.42738158  1
  O  O60  1  0.34954374  0.48401535  0.07591854  1
  O  O61  1  0.13447062  0.65045626  0.07591854  1
  O  O62  1  0.51598465  0.86552938  0.07591854  1
  O  O63  1  0.34870593  0.86149459  0.57896329  1
  O  O64  1  0.51278766  0.65129407  0.57896329  1
  O  O65  1  0.13850541  0.48721234  0.57896329  1
  O  O66  1  0.32296641  0.84146326  0.25231409  1
  O  O67  1  0.51849585  0.67703359  0.25231409  1
  O  O68  1  0.15853674  0.48150415  0.25231409  1
  O  O69  1  0.32241112  0.48841385  0.76089973  1
  O  O70  1  0.16600173  0.67758888  0.76089973  1
  O  O71  1  0.51158615  0.83399827  0.76089973  1
loop_
_geom_bond_atom_site_label_1
_geom_bond_atom_site_label_2
_geom_bond_distance
_geom_bond_site_symmetry_2
Na0 O53 2.526786 1_565
Na0 O66 2.538910 1_555
Na0 O67 2.660447 1_555
Na0 O52 2.699994 1_565
Na0 O31 2.761911 1_555
Na0 O16 2.892155 1_565
Na1 O51 2.526794 1_555
Na1 O67 2.538910 1_555
Na1 O68 2.660455 1_555
Na1 O53 2.700001 1_555
Na1 O32 2.761913 1_555
Na1 O17 2.892158 1_555
Na2 O52 2.526794 1_455
Na2 O68 2.538902 1_555
Na2 O66 2.660448 1_555
Na2 O51 2.699993 1_455
Na2 O30 2.761910 1_555
Na2 O15 2.892156 1_455
Na3 O49 2.427448 1_555
Na3 O14 2.513654 1_555
Na3 O69 2.675541 1_555
Na3 O50 2.703583 1_555
Na3 O71 2.770577 1_555
Na3 O6 2.873668 1_555
Na4 O50 2.427440 1_555
Na4 O12 2.513651 1_555
Na4 O70 2.675540 1_655
Na4 O48 2.703576 1_555
Na4 O69 2.770569 1_655
Na4 O7 2.873668 1_655
Na5 O48 2.427449 1_555
Na5 O13 2.513652 1_555
Na5 O71 2.675533 1_545
Na5 O49 2.703574 1_555
Na5 O70 2.770570 1_545
Na5 O8 2.873668 1_545
Na6 O65 2.524899 1_555
Na6 O43 2.573592 1_555
Na6 O28 2.578698 1_555
Na6 O64 2.628032 1_555
Na6 O42 2.644407 1_455
Na6 O7 2.909496 1_555
Na7 O63 2.524883 1_555
Na7 O44 2.573602 1_455
Na7 O29 2.578691 1_555
Na7 O65 2.628019 1_555
Na7 O43 2.644407 1_565
Na7 O8 2.909497 1_555
Na8 O64 2.524883 1_555
Na8 O42 2.573595 1_565
Na8 O27 2.578696 1_555
Na8 O63 2.628036 1_555
Na8 O44 2.644399 1_555
Na8 O6 2.909494 1_555
Na9 O11 2.524915 1_555
Na9 O47 2.543064 1_565
Na9 O61 2.570429 1_555
Na9 O62 2.671407 1_555
Na9 O45 2.692728 1_455
Na9 O26 2.946066 1_554
Na10 O9 2.524913 1_555
Na10 O45 2.543055 1_555
Na10 O62 2.570445 1_555
Na10 O60 2.671421 1_555
Na10 O46 2.692728 1_565
Na10 O24 2.946072 1_554
Na11 O10 2.524912 1_555
Na11 O46 2.543057 1_455
Na11 O60 2.570429 1_555
Na11 O61 2.671425 1_555
Na11 O47 2.692720 1_555
Na11 O25 2.946070 1_554
Na12 O41 2.442261 1_555
Na12 O4 2.609352 1_555
Na12 O55 2.619038 1_555
Na12 O40 2.651039 1_655
Na12 O54 2.736597 1_555
Na12 O19 2.891724 1_556
Na13 O39 2.442268 1_655
Na13 O5 2.609355 1_555
Na13 O56 2.619020 1_555
Na13 O41 2.651046 1_545
Na13 O55 2.736596 1_555
Na13 O20 2.891718 1_556
Na14 O40 2.442269 1_545
Na14 O3 2.609353 1_555
Na14 O54 2.619035 1_555
Na14 O39 2.651037 1_555
Na14 O56 2.736613 1_555
Na14 O18 2.891727 1_556
Na15 O37 2.426683 1_555
Na15 O2 2.579619 1_555
Na15 O57 2.663932 1_555
Na15 O38 2.688649 1_655
Na15 O59 2.803767 1_555
Na15 O30 2.880264 1_655
Na16 O38 2.426675 1_555
Na16 O0 2.579615 1_555
Na16 O58 2.663933 1_555
Na16 O36 2.688642 1_445
Na16 O57 2.803784 1_555
Na16 O31 2.880264 1_545
Na17 O36 2.426683 1_555
Na17 O1 2.579617 1_555
Na17 O59 2.663948 1_555
Na17 O37 2.688640 1_565
Na17 O58 2.803782 1_555
Na17 O32 2.880264 1_555
Na18 O38 2.562265 1_555
Na18 O37 2.562265 1_455
Na18 O36 2.562265 1_445
Na18 O44 2.646672 1_445
Na18 O42 2.646672 1_455
Na18 O43 2.646672 1_555
Na19 O45 2.418613 1_445
Na19 O47 2.418613 1_555
Na19 O46 2.418613 1_455
Na19 O39 2.880793 1_554
Na19 O41 2.880793 1_444
Na19 O40 2.880793 1_544
Na20 O48 2.530546 1_555
Na20 O50 2.530546 1_555
Na20 O49 2.530546 1_555
Na20 O56 2.703287 1_555
Na20 O54 2.703287 1_555
Na20 O55 2.703287 1_555
Na21 O51 2.449354 1_555
Na21 O53 2.449354 1_555
Na21 O52 2.449354 1_555
Na21 O57 2.895066 1_555
Na21 O59 2.895066 1_555
Na21 O58 2.895066 1_555
Na22 O68 2.431903 1_555
Na22 O66 2.431903 1_555
Na22 O67 2.431903 1_555
Na22 O62 2.939787 1_555
Na22 O61 2.939787 1_555
Na22 O60 2.939787 1_555
Na23 O63 2.505748 1_555
Na23 O65 2.505748 1_555
Na23 O64 2.505748 1_555
Na23 O69 2.914435 1_555
Na23 O71 2.914435 1_555
Na23 O70 2.914435 1_555
Ca0 O1 2.227606 1_445
Ca0 O2 2.227606 1_455
Ca0 O0 2.227606 1_555
Ca0 O38 2.375289 1_555
Ca0 O37 2.375289 1_455
Ca0 O36 2.375289 1_445
Ca1 O4 2.236198 1_445
Ca1 O3 2.236198 1_555
Ca1 O5 2.236198 1_455
Ca1 O39 2.336639 1_555
Ca1 O41 2.336639 1_445
Ca1 O40 2.336639 1_545
Ca2 O7 2.351829 1_555
Ca2 O8 2.351829 1_545
Ca2 O6 2.351829 1_445
Ca2 O44 2.386663 1_445
Ca2 O42 2.386663 1_455
Ca2 O43 2.386663 1_555
Ca3 O10 2.245660 1_555
Ca3 O9 2.245660 1_445
Ca3 O11 2.245660 1_545
Ca3 O45 2.476681 1_445
Ca3 O47 2.476681 1_555
Ca3 O46 2.476681 1_455
Ca4 O13 2.226069 1_555
Ca4 O14 2.226069 1_555
Ca4 O12 2.226069 1_555
Ca4 O48 2.363536 1_555
Ca4 O50 2.363536 1_555
Ca4 O49 2.363536 1_555
Ca5 O16 2.230780 1_555
Ca5 O15 2.230780 1_555
Ca5 O17 2.230780 1_555
Ca5 O51 2.305750 1_555
Ca5 O53 2.305750 1_555
Ca5 O52 2.305750 1_555
Ca6 O25 2.239637 1_554
Ca6 O26 2.239637 1_554
Ca6 O24 2.239637 1_554
Ca6 O62 2.267521 1_555
Ca6 O61 2.267521 1_555
Ca6 O60 2.267522 1_555
Ca7 O28 2.230961 1_555
Ca7 O27 2.230961 1_555
Ca7 O29 2.230961 1_555
Ca7 O63 2.345916 1_555
Ca7 O65 2.345917 1_555
Ca7 O64 2.345917 1_555
Ca8 O31 2.320840 1_555
Ca8 O32 2.320840 1_555
Ca8 O30 2.320840 1_555
Ca8 O68 2.337802 1_555
Ca8 O66 2.337802 1_555
Ca8 O67 2.337802 1_555
O0 P0 1.545873 1_545
O1 P1 1.545873 1_555
O2 P2 1.545873 1_655
O3 P3 1.532286 1_555
O4 P4 1.532286 1_655
O5 P5 1.532286 1_545
O6 P5 1.542070 1_555
O7 P3 1.542070 1_555
O8 P4 1.542070 1_555
O9 P1 1.555531 1_555
O10 P2 1.555531 1_555
O11 P0 1.555531 1_555
O12 P6 1.534542 1_555
O13 P7 1.534542 1_555
O14 P8 1.534542 1_555
O15 P9 1.518367 1_555
O16 P10 1.518367 1_555
O17 P11 1.518367 1_555
O18 P11 1.619429 1_555
O18 Zr0 2.040003 1_554
O19 P9 1.619429 1_555
O19 Zr0 2.040003 1_554
O20 P10 1.619429 1_555
O20 Zr0 2.040003 1_554
O21 P7 1.580711 1_555
O21 Zr1 2.092338 1_555
O22 P8 1.580711 1_555
O22 Zr1 2.092338 1_555
O23 P6 1.580711 1_555
O23 Zr1 2.092338 1_555
O24 P12 1.519177 1_555
O25 P13 1.519177 1_555
O26 P14 1.519177 1_555
O27 P15 1.534396 1_555
O28 P16 1.534396 1_555
O29 P17 1.534396 1_555
O30 P17 1.540654 1_555
O31 P15 1.540654 1_555
O32 P16 1.540654 1_555
O33 P13 1.585212 1_555
O33 Zr2 2.124231 1_555
O34 P14 1.585212 1_555
O34 Zr2 2.124231 1_555
O35 P12 1.585212 1_555
O35 Zr2 2.124231 1_555
O36 P17 1.545751 1_655
O37 P15 1.545761 1_545
O38 P16 1.545757 1_555
O39 P13 1.536882 1_555
O40 P14 1.536872 1_555
O41 P12 1.536878 1_555
O42 P6 1.553317 1_555
O43 P7 1.553326 1_555
O44 P8 1.553322 1_555
O45 P9 1.547384 1_555
O46 P10 1.547375 1_555
O47 P11 1.547379 1_555
O48 P5 1.550188 1_545
O49 P3 1.550197 1_555
O50 P4 1.550194 1_655
O51 P1 1.557803 1_555
O52 P2 1.557794 1_655
O53 P0 1.557799 1_545
O54 P12 1.585348 1_555
O54 Zr0 2.238843 1_555
O55 P13 1.585330 1_655
O55 Zr0 2.238843 1_555
O56 P14 1.585338 1_545
O56 Zr0 2.238843 1_555
O57 P15 1.591361 1_545
O57 Zr1 2.108032 1_555
O58 P16 1.591380 1_555
O58 Zr1 2.108032 1_555
O59 P17 1.591369 1_655
O59 Zr1 2.108032 1_555
O60 P11 1.539437 1_555
O61 P9 1.539418 1_455
O62 P10 1.539426 1_565
O63 P7 1.548576 1_565
O64 P8 1.548595 1_555
O65 P6 1.548584 1_455
O66 P0 1.559510 1_555
O67 P1 1.559519 1_555
O68 P2 1.559515 1_555
O69 P3 1.596978 1_555
O69 Zr2 2.107661 1_555
O70 P4 1.596968 1_555
O70 Zr2 2.107661 1_555
O71 P5 1.596974 1_555
O71 Zr2 2.107661 1_555
