# generated using pymatgen
data_Ce3InC
_symmetry_space_group_name_H-M   'P 1'
_cell_length_a   5.04591409
_cell_length_b   5.04594670
_cell_length_c   5.04587929
_cell_angle_alpha   90.00000000
_cell_angle_beta   90.00000000
_cell_angle_gamma   90.00000000
_symmetry_Int_Tables_number   1
_chemical_formula_structural   Ce3InC
_chemical_formula_sum   'Ce3 In1 C1'
_cell_volume   128.47521933
_cell_formula_units_Z   1
loop_
 _symmetry_equiv_pos_site_id
 _symmetry_equiv_pos_as_xyz
  1  'x, y, z'
loop_
 _atom_site_type_symbol
 _atom_site_label
 _atom_site_symmetry_multiplicity
 _atom_site_fract_x
 _atom_site_fract_y
 _atom_site_fract_z
 _atom_site_occupancy
  Ce  Ce0  1  0.50000000  0.50000000  0.00000000  1
  Ce  Ce1  1  -0.00000000  0.50000000  0.50000000  1
  Ce  Ce2  1  0.50000000  0.00000000  0.50000000  1
  In  In0  1  -0.00000000  0.00000000  0.00000000  1
  C  C0  1  0.50000000  0.50000000  0.50000000  1
loop_
_geom_bond_atom_site_label_1
_geom_bond_atom_site_label_2
_geom_bond_distance
_geom_bond_site_symmetry_2
Ce0 In0 3.568012 1_565
Ce0 In0 3.568012 1_665
Ce0 In0 3.568012 1_655
Ce0 In0 3.568012 1_555
Ce1 In0 3.567999 1_555
Ce1 In0 3.567999 1_556
Ce1 In0 3.567999 1_566
Ce1 In0 3.567999 1_565
Ce2 In0 3.567988 1_655
Ce2 In0 3.567988 1_656
Ce2 In0 3.567988 1_555
Ce2 In0 3.567988 1_556
C0 Ce0 2.522940 1_556
C0 Ce0 2.522940 1_555
C0 Ce1 2.522957 1_555
C0 Ce1 2.522957 1_655
C0 Ce2 2.522973 1_565
C0 Ce2 2.522973 1_555
