# generated using pymatgen
data_CeCu6
_symmetry_space_group_name_H-M   'P 1'
_cell_length_a   5.02641700
_cell_length_b   8.05954700
_cell_length_c   10.09324000
_cell_angle_alpha   90.00000000
_cell_angle_beta   90.00000000
_cell_angle_gamma   90.00000000
_symmetry_Int_Tables_number   1
_chemical_formula_structural   CeCu6
_chemical_formula_sum   'Ce4 Cu24'
_cell_volume   408.88365298
_cell_formula_units_Z   4
loop_
 _symmetry_equiv_pos_site_id
 _symmetry_equiv_pos_as_xyz
  1  'x, y, z'
loop_
 _atom_site_type_symbol
 _atom_site_label
 _atom_site_symmetry_multiplicity
 _atom_site_fract_x
 _atom_site_fract_y
 _atom_site_fract_z
 _atom_site_occupancy
  Ce  Ce0  1  0.25000000  0.25943600  0.56474300  1
  Ce  Ce1  1  0.75000000  0.74056400  0.43525700  1
  Ce  Ce2  1  0.25000000  0.75943600  0.93525700  1
  Ce  Ce3  1  0.75000000  0.24056400  0.06474300  1
  Cu  Cu0  1  0.25000000  0.90004900  0.48431000  1
  Cu  Cu1  1  0.75000000  0.09995100  0.51569000  1
  Cu  Cu2  1  0.25000000  0.40004900  0.01569000  1
  Cu  Cu3  1  0.75000000  0.59995100  0.98431000  1
  Cu  Cu4  1  0.50514800  0.06452400  0.30830700  1
  Cu  Cu5  1  0.00514800  0.93547600  0.69169300  1
  Cu  Cu6  1  0.99485200  0.56452400  0.19169300  1
  Cu  Cu7  1  0.49485200  0.43547600  0.80830700  1
  Cu  Cu8  1  0.49485200  0.93547600  0.69169300  1
  Cu  Cu9  1  0.99485200  0.06452400  0.30830700  1
  Cu  Cu10  1  0.00514800  0.43547600  0.80830700  1
  Cu  Cu11  1  0.50514800  0.56452400  0.19169300  1
  Cu  Cu12  1  0.75000000  0.35406900  0.35668200  1
  Cu  Cu13  1  0.25000000  0.64593100  0.64331800  1
  Cu  Cu14  1  0.75000000  0.85406900  0.14331800  1
  Cu  Cu15  1  0.25000000  0.14593100  0.85668200  1
  Cu  Cu16  1  0.75000000  0.68254200  0.74392900  1
  Cu  Cu17  1  0.25000000  0.31745800  0.25607100  1
  Cu  Cu18  1  0.75000000  0.18254200  0.75607100  1
  Cu  Cu19  1  0.25000000  0.81745800  0.24392900  1
  Cu  Cu20  1  0.75000000  0.93832400  0.90508100  1
  Cu  Cu21  1  0.25000000  0.06167600  0.09491900  1
  Cu  Cu22  1  0.75000000  0.43832400  0.59491900  1
  Cu  Cu23  1  0.25000000  0.56167600  0.40508100  1
loop_
_geom_bond_atom_site_label_1
_geom_bond_atom_site_label_2
_geom_bond_distance
_geom_bond_site_symmetry_2
Ce0 Cu1 2.865927 1_555
Ce0 Cu1 2.865927 1_455
Ce0 Cu22 2.913356 1_455
Ce0 Cu22 2.913356 1_555
Ce0 Cu23 2.920727 1_555
Ce0 Cu0 3.008115 1_545
Ce0 Cu15 3.085348 1_555
Ce0 Cu7 3.093732 1_555
Ce0 Cu10 3.093732 1_555
Ce0 Cu17 3.150400 1_555
Ce0 Cu8 3.158114 1_545
Ce0 Cu5 3.158114 1_545
Ce0 Cu13 3.214349 1_555
Ce0 Cu18 3.229474 1_455
Ce0 Cu18 3.229474 1_555
Ce0 Cu9 3.288105 1_455
Ce0 Cu4 3.288105 1_555
Ce0 Cu12 3.362732 1_455
Ce0 Cu12 3.362732 1_555
Ce1 Cu0 2.865927 1_555
Ce1 Cu0 2.865927 1_655
Ce1 Cu23 2.913356 1_655
Ce1 Cu23 2.913356 1_555
Ce1 Cu22 2.920727 1_555
Ce1 Cu1 3.008115 1_565
Ce1 Cu14 3.085348 1_555
Ce1 Cu6 3.093732 1_555
Ce1 Cu11 3.093732 1_555
Ce1 Cu16 3.150400 1_555
Ce1 Cu4 3.158114 1_565
Ce1 Cu9 3.158114 1_565
Ce1 Cu12 3.214349 1_555
Ce1 Cu19 3.229474 1_555
Ce1 Cu19 3.229474 1_655
Ce1 Cu5 3.288105 1_655
Ce1 Cu8 3.288105 1_555
Ce1 Cu13 3.362732 1_555
Ce1 Cu13 3.362732 1_655
Ce2 Cu3 2.865927 1_555
Ce2 Cu3 2.865927 1_455
Ce2 Cu20 2.913356 1_555
Ce2 Cu20 2.913356 1_455
Ce2 Cu21 2.920727 1_566
Ce2 Cu2 3.008115 1_556
Ce2 Cu13 3.085348 1_555
Ce2 Cu8 3.093732 1_555
Ce2 Cu5 3.093732 1_555
Ce2 Cu19 3.150400 1_556
Ce2 Cu10 3.158114 1_555
Ce2 Cu7 3.158114 1_555
Ce2 Cu15 3.214349 1_565
Ce2 Cu16 3.229474 1_455
Ce2 Cu16 3.229474 1_555
Ce2 Cu6 3.288105 1_456
Ce2 Cu11 3.288105 1_556
Ce2 Cu14 3.362732 1_456
Ce2 Cu14 3.362732 1_556
Ce3 Cu2 2.865927 1_655
Ce3 Cu2 2.865927 1_555
Ce3 Cu21 2.913356 1_655
Ce3 Cu21 2.913356 1_555
Ce3 Cu20 2.920727 1_544
Ce3 Cu3 3.008115 1_554
Ce3 Cu12 3.085348 1_555
Ce3 Cu4 3.093732 1_555
Ce3 Cu9 3.093732 1_555
Ce3 Cu18 3.150400 1_554
Ce3 Cu11 3.158114 1_555
Ce3 Cu6 3.158114 1_555
Ce3 Cu14 3.214349 1_545
Ce3 Cu17 3.229474 1_655
Ce3 Cu17 3.229474 1_555
Ce3 Cu10 3.288105 1_654
Ce3 Cu7 3.288105 1_554
Ce3 Cu15 3.362732 1_654
Ce3 Cu15 3.362732 1_554
Cu0 Cu8 2.444905 1_555
Cu0 Cu5 2.444905 1_555
Cu0 Cu19 2.515878 1_555
Cu0 Cu9 2.560800 1_465
Cu0 Cu4 2.560800 1_565
Cu0 Cu13 2.601987 1_555
Cu0 Cu23 2.841960 1_555
Cu0 Cu1 3.002039 1_565
Cu0 Cu1 3.002039 1_465
Cu1 Cu4 2.444905 1_555
Cu1 Cu9 2.444905 1_555
Cu1 Cu18 2.515878 1_555
Cu1 Cu5 2.560800 1_645
Cu1 Cu8 2.560800 1_545
Cu1 Cu12 2.601987 1_555
Cu1 Cu22 2.841960 1_555
Cu2 Cu7 2.444905 1_554
Cu2 Cu6 2.560800 1_455
Cu2 Cu21 2.841960 1_555
Cu2 Cu3 3.002039 1_454
Cu2 Cu3 3.002039 1_554
Cu3 Cu6 2.444905 1_556
Cu3 Cu7 2.560800 1_555
Cu4 Cu9 2.461457 1_555
Cu4 Cu9 2.564960 1_455
Cu5 Cu8 2.461457 1_555
Cu5 Cu8 2.564960 1_455
Cu10 Cu2 2.444905 1_556
Cu10 Cu16 2.456015 1_455
Cu10 Cu7 2.461457 1_555
Cu10 Cu18 2.465430 1_455
Cu10 Cu22 2.506798 1_455
Cu10 Cu3 2.560800 1_455
Cu10 Cu7 2.564960 1_455
Cu10 Cu13 2.676720 1_555
Cu10 Cu15 2.683055 1_555
Cu11 Cu3 2.444905 1_554
Cu11 Cu17 2.456015 1_555
Cu11 Cu6 2.461457 1_555
Cu11 Cu19 2.465430 1_555
Cu11 Cu23 2.506798 1_555
Cu11 Cu2 2.560800 1_555
Cu11 Cu6 2.564960 1_455
Cu11 Cu12 2.676720 1_555
Cu11 Cu14 2.683055 1_555
Cu12 Cu22 2.498627 1_555
Cu12 Cu6 2.676720 1_555
Cu12 Cu9 2.683055 1_555
Cu12 Cu4 2.683055 1_555
Cu12 Cu17 2.726629 1_555
Cu12 Cu17 2.726629 1_655
Cu12 Cu23 3.058515 1_555
Cu12 Cu23 3.058515 1_655
Cu13 Cu23 2.498627 1_555
Cu13 Cu7 2.676720 1_555
Cu13 Cu5 2.683055 1_555
Cu13 Cu8 2.683055 1_555
Cu13 Cu16 2.726629 1_555
Cu13 Cu16 2.726629 1_455
Cu13 Cu22 3.058515 1_455
Cu13 Cu22 3.058515 1_555
Cu14 Cu20 2.498627 1_554
Cu14 Cu3 2.601987 1_554
Cu14 Cu9 2.676720 1_565
Cu14 Cu4 2.676720 1_565
Cu14 Cu6 2.683055 1_555
Cu14 Cu19 2.726629 1_655
Cu14 Cu19 2.726629 1_555
Cu14 Cu21 3.058515 1_665
Cu14 Cu21 3.058515 1_565
Cu15 Cu21 2.498627 1_556
Cu15 Cu2 2.601987 1_556
Cu15 Cu8 2.676720 1_545
Cu15 Cu5 2.676720 1_545
Cu15 Cu7 2.683055 1_555
Cu15 Cu18 2.726629 1_455
Cu15 Cu18 2.726629 1_555
Cu15 Cu20 3.058515 1_545
Cu15 Cu20 3.058515 1_445
Cu16 Cu7 2.456015 1_555
Cu16 Cu5 2.465430 1_655
Cu16 Cu8 2.465430 1_555
Cu16 Cu22 2.477125 1_555
Cu16 Cu3 2.515878 1_555
Cu16 Cu20 2.625906 1_555
Cu17 Cu6 2.456015 1_455
Cu17 Cu9 2.465430 1_455
Cu17 Cu4 2.465430 1_555
Cu17 Cu23 2.477125 1_555
Cu17 Cu2 2.515878 1_555
Cu17 Cu21 2.625906 1_555
Cu18 Cu5 2.456015 1_645
Cu18 Cu8 2.456015 1_545
Cu18 Cu7 2.465430 1_555
Cu18 Cu20 2.477125 1_545
Cu18 Cu22 2.625906 1_555
Cu19 Cu4 2.456015 1_565
Cu19 Cu9 2.456015 1_465
Cu19 Cu6 2.465430 1_455
Cu19 Cu21 2.477125 1_565
Cu19 Cu23 2.625906 1_555
Cu20 Cu5 2.506798 1_655
Cu20 Cu8 2.506798 1_555
Cu20 Cu3 2.841960 1_555
Cu21 Cu4 2.506798 1_555
Cu21 Cu9 2.506798 1_455
Cu22 Cu7 2.506798 1_555
Cu23 Cu6 2.506798 1_455
