# generated using pymatgen
data_MgMn6O7F5
_symmetry_space_group_name_H-M   'P 1'
_cell_length_a   5.12154616
_cell_length_b   8.10384608
_cell_length_c   5.87595906
_cell_angle_alpha   99.12054518
_cell_angle_beta   96.08659336
_cell_angle_gamma   82.71945014
_symmetry_Int_Tables_number   1
_chemical_formula_structural   MgMn6O7F5
_chemical_formula_sum   'Mg1 Mn6 O7 F5'
_cell_volume   237.93098497
_cell_formula_units_Z   1
loop_
 _symmetry_equiv_pos_site_id
 _symmetry_equiv_pos_as_xyz
  1  'x, y, z'
loop_
 _atom_site_type_symbol
 _atom_site_label
 _atom_site_symmetry_multiplicity
 _atom_site_fract_x
 _atom_site_fract_y
 _atom_site_fract_z
 _atom_site_occupancy
  Mg  Mg0  1  0.50071713  0.67249188  0.65854737  1
  Mn  Mn0  1  0.48365564  0.03184532  0.47425838  1
  Mn  Mn1  1  0.54974018  0.67465837  0.14322612  1
  Mn  Mn2  1  0.49570360  0.29643636  0.86265816  1
  Mn  Mn3  1  0.99908912  0.66181573  0.67869951  1
  Mn  Mn4  1  0.97310951  0.33317439  0.33974980  1
  Mn  Mn5  1  0.00484149  0.97800694  0.99160243  1
  O  O0  1  0.79605042  0.48028028  0.58074247  1
  O  O1  1  0.77486202  0.74957207  0.91740975  1
  O  O2  1  0.70205935  0.09135327  0.77138959  1
  O  O3  1  0.70283443  0.41833987  0.11789687  1
  O  O4  1  0.27842471  0.23930044  0.55762142  1
  O  O5  1  0.29556757  0.90759994  0.21220197  1
  O  O6  1  0.19443442  0.85074255  0.74487511  1
  F  F0  1  0.80134588  0.09301284  0.25911067  1
  F  F1  1  0.68781389  0.79911004  0.46508626  1
  F  F2  1  0.32458062  0.53602677  0.85991349  1
  F  F3  1  0.23273868  0.58679815  0.41225166  1
  F  F4  1  0.18854235  0.23276480  0.07180596  1
loop_
_geom_bond_atom_site_label_1
_geom_bond_atom_site_label_2
_geom_bond_distance
_geom_bond_site_symmetry_2
Mg0 O1 2.035522 1_555
Mg0 O6 2.041250 1_555
Mg0 O0 2.060794 1_555
Mn0 O4 1.889806 1_555
Mn0 O5 1.937155 1_545
Mn0 O2 1.996915 1_555
Mn1 O1 2.053228 1_554
Mn1 O3 2.113171 1_555
Mn1 O5 2.160749 1_555
Mn2 O2 1.886564 1_555
Mn2 O3 1.951696 1_556
Mn2 O4 2.027283 1_555
Mn3 O0 1.889243 1_555
Mn3 O1 1.900090 1_555
Mn3 O6 1.900843 1_655
Mn4 O0 1.926616 1_555
Mn4 O3 1.937062 1_555
Mn4 O4 2.060461 1_655
Mn5 O6 1.918073 1_555
Mn5 O5 1.957714 1_556
Mn5 O2 2.124389 1_465
Mn5 O1 2.278648 1_455
F0 Mn5 2.015531 1_644
F0 Mn4 2.199862 1_555
F0 Mn0 2.308795 1_555
F1 Mg0 2.028126 1_555
F1 Mn0 2.033047 1_565
F1 Mn1 2.094386 1_555
F1 Mn3 2.218946 1_555
F2 Mn2 2.028256 1_555
F2 Mg0 2.081059 1_555
F2 Mn3 2.118697 1_455
F2 Mn1 2.166013 1_556
F3 Mg0 1.990506 1_555
F3 Mn3 2.040573 1_455
F3 Mn4 2.543412 1_455
F3 Mn1 2.614528 1_555
F4 Mn4 2.023116 1_455
F4 Mn2 2.251235 1_554
F4 Mn5 2.336521 1_544
