# generated using pymatgen
data_ZnN6
_symmetry_space_group_name_H-M   'P 1'
_cell_length_a   6.19438566
_cell_length_b   5.56453164
_cell_length_c   7.01626366
_cell_angle_alpha   89.86292069
_cell_angle_beta   112.48255498
_cell_angle_gamma   116.68179474
_symmetry_Int_Tables_number   1
_chemical_formula_structural   ZnN6
_chemical_formula_sum   'Zn2 N12'
_cell_volume   195.42196931
_cell_formula_units_Z   2
loop_
 _symmetry_equiv_pos_site_id
 _symmetry_equiv_pos_as_xyz
  1  'x, y, z'
loop_
 _atom_site_type_symbol
 _atom_site_label
 _atom_site_symmetry_multiplicity
 _atom_site_fract_x
 _atom_site_fract_y
 _atom_site_fract_z
 _atom_site_occupancy
  Zn  Zn0  1  0.71786530  0.02440485  0.56743574  1
  Zn  Zn1  1  0.28458621  0.30769707  0.43249934  1
  N  N0  1  0.44557791  0.09488577  0.35379660  1
  N  N1  1  0.55583016  0.64965660  0.64567089  1
  N  N2  1  0.38387134  0.04176226  0.16561339  1
  N  N3  1  0.61524400  0.65706069  0.83361453  1
  N  N4  1  0.32078696  0.99376247  0.98821513  1
  N  N5  1  0.67616949  0.67109206  0.01080826  1
  N  N6  1  0.00130502  0.01780707  0.50026596  1
  N  N7  1  0.00155398  0.79804668  0.50112834  1
  N  N8  1  0.00176468  0.59292885  0.50203087  1
  N  N9  1  0.82669218  0.26743665  0.82855722  1
  N  N10  1  0.17018967  0.44061390  0.17071618  1
  N  N11  1  0.99856110  0.34470309  0.99964556  1
loop_
_geom_bond_atom_site_label_1
_geom_bond_atom_site_label_2
_geom_bond_distance
_geom_bond_site_symmetry_2
N0 N2 1.221149 1_555
N0 Zn0 1.975635 1_555
N0 Zn1 2.046116 1_555
N1 N3 1.221266 1_555
N1 Zn1 1.975166 1_555
N1 Zn0 2.047783 1_565
N2 N4 1.144169 1_544
N3 N5 1.144258 1_556
N6 N7 1.223554 1_545
N6 Zn0 1.999216 1_455
N6 Zn1 1.999920 1_555
N7 N8 1.141971 1_555
N9 Zn0 1.971915 1_555
N10 N11 1.171890 1_454
N10 Zn1 1.972700 1_555
N11 N9 1.171850 1_555
