# generated using pymatgen
data_Ba2NdMgRuO6
_symmetry_space_group_name_H-M   'P 1'
_cell_length_a   6.80970336
_cell_length_b   6.81149129
_cell_length_c   6.81148802
_cell_angle_alpha   51.83833182
_cell_angle_beta   51.83537582
_cell_angle_gamma   51.83538517
_symmetry_Int_Tables_number   1
_chemical_formula_structural   Ba2NdMgRuO6
_chemical_formula_sum   'Ba2 Nd1 Mg1 Ru1 O6'
_cell_volume   180.50820624
_cell_formula_units_Z   1
loop_
 _symmetry_equiv_pos_site_id
 _symmetry_equiv_pos_as_xyz
  1  'x, y, z'
loop_
 _atom_site_type_symbol
 _atom_site_label
 _atom_site_symmetry_multiplicity
 _atom_site_fract_x
 _atom_site_fract_y
 _atom_site_fract_z
 _atom_site_occupancy
  Ba  Ba0  1  0.80060947  0.79999310  0.79999209  1
  Ba  Ba1  1  0.22009449  0.21949669  0.21949569  1
  Nd  Nd0  1  0.00784406  0.00768480  0.00768480  1
  Mg  Mg0  1  0.62824798  0.62714685  0.62714685  1
  Ru  Ru0  1  0.48639782  0.48636393  0.48636393  1
  O  O0  1  0.73584776  0.24945217  0.73521291  1
  O  O1  1  0.26304111  0.26368565  0.74237173  1
  O  O2  1  0.25024278  0.73538789  0.73538789  1
  O  O3  1  0.74159768  0.26341429  0.26341329  1
  O  O4  1  0.73584776  0.73521191  0.24945317  1
  O  O5  1  0.26304111  0.74237073  0.26368665  1
loop_
_geom_bond_atom_site_label_1
_geom_bond_atom_site_label_2
_geom_bond_distance
_geom_bond_site_symmetry_2
Ba0 O0 2.581561 1_565
Ba0 O4 2.581567 1_556
Ba0 O2 2.582889 1_655
Ba0 Mg0 3.046044 1_555
Ba0 O5 3.072928 1_655
Ba0 O1 3.072936 1_655
Ba0 O3 3.078030 1_565
Ba0 O3 3.078031 1_556
Ba0 O1 3.079801 1_565
Ba0 O5 3.079806 1_556
Ba1 O1 2.909206 1_554
Ba1 O5 2.909214 1_545
Ba1 O3 2.915067 1_455
Ba1 O4 2.998983 1_455
Ba1 O0 2.998987 1_455
Ba1 O0 2.999016 1_554
Ba1 O4 2.999023 1_545
Ba1 O2 2.999902 1_554
Ba1 O2 2.999907 1_545
Nd0 O1 2.301327 1_554
Nd0 O5 2.301331 1_545
Nd0 O3 2.301987 1_455
Nd0 O2 2.507741 1_544
Nd0 O0 2.507778 1_454
Nd0 O4 2.507782 1_445
Mg0 O4 1.921985 1_555
Mg0 O2 1.921989 1_555
Mg0 O0 1.921991 1_555
O0 Ru0 2.270075 1_555
O1 Ru0 1.989868 1_555
O2 Ru0 2.270193 1_555
O3 Ru0 1.989814 1_555
O4 Ru0 2.270072 1_555
O5 Ru0 1.989863 1_555
