# generated using pymatgen
data_MgMo2(WS4)2
_symmetry_space_group_name_H-M   'P 1'
_cell_length_a   6.37843000
_cell_length_b   6.37844576
_cell_length_c   87.91358802
_cell_angle_alpha   90.00645251
_cell_angle_beta   90.00000000
_cell_angle_gamma   119.99992865
_symmetry_Int_Tables_number   1
_chemical_formula_structural   MgMo2(WS4)2
_chemical_formula_sum   'Mg8 Mo16 W16 S64'
_cell_volume   3097.53060332
_cell_formula_units_Z   8
loop_
 _symmetry_equiv_pos_site_id
 _symmetry_equiv_pos_as_xyz
  1  'x, y, z'
loop_
 _atom_site_type_symbol
 _atom_site_label
 _atom_site_symmetry_multiplicity
 _atom_site_fract_x
 _atom_site_fract_y
 _atom_site_fract_z
 _atom_site_occupancy
  Mg  Mg0_0  1  0.49999250  0.49998500  0.18775050  1
  Mg  Mg0_1  1  0.49999250  0.49998500  0.68775050  1
  Mg  Mg0_2  1  0.49999250  0.99998500  0.18775050  1
  Mg  Mg0_3  1  0.49999250  0.99998500  0.68775050  1
  Mg  Mg0_4  1  0.99999250  0.49998500  0.18775050  1
  Mg  Mg0_5  1  0.99999250  0.49998500  0.68775050  1
  Mg  Mg0_6  1  0.99999250  0.99998500  0.18775050  1
  Mg  Mg0_7  1  0.99999250  0.99998500  0.68775050  1
  Mo  Mo0_0  1  0.16672200  0.33344400  0.04719950  1
  Mo  Mo0_1  1  0.16672200  0.33344400  0.54719950  1
  Mo  Mo0_2  1  0.16672200  0.83344400  0.04719950  1
  Mo  Mo0_3  1  0.16672200  0.83344400  0.54719950  1
  Mo  Mo0_4  1  0.66672200  0.33344400  0.04719950  1
  Mo  Mo0_5  1  0.66672200  0.33344400  0.54719950  1
  Mo  Mo0_6  1  0.66672200  0.83344400  0.04719950  1
  Mo  Mo0_7  1  0.66672200  0.83344400  0.54719950  1
  Mo  Mo1_0  1  0.33332300  0.16664600  0.32847350  1
  Mo  Mo1_1  1  0.33332300  0.16664600  0.82847350  1
  Mo  Mo1_2  1  0.33332300  0.66664600  0.32847350  1
  Mo  Mo1_3  1  0.33332300  0.66664600  0.82847350  1
  Mo  Mo1_4  1  0.83332300  0.16664600  0.32847350  1
  Mo  Mo1_5  1  0.83332300  0.16664600  0.82847350  1
  Mo  Mo1_6  1  0.83332300  0.66664600  0.32847350  1
  Mo  Mo1_7  1  0.83332300  0.66664600  0.82847350  1
  W  W0_0  1  0.16660850  0.33321750  0.23948850  1
  W  W0_1  1  0.16660850  0.33321750  0.73948850  1
  W  W0_2  1  0.16660850  0.83321750  0.23948850  1
  W  W0_3  1  0.16660850  0.83321750  0.73948850  1
  W  W0_4  1  0.66660850  0.33321750  0.23948850  1
  W  W0_5  1  0.66660850  0.33321750  0.73948850  1
  W  W0_6  1  0.66660850  0.83321750  0.23948850  1
  W  W0_7  1  0.66660850  0.83321750  0.73948850  1
  W  W1_0  1  0.33334500  0.16668950  0.13636300  1
  W  W1_1  1  0.33334500  0.16668950  0.63636300  1
  W  W1_2  1  0.33334500  0.66668950  0.13636300  1
  W  W1_3  1  0.33334500  0.66668950  0.63636300  1
  W  W1_4  1  0.83334500  0.16668950  0.13636300  1
  W  W1_5  1  0.83334500  0.16668950  0.63636300  1
  W  W1_6  1  0.83334500  0.66668950  0.13636300  1
  W  W1_7  1  0.83334500  0.66668950  0.63636300  1
  S  S0_0  1  0.16670200  0.33340400  0.15438300  1
  S  S0_1  1  0.16670200  0.33340400  0.65438300  1
  S  S0_2  1  0.16670200  0.83340400  0.15438300  1
  S  S0_3  1  0.16670200  0.83340400  0.65438300  1
  S  S0_4  1  0.66670200  0.33340400  0.15438300  1
  S  S0_5  1  0.66670200  0.33340400  0.65438300  1
  S  S0_6  1  0.66670200  0.83340400  0.15438300  1
  S  S0_7  1  0.66670200  0.83340400  0.65438300  1
  S  S1_0  1  0.16667850  0.33335850  0.34628150  1
  S  S1_1  1  0.16667850  0.33335850  0.84628150  1
  S  S1_2  1  0.16667850  0.83335850  0.34628150  1
  S  S1_3  1  0.16667850  0.83335850  0.84628150  1
  S  S1_4  1  0.66667850  0.33335850  0.34628150  1
  S  S1_5  1  0.66667850  0.33335850  0.84628150  1
  S  S1_6  1  0.66667850  0.83335850  0.34628150  1
  S  S1_7  1  0.66667850  0.83335850  0.84628150  1
  S  S2_0  1  0.33337050  0.16673950  0.02941050  1
  S  S2_1  1  0.33337050  0.16673950  0.52941050  1
  S  S2_2  1  0.33337050  0.66673950  0.02941050  1
  S  S2_3  1  0.33337050  0.66673950  0.52941050  1
  S  S2_4  1  0.83337050  0.16673950  0.02941050  1
  S  S2_5  1  0.83337050  0.16673950  0.52941050  1
  S  S2_6  1  0.83337050  0.66673950  0.02941050  1
  S  S2_7  1  0.83337050  0.66673950  0.52941050  1
  S  S3_0  1  0.33325850  0.16651700  0.22146350  1
  S  S3_1  1  0.33325850  0.16651700  0.72146350  1
  S  S3_2  1  0.33325850  0.66651700  0.22146350  1
  S  S3_3  1  0.33325850  0.66651700  0.72146350  1
  S  S3_4  1  0.83325850  0.16651700  0.22146350  1
  S  S3_5  1  0.83325850  0.16651700  0.72146350  1
  S  S3_6  1  0.83325850  0.66651700  0.22146350  1
  S  S3_7  1  0.83325850  0.66651700  0.72146350  1
  S  S4_0  1  0.33341050  0.16682050  0.06499200  1
  S  S4_1  1  0.33341050  0.16682050  0.56499200  1
  S  S4_2  1  0.33341050  0.66682050  0.06499200  1
  S  S4_3  1  0.33341050  0.66682050  0.56499200  1
  S  S4_4  1  0.83341050  0.16682050  0.06499200  1
  S  S4_5  1  0.83341050  0.16682050  0.56499200  1
  S  S4_6  1  0.83341050  0.66682050  0.06499200  1
  S  S4_7  1  0.83341050  0.66682050  0.56499200  1
  S  S5_0  1  0.33329850  0.16659550  0.25734550  1
  S  S5_1  1  0.33329850  0.16659550  0.75734550  1
  S  S5_2  1  0.33329850  0.66659550  0.25734550  1
  S  S5_3  1  0.33329850  0.66659550  0.75734550  1
  S  S5_4  1  0.83329850  0.16659550  0.25734550  1
  S  S5_5  1  0.83329850  0.16659550  0.75734550  1
  S  S5_6  1  0.83329850  0.66659550  0.25734550  1
  S  S5_7  1  0.83329850  0.66659550  0.75734550  1
  S  S6_0  1  0.16665750  0.33331550  0.11851300  1
  S  S6_1  1  0.16665750  0.33331550  0.61851300  1
  S  S6_2  1  0.16665750  0.83331550  0.11851300  1
  S  S6_3  1  0.16665750  0.83331550  0.61851300  1
  S  S6_4  1  0.66665750  0.33331550  0.11851300  1
  S  S6_5  1  0.66665750  0.33331550  0.61851300  1
  S  S6_6  1  0.66665750  0.83331550  0.11851300  1
  S  S6_7  1  0.66665750  0.83331550  0.61851300  1
  S  S7_0  1  0.16663350  0.33326750  0.31067350  1
  S  S7_1  1  0.16663350  0.33326750  0.81067350  1
  S  S7_2  1  0.16663350  0.83326750  0.31067350  1
  S  S7_3  1  0.16663350  0.83326750  0.81067350  1
  S  S7_4  1  0.66663350  0.33326750  0.31067350  1
  S  S7_5  1  0.66663350  0.33326750  0.81067350  1
  S  S7_6  1  0.66663350  0.83326750  0.31067350  1
  S  S7_7  1  0.66663350  0.83326750  0.81067350  1
loop_
_geom_bond_atom_site_label_1
_geom_bond_atom_site_label_2
_geom_bond_distance
_geom_bond_site_symmetry_2
Mg0_0 Mg0_4 3.189215 1_555
Mg0_0 Mg0_4 3.189215 1_455
Mg0_0 Mg0_6 3.189222 1_445
Mg0_0 Mg0_6 3.189222 1_555
Mg0_0 Mg0_2 3.189223 1_555
Mg0_0 Mg0_2 3.189223 1_545
Mg0_1 Mg0_5 3.189215 1_455
Mg0_1 Mg0_5 3.189215 1_555
Mg0_1 Mg0_7 3.189222 1_555
Mg0_1 Mg0_7 3.189222 1_445
Mg0_1 Mg0_3 3.189223 1_555
Mg0_1 Mg0_3 3.189223 1_545
Mg0_2 Mg0_6 3.189215 1_455
Mg0_2 Mg0_6 3.189215 1_555
Mg0_2 Mg0_4 3.189222 1_455
Mg0_2 Mg0_4 3.189222 1_565
Mg0_3 Mg0_7 3.189215 1_455
Mg0_3 Mg0_7 3.189215 1_555
Mg0_3 Mg0_5 3.189222 1_455
Mg0_3 Mg0_5 3.189222 1_565
Mg0_4 Mg0_6 3.189223 1_555
Mg0_4 Mg0_6 3.189223 1_545
Mg0_5 Mg0_7 3.189223 1_555
Mg0_5 Mg0_7 3.189223 1_545
Mo0_0 S2_4 2.415809 1_455
Mo0_0 S2_2 2.415809 1_555
Mo0_0 S2_0 2.415815 1_555
Mo0_0 S4_4 2.415994 1_455
Mo0_0 S4_0 2.415997 1_555
Mo0_0 S4_2 2.416039 1_555
Mo0_1 S2_5 2.415809 1_455
Mo0_1 S2_3 2.415809 1_555
Mo0_1 S2_1 2.415815 1_555
Mo0_1 S4_5 2.415994 1_455
Mo0_1 S4_1 2.415997 1_555
Mo0_1 S4_3 2.416039 1_555
Mo0_2 S2_6 2.415809 1_455
Mo0_2 S2_0 2.415809 1_565
Mo0_2 S2_2 2.415815 1_555
Mo0_2 S4_6 2.415994 1_455
Mo0_2 S4_2 2.415997 1_555
Mo0_2 S4_0 2.416039 1_565
Mo0_3 S2_7 2.415809 1_455
Mo0_3 S2_1 2.415809 1_565
Mo0_3 S2_3 2.415815 1_555
Mo0_3 S4_7 2.415994 1_455
Mo0_3 S4_3 2.415997 1_555
Mo0_3 S4_1 2.416039 1_565
Mo0_4 S2_0 2.415809 1_555
Mo0_4 S2_6 2.415809 1_555
Mo0_4 S2_4 2.415815 1_555
Mo0_4 S4_0 2.415994 1_555
Mo0_4 S4_4 2.415997 1_555
Mo0_4 S4_6 2.416039 1_555
Mo0_5 S2_1 2.415809 1_555
Mo0_5 S2_7 2.415809 1_555
Mo0_5 S2_5 2.415815 1_555
Mo0_5 S4_1 2.415994 1_555
Mo0_5 S4_5 2.415997 1_555
Mo0_5 S4_7 2.416039 1_555
Mo0_6 S2_2 2.415809 1_555
Mo0_6 S2_4 2.415809 1_565
Mo0_6 S2_6 2.415815 1_555
Mo0_6 S4_2 2.415994 1_555
Mo0_6 S4_6 2.415997 1_555
Mo0_6 S4_4 2.416039 1_565
Mo0_7 S2_3 2.415809 1_555
Mo0_7 S2_5 2.415809 1_565
Mo0_7 S2_7 2.415815 1_555
Mo0_7 S4_3 2.415994 1_555
Mo0_7 S4_7 2.415997 1_555
Mo0_7 S4_5 2.416039 1_565
Mo1_0 S7_4 2.416417 1_555
Mo1_0 S7_0 2.416419 1_555
Mo1_0 S7_2 2.416474 1_545
Mo1_0 S1_2 2.416857 1_545
Mo1_0 S1_4 2.416907 1_555
Mo1_0 S1_0 2.416914 1_555
Mo1_1 S7_5 2.416417 1_555
Mo1_1 S7_1 2.416419 1_555
Mo1_1 S7_3 2.416474 1_545
Mo1_1 S1_3 2.416857 1_545
Mo1_1 S1_5 2.416907 1_555
Mo1_1 S1_1 2.416914 1_555
Mo1_2 S7_6 2.416417 1_555
Mo1_2 S7_2 2.416419 1_555
Mo1_2 S7_0 2.416474 1_555
Mo1_2 S1_0 2.416857 1_555
Mo1_2 S1_6 2.416907 1_555
Mo1_2 S1_2 2.416914 1_555
Mo1_3 S7_7 2.416417 1_555
Mo1_3 S7_3 2.416419 1_555
Mo1_3 S7_1 2.416474 1_555
Mo1_3 S1_1 2.416857 1_555
Mo1_3 S1_7 2.416907 1_555
Mo1_3 S1_3 2.416914 1_555
Mo1_4 S7_0 2.416417 1_655
Mo1_4 S7_4 2.416419 1_555
Mo1_4 S7_6 2.416474 1_545
Mo1_4 S1_6 2.416857 1_545
Mo1_4 S1_0 2.416907 1_655
Mo1_4 S1_4 2.416914 1_555
Mo1_5 S7_1 2.416417 1_655
Mo1_5 S7_5 2.416419 1_555
Mo1_5 S7_7 2.416474 1_545
Mo1_5 S1_7 2.416857 1_545
Mo1_5 S1_1 2.416907 1_655
Mo1_5 S1_5 2.416914 1_555
Mo1_6 S7_2 2.416417 1_655
Mo1_6 S7_6 2.416419 1_555
Mo1_6 S7_4 2.416474 1_555
Mo1_6 S1_4 2.416857 1_555
Mo1_6 S1_2 2.416907 1_655
Mo1_6 S1_6 2.416914 1_555
Mo1_7 S7_3 2.416417 1_655
Mo1_7 S7_7 2.416419 1_555
Mo1_7 S7_5 2.416474 1_555
Mo1_7 S1_5 2.416857 1_555
Mo1_7 S1_3 2.416907 1_655
Mo1_7 S1_7 2.416914 1_555
S0_0 W1_2 2.428965 1_555
S0_0 W1_4 2.429027 1_455
S0_0 W1_0 2.429029 1_555
S0_1 W1_3 2.428965 1_555
S0_1 W1_5 2.429027 1_455
S0_1 W1_1 2.429029 1_555
S0_2 W1_0 2.428965 1_565
S0_2 W1_6 2.429027 1_455
S0_2 W1_2 2.429029 1_555
S0_3 W1_1 2.428965 1_565
S0_3 W1_7 2.429027 1_455
S0_3 W1_3 2.429029 1_555
S0_4 W1_6 2.428965 1_555
S0_4 W1_0 2.429027 1_555
S0_4 W1_4 2.429029 1_555
S0_5 W1_7 2.428965 1_555
S0_5 W1_1 2.429027 1_555
S0_5 W1_5 2.429029 1_555
S0_6 W1_4 2.428965 1_565
S0_6 W1_2 2.429027 1_555
S0_6 W1_6 2.429029 1_555
S0_7 W1_5 2.428965 1_565
S0_7 W1_3 2.429027 1_555
S0_7 W1_7 2.429029 1_555
S3_0 W0_4 2.429284 1_555
S3_0 W0_0 2.429286 1_555
S3_0 W0_2 2.429310 1_545
S3_1 W0_5 2.429284 1_555
S3_1 W0_1 2.429286 1_555
S3_1 W0_3 2.429310 1_545
S3_2 W0_6 2.429284 1_555
S3_2 W0_2 2.429286 1_555
S3_2 W0_0 2.429310 1_555
S3_3 W0_7 2.429284 1_555
S3_3 W0_3 2.429286 1_555
S3_3 W0_1 2.429310 1_555
S3_4 W0_0 2.429284 1_655
S3_4 W0_4 2.429286 1_555
S3_4 W0_6 2.429310 1_545
S3_5 W0_1 2.429284 1_655
S3_5 W0_5 2.429286 1_555
S3_5 W0_7 2.429310 1_545
S3_6 W0_2 2.429284 1_655
S3_6 W0_6 2.429286 1_555
S3_6 W0_4 2.429310 1_555
S3_7 W0_3 2.429284 1_655
S3_7 W0_7 2.429286 1_555
S3_7 W0_5 2.429310 1_555
S5_0 W0_4 2.419663 1_555
S5_0 W0_0 2.419672 1_555
S5_0 W0_2 2.419720 1_545
S5_1 W0_5 2.419663 1_555
S5_1 W0_1 2.419672 1_555
S5_1 W0_3 2.419720 1_545
S5_2 W0_6 2.419663 1_555
S5_2 W0_2 2.419672 1_555
S5_2 W0_0 2.419720 1_555
S5_3 W0_7 2.419663 1_555
S5_3 W0_3 2.419672 1_555
S5_3 W0_1 2.419720 1_555
S5_4 W0_0 2.419663 1_655
S5_4 W0_4 2.419672 1_555
S5_4 W0_6 2.419720 1_545
S5_5 W0_1 2.419663 1_655
S5_5 W0_5 2.419672 1_555
S5_5 W0_7 2.419720 1_545
S5_6 W0_2 2.419663 1_655
S5_6 W0_6 2.419672 1_555
S5_6 W0_4 2.419720 1_555
S5_7 W0_3 2.419663 1_655
S5_7 W0_7 2.419672 1_555
S5_7 W0_5 2.419720 1_555
S6_0 W1_4 2.419275 1_455
S6_0 W1_0 2.419279 1_555
S6_0 W1_2 2.419304 1_555
S6_1 W1_5 2.419275 1_455
S6_1 W1_1 2.419279 1_555
S6_1 W1_3 2.419304 1_555
S6_2 W1_6 2.419275 1_455
S6_2 W1_2 2.419279 1_555
S6_2 W1_0 2.419304 1_565
S6_3 W1_7 2.419275 1_455
S6_3 W1_3 2.419279 1_555
S6_3 W1_1 2.419304 1_565
S6_4 W1_0 2.419275 1_555
S6_4 W1_4 2.419279 1_555
S6_4 W1_6 2.419304 1_555
S6_5 W1_1 2.419275 1_555
S6_5 W1_5 2.419279 1_555
S6_5 W1_7 2.419304 1_555
S6_6 W1_2 2.419275 1_555
S6_6 W1_6 2.419279 1_555
S6_6 W1_4 2.419304 1_565
S6_7 W1_3 2.419275 1_555
S6_7 W1_7 2.419279 1_555
S6_7 W1_5 2.419304 1_565
