# generated using pymatgen
data_RbMgIn(WO4)2
_symmetry_space_group_name_H-M   'P 1'
_cell_length_a   6.15600300
_cell_length_b   6.15600276
_cell_length_c   7.18479000
_cell_angle_alpha   90.00000000
_cell_angle_beta   90.00000000
_cell_angle_gamma   119.99999589
_symmetry_Int_Tables_number   1
_chemical_formula_structural   RbMgIn(WO4)2
_chemical_formula_sum   'Rb1 Mg1 In1 W2 O8'
_cell_volume   235.79921641
_cell_formula_units_Z   1
loop_
 _symmetry_equiv_pos_site_id
 _symmetry_equiv_pos_as_xyz
  1  'x, y, z'
loop_
 _atom_site_type_symbol
 _atom_site_label
 _atom_site_symmetry_multiplicity
 _atom_site_fract_x
 _atom_site_fract_y
 _atom_site_fract_z
 _atom_site_occupancy
  Rb  Rb0  1  0.00000000  0.00000000  0.50070700  1
  Mg  Mg0  1  0.66666700  0.33333300  0.22875800  1
  In  In0  1  0.00000000  0.00000000  0.98956000  1
  W  W0  1  0.33333400  0.66666700  0.24315600  1
  W  W1  1  0.66666600  0.33333400  0.77648100  1
  O  O0  1  0.83733300  0.16266700  0.81251600  1
  O  O1  1  0.83733300  0.67466900  0.81251600  1
  O  O2  1  0.32533200  0.16266700  0.81251600  1
  O  O3  1  0.66500200  0.83250000  0.17147800  1
  O  O4  1  0.33333400  0.66666700  0.48822600  1
  O  O5  1  0.66666600  0.33333400  0.51279700  1
  O  O6  1  0.16749900  0.33499800  0.17147800  1
  O  O7  1  0.16749900  0.83250000  0.17147800  1
loop_
_geom_bond_atom_site_label_1
_geom_bond_atom_site_label_2
_geom_bond_distance
_geom_bond_site_symmetry_2
Mg0 O5 2.040761 1_555
In0 O1 2.150876 1_445
In0 O2 2.150880 1_555
In0 O0 2.150889 1_455
In0 O6 2.213145 1_556
In0 O3 2.213145 1_446
In0 O7 2.213150 1_546
O0 W1 1.838064 1_555
O0 Rb0 2.833221 1_655
O1 W1 1.838069 1_555
O1 Rb0 2.833211 1_665
O2 W1 1.838064 1_555
O2 Rb0 2.833215 1_555
O3 W0 1.841676 1_555
O3 Rb0 2.963944 1_665
O4 W0 1.760776 1_555
O5 W1 1.894514 1_555
O6 W0 1.841681 1_555
O6 Rb0 2.963944 1_555
O7 W0 1.841676 1_555
O7 Rb0 2.963947 1_565
