# generated using pymatgen
data_MgNbTlBr4O
_symmetry_space_group_name_H-M   'P 1'
_cell_length_a   3.94099743
_cell_length_b   7.47070993
_cell_length_c   8.18258051
_cell_angle_alpha   103.42764903
_cell_angle_beta   90.00910949
_cell_angle_gamma   105.29524622
_symmetry_Int_Tables_number   1
_chemical_formula_structural   MgNbTlBr4O
_chemical_formula_sum   'Mg1 Nb1 Tl1 Br4 O1'
_cell_volume   225.54154907
_cell_formula_units_Z   1
loop_
 _symmetry_equiv_pos_site_id
 _symmetry_equiv_pos_as_xyz
  1  'x, y, z'
loop_
 _atom_site_type_symbol
 _atom_site_label
 _atom_site_symmetry_multiplicity
 _atom_site_fract_x
 _atom_site_fract_y
 _atom_site_fract_z
 _atom_site_occupancy
  Mg  Mg0  1  0.16825300  0.33523500  0.57982900  1
  Nb  Nb0  1  0.48501800  0.96904200  0.48592500  1
  Tl  Tl0  1  0.98459800  0.97412600  0.00488100  1
  Br  Br0  1  0.64724500  0.29401200  0.79635500  1
  Br  Br1  1  0.35626800  0.71479400  0.67685200  1
  Br  Br2  1  0.36699700  0.73335800  0.18958000  1
  Br  Br3  1  0.64850500  0.29541900  0.34199000  1
  O  O0  1  0.02575100  0.05068100  0.51625600  1
loop_
_geom_bond_atom_site_label_1
_geom_bond_atom_site_label_2
_geom_bond_distance
_geom_bond_site_symmetry_2
Mg0 O0 1.990367 1_555
Nb0 O0 2.053941 1_665
Nb0 O0 2.054705 1_565
Br0 Mg0 2.712269 1_555
Br0 Mg0 2.714934 1_655
Br0 Nb0 3.011889 1_545
Br1 Mg0 2.658119 1_555
Br1 Nb0 2.678783 1_555
Br2 Nb0 2.604061 1_555
Br2 Tl0 3.224520 1_555
Br2 Tl0 3.237670 1_455
Br3 Mg0 2.734958 1_655
Br3 Mg0 2.736325 1_555
Br3 Nb0 2.872720 1_545
