# generated using pymatgen
data_MgNi4(OF2)4
_symmetry_space_group_name_H-M   'P 1'
_cell_length_a   7.33035071
_cell_length_b   4.01961359
_cell_length_c   8.24759844
_cell_angle_alpha   91.37248877
_cell_angle_beta   114.61246385
_cell_angle_gamma   89.95772906
_symmetry_Int_Tables_number   1
_chemical_formula_structural   MgNi4(OF2)4
_chemical_formula_sum   'Mg1 Ni4 O4 F8'
_cell_volume   220.86298039
_cell_formula_units_Z   1
loop_
 _symmetry_equiv_pos_site_id
 _symmetry_equiv_pos_as_xyz
  1  'x, y, z'
loop_
 _atom_site_type_symbol
 _atom_site_label
 _atom_site_symmetry_multiplicity
 _atom_site_fract_x
 _atom_site_fract_y
 _atom_site_fract_z
 _atom_site_occupancy
  Mg  Mg0  1  0.35669600  0.73546200  0.94987100  1
  Ni  Ni0  1  0.32618500  0.20665800  0.65040000  1
  Ni  Ni1  1  0.32259400  0.27886200  0.20239700  1
  Ni  Ni2  1  0.71111200  0.71831500  0.82351200  1
  Ni  Ni3  1  0.70317100  0.78203600  0.34770100  1
  O  O0  1  0.01030600  0.62423600  0.93938800  1
  O  O1  1  0.99098000  0.87444200  0.44305700  1
  O  O2  1  0.03412700  0.12545900  0.56378200  1
  O  O3  1  0.03131200  0.38017400  0.05479900  1
  F  F0  1  0.32309000  0.23322500  0.93447200  1
  F  F1  1  0.29594200  0.30395000  0.41802900  1
  F  F2  1  0.36285700  0.71418400  0.71692700  1
  F  F3  1  0.37216700  0.77708400  0.19326200  1
  F  F4  1  0.62919400  0.22419300  0.79633200  1
  F  F5  1  0.62692600  0.27556100  0.30361000  1
  F  F6  1  0.68680900  0.75150500  0.57943100  1
  F  F7  1  0.64986600  0.74465300  0.05624400  1
loop_
_geom_bond_atom_site_label_1
_geom_bond_atom_site_label_2
_geom_bond_distance
_geom_bond_site_symmetry_2
Mg0 O0 2.543945 1_555
Ni0 O2 1.978938 1_555
Ni1 O3 2.015990 1_555
Ni2 O0 2.033878 1_655
Ni3 O1 1.952585 1_555
O0 O3 1.347074 1_556
O1 O2 1.341465 1_665
F0 Mg0 2.016299 1_545
F0 Mg0 2.028486 1_555
F0 Ni1 2.214470 1_556
F0 Ni0 2.352327 1_555
F1 Ni1 1.868690 1_555
F1 Ni0 1.885987 1_555
F2 Mg0 1.940327 1_555
F2 Ni0 2.054349 1_565
F2 Ni0 2.087939 1_555
F2 Ni2 2.328110 1_555
F3 Mg0 1.965906 1_554
F3 Ni1 2.044378 1_555
F3 Ni1 2.054330 1_565
F3 Ni3 2.221409 1_555
F4 Ni0 2.038755 1_555
F4 Ni2 2.055250 1_555
F4 Ni2 2.110356 1_545
F5 Ni1 2.030533 1_555
F5 Ni3 2.060005 1_545
F5 Ni3 2.094314 1_555
F6 Ni2 1.953495 1_555
F6 Ni3 1.970885 1_555
F7 Mg0 1.953851 1_554
F7 Ni2 2.145967 1_554
F7 Ni3 2.270246 1_555
