# generated using pymatgen
data_PSe
_symmetry_space_group_name_H-M   'P 1'
_cell_length_a   7.36098145
_cell_length_b   11.61788647
_cell_length_c   11.97435322
_cell_angle_alpha   115.84627267
_cell_angle_beta   90.00000000
_cell_angle_gamma   90.00000000
_symmetry_Int_Tables_number   1
_chemical_formula_structural   PSe
_chemical_formula_sum   'P16 Se16'
_cell_volume   921.59793343
_cell_formula_units_Z   16
loop_
 _symmetry_equiv_pos_site_id
 _symmetry_equiv_pos_as_xyz
  1  'x, y, z'
loop_
 _atom_site_type_symbol
 _atom_site_label
 _atom_site_symmetry_multiplicity
 _atom_site_fract_x
 _atom_site_fract_y
 _atom_site_fract_z
 _atom_site_occupancy
  P  P0  1  0.99657740  0.76271546  0.16129141  1
  P  P1  1  0.49657740  0.23728454  0.33870859  1
  P  P2  1  0.00342260  0.23728454  0.83870859  1
  P  P3  1  0.50342260  0.76271546  0.66129141  1
  P  P4  1  0.81238456  0.67101008  0.24193142  1
  P  P5  1  0.31238456  0.32898992  0.25806858  1
  P  P6  1  0.18761544  0.32898992  0.75806858  1
  P  P7  1  0.68761544  0.67101008  0.74193142  1
  P  P8  1  0.19588651  0.82497009  0.43737339  1
  P  P9  1  0.69588651  0.17502991  0.06262661  1
  P  P10  1  0.80411349  0.17502991  0.56262661  1
  P  P11  1  0.30411349  0.82497009  0.93737339  1
  P  P12  1  0.37336702  0.67866748  0.30283428  1
  P  P13  1  0.87336702  0.32133252  0.19716572  1
  P  P14  1  0.62663298  0.32133252  0.69716572  1
  P  P15  1  0.12663298  0.67866748  0.80283428  1
  Se  Se0  1  0.58679669  0.82152998  0.30258225  1
  Se  Se1  1  0.08679669  0.17847002  0.19741775  1
  Se  Se2  1  0.41320331  0.17847002  0.69741775  1
  Se  Se3  1  0.91320331  0.82152998  0.80258225  1
  Se  Se4  1  0.95515773  0.69688993  0.42105308  1
  Se  Se5  1  0.45515773  0.30311007  0.07894692  1
  Se  Se6  1  0.04484227  0.30311007  0.57894692  1
  Se  Se7  1  0.54484227  0.69688993  0.92105308  1
  Se  Se8  1  0.10642006  0.93231250  0.32834007  1
  Se  Se9  1  0.60642006  0.06768750  0.17165993  1
  Se  Se10  1  0.89357994  0.06768750  0.67165993  1
  Se  Se11  1  0.39357894  0.93231250  0.82834007  1
  Se  Se12  1  0.21903971  0.61296851  0.11950503  1
  Se  Se13  1  0.71903971  0.38703149  0.38049497  1
  Se  Se14  1  0.78096029  0.38703149  0.88049497  1
  Se  Se15  1  0.28096029  0.61296851  0.61950503  1
loop_
_geom_bond_atom_site_label_1
_geom_bond_atom_site_label_2
_geom_bond_distance
_geom_bond_site_symmetry_2
P0 P4 2.191540 1_555
P0 Se8 2.258490 1_655
P0 Se12 2.280264 1_655
P1 P5 2.191540 1_555
P1 Se9 2.258490 1_555
P1 Se13 2.280264 1_555
P2 P6 2.191540 1_555
P2 Se10 2.258490 1_455
P2 Se14 2.280264 1_455
P3 P7 2.191540 1_555
P3 Se11 2.258492 1_555
P3 Se15 2.280264 1_555
P4 Se4 2.287587 1_555
P4 Se0 2.288132 1_555
P5 Se5 2.287587 1_555
P5 Se1 2.288132 1_555
P6 Se6 2.287587 1_555
P6 Se2 2.288132 1_555
P7 Se7 2.287587 1_555
P7 Se3 2.288132 1_555
P8 Se8 2.261239 1_555
P8 Se4 2.266899 1_455
P9 Se9 2.261239 1_555
P9 Se5 2.266899 1_555
P10 P14 2.191724 1_555
P10 Se10 2.261239 1_555
P10 Se6 2.266899 1_655
P11 P15 2.191724 1_555
P11 Se11 2.261237 1_555
P11 Se7 2.266899 1_555
P12 P8 2.191724 1_555
P12 Se0 2.286347 1_555
P12 Se12 2.287190 1_555
P13 P9 2.191724 1_555
P13 Se1 2.286347 1_655
P13 Se13 2.287190 1_555
P14 Se2 2.286347 1_555
P14 Se14 2.287190 1_555
P15 Se3 2.286347 1_455
P15 Se15 2.287190 1_555
