# generated using pymatgen
data_Cu4(PO4)3
_symmetry_space_group_name_H-M   'P 1'
_cell_length_a   8.56436424
_cell_length_b   8.56436424
_cell_length_c   7.33125404
_cell_angle_alpha   68.52951134
_cell_angle_beta   68.52951134
_cell_angle_gamma   89.17609028
_symmetry_Int_Tables_number   1
_chemical_formula_structural   Cu4(PO4)3
_chemical_formula_sum   'Cu8 P6 O24'
_cell_volume   461.23206483
_cell_formula_units_Z   2
loop_
 _symmetry_equiv_pos_site_id
 _symmetry_equiv_pos_as_xyz
  1  'x, y, z'
loop_
 _atom_site_type_symbol
 _atom_site_label
 _atom_site_symmetry_multiplicity
 _atom_site_fract_x
 _atom_site_fract_y
 _atom_site_fract_z
 _atom_site_occupancy
  Cu  Cu0  1  0.25636500  0.74363500  0.25000000  1
  Cu  Cu1  1  0.06611800  0.38294700  0.84193100  1
  Cu  Cu2  1  0.49424700  0.50575300  0.75000000  1
  Cu  Cu3  1  0.38294700  0.06611800  0.34193100  1
  Cu  Cu4  1  0.61705300  0.93388200  0.65806900  1
  Cu  Cu5  1  0.50575300  0.49424700  0.25000000  1
  Cu  Cu6  1  0.74363500  0.25636500  0.75000000  1
  Cu  Cu7  1  0.93388200  0.61705300  0.15806900  1
  P  P0  1  0.72565900  0.27434100  0.25000000  1
  P  P1  1  0.88048000  0.65418700  0.61518500  1
  P  P2  1  0.65418700  0.88048000  0.11518500  1
  P  P3  1  0.34581300  0.11952000  0.88481500  1
  P  P4  1  0.11952000  0.34581300  0.38481500  1
  P  P5  1  0.27434100  0.72565900  0.75000000  1
  O  O0  1  0.50995100  0.73426500  0.16773300  1
  O  O1  1  0.18713800  0.19345400  0.86915000  1
  O  O2  1  0.16176500  0.74443300  0.95380400  1
  O  O3  1  0.27040600  0.53346200  0.76158400  1
  O  O4  1  0.19345400  0.18713800  0.36915000  1
  O  O5  1  0.41458900  0.03983700  0.71670200  1
  O  O6  1  0.03983700  0.41458900  0.21670200  1
  O  O7  1  0.25556700  0.83823500  0.54619600  1
  O  O8  1  0.96016300  0.58541100  0.78329800  1
  O  O9  1  0.74443300  0.16176500  0.45380400  1
  O  O10  1  0.99062200  0.31323200  0.61311500  1
  O  O11  1  0.81286200  0.80654600  0.13085000  1
  O  O12  1  0.83823500  0.25556700  0.04619600  1
  O  O13  1  0.72959400  0.46653800  0.23841600  1
  O  O14  1  0.31323200  0.99062200  0.11311500  1
  O  O15  1  0.58541100  0.96016300  0.28329800  1
  O  O16  1  0.68676800  0.00937800  0.88688500  1
  O  O17  1  0.73426500  0.50995100  0.66773300  1
  O  O18  1  0.53346200  0.27040600  0.26158400  1
  O  O19  1  0.80654600  0.81286200  0.63085000  1
  O  O20  1  0.49004900  0.26573500  0.83226700  1
  O  O21  1  0.46653800  0.72959400  0.73841600  1
  O  O22  1  0.26573500  0.49004900  0.33226700  1
  O  O23  1  0.00937800  0.68676800  0.38688500  1
loop_
_geom_bond_atom_site_label_1
_geom_bond_atom_site_label_2
_geom_bond_distance
_geom_bond_site_symmetry_2
Cu0 O23 1.958725 1_555
Cu0 O14 1.958725 1_555
Cu0 O0 2.039232 1_555
Cu0 O22 2.039232 1_555
Cu0 O2 2.578505 1_554
Cu0 O7 2.578505 1_555
Cu1 O1 1.900998 1_555
Cu1 O8 1.926019 1_455
Cu1 O3 1.955588 1_555
Cu1 O12 1.991858 1_456
Cu1 O10 2.264262 1_455
Cu2 O21 1.902924 1_555
Cu2 O3 1.902924 1_555
Cu2 O20 1.915523 1_555
Cu2 O17 1.915523 1_555
Cu3 O4 1.900998 1_555
Cu3 O15 1.926019 1_545
Cu3 O18 1.955588 1_555
Cu3 O7 1.991858 1_545
Cu3 O14 2.264262 1_545
Cu4 O19 1.900998 1_555
Cu4 O5 1.926019 1_565
Cu4 O21 1.955588 1_555
Cu4 O9 1.991858 1_565
Cu4 O16 2.264262 1_565
Cu5 O18 1.902924 1_555
Cu5 O13 1.902924 1_555
Cu5 O22 1.915523 1_555
Cu5 O0 1.915523 1_555
Cu6 O16 1.958725 1_555
Cu6 O10 1.958725 1_555
Cu6 O17 2.039232 1_555
Cu6 O20 2.039232 1_555
Cu6 O9 2.578505 1_555
Cu6 O12 2.578505 1_556
Cu7 O11 1.900998 1_555
Cu7 O6 1.926019 1_655
Cu7 O13 1.955588 1_555
Cu7 O2 1.991858 1_654
Cu7 O23 2.264262 1_655
O0 P2 1.607924 1_555
O1 P3 1.515633 1_555
O2 P5 1.518132 1_555
O3 P5 1.617090 1_555
O4 P4 1.515633 1_555
O5 P3 1.550609 1_555
O6 P4 1.550609 1_555
O7 P5 1.518132 1_555
O8 P1 1.550609 1_555
O9 P0 1.518132 1_555
O10 P4 1.553149 1_655
O11 P2 1.515633 1_555
O12 P0 1.518132 1_555
O13 P0 1.617090 1_555
O14 P3 1.553149 1_564
O15 P2 1.550609 1_555
O16 P2 1.553149 1_546
O17 P1 1.607924 1_555
O18 P0 1.617090 1_555
O19 P1 1.515633 1_555
O20 P3 1.607924 1_555
O21 P5 1.617090 1_555
O22 P4 1.607924 1_555
O23 P1 1.553149 1_455
