# generated using pymatgen
data_Na6Zn3Si2Sn(SO6)4
_symmetry_space_group_name_H-M   'P 1'
_cell_length_a   9.05440146
_cell_length_b   9.03301178
_cell_length_c   22.39715303
_cell_angle_alpha   89.43324824
_cell_angle_beta   89.99908409
_cell_angle_gamma   119.78106946
_symmetry_Int_Tables_number   1
_chemical_formula_structural   Na6Zn3Si2Sn(SO6)4
_chemical_formula_sum   'Na18 Zn9 Si6 Sn3 S12 O72'
_cell_volume   1589.79597362
_cell_formula_units_Z   3
loop_
 _symmetry_equiv_pos_site_id
 _symmetry_equiv_pos_as_xyz
  1  'x, y, z'
loop_
 _atom_site_type_symbol
 _atom_site_label
 _atom_site_symmetry_multiplicity
 _atom_site_fract_x
 _atom_site_fract_y
 _atom_site_fract_z
 _atom_site_occupancy
  Na  Na0  1  0.63147272  0.99669651  0.25734059  1
  Na  Na1  1  0.36970327  0.36821445  0.24392172  1
  Na  Na2  1  0.64242739  0.64390318  0.73862646  1
  Na  Na3  1  0.30647475  0.33894325  0.59057490  1
  Na  Na4  1  0.02768837  0.70233470  0.58364936  1
  Na  Na5  1  0.66715457  0.94765023  0.58538702  1
  Na  Na6  1  0.29594106  0.97095880  0.07609207  1
  Na  Na7  1  0.04911538  0.33604861  0.07724807  1
  Na  Na8  1  0.98490542  0.67819935  0.91286595  1
  Na  Na9  1  0.70245595  0.03352841  0.90336147  1
  Na  Na10  1  0.31025381  0.28208127  0.91833064  1
  Na  Na11  1  0.69979181  0.68418960  0.41913189  1
  Na  Na12  1  0.98763852  0.99928133  0.49586652  1
  Na  Na13  1  0.01120297  0.01047917  0.99731490  1
  Na  Na14  1  0.66738827  0.30476453  0.82542574  1
  Na  Na15  1  0.67888939  0.32522990  0.33205148  1
  Na  Na16  1  0.33861919  0.65689153  0.16296175  1
  Na  Na17  1  0.34610380  0.67576720  0.66724552  1
  Zn  Zn0  1  0.99116919  0.00502074  0.35053883  1
  Zn  Zn1  1  0.00090087  0.02205178  0.84812829  1
  Zn  Zn2  1  0.96554952  0.97414427  0.65531896  1
  Zn  Zn3  1  0.01364335  0.00987360  0.15035937  1
  Zn  Zn4  1  0.66251081  0.32106966  0.68596818  1
  Zn  Zn5  1  0.66017282  0.34580614  0.17914194  1
  Zn  Zn6  1  0.32482632  0.65413478  0.01433469  1
  Zn  Zn7  1  0.36165002  0.67066777  0.51223255  1
  Zn  Zn8  1  0.33866426  0.69264307  0.32738773  1
  Si  Si0  1  0.69621667  0.00058119  0.75040934  1
  Si  Si1  1  0.66624465  0.62108069  0.58527882  1
  Si  Si2  1  0.36776440  0.33936779  0.08683944  1
  Si  Si3  1  0.03645564  0.37199876  0.92032253  1
  Si  Si4  1  0.33095724  0.96029489  0.92149945  1
  Si  Si5  1  0.63961071  0.97238490  0.41628610  1
  Sn  Sn0  1  0.65952861  0.32617119  0.98314499  1
  Sn  Sn1  1  0.66855073  0.32913779  0.48132906  1
  Sn  Sn2  1  0.32805033  0.67730416  0.81652529  1
  S  S0  1  0.29068749  0.99447911  0.25071283  1
  S  S1  1  0.71005027  0.70556094  0.25024547  1
  S  S2  1  0.00016310  0.30056342  0.24853380  1
  S  S3  1  0.29654334  0.29989384  0.75055547  1
  S  S4  1  0.00356681  0.70610311  0.75043576  1
  S  S5  1  0.96610089  0.33647451  0.58310902  1
  S  S6  1  0.36817450  0.03739612  0.58393816  1
  S  S7  1  0.95665719  0.62817050  0.08479869  1
  S  S8  1  0.67018265  0.03812474  0.08746145  1
  S  S9  1  0.62598907  0.66344316  0.91749720  1
  S  S10  1  0.33194934  0.36780954  0.41565367  1
  S  S11  1  0.03806111  0.66492620  0.41822941  1
  O  O0  1  0.20016668  0.01621248  0.30171887  1
  O  O1  1  0.80066737  0.78147588  0.30673925  1
  O  O2  1  0.97150056  0.18670239  0.30073783  1
  O  O3  1  0.21777029  0.20191817  0.80568914  1
  O  O4  1  0.99394929  0.79336921  0.80422791  1
  O  O5  1  0.80068949  0.01026733  0.81033123  1
  O  O6  1  0.76516604  0.95467855  0.68923992  1
  O  O7  1  0.20005632  0.21832775  0.69575577  1
  O  O8  1  0.02940519  0.80664088  0.69425643  1
  O  O9  1  0.79889801  0.81634863  0.19799886  1
  O  O10  1  0.02686876  0.22482343  0.19307997  1
  O  O11  1  0.20251669  0.98105610  0.19328729  1
  O  O12  1  0.88452710  0.36174043  0.63507787  1
  O  O13  1  0.48092561  0.11295477  0.63471768  1
  O  O14  1  0.63973810  0.49966407  0.64254090  1
  O  O15  1  0.87191887  0.51241719  0.13568837  1
  O  O16  1  0.65024363  0.12505992  0.14005660  1
  O  O17  1  0.46875816  0.35323308  0.14809733  1
  O  O18  1  0.45952335  0.30217404  0.02736390  1
  O  O19  1  0.86123448  0.55033466  0.02708243  1
  O  O20  1  0.70541943  0.15018979  0.03118464  1
  O  O21  1  0.44652399  0.14436021  0.52771691  1
  O  O22  1  0.69762273  0.53560068  0.52247647  1
  O  O23  1  0.85307569  0.29604316  0.52839144  1
  O  O24  1  0.54741896  0.69152787  0.96957353  1
  O  O25  1  0.14726667  0.44476150  0.97963494  1
  O  O26  1  0.30669800  0.85173822  0.98217422  1
  O  O27  1  0.55521576  0.85924957  0.47662401  1
  O  O28  1  0.30742232  0.44121553  0.47116586  1
  O  O29  1  0.12795635  0.67262170  0.47400204  1
  O  O30  1  0.11563367  0.63692993  0.36496822  1
  O  O31  1  0.53232954  0.89579708  0.35486277  1
  O  O32  1  0.35560539  0.47629605  0.36205153  1
  O  O33  1  0.12477712  0.50224260  0.86186369  1
  O  O34  1  0.38469534  0.88094633  0.86469005  1
  O  O35  1  0.52028840  0.62859241  0.86210180  1
  O  O36  1  0.01866485  0.81801639  0.41320680  1
  O  O37  1  0.82689754  0.98474766  0.41213192  1
  O  O38  1  0.19120919  0.19280272  0.41048772  1
  O  O39  1  0.00407774  0.17959649  0.91304761  1
  O  O40  1  0.16263493  0.97907956  0.91144043  1
  O  O41  1  0.79929830  0.80912716  0.91082668  1
  O  O42  1  0.99382875  0.18758026  0.58766852  1
  O  O43  1  0.20188228  0.03209960  0.58927870  1
  O  O44  1  0.83963703  0.81129314  0.58470109  1
  O  O45  1  0.96868086  0.79687766  0.08827489  1
  O  O46  1  0.82369456  0.02088343  0.09058343  1
  O  O47  1  0.17843757  0.15976721  0.08600302  1
  O  O48  1  0.67171309  0.16556031  0.74365896  1
  O  O49  1  0.47366820  0.33172102  0.74879519  1
  O  O50  1  0.84549215  0.53877125  0.74777423  1
  O  O51  1  0.68957186  0.53086251  0.24724525  1
  O  O52  1  0.84170549  0.31309432  0.24386912  1
  O  O53  1  0.46701771  0.15007195  0.24976143  1
  O  O54  1  0.64026338  0.50386638  0.92244355  1
  O  O55  1  0.84695758  0.36632592  0.92338869  1
  O  O56  1  0.50449847  0.15558990  0.92197770  1
  O  O57  1  0.65538710  0.16601131  0.42077709  1
  O  O58  1  0.50137516  0.36776868  0.41925575  1
  O  O59  1  0.85622929  0.51121856  0.41913852  1
  O  O60  1  0.34525454  0.50639095  0.08046032  1
  O  O61  1  0.12937553  0.64876299  0.08226041  1
  O  O62  1  0.51228861  0.87490311  0.08127708  1
  O  O63  1  0.33918426  0.86124058  0.57725583  1
  O  O64  1  0.49215698  0.63640619  0.58061907  1
  O  O65  1  0.13217422  0.49524522  0.57392874  1
  O  O66  1  0.31079941  0.84008155  0.25504192  1
  O  O67  1  0.53417553  0.68602413  0.25136047  1
  O  O68  1  0.15679965  0.46908177  0.25535819  1
  O  O69  1  0.30909765  0.47490249  0.75313119  1
  O  O70  1  0.15664557  0.68102264  0.75139900  1
  O  O71  1  0.50560008  0.81188601  0.75472224  1
loop_
_geom_bond_atom_site_label_1
_geom_bond_atom_site_label_2
_geom_bond_distance
_geom_bond_site_symmetry_2
Na0 O31 2.356936 1_555
Na0 O53 2.492023 1_565
Na0 O67 2.494185 1_555
Na0 O66 2.521000 1_555
Na0 O52 2.541929 1_565
Na0 O16 2.831525 1_565
Na0 O2 2.855376 1_565
Na1 O17 2.356928 1_555
Na1 O67 2.499895 1_555
Na1 O51 2.515434 1_555
Na1 O68 2.522149 1_555
Na1 O53 2.529019 1_555
Na1 O32 2.853849 1_555
Na1 O10 2.940309 1_555
Na1 O0 3.035149 1_555
Na2 O71 2.417750 1_555
Na2 O49 2.458801 1_555
Na2 O50 2.460701 1_555
Na2 O14 2.520600 1_555
Na2 O69 2.637846 1_555
Na2 O6 2.679286 1_555
Na2 O35 2.954742 1_555
Na3 O64 2.365752 1_555
Na3 O43 2.444226 1_555
Na3 O42 2.458482 1_455
Na3 O7 2.563466 1_555
Na3 O65 2.612685 1_555
Na3 O28 2.819453 1_555
Na3 O14 2.872182 1_555
Na3 O21 2.990379 1_555
Na4 O44 2.352359 1_455
Na4 O63 2.451512 1_555
Na4 O65 2.491542 1_555
Na4 O43 2.591714 1_565
Na4 O8 2.656415 1_555
Na4 O29 2.679958 1_555
Na4 O12 2.905286 1_455
Na4 O22 2.940518 1_455
Na5 O44 2.422308 1_555
Na5 O64 2.450938 1_555
Na5 O6 2.479700 1_555
Na5 O27 2.614096 1_555
Na5 O42 2.661343 1_565
Na5 O63 2.676023 1_555
Na5 O13 2.971082 1_565
Na5 O23 3.004175 1_565
Na6 O26 2.396441 1_554
Na6 O47 2.428983 1_565
Na6 O62 2.507998 1_555
Na6 O61 2.528997 1_555
Na6 O45 2.586551 1_455
Na6 O11 2.773979 1_555
Na6 O18 2.805262 1_565
Na7 O60 2.337991 1_555
Na7 O25 2.371577 1_554
Na7 O47 2.406479 1_555
Na7 O61 2.546967 1_555
Na7 O46 2.563375 1_455
Na7 O10 2.743682 1_555
Na7 O20 2.900292 1_455
Na8 O40 2.372969 1_655
Na8 O55 2.458342 1_555
Na8 O41 2.489660 1_555
Na8 O4 2.621958 1_555
Na8 O54 2.715759 1_555
Na8 O33 2.733219 1_655
Na8 O19 2.790806 1_556
Na9 O5 2.317532 1_555
Na9 O39 2.381708 1_655
Na9 O56 2.564063 1_555
Na9 O41 2.581577 1_545
Na9 O34 2.648056 1_545
Na9 O55 2.658878 1_555
Na10 O40 2.382412 1_545
Na10 O39 2.451350 1_555
Na10 O56 2.529799 1_555
Na10 O54 2.647177 1_555
Na10 O3 2.650317 1_555
Na10 O18 2.754696 1_556
Na10 O25 2.901134 1_555
Na10 O35 3.001436 1_555
Na11 O37 2.368065 1_555
Na11 O58 2.509183 1_555
Na11 O36 2.518852 1_655
Na11 O59 2.577990 1_555
Na11 O22 2.659274 1_555
Na11 O1 2.664959 1_555
Na11 O27 2.822904 1_555
Na12 O37 2.338334 1_555
Na12 O44 2.512086 1_555
Na12 O36 2.589256 1_655
Na12 O38 2.615895 1_665
Na12 O42 2.664258 1_565
Na12 O43 2.769333 1_665
Na13 O39 2.437374 1_555
Na13 O40 2.461039 1_545
Na13 O47 2.466099 1_556
Na13 O45 2.684344 1_446
Na13 O41 2.710154 1_445
Na13 O46 2.723465 1_456
Na14 O48 2.242979 1_555
Na14 O49 2.549055 1_555
Na14 O50 2.575732 1_555
Na14 O56 2.575924 1_555
Na14 O55 2.625433 1_555
Na14 O54 2.921053 1_555
Na15 O57 2.387919 1_555
Na15 O52 2.500154 1_555
Na15 O59 2.567183 1_555
Na15 O53 2.573530 1_555
Na15 O51 2.611342 1_555
Na15 O58 2.678429 1_555
Na16 O60 2.323136 1_555
Na16 O62 2.559371 1_555
Na16 O67 2.583004 1_555
Na16 O61 2.593519 1_555
Na16 O68 2.650816 1_555
Na16 O66 2.745259 1_555
Na17 O71 2.391611 1_555
Na17 O64 2.473899 1_555
Na17 O69 2.536058 1_555
Na17 O70 2.565148 1_555
Na17 O63 2.628802 1_555
Na17 O65 2.776535 1_555
O0 S0 1.476348 1_545
O0 Zn0 2.143476 1_455
O1 S1 1.484151 1_555
O1 Zn0 2.143443 1_565
O2 S2 1.484354 1_655
O2 Zn0 2.055060 1_555
O3 S3 1.472445 1_555
O3 Zn1 2.049200 1_555
O4 S4 1.472229 1_655
O4 Zn1 2.269105 1_665
O5 Si0 1.619809 1_555
O5 Zn1 1.955591 1_655
O6 Si0 1.645290 1_565
O6 Zn2 1.892191 1_555
O7 S3 1.480204 1_555
O7 Zn2 2.362428 1_445
O8 S4 1.492992 1_555
O8 Zn2 2.055992 1_455
O9 S1 1.481566 1_555
O9 Zn3 2.135781 1_665
O10 S2 1.500088 1_555
O10 Zn3 2.122643 1_555
O11 S0 1.487693 1_555
O11 Zn3 2.086636 1_565
O12 S5 1.457769 1_555
O12 Zn4 2.175576 1_555
O13 S6 1.457662 1_555
O13 Zn4 2.127731 1_555
O14 Si1 1.617402 1_555
O14 Zn4 1.972440 1_555
O15 S7 1.469877 1_555
O15 Zn5 1.998160 1_555
O16 S8 1.481903 1_555
O16 Zn5 2.146372 1_555
O17 Si2 1.619859 1_555
O17 Zn5 1.899044 1_555
O18 Si2 1.692244 1_555
O18 Sn0 1.978141 1_554
O19 S7 1.525261 1_555
O19 Sn0 2.184004 1_554
O20 S8 1.539201 1_555
O20 Sn0 2.116508 1_554
O21 S6 1.522301 1_555
O21 Sn1 2.130526 1_555
O22 Si1 1.701417 1_555
O22 Sn1 1.985726 1_555
O23 S5 1.523218 1_555
O23 Sn1 2.117037 1_555
O24 S9 1.454635 1_555
O24 Zn6 2.120882 1_556
O25 Si3 1.601756 1_555
O25 Zn6 1.942748 1_556
O26 Si4 1.617467 1_555
O26 Zn6 1.999363 1_556
O27 Si5 1.628336 1_555
O27 Zn7 1.901803 1_555
O28 S10 1.482363 1_555
O28 Zn7 2.099936 1_555
O29 S11 1.474198 1_555
O29 Zn7 2.290767 1_555
O30 S11 1.470605 1_555
O30 Zn8 2.005430 1_555
O31 Si5 1.632805 1_555
O31 Zn8 1.909685 1_555
O32 S10 1.488521 1_555
O32 Zn8 2.170991 1_555
O33 Si3 1.665184 1_555
O33 Sn2 1.999061 1_555
O34 Si4 1.653442 1_555
O34 Sn2 1.978029 1_555
O35 S9 1.504283 1_555
O35 Sn2 2.239930 1_555
O36 S11 1.481212 1_555
O36 Zn0 2.292668 1_465
O37 Si5 1.645733 1_555
O37 Zn0 1.968057 1_565
O38 S10 1.462465 1_555
O38 Zn0 2.225716 1_455
O39 Si3 1.622501 1_555
O39 Zn1 2.034813 1_555
O40 Si4 1.630475 1_555
O40 Zn1 2.204487 1_565
O41 S9 1.470125 1_555
O41 Zn1 2.337129 1_665
O42 S5 1.488320 1_555
O42 Zn2 2.351638 1_545
O43 S6 1.487272 1_555
O43 Zn2 2.431578 1_445
O44 Si1 1.654409 1_555
O44 Zn2 2.084561 1_555
O45 S7 1.475747 1_555
O45 Zn3 2.252973 1_665
O46 S8 1.475112 1_555
O46 Zn3 2.219824 1_655
O47 Si2 1.675977 1_555
O47 Zn3 2.022801 1_555
O48 Si0 1.617696 1_555
O48 Zn4 1.931343 1_555
O49 S3 1.482568 1_555
O49 Zn4 2.253653 1_555
O50 S4 1.479693 1_655
O50 Zn4 2.312085 1_555
O51 S1 1.496857 1_555
O51 Zn5 2.190935 1_555
O52 S2 1.497764 1_655
O52 Zn5 2.316176 1_555
O53 S0 1.514982 1_545
O53 Zn5 2.357822 1_555
O54 S9 1.512842 1_555
O54 Sn0 2.165679 1_555
O55 Si3 1.692297 1_655
O55 Sn0 2.044909 1_555
O56 Si4 1.681659 1_545
O56 Sn0 2.028474 1_555
O57 Si5 1.686690 1_545
O57 Sn1 1.972260 1_555
O58 S10 1.536354 1_555
O58 Sn1 2.204765 1_555
O59 S11 1.538646 1_655
O59 Sn1 2.170524 1_555
O60 Si2 1.624621 1_555
O60 Zn6 2.053011 1_555
O61 S7 1.481321 1_455
O61 Zn6 2.315554 1_555
O62 S8 1.465275 1_565
O62 Zn6 2.408861 1_555
O63 S6 1.487639 1_565
O63 Zn7 2.350128 1_555
O64 Si1 1.652615 1_555
O64 Zn7 2.047453 1_555
O65 S5 1.487319 1_455
O65 Zn7 2.328833 1_555
O66 S0 1.495759 1_555
O66 Zn8 2.180366 1_555
O67 S1 1.512739 1_555
O67 Zn8 2.478685 1_555
O68 S2 1.487275 1_555
O68 Zn8 2.480617 1_555
O69 S3 1.529264 1_555
O69 Sn2 2.264460 1_555
O70 S4 1.511530 1_555
O70 Sn2 2.142022 1_555
O71 Si0 1.722737 1_565
O71 Sn2 2.000893 1_555
