# generated using pymatgen
data_Na7MgZr3Si3(PO8)3
_symmetry_space_group_name_H-M   'P 1'
_cell_length_a   9.16176985
_cell_length_b   9.14783306
_cell_length_c   22.90514475
_cell_angle_alpha   89.96940971
_cell_angle_beta   90.14184112
_cell_angle_gamma   120.00762786
_symmetry_Int_Tables_number   1
_chemical_formula_structural   Na7MgZr3Si3(PO8)3
_chemical_formula_sum   'Na21 Mg3 Zr9 Si9 P9 O72'
_cell_volume   1662.36512758
_cell_formula_units_Z   3
loop_
 _symmetry_equiv_pos_site_id
 _symmetry_equiv_pos_as_xyz
  1  'x, y, z'
loop_
 _atom_site_type_symbol
 _atom_site_label
 _atom_site_symmetry_multiplicity
 _atom_site_fract_x
 _atom_site_fract_y
 _atom_site_fract_z
 _atom_site_occupancy
  Na  Na0  1  0.63684274  0.00862649  0.24779167  1
  Na  Na1  1  0.37204319  0.36319024  0.24804426  1
  Na  Na2  1  0.99252458  0.63068565  0.24980822  1
  Na  Na3  1  0.63897663  0.62719348  0.74865362  1
  Na  Na4  1  0.98916923  0.36765285  0.74646478  1
  Na  Na5  1  0.36861249  0.00500190  0.74714947  1
  Na  Na6  1  0.02912478  0.69148081  0.58435654  1
  Na  Na7  1  0.66690437  0.97229798  0.58169142  1
  Na  Na8  1  0.31066531  0.97519874  0.08410033  1
  Na  Na9  1  0.66238020  0.69334197  0.08401142  1
  Na  Na10  1  0.02894880  0.33281610  0.08201749  1
  Na  Na11  1  0.33428168  0.30376598  0.91800241  1
  Na  Na12  1  0.96904787  0.29157597  0.41579227  1
  Na  Na13  1  0.32293133  0.03117392  0.41507750  1
  Na  Na14  1  0.70783496  0.67677922  0.41496838  1
  Na  Na15  1  0.00477463  0.00787547  0.49402283  1
  Na  Na16  1  0.99238183  0.99809447  0.99746693  1
  Na  Na17  1  0.67871942  0.34111301  0.83331247  1
  Na  Na18  1  0.66574544  0.33318389  0.33280142  1
  Na  Na19  1  0.33722000  0.66799176  0.16551679  1
  Na  Na20  1  0.32725530  0.65814440  0.66428503  1
  Mg  Mg0  1  0.99960805  0.99960830  0.35344833  1
  Mg  Mg1  1  0.67429365  0.34042053  0.68190656  1
  Mg  Mg2  1  0.66141975  0.32991866  0.18087565  1
  Zr  Zr0  1  0.98894462  0.98957783  0.85389413  1
  Zr  Zr1  1  0.00773314  0.00595874  0.64701599  1
  Zr  Zr2  1  0.00041317  0.00413179  0.14877155  1
  Zr  Zr3  1  0.67233211  0.33195392  0.98067355  1
  Zr  Zr4  1  0.66912379  0.33123039  0.48160531  1
  Zr  Zr5  1  0.33909260  0.66465621  0.01669242  1
  Zr  Zr6  1  0.32884469  0.65678943  0.51678786  1
  Zr  Zr7  1  0.33381327  0.66706596  0.31872059  1
  Zr  Zr8  1  0.32711808  0.66334150  0.81761468  1
  Si  Si0  1  0.99632074  0.70187122  0.74888428  1
  Si  Si1  1  0.96003013  0.33467400  0.58624961  1
  Si  Si2  1  0.66465946  0.04238297  0.08646141  1
  Si  Si3  1  0.37814053  0.33385432  0.08505588  1
  Si  Si4  1  0.62865594  0.66547820  0.91620310  1
  Si  Si5  1  0.03537529  0.36983967  0.91684056  1
  Si  Si6  1  0.63078362  0.96071741  0.41736777  1
  Si  Si7  1  0.33069716  0.36677488  0.41542560  1
  Si  Si8  1  0.03857035  0.67039416  0.41666830  1
  P  P0  1  0.29388049  0.00270447  0.25141672  1
  P  P1  1  0.70925403  0.70552532  0.25121716  1
  P  P2  1  0.99695446  0.29248309  0.25151590  1
  P  P3  1  0.29462654  0.29176530  0.75083400  1
  P  P4  1  0.70762406  0.00155034  0.74917112  1
  P  P5  1  0.37749596  0.04403068  0.58545283  1
  P  P6  1  0.66437528  0.62335306  0.58578650  1
  P  P7  1  0.95656372  0.62276752  0.08558261  1
  P  P8  1  0.33344675  0.96026587  0.91689358  1
  O  O0  1  0.20823065  0.02726050  0.30421395  1
  O  O1  1  0.81897600  0.79106732  0.30437111  1
  O  O2  1  0.97118649  0.18108368  0.30414360  1
  O  O3  1  0.21039000  0.18213372  0.80516149  1
  O  O4  1  0.97253705  0.80297492  0.80351109  1
  O  O5  1  0.82419591  0.03052938  0.80201889  1
  O  O6  1  0.79031243  0.96922825  0.69510100  1
  O  O7  1  0.17503723  0.20751485  0.69785086  1
  O  O8  1  0.03381408  0.82770487  0.69247334  1
  O  O9  1  0.79146085  0.81894465  0.19559570  1
  O  O10  1  0.02831358  0.20933342  0.19586351  1
  O  O11  1  0.18025603  0.97074471  0.19564886  1
  O  O12  1  0.87681102  0.36673526  0.64237812  1
  O  O13  1  0.48494617  0.12393222  0.63953057  1
  O  O14  1  0.63893157  0.51798901  0.63982251  1
  O  O15  1  0.88211401  0.51578427  0.14003456  1
  O  O16  1  0.63219458  0.12097660  0.14366367  1
  O  O17  1  0.49202814  0.37270312  0.14211229  1
  O  O18  1  0.45726787  0.29825708  0.02629727  1
  O  O19  1  0.84332407  0.54346881  0.03153064  1
  O  O20  1  0.70419351  0.16420634  0.02946849  1
  O  O21  1  0.45581490  0.14962292  0.52952486  1
  O  O22  1  0.69625685  0.54526303  0.53024062  1
  O  O23  1  0.84235908  0.30032941  0.52716829  1
  O  O24  1  0.54056985  0.69491599  0.97380277  1
  O  O25  1  0.15698355  0.45951254  0.97364549  1
  O  O26  1  0.30593455  0.85106920  0.97129839  1
  O  O27  1  0.53916197  0.84182478  0.47419251  1
  O  O28  1  0.30103831  0.46335697  0.47018780  1
  O  O29  1  0.15956138  0.69898764  0.47335008  1
  O  O30  1  0.12367735  0.62920330  0.35963976  1
  O  O31  1  0.50571594  0.87539121  0.35982743  1
  O  O32  1  0.37057126  0.49321020  0.35850739  1
  O  O33  1  0.12758306  0.48805369  0.85910521  1
  O  O34  1  0.35896626  0.87602308  0.86210174  1
  O  O35  1  0.50848116  0.63610102  0.85894200  1
  O  O36  1  0.02155583  0.83523656  0.41022428  1
  O  O37  1  0.81276142  0.97902687  0.41024466  1
  O  O38  1  0.16474884  0.18585902  0.40974667  1
  O  O39  1  0.03602388  0.19276032  0.90931125  1
  O  O40  1  0.17884525  0.98450824  0.90951596  1
  O  O41  1  0.81255831  0.83418245  0.91135863  1
  O  O42  1  0.96950363  0.15900323  0.59025580  1
  O  O43  1  0.19476896  0.01626549  0.58982286  1
  O  O44  1  0.82809789  0.80324616  0.59077521  1
  O  O45  1  0.97694736  0.80320589  0.09111339  1
  O  O46  1  0.83231518  0.01671855  0.09080621  1
  O  O47  1  0.18653292  0.16347156  0.09073641  1
  O  O48  1  0.68497615  0.15577782  0.74388182  1
  O  O49  1  0.46815044  0.30836611  0.74313306  1
  O  O50  1  0.82918623  0.51855892  0.74579232  1
  O  O51  1  0.68954133  0.52906477  0.24405890  1
  O  O52  1  0.84292546  0.31546086  0.24350585  1
  O  O53  1  0.47056538  0.15830985  0.24479711  1
  O  O54  1  0.63264423  0.49075685  0.92283345  1
  O  O55  1  0.85265094  0.35431458  0.92182355  1
  O  O56  1  0.48945758  0.13828636  0.92215860  1
  O  O57  1  0.63858778  0.14415366  0.42257479  1
  O  O58  1  0.50392206  0.35854081  0.42327021  1
  O  O59  1  0.85428899  0.49762005  0.42334912  1
  O  O60  1  0.34816423  0.49784153  0.07749295  1
  O  O61  1  0.13630314  0.64764928  0.07666762  1
  O  O62  1  0.49681701  0.85345511  0.07741259  1
  O  O63  1  0.35774781  0.86477797  0.57845412  1
  O  O64  1  0.51521945  0.65648188  0.57839918  1
  O  O65  1  0.14459189  0.50658091  0.57826039  1
  O  O66  1  0.30832982  0.83759544  0.25430393  1
  O  O67  1  0.53010724  0.69099793  0.25416986  1
  O  O68  1  0.16219729  0.47092526  0.25403597  1
  O  O69  1  0.31106731  0.47041005  0.75543542  1
  O  O70  1  0.17236961  0.69246419  0.75493643  1
  O  O71  1  0.53172318  0.83845050  0.75597981  1
loop_
_geom_bond_atom_site_label_1
_geom_bond_atom_site_label_2
_geom_bond_distance
_geom_bond_site_symmetry_2
Na0 O52 2.480486 1_555
Na0 O53 2.507225 1_555
Na0 O67 2.564845 1_545
Na0 O16 2.605246 1_555
Na0 O66 2.611645 1_545
Na0 O31 2.839274 1_545
Na0 O2 2.947362 1_555
Na0 O9 2.985977 1_545
Na1 O53 2.454702 1_555
Na1 O51 2.521603 1_555
Na1 O68 2.565739 1_555
Na1 O67 2.600969 1_555
Na1 O17 2.649647 1_555
Na1 O32 2.799297 1_555
Na1 O0 2.956934 1_555
Na1 O10 2.979354 1_555
Na2 O51 2.450344 1_555
Na2 O52 2.502185 1_555
Na2 O66 2.546689 1_655
Na2 O68 2.614038 1_655
Na2 O15 2.716046 1_555
Na2 O30 2.788204 1_655
Na2 O1 2.930476 1_555
Na2 O11 2.971367 1_655
Na3 O50 2.400326 1_555
Na3 O49 2.530925 1_555
Na3 O71 2.574690 1_555
Na3 O69 2.607463 1_555
Na3 O14 2.685931 1_555
Na3 O35 2.816058 1_555
Na3 O4 2.927733 1_555
Na3 O6 2.980270 1_555
Na4 O50 2.465358 1_555
Na4 O48 2.474589 1_555
Na4 O70 2.587320 1_655
Na4 O12 2.592873 1_555
Na4 O69 2.616810 1_655
Na4 O33 2.840361 1_655
Na4 O5 2.959297 1_555
Na4 O7 2.965124 1_655
Na5 O49 2.451576 1_555
Na5 O70 2.509580 1_545
Na5 O48 2.512230 1_555
Na5 O71 2.621243 1_545
Na5 O13 2.691893 1_555
Na5 O34 2.868124 1_545
Na5 O8 2.935074 1_545
Na5 O3 2.975541 1_555
Na6 O65 2.406303 1_555
Na6 O44 2.518730 1_455
Na6 O43 2.575964 1_565
Na6 O63 2.612259 1_555
Na6 O8 2.763454 1_555
Na6 O29 2.798303 1_555
Na6 O12 2.897790 1_455
Na6 O22 2.920434 1_455
Na7 O42 2.429612 1_565
Na7 O63 2.491591 1_555
Na7 O64 2.503470 1_555
Na7 O44 2.626464 1_555
Na7 O27 2.729242 1_555
Na7 O6 2.836215 1_555
Na7 O23 2.886077 1_565
Na7 O13 2.963812 1_565
Na8 O62 2.464492 1_555
Na8 O47 2.498613 1_565
Na8 O61 2.602038 1_555
Na8 O45 2.653269 1_455
Na8 O26 2.814314 1_554
Na8 O11 2.814902 1_555
Na8 O18 2.885311 1_565
Na8 O16 2.893111 1_565
Na9 O60 2.521226 1_555
Na9 O45 2.538333 1_555
Na9 O46 2.567430 1_565
Na9 O62 2.586475 1_555
Na9 O24 2.760446 1_554
Na9 O9 2.807167 1_555
Na9 O17 2.870106 1_555
Na9 O19 2.890992 1_555
Na10 O60 2.535383 1_555
Na10 O46 2.537336 1_455
Na10 O61 2.538488 1_555
Na10 O47 2.599892 1_555
Na10 O25 2.744532 1_554
Na10 O10 2.840118 1_555
Na10 O20 2.841549 1_455
Na10 O15 2.939485 1_455
Na11 O54 2.394202 1_555
Na11 O39 2.399956 1_555
Na11 O40 2.536619 1_545
Na11 O56 2.544322 1_555
Na11 O18 2.732747 1_556
Na11 O3 2.816392 1_555
Na11 O25 2.935960 1_555
Na11 O35 2.961898 1_555
Na12 O38 2.429994 1_655
Na12 O37 2.479059 1_545
Na12 O59 2.582927 1_555
Na12 O57 2.631988 1_555
Na12 O2 2.754048 1_555
Na12 O23 2.823029 1_555
Na12 O28 2.911312 1_655
Na12 O30 2.971315 1_655
Na13 O36 2.428458 1_545
Na13 O38 2.483470 1_555
Na13 O57 2.543479 1_555
Na13 O58 2.604834 1_555
Na13 O0 2.739183 1_555
Na13 O21 2.862855 1_555
Na13 O29 2.951647 1_545
Na13 O31 2.972572 1_545
Na14 O37 2.433557 1_555
Na14 O36 2.491649 1_655
Na14 O58 2.561756 1_555
Na14 O59 2.592534 1_555
Na14 O1 2.737215 1_555
Na14 O22 2.881033 1_555
Na14 O32 2.971973 1_555
Na14 O27 2.975581 1_555
Na15 O38 2.479739 1_555
Na15 O37 2.523134 1_445
Na15 O36 2.539579 1_545
Na15 O42 2.707021 1_455
Na15 O43 2.774621 1_555
Na15 O44 2.831607 1_445
Na16 O41 2.523650 1_555
Na16 O39 2.587708 1_665
Na16 O46 2.648825 1_566
Na16 O40 2.687352 1_655
Na16 O47 2.703650 1_666
Na16 O45 2.746748 1_556
Na17 O50 2.515145 1_555
Na17 O55 2.540838 1_555
Na17 O54 2.615706 1_555
Na17 O48 2.678666 1_555
Na17 O56 2.717732 1_555
Na17 O49 2.735135 1_555
Na18 O57 2.617010 1_555
Na18 O58 2.627850 1_555
Na18 O59 2.633383 1_555
Na18 O53 2.635208 1_555
Na18 O51 2.645308 1_555
Na18 O52 2.669219 1_555
Na19 O62 2.572653 1_555
Na19 O60 2.580364 1_555
Na19 O67 2.627036 1_555
Na19 O66 2.651393 1_555
Na19 O68 2.655723 1_555
Na19 O61 2.684005 1_555
Na20 O65 2.504246 1_555
Na20 O64 2.622745 1_555
Na20 O70 2.623826 1_555
Na20 O63 2.643233 1_555
Na20 O69 2.659555 1_555
Na20 O71 2.744929 1_555
Mg0 O38 2.066197 1_665
Mg0 O36 2.071623 1_655
Mg0 O37 2.084867 1_555
Mg0 O1 2.115885 1_555
Mg0 O0 2.125035 1_665
Mg0 O2 2.127926 1_565
Mg1 O12 1.970183 1_555
Mg1 O14 2.048384 1_555
Mg1 O13 2.104969 1_555
Mg1 O50 2.118925 1_555
Mg1 O48 2.244950 1_555
Mg1 O49 2.253532 1_555
Mg2 O16 1.985000 1_555
Mg2 O17 1.987546 1_555
Mg2 O15 2.103168 1_555
Mg2 O53 2.220402 1_555
Mg2 O51 2.238553 1_555
Mg2 O52 2.246929 1_555
O0 P0 1.519867 1_555
O1 P1 1.520959 1_555
O2 P2 1.518810 1_555
O3 P3 1.542444 1_555
O3 Zr0 2.213473 1_445
O4 Si0 1.634820 1_555
O4 Zr0 2.003212 1_555
O5 P4 1.544972 1_555
O5 Zr0 2.094435 1_545
O6 P4 1.557006 1_565
O6 Zr1 2.152875 1_665
O7 P3 1.554679 1_555
O7 Zr1 2.066758 1_555
O8 Si0 1.648536 1_455
O8 Zr1 2.046183 1_565
O9 P1 1.577526 1_555
O9 Zr2 2.109352 1_665
O10 P2 1.583502 1_455
O10 Zr2 2.067213 1_555
O11 P0 1.578046 1_565
O11 Zr2 2.110750 1_565
O12 Si1 1.596589 1_555
O13 P5 1.520807 1_555
O14 P6 1.513499 1_555
O15 P7 1.521128 1_555
O16 Si2 1.593391 1_555
O17 Si3 1.595557 1_555
O18 Si3 1.638410 1_555
O18 Zr3 2.114657 1_554
O19 P7 1.541823 1_555
O19 Zr3 2.125204 1_554
O20 Si2 1.635335 1_555
O20 Zr3 2.033158 1_554
O21 P5 1.548849 1_555
O21 Zr4 2.131942 1_555
O22 P6 1.557513 1_555
O22 Zr4 2.156485 1_555
O23 Si1 1.657326 1_555
O23 Zr4 2.031826 1_555
O24 Si4 1.639348 1_555
O24 Zr5 1.986613 1_556
O25 Si5 1.639197 1_555
O25 Zr5 2.034617 1_556
O26 P8 1.537086 1_555
O26 Zr5 2.143839 1_556
O27 Si6 1.634733 1_555
O27 Zr6 2.067636 1_555
O28 Si7 1.634258 1_555
O28 Zr6 1.971058 1_555
O29 Si8 1.638899 1_555
O29 Zr6 2.033499 1_555
O30 Si8 1.660027 1_555
O30 Zr7 2.011590 1_555
O31 Si6 1.660808 1_555
O31 Zr7 1.997805 1_555
O32 Si7 1.658013 1_555
O32 Zr7 2.001489 1_555
O33 Si5 1.649901 1_555
O33 Zr8 1.972626 1_555
O34 P8 1.551231 1_555
O34 Zr8 2.083639 1_555
O35 Si4 1.643761 1_555
O35 Zr8 2.031062 1_555
O36 Si8 1.598364 1_555
O37 Si6 1.598863 1_555
O38 Si7 1.596847 1_555
O39 Si5 1.632103 1_555
O39 Zr0 2.109472 1_445
O40 P8 1.548209 1_555
O40 Zr0 2.173006 1_455
O41 Si4 1.622569 1_555
O41 Zr0 2.018788 1_555
O42 Si1 1.654611 1_555
O42 Zr1 2.063803 1_655
O43 P5 1.566093 1_555
O43 Zr1 2.123857 1_555
O44 P6 1.581607 1_555
O44 Zr1 2.178584 1_665
O45 P7 1.570749 1_555
O45 Zr2 2.185109 1_665
O46 Si2 1.668625 1_555
O46 Zr2 2.077250 1_655
O47 Si3 1.670952 1_555
O47 Zr2 2.079044 1_555
O48 P4 1.529943 1_555
O49 P3 1.530187 1_555
O50 Si0 1.610278 1_555
O51 P1 1.540707 1_555
O52 P2 1.537738 1_555
O53 P0 1.538113 1_555
O54 Si4 1.623934 1_555
O54 Zr3 2.126417 1_555
O55 Si5 1.612097 1_655
O55 Zr3 2.064175 1_555
O56 P8 1.542953 1_545
O56 Zr3 2.182812 1_555
O57 Si6 1.647827 1_545
O57 Zr4 2.087312 1_555
O58 Si7 1.635488 1_555
O58 Zr4 2.122835 1_555
O59 Si8 1.644352 1_655
O59 Zr4 2.097983 1_555
O60 Si3 1.663547 1_555
O60 Zr5 2.097388 1_555
O61 P7 1.559467 1_455
O61 Zr5 2.255325 1_555
O62 Si2 1.653812 1_565
O62 Zr5 2.121711 1_555
O63 P5 1.565465 1_565
O63 Zr6 2.276474 1_555
O64 P6 1.549489 1_555
O64 Zr6 2.213604 1_555
O65 Si1 1.645354 1_455
O65 Zr6 2.099975 1_555
O66 P0 1.582093 1_565
O66 Zr7 2.241693 1_555
O67 P1 1.580657 1_555
O67 Zr7 2.255499 1_555
O68 P2 1.577249 1_455
O68 Zr7 2.248604 1_555
O69 P3 1.567909 1_555
O69 Zr8 2.215171 1_555
O70 Si0 1.663082 1_455
O70 Zr8 2.123548 1_555
O71 P4 1.563178 1_565
O71 Zr8 2.253924 1_555
