# generated using pymatgen
data_Na6Hf6Zn2Si5S7O48
_symmetry_space_group_name_H-M   'P 1'
_cell_length_a   17.89261110
_cell_length_b   8.99529165
_cell_length_c   23.25109569
_cell_angle_alpha   90.00574908
_cell_angle_beta   89.82375893
_cell_angle_gamma   120.18733943
_symmetry_Int_Tables_number   1
_chemical_formula_structural   Na6Hf6Zn2Si5S7O48
_chemical_formula_sum   'Na18 Hf18 Zn6 Si15 S21 O144'
_cell_volume   3234.72543040
_cell_formula_units_Z   3
loop_
 _symmetry_equiv_pos_site_id
 _symmetry_equiv_pos_as_xyz
  1  'x, y, z'
loop_
 _atom_site_type_symbol
 _atom_site_label
 _atom_site_symmetry_multiplicity
 _atom_site_fract_x
 _atom_site_fract_y
 _atom_site_fract_z
 _atom_site_occupancy
  Na  Na0  1  0.65559413  0.35016157  0.58079186  1
  Na  Na1  1  0.52239022  0.68834576  0.58397929  1
  Na  Na2  1  0.82107051  0.95149735  0.58205746  1
  Na  Na3  1  0.15420672  0.95774406  0.08427578  1
  Na  Na4  1  0.32063241  0.69178350  0.08541254  1
  Na  Na5  1  0.02236343  0.35795308  0.08742731  1
  Na  Na6  1  0.00723294  0.99291411  0.49369164  1
  Na  Na7  1  0.49307050  0.00753346  0.49975710  1
  Na  Na8  1  0.99462934  0.98012967  0.00265176  1
  Na  Na9  1  0.50483166  0.00953851  0.99968629  1
  Na  Na10  1  0.32683523  0.32134218  0.81712941  1
  Na  Na11  1  0.82736721  0.32924213  0.83200112  1
  Na  Na12  1  0.32447942  0.32304764  0.33365859  1
  Na  Na13  1  0.83535507  0.34410406  0.32168261  1
  Na  Na14  1  0.16339132  0.66429037  0.16038731  1
  Na  Na15  1  0.67417295  0.67943706  0.17261988  1
  Na  Na16  1  0.17371787  0.66738497  0.66668596  1
  Na  Na17  1  0.66466148  0.66364419  0.65425266  1
  Hf  Hf0  1  0.00050834  0.99131185  0.35557859  1
  Hf  Hf1  1  0.50200670  0.99831804  0.35157389  1
  Hf  Hf2  1  0.00273564  0.00514583  0.85162692  1
  Hf  Hf3  1  0.50037235  0.99893110  0.85140505  1
  Hf  Hf4  1  0.00538784  0.00496244  0.64731492  1
  Hf  Hf5  1  0.49288645  0.00243011  0.64484836  1
  Hf  Hf6  1  0.99444721  0.98570161  0.14794235  1
  Hf  Hf7  1  0.50361528  0.00605105  0.14991974  1
  Hf  Hf8  1  0.32956669  0.31968122  0.98457570  1
  Hf  Hf9  1  0.83206407  0.34550202  0.97729910  1
  Hf  Hf10  1  0.33156097  0.31768623  0.47676291  1
  Hf  Hf11  1  0.83322752  0.34867636  0.48230251  1
  Hf  Hf12  1  0.67185538  0.67822389  0.01495389  1
  Hf  Hf13  1  0.16777547  0.66823409  0.51138998  1
  Hf  Hf14  1  0.16509025  0.66202642  0.31904938  1
  Hf  Hf15  1  0.67101916  0.67904309  0.31018381  1
  Hf  Hf16  1  0.17015732  0.66308237  0.80895630  1
  Hf  Hf17  1  0.67243510  0.67861739  0.81550138  1
  Zn  Zn0  1  0.33530517  0.31516390  0.69041602  1
  Zn  Zn1  1  0.82162423  0.32912008  0.67064880  1
  Zn  Zn2  1  0.31915500  0.30997863  0.17624805  1
  Zn  Zn3  1  0.83824271  0.35602962  0.19287401  1
  Zn  Zn4  1  0.16525542  0.66975320  0.02720097  1
  Zn  Zn5  1  0.66609450  0.66331506  0.52607033  1
  Si  Si0  1  0.65106967  0.00853054  0.24869789  1
  Si  Si1  1  0.85448949  0.70496023  0.25188728  1
  Si  Si2  1  0.15081024  0.29276246  0.74886751  1
  Si  Si3  1  0.35538556  0.00673476  0.75199058  1
  Si  Si4  1  0.47419939  0.33595107  0.58594298  1
  Si  Si5  1  0.68735348  0.03980404  0.58476057  1
  Si  Si6  1  0.83681889  0.63302940  0.58612510  1
  Si  Si7  1  0.97372743  0.61482066  0.08587395  1
  Si  Si8  1  0.33807501  0.04235463  0.08505955  1
  Si  Si9  1  0.18613826  0.33451659  0.08575428  1
  Si  Si10  1  0.81583818  0.67176193  0.91484736  1
  Si  Si11  1  0.66531365  0.96124379  0.91695187  1
  Si  Si12  1  0.31558351  0.95828253  0.41430406  1
  Si  Si13  1  0.16647193  0.37307719  0.41665310  1
  Si  Si14  1  0.01693038  0.65979409  0.41667753  1
  S  S0  1  0.14746990  0.00065066  0.25010895  1
  S  S1  1  0.35448227  0.70613542  0.24903004  1
  S  S2  1  0.00303161  0.29173523  0.24964772  1
  S  S3  1  0.49747228  0.29065013  0.25164813  1
  S  S4  1  0.64654120  0.29330780  0.75071962  1
  S  S5  1  0.99741819  0.70547637  0.75147891  1
  S  S6  1  0.50225326  0.71076996  0.75007971  1
  S  S7  1  0.85552127  0.00391555  0.74965542  1
  S  S8  1  0.98096671  0.33778719  0.58572320  1
  S  S9  1  0.18823262  0.03800814  0.58439664  1
  S  S10  1  0.32927167  0.61809418  0.58478679  1
  S  S11  1  0.48030095  0.62295261  0.08448386  1
  S  S12  1  0.83055287  0.04170685  0.08394769  1
  S  S13  1  0.68642060  0.33587910  0.08315647  1
  S  S14  1  0.31263115  0.66519315  0.91758740  1
  S  S15  1  0.02192246  0.37618546  0.91746942  1
  S  S16  1  0.52134421  0.37798284  0.91605082  1
  S  S17  1  0.16730528  0.95803650  0.91672009  1
  S  S18  1  0.81100744  0.95791292  0.41818928  1
  S  S19  1  0.66560375  0.37592418  0.41671273  1
  S  S20  1  0.52195888  0.66740035  0.41756461  1
  O  O0  1  0.10165388  0.01547600  0.30119350  1
  O  O1  1  0.59689805  0.02310694  0.30392236  1
  O  O2  1  0.40826411  0.80405724  0.29976481  1
  O  O3  1  0.91348095  0.81603068  0.30603393  1
  O  O4  1  0.48762119  0.18124306  0.30251962  1
  O  O5  1  0.99898980  0.18741486  0.30006507  1
  O  O6  1  0.09742919  0.17139266  0.80487206  1
  O  O7  1  0.59980049  0.18501141  0.80229294  1
  O  O8  1  0.49839544  0.80974838  0.80139593  1
  O  O9  1  0.98796685  0.79568999  0.80289732  1
  O  O10  1  0.41363548  0.01515653  0.80781564  1
  O  O11  1  0.90790501  0.01124231  0.80090208  1
  O  O12  1  0.39978045  0.96984892  0.69614754  1
  O  O13  1  0.89517035  0.97745016  0.69671093  1
  O  O14  1  0.08583587  0.19665177  0.69428821  1
  O  O15  1  0.59517171  0.20932908  0.69789505  1
  O  O16  1  0.01095104  0.81460754  0.69939350  1
  O  O17  1  0.51618506  0.81466883  0.69722890  1
  O  O18  1  0.39714001  0.81381446  0.19559131  1
  O  O19  1  0.89711596  0.82619984  0.19413074  1
  O  O20  1  0.01386359  0.21152249  0.19534842  1
  O  O21  1  0.51090347  0.20794238  0.19900325  1
  O  O22  1  0.09622877  0.98409708  0.19651837  1
  O  O23  1  0.58629320  0.97471270  0.19309393  1
  O  O24  1  0.43413001  0.38345204  0.63988984  1
  O  O25  1  0.94362404  0.36069811  0.63819659  1
  O  O26  1  0.23730897  0.11552966  0.63599402  1
  O  O27  1  0.74950106  0.10870068  0.64066432  1
  O  O28  1  0.31695090  0.52134089  0.63697487  1
  O  O29  1  0.81735848  0.51952710  0.64340206  1
  O  O30  1  0.44377860  0.52523847  0.13650257  1
  O  O31  1  0.93208287  0.48176111  0.13821796  1
  O  O32  1  0.31917546  0.12198819  0.14080571  1
  O  O33  1  0.81504667  0.10888552  0.13604345  1
  O  O34  1  0.25130316  0.38893144  0.13933362  1
  O  O35  1  0.73678557  0.36432824  0.13472551  1
  O  O36  1  0.23295609  0.29555250  0.02901454  1
  O  O37  1  0.72513309  0.30685179  0.03024682  1
  O  O38  1  0.42524012  0.54153213  0.03176105  1
  O  O39  1  0.91617208  0.52840729  0.02686582  1
  O  O40  1  0.35379594  0.16650418  0.02716594  1
  O  O41  1  0.84203872  0.14431479  0.03130869  1
  O  O42  1  0.22596245  0.14239329  0.53123470  1
  O  O43  1  0.73298971  0.17014761  0.52924902  1
  O  O44  1  0.34262777  0.54045327  0.53224051  1
  O  O45  1  0.85342290  0.54289748  0.52907185  1
  O  O46  1  0.41622089  0.30730435  0.52788362  1
  O  O47  1  0.92603062  0.30744932  0.53364916  1
  O  O48  1  0.27667836  0.69265213  0.96986403  1
  O  O49  1  0.76673406  0.69084449  0.97157184  1
  O  O50  1  0.07185703  0.44604123  0.96979000  1
  O  O51  1  0.57349224  0.45851181  0.96837923  1
  O  O52  1  0.15516120  0.86341069  0.96989038  1
  O  O53  1  0.65012685  0.83621586  0.97250154  1
  O  O54  1  0.27097301  0.84512958  0.47227736  1
  O  O55  1  0.77464656  0.85517736  0.47014141  1
  O  O56  1  0.15213956  0.46349539  0.47335698  1
  O  O57  1  0.65323215  0.44659268  0.46992282  1
  O  O58  1  0.07696124  0.69049769  0.47345549  1
  O  O59  1  0.57172436  0.69708268  0.46993005  1
  O  O60  1  0.06554236  0.63997037  0.36005701  1
  O  O61  1  0.56351985  0.64161732  0.36612130  1
  O  O62  1  0.25530267  0.86704908  0.35828176  1
  O  O63  1  0.75589539  0.86853311  0.36643569  1
  O  O64  1  0.18219551  0.49379801  0.36004429  1
  O  O65  1  0.67474722  0.48249120  0.36555843  1
  O  O66  1  0.06358489  0.48566779  0.86610213  1
  O  O67  1  0.56428915  0.48202810  0.86424579  1
  O  O68  1  0.17671208  0.87100791  0.86551549  1
  O  O69  1  0.67590482  0.86116953  0.86091207  1
  O  O70  1  0.25743748  0.64210868  0.86615934  1
  O  O71  1  0.75387834  0.64310930  0.85932450  1
  O  O72  1  0.00733104  0.83114658  0.41115455  1
  O  O73  1  0.51103478  0.82108641  0.40755604  1
  O  O74  1  0.41189161  0.98070322  0.40794261  1
  O  O75  1  0.89867006  0.98118978  0.40827449  1
  O  O76  1  0.08048026  0.18529098  0.40867436  1
  O  O77  1  0.58824298  0.19916406  0.40817187  1
  O  O78  1  0.01068264  0.20060691  0.90728286  1
  O  O79  1  0.51213137  0.20464063  0.91052283  1
  O  O80  1  0.09047804  0.98165076  0.90846480  1
  O  O81  1  0.58017659  0.98218925  0.91025437  1
  O  O82  1  0.40049043  0.82017466  0.90772577  1
  O  O83  1  0.91074351  0.84287169  0.90868872  1
  O  O84  1  0.48765584  0.16454614  0.59108034  1
  O  O85  1  0.98640402  0.17406781  0.59009924  1
  O  O86  1  0.09870718  0.01831236  0.58911396  1
  O  O87  1  0.59078696  0.02160544  0.59288620  1
  O  O88  1  0.41336697  0.79410022  0.58879200  1
  O  O89  1  0.92052498  0.83096549  0.59169206  1
  O  O90  1  0.48704405  0.79760190  0.08778078  1
  O  O91  1  0.98825846  0.81289699  0.09166142  1
  O  O92  1  0.42167687  0.01083786  0.08940974  1
  O  O93  1  0.91247657  0.03089570  0.08768553  1
  O  O94  1  0.09007892  0.16025475  0.09122008  1
  O  O95  1  0.59780669  0.17698115  0.08829516  1
  O  O96  1  0.34793242  0.17428157  0.75096658  1
  O  O97  1  0.84834997  0.15641545  0.74779211  1
  O  O98  1  0.24567083  0.32295524  0.74299195  1
  O  O99  1  0.73193178  0.31137026  0.74940317  1
  O  O100  1  0.42404864  0.54553325  0.74964020  1
  O  O101  1  0.92295123  0.53543052  0.74694343  1
  O  O102  1  0.35036787  0.54114121  0.24621736  1
  O  O103  1  0.84610045  0.52135061  0.25111599  1
  O  O104  1  0.42275329  0.31109965  0.24605864  1
  O  O105  1  0.92515952  0.30343679  0.24741265  1
  O  O106  1  0.23312819  0.15630050  0.24784030  1
  O  O107  1  0.74595351  0.16806610  0.24227751  1
  O  O108  1  0.32413003  0.51193940  0.92153896  1
  O  O109  1  0.82318375  0.49855424  0.92036580  1
  O  O110  1  0.43533014  0.36280125  0.92193445  1
  O  O111  1  0.93298908  0.35136094  0.92210800  1
  O  O112  1  0.24667809  0.13568879  0.92003648  1
  O  O113  1  0.75266816  0.14505988  0.92519810  1
  O  O114  1  0.32468712  0.14863264  0.42052605  1
  O  O115  1  0.81889018  0.12944380  0.42214929  1
  O  O116  1  0.25272756  0.35801952  0.42569483  1
  O  O117  1  0.74386886  0.35649332  0.41993329  1
  O  O118  1  0.43317064  0.51457130  0.42203404  1
  O  O119  1  0.92273036  0.48510487  0.42257885  1
  O  O120  1  0.17331678  0.49777821  0.07553557  1
  O  O121  1  0.67186844  0.48429246  0.07312072  1
  O  O122  1  0.07272468  0.65260319  0.07812002  1
  O  O123  1  0.56802368  0.64628450  0.07449836  1
  O  O124  1  0.25309977  0.85452825  0.07581852  1
  O  O125  1  0.75552250  0.85930101  0.07543297  1
  O  O126  1  0.17567569  0.86215531  0.57732364  1
  O  O127  1  0.67248411  0.84831765  0.57590066  1
  O  O128  1  0.25597381  0.65191406  0.57750563  1
  O  O129  1  0.75214206  0.65230323  0.57716330  1
  O  O130  1  0.06956475  0.48708720  0.57773762  1
  O  O131  1  0.57323312  0.49477447  0.57804562  1
  O  O132  1  0.15308122  0.84160084  0.25338364  1
  O  O133  1  0.64911591  0.82279620  0.25850742  1
  O  O134  1  0.26883230  0.69386851  0.25275044  1
  O  O135  1  0.75721917  0.68700098  0.25808945  1
  O  O136  1  0.08285444  0.46674010  0.25300269  1
  O  O137  1  0.57874993  0.46008094  0.25845909  1
  O  O138  1  0.14991535  0.47580003  0.75875399  1
  O  O139  1  0.65008360  0.46234812  0.75698001  1
  O  O140  1  0.07898741  0.69871884  0.75905027  1
  O  O141  1  0.58073991  0.69268452  0.75738976  1
  O  O142  1  0.25871565  0.83053176  0.75931368  1
  O  O143  1  0.76817402  0.84244118  0.75527800  1
loop_
_geom_bond_atom_site_label_1
_geom_bond_atom_site_label_2
_geom_bond_distance
_geom_bond_site_symmetry_2
Na0 O129 2.378148 1_555
Na0 O131 2.407556 1_555
Na0 O87 2.590391 1_555
Na0 O84 2.612342 1_555
Na0 O57 2.727158 1_555
Na0 O43 2.867135 1_555
Na0 O29 2.899772 1_555
Na0 O15 2.965203 1_555
Na1 O127 2.329988 1_555
Na1 O131 2.338943 1_555
Na1 O88 2.566628 1_555
Na1 O87 2.615186 1_565
Na1 O24 2.708907 1_555
Na1 O59 2.780849 1_555
Na1 O17 2.891649 1_555
Na2 O129 2.332396 1_555
Na2 O127 2.338994 1_555
Na2 O89 2.516967 1_555
Na2 O85 2.615663 1_565
Na2 O27 2.703023 1_565
Na2 O55 2.738803 1_555
Na2 O13 2.937565 1_555
Na2 O47 2.997732 1_565
Na3 O122 2.378431 1_555
Na3 O124 2.383621 1_555
Na3 O91 2.578728 1_455
Na3 O94 2.600349 1_565
Na3 O52 2.794204 1_554
Na3 O22 2.858974 1_555
Na3 O32 2.874179 1_565
Na3 O36 2.924675 1_565
Na4 O120 2.328880 1_555
Na4 O124 2.331009 1_555
Na4 O92 2.509377 1_565
Na4 O90 2.631646 1_555
Na4 O34 2.669221 1_555
Na4 O48 2.802807 1_554
Na4 O18 2.855072 1_555
Na5 O122 2.341120 1_555
Na5 O120 2.352158 1_555
Na5 O93 2.589181 1_455
Na5 O94 2.608804 1_555
Na5 O31 2.653577 1_455
Na5 O20 2.802048 1_555
Na5 O50 2.858890 1_554
Na6 O72 2.408796 1_555
Na6 O76 2.514698 1_565
Na6 O86 2.701801 1_565
Na6 O89 2.725303 1_455
Na6 O75 2.747064 1_455
Na6 O85 2.902381 1_465
Na7 O74 2.528193 1_545
Na7 O84 2.578490 1_555
Na7 O88 2.689703 1_545
Na7 O77 2.726212 1_555
Na7 O87 2.749974 1_555
Na7 O73 2.837090 1_545
Na8 O91 2.527011 1_555
Na8 O83 2.589656 1_554
Na8 O93 2.633485 1_565
Na8 O94 2.649701 1_665
Na8 O80 2.773182 1_654
Na8 O78 2.890829 1_664
Na9 O81 2.553036 1_545
Na9 O92 2.562097 1_556
Na9 O95 2.604103 1_556
Na9 O79 2.676485 1_555
Na9 O90 2.705156 1_546
Na9 O82 2.790075 1_545
Na10 O96 2.181096 1_555
Na10 O98 2.262128 1_555
Na10 O100 2.451743 1_555
Na10 O112 2.853404 1_555
Na10 O108 2.986150 1_555
Na10 O110 3.024330 1_555
Na11 O99 2.524686 1_555
Na11 O109 2.580605 1_555
Na11 O97 2.640686 1_555
Na11 O113 2.642514 1_555
Na11 O101 2.658219 1_555
Na11 O111 2.765254 1_555
Na12 O106 2.541037 1_555
Na12 O114 2.558807 1_555
Na12 O116 2.591458 1_555
Na12 O102 2.697763 1_555
Na12 O104 2.723958 1_555
Na12 O118 2.761696 1_555
Na13 O103 2.227420 1_555
Na13 O107 2.438278 1_555
Na13 O105 2.504339 1_555
Na13 O119 2.753934 1_555
Na13 O117 2.840951 1_555
Na13 O115 2.948999 1_555
Na14 O122 2.479747 1_555
Na14 O120 2.536158 1_555
Na14 O124 2.567126 1_555
Na14 O136 2.697773 1_555
Na14 O132 2.747011 1_555
Na14 O134 2.786047 1_555
Na15 O135 2.465409 1_555
Na15 O133 2.535210 1_555
Na15 O137 2.717312 1_555
Na15 O125 2.730344 1_555
Na15 O123 2.891034 1_555
Na15 O121 2.891741 1_555
Na16 O128 2.583060 1_555
Na16 O142 2.622982 1_555
Na16 O138 2.644031 1_555
Na16 O126 2.706748 1_555
Na16 O130 2.713670 1_555
Na16 O140 2.832380 1_555
Na17 O131 2.375180 1_555
Na17 O129 2.411734 1_555
Na17 O127 2.421405 1_555
Na17 O141 2.906167 1_555
Na17 O143 2.926594 1_555
Na17 O139 2.928112 1_555
Hf0 O3 1.944056 1_455
Hf0 O72 1.984595 1_555
Hf0 O76 2.028734 1_565
Hf0 O0 2.124109 1_565
Hf0 O75 2.156195 1_455
Hf0 O5 2.197125 1_465
Hf1 O1 1.941063 1_565
Hf1 O74 2.018117 1_555
Hf1 O2 2.093422 1_555
Hf1 O4 2.121981 1_565
Hf1 O73 2.126666 1_555
Hf1 O77 2.141310 1_565
Hf2 O6 1.931255 1_555
Hf2 O83 2.042294 1_445
Hf2 O11 2.092590 1_455
Hf2 O9 2.098610 1_445
Hf2 O78 2.129657 1_555
Hf2 O80 2.145309 1_545
Hf3 O10 1.922117 1_565
Hf3 O81 2.040144 1_555
Hf3 O8 2.046598 1_555
Hf3 O7 2.064917 1_565
Hf3 O82 2.142518 1_555
Hf3 O79 2.228777 1_565
Hf4 O14 1.936819 1_555
Hf4 O89 2.012356 1_445
Hf4 O86 2.101938 1_555
Hf4 O16 2.140252 1_545
Hf4 O85 2.172982 1_455
Hf4 O13 2.182826 1_445
Hf5 O12 1.944395 1_545
Hf5 O84 1.958722 1_555
Hf5 O87 2.059381 1_555
Hf5 O88 2.136470 1_545
Hf5 O15 2.218670 1_555
Hf5 O17 2.285015 1_545
Hf6 O19 1.928923 1_555
Hf6 O91 1.992061 1_555
Hf6 O94 2.101731 1_665
Hf6 O22 2.152090 1_655
Hf6 O20 2.180396 1_665
Hf6 O93 2.211712 1_565
Hf7 O23 1.924615 1_545
Hf7 O92 2.051073 1_555
Hf7 O21 2.092820 1_555
Hf7 O18 2.102918 1_545
Hf7 O95 2.153391 1_555
Hf7 O90 2.265877 1_545
Hf8 O40 1.915919 1_556
Hf8 O36 1.927324 1_556
Hf8 O38 2.166137 1_556
Hf8 O112 2.176079 1_555
Hf8 O110 2.257850 1_555
Hf8 O108 2.306321 1_555
Hf9 O39 1.954535 1_556
Hf9 O109 1.973495 1_555
Hf9 O113 2.042256 1_555
Hf9 O37 2.147959 1_556
Hf9 O111 2.191009 1_555
Hf9 O41 2.282683 1_556
Hf10 O114 1.962104 1_555
Hf10 O46 1.967095 1_555
Hf10 O116 2.013995 1_555
Hf10 O42 2.156370 1_555
Hf10 O118 2.193022 1_555
Hf10 O44 2.306629 1_555
Hf11 O45 1.931976 1_555
Hf11 O119 2.002303 1_555
Hf11 O43 2.019639 1_555
Hf11 O117 2.188969 1_555
Hf11 O47 2.225226 1_555
Hf11 O115 2.324626 1_555
Hf12 O53 1.924449 1_554
Hf12 O49 1.925600 1_554
Hf12 O125 2.105207 1_555
Hf12 O51 2.165527 1_554
Hf12 O121 2.207524 1_555
Hf12 O123 2.213207 1_555
Hf13 O56 1.932643 1_555
Hf13 O58 1.947944 1_555
Hf13 O54 1.950301 1_555
Hf13 O128 2.263420 1_555
Hf13 O126 2.272848 1_555
Hf13 O130 2.286289 1_555
Hf14 O60 1.937847 1_555
Hf14 O64 1.939081 1_555
Hf14 O62 1.963104 1_555
Hf14 O136 2.241230 1_555
Hf14 O132 2.310439 1_555
Hf14 O134 2.313369 1_555
Hf15 O135 1.930950 1_555
Hf15 O133 1.944796 1_555
Hf15 O63 2.081081 1_555
Hf15 O137 2.189297 1_555
Hf15 O61 2.199556 1_555
Hf15 O65 2.215337 1_555
Hf16 O142 1.923727 1_555
Hf16 O138 1.928820 1_555
Hf16 O70 2.133664 1_555
Hf16 O140 2.155887 1_555
Hf16 O66 2.207469 1_555
Hf16 O68 2.240807 1_555
Hf17 O69 1.926844 1_555
Hf17 O71 1.934181 1_555
Hf17 O143 2.124566 1_555
Hf17 O67 2.168331 1_555
Hf17 O141 2.180798 1_555
Hf17 O139 2.239733 1_555
O0 S0 1.484764 1_555
O1 Si0 1.650918 1_555
O2 S1 1.499263 1_555
O3 Si1 1.626257 1_555
O4 S3 1.491032 1_555
O5 S2 1.480355 1_655
O6 Si2 1.656444 1_555
O7 S4 1.503690 1_555
O8 S6 1.510689 1_555
O9 S5 1.500999 1_555
O10 Si3 1.644900 1_555
O11 S7 1.499114 1_555
O12 Si3 1.638768 1_565
O13 S7 1.496588 1_565
O14 Si2 1.645449 1_555
O15 S4 1.494158 1_555
O16 S5 1.499439 1_455
O17 S6 1.486512 1_555
O18 S1 1.521682 1_555
O19 Si1 1.652868 1_555
O20 S2 1.513630 1_555
O21 S3 1.512406 1_555
O22 S0 1.511647 1_565
O23 Si0 1.661898 1_565
O24 Si4 1.603853 1_555
O24 Zn0 1.944005 1_555
O25 S8 1.452886 1_555
O25 Zn1 2.186642 1_555
O26 S9 1.444689 1_555
O26 Zn0 2.178773 1_555
O27 Si5 1.620437 1_555
O27 Zn1 1.874760 1_555
O28 S10 1.443638 1_555
O28 Zn0 2.388918 1_555
O29 Si6 1.605342 1_555
O29 Zn1 1.863524 1_555
O30 S11 1.442291 1_555
O30 Zn2 2.284975 1_555
O31 Si7 1.602139 1_555
O31 Zn3 1.946980 1_555
O32 Si8 1.596318 1_555
O32 Zn2 1.881227 1_555
O33 S12 1.440745 1_555
O33 Zn3 2.436285 1_555
O34 Si9 1.608076 1_555
O34 Zn2 1.894363 1_555
O35 S13 1.445661 1_555
O35 Zn3 2.297902 1_555
O36 Si9 1.689201 1_555
O37 S13 1.495980 1_555
O38 S11 1.513722 1_555
O39 Si7 1.658490 1_555
O40 Si8 1.679375 1_555
O41 S12 1.483250 1_555
O42 S9 1.490945 1_555
O43 Si5 1.654809 1_555
O44 S10 1.484401 1_555
O45 Si6 1.656782 1_555
O46 Si4 1.644577 1_555
O47 S8 1.498046 1_555
O48 S14 1.451608 1_555
O48 Zn4 2.316261 1_556
O49 Si10 1.638723 1_555
O50 S15 1.454288 1_555
O50 Zn4 2.292463 1_556
O51 S16 1.484172 1_555
O52 S17 1.453496 1_555
O52 Zn4 2.271828 1_556
O53 Si11 1.642470 1_555
O54 Si12 1.633002 1_555
O55 S18 1.458485 1_555
O55 Zn5 2.248543 1_555
O56 Si13 1.634929 1_555
O57 S19 1.457192 1_555
O57 Zn5 2.260065 1_555
O58 Si14 1.638017 1_555
O59 S20 1.453999 1_555
O59 Zn5 2.275234 1_555
O60 Si14 1.634128 1_555
O61 S20 1.485054 1_555
O62 Si12 1.628439 1_555
O63 S18 1.508840 1_555
O64 Si13 1.637550 1_555
O65 S19 1.483798 1_555
O66 S15 1.486104 1_555
O67 S16 1.479378 1_555
O68 S17 1.479766 1_555
O69 Si11 1.647374 1_555
O70 S14 1.499739 1_555
O71 Si10 1.638126 1_555
O72 Si14 1.639577 1_555
O73 S20 1.508515 1_555
O74 Si12 1.637351 1_555
O75 S18 1.491552 1_555
O76 Si13 1.625759 1_555
O77 S19 1.507263 1_555
O78 S15 1.507241 1_555
O79 S16 1.488825 1_555
O80 S17 1.505616 1_555
O81 Si11 1.634125 1_555
O82 S14 1.503748 1_555
O83 Si10 1.625796 1_555
O84 Si4 1.680192 1_555
O85 S8 1.527367 1_555
O86 S9 1.524088 1_555
O87 Si5 1.661755 1_555
O88 S10 1.544166 1_555
O89 Si6 1.658148 1_555
O90 S11 1.515901 1_555
O91 Si7 1.671720 1_555
O92 Si8 1.660001 1_555
O93 S12 1.519805 1_555
O94 Si9 1.648234 1_555
O95 S13 1.513598 1_555
O96 Si3 1.578591 1_555
O96 Zn0 1.982268 1_555
O97 S7 1.441244 1_555
O97 Zn1 2.571436 1_555
O98 Si2 1.583750 1_555
O98 Zn0 2.042646 1_555
O99 S4 1.453189 1_555
O99 Zn1 2.382917 1_555
O100 S6 1.440775 1_555
O100 Zn0 2.327124 1_555
O101 S5 1.441311 1_555
O101 Zn1 2.552132 1_555
O102 S1 1.450031 1_555
O102 Zn2 2.473749 1_555
O103 Si1 1.581583 1_555
O103 Zn3 1.963568 1_555
O104 S3 1.444461 1_555
O104 Zn2 2.463838 1_555
O105 S2 1.450207 1_655
O105 Zn3 2.236637 1_555
O106 S0 1.467519 1_555
O106 Zn2 2.212685 1_555
O107 Si0 1.585028 1_555
O107 Zn3 2.021373 1_555
O108 S14 1.495522 1_555
O109 Si10 1.633202 1_555
O110 S16 1.480973 1_555
O111 S15 1.495052 1_655
O112 S17 1.514890 1_545
O113 Si11 1.617558 1_545
O114 Si12 1.642830 1_545
O115 S18 1.479974 1_545
O116 Si13 1.629927 1_555
O117 S19 1.497993 1_555
O118 S20 1.492381 1_555
O119 Si14 1.632182 1_655
O120 Si9 1.614015 1_555
O120 Zn4 1.975512 1_555
O121 S13 1.501512 1_555
O122 Si7 1.636526 1_455
O122 Zn4 1.974250 1_555
O123 S11 1.492664 1_555
O124 Si8 1.622041 1_565
O124 Zn4 1.973373 1_555
O125 S12 1.523166 1_565
O126 S9 1.490814 1_565
O127 Si5 1.618502 1_565
O127 Zn5 1.983417 1_555
O128 S10 1.497942 1_555
O129 Si6 1.623295 1_555
O129 Zn5 1.989005 1_555
O130 S8 1.486049 1_455
O131 Si4 1.633051 1_555
O131 Zn5 1.993578 1_555
O132 S0 1.485700 1_565
O133 Si0 1.669098 1_565
O134 S1 1.482345 1_555
O135 Si1 1.670827 1_555
O136 S2 1.504559 1_555
O137 S3 1.495059 1_555
O138 Si2 1.670448 1_555
O139 S4 1.496803 1_555
O140 S5 1.501861 1_455
O141 S6 1.502907 1_555
O142 Si3 1.665590 1_565
O143 S7 1.511718 1_565
