# generated using pymatgen
data_NdClO
_symmetry_space_group_name_H-M   'P 1'
_cell_length_a   4.04899113
_cell_length_b   4.04899113
_cell_length_c   6.78904691
_cell_angle_alpha   90.00000000
_cell_angle_beta   90.00000000
_cell_angle_gamma   90.00000000
_symmetry_Int_Tables_number   1
_chemical_formula_structural   NdClO
_chemical_formula_sum   'Nd2 Cl2 O2'
_cell_volume   111.30186980
_cell_formula_units_Z   2
loop_
 _symmetry_equiv_pos_site_id
 _symmetry_equiv_pos_as_xyz
  1  'x, y, z'
loop_
 _atom_site_type_symbol
 _atom_site_label
 _atom_site_symmetry_multiplicity
 _atom_site_fract_x
 _atom_site_fract_y
 _atom_site_fract_z
 _atom_site_occupancy
  Nd  Nd0  1  0.75000000  0.75000000  0.82593213  1
  Nd  Nd1  1  0.25000000  0.25000000  0.17406787  1
  Cl  Cl0  1  0.25000000  0.25000000  0.62787738  1
  Cl  Cl1  1  0.75000000  0.75000000  0.37212262  1
  O  O0  1  0.75000000  0.25000000  -0.00000000  1
  O  O1  1  0.25000000  0.75000000  -0.00000000  1
loop_
_geom_bond_atom_site_label_1
_geom_bond_atom_site_label_2
_geom_bond_distance
_geom_bond_site_symmetry_2
Nd0 O1 2.344169 1_656
Nd0 O0 2.344169 1_556
Nd0 O1 2.344169 1_556
Nd0 O0 2.344169 1_566
Nd1 O1 2.344169 1_545
Nd1 O0 2.344169 1_555
Nd1 O0 2.344169 1_455
Nd1 O1 2.344169 1_555
Cl0 Nd1 3.080934 1_555
Cl0 Nd0 3.163087 1_455
Cl0 Nd0 3.163087 1_445
Cl0 Nd0 3.163087 1_555
Cl0 Nd0 3.163087 1_545
Cl1 Nd0 3.080934 1_555
Cl1 Nd1 3.163087 1_655
Cl1 Nd1 3.163087 1_555
Cl1 Nd1 3.163087 1_665
Cl1 Nd1 3.163087 1_565
