# generated using pymatgen
data_Fe3Si
_symmetry_space_group_name_H-M   'P 1'
_cell_length_a   3.97916293
_cell_length_b   3.97916392
_cell_length_c   3.97916579
_cell_angle_alpha   60.00001073
_cell_angle_beta   60.00000254
_cell_angle_gamma   60.00002514
_symmetry_Int_Tables_number   1
_chemical_formula_structural   Fe3Si
_chemical_formula_sum   'Fe3 Si1'
_cell_volume   44.55133426
_cell_formula_units_Z   1
loop_
 _symmetry_equiv_pos_site_id
 _symmetry_equiv_pos_as_xyz
  1  'x, y, z'
loop_
 _atom_site_type_symbol
 _atom_site_label
 _atom_site_symmetry_multiplicity
 _atom_site_fract_x
 _atom_site_fract_y
 _atom_site_fract_z
 _atom_site_occupancy
  Fe  Fe0  1  0.25000000  0.25000000  0.25000000  1
  Fe  Fe1  1  0.75000000  0.75000000  0.75000000  1
  Fe  Fe2  1  0.50000000  0.50000000  0.50000000  1
  Si  Si0  1  0.00000000  0.00000000  -0.00000000  1
loop_
_geom_bond_atom_site_label_1
_geom_bond_atom_site_label_2
_geom_bond_distance
_geom_bond_site_symmetry_2
Fe0 Si0 2.436730 1_655
Fe0 Fe2 2.436730 1_455
Fe0 Fe2 2.436730 1_555
Fe0 Si0 2.436730 1_555
Fe0 Si0 2.436731 1_565
Fe0 Fe2 2.436731 1_545
Fe0 Si0 2.436732 1_556
Fe0 Fe2 2.436732 1_554
Fe1 Fe2 2.436730 1_655
Fe1 Si0 2.436730 1_566
Fe1 Fe2 2.436730 1_555
Fe1 Si0 2.436730 1_666
Fe1 Si0 2.436731 1_656
Fe1 Fe2 2.436731 1_565
Fe1 Fe2 2.436732 1_556
Fe1 Si0 2.436732 1_665
Fe2 Si0 2.813693 1_665
Fe2 Si0 2.813693 1_556
Fe2 Si0 2.813695 1_656
Fe2 Si0 2.813695 1_565
Fe2 Si0 2.813695 1_655
Fe2 Si0 2.813695 1_566
