# generated using pymatgen
data_MnP2O7
_symmetry_space_group_name_H-M   'P 1'
_cell_length_a   7.69992672
_cell_length_b   4.68837730
_cell_length_c   6.82319194
_cell_angle_alpha   73.70385123
_cell_angle_beta   90.00000000
_cell_angle_gamma   90.00000000
_symmetry_Int_Tables_number   1
_chemical_formula_structural   MnP2O7
_chemical_formula_sum   'Mn2 P4 O14'
_cell_volume   236.42228478
_cell_formula_units_Z   2
loop_
 _symmetry_equiv_pos_site_id
 _symmetry_equiv_pos_as_xyz
  1  'x, y, z'
loop_
 _atom_site_type_symbol
 _atom_site_label
 _atom_site_symmetry_multiplicity
 _atom_site_fract_x
 _atom_site_fract_y
 _atom_site_fract_z
 _atom_site_occupancy
  Mn  Mn0  1  0.99125652  0.77963451  0.72897937  1
  Mn  Mn1  1  0.49125652  0.22036549  0.27102063  1
  P  P0  1  0.22550156  0.22456736  0.89760521  1
  P  P1  1  0.72550156  0.77543264  0.10239479  1
  P  P2  1  0.81025313  0.39113496  0.49295802  1
  P  P3  1  0.31025313  0.60886504  0.50704198  1
  O  O0  1  0.06615519  0.41440803  0.90676714  1
  O  O1  1  0.17942985  0.94810166  0.83484713  1
  O  O2  1  0.67942985  0.05189834  0.16515287  1
  O  O3  1  0.32964131  0.13046477  0.09171793  1
  O  O4  1  0.94613370  0.15123349  0.54208685  1
  O  O5  1  0.62601031  0.27948580  0.48412764  1
  O  O6  1  0.30806352  0.40921773  0.36582458  1
  O  O7  1  0.56615519  0.58559197  0.09323286  1
  O  O8  1  0.44613370  0.84876651  0.45791315  1
  O  O9  1  0.35682891  0.41625373  0.73223504  1
  O  O10  1  0.85682891  0.58374627  0.26776496  1
  O  O11  1  0.80806352  0.59078227  0.63417542  1
  O  O12  1  0.12601031  0.72051420  0.51587236  1
  O  O13  1  0.82964131  0.86953523  0.90828207  1
loop_
_geom_bond_atom_site_label_1
_geom_bond_atom_site_label_2
_geom_bond_distance
_geom_bond_site_symmetry_2
Mn0 O12 1.869207 1_655
Mn0 O13 1.874135 1_555
Mn0 O11 1.874441 1_555
Mn0 O4 1.880241 1_565
Mn0 O1 1.888175 1_655
Mn0 O0 1.889571 1_655
Mn1 O5 1.869207 1_555
Mn1 O3 1.874135 1_555
Mn1 O6 1.874441 1_555
Mn1 O8 1.880241 1_545
Mn1 O2 1.888175 1_555
Mn1 O7 1.889571 1_555
O0 P0 1.527328 1_555
O1 P0 1.516829 1_565
O2 P1 1.516829 1_545
O3 P0 1.504634 1_554
O4 P2 1.503502 1_555
O5 P2 1.519184 1_555
O6 P3 1.520201 1_555
O7 P1 1.527328 1_555
O8 P3 1.503502 1_555
O9 P3 1.589444 1_555
O9 P0 1.591947 1_555
O10 P2 1.589444 1_555
O10 P1 1.591947 1_555
O11 P2 1.520201 1_555
O12 P3 1.519184 1_555
O13 P1 1.504634 1_556
