# generated using pymatgen
data_ThI4
_symmetry_space_group_name_H-M   'P 1'
_cell_length_a   8.04356117
_cell_length_b   8.19457376
_cell_length_c   13.43463957
_cell_angle_alpha   90.00000000
_cell_angle_beta   99.30344811
_cell_angle_gamma   90.00000000
_symmetry_Int_Tables_number   1
_chemical_formula_structural   ThI4
_chemical_formula_sum   'Th4 I16'
_cell_volume   873.87665518
_cell_formula_units_Z   4
loop_
 _symmetry_equiv_pos_site_id
 _symmetry_equiv_pos_as_xyz
  1  'x, y, z'
loop_
 _atom_site_type_symbol
 _atom_site_label
 _atom_site_symmetry_multiplicity
 _atom_site_fract_x
 _atom_site_fract_y
 _atom_site_fract_z
 _atom_site_occupancy
  Th  Th0  1  0.32260937  0.51382739  0.31728695  1
  Th  Th1  1  0.17739063  0.01382739  0.18271305  1
  Th  Th2  1  0.67739063  0.48617261  0.68271305  1
  Th  Th3  1  0.82260937  0.98617261  0.81728695  1
  I  I0  1  0.49549963  0.85911289  0.34495597  1
  I  I1  1  0.00450037  0.35911289  0.15504403  1
  I  I2  1  0.50450037  0.14088711  0.65504403  1
  I  I3  1  0.99549963  0.64088711  0.84495597  1
  I  I4  1  0.18387044  0.08762862  0.94194000  1
  I  I5  1  0.31612956  0.58762862  0.55806000  1
  I  I6  1  0.81612956  0.91237138  0.05806000  1
  I  I7  1  0.68387044  0.41237138  0.44194000  1
  I  I8  1  0.51090546  0.74624409  0.81939741  1
  I  I9  1  0.98909454  0.24624409  0.68060259  1
  I  I10  1  0.48909454  0.25375591  0.18060259  1
  I  I11  1  0.01090546  0.75375591  0.31939741  1
  I  I12  1  0.68759415  0.31044140  0.90228473  1
  I  I13  1  0.81240585  0.81044140  0.59771527  1
  I  I14  1  0.31240585  0.68955860  0.09771527  1
  I  I15  1  0.18759415  0.18955860  0.40228473  1
loop_
_geom_bond_atom_site_label_1
_geom_bond_atom_site_label_2
_geom_bond_distance
_geom_bond_site_symmetry_2
I0 Th0 3.148149 1_555
I0 Th1 3.331995 1_565
I1 Th1 3.148149 1_555
I1 Th0 3.331995 1_555
I2 Th2 3.148149 1_555
I2 Th3 3.331995 1_545
I3 Th3 3.148149 1_555
I3 Th2 3.331995 1_555
I4 Th3 3.219650 1_445
I4 Th1 3.299432 1_556
I5 Th2 3.219650 1_555
I5 Th0 3.299432 1_555
I6 Th1 3.219650 1_665
I6 Th3 3.299432 1_554
I7 Th0 3.219650 1_555
I7 Th2 3.299432 1_555
I8 Th3 3.189903 1_555
I8 Th2 3.240722 1_555
I9 Th2 3.189903 1_555
I9 Th3 3.240722 1_545
I10 Th1 3.189903 1_555
I10 Th0 3.240722 1_555
I11 Th0 3.189903 1_555
I11 Th1 3.240722 1_565
I12 Th3 3.153615 1_545
I12 Th2 3.271680 1_555
I13 Th2 3.153615 1_555
I13 Th3 3.271680 1_555
I14 Th1 3.153615 1_565
I14 Th0 3.271680 1_555
I15 Th0 3.153615 1_555
I15 Th1 3.271680 1_555
