# generated using pymatgen
data_MgFe8(OF)8
_symmetry_space_group_name_H-M   'P 1'
_cell_length_a   9.80753678
_cell_length_b   9.89170623
_cell_length_c   3.04755594
_cell_angle_alpha   89.89023652
_cell_angle_beta   89.80168657
_cell_angle_gamma   89.54180347
_symmetry_Int_Tables_number   1
_chemical_formula_structural   MgFe8(OF)8
_chemical_formula_sum   'Mg1 Fe8 O8 F8'
_cell_volume   295.64162345
_cell_formula_units_Z   1
loop_
 _symmetry_equiv_pos_site_id
 _symmetry_equiv_pos_as_xyz
  1  'x, y, z'
loop_
 _atom_site_type_symbol
 _atom_site_label
 _atom_site_symmetry_multiplicity
 _atom_site_fract_x
 _atom_site_fract_y
 _atom_site_fract_z
 _atom_site_occupancy
  Mg  Mg0  1  0.98974400  0.24225500  0.47889600  1
  Fe  Fe0  1  0.02835500  0.98119600  0.98223000  1
  Fe  Fe1  1  0.01821700  0.52487200  0.98770800  1
  Fe  Fe2  1  0.25416000  0.26544100  0.50680200  1
  Fe  Fe3  1  0.23642000  0.74484200  0.48489700  1
  Fe  Fe4  1  0.51935600  0.51743700  0.99952100  1
  Fe  Fe5  1  0.49726000  0.99064900  0.00158000  1
  Fe  Fe6  1  0.71589400  0.27297100  0.49585300  1
  Fe  Fe7  1  0.75765700  0.72485800  0.49355200  1
  O  O0  1  0.09397700  0.40987000  0.48851900  1
  O  O1  1  0.11317200  0.89847300  0.48216200  1
  O  O2  1  0.11019200  0.16084300  0.98201400  1
  O  O3  1  0.16361700  0.65467100  0.98638300  1
  O  O4  1  0.59312500  0.41654100  0.49977800  1
  O  O5  1  0.65140200  0.65790800  0.99591000  1
  O  O6  1  0.84204900  0.30116200  0.99129800  1
  O  O7  1  0.90452500  0.59622500  0.48940100  1
  F  F0  1  0.36223500  0.37061700  0.00498200  1
  F  F1  1  0.35563900  0.83985000  0.98665600  1
  F  F2  1  0.38952500  0.09995600  0.50253500  1
  F  F3  1  0.40680600  0.61037600  0.49659800  1
  F  F4  1  0.61384500  0.90106300  0.49915300  1
  F  F5  1  0.62578600  0.15832800  0.00093900  1
  F  F6  1  0.85487800  0.83915200  0.98917700  1
  F  F7  1  0.89522100  0.06350000  0.48595600  1
loop_
_geom_bond_atom_site_label_1
_geom_bond_atom_site_label_2
_geom_bond_distance
_geom_bond_site_symmetry_2
Mg0 O0 1.955084 1_655
Mg0 O2 2.077037 1_654
Mg0 O2 2.094641 1_655
Mg0 O6 2.154989 1_554
Mg0 O6 2.202406 1_555
Fe0 O1 1.915511 1_555
Fe0 O1 1.917267 1_556
Fe0 O2 1.955706 1_565
Fe1 O3 1.926460 1_555
Fe1 O7 2.010646 1_455
Fe1 O7 2.014662 1_456
Fe1 O0 2.036122 1_555
Fe1 O0 2.040405 1_556
Fe2 O0 2.115795 1_555
Fe2 O2 2.272669 1_555
Fe2 O2 2.380616 1_554
Fe3 O3 1.906933 1_554
Fe3 O3 1.907490 1_555
Fe3 O1 1.934222 1_555
Fe4 O5 1.906985 1_555
Fe4 O4 1.955933 1_555
Fe4 O4 1.958075 1_556
Fe6 O4 1.854550 1_555
Fe6 O6 1.976980 1_555
Fe6 O6 1.990904 1_554
Fe7 O7 1.914308 1_555
Fe7 O5 1.962250 1_554
Fe7 O5 1.965835 1_555
F0 Fe4 2.125927 1_554
F0 Fe2 2.131904 1_555
F0 Fe2 2.132069 1_554
F1 Fe5 2.046983 1_556
F1 Fe3 2.134420 1_556
F1 Fe3 2.150364 1_555
F2 Fe2 2.099387 1_555
F2 Fe5 2.141282 1_546
F2 Fe5 2.143166 1_545
F3 Fe4 2.082301 1_554
F3 Fe4 2.098291 1_555
F3 Fe3 2.127811 1_555
F4 Fe5 2.093497 1_555
F4 Fe5 2.100961 1_556
F4 Fe7 2.233429 1_555
F5 Fe5 2.091265 1_545
F5 Fe6 2.091338 1_555
F5 Fe6 2.106248 1_554
F6 Fe7 2.121916 1_555
F6 Fe7 2.133185 1_556
F6 Fe0 2.215222 1_655
F7 Mg0 2.003072 1_555
F7 Fe0 2.155707 1_645
F7 Fe0 2.167543 1_644
