# generated using pymatgen
data_Na2Hf3MgSi2(SO6)4
_symmetry_space_group_name_H-M   'P 1'
_cell_length_a   8.85833530
_cell_length_b   8.84857451
_cell_length_c   23.16518172
_cell_angle_alpha   89.72253394
_cell_angle_beta   90.01551451
_cell_angle_gamma   119.98341855
_symmetry_Int_Tables_number   1
_chemical_formula_structural   Na2Hf3MgSi2(SO6)4
_chemical_formula_sum   'Na6 Hf9 Mg3 Si6 S12 O72'
_cell_volume   1572.74343406
_cell_formula_units_Z   3
loop_
 _symmetry_equiv_pos_site_id
 _symmetry_equiv_pos_as_xyz
  1  'x, y, z'
loop_
 _atom_site_type_symbol
 _atom_site_label
 _atom_site_symmetry_multiplicity
 _atom_site_fract_x
 _atom_site_fract_y
 _atom_site_fract_z
 _atom_site_occupancy
  Na  Na0  1  0.97166696  0.98162380  0.51022235  1
  Na  Na1  1  0.04177708  0.03323371  0.00154027  1
  Na  Na2  1  0.67504958  0.30098741  0.83633328  1
  Na  Na3  1  0.66238383  0.30621239  0.33622475  1
  Na  Na4  1  0.33654221  0.65340855  0.16496698  1
  Na  Na5  1  0.37281194  0.68139892  0.67227375  1
  Hf  Hf0  1  0.99159433  0.99884330  0.35367951  1
  Hf  Hf1  1  0.99717072  0.01311001  0.85474003  1
  Hf  Hf2  1  0.66597963  0.33438400  0.68873523  1
  Hf  Hf3  1  0.65658156  0.33443139  0.18489997  1
  Hf  Hf4  1  0.65272964  0.32092312  0.97792659  1
  Hf  Hf5  1  0.66912650  0.33551744  0.48133550  1
  Hf  Hf6  1  0.32193840  0.65636747  0.01925425  1
  Hf  Hf7  1  0.35440179  0.67580281  0.52088670  1
  Hf  Hf8  1  0.33157357  0.67679901  0.81486688  1
  Mg  Mg0  1  0.97372241  0.97987573  0.64705272  1
  Mg  Mg1  1  0.01208623  0.01186592  0.14495395  1
  Mg  Mg2  1  0.34215567  0.68062491  0.31520016  1
  Si  Si0  1  0.70497354  0.99475711  0.74691440  1
  Si  Si1  1  0.67680006  0.63134835  0.58338732  1
  Si  Si2  1  0.36575551  0.33413698  0.08317084  1
  Si  Si3  1  0.03878055  0.37754775  0.91612091  1
  Si  Si4  1  0.32392970  0.95372056  0.91803275  1
  Si  Si5  1  0.62206823  0.96237552  0.41268132  1
  S  S0  1  0.28791198  0.99499465  0.24897268  1
  S  S1  1  0.71070658  0.71032130  0.24812348  1
  S  S2  1  0.00458564  0.29610911  0.24980307  1
  S  S3  1  0.28659422  0.28752822  0.74688487  1
  S  S4  1  0.00106499  0.71244199  0.74808801  1
  S  S5  1  0.96069029  0.33567415  0.58292033  1
  S  S6  1  0.37298520  0.04338721  0.58362550  1
  S  S7  1  0.95464160  0.62526136  0.08502789  1
  S  S8  1  0.66872900  0.04256612  0.08569364  1
  S  S9  1  0.62177425  0.66668580  0.91687580  1
  S  S10  1  0.33295173  0.37743282  0.41462815  1
  S  S11  1  0.04581403  0.66604630  0.41445561  1
  O  O0  1  0.20831580  0.02118384  0.30235168  1
  O  O1  1  0.81784593  0.79630273  0.30149745  1
  O  O2  1  0.98176852  0.18471892  0.30284946  1
  O  O3  1  0.20694870  0.18277772  0.80049751  1
  O  O4  1  0.98084824  0.79267637  0.80066265  1
  O  O5  1  0.81866970  0.01738891  0.80584317  1
  O  O6  1  0.78992942  0.97510642  0.68965426  1
  O  O7  1  0.18810975  0.20302658  0.69540561  1
  O  O8  1  0.02877851  0.81547576  0.69613878  1
  O  O9  1  0.79757498  0.81466595  0.19736769  1
  O  O10  1  0.02105574  0.21050212  0.19872527  1
  O  O11  1  0.18691997  0.98432006  0.19816745  1
  O  O12  1  0.87320194  0.35398641  0.63440565  1
  O  O13  1  0.48605522  0.12022812  0.63468123  1
  O  O14  1  0.65135733  0.50735888  0.63911175  1
  O  O15  1  0.87015253  0.51137262  0.13750352  1
  O  O16  1  0.65122124  0.13582073  0.13724314  1
  O  O17  1  0.48808749  0.35285490  0.14157008  1
  O  O18  1  0.47780896  0.32467182  0.02881407  1
  O  O19  1  0.85548846  0.53794166  0.03312010  1
  O  O20  1  0.69380878  0.14985730  0.03310070  1
  O  O21  1  0.46491708  0.14534686  0.53061960  1
  O  O22  1  0.67765273  0.52295345  0.52557773  1
  O  O23  1  0.84890551  0.31007716  0.53064509  1
  O  O24  1  0.54081641  0.69164139  0.96905066  1
  O  O25  1  0.15989441  0.46483643  0.97367658  1
  O  O26  1  0.31450744  0.84564087  0.97632431  1
  O  O27  1  0.53387853  0.84377178  0.47156089  1
  O  O28  1  0.30189802  0.45392174  0.46744811  1
  O  O29  1  0.14754856  0.68790747  0.46737620  1
  O  O30  1  0.12066202  0.63587195  0.36304899  1
  O  O31  1  0.51151391  0.87847623  0.35641110  1
  O  O32  1  0.35490615  0.48008134  0.36309216  1
  O  O33  1  0.13576912  0.48602984  0.85848368  1
  O  O34  1  0.36003792  0.86758200  0.86139424  1
  O  O35  1  0.51586636  0.64036409  0.86495550  1
  O  O36  1  0.03008318  0.82717668  0.40776502  1
  O  O37  1  0.81977166  0.98208716  0.40798110  1
  O  O38  1  0.17871131  0.19616133  0.40900296  1
  O  O39  1  0.01267784  0.18162830  0.91225431  1
  O  O40  1  0.14754990  0.96301211  0.90955831  1
  O  O41  1  0.79565919  0.82106666  0.91057208  1
  O  O42  1  0.99012947  0.18876481  0.58650817  1
  O  O43  1  0.20722371  0.03710219  0.58887196  1
  O  O44  1  0.84717572  0.81704211  0.58364851  1
  O  O45  1  0.96571433  0.79374108  0.09258772  1
  O  O46  1  0.81900150  0.01944974  0.09281428  1
  O  O47  1  0.17851268  0.16292764  0.08696574  1
  O  O48  1  0.68215575  0.17049019  0.74390185  1
  O  O49  1  0.46608136  0.30828885  0.74407155  1
  O  O50  1  0.84127208  0.53428593  0.74330340  1
  O  O51  1  0.70279648  0.53480659  0.24599933  1
  O  O52  1  0.84206478  0.30953143  0.24744873  1
  O  O53  1  0.46976834  0.15538236  0.24542461  1
  O  O54  1  0.64150262  0.51155855  0.92335808  1
  O  O55  1  0.85263710  0.36793871  0.92476206  1
  O  O56  1  0.49446631  0.15037953  0.92261358  1
  O  O57  1  0.65464223  0.15940432  0.42322572  1
  O  O58  1  0.48857323  0.35641491  0.42256794  1
  O  O59  1  0.86419656  0.51551241  0.42180715  1
  O  O60  1  0.36234162  0.51752053  0.08186636  1
  O  O61  1  0.13220339  0.64438798  0.08246483  1
  O  O62  1  0.50495152  0.87398915  0.08220548  1
  O  O63  1  0.34784042  0.86359596  0.57661963  1
  O  O64  1  0.49348065  0.64187511  0.57802261  1
  O  O65  1  0.12704342  0.50206806  0.57462979  1
  O  O66  1  0.30540925  0.83891992  0.25380611  1
  O  O67  1  0.53327450  0.68065625  0.25455262  1
  O  O68  1  0.15839997  0.46984290  0.25757613  1
  O  O69  1  0.30849886  0.46371434  0.75336354  1
  O  O70  1  0.15200186  0.68158101  0.75396753  1
  O  O71  1  0.50941667  0.82320956  0.75503571  1
loop_
_geom_bond_atom_site_label_1
_geom_bond_atom_site_label_2
_geom_bond_distance
_geom_bond_site_symmetry_2
Na0 O44 2.145222 1_555
Na0 O42 2.498157 1_565
Na0 O43 2.626265 1_665
Na0 O37 2.724643 1_555
Na0 O36 2.916783 1_655
Na0 O38 2.990774 1_665
Na1 O47 2.309007 1_555
Na1 O39 2.525927 1_554
Na1 O40 2.529829 1_544
Na1 O45 2.814893 1_445
Na1 O46 2.852902 1_455
Na1 O41 2.943351 1_444
Na2 O48 2.453303 1_555
Na2 O55 2.469908 1_555
Na2 O56 2.484937 1_555
Na2 O50 2.827444 1_555
Na2 O49 2.848635 1_555
Na2 O54 2.866041 1_555
Na3 O57 2.374805 1_555
Na3 O52 2.591910 1_555
Na3 O53 2.620307 1_555
Na3 O58 2.694890 1_555
Na3 O59 2.698286 1_555
Na3 O51 2.797102 1_555
Na4 O60 2.345450 1_555
Na4 O62 2.601105 1_555
Na4 O61 2.605884 1_555
Na4 O67 2.642889 1_555
Na4 O68 2.671528 1_555
Na4 O66 2.737039 1_555
Na5 O71 2.284490 1_555
Na5 O64 2.532629 1_555
Na5 O69 2.536165 1_555
Na5 O70 2.722597 1_555
Na5 O63 2.807066 1_555
Na5 O65 2.992207 1_555
Hf0 O37 1.922149 1_555
Hf0 O2 2.055110 1_565
Hf0 O1 2.074855 1_555
Hf0 O36 2.119518 1_655
Hf0 O38 2.136886 1_665
Hf0 O0 2.181303 1_665
Hf1 O39 1.957524 1_655
Hf1 O5 1.960400 1_555
Hf1 O40 2.041436 1_645
Hf1 O3 2.116738 1_655
Hf1 O41 2.166790 1_545
Hf1 O4 2.266367 1_545
Hf2 O14 1.965178 1_555
Hf2 O48 1.986577 1_555
Hf2 O50 2.100765 1_555
Hf2 O49 2.102813 1_555
Hf2 O12 2.159753 1_555
Hf2 O13 2.168479 1_555
Hf3 O17 1.871542 1_555
Hf3 O16 2.060318 1_555
Hf3 O15 2.063962 1_555
Hf3 O53 2.138609 1_555
Hf3 O51 2.147799 1_555
Hf3 O52 2.281480 1_555
Hf4 O56 1.946214 1_555
Hf4 O18 1.960719 1_556
Hf4 O55 2.021288 1_555
Hf4 O20 2.142151 1_556
Hf4 O54 2.144817 1_555
Hf4 O19 2.263514 1_556
Hf5 O22 1.923034 1_555
Hf5 O57 2.019243 1_555
Hf5 O23 2.060699 1_555
Hf5 O21 2.085039 1_555
Hf5 O59 2.157193 1_555
Hf5 O58 2.176595 1_555
Hf6 O25 1.905907 1_554
Hf6 O26 1.972891 1_554
Hf6 O60 2.040399 1_555
Hf6 O24 2.145246 1_554
Hf6 O61 2.191346 1_555
Hf6 O62 2.317019 1_555
Hf7 O27 1.914438 1_555
Hf7 O64 1.929957 1_555
Hf7 O63 2.132798 1_555
Hf7 O28 2.171167 1_555
Hf7 O65 2.204026 1_555
Hf7 O29 2.258159 1_555
Hf8 O34 1.914984 1_555
Hf8 O33 1.984149 1_555
Hf8 O71 2.006265 1_555
Hf8 O70 2.141920 1_555
Hf8 O35 2.153327 1_555
Hf8 O69 2.295081 1_555
Mg0 O6 1.886319 1_555
Mg0 O44 1.973622 1_555
Mg0 O8 2.083215 1_655
Mg0 O7 2.243302 1_665
Mg0 O42 2.260790 1_565
Mg0 O43 2.302028 1_665
Mg1 O47 1.943885 1_555
Mg1 O11 2.085881 1_545
Mg1 O46 2.121712 1_455
Mg1 O10 2.128093 1_555
Mg1 O45 2.143715 1_445
Mg1 O9 2.190085 1_445
Mg2 O31 1.901919 1_555
Mg2 O30 2.110797 1_555
Mg2 O66 2.127606 1_555
Mg2 O32 2.138625 1_555
Mg2 O67 2.200187 1_555
Mg2 O68 2.213292 1_555
O0 S0 1.498810 1_545
O1 S1 1.514952 1_555
O2 S2 1.520412 1_655
O3 S3 1.495003 1_555
O4 S4 1.467982 1_655
O5 Si0 1.648718 1_545
O6 Si0 1.577848 1_555
O7 S3 1.448580 1_555
O8 S4 1.451034 1_555
O9 S1 1.451517 1_555
O10 S2 1.454082 1_555
O11 S0 1.452735 1_555
O12 S5 1.475542 1_555
O13 S6 1.480139 1_555
O14 Si1 1.630988 1_555
O15 S7 1.512676 1_555
O16 S8 1.506160 1_555
O17 Si2 1.689342 1_555
O18 Si2 1.631753 1_555
O19 S7 1.464403 1_555
O20 S8 1.487655 1_555
O21 S6 1.496773 1_555
O22 Si1 1.653200 1_555
O23 S5 1.508683 1_555
O24 S9 1.478248 1_555
O25 Si3 1.645061 1_555
O26 Si4 1.628726 1_555
O27 Si5 1.655091 1_555
O28 S10 1.491712 1_555
O29 S11 1.476450 1_555
O30 S11 1.452395 1_555
O31 Si5 1.578406 1_555
O32 S10 1.449531 1_555
O33 Si3 1.614368 1_555
O34 Si4 1.630431 1_555
O35 S9 1.471292 1_555
O36 S11 1.507548 1_555
O37 Si5 1.674520 1_555
O38 S10 1.506007 1_555
O39 Si3 1.633316 1_555
O40 Si4 1.616961 1_555
O41 S9 1.468030 1_555
O42 S5 1.450009 1_555
O43 S6 1.446509 1_555
O44 Si1 1.580877 1_555
O45 S7 1.455732 1_555
O46 S8 1.453530 1_555
O47 Si2 1.594123 1_555
O48 Si0 1.666374 1_545
O49 S3 1.507968 1_555
O50 S4 1.507428 1_655
O51 S1 1.520290 1_555
O52 S2 1.503499 1_655
O53 S0 1.526390 1_545
O54 S9 1.474797 1_555
O55 Si3 1.620531 1_655
O56 Si4 1.641870 1_545
O57 Si5 1.638208 1_545
O58 S10 1.491507 1_555
O59 S11 1.499210 1_655
O60 Si2 1.638139 1_555
O61 S7 1.496687 1_455
O62 S8 1.474616 1_565
O63 S6 1.501734 1_565
O64 Si1 1.676947 1_555
O65 S5 1.484944 1_455
O66 S0 1.468425 1_555
O67 S1 1.465903 1_555
O68 S2 1.470098 1_555
O69 S3 1.480047 1_555
O70 S4 1.498431 1_555
O71 Si0 1.646096 1_555
