# generated using pymatgen
data_MgV2(SiO3)4
_symmetry_space_group_name_H-M   'P 1'
_cell_length_a   6.83733613
_cell_length_b   6.83733626
_cell_length_c   5.31319856
_cell_angle_alpha   76.16054331
_cell_angle_beta   103.83945397
_cell_angle_gamma   100.23899167
_symmetry_Int_Tables_number   1
_chemical_formula_structural   MgV2(SiO3)4
_chemical_formula_sum   'Mg1 V2 Si4 O12'
_cell_volume   232.25361968
_cell_formula_units_Z   1
loop_
 _symmetry_equiv_pos_site_id
 _symmetry_equiv_pos_as_xyz
  1  'x, y, z'
loop_
 _atom_site_type_symbol
 _atom_site_label
 _atom_site_symmetry_multiplicity
 _atom_site_fract_x
 _atom_site_fract_y
 _atom_site_fract_z
 _atom_site_occupancy
  Mg  Mg0  1  0.42344372  0.42344372  0.75000000  1
  V  V0  1  0.08809627  0.08809627  0.75000000  1
  V  V1  1  0.89202280  0.89202280  0.25000000  1
  Si  Si0  1  0.16773194  0.63747299  0.74668427  1
  Si  Si1  1  0.36963241  0.81478311  0.23928785  1
  Si  Si2  1  0.63747299  0.16773194  0.75331573  1
  Si  Si3  1  0.81478311  0.36963241  0.26071215  1
  O  O0  1  0.01635163  0.80712808  0.64821710  1
  O  O1  1  0.18456228  0.96077722  0.14035942  1
  O  O2  1  0.12681812  0.39080999  0.77793945  1
  O  O3  1  0.33908248  0.68402611  0.54239334  1
  O  O4  1  0.60622635  0.90081102  0.27076191  1
  O  O5  1  0.32024742  0.65539306  0.03424223  1
  O  O6  1  0.68402611  0.33908248  0.95760666  1
  O  O7  1  0.39080999  0.12681812  0.72206055  1
  O  O8  1  0.65539306  0.32024742  0.46575777  1
  O  O9  1  0.90081102  0.60622635  0.22923809  1
  O  O10  1  0.80712808  0.01635163  0.85178290  1
  O  O11  1  0.96077722  0.18456228  0.35964058  1
loop_
_geom_bond_atom_site_label_1
_geom_bond_atom_site_label_2
_geom_bond_distance
_geom_bond_site_symmetry_2
Mg0 O3 1.960769 1_555
Mg0 O6 1.960769 1_555
Mg0 O2 2.037753 1_555
Mg0 O7 2.037753 1_555
O0 Si0 1.602509 1_555
O0 V0 2.063661 1_565
O0 V1 2.064852 1_455
O1 Si1 1.659444 1_555
O1 V0 2.044618 1_564
O1 V1 2.157140 1_455
O2 Si0 1.634224 1_555
O2 V0 2.075909 1_555
O3 Si1 1.685893 1_555
O3 Si0 1.721223 1_555
O4 Si1 1.603177 1_555
O4 V1 1.995563 1_555
O5 Si0 1.648847 1_554
O5 Si1 1.658245 1_555
O6 Si3 1.685893 1_556
O6 Si2 1.721223 1_555
O7 Si2 1.634224 1_555
O7 V0 2.075909 1_555
O8 Si2 1.648847 1_555
O8 Si3 1.658245 1_555
O9 Si3 1.603177 1_555
O9 V1 1.995563 1_555
O10 Si2 1.602509 1_555
O10 V0 2.063661 1_655
O10 V1 2.064852 1_546
O11 Si3 1.659444 1_555
O11 V0 2.044618 1_655
O11 V1 2.157140 1_545
