# generated using pymatgen
data_PrSiPd
_symmetry_space_group_name_H-M   'P 1'
_cell_length_a   5.88935525
_cell_length_b   7.89050504
_cell_length_c   10.89923958
_cell_angle_alpha   87.92910293
_cell_angle_beta   90.00000000
_cell_angle_gamma   90.00000000
_symmetry_Int_Tables_number   1
_chemical_formula_structural   PrSiPd
_chemical_formula_sum   'Pr8 Si8 Pd8'
_cell_volume   506.15672590
_cell_formula_units_Z   8
loop_
 _symmetry_equiv_pos_site_id
 _symmetry_equiv_pos_as_xyz
  1  'x, y, z'
loop_
 _atom_site_type_symbol
 _atom_site_label
 _atom_site_symmetry_multiplicity
 _atom_site_fract_x
 _atom_site_fract_y
 _atom_site_fract_z
 _atom_site_occupancy
  Pr  Pr0  1  0.63224048  0.32641332  0.37036675  1
  Pr  Pr1  1  0.13224048  0.17358668  0.62963325  1
  Pr  Pr2  1  0.36775705  0.67360519  0.62963300  1
  Pr  Pr3  1  0.86775705  0.82639481  0.37036700  1
  Pr  Pr4  1  0.13625299  0.46654440  0.14224900  1
  Pr  Pr5  1  0.63625299  0.03345560  0.85775100  1
  Pr  Pr6  1  0.86374827  0.53349486  0.85775287  1
  Pr  Pr7  1  0.36374827  0.96650514  0.14224713  1
  Si  Si0  1  0.63166361  0.03452924  0.57742743  1
  Si  Si1  1  0.13166361  0.46547076  0.42257257  1
  Si  Si2  1  0.36833328  0.96545665  0.42257422  1
  Si  Si3  1  0.86833328  0.53454335  0.57742578  1
  Si  Si4  1  0.85893111  0.12614197  0.14210892  1
  Si  Si5  1  0.35893111  0.37385803  0.85789108  1
  Si  Si6  1  0.14107150  0.87384825  0.85789339  1
  Si  Si7  1  0.64107150  0.62615175  0.14210661  1
  Pd  Pd0  1  0.89993623  0.83793898  0.05235239  1
  Pd  Pd1  1  0.39993623  0.66206102  0.94764761  1
  Pd  Pd2  1  0.10006307  0.16204626  0.94764589  1
  Pd  Pd3  1  0.60006307  0.33795374  0.05235411  1
  Pd  Pd4  1  0.89097464  0.82136870  0.66912220  1
  Pd  Pd5  1  0.39097464  0.67863130  0.33087780  1
  Pd  Pd6  1  0.10902677  0.17861373  0.33087594  1
  Pd  Pd7  1  0.60902677  0.32138627  0.66912406  1
loop_
_geom_bond_atom_site_label_1
_geom_bond_atom_site_label_2
_geom_bond_distance
_geom_bond_site_symmetry_2
Pr0 Si3 3.160892 1_555
Pr0 Si0 3.165732 1_555
Pr0 Si1 3.197489 1_655
Pr0 Si1 3.203741 1_555
Pr0 Si2 3.276305 1_545
Pr0 Si4 3.279179 1_555
Pr0 Si7 3.370542 1_555
Pr1 Si2 3.160892 1_545
Pr1 Si1 3.165732 1_555
Pr1 Si0 3.197489 1_555
Pr1 Si0 3.203741 1_455
Pr1 Si3 3.276305 1_455
Pr1 Si5 3.279179 1_555
Pr1 Si6 3.370542 1_545
Pr2 Si1 3.160923 1_555
Pr2 Si2 3.165537 1_555
Pr2 Si3 3.197508 1_455
Pr2 Si3 3.203752 1_555
Pr2 Si0 3.276079 1_565
Pr2 Si6 3.279075 1_555
Pr2 Si5 3.370572 1_555
Pr3 Si0 3.160923 1_565
Pr3 Si3 3.165537 1_555
Pr3 Si2 3.197508 1_555
Pr3 Si2 3.203752 1_655
Pr3 Si1 3.276079 1_655
Pr3 Si7 3.279075 1_555
Pr3 Si4 3.370572 1_565
Pr4 Si1 3.055139 1_555
Pr4 Si4 3.143582 1_455
Pr4 Si7 3.176588 1_455
Pr4 Si7 3.228771 1_555
Pr4 Si5 3.467578 1_554
Pr4 Pr6 3.514431 1_454
Pr5 Si0 3.055139 1_555
Pr5 Si5 3.143582 1_555
Pr5 Si6 3.176588 1_545
Pr5 Si6 3.228771 1_645
Pr5 Si4 3.467578 1_556
Pr5 Pr7 3.514431 1_546
Pr6 Si3 3.055184 1_555
Pr6 Si6 3.143255 1_655
Pr6 Si5 3.176688 1_655
Pr6 Si5 3.228855 1_555
Pr6 Si7 3.467477 1_556
Pr7 Si2 3.055184 1_555
Pr7 Si7 3.143255 1_555
Pr7 Si4 3.176688 1_565
Pr7 Si4 3.228855 1_465
Pr7 Si6 3.467477 1_554
Si0 Si2 2.370075 1_545
Si1 Si3 2.370075 1_455
Pd0 Si7 2.440425 1_555
Pd0 Si4 2.519427 1_565
Pd0 Si6 2.558465 1_654
Pd0 Pr5 3.008947 1_564
Pd0 Pr7 3.085824 1_655
Pd0 Pr6 3.268469 1_554
Pd0 Pr4 3.358162 1_655
Pd0 Pr7 3.468809 1_555
Pd0 Pr3 3.469202 1_555
Pd1 Si6 2.440425 1_555
Pd1 Si5 2.519427 1_555
Pd1 Si7 2.558465 1_556
Pd1 Pr4 3.008947 1_556
Pd1 Pr6 3.085824 1_555
Pd1 Pr7 3.268469 1_556
Pd1 Pr5 3.358162 1_565
Pd1 Pr6 3.468809 1_455
Pd1 Pr2 3.469202 1_555
Pd2 Si5 2.440569 1_555
Pd2 Si6 2.519374 1_545
Pd2 Si4 2.558487 1_456
Pd2 Pr7 3.009046 1_546
Pd2 Pr5 3.085880 1_455
Pd2 Pr4 3.268819 1_556
Pd2 Pr6 3.358515 1_455
Pd2 Pr5 3.468878 1_555
Pd2 Pr1 3.469181 1_555
Pd3 Si4 2.440569 1_555
Pd3 Si7 2.519374 1_555
Pd3 Si5 2.558487 1_554
Pd3 Pr6 3.009046 1_554
Pd3 Pr4 3.085880 1_555
Pd3 Pr5 3.268819 1_554
Pd3 Pr7 3.358515 1_545
Pd3 Pr4 3.468878 1_655
Pd3 Pr0 3.469181 1_555
Pd4 Si0 2.457340 1_565
Pd4 Si3 2.510409 1_555
Pd4 Si6 2.575977 1_655
Pd4 Pr6 3.012412 1_555
Pd4 Pr2 3.076595 1_655
Pd4 Pr5 3.086482 1_565
Pd4 Pr1 3.137129 1_665
Pd4 Pr3 3.257883 1_555
Pd4 Pr2 3.328065 1_555
Pd5 Si1 2.457340 1_555
Pd5 Si2 2.510409 1_555
Pd5 Si7 2.575977 1_555
Pd5 Pr7 3.012412 1_555
Pd5 Pr3 3.076595 1_555
Pd5 Pr4 3.086482 1_555
Pd5 Pr0 3.137129 1_555
Pd5 Pr2 3.257883 1_555
Pd5 Pr3 3.328065 1_455
Pd6 Si2 2.457320 1_545
Pd6 Si1 2.510638 1_555
Pd6 Si4 2.575925 1_455
Pd6 Pr4 3.012713 1_555
Pd6 Pr0 3.076728 1_455
Pd6 Pr7 3.086579 1_545
Pd6 Pr3 3.137149 1_445
Pd6 Pr1 3.257905 1_555
Pd6 Pr0 3.328148 1_555
Pd7 Si3 2.457320 1_555
Pd7 Si0 2.510638 1_555
Pd7 Si5 2.575925 1_555
Pd7 Pr5 3.012713 1_555
Pd7 Pr1 3.076728 1_555
Pd7 Pr6 3.086579 1_555
Pd7 Pr2 3.137149 1_555
Pd7 Pr0 3.257905 1_555
Pd7 Pr1 3.328148 1_655
