# generated using pymatgen
data_NaHg
_symmetry_space_group_name_H-M   'P 1'
_cell_length_a   5.20572686
_cell_length_b   6.45436912
_cell_length_c   6.45436797
_cell_angle_alpha   112.93767356
_cell_angle_beta   90.00000000
_cell_angle_gamma   90.00000000
_symmetry_Int_Tables_number   1
_chemical_formula_structural   NaHg
_chemical_formula_sum   'Na4 Hg4'
_cell_volume   199.71708096
_cell_formula_units_Z   4
loop_
 _symmetry_equiv_pos_site_id
 _symmetry_equiv_pos_as_xyz
  1  'x, y, z'
loop_
 _atom_site_type_symbol
 _atom_site_label
 _atom_site_symmetry_multiplicity
 _atom_site_fract_x
 _atom_site_fract_y
 _atom_site_fract_z
 _atom_site_occupancy
  Na  Na0  1  0.25000000  0.17805521  0.82194479  1
  Na  Na1  1  0.75000000  0.82194479  0.17805521  1
  Na  Na2  1  0.25000000  0.62656537  0.37343463  1
  Na  Na3  1  0.75000000  0.37343463  0.62656537  1
  Hg  Hg0  1  0.75000000  0.87770851  0.69585890  1
  Hg  Hg1  1  0.25000000  0.12229149  0.30414010  1
  Hg  Hg2  1  0.25000000  0.69585890  0.87770851  1
  Hg  Hg3  1  0.75000000  0.30414010  0.12229149  1
loop_
_geom_bond_atom_site_label_1
_geom_bond_atom_site_label_2
_geom_bond_distance
_geom_bond_site_symmetry_2
Hg0 Hg3 3.040744 1_566
Hg0 Na3 3.107879 1_555
Hg0 Na0 3.156814 1_565
Hg0 Na0 3.156814 1_665
Hg0 Na1 3.218935 1_555
Hg0 Hg2 3.256372 1_555
Hg0 Hg2 3.256372 1_655
Hg0 Na1 3.269389 1_556
Hg0 Na2 3.332241 1_555
Hg0 Na2 3.332241 1_655
Hg0 Na3 3.398952 1_565
Hg1 Hg2 3.040744 1_544
Hg1 Na2 3.107877 1_555
Hg1 Na1 3.156813 1_545
Hg1 Na1 3.156813 1_445
Hg1 Na0 3.218942 1_555
Hg1 Hg3 3.256366 1_455
Hg1 Hg3 3.256366 1_555
Hg1 Na0 3.269383 1_554
Hg1 Na3 3.332244 1_455
Hg1 Na3 3.332244 1_555
Hg1 Na2 3.398956 1_545
Hg2 Na2 3.107878 1_555
Hg2 Na1 3.156813 1_456
Hg2 Na1 3.156813 1_556
Hg2 Na0 3.218936 1_555
Hg2 Na0 3.269390 1_565
Hg2 Na3 3.332241 1_555
Hg2 Na3 3.332241 1_455
Hg2 Na2 3.398952 1_556
Hg3 Na3 3.107876 1_555
Hg3 Na0 3.156813 1_654
Hg3 Na0 3.156813 1_554
Hg3 Na1 3.218942 1_555
Hg3 Na1 3.269383 1_545
Hg3 Na2 3.332244 1_555
Hg3 Na2 3.332244 1_655
Hg3 Na3 3.398955 1_554
