# generated using pymatgen
data_TaCl4F
_symmetry_space_group_name_H-M   'P 1'
_cell_length_a   9.94201080
_cell_length_b   9.93882476
_cell_length_c   9.94062839
_cell_angle_alpha   99.79976626
_cell_angle_beta   99.83229348
_cell_angle_gamma   131.22709657
_symmetry_Int_Tables_number   1
_chemical_formula_structural   TaCl4F
_chemical_formula_sum   'Ta4 Cl16 F4'
_cell_volume   672.83816401
_cell_formula_units_Z   4
loop_
 _symmetry_equiv_pos_site_id
 _symmetry_equiv_pos_as_xyz
  1  'x, y, z'
loop_
 _atom_site_type_symbol
 _atom_site_label
 _atom_site_symmetry_multiplicity
 _atom_site_fract_x
 _atom_site_fract_y
 _atom_site_fract_z
 _atom_site_occupancy
  Ta  Ta0  1  0.98205897  0.80365831  0.73101361  1
  Ta  Ta1  1  0.74899669  0.01805700  0.82157907  1
  Ta  Ta2  1  0.19644589  0.92741880  0.17843313  1
  Ta  Ta3  1  0.07259759  0.25095959  0.26896968  1
  Cl  Cl0  1  0.70793686  0.52071799  0.73602579  1
  Cl  Cl1  1  0.78467761  0.97186217  0.26394467  1
  Cl  Cl2  1  0.47931642  0.21532221  0.18723098  1
  Cl  Cl3  1  0.02802252  0.29206015  0.81280938  1
  Cl  Cl4  1  0.24533273  0.35094705  0.50691244  1
  Cl  Cl5  1  0.26168836  0.75474246  0.10563710  1
  Cl  Cl6  1  0.64897522  0.15591929  0.89437237  1
  Cl  Cl7  1  0.84406563  0.73849179  0.49310599  1
  Cl  Cl8  1  0.57718288  0.87836603  0.57552441  1
  Cl  Cl9  1  0.99825484  0.42265670  0.30110174  1
  Cl  Cl10  1  0.12165990  0.69728994  0.69888442  1
  Cl  Cl11  1  0.30292410  0.00170483  0.42445691  1
  Cl  Cl12  1  0.33589741  0.46929787  0.21159234  1
  Cl  Cl13  1  0.87578504  0.66398989  0.13341728  1
  Cl  Cl14  1  0.53055975  0.74222505  0.86656887  1
  Cl  Cl15  1  0.25772046  0.12442521  0.78839996  1
  F  F0  1  0.11812892  0.07698138  0.20532625  1
  F  F1  1  0.87170026  0.91283068  0.79470583  1
  F  F2  1  0.92292563  0.12817159  0.04107788  1
  F  F3  1  0.08714432  0.88190803  0.95891188  1
loop_
_geom_bond_atom_site_label_1
_geom_bond_atom_site_label_2
_geom_bond_distance
_geom_bond_site_symmetry_2
Cl0 Ta0 2.308711 1_555
Cl1 Ta3 2.308443 1_665
Cl2 Ta2 2.308316 1_545
Cl3 Ta1 2.307621 1_455
Cl4 Ta3 2.257104 1_555
Cl5 Ta2 2.257116 1_555
Cl6 Ta1 2.257007 1_555
Cl7 Ta0 2.256974 1_555
Cl8 Ta1 2.262556 1_565
Cl9 Ta3 2.262280 1_655
Cl10 Ta0 2.261942 1_455
Cl11 Ta2 2.262255 1_545
Cl12 Ta3 2.308816 1_555
Cl13 Ta2 2.308822 1_655
Cl14 Ta1 2.309439 1_565
Cl15 Ta0 2.308805 1_445
F0 Ta2 2.085361 1_545
F0 Ta3 2.086197 1_555
F1 Ta1 2.085945 1_565
F1 Ta0 2.086765 1_555
F2 Ta3 2.085558 1_655
F2 Ta1 2.086357 1_554
F3 Ta0 2.085556 1_455
F3 Ta2 2.086530 1_556
