# generated using pymatgen
data_Dy2(Ga3Ru)3
_symmetry_space_group_name_H-M   'P 1'
_cell_length_a   7.38976002
_cell_length_b   7.38976002
_cell_length_c   9.65752183
_cell_angle_alpha   90.00000000
_cell_angle_beta   90.00000000
_cell_angle_gamma   118.81606645
_symmetry_Int_Tables_number   1
_chemical_formula_structural   Dy2(Ga3Ru)3
_chemical_formula_sum   'Dy4 Ga18 Ru6'
_cell_volume   462.07824157
_cell_formula_units_Z   2
loop_
 _symmetry_equiv_pos_site_id
 _symmetry_equiv_pos_as_xyz
  1  'x, y, z'
loop_
 _atom_site_type_symbol
 _atom_site_label
 _atom_site_symmetry_multiplicity
 _atom_site_fract_x
 _atom_site_fract_y
 _atom_site_fract_z
 _atom_site_occupancy
  Dy  Dy0  1  0.32414010  0.00207117  0.75000000  1
  Dy  Dy1  1  0.67585990  0.99792883  0.25000000  1
  Dy  Dy2  1  0.00207117  0.32414010  0.75000000  1
  Dy  Dy3  1  0.99792883  0.67585990  0.25000000  1
  Ga  Ga0  1  0.86541644  0.86541644  0.75000000  1
  Ga  Ga1  1  0.13458356  0.13458356  0.25000000  1
  Ga  Ga2  1  0.66120878  0.66120878  0.43790344  1
  Ga  Ga3  1  0.33879122  0.33879122  0.93790344  1
  Ga  Ga4  1  0.66120878  0.66120878  0.06209656  1
  Ga  Ga5  1  0.33879122  0.33879122  0.56209656  1
  Ga  Ga6  1  0.44562540  0.66007209  0.75000000  1
  Ga  Ga7  1  0.55437460  0.33992791  0.25000000  1
  Ga  Ga8  1  0.66007209  0.44562540  0.75000000  1
  Ga  Ga9  1  0.33992791  0.55437460  0.25000000  1
  Ga  Ga10  1  0.01192082  0.33893761  0.07652855  1
  Ga  Ga11  1  0.98807918  0.66106239  0.57652855  1
  Ga  Ga12  1  0.33893761  0.01192082  0.42347145  1
  Ga  Ga13  1  0.66106239  0.98807918  0.92347145  1
  Ga  Ga14  1  0.98807918  0.66106239  0.92347145  1
  Ga  Ga15  1  0.01192082  0.33893761  0.42347145  1
  Ga  Ga16  1  0.66106239  0.98807918  0.57652855  1
  Ga  Ga17  1  0.33893761  0.01192082  0.07652855  1
  Ru  Ru0  1  -0.00000000  -0.00000000  0.50000000  1
  Ru  Ru1  1  -0.00000000  -0.00000000  0.00000000  1
  Ru  Ru2  1  0.67696564  0.32303436  0.50000000  1
  Ru  Ru3  1  0.32303436  0.67696564  0.00000000  1
  Ru  Ru4  1  0.32303436  0.67696564  0.50000000  1
  Ru  Ru5  1  0.67696564  0.32303436  0.00000000  1
loop_
_geom_bond_atom_site_label_1
_geom_bond_atom_site_label_2
_geom_bond_distance
_geom_bond_site_symmetry_2
Dy0 Ga8 3.010372 1_555
Dy0 Ga0 3.034952 1_445
Dy0 Ga3 3.039182 1_555
Dy0 Ga5 3.039182 1_555
Dy0 Ga16 3.043761 1_545
Dy0 Ga13 3.043761 1_545
Dy0 Ga11 3.048181 1_445
Dy0 Ga14 3.048181 1_445
Dy0 Ga6 3.062734 1_545
Dy0 Ga17 3.154976 1_556
Dy0 Ga12 3.154976 1_555
Dy1 Ga9 3.010372 1_555
Dy1 Ga1 3.034952 1_665
Dy1 Ga4 3.039182 1_555
Dy1 Ga2 3.039182 1_555
Dy1 Ga17 3.043761 1_565
Dy1 Ga12 3.043761 1_565
Dy1 Ga10 3.048181 1_665
Dy1 Ga15 3.048181 1_665
Dy1 Ga7 3.062734 1_565
Dy1 Ga16 3.154976 1_555
Dy1 Ga13 3.154976 1_554
Dy2 Ga6 3.010372 1_555
Dy2 Ga0 3.034952 1_445
Dy2 Ga3 3.039182 1_555
Dy2 Ga5 3.039182 1_555
Dy2 Ga14 3.043761 1_455
Dy2 Ga11 3.043761 1_455
Dy2 Ga16 3.048181 1_445
Dy2 Ga13 3.048181 1_445
Dy2 Ga8 3.062734 1_455
Dy2 Ga10 3.154976 1_556
Dy2 Ga15 3.154976 1_555
Dy3 Ga7 3.010372 1_555
Dy3 Ga1 3.034952 1_665
Dy3 Ga4 3.039182 1_555
Dy3 Ga2 3.039182 1_555
Dy3 Ga10 3.043761 1_655
Dy3 Ga15 3.043761 1_655
Dy3 Ga17 3.048181 1_665
Dy3 Ga12 3.048181 1_665
Dy3 Ga9 3.062734 1_655
Dy3 Ga14 3.154976 1_554
Dy3 Ga11 3.154976 1_555
Ga0 Ru1 2.618005 1_666
Ga0 Ru0 2.618005 1_665
Ga0 Ga16 2.688559 1_555
Ga0 Ga14 2.688559 1_555
Ga0 Ga13 2.688559 1_555
Ga0 Ga11 2.688559 1_555
Ga0 Ga6 2.718111 1_555
Ga0 Ga8 2.718111 1_555
Ga1 Ru0 2.618005 1_555
Ga1 Ru1 2.618005 1_555
Ga1 Ga17 2.688559 1_555
Ga1 Ga10 2.688559 1_555
Ga1 Ga15 2.688559 1_555
Ga1 Ga12 2.688559 1_555
Ga1 Ga7 2.718111 1_555
Ga1 Ga9 2.718111 1_555
Ga2 Ru0 2.617868 1_665
Ga2 Ru2 2.626566 1_555
Ga2 Ru4 2.626566 1_555
Ga2 Ga5 2.705485 1_555
Ga2 Ga9 2.783204 1_555
Ga2 Ga7 2.783204 1_555
Ga3 Ru1 2.617868 1_556
Ga3 Ru3 2.626566 1_556
Ga3 Ru5 2.626566 1_556
Ga3 Ga4 2.705485 1_556
Ga3 Ga8 2.783204 1_555
Ga3 Ga6 2.783204 1_555
Ga4 Ru1 2.617868 1_665
Ga4 Ru5 2.626566 1_555
Ga4 Ru3 2.626566 1_555
Ga4 Ga9 2.783204 1_555
Ga4 Ga7 2.783204 1_555
Ga5 Ru0 2.617868 1_555
Ga5 Ru4 2.626566 1_555
Ga5 Ru2 2.626566 1_555
Ga5 Ga8 2.783204 1_555
Ga5 Ga6 2.783204 1_555
Ga6 Ru3 2.602792 1_556
Ga6 Ru4 2.602792 1_555
Ga6 Ga8 2.728278 1_555
Ga7 Ru2 2.602792 1_555
Ga7 Ru5 2.602792 1_555
Ga7 Ga9 2.728278 1_555
Ga8 Ru5 2.602792 1_556
Ga8 Ru2 2.602792 1_555
Ga9 Ru3 2.602792 1_555
Ga9 Ru4 2.602792 1_555
Ga10 Ru5 2.531093 1_455
Ga10 Ru3 2.556454 1_555
Ga10 Ru1 2.571897 1_555
Ga10 Ga9 2.737969 1_555
Ga10 Ga3 2.762146 1_554
Ga10 Ga14 2.878661 1_454
Ga10 Ga13 3.024789 1_444
Ga11 Ru4 2.531093 1_655
Ga11 Ru2 2.556454 1_555
Ga11 Ru0 2.571897 1_665
Ga11 Ga8 2.737969 1_555
Ga11 Ga2 2.762146 1_555
Ga11 Ga15 2.878661 1_655
Ga11 Ga12 3.024789 1_665
Ga12 Ru4 2.531093 1_545
Ga12 Ru2 2.556454 1_555
Ga12 Ru0 2.571897 1_555
Ga12 Ga7 2.737969 1_555
Ga12 Ga5 2.762146 1_555
Ga12 Ga16 2.878661 1_545
Ga13 Ru5 2.531093 1_566
Ga13 Ru3 2.556454 1_556
Ga13 Ru1 2.571897 1_666
Ga13 Ga6 2.737969 1_555
Ga13 Ga4 2.762146 1_556
Ga13 Ga17 2.878661 1_566
Ga14 Ru3 2.531093 1_656
Ga14 Ru5 2.556454 1_556
Ga14 Ru1 2.571897 1_666
Ga14 Ga8 2.737969 1_555
Ga14 Ga4 2.762146 1_556
Ga14 Ga17 3.024789 1_666
Ga15 Ru2 2.531093 1_455
Ga15 Ru4 2.556454 1_555
Ga15 Ru0 2.571897 1_555
Ga15 Ga9 2.737969 1_555
Ga15 Ga5 2.762146 1_555
Ga15 Ga16 3.024789 1_445
Ga16 Ru2 2.531093 1_565
Ga16 Ru4 2.556454 1_555
Ga16 Ru0 2.571897 1_665
Ga16 Ga6 2.737969 1_555
Ga16 Ga2 2.762146 1_555
Ga17 Ru3 2.531093 1_545
Ga17 Ru5 2.556454 1_555
Ga17 Ru1 2.571897 1_555
Ga17 Ga7 2.737969 1_555
Ga17 Ga3 2.762146 1_554
