# generated using pymatgen
data_Na5Hf2Zn2P5SO24
_symmetry_space_group_name_H-M   'P 1'
_cell_length_a   8.99138680
_cell_length_b   9.00184517
_cell_length_c   22.48115315
_cell_angle_alpha   90.19664882
_cell_angle_beta   90.04411009
_cell_angle_gamma   119.99647443
_symmetry_Int_Tables_number   1
_chemical_formula_structural   Na5Hf2Zn2P5SO24
_chemical_formula_sum   'Na15 Hf6 Zn6 P15 S3 O72'
_cell_volume   1575.86320884
_cell_formula_units_Z   3
loop_
 _symmetry_equiv_pos_site_id
 _symmetry_equiv_pos_as_xyz
  1  'x, y, z'
loop_
 _atom_site_type_symbol
 _atom_site_label
 _atom_site_symmetry_multiplicity
 _atom_site_fract_x
 _atom_site_fract_y
 _atom_site_fract_z
 _atom_site_occupancy
  Na  Na0  1  0.63630578  0.00076682  0.25245253  1
  Na  Na1  1  0.37235618  0.37586110  0.24596532  1
  Na  Na2  1  0.99313116  0.62028181  0.25273495  1
  Na  Na3  1  0.64292478  0.62896332  0.74541025  1
  Na  Na4  1  0.98449965  0.35524505  0.74646351  1
  Na  Na5  1  0.37254246  0.01682947  0.74645123  1
  Na  Na6  1  0.30419981  0.96182065  0.07341486  1
  Na  Na7  1  0.04077103  0.34866274  0.07499748  1
  Na  Na8  1  0.70938785  0.67913236  0.41437560  1
  Na  Na9  1  0.00646856  0.00532534  0.49655554  1
  Na  Na10  1  0.99886744  0.99800487  0.98556504  1
  Na  Na11  1  0.66721103  0.32832216  0.83125428  1
  Na  Na12  1  0.68104148  0.32766260  0.33165382  1
  Na  Na13  1  0.34697851  0.66233557  0.16042591  1
  Na  Na14  1  0.33480833  0.66558375  0.66288246  1
  Hf  Hf0  1  0.99869001  0.99845268  0.64586020  1
  Hf  Hf1  1  0.98942168  0.99703778  0.14601941  1
  Hf  Hf2  1  0.66713477  0.33218117  0.97994493  1
  Hf  Hf3  1  0.67240593  0.32808792  0.48378212  1
  Hf  Hf4  1  0.33088617  0.67335005  0.51924598  1
  Hf  Hf5  1  0.32808191  0.66764272  0.81871921  1
  Zn  Zn0  1  0.98548447  0.99644751  0.35128736  1
  Zn  Zn1  1  0.01213647  0.01143462  0.85049525  1
  Zn  Zn2  1  0.66823351  0.33512967  0.67753564  1
  Zn  Zn3  1  0.67320908  0.34213364  0.17608237  1
  Zn  Zn4  1  0.33089095  0.66571444  0.01357867  1
  Zn  Zn5  1  0.32720093  0.66588853  0.32104076  1
  P  P0  1  0.70247682  0.70029539  0.25303330  1
  P  P1  1  0.00010153  0.29407191  0.25162933  1
  P  P2  1  0.29542073  0.29415047  0.75086895  1
  P  P3  1  0.99785900  0.70863517  0.75214989  1
  P  P4  1  0.70860564  0.99952473  0.75237462  1
  P  P5  1  0.96496750  0.33426675  0.58675015  1
  P  P6  1  0.37292588  0.04147628  0.58600997  1
  P  P7  1  0.66485661  0.62691891  0.58398284  1
  P  P8  1  0.96325945  0.62839348  0.08546388  1
  P  P9  1  0.66066898  0.03775218  0.08572499  1
  P  P10  1  0.37441370  0.33661366  0.08664044  1
  P  P11  1  0.03631431  0.36556618  0.91972349  1
  P  P12  1  0.32823750  0.96316112  0.91998019  1
  P  P13  1  0.62604790  0.96126460  0.41347723  1
  P  P14  1  0.03697224  0.66890614  0.41349108  1
  S  S0  1  0.29148786  0.00086397  0.25069200  1
  S  S1  1  0.62856045  0.66789810  0.91807838  1
  S  S2  1  0.33337073  0.37034805  0.41586852  1
  O  O0  1  0.20680338  0.02326019  0.30296302  1
  O  O1  1  0.81039362  0.77659859  0.30979142  1
  O  O2  1  0.97542629  0.17859046  0.30468939  1
  O  O3  1  0.21839208  0.18282644  0.80525893  1
  O  O4  1  0.96685255  0.79029688  0.80614894  1
  O  O5  1  0.82107716  0.02928108  0.80636770  1
  O  O6  1  0.79253452  0.96717610  0.69605412  1
  O  O7  1  0.17547144  0.20807394  0.69562776  1
  O  O8  1  0.03208021  0.82496412  0.69613977  1
  O  O9  1  0.80378750  0.82201976  0.19909175  1
  O  O10  1  0.02280551  0.20552007  0.19372708  1
  O  O11  1  0.18753590  0.98306307  0.19523947  1
  O  O12  1  0.89372962  0.36326546  0.64450335  1
  O  O13  1  0.47180916  0.11164099  0.64411408  1
  O  O14  1  0.63812787  0.52622093  0.64135390  1
  O  O15  1  0.89158598  0.52767125  0.14348002  1
  O  O16  1  0.63479368  0.11408929  0.14355389  1
  O  O17  1  0.46911518  0.35494657  0.14547609  1
  O  O18  1  0.46733059  0.30611935  0.03354619  1
  O  O19  1  0.84418522  0.53455809  0.03182430  1
  O  O20  1  0.69354836  0.16257318  0.03274737  1
  O  O21  1  0.46916930  0.15650386  0.53209834  1
  O  O22  1  0.68593449  0.53517352  0.52838461  1
  O  O23  1  0.84735832  0.31230220  0.53256563  1
  O  O24  1  0.54229094  0.68512738  0.97041307  1
  O  O25  1  0.13932577  0.45056315  0.97626628  1
  O  O26  1  0.31582206  0.86299739  0.97632881  1
  O  O27  1  0.52359258  0.83934256  0.46588653  1
  O  O28  1  0.31715787  0.46455242  0.46766083  1
  O  O29  1  0.15144329  0.67871284  0.46696485  1
  O  O30  1  0.10600534  0.63724946  0.35507934  1
  O  O31  1  0.52762568  0.88823502  0.35471312  1
  O  O32  1  0.36579009  0.47207683  0.36053651  1
  O  O33  1  0.13079403  0.48157903  0.86355226  1
  O  O34  1  0.35455898  0.87138116  0.86367988  1
  O  O35  1  0.52252185  0.64406024  0.86227337  1
  O  O36  1  0.01668349  0.82875906  0.41424603  1
  O  O37  1  0.80347045  0.97404772  0.41513252  1
  O  O38  1  0.18274539  0.19857503  0.41325311  1
  O  O39  1  0.01032845  0.18643474  0.91238658  1
  O  O40  1  0.16985794  0.98048572  0.91257991  1
  O  O41  1  0.79991194  0.81581915  0.91180035  1
  O  O42  1  0.98030605  0.17038869  0.58852944  1
  O  O43  1  0.19191733  0.02254177  0.58797697  1
  O  O44  1  0.82881260  0.80771271  0.58741596  1
  O  O45  1  0.98350937  0.81184052  0.08944338  1
  O  O46  1  0.83267377  0.03135572  0.08901983  1
  O  O47  1  0.19231738  0.16428089  0.08929192  1
  O  O48  1  0.67928783  0.15348142  0.74480941  1
  O  O49  1  0.47878899  0.32402489  0.74295278  1
  O  O50  1  0.84524995  0.52501106  0.74403680  1
  O  O51  1  0.68089886  0.51971621  0.24529426  1
  O  O52  1  0.83715864  0.31087531  0.24616740  1
  O  O53  1  0.46556709  0.15363930  0.24614672  1
  O  O54  1  0.63840764  0.50570808  0.92117920  1
  O  O55  1  0.85808012  0.35961721  0.92204341  1
  O  O56  1  0.49659813  0.14434788  0.92241963  1
  O  O57  1  0.64451007  0.14158264  0.42363367  1
  O  O58  1  0.49501305  0.36014174  0.42409467  1
  O  O59  1  0.85099960  0.50763091  0.42305234  1
  O  O60  1  0.34110471  0.48612266  0.07876134  1
  O  O61  1  0.14489765  0.65356196  0.07842127  1
  O  O62  1  0.50558987  0.85971430  0.07659292  1
  O  O63  1  0.34996710  0.85927716  0.57553547  1
  O  O64  1  0.50617823  0.64994044  0.57392996  1
  O  O65  1  0.14522974  0.49185832  0.57529458  1
  O  O66  1  0.30427759  0.84238211  0.25174791  1
  O  O67  1  0.52582911  0.69172192  0.25359560  1
  O  O68  1  0.16557852  0.47330137  0.25391652  1
  O  O69  1  0.30838993  0.47600863  0.75637050  1
  O  O70  1  0.16733696  0.69448070  0.75705775  1
  O  O71  1  0.52590027  0.83062673  0.75696696  1
loop_
_geom_bond_atom_site_label_1
_geom_bond_atom_site_label_2
_geom_bond_distance
_geom_bond_site_symmetry_2
Na0 O67 2.442160 1_545
Na0 O52 2.456909 1_555
Na0 O31 2.509148 1_545
Na0 O53 2.526658 1_555
Na0 O66 2.586386 1_545
Na0 O16 2.658062 1_555
Na0 O2 2.887912 1_555
Na0 O9 2.950961 1_545
Na1 O51 2.404486 1_555
Na1 O68 2.426537 1_555
Na1 O17 2.461670 1_555
Na1 O67 2.468049 1_555
Na1 O53 2.525955 1_555
Na1 O32 2.724681 1_555
Na2 O52 2.416050 1_555
Na2 O51 2.487176 1_555
Na2 O30 2.487189 1_655
Na2 O68 2.491372 1_655
Na2 O66 2.496430 1_655
Na2 O15 2.604389 1_555
Na3 O49 2.379978 1_555
Na3 O50 2.426533 1_555
Na3 O14 2.504937 1_555
Na3 O71 2.525317 1_555
Na3 O69 2.620404 1_555
Na3 O4 2.864875 1_555
Na3 O6 2.870604 1_555
Na3 O35 2.870850 1_555
Na4 O50 2.412399 1_555
Na4 O48 2.418019 1_555
Na4 O12 2.445932 1_555
Na4 O69 2.558170 1_655
Na4 O70 2.656953 1_655
Na4 O7 2.876957 1_655
Na4 O5 2.881279 1_555
Na4 O33 2.903598 1_655
Na5 O48 2.393651 1_555
Na5 O49 2.434334 1_555
Na5 O13 2.464354 1_555
Na5 O70 2.556033 1_545
Na5 O71 2.660833 1_545
Na5 O3 2.821691 1_555
Na5 O8 2.885841 1_545
Na5 O34 2.915235 1_545
Na6 O26 2.376140 1_554
Na6 O61 2.406769 1_555
Na6 O62 2.406924 1_555
Na6 O47 2.508039 1_565
Na6 O45 2.525731 1_455
Na7 O60 2.342725 1_555
Na7 O25 2.399479 1_554
Na7 O61 2.417573 1_555
Na7 O46 2.534215 1_455
Na7 O47 2.641821 1_555
Na7 O20 2.865398 1_455
Na7 O10 2.937195 1_555
Na7 O15 2.985570 1_455
Na8 O37 2.349021 1_555
Na8 O36 2.393183 1_655
Na8 O59 2.451515 1_555
Na8 O1 2.518593 1_555
Na8 O58 2.545443 1_555
Na8 O22 2.836097 1_555
Na8 O27 2.934655 1_555
Na8 O32 2.950358 1_555
Na9 O36 2.466732 1_545
Na9 O37 2.497777 1_445
Na9 O38 2.513065 1_555
Na9 O43 2.600503 1_555
Na9 O42 2.620613 1_455
Na9 O44 2.660292 1_445
Na10 O40 2.307668 1_655
Na10 O39 2.332141 1_665
Na10 O41 2.383912 1_555
Na10 O47 2.840805 1_666
Na10 O45 2.842019 1_556
Na10 O46 2.860332 1_566
Na11 O48 2.532955 1_555
Na11 O55 2.587998 1_555
Na11 O50 2.595509 1_555
Na11 O49 2.596380 1_555
Na11 O56 2.604672 1_555
Na11 O54 2.663817 1_555
Na12 O52 2.429185 1_555
Na12 O57 2.581522 1_555
Na12 O59 2.584315 1_555
Na12 O51 2.604498 1_555
Na12 O53 2.615668 1_555
Na12 O58 2.773488 1_555
Na13 O60 2.405332 1_555
Na13 O62 2.497241 1_555
Na13 O61 2.560614 1_555
Na13 O67 2.570770 1_555
Na13 O68 2.688502 1_555
Na13 O66 2.754946 1_555
Na14 O65 2.556705 1_555
Na14 O64 2.571546 1_555
Na14 O63 2.588623 1_555
Na14 O69 2.646874 1_555
Na14 O71 2.655864 1_555
Na14 O70 2.685198 1_555
Hf0 O6 2.066903 1_555
Hf0 O8 2.070551 1_655
Hf0 O7 2.079118 1_665
Hf0 O42 2.086424 1_565
Hf0 O44 2.089637 1_555
Hf0 O43 2.094651 1_665
Hf1 O9 2.019461 1_555
Hf1 O46 2.039387 1_565
Hf1 O10 2.045708 1_665
Hf1 O45 2.072811 1_555
Hf1 O47 2.119336 1_665
Hf1 O11 2.152977 1_655
Hf2 O20 2.042341 1_556
Hf2 O56 2.066918 1_555
Hf2 O55 2.069950 1_555
Hf2 O19 2.072700 1_556
Hf2 O18 2.078083 1_556
Hf2 O54 2.160831 1_555
Hf3 O23 1.979752 1_555
Hf3 O21 2.024157 1_555
Hf3 O22 2.062898 1_555
Hf3 O57 2.067096 1_555
Hf3 O59 2.116179 1_555
Hf3 O58 2.210745 1_555
Hf4 O29 2.015514 1_555
Hf4 O27 2.025020 1_555
Hf4 O63 2.032252 1_555
Hf4 O65 2.081794 1_555
Hf4 O64 2.090640 1_555
Hf4 O28 2.155394 1_555
Hf5 O34 1.998073 1_555
Hf5 O33 2.002856 1_555
Hf5 O70 2.101732 1_555
Hf5 O35 2.104800 1_555
Hf5 O69 2.156266 1_555
Hf5 O71 2.156836 1_555
O0 S0 1.467841 1_555
O0 Zn0 2.173321 1_445
O1 P0 1.538546 1_555
O1 Zn0 2.033494 1_555
O2 P1 1.526787 1_655
O2 Zn0 1.988434 1_545
O3 P2 1.514852 1_555
O3 Zn1 2.001644 1_555
O4 P3 1.513645 1_555
O4 Zn1 2.073089 1_665
O5 P4 1.514208 1_545
O5 Zn1 2.058035 1_655
O6 P4 1.573554 1_555
O7 P2 1.568947 1_555
O8 P3 1.569789 1_455
O9 P0 1.585494 1_555
O10 P1 1.589821 1_555
O11 S0 1.516730 1_565
O12 P5 1.526530 1_555
O12 Zn2 2.053437 1_555
O13 P6 1.525370 1_555
O13 Zn2 2.041070 1_555
O14 P7 1.527618 1_555
O14 Zn2 2.041753 1_555
O15 P8 1.537424 1_555
O15 Zn3 1.978289 1_555
O16 P9 1.539703 1_555
O16 Zn3 2.036778 1_555
O17 P10 1.535598 1_555
O17 Zn3 2.016065 1_555
O18 P10 1.557774 1_555
O19 P8 1.549412 1_555
O20 P9 1.563963 1_555
O21 P6 1.550561 1_555
O22 P7 1.558863 1_555
O23 P5 1.558358 1_555
O24 S1 1.459602 1_555
O24 Zn4 2.063268 1_556
O25 P11 1.530368 1_555
O25 Zn4 2.018040 1_556
O26 P12 1.528922 1_555
O26 Zn4 2.030792 1_556
O27 P13 1.562370 1_555
O28 S2 1.487676 1_555
O29 P14 1.555262 1_555
O30 P14 1.538319 1_555
O30 Zn5 2.024499 1_555
O31 P13 1.539842 1_555
O31 Zn5 2.051254 1_555
O32 S2 1.487410 1_555
O32 Zn5 2.137302 1_555
O33 P11 1.590775 1_555
O34 P12 1.590402 1_555
O35 S1 1.523400 1_555
O36 P14 1.538349 1_555
O36 Zn0 2.190450 1_455
O37 P13 1.541381 1_555
O37 Zn0 2.110628 1_555
O38 S2 1.460802 1_555
O38 Zn0 2.269153 1_445
O39 P11 1.517693 1_555
O39 Zn1 2.104392 1_555
O40 P12 1.517168 1_555
O40 Zn1 2.105105 1_565
O41 S1 1.454998 1_555
O41 Zn1 2.302685 1_665
O42 P5 1.549412 1_555
O43 P6 1.550036 1_555
O44 P7 1.558168 1_555
O45 P8 1.570501 1_555
O46 P9 1.577831 1_555
O47 P10 1.597487 1_555
O48 P4 1.544655 1_545
O48 Zn2 2.269414 1_555
O49 P2 1.542647 1_555
O49 Zn2 2.215601 1_555
O50 P3 1.542085 1_555
O50 Zn2 2.224535 1_555
O51 P0 1.546923 1_555
O51 Zn3 2.203060 1_555
O52 P1 1.551084 1_655
O52 Zn3 2.269131 1_555
O53 S0 1.483422 1_555
O53 Zn3 2.387699 1_555
O54 S1 1.508069 1_555
O55 P11 1.577391 1_655
O56 P12 1.576481 1_545
O57 P13 1.562827 1_545
O58 S2 1.512680 1_555
O59 P14 1.589123 1_655
O60 P10 1.528722 1_555
O60 Zn4 2.221230 1_555
O61 P8 1.540889 1_455
O61 Zn4 2.180734 1_555
O62 P9 1.522431 1_565
O62 Zn4 2.181905 1_555
O63 P6 1.564232 1_565
O64 P7 1.557264 1_555
O65 P5 1.552386 1_455
O66 S0 1.487726 1_565
O66 Zn5 2.310255 1_555
O67 P0 1.551228 1_555
O67 Zn5 2.265830 1_555
O68 P1 1.555149 1_555
O68 Zn5 2.203200 1_555
O69 P2 1.586369 1_555
O70 P3 1.595143 1_455
O71 P4 1.588995 1_555
