# generated using pymatgen
data_La2Mg(NiO3)2
_symmetry_space_group_name_H-M   'P 1'
_cell_length_a   6.25663170
_cell_length_b   6.25456700
_cell_length_c   6.25825506
_cell_angle_alpha   55.30240523
_cell_angle_beta   55.30835830
_cell_angle_gamma   55.32383543
_symmetry_Int_Tables_number   1
_chemical_formula_structural   La2Mg(NiO3)2
_chemical_formula_sum   'La2 Mg1 Ni2 O6'
_cell_volume   154.30515384
_cell_formula_units_Z   1
loop_
 _symmetry_equiv_pos_site_id
 _symmetry_equiv_pos_as_xyz
  1  'x, y, z'
loop_
 _atom_site_type_symbol
 _atom_site_label
 _atom_site_symmetry_multiplicity
 _atom_site_fract_x
 _atom_site_fract_y
 _atom_site_fract_z
 _atom_site_occupancy
  La  La0  1  0.78186601  0.78070864  0.78093882  1
  La  La1  1  0.19129078  0.19019012  0.19002504  1
  Mg  Mg0  1  0.41793376  0.41673724  0.41717490  1
  Ni  Ni0  1  0.58791032  0.58692327  0.58633969  1
  Ni  Ni1  1  0.98945706  0.98838052  0.98852790  1
  O  O0  1  0.33780875  0.76576529  0.11301872  1
  O  O1  1  0.76700497  0.11281021  0.33681905  1
  O  O2  1  0.11391713  0.33654241  0.76617222  1
  O  O3  1  0.63807431  0.21720734  0.84234393  1
  O  O4  1  0.84391493  0.63713827  0.21686877  1
  O  O5  1  0.21832199  0.84259668  0.63677096  1
loop_
_geom_bond_atom_site_label_1
_geom_bond_atom_site_label_2
_geom_bond_distance
_geom_bond_site_symmetry_2
La0 O0 2.355522 1_556
La0 O2 2.355588 1_655
La0 O1 2.355835 1_565
La0 O3 2.533114 1_565
La0 O4 2.533730 1_556
La0 O5 2.534051 1_655
La1 O5 2.402423 1_545
La1 O4 2.402544 1_455
La1 O3 2.402552 1_554
La1 O2 2.510293 1_554
La1 O0 2.510789 1_545
La1 O1 2.510931 1_455
Mg0 O2 1.936310 1_555
Mg0 O0 1.936568 1_555
Mg0 O1 1.936593 1_555
Ni0 O5 1.881523 1_555
Ni0 O4 1.881598 1_555
Ni0 O3 1.881831 1_555
Ni1 O2 2.128577 1_665
Ni1 O1 2.130565 1_566
Ni1 O0 2.130904 1_656
Ni1 O4 2.217751 1_556
Ni1 O3 2.221961 1_565
Ni1 O5 2.222443 1_655
