# generated using pymatgen
data_Na3TiGaSi(PO6)2
_symmetry_space_group_name_H-M   'P 1'
_cell_length_a   8.81750375
_cell_length_b   8.81750347
_cell_length_c   22.11526330
_cell_angle_alpha   89.98898780
_cell_angle_beta   90.01101219
_cell_angle_gamma   120.00229968
_symmetry_Int_Tables_number   1
_chemical_formula_structural   Na3TiGaSi(PO6)2
_chemical_formula_sum   'Na18 Ti6 Ga6 Si6 P12 O72'
_cell_volume   1489.03176754
_cell_formula_units_Z   6
loop_
 _symmetry_equiv_pos_site_id
 _symmetry_equiv_pos_as_xyz
  1  'x, y, z'
loop_
 _atom_site_type_symbol
 _atom_site_label
 _atom_site_symmetry_multiplicity
 _atom_site_fract_x
 _atom_site_fract_y
 _atom_site_fract_z
 _atom_site_occupancy
  Na  Na0  1  0.00050762  0.99796428  0.49843679  1
  Na  Na1  1  0.00203572  0.99949238  0.99843679  1
  Na  Na2  1  0.66700721  0.33043742  0.83188096  1
  Na  Na3  1  0.66956258  0.33299279  0.33188096  1
  Na  Na4  1  0.34325421  0.67252479  0.16511997  1
  Na  Na5  1  0.32747521  0.65674579  0.66511997  1
  Na  Na6  1  0.36534747  0.36509129  0.24909913  1
  Na  Na7  1  0.99516889  0.62968401  0.24844912  1
  Na  Na8  1  0.63490871  0.63465253  0.74909913  1
  Na  Na9  1  0.37031599  0.00483111  0.74844912  1
  Na  Na10  1  0.03597710  0.70006495  0.58206256  1
  Na  Na11  1  0.66089787  0.96513658  0.58353990  1
  Na  Na12  1  0.29993505  0.96402290  0.08206256  1
  Na  Na13  1  0.03486342  0.33910213  0.08353990  1
  Na  Na14  1  0.96992301  0.66971932  0.91706886  1
  Na  Na15  1  0.70106560  0.03173288  0.91494422  1
  Na  Na16  1  0.96826712  0.29893440  0.41494422  1
  Na  Na17  1  0.33028068  0.03007699  0.41706886  1
  Ti  Ti0  1  0.00650645  0.00843299  0.64812166  1
  Ti  Ti1  1  0.99156701  0.99349355  0.14812166  1
  Ti  Ti2  1  0.66182286  0.33613579  0.98119094  1
  Ti  Ti3  1  0.66386421  0.33817714  0.48119094  1
  Ti  Ti4  1  0.32546821  0.66244070  0.31457931  1
  Ti  Ti5  1  0.33755930  0.67453179  0.81457931  1
  Ga  Ga0  1  0.99124195  0.99263392  0.35089246  1
  Ga  Ga1  1  0.00736608  0.00875805  0.85089246  1
  Ga  Ga2  1  0.67032165  0.32563368  0.68411761  1
  Ga  Ga3  1  0.67436632  0.32967835  0.18411761  1
  Ga  Ga4  1  0.33084905  0.66829696  0.01726876  1
  Ga  Ga5  1  0.33170304  0.66915095  0.51726876  1
  Si  Si0  1  0.99195113  0.28332461  0.25123775  1
  Si  Si1  1  0.71667539  0.00804887  0.75123775  1
  Si  Si2  1  0.37534460  0.04345543  0.58377348  1
  Si  Si3  1  0.95654457  0.62465540  0.08377348  1
  Si  Si4  1  0.32967734  0.96155905  0.91749639  1
  Si  Si5  1  0.03844095  0.67032266  0.41749639  1
  P  P0  1  0.29382707  0.00319749  0.25026712  1
  P  P1  1  0.70822576  0.71069775  0.25080724  1
  P  P2  1  0.28930225  0.29177424  0.75080724  1
  P  P3  1  0.99680251  0.70617293  0.75026712  1
  P  P4  1  0.95902261  0.33570782  0.58332367  1
  P  P5  1  0.66093028  0.61903416  0.58487681  1
  P  P6  1  0.66429218  0.04097739  0.08332367  1
  P  P7  1  0.38096584  0.33906972  0.08487681  1
  P  P8  1  0.61932173  0.66476285  0.91745216  1
  P  P9  1  0.04785033  0.37612900  0.91739871  1
  P  P10  1  0.62387100  0.95214967  0.41739871  1
  P  P11  1  0.33523715  0.38067827  0.41745216  1
  O  O0  1  0.21273226  0.03653771  0.30693422  1
  O  O1  1  0.82949613  0.78920480  0.30539143  1
  O  O2  1  0.97116753  0.17152197  0.31152806  1
  O  O3  1  0.21079520  0.17050387  0.80539143  1
  O  O4  1  0.96346229  0.78726774  0.80693422  1
  O  O5  1  0.82847803  0.02883247  0.81152806  1
  O  O6  1  0.80237861  0.96527144  0.69119177  1
  O  O7  1  0.17081126  0.19998603  0.69423852  1
  O  O8  1  0.03500891  0.82814931  0.69369298  1
  O  O9  1  0.80001397  0.82918874  0.19423852  1
  O  O10  1  0.03472856  0.19762139  0.19119177  1
  O  O11  1  0.17185069  0.96499109  0.19369298  1
  O  O12  1  0.87783297  0.37394578  0.63842550  1
  O  O13  1  0.49822259  0.12650739  0.64274250  1
  O  O14  1  0.63664806  0.51125557  0.64207172  1
  O  O15  1  0.87349261  0.50177741  0.14274250  1
  O  O16  1  0.62605422  0.12216703  0.13842550  1
  O  O17  1  0.48874443  0.36335194  0.14207172  1
  O  O18  1  0.46705601  0.30068224  0.02893931  1
  O  O19  1  0.83279539  0.53002416  0.02359411  1
  O  O20  1  0.70072586  0.16063790  0.02637109  1
  O  O21  1  0.46997584  0.16720461  0.52359411  1
  O  O22  1  0.69931776  0.53294399  0.52893931  1
  O  O23  1  0.83936210  0.29927414  0.52637109  1
  O  O24  1  0.53606806  0.70020305  0.97240122  1
  O  O25  1  0.15505244  0.45504724  0.97540190  1
  O  O26  1  0.29399849  0.83704620  0.97598181  1
  O  O27  1  0.54495276  0.84494756  0.47540190  1
  O  O28  1  0.29979695  0.46393194  0.47240122  1
  O  O29  1  0.16295380  0.70600151  0.47598181  1
  O  O30  1  0.13359882  0.63242353  0.35812178  1
  O  O31  1  0.50078427  0.86473186  0.36219686  1
  O  O32  1  0.36516482  0.49322114  0.35929162  1
  O  O33  1  0.13526814  0.49921573  0.86219686  1
  O  O34  1  0.36757647  0.86640118  0.85812178  1
  O  O35  1  0.50677886  0.63483518  0.85929162  1
  O  O36  1  0.02863587  0.84766598  0.40814999  1
  O  O37  1  0.81053755  0.98195732  0.41117105  1
  O  O38  1  0.17245201  0.19573548  0.41121528  1
  O  O39  1  0.01804268  0.18946245  0.91117105  1
  O  O40  1  0.15233402  0.97136413  0.90814999  1
  O  O41  1  0.80426452  0.82754799  0.91121528  1
  O  O42  1  0.96838324  0.16412926  0.58990034  1
  O  O43  1  0.17687093  0.01685834  0.59040592  1
  O  O44  1  0.83091485  0.80434215  0.58890102  1
  O  O45  1  0.98314166  0.82312907  0.09040592  1
  O  O46  1  0.83587074  0.03161676  0.08990034  1
  O  O47  1  0.19565785  0.16908515  0.08890102  1
  O  O48  1  0.68251575  0.17188123  0.74491204  1
  O  O49  1  0.47426407  0.31466337  0.74319606  1
  O  O50  1  0.83017257  0.52684818  0.74205646  1
  O  O51  1  0.68533663  0.52573593  0.24319606  1
  O  O52  1  0.82811877  0.31748425  0.24491204  1
  O  O53  1  0.47315182  0.16982743  0.24205646  1
  O  O54  1  0.64250604  0.50087094  0.92269465  1
  O  O55  1  0.86197137  0.36060504  0.92236725  1
  O  O56  1  0.51282417  0.14998627  0.92383490  1
  O  O57  1  0.63939496  0.13802863  0.42236725  1
  O  O58  1  0.49912906  0.35749396  0.42269465  1
  O  O59  1  0.85001373  0.48717583  0.42383490  1
  O  O60  1  0.35501896  0.49730580  0.07626553  1
  O  O61  1  0.15149929  0.64418944  0.07735077  1
  O  O62  1  0.50193972  0.85865046  0.07618141  1
  O  O63  1  0.35581056  0.84850071  0.57735077  1
  O  O64  1  0.50269420  0.64498104  0.57626553  1
  O  O65  1  0.14134954  0.49806028  0.57618141  1
  O  O66  1  0.30682454  0.83405402  0.25646994  1
  O  O67  1  0.52508559  0.69165808  0.25621022  1
  O  O68  1  0.17523075  0.48180334  0.25679517  1
  O  O69  1  0.30834192  0.47491441  0.75621022  1
  O  O70  1  0.16594598  0.69317546  0.75646994  1
  O  O71  1  0.51819666  0.82476925  0.75679517  1
loop_
_geom_bond_atom_site_label_1
_geom_bond_atom_site_label_2
_geom_bond_distance
_geom_bond_site_symmetry_2
Na0 O36 2.476816 1_555
Na0 O37 2.512511 1_455
Na0 O43 2.514498 1_565
Na0 O38 2.533012 1_565
Na0 O44 2.569072 1_455
Na0 O42 2.595152 1_465
Na1 O40 2.476816 1_555
Na1 O39 2.512511 1_565
Na1 O45 2.514498 1_456
Na1 O41 2.533012 1_455
Na1 O47 2.569072 1_566
Na1 O46 2.595152 1_466
Na2 O48 2.421749 1_555
Na2 O56 2.520306 1_555
Na2 O49 2.552797 1_555
Na2 O50 2.554080 1_555
Na2 O55 2.563617 1_555
Na2 O54 2.581595 1_555
Na3 O52 2.421749 1_555
Na3 O59 2.520306 1_555
Na3 O51 2.552797 1_555
Na3 O53 2.554080 1_555
Na3 O57 2.563617 1_555
Na3 O58 2.581595 1_555
Na4 O62 2.494639 1_555
Na4 O61 2.503061 1_555
Na4 O67 2.526967 1_555
Na4 O60 2.533905 1_555
Na4 O68 2.577142 1_555
Na4 O66 2.583019 1_555
Na5 O65 2.494639 1_555
Na5 O63 2.503061 1_555
Na5 O69 2.526967 1_555
Na5 O64 2.533905 1_555
Na5 O71 2.577142 1_555
Na5 O70 2.583019 1_555
Na6 O53 2.351408 1_555
Na6 O68 2.371423 1_555
Na6 O51 2.446945 1_555
Na6 O67 2.498834 1_555
Na6 O17 2.608484 1_555
Na6 O32 2.686625 1_555
Na6 O0 2.817806 1_555
Na6 O10 2.830782 1_555
Na7 O52 2.387200 1_555
Na7 O51 2.410988 1_555
Na7 O66 2.424456 1_655
Na7 O68 2.515015 1_655
Na7 O15 2.584178 1_555
Na7 O30 2.709727 1_655
Na7 O1 2.784700 1_555
Na7 O11 2.833327 1_655
Na8 O50 2.351408 1_555
Na8 O71 2.371423 1_555
Na8 O49 2.446945 1_555
Na8 O69 2.498834 1_555
Na8 O14 2.608484 1_555
Na8 O35 2.686625 1_555
Na8 O4 2.817806 1_555
Na8 O6 2.830782 1_555
Na9 O48 2.387200 1_555
Na9 O49 2.410988 1_555
Na9 O70 2.424456 1_545
Na9 O71 2.515015 1_545
Na9 O13 2.584178 1_555
Na9 O34 2.709727 1_545
Na9 O3 2.784700 1_555
Na9 O8 2.833327 1_545
Na10 O65 2.389133 1_555
Na10 O44 2.408410 1_455
Na10 O43 2.430995 1_565
Na10 O63 2.446584 1_555
Na10 O29 2.588893 1_555
Na10 O8 2.716793 1_555
Na10 O12 2.785000 1_455
Na10 O22 2.826366 1_455
Na11 O63 2.355040 1_555
Na11 O42 2.385743 1_565
Na11 O64 2.450071 1_555
Na11 O44 2.529247 1_555
Na11 O27 2.608464 1_555
Na11 O6 2.687307 1_555
Na11 O13 2.799796 1_565
Na11 O23 2.849193 1_565
Na12 O62 2.389133 1_555
Na12 O47 2.408410 1_565
Na12 O45 2.430996 1_455
Na12 O61 2.446584 1_555
Na12 O26 2.588893 1_554
Na12 O11 2.716793 1_555
Na12 O16 2.785000 1_565
Na12 O18 2.826366 1_565
Na13 O61 2.355040 1_555
Na13 O46 2.385743 1_455
Na13 O60 2.450071 1_555
Na13 O47 2.529247 1_555
Na13 O25 2.608464 1_554
Na13 O10 2.687307 1_555
Na13 O15 2.799796 1_455
Na13 O20 2.849193 1_455
Na14 O40 2.328482 1_655
Na14 O55 2.398767 1_555
Na14 O41 2.473837 1_555
Na14 O54 2.503673 1_555
Na14 O19 2.653242 1_556
Na14 O4 2.658570 1_555
Na14 O26 2.796929 1_655
Na14 O33 2.837576 1_655
Na15 O56 2.368945 1_555
Na15 O41 2.390555 1_545
Na15 O39 2.421895 1_655
Na15 O55 2.516842 1_555
Na15 O5 2.554070 1_555
Na15 O20 2.714563 1_556
Na15 O24 2.832448 1_545
Na15 O34 2.839609 1_545
Na16 O59 2.368945 1_555
Na16 O38 2.390555 1_655
Na16 O37 2.421895 1_545
Na16 O57 2.516842 1_555
Na16 O2 2.554070 1_555
Na16 O23 2.714563 1_555
Na16 O28 2.832448 1_655
Na16 O30 2.839609 1_655
Na17 O36 2.328482 1_545
Na17 O57 2.398767 1_555
Na17 O38 2.473837 1_555
Na17 O58 2.503673 1_555
Na17 O21 2.653242 1_555
Na17 O0 2.658570 1_555
Na17 O29 2.796929 1_545
Na17 O31 2.837576 1_545
Ga0 O2 1.885696 1_565
Ga0 O1 1.925057 1_555
Ga0 O36 1.940823 1_655
Ga0 O0 2.038038 1_665
Ga0 O37 2.043408 1_555
Ga0 O38 2.162942 1_665
Ga1 O5 1.885696 1_455
Ga1 O3 1.925057 1_555
Ga1 O40 1.940823 1_545
Ga1 O4 2.038038 1_445
Ga1 O39 2.043408 1_555
Ga1 O41 2.162942 1_445
Ga2 O13 1.886359 1_555
Ga2 O12 1.942041 1_555
Ga2 O48 1.949918 1_555
Ga2 O14 2.029030 1_555
Ga2 O50 2.067744 1_555
Ga2 O49 2.130379 1_555
Ga3 O15 1.886359 1_555
Ga3 O16 1.942041 1_555
Ga3 O52 1.949918 1_555
Ga3 O17 2.029030 1_555
Ga3 O53 2.067744 1_555
Ga3 O51 2.130379 1_555
Ga4 O26 1.906867 1_554
Ga4 O24 1.956925 1_554
Ga4 O25 1.970009 1_554
Ga4 O61 1.994017 1_555
Ga4 O62 2.063568 1_555
Ga4 O60 2.083608 1_555
Ga5 O29 1.906867 1_555
Ga5 O28 1.956925 1_555
Ga5 O27 1.970009 1_555
Ga5 O63 1.994017 1_555
Ga5 O65 2.063568 1_555
Ga5 O64 2.083608 1_555
O0 P0 1.542389 1_555
O1 P1 1.529496 1_555
O2 Si0 1.613111 1_555
O3 P2 1.529496 1_555
O4 P3 1.542389 1_555
O5 Si1 1.613111 1_555
O6 Si1 1.662041 1_565
O6 Ti0 1.899266 1_665
O7 P2 1.570332 1_555
O7 Ti0 1.882764 1_555
O8 P3 1.572553 1_455
O8 Ti0 2.001171 1_565
O9 P1 1.570332 1_555
O9 Ti1 1.882764 1_555
O10 Si0 1.662041 1_455
O10 Ti1 1.899266 1_445
O11 P0 1.572553 1_565
O11 Ti1 2.001171 1_455
O12 P4 1.533957 1_555
O13 Si2 1.617790 1_555
O14 P5 1.531359 1_555
O15 Si3 1.617790 1_555
O16 P6 1.533957 1_555
O17 P7 1.531359 1_555
O18 P7 1.574368 1_555
O18 Ti2 1.904147 1_554
O19 Si3 1.657543 1_555
O19 Ti2 1.870144 1_554
O20 P6 1.569558 1_555
O20 Ti2 2.010162 1_554
O21 Si2 1.657543 1_555
O21 Ti3 1.870144 1_555
O22 P5 1.574368 1_555
O22 Ti3 1.904147 1_555
O23 P4 1.569558 1_555
O23 Ti3 2.010162 1_555
O24 P8 1.530747 1_555
O25 P9 1.537939 1_555
O26 Si4 1.622180 1_555
O27 P10 1.537939 1_555
O28 P11 1.530747 1_555
O29 Si5 1.622180 1_555
O30 Si5 1.679548 1_555
O30 Ti4 1.847232 1_555
O31 P10 1.557447 1_555
O31 Ti4 1.980601 1_555
O32 P11 1.564144 1_555
O32 Ti4 1.961694 1_555
O33 P9 1.557447 1_555
O33 Ti5 1.980601 1_555
O34 Si4 1.679548 1_555
O34 Ti5 1.847232 1_555
O35 P8 1.564144 1_555
O35 Ti5 1.961694 1_555
O36 Si5 1.621884 1_555
O37 P10 1.537721 1_555
O38 P11 1.548461 1_555
O39 P9 1.537721 1_555
O40 Si4 1.621884 1_555
O41 P8 1.548461 1_555
O42 P4 1.562564 1_555
O42 Ti0 2.028856 1_655
O43 Si2 1.651908 1_555
O43 Ti0 1.944320 1_555
O44 P5 1.573228 1_555
O44 Ti0 2.136488 1_665
O45 Si3 1.651908 1_555
O45 Ti1 1.944320 1_555
O46 P6 1.562564 1_555
O46 Ti1 2.028856 1_545
O47 P7 1.573228 1_555
O47 Ti1 2.136488 1_445
O48 Si1 1.622403 1_555
O49 P2 1.549135 1_555
O50 P3 1.539005 1_555
O51 P1 1.549135 1_555
O52 Si0 1.622403 1_555
O53 P0 1.539005 1_555
O54 P8 1.561719 1_555
O54 Ti2 2.014720 1_555
O55 P9 1.578858 1_655
O55 Ti2 2.115048 1_555
O56 Si4 1.644603 1_545
O56 Ti2 1.967917 1_555
O57 P10 1.578858 1_545
O57 Ti3 2.115048 1_555
O58 P11 1.561719 1_555
O58 Ti3 2.014720 1_555
O59 Si5 1.644603 1_655
O59 Ti3 1.967917 1_555
O60 P7 1.534419 1_555
O61 Si3 1.645852 1_455
O62 P6 1.535339 1_565
O63 Si2 1.645852 1_565
O64 P5 1.534419 1_555
O65 P4 1.535339 1_455
O66 P0 1.557930 1_565
O66 Ti4 2.053348 1_555
O67 P1 1.542437 1_555
O67 Ti4 2.092359 1_555
O68 Si0 1.691489 1_455
O68 Ti4 1.953169 1_555
O69 P2 1.542437 1_555
O69 Ti5 2.092359 1_555
O70 P3 1.557930 1_455
O70 Ti5 2.053348 1_555
O71 Si1 1.691489 1_565
O71 Ti5 1.953169 1_555
