# generated using pymatgen
data_Dy4MgTi2O10
_symmetry_space_group_name_H-M   'P 1'
_cell_length_a   5.84989080
_cell_length_b   7.20024748
_cell_length_c   8.55070060
_cell_angle_alpha   65.93090571
_cell_angle_beta   108.81627301
_cell_angle_gamma   131.02925811
_symmetry_Int_Tables_number   1
_chemical_formula_structural   Dy4MgTi2O10
_chemical_formula_sum   'Dy4 Mg1 Ti2 O10'
_cell_volume   247.28683937
_cell_formula_units_Z   1
loop_
 _symmetry_equiv_pos_site_id
 _symmetry_equiv_pos_as_xyz
  1  'x, y, z'
loop_
 _atom_site_type_symbol
 _atom_site_label
 _atom_site_symmetry_multiplicity
 _atom_site_fract_x
 _atom_site_fract_y
 _atom_site_fract_z
 _atom_site_occupancy
  Dy  Dy0  1  0.45252704  0.67417910  0.78122502  1
  Dy  Dy1  1  0.31210442  0.72405870  0.13006470  1
  Dy  Dy2  1  0.71616526  0.33935268  0.87089351  1
  Dy  Dy3  1  0.59228388  0.38170935  0.23588237  1
  Mg  Mg0  1  0.22123623  0.34732849  0.53204527  1
  Ti  Ti0  1  0.94102092  0.82468445  0.46889070  1
  Ti  Ti1  1  0.01913769  0.03279964  0.00120054  1
  O  O0  1  0.01915646  0.60563951  0.65187016  1
  O  O1  1  0.42564952  0.08873410  0.11393667  1
  O  O2  1  0.60145719  0.71496882  0.54820778  1
  O  O3  1  0.24746275  0.25703237  0.78536131  1
  O  O4  1  0.85200341  0.65939790  0.97579001  1
  O  O5  1  0.18283224  0.40725472  0.02138011  1
  O  O6  1  0.78111052  0.79057472  0.23549033  1
  O  O7  1  0.29531786  0.16210757  0.45517675  1
  O  O8  1  0.61022230  0.97412518  0.89332007  1
  O  O9  1  0.01156232  0.44313572  0.33497869  1
loop_
_geom_bond_atom_site_label_1
_geom_bond_atom_site_label_2
_geom_bond_distance
_geom_bond_site_symmetry_2
Dy0 O0 2.210853 1_555
Dy0 O8 2.221797 1_555
Dy0 O2 2.263118 1_555
Dy0 O5 2.299885 1_556
Dy0 O3 2.381585 1_555
Dy0 O4 2.431950 1_555
Dy1 O9 2.163303 1_555
Dy1 O1 2.197435 1_565
Dy1 O8 2.358594 1_554
Dy1 O6 2.366666 1_555
Dy1 O5 2.376938 1_555
Dy1 O4 2.401402 1_454
Dy2 O8 2.204981 1_545
Dy2 O0 2.252962 1_655
Dy2 O3 2.308760 1_555
Dy2 O4 2.359718 1_555
Dy2 O1 2.378340 1_556
Dy2 O5 2.417078 1_656
Dy3 O9 2.114311 1_655
Dy3 O1 2.219513 1_555
Dy3 O7 2.260691 1_555
Dy3 O6 2.368937 1_555
Dy3 O4 2.411733 1_554
Dy3 O5 2.569908 1_555
Mg0 O9 1.910297 1_555
Mg0 O3 1.976319 1_555
Mg0 O7 2.013939 1_555
Mg0 O2 2.084130 1_555
O0 Ti0 1.901770 1_455
O1 Ti1 2.080166 1_555
O2 Ti0 1.844365 1_555
O3 Ti1 2.031087 1_556
O4 Ti1 2.262726 1_666
O5 Ti1 2.258165 1_555
O6 Ti0 1.952496 1_555
O6 Ti1 2.180634 1_665
O7 Ti0 1.877619 1_445
O8 Ti1 2.078281 1_666
