# generated using pymatgen
data_Sr3MgV2O8
_symmetry_space_group_name_H-M   'P 1'
_cell_length_a   6.71626552
_cell_length_b   8.41777575
_cell_length_c   6.71626535
_cell_angle_alpha   51.70734127
_cell_angle_beta   51.89664884
_cell_angle_gamma   51.70734668
_symmetry_Int_Tables_number   1
_chemical_formula_structural   Sr3MgV2O8
_chemical_formula_sum   'Sr3 Mg1 V2 O8'
_cell_volume   216.51106485
_cell_formula_units_Z   1
loop_
 _symmetry_equiv_pos_site_id
 _symmetry_equiv_pos_as_xyz
  1  'x, y, z'
loop_
 _atom_site_type_symbol
 _atom_site_label
 _atom_site_symmetry_multiplicity
 _atom_site_fract_x
 _atom_site_fract_y
 _atom_site_fract_z
 _atom_site_occupancy
  Sr  Sr0  1  0.76469557  0.87208705  0.76469557  1
  Sr  Sr1  1  0.22435146  0.18054370  0.22435146  1
  Sr  Sr2  1  0.09692273  0.82416737  0.09692273  1
  Mg  Mg0  1  0.86089431  0.34850243  0.86089431  1
  V  V0  1  0.53877744  0.65430856  0.53877744  1
  V  V1  1  0.43859632  0.35846131  0.43859632  1
  O  O0  1  0.69280601  0.35003245  0.69280601  1
  O  O1  1  0.19215550  0.85097729  0.66557747  1
  O  O2  1  0.66557747  0.85097729  0.19215550  1
  O  O3  1  0.37909896  0.62394649  0.37909896  1
  O  O4  1  0.79815892  0.19069887  0.26924594  1
  O  O5  1  0.26453719  0.42272415  0.26453719  1
  O  O6  1  0.69811119  0.66580316  0.69811119  1
  O  O7  1  0.26924594  0.19069887  0.79815892  1
loop_
_geom_bond_atom_site_label_1
_geom_bond_atom_site_label_2
_geom_bond_distance
_geom_bond_site_symmetry_2
Mg0 O6 1.939487 1_555
Mg0 O0 2.021381 1_555
Mg0 O4 2.053347 1_556
Mg0 O7 2.053347 1_655
O0 V0 1.858424 1_555
O0 Sr1 3.172983 1_556
O0 Sr1 3.172983 1_655
O1 V0 1.846500 1_555
O1 Sr0 2.423349 1_455
O1 Sr2 2.436093 1_556
O1 Sr1 2.507686 1_565
O2 V0 1.846500 1_555
O2 Sr0 2.423349 1_554
O2 Sr2 2.436093 1_655
O2 Sr1 2.507686 1_565
O3 V1 1.815816 1_555
O3 V0 2.112924 1_555
O3 Sr2 2.557205 1_555
O4 V1 1.869212 1_555
O4 Sr1 2.637267 1_655
O4 Sr0 2.660777 1_545
O4 Sr2 2.961754 1_645
O5 V1 1.773418 1_555
O5 Sr1 2.399042 1_555
O5 Sr2 2.467503 1_555
O6 V0 1.992410 1_555
O6 Sr0 2.363656 1_555
O7 V1 1.869212 1_555
O7 Sr1 2.637267 1_556
O7 Sr0 2.660778 1_545
O7 Sr2 2.961754 1_546
