# generated using pymatgen
data_Ba2MgNb4O12
_symmetry_space_group_name_H-M   'P 1'
_cell_length_a   4.06422950
_cell_length_b   6.40625938
_cell_length_c   10.74924068
_cell_angle_alpha   88.44289264
_cell_angle_beta   89.99755251
_cell_angle_gamma   89.99992409
_symmetry_Int_Tables_number   1
_chemical_formula_structural   Ba2MgNb4O12
_chemical_formula_sum   'Ba2 Mg1 Nb4 O12'
_cell_volume   279.76934837
_cell_formula_units_Z   1
loop_
 _symmetry_equiv_pos_site_id
 _symmetry_equiv_pos_as_xyz
  1  'x, y, z'
loop_
 _atom_site_type_symbol
 _atom_site_label
 _atom_site_symmetry_multiplicity
 _atom_site_fract_x
 _atom_site_fract_y
 _atom_site_fract_z
 _atom_site_occupancy
  Ba  Ba0  1  0.00001019  0.29478130  0.78477073  1
  Ba  Ba1  1  0.99998417  0.57825038  0.17011637  1
  Mg  Mg0  1  0.00002061  0.96187871  0.40765399  1
  Nb  Nb0  1  0.49996617  0.16108262  0.08397657  1
  Nb  Nb1  1  0.50003254  0.29105597  0.43687508  1
  Nb  Nb2  1  0.50000203  0.82667375  0.59248584  1
  Nb  Nb3  1  0.49996971  0.75110176  0.92158598  1
  O  O0  1  0.00001831  0.26977204  0.42845156  1
  O  O1  1  0.50002342  0.95275096  0.39713223  1
  O  O2  1  0.50001661  0.85622031  0.11100373  1
  O  O3  1  0.99999236  0.17647092  0.08485047  1
  O  O4  1  0.50001918  0.14560693  0.61237580  1
  O  O5  1  0.00001950  0.84172439  0.58349028  1
  O  O6  1  0.99996128  0.73518399  0.92448456  1
  O  O7  1  0.49997685  0.31760706  0.24712295  1
  O  O8  1  0.49996227  0.45767355  0.99778475  1
  O  O9  1  0.50001948  0.06315077  0.89545811  1
  O  O10  1  0.49999735  0.65471474  0.74565801  1
  O  O11  1  0.50000796  0.57054886  0.48721999  1
loop_
_geom_bond_atom_site_label_1
_geom_bond_atom_site_label_2
_geom_bond_distance
_geom_bond_site_symmetry_2
Ba0 O9 2.765997 1_455
Ba0 O9 2.766124 1_555
Ba0 O4 2.927944 1_555
Ba0 O4 2.928005 1_455
Ba0 O10 3.093563 1_555
Ba0 O10 3.093651 1_455
Ba0 O6 3.231974 1_455
Ba0 O8 3.254354 1_555
Ba0 O8 3.254473 1_455
Ba0 O3 3.293368 1_456
Ba1 O7 2.743649 1_555
Ba1 O7 2.743654 1_655
Ba1 O3 2.755583 1_555
Ba1 O2 2.764485 1_555
Ba1 O2 2.764642 1_655
Ba1 O6 2.799635 1_554
Ba1 O8 2.869626 1_654
Ba1 O8 2.869866 1_554
Mg0 O0 1.991100 1_565
Mg0 O5 2.021369 1_555
Mg0 O1 2.036181 1_455
Mg0 O1 2.036194 1_555
Nb0 O2 1.966693 1_545
Nb0 O3 2.034432 1_455
Nb0 O3 2.034645 1_555
Nb0 O7 2.043651 1_555
Nb0 O8 2.091141 1_554
Nb0 O9 2.137549 1_554
Nb1 O11 1.884524 1_555
Nb1 O0 2.038799 1_655
Nb1 O0 2.038922 1_555
Nb1 O7 2.042160 1_555
Nb1 O4 2.081243 1_555
Nb1 O1 2.220333 1_545
Nb2 O10 1.955989 1_555
Nb2 O11 2.018289 1_555
Nb2 O5 2.036506 1_555
Nb2 O5 2.036640 1_655
Nb2 O4 2.060095 1_565
Nb2 O1 2.229298 1_555
Nb3 O10 2.005236 1_555
Nb3 O9 2.011128 1_565
Nb3 O8 2.029969 1_555
Nb3 O6 2.034835 1_555
Nb3 O6 2.034901 1_455
Nb3 O2 2.161874 1_556
