# generated using pymatgen
data_ErMn12
_symmetry_space_group_name_H-M   'P 1'
_cell_length_a   4.89627168
_cell_length_b   6.44814266
_cell_length_c   6.44814991
_cell_angle_alpha   81.70351808
_cell_angle_beta   67.67793245
_cell_angle_gamma   67.67785433
_symmetry_Int_Tables_number   1
_chemical_formula_structural   ErMn12
_chemical_formula_sum   'Er1 Mn12'
_cell_volume   174.21202134
_cell_formula_units_Z   1
loop_
 _symmetry_equiv_pos_site_id
 _symmetry_equiv_pos_as_xyz
  1  'x, y, z'
loop_
 _atom_site_type_symbol
 _atom_site_label
 _atom_site_symmetry_multiplicity
 _atom_site_fract_x
 _atom_site_fract_y
 _atom_site_fract_z
 _atom_site_occupancy
  Er  Er0  1  -0.00000000  0.00000000  0.00000000  1
  Mn  Mn0  1  0.73028914  0.76975345  0.76975502  1
  Mn  Mn1  1  0.50000000  0.00000000  0.50000000  1
  Mn  Mn2  1  -0.00000000  0.50000000  0.00000000  1
  Mn  Mn3  1  0.50000000  0.50000000  0.00000000  1
  Mn  Mn4  1  -0.00000000  0.00000000  0.50000000  1
  Mn  Mn5  1  0.37165468  0.62862827  0.62862800  1
  Mn  Mn6  1  0.99999874  0.37135983  0.62863907  1
  Mn  Mn7  1  0.00000126  0.62864017  0.37136093  1
  Mn  Mn8  1  0.62834532  0.37137173  0.37137200  1
  Mn  Mn9  1  0.26971086  0.23024655  0.23024498  1
  Mn  Mn10  1  0.50000192  0.76976175  0.23023823  1
  Mn  Mn11  1  0.49999808  0.23023825  0.76976177  1
loop_
_geom_bond_atom_site_label_1
_geom_bond_atom_site_label_2
_geom_bond_distance
_geom_bond_site_symmetry_2
Er0 Mn9 3.124883 1_455
Er0 Mn0 3.124883 1_544
Er0 Mn10 3.124962 1_445
Er0 Mn11 3.124962 1_554
Er0 Mn11 3.124975 1_454
Er0 Mn10 3.124975 1_545
Er0 Mn9 3.125239 1_555
Er0 Mn0 3.125239 1_444
Er0 Mn7 3.132617 1_545
Er0 Mn6 3.132617 1_454
Er0 Mn5 3.132852 1_544
Er0 Mn8 3.132852 1_455
Er0 Mn3 3.223708 1_455
Er0 Mn3 3.223708 1_545
Er0 Mn1 3.223714 1_455
Er0 Mn1 3.223714 1_554
Er0 Mn2 3.224071 1_545
Er0 Mn2 3.224071 1_555
Er0 Mn4 3.224075 1_555
Er0 Mn4 3.224075 1_554
Mn0 Mn2 2.443940 1_656
Mn0 Mn4 2.443953 1_665
Mn0 Mn3 2.444192 1_556
Mn0 Mn1 2.444202 1_565
Mn0 Mn6 2.521103 1_555
Mn0 Mn7 2.521104 1_655
Mn0 Mn5 2.721451 1_555
Mn0 Mn5 2.723075 1_655
Mn0 Mn10 2.746758 1_556
Mn0 Mn11 2.746763 1_565
Mn1 Mn9 2.444202 1_555
Mn1 Mn11 2.444390 1_555
Mn1 Mn10 2.444390 1_545
Mn1 Mn4 2.448136 1_555
Mn1 Mn4 2.448136 1_655
Mn1 Mn8 2.644091 1_555
Mn1 Mn5 2.644091 1_545
Mn1 Mn7 2.644422 1_645
Mn1 Mn6 2.644422 1_455
Mn2 Mn9 2.443940 1_555
Mn2 Mn3 2.448136 1_555
Mn2 Mn3 2.448136 1_455
Mn2 Mn7 2.644874 1_555
Mn2 Mn6 2.644874 1_454
Mn2 Mn5 2.645162 1_554
Mn2 Mn8 2.645162 1_455
Mn3 Mn9 2.444192 1_555
Mn3 Mn8 2.644094 1_555
Mn3 Mn5 2.644094 1_554
Mn3 Mn6 2.644425 1_554
Mn3 Mn7 2.644425 1_555
Mn4 Mn9 2.443953 1_555
Mn4 Mn7 2.644857 1_545
Mn4 Mn6 2.644857 1_455
Mn4 Mn8 2.645157 1_455
Mn4 Mn5 2.645157 1_545
Mn5 Mn8 2.170188 1_555
Mn6 Mn7 2.170284 1_655
Mn6 Mn9 2.521104 1_655
Mn7 Mn9 2.521103 1_555
Mn8 Mn9 2.721451 1_555
Mn8 Mn9 2.723075 1_655
Mn10 Mn2 2.443911 1_655
Mn10 Mn4 2.443921 1_565
Mn10 Mn3 2.444399 1_555
Mn10 Mn8 2.521050 1_555
Mn10 Mn5 2.521051 1_555
Mn10 Mn7 2.722225 1_655
Mn10 Mn7 2.722227 1_555
Mn10 Mn9 2.746763 1_565
Mn11 Mn2 2.443911 1_556
Mn11 Mn4 2.443921 1_655
Mn11 Mn3 2.444399 1_556
Mn11 Mn5 2.521050 1_555
Mn11 Mn8 2.521051 1_555
Mn11 Mn6 2.722225 1_455
Mn11 Mn6 2.722227 1_555
Mn11 Mn9 2.746758 1_556
