# generated using pymatgen
data_K2In2As3
_symmetry_space_group_name_H-M   'P 1'
_cell_length_a   7.18673701
_cell_length_b   14.48556808
_cell_length_c   15.93046082
_cell_angle_alpha   89.79475902
_cell_angle_beta   90.00000000
_cell_angle_gamma   90.00000000
_symmetry_Int_Tables_number   1
_chemical_formula_structural   K2In2As3
_chemical_formula_sum   'K16 In16 As24'
_cell_volume   1658.41354596
_cell_formula_units_Z   8
loop_
 _symmetry_equiv_pos_site_id
 _symmetry_equiv_pos_as_xyz
  1  'x, y, z'
loop_
 _atom_site_type_symbol
 _atom_site_label
 _atom_site_symmetry_multiplicity
 _atom_site_fract_x
 _atom_site_fract_y
 _atom_site_fract_z
 _atom_site_occupancy
  K  K0  1  0.95862731  0.85661338  0.99281403  1
  K  K1  1  0.45862731  0.14338662  0.50718597  1
  K  K2  1  0.04137269  0.14338662  0.00718597  1
  K  K3  1  0.54137269  0.85661338  0.49281403  1
  K  K4  1  0.56609978  0.34392868  0.02216544  1
  K  K5  1  0.06609978  0.65607132  0.47783456  1
  K  K6  1  0.43390022  0.65607132  0.97783456  1
  K  K7  1  0.93390022  0.34392868  0.52216544  1
  K  K8  1  0.54622136  0.08322106  0.10748007  1
  K  K9  1  0.04622136  0.91677894  0.39251993  1
  K  K10  1  0.45377864  0.91677894  0.89251993  1
  K  K11  1  0.95377864  0.08322106  0.60748007  1
  K  K12  1  0.91742839  0.56272530  0.90777032  1
  K  K13  1  0.41742839  0.43727470  0.59222968  1
  K  K14  1  0.08257161  0.43727470  0.09222968  1
  K  K15  1  0.58257161  0.56272530  0.40777032  1
  In  In0  1  0.74920961  0.41021107  0.25806351  1
  In  In1  1  0.24920961  0.58978893  0.24193649  1
  In  In2  1  0.25079039  0.58978893  0.74193649  1
  In  In3  1  0.74652240  0.18440695  0.32389927  1
  In  In4  1  0.24652240  0.81559305  0.17610073  1
  In  In5  1  0.25347760  0.81559305  0.67610073  1
  In  In6  1  0.75347760  0.18440695  0.82389927  1
  In  In7  1  0.71502222  0.90852333  0.22997806  1
  In  In8  1  0.21502222  0.09147667  0.27002194  1
  In  In9  1  0.28497778  0.09147667  0.77002194  1
  In  In10  1  0.78497778  0.90852333  0.72997806  1
  In  In11  1  0.22993113  0.31760210  0.33204526  1
  In  In12  1  0.72993113  0.68239790  0.16795474  1
  In  In13  1  0.77006887  0.68239790  0.66795474  1
  In  In14  1  0.27006887  0.31760210  0.83204526  1
  In  In15  1  0.75079039  0.41021107  0.75806351  1
  As  As0  1  0.79781958  0.75248706  0.82254319  1
  As  As1  1  0.70218042  0.75248706  0.32254319  1
  As  As2  1  0.20218042  0.24751294  0.17745681  1
  As  As3  1  0.04551403  0.47794805  0.34176899  1
  As  As4  1  0.54551403  0.52205195  0.15823101  1
  As  As5  1  0.95448597  0.52205195  0.65823101  1
  As  As6  1  0.45448597  0.47794805  0.84176899  1
  As  As7  1  0.64432514  0.25362584  0.67246153  1
  As  As8  1  0.14432514  0.74637416  0.82753847  1
  As  As9  1  0.35567486  0.74637416  0.32753847  1
  As  As10  1  0.85567486  0.25362584  0.17246153  1
  As  As11  1  0.57034932  0.33407298  0.39113732  1
  As  As12  1  0.29781958  0.24751294  0.67745681  1
  As  As13  1  0.07034932  0.66592702  0.10886268  1
  As  As14  1  0.42965068  0.66592702  0.60886268  1
  As  As15  1  0.92965068  0.33407298  0.89113732  1
  As  As16  1  0.95734907  0.03030114  0.82829804  1
  As  As17  1  0.45734907  0.96969886  0.67170196  1
  As  As18  1  0.04265093  0.96969886  0.17170196  1
  As  As19  1  0.54265093  0.03030114  0.32829804  1
  As  As20  1  0.44028192  0.16349354  0.90859996  1
  As  As21  1  0.94028192  0.83650646  0.59140004  1
  As  As22  1  0.55971808  0.83650646  0.09140004  1
  As  As23  1  0.05971808  0.16349354  0.40859996  1
loop_
_geom_bond_atom_site_label_1
_geom_bond_atom_site_label_2
_geom_bond_distance
_geom_bond_site_symmetry_2
In0 K15 3.469943 1_555
In0 K14 3.586811 1_655
In1 K14 3.469943 1_555
In1 K15 3.586811 1_555
In2 K13 3.469943 1_555
In2 K12 3.586811 1_455
In7 K8 3.412971 1_565
In7 K9 3.519501 1_655
In8 K9 3.412971 1_545
In8 K8 3.519501 1_555
In9 K10 3.412971 1_545
In9 K11 3.519501 1_455
In10 K11 3.412971 1_565
In10 K10 3.519501 1_555
In15 K12 3.469943 1_555
In15 K13 3.586811 1_555
As0 As8 2.493078 1_655
As0 In13 2.674547 1_555
As0 In10 2.695911 1_555
As0 K12 3.179855 1_555
As0 K0 3.316261 1_555
As0 K10 3.610935 1_555
As0 K6 3.858253 1_555
As1 As9 2.493078 1_555
As1 In12 2.674547 1_555
As1 In7 2.695911 1_555
As1 K15 3.179855 1_555
As1 K3 3.316261 1_555
As1 K9 3.610935 1_655
As1 K5 3.858253 1_655
As2 In11 2.674547 1_555
As2 In8 2.695911 1_555
As2 K14 3.179855 1_555
As2 K2 3.316261 1_555
As2 K8 3.610935 1_555
As2 K4 3.858253 1_555
As3 In11 2.679196 1_555
As3 In1 2.697873 1_555
As3 In0 2.699053 1_455
As3 K5 3.379040 1_555
As3 K7 3.554012 1_455
As3 K15 3.700282 1_455
As4 In12 2.679196 1_555
As4 In0 2.697873 1_555
As4 In1 2.699053 1_555
As4 K4 3.379040 1_555
As4 K6 3.554012 1_554
As4 K14 3.700282 1_555
As5 In13 2.679196 1_555
As5 In15 2.697873 1_555
As5 In2 2.699053 1_655
As5 K7 3.379040 1_555
As5 K5 3.554012 1_655
As5 K13 3.700282 1_655
As6 In14 2.679196 1_555
As6 In2 2.697873 1_555
As6 In15 2.699053 1_555
As6 K6 3.379040 1_555
As6 K4 3.554012 1_556
As6 K12 3.700282 1_555
As7 In6 2.724594 1_555
As7 In15 2.758997 1_555
As7 K1 3.360571 1_555
As7 K13 3.368270 1_555
As7 K7 3.428154 1_555
As7 K11 3.482666 1_555
As8 In5 2.724594 1_555
As8 In2 2.758997 1_555
As8 K0 3.360571 1_455
As8 K12 3.368270 1_455
As8 K6 3.428154 1_555
As8 K10 3.482666 1_555
As9 In4 2.724594 1_555
As9 In1 2.758997 1_555
As9 K3 3.360571 1_555
As9 K15 3.368270 1_555
As9 K5 3.428154 1_555
As9 K9 3.482666 1_555
As10 As2 2.493078 1_655
As10 In3 2.724594 1_555
As10 In0 2.758997 1_555
As10 K2 3.360571 1_655
As10 K14 3.368270 1_655
As10 K4 3.428154 1_555
As10 K8 3.482666 1_555
As11 In11 2.632497 1_555
As11 In0 2.710359 1_555
As11 In3 2.732620 1_555
As11 K15 3.324847 1_555
As11 K7 3.347526 1_555
As11 K1 3.414025 1_555
As11 K13 3.706659 1_555
As12 As7 2.493078 1_555
As12 In14 2.674547 1_555
As12 In9 2.695911 1_555
As12 K13 3.179855 1_555
As12 K1 3.316261 1_555
As12 K11 3.610935 1_455
As12 K7 3.858253 1_455
As13 In12 2.632497 1_455
As13 In1 2.710359 1_555
As13 In4 2.732620 1_555
As13 K14 3.324847 1_555
As13 K6 3.347526 1_554
As13 K0 3.414025 1_454
As13 K12 3.706659 1_454
As14 In13 2.632497 1_555
As14 In2 2.710359 1_555
As14 In5 2.732620 1_555
As14 K13 3.324847 1_555
As14 K5 3.347526 1_555
As14 K3 3.414025 1_555
As14 K15 3.706659 1_555
As15 In14 2.632497 1_655
As15 In15 2.710359 1_555
As15 In6 2.732620 1_555
As15 K12 3.324847 1_555
As15 K4 3.347526 1_556
As15 K2 3.414025 1_656
As15 K14 3.706659 1_656
As16 In10 2.668220 1_545
As16 In6 2.670903 1_555
As16 In9 2.680542 1_655
As16 K2 3.347037 1_656
As16 K11 3.597696 1_555
As16 K0 3.626514 1_545
As17 In9 2.668220 1_565
As17 In5 2.670903 1_555
As17 In10 2.680542 1_555
As17 K3 3.347037 1_555
As17 K10 3.597696 1_555
As17 K1 3.626514 1_565
As18 In8 2.668220 1_565
As18 In4 2.670903 1_555
As18 In7 2.680542 1_455
As18 K0 3.347037 1_454
As18 K9 3.597696 1_555
As18 K2 3.626514 1_565
As19 In7 2.668220 1_545
As19 In3 2.670903 1_555
As19 In8 2.680542 1_555
As19 K1 3.347037 1_555
As19 K8 3.597696 1_555
As19 K3 3.626514 1_545
As20 In6 2.641186 1_555
As20 In9 2.687763 1_555
As20 In14 2.819148 1_555
As20 K2 3.281303 1_556
As20 K4 3.309981 1_556
As20 K8 3.455891 1_556
As20 K10 3.585197 1_545
As21 In5 2.641186 1_655
As21 In10 2.687763 1_555
As21 In13 2.819148 1_555
As21 K3 3.281303 1_555
As21 K5 3.309981 1_655
As21 K9 3.455891 1_655
As21 K11 3.585197 1_565
As22 In4 2.641186 1_555
As22 In7 2.687763 1_555
As22 In12 2.819148 1_555
As22 K0 3.281303 1_554
As22 K6 3.309981 1_554
As22 K10 3.455891 1_554
As22 K8 3.585197 1_565
As23 In3 2.641186 1_455
As23 In8 2.687763 1_555
As23 In11 2.819148 1_555
As23 K1 3.281303 1_555
As23 K7 3.309981 1_455
As23 K11 3.455891 1_455
As23 K9 3.585197 1_545
