# generated using pymatgen
data_YNbP2SO12
_symmetry_space_group_name_H-M   'P 1'
_cell_length_a   9.08750496
_cell_length_b   9.10296203
_cell_length_c   23.05460755
_cell_angle_alpha   90.84253886
_cell_angle_beta   90.00000000
_cell_angle_gamma   119.94384561
_symmetry_Int_Tables_number   1
_chemical_formula_structural   YNbP2SO12
_chemical_formula_sum   'Y6 Nb6 P12 S6 O72'
_cell_volume   1652.33721013
_cell_formula_units_Z   6
loop_
 _symmetry_equiv_pos_site_id
 _symmetry_equiv_pos_as_xyz
  1  'x, y, z'
loop_
 _atom_site_type_symbol
 _atom_site_label
 _atom_site_symmetry_multiplicity
 _atom_site_fract_x
 _atom_site_fract_y
 _atom_site_fract_z
 _atom_site_occupancy
  Y  Y0  1  0.99842327  0.00234333  0.36157558  1
  Y  Y1  1  0.00392006  0.00234333  0.86157558  1
  Y  Y2  1  0.66509027  0.33567633  0.69490858  1
  Y  Y3  1  0.67058706  0.33567633  0.19490858  1
  Y  Y4  1  0.33175627  0.66901033  0.02824258  1
  Y  Y5  1  0.33725306  0.66901033  0.52824258  1
  Nb  Nb0  1  0.99232371  0.00779091  0.64337240  1
  Nb  Nb1  1  0.01546720  0.00779091  0.14337240  1
  Nb  Nb2  1  0.65899071  0.34112391  0.97670540  1
  Nb  Nb3  1  0.68213420  0.34112391  0.47670540  1
  Nb  Nb4  1  0.32565671  0.67445791  0.31003940  1
  Nb  Nb5  1  0.34880020  0.67445791  0.81003940  1
  P  P0  1  0.27536608  0.98512642  0.24993225  1
  P  P1  1  0.02195084  0.29270020  0.25100600  1
  P  P2  1  0.27074936  0.29270020  0.75100600  1
  P  P3  1  0.70976035  0.98512642  0.74993225  1
  P  P4  1  0.94203308  0.31845942  0.58326525  1
  P  P5  1  0.68861784  0.62603320  0.58433900  1
  P  P6  1  0.93741636  0.62603320  0.08433900  1
  P  P7  1  0.37642735  0.31845942  0.08326525  1
  P  P8  1  0.60869908  0.65179342  0.91659925  1
  P  P9  1  0.35528384  0.95936720  0.91767300  1
  P  P10  1  0.60408236  0.95936720  0.41767300  1
  P  P11  1  0.04309335  0.65179342  0.41659925  1
  S  S0  1  0.70068134  0.72620942  0.24982388  1
  S  S1  1  0.02552808  0.72620942  0.74982388  1
  S  S2  1  0.36734834  0.05954242  0.58315688  1
  S  S3  1  0.69219508  0.05954242  0.08315688  1
  S  S4  1  0.03401434  0.39287642  0.91649088  1
  S  S5  1  0.35886108  0.39287642  0.41649088  1
  O  O0  1  0.19599201  0.01221451  0.30295356  1
  O  O1  1  0.80338144  0.79835040  0.30216870  1
  O  O2  1  0.99181475  0.18615789  0.30363500  1
  O  O3  1  0.19434314  0.18615789  0.80363500  1
  O  O4  1  0.99496896  0.79835040  0.80216870  1
  O  O5  1  0.81622250  0.01221451  0.80295356  1
  O  O6  1  0.79830023  0.95456746  0.69477239  1
  O  O7  1  0.15018028  0.19861959  0.69608402  1
  O  O8  1  0.05203701  0.83283614  0.69821259  1
  O  O9  1  0.78079914  0.83283614  0.19821259  1
  O  O10  1  0.04843931  0.19861959  0.19608402  1
  O  O11  1  0.15626723  0.95456746  0.19477239  1
  O  O12  1  0.86265901  0.34554751  0.63628656  1
  O  O13  1  0.47004844  0.13168340  0.63550170  1
  O  O14  1  0.65848175  0.51949089  0.63696800  1
  O  O15  1  0.86101014  0.51949089  0.13696800  1
  O  O16  1  0.66163596  0.13168340  0.13550170  1
  O  O17  1  0.48288950  0.34554751  0.13628656  1
  O  O18  1  0.46496723  0.28790046  0.02810539  1
  O  O19  1  0.81684728  0.53195259  0.02941702  1
  O  O20  1  0.71870401  0.16616914  0.03154559  1
  O  O21  1  0.44746614  0.16616914  0.53154559  1
  O  O22  1  0.71510631  0.53195259  0.52941702  1
  O  O23  1  0.82293423  0.28790046  0.52810539  1
  O  O24  1  0.52932501  0.67888151  0.96962056  1
  O  O25  1  0.13671444  0.46501740  0.96883570  1
  O  O26  1  0.32514775  0.85282489  0.97030200  1
  O  O27  1  0.52767614  0.85282489  0.47030200  1
  O  O28  1  0.32830196  0.46501740  0.46883570  1
  O  O29  1  0.14955550  0.67888151  0.46962056  1
  O  O30  1  0.13163323  0.62123446  0.36143939  1
  O  O31  1  0.48351328  0.86528659  0.36275102  1
  O  O32  1  0.38537001  0.49950314  0.36487959  1
  O  O33  1  0.11413214  0.49950314  0.86487959  1
  O  O34  1  0.38177231  0.86528659  0.86275102  1
  O  O35  1  0.48960023  0.62123446  0.86143939  1
  O  O36  1  0.00145230  0.78876725  0.40474716  1
  O  O37  1  0.78263344  0.99889586  0.40489084  1
  O  O38  1  0.21927859  0.21858166  0.40801202  1
  O  O39  1  0.99930307  0.21858166  0.90801202  1
  O  O40  1  0.21626242  0.99889586  0.90489084  1
  O  O41  1  0.78731495  0.78876725  0.90474716  1
  O  O42  1  0.94582662  0.14520553  0.59174392  1
  O  O43  1  0.19746431  0.05038389  0.59220505  1
  O  O44  1  0.85939394  0.80124953  0.59486463  1
  O  O45  1  0.94185559  0.80124953  0.09486463  1
  O  O46  1  0.85291958  0.05038389  0.09220505  1
  O  O47  1  0.19937890  0.14520553  0.09174392  1
  O  O48  1  0.66811930  0.12210025  0.73808016  1
  O  O49  1  0.44930044  0.33222886  0.73822384  1
  O  O50  1  0.88594559  0.55191466  0.74134502  1
  O  O51  1  0.66597007  0.55191466  0.24134502  1
  O  O52  1  0.88292942  0.33222886  0.23822384  1
  O  O53  1  0.45398195  0.12210025  0.23808016  1
  O  O54  1  0.61249362  0.47853853  0.92507692  1
  O  O55  1  0.86413131  0.38371689  0.92553805  1
  O  O56  1  0.52606094  0.13458253  0.92819763  1
  O  O57  1  0.60852259  0.13458253  0.42819763  1
  O  O58  1  0.51958658  0.38371689  0.42553805  1
  O  O59  1  0.86604590  0.47853853  0.42507692  1
  O  O60  1  0.33478530  0.45543425  0.07141416  1
  O  O61  1  0.11596644  0.66556286  0.07155784  1
  O  O62  1  0.55261159  0.88524866  0.07467902  1
  O  O63  1  0.33263607  0.88524866  0.57467902  1
  O  O64  1  0.54959542  0.66556286  0.57155784  1
  O  O65  1  0.12064795  0.45543425  0.57141416  1
  O  O66  1  0.27915962  0.81187253  0.25841092  1
  O  O67  1  0.53079731  0.71705089  0.25887205  1
  O  O68  1  0.19272694  0.46791653  0.26153163  1
  O  O69  1  0.27518859  0.46791653  0.76153163  1
  O  O70  1  0.18625258  0.71705089  0.75887205  1
  O  O71  1  0.53271190  0.81187253  0.75841092  1
loop_
_geom_bond_atom_site_label_1
_geom_bond_atom_site_label_2
_geom_bond_distance
_geom_bond_site_symmetry_2
Nb0 O42 1.931692 1_555
Nb0 O6 1.977851 1_545
Nb0 O44 1.978801 1_545
Nb0 O7 2.000611 1_655
Nb0 O43 2.075830 1_655
Nb0 O8 2.313295 1_645
Nb1 O47 1.931692 1_555
Nb1 O11 1.977851 1_545
Nb1 O45 1.978801 1_445
Nb1 O10 2.000611 1_555
Nb1 O46 2.075830 1_455
Nb1 O9 2.313294 1_445
Nb2 O54 1.931692 1_555
Nb2 O18 1.977851 1_556
Nb2 O56 1.978801 1_555
Nb2 O19 2.000611 1_556
Nb2 O55 2.075830 1_555
Nb2 O20 2.313295 1_556
Nb3 O59 1.931692 1_555
Nb3 O23 1.977851 1_555
Nb3 O57 1.978801 1_555
Nb3 O22 2.000611 1_555
Nb3 O58 2.075830 1_555
Nb3 O21 2.313294 1_555
Nb4 O66 1.931692 1_555
Nb4 O30 1.977851 1_555
Nb4 O68 1.978801 1_555
Nb4 O31 2.000611 1_555
Nb4 O67 2.075830 1_555
Nb4 O32 2.313295 1_555
Nb5 O71 1.931692 1_555
Nb5 O35 1.977851 1_555
Nb5 O69 1.978801 1_555
Nb5 O34 2.000611 1_555
Nb5 O70 2.075830 1_555
Nb5 O33 2.313294 1_555
O0 P0 1.498004 1_545
O0 Y0 2.213741 1_455
O1 S0 1.457211 1_555
O1 Y0 2.259439 1_565
O2 P1 1.502418 1_655
O2 Y0 2.180321 1_555
O3 P2 1.502418 1_555
O3 Y1 2.180321 1_555
O4 S1 1.457211 1_655
O4 Y1 2.259439 1_665
O5 P3 1.498004 1_545
O5 Y1 2.213741 1_655
O6 P3 1.598439 1_555
O7 P2 1.602676 1_555
O8 S1 1.488786 1_555
O9 S0 1.488786 1_555
O10 P1 1.602676 1_555
O11 P0 1.598439 1_555
O12 P4 1.498004 1_555
O12 Y2 2.213741 1_555
O13 S2 1.457211 1_555
O13 Y2 2.259439 1_555
O14 P5 1.502418 1_555
O14 Y2 2.180321 1_555
O15 P6 1.502418 1_555
O15 Y3 2.180321 1_555
O16 S3 1.457211 1_555
O16 Y3 2.259439 1_555
O17 P7 1.498004 1_555
O17 Y3 2.213741 1_555
O18 P7 1.598439 1_555
O19 P6 1.602676 1_555
O20 S3 1.488786 1_555
O21 S2 1.488786 1_555
O22 P5 1.602676 1_555
O23 P4 1.598439 1_555
O24 P8 1.498004 1_555
O24 Y4 2.213741 1_556
O25 S4 1.457211 1_555
O25 Y4 2.259439 1_556
O26 P9 1.502418 1_555
O26 Y4 2.180321 1_556
O27 P10 1.502418 1_555
O27 Y5 2.180321 1_555
O28 S5 1.457211 1_555
O28 Y5 2.259439 1_555
O29 P11 1.498004 1_555
O29 Y5 2.213741 1_555
O30 P11 1.598439 1_555
O31 P10 1.602676 1_555
O32 S5 1.488786 1_555
O33 S4 1.488786 1_555
O34 P9 1.602676 1_555
O35 P8 1.598439 1_555
O36 P11 1.501196 1_555
O36 Y0 2.209420 1_465
O37 P10 1.506438 1_555
O37 Y0 2.187051 1_565
O38 S5 1.465010 1_555
O38 Y0 2.245662 1_455
O39 S4 1.465013 1_655
O39 Y1 2.245662 1_655
O40 P9 1.506429 1_555
O40 Y1 2.187051 1_565
O41 P8 1.501202 1_555
O41 Y1 2.209420 1_665
O42 P4 1.609366 1_555
O43 S2 1.518510 1_555
O44 P5 1.590241 1_555
O45 P6 1.590246 1_555
O46 S3 1.518501 1_555
O47 P7 1.609371 1_555
O48 P3 1.501196 1_545
O48 Y2 2.209420 1_555
O49 P2 1.506438 1_555
O49 Y2 2.187051 1_555
O50 S1 1.465010 1_655
O50 Y2 2.245662 1_555
O51 S0 1.465013 1_555
O51 Y3 2.245662 1_555
O52 P1 1.506429 1_655
O52 Y3 2.187051 1_555
O53 P0 1.501202 1_545
O53 Y3 2.209420 1_555
O54 P8 1.609377 1_555
O55 S4 1.518494 1_655
O56 P9 1.590238 1_545
O57 P10 1.590229 1_545
O58 S5 1.518512 1_555
O59 P11 1.609368 1_655
O60 P7 1.501206 1_555
O60 Y4 2.209420 1_555
O61 P6 1.506422 1_455
O61 Y4 2.187051 1_555
O62 S3 1.465004 1_565
O62 Y4 2.245662 1_555
O63 S2 1.464998 1_565
O63 Y5 2.245662 1_555
O64 P5 1.506439 1_555
O64 Y5 2.187051 1_555
O65 P4 1.501194 1_455
O65 Y5 2.209420 1_555
O66 P0 1.609366 1_555
O67 S0 1.518510 1_555
O68 P1 1.590241 1_555
O69 P2 1.590246 1_555
O70 S1 1.518501 1_555
O71 P3 1.609371 1_555
