# generated using pymatgen
data_Sr7(H6Br)2
_symmetry_space_group_name_H-M   'P 1'
_cell_length_a   10.04706419
_cell_length_b   10.04706172
_cell_length_c   4.01576910
_cell_angle_alpha   89.99998845
_cell_angle_beta   89.99998442
_cell_angle_gamma   120.00000297
_symmetry_Int_Tables_number   1
_chemical_formula_structural   Sr7(H6Br)2
_chemical_formula_sum   'Sr7 H12 Br2'
_cell_volume   351.05696926
_cell_formula_units_Z   1
loop_
 _symmetry_equiv_pos_site_id
 _symmetry_equiv_pos_as_xyz
  1  'x, y, z'
loop_
 _atom_site_type_symbol
 _atom_site_label
 _atom_site_symmetry_multiplicity
 _atom_site_fract_x
 _atom_site_fract_y
 _atom_site_fract_z
 _atom_site_occupancy
  Sr  Sr0  1  0.27426738  0.22343090  0.49999994  1
  Sr  Sr1  1  0.56661342  0.64136036  0.00000017  1
  Sr  Sr2  1  0.35863862  0.92525265  0.00000006  1
  Sr  Sr3  1  0.07474745  0.43338613  0.00000002  1
  Sr  Sr4  1  0.66666687  0.33333328  0.00000007  1
  Sr  Sr5  1  0.94916366  0.72573357  0.50000027  1
  Sr  Sr6  1  0.77656962  0.05083666  0.49999983  1
  H  H0  1  0.56126023  0.12050367  0.49999999  1
  H  H1  1  0.87949630  0.44075740  0.50000007  1
  H  H2  1  0.55924247  0.43873975  0.49999995  1
  H  H3  1  0.71712305  0.77359428  0.49999992  1
  H  H4  1  0.22640571  0.94352895  0.50000007  1
  H  H5  1  0.05647089  0.28287673  0.50000012  1
  H  H6  1  0.82044556  0.21218266  0.00000002  1
  H  H7  1  0.78781718  0.60826288  0.00000001  1
  H  H8  1  0.39173711  0.17955436  -0.00000019  1
  H  H9  1  0.30541786  0.39504150  0.00000001  1
  H  H10  1  0.08962350  0.69458222  -0.00000004  1
  H  H11  1  0.60495863  0.91037661  0.00000002  1
  Br  Br0  1  0.00000008  0.00000028  0.00000035  1
  Br  Br1  1  0.33333341  0.66666717  0.49999934  1
loop_
_geom_bond_atom_site_label_1
_geom_bond_atom_site_label_2
_geom_bond_distance
_geom_bond_site_symmetry_2
H0 Sr6 2.585272 1_555
H0 Sr4 2.731480 1_555
H0 Sr4 2.731482 1_556
H0 Sr2 2.833834 1_546
H0 Sr2 2.833835 1_545
H1 Sr5 2.585268 1_555
H1 Sr4 2.731479 1_556
H1 Sr4 2.731481 1_555
H1 Sr3 2.833838 1_655
H1 Sr3 2.833838 1_656
H2 Sr0 2.585261 1_555
H2 Sr4 2.731488 1_555
H2 Sr4 2.731489 1_556
H2 Sr1 2.833825 1_555
H2 Sr1 2.833827 1_556
H3 Sr1 2.464618 1_555
H3 Sr1 2.464618 1_556
H3 Sr6 2.540062 1_565
H3 Sr5 2.605255 1_555
H4 Sr2 2.464614 1_555
H4 Sr2 2.464614 1_556
H4 Sr5 2.540059 1_455
H4 Sr0 2.605257 1_565
H5 Sr3 2.464614 1_556
H5 Sr3 2.464614 1_555
H5 Sr0 2.540064 1_555
H5 Sr6 2.605252 1_455
H6 Sr4 2.397772 1_555
H6 Sr3 2.406014 1_655
H6 Sr6 2.477728 1_555
H6 Sr6 2.477730 1_554
H7 Sr4 2.397774 1_555
H7 Sr1 2.406011 1_555
H7 Sr5 2.477731 1_554
H7 Sr5 2.477733 1_555
H8 Sr4 2.397776 1_555
H8 Sr2 2.406011 1_545
H8 Sr0 2.477729 1_554
H8 Sr0 2.477730 1_555
H9 Sr3 2.532261 1_555
H9 Sr1 2.552798 1_555
H9 Sr0 2.561783 1_555
H9 Sr0 2.561784 1_554
H10 Sr2 2.532261 1_555
H10 Sr3 2.552806 1_555
H10 Sr5 2.561785 1_454
H10 Sr5 2.561787 1_455
H11 Sr1 2.532270 1_555
H11 Sr2 2.552807 1_555
H11 Sr6 2.561785 1_565
H11 Sr6 2.561785 1_564
Br0 Sr5 3.237010 1_445
Br0 Sr6 3.237010 1_455
Br0 Sr5 3.237011 1_444
Br0 Sr6 3.237013 1_454
Br0 Sr0 3.237014 1_555
Br0 Sr0 3.237015 1_554
Br1 Sr2 3.191461 1_555
Br1 Sr2 3.191466 1_556
Br1 Sr1 3.191467 1_555
Br1 Sr3 3.191468 1_555
Br1 Sr3 3.191470 1_556
Br1 Sr1 3.191472 1_556
