# generated using pymatgen
data_Ca2SiO4
_symmetry_space_group_name_H-M   'P 1'
_cell_length_a   8.29517619
_cell_length_b   5.77237030
_cell_length_c   9.21125806
_cell_angle_alpha   61.77719936
_cell_angle_beta   90.00000000
_cell_angle_gamma   90.00000000
_symmetry_Int_Tables_number   1
_chemical_formula_structural   Ca2SiO4
_chemical_formula_sum   'Ca8 Si4 O16'
_cell_volume   388.62569024
_cell_formula_units_Z   4
loop_
 _symmetry_equiv_pos_site_id
 _symmetry_equiv_pos_as_xyz
  1  'x, y, z'
loop_
 _atom_site_type_symbol
 _atom_site_label
 _atom_site_symmetry_multiplicity
 _atom_site_fract_x
 _atom_site_fract_y
 _atom_site_fract_z
 _atom_site_occupancy
  Ca  Ca0  1  0.98756866  0.14670755  0.63690214  1
  Ca  Ca1  1  0.48756866  0.85329245  0.86309786  1
  Ca  Ca2  1  0.15813100  0.58217204  0.12747422  1
  Ca  Ca3  1  0.51243134  0.14670755  0.13690214  1
  Ca  Ca4  1  0.65813100  0.41782796  0.37252578  1
  Ca  Ca5  1  0.01243134  0.85329245  0.36309786  1
  Ca  Ca6  1  0.34186900  0.58217204  0.62747422  1
  Ca  Ca7  1  0.84186900  0.41782796  0.87252578  1
  Si  Si0  1  0.69451160  0.75856270  0.53662824  1
  Si  Si1  1  0.19451160  0.24143730  0.96337176  1
  Si  Si2  1  0.80548840  0.75856270  0.03662824  1
  Si  Si3  1  0.30548840  0.24143730  0.46337176  1
  O  O0  1  0.17924160  0.48372625  0.43479113  1
  O  O1  1  0.80688296  0.02550360  0.47653952  1
  O  O2  1  0.56287140  0.78788054  0.39505814  1
  O  O3  1  0.60292084  0.67131373  0.71174710  1
  O  O4  1  0.10292084  0.32868627  0.78825290  1
  O  O5  1  0.06287140  0.21211946  0.10494186  1
  O  O6  1  0.32075840  0.48372625  0.93479113  1
  O  O7  1  0.30688296  0.97449640  0.02346048  1
  O  O8  1  0.69311704  0.02550360  0.97653952  1
  O  O9  1  0.67924160  0.51627375  0.06520887  1
  O  O10  1  0.93712860  0.78788054  0.89505814  1
  O  O11  1  0.89707916  0.67131373  0.21174710  1
  O  O12  1  0.39707916  0.32868627  0.28825290  1
  O  O13  1  0.43712860  0.21211946  0.60494186  1
  O  O14  1  0.19311704  0.97449640  0.52346048  1
  O  O15  1  0.82075840  0.51627375  0.56520887  1
loop_
_geom_bond_atom_site_label_1
_geom_bond_atom_site_label_2
_geom_bond_distance
_geom_bond_site_symmetry_2
Ca0 O4 2.312516 1_655
Ca0 O10 2.336972 1_545
Ca0 O15 2.359918 1_555
Ca0 O1 2.428033 1_555
Ca0 O14 2.443306 1_645
Ca0 O0 2.520517 1_655
Ca1 O3 2.312516 1_555
Ca1 O13 2.336972 1_565
Ca1 O6 2.359918 1_555
Ca1 O7 2.428033 1_556
Ca1 O8 2.443306 1_565
Ca1 O9 2.520517 1_556
Ca2 O7 2.348822 1_555
Ca2 O5 2.376898 1_555
Ca2 O11 2.436062 1_455
Ca2 O12 2.492695 1_555
Ca2 O6 2.499364 1_554
Ca2 O0 2.616378 1_555
Ca2 O10 2.636227 1_454
Ca3 O12 2.312516 1_555
Ca3 O2 2.336972 1_545
Ca3 O9 2.359918 1_555
Ca3 O8 2.428033 1_554
Ca3 O7 2.443306 1_545
Ca3 O6 2.520517 1_554
Ca4 O1 2.348822 1_555
Ca4 O2 2.376898 1_555
Ca4 O12 2.436062 1_555
Ca4 O11 2.492695 1_555
Ca4 O15 2.499364 1_555
Ca4 O9 2.616378 1_555
Ca4 O13 2.636227 1_555
Ca5 O11 2.312516 1_455
Ca5 O5 2.336972 1_565
Ca5 O0 2.359918 1_555
Ca5 O14 2.428033 1_555
Ca5 O1 2.443306 1_465
Ca5 O15 2.520517 1_455
Ca6 O14 2.348822 1_555
Ca6 O13 2.376898 1_555
Ca6 O3 2.436062 1_555
Ca6 O4 2.492695 1_555
Ca6 O0 2.499364 1_555
Ca6 O6 2.616378 1_555
Ca6 O2 2.636227 1_555
Ca7 O8 2.348822 1_555
Ca7 O10 2.376898 1_555
Ca7 O4 2.436062 1_655
Ca7 O3 2.492695 1_555
Ca7 O9 2.499364 1_556
Ca7 O15 2.616378 1_555
Ca7 O5 2.636227 1_656
O0 Si3 1.665475 1_555
O1 Si0 1.656174 1_545
O2 Si0 1.647073 1_555
O3 Si0 1.632329 1_555
O4 Si1 1.632329 1_555
O5 Si1 1.647073 1_554
O6 Si1 1.665475 1_555
O7 Si1 1.656174 1_564
O8 Si2 1.656174 1_546
O9 Si2 1.665475 1_555
O10 Si2 1.647073 1_556
O11 Si2 1.632329 1_555
O12 Si3 1.632329 1_555
O13 Si3 1.647073 1_555
O14 Si3 1.656174 1_565
O15 Si0 1.665475 1_555
