# generated using pymatgen
data_Rb2Mg(FeS2)2
_symmetry_space_group_name_H-M   'P 1'
_cell_length_a   5.06318834
_cell_length_b   7.15352123
_cell_length_c   6.91666400
_cell_angle_alpha   111.91826949
_cell_angle_beta   111.59013117
_cell_angle_gamma   91.28634888
_symmetry_Int_Tables_number   1
_chemical_formula_structural   Rb2Mg(FeS2)2
_chemical_formula_sum   'Rb2 Mg1 Fe2 S4'
_cell_volume   212.36424053
_cell_formula_units_Z   1
loop_
 _symmetry_equiv_pos_site_id
 _symmetry_equiv_pos_as_xyz
  1  'x, y, z'
loop_
 _atom_site_type_symbol
 _atom_site_label
 _atom_site_symmetry_multiplicity
 _atom_site_fract_x
 _atom_site_fract_y
 _atom_site_fract_z
 _atom_site_occupancy
  Rb  Rb0  1  0.67878575  0.58282439  0.37606324  1
  Rb  Rb1  1  0.34189716  0.41863244  0.74919028  1
  Mg  Mg0  1  0.17543854  0.94970213  0.33538179  1
  Fe  Fe0  1  0.23343334  0.01171149  0.98857366  1
  Fe  Fe1  1  0.73911682  0.01065748  0.99450936  1
  S  S0  1  0.33224028  0.89335418  0.68419950  1
  S  S1  1  0.00796027  0.26297555  0.02497083  1
  S  S2  1  0.95046689  0.73790135  0.93752502  1
  S  S3  1  0.64066096  0.07668498  0.29847532  1
loop_
_geom_bond_atom_site_label_1
_geom_bond_atom_site_label_2
_geom_bond_distance
_geom_bond_site_symmetry_2
Rb0 S2 3.314798 1_555
Rb0 S0 3.371880 1_655
Rb0 S3 3.446208 1_555
Rb0 S0 3.456605 1_555
Rb0 S1 3.478723 1_555
Rb0 S1 3.593279 1_655
Rb0 S3 3.765107 1_565
Rb1 S2 3.274599 1_455
Rb1 S2 3.304014 1_555
Rb1 S1 3.407601 1_556
Rb1 S0 3.587165 1_555
Rb1 S0 3.610883 1_545
Rb1 S1 3.643030 1_656
Rb1 S3 3.752250 1_455
Mg0 S2 2.380904 1_454
Mg0 S0 2.438127 1_555
Mg0 S3 2.637855 1_565
Mg0 S3 2.827846 1_465
Mg0 Rb1 3.329406 1_565
Fe0 S1 2.136165 1_556
Fe0 S0 2.205132 1_545
Fe0 S2 2.235904 1_445
Fe0 S3 2.241106 1_556
Fe1 S1 2.133044 1_656
Fe1 S0 2.208750 1_545
Fe1 S3 2.220881 1_556
Fe1 S2 2.222055 1_545
