# generated using pymatgen
data_BeH8SO8
_symmetry_space_group_name_H-M   'P 1'
_cell_length_a   7.73942879
_cell_length_b   7.73942879
_cell_length_c   7.73942879
_cell_angle_alpha   118.32125424
_cell_angle_beta   118.32125424
_cell_angle_gamma   92.93312949
_symmetry_Int_Tables_number   1
_chemical_formula_structural   BeH8SO8
_chemical_formula_sum   'Be2 H16 S2 O16'
_cell_volume   335.64405908
_cell_formula_units_Z   2
loop_
 _symmetry_equiv_pos_site_id
 _symmetry_equiv_pos_as_xyz
  1  'x, y, z'
loop_
 _atom_site_type_symbol
 _atom_site_label
 _atom_site_symmetry_multiplicity
 _atom_site_fract_x
 _atom_site_fract_y
 _atom_site_fract_z
 _atom_site_occupancy
  Be  Be0  1  0.75000100  0.25000000  0.50000000  1
  Be  Be1  1  0.25000000  0.75000100  0.50000000  1
  H  H0  1  0.41746109  0.26346061  0.40815960  1
  H  H1  1  0.85530101  0.00930149  0.59183940  1
  H  H2  1  0.23653939  0.08253891  0.59184040  1
  H  H3  1  0.49069751  0.64469799  0.40815960  1
  H  H4  1  0.91746109  0.50930149  0.15399948  1
  H  H5  1  0.35530201  0.76345961  0.84599952  1
  H  H6  1  0.99069851  0.58253691  0.84599952  1
  H  H7  1  0.73653939  0.14469799  0.15399948  1
  H  H8  1  0.59185124  0.36490032  0.69132589  1
  H  H9  1  0.67357442  0.90052534  0.30867511  1
  H  H10  1  0.13509868  0.90814976  0.30867411  1
  H  H11  1  0.59947666  0.82642558  0.69132589  1
  H  H12  1  0.09185024  0.40052534  0.22694992  1
  H  H13  1  0.17357442  0.86489932  0.77305008  1
  H  H14  1  0.09947666  0.40814976  0.77305108  1
  H  H15  1  0.63510068  0.32642458  0.22694992  1
  S  S0  1  0.00000000  0.00000000  0.00000000  1
  S  S1  1  0.50000000  0.50000000  0.00000000  1
  O  O0  1  0.56735725  0.31077876  0.53368847  1
  O  O1  1  0.77708930  0.03366878  0.46631153  1
  O  O2  1  0.18922124  0.93264275  0.46631153  1
  O  O3  1  0.46633122  0.72291070  0.53368847  1
  O  O4  1  0.06735725  0.53366778  0.25657849  1
  O  O5  1  0.27708930  0.81077876  0.74342051  1
  O  O6  1  0.96633122  0.43264275  0.74342051  1
  O  O7  1  0.68922024  0.22291070  0.25657849  1
  O  O8  1  0.16355540  0.20527815  0.21260038  1
  O  O9  1  0.99267777  0.95095502  0.78739762  1
  O  O10  1  0.29472085  0.33644360  0.78739762  1
  O  O11  1  0.54904398  0.50732023  0.21260038  1
  O  O12  1  0.66355640  0.45095502  0.95827725  1
  O  O13  1  0.49267877  0.70527815  0.04172275  1
  O  O14  1  0.04904498  0.83644260  0.04172275  1
  O  O15  1  0.79472185  0.00732123  0.95827825  1
loop_
_geom_bond_atom_site_label_1
_geom_bond_atom_site_label_2
_geom_bond_distance
_geom_bond_site_symmetry_2
Be0 O6 1.608954 1_555
Be0 O1 1.608955 1_555
Be0 O7 1.608958 1_555
Be0 O0 1.608967 1_555
Be1 O2 1.608952 1_555
Be1 O5 1.608957 1_555
Be1 O3 1.608959 1_555
Be1 O4 1.608966 1_555
H0 O0 0.986593 1_555
H0 O8 1.672077 1_555
H1 O1 0.986588 1_555
H1 O9 1.672072 1_545
H2 O2 0.986593 1_545
H2 O10 1.672070 1_555
H3 O3 0.986590 1_555
H3 O11 1.672079 1_555
H4 O4 0.986596 1_655
H4 O12 1.672070 1_554
H5 O5 0.986608 1_555
H5 O13 1.672072 1_556
H6 O6 0.986582 1_555
H6 O14 1.672077 1_656
H7 O7 0.986608 1_555
H7 O15 1.672066 1_554
H8 O0 0.993677 1_555
H8 O12 1.608970 1_555
H9 O1 0.993673 1_565
H9 O13 1.608974 1_555
H10 O2 0.993679 1_555
H10 O14 1.608968 1_555
H11 O3 0.993682 1_555
H11 O15 1.608970 1_565
H12 O4 0.993666 1_555
H12 O8 1.608978 1_555
H13 O5 0.993673 1_555
H13 O9 1.608969 1_455
H14 O6 0.993685 1_455
H14 O10 1.608964 1_555
H15 O7 0.993660 1_555
H15 O11 1.608970 1_555
O8 S0 1.473558 1_555
O9 S0 1.473573 1_666
O10 S1 1.473567 1_556
O11 S1 1.473568 1_555
O12 S1 1.473565 1_556
O13 S1 1.473556 1_555
O14 S0 1.473573 1_565
O15 S0 1.473558 1_656
