# generated using pymatgen
data_Al2P3(HO3)3
_symmetry_space_group_name_H-M   'P 1'
_cell_length_a   7.98270087
_cell_length_b   7.98270087
_cell_length_c   7.18166000
_cell_angle_alpha   90.00000000
_cell_angle_beta   90.00000000
_cell_angle_gamma   120.00000724
_symmetry_Int_Tables_number   1
_chemical_formula_structural   Al2P3(HO3)3
_chemical_formula_sum   'Al4 P6 H6 O18'
_cell_volume   396.32836178
_cell_formula_units_Z   2
loop_
 _symmetry_equiv_pos_site_id
 _symmetry_equiv_pos_as_xyz
  1  'x, y, z'
loop_
 _atom_site_type_symbol
 _atom_site_label
 _atom_site_symmetry_multiplicity
 _atom_site_fract_x
 _atom_site_fract_y
 _atom_site_fract_z
 _atom_site_occupancy
  Al  Al0  1  0.33333300  0.66666700  0.94537800  1
  Al  Al1  1  0.66666700  0.33333300  0.44537800  1
  Al  Al2  1  0.66666700  0.33333300  0.05462200  1
  Al  Al3  1  0.33333300  0.66666700  0.55462200  1
  P  P0  1  0.36279300  0.04936700  0.75000000  1
  P  P1  1  0.04936700  0.68657400  0.25000000  1
  P  P2  1  0.68657400  0.63720700  0.75000000  1
  P  P3  1  0.31342600  0.36279300  0.25000000  1
  P  P4  1  0.63720700  0.95063300  0.25000000  1
  P  P5  1  0.95063300  0.31342600  0.75000000  1
  H  H0  1  0.82312300  0.83543100  0.75000000  1
  H  H1  1  0.98769200  0.82312300  0.25000000  1
  H  H2  1  0.83543100  0.01230800  0.25000000  1
  H  H3  1  0.16456900  0.98769200  0.75000000  1
  H  H4  1  0.01230800  0.17687700  0.75000000  1
  H  H5  1  0.17687700  0.16456900  0.25000000  1
  O  O0  1  0.13823900  0.51674300  0.75000000  1
  O  O1  1  0.62149500  0.13823900  0.25000000  1
  O  O2  1  0.51674300  0.37850500  0.25000000  1
  O  O3  1  0.48325700  0.62149500  0.75000000  1
  O  O4  1  0.16392200  0.71863400  0.07129100  1
  O  O5  1  0.44528800  0.16392200  0.57129100  1
  O  O6  1  0.71863400  0.55471200  0.57129100  1
  O  O7  1  0.28136600  0.44528800  0.07129100  1
  O  O8  1  0.55471200  0.83607800  0.07129100  1
  O  O9  1  0.83607800  0.28136600  0.57129100  1
  O  O10  1  0.83607800  0.28136600  0.92870900  1
  O  O11  1  0.55471200  0.83607800  0.42870900  1
  O  O12  1  0.28136600  0.44528800  0.42870900  1
  O  O13  1  0.71863400  0.55471200  0.92870900  1
  O  O14  1  0.44528800  0.16392200  0.92870900  1
  O  O15  1  0.16392200  0.71863400  0.42870900  1
  O  O16  1  0.86176100  0.48325700  0.25000000  1
  O  O17  1  0.37850500  0.86176100  0.75000000  1
loop_
_geom_bond_atom_site_label_1
_geom_bond_atom_site_label_2
_geom_bond_distance
_geom_bond_site_symmetry_2
Al0 O4 1.838386 1_556
Al0 O8 1.838390 1_556
Al0 O7 1.838392 1_556
Al0 O17 1.990645 1_555
Al0 O0 1.990648 1_555
Al0 O3 1.990656 1_555
Al1 O9 1.838386 1_555
Al1 O5 1.838390 1_555
Al1 O6 1.838392 1_555
Al1 O1 1.990645 1_555
Al1 O16 1.990648 1_555
Al1 O2 1.990656 1_555
Al2 O10 1.838386 1_554
Al2 O14 1.838390 1_554
Al2 O13 1.838392 1_554
Al2 O1 1.990645 1_555
Al2 O16 1.990648 1_555
Al2 O2 1.990656 1_555
Al3 O15 1.838386 1_555
Al3 O11 1.838390 1_555
Al3 O12 1.838392 1_555
Al3 O17 1.990645 1_555
Al3 O0 1.990648 1_555
Al3 O3 1.990656 1_555
H0 P2 1.402574 1_555
H1 P1 1.402574 1_655
H2 P4 1.402574 1_545
H3 P0 1.402574 1_565
H4 P5 1.402574 1_455
H5 P3 1.402574 1_555
O0 P5 1.564086 1_455
O1 P4 1.564091 1_545
O2 P3 1.564083 1_555
O3 P2 1.564083 1_555
O4 P1 1.521474 1_555
O5 P0 1.521474 1_555
O6 P2 1.521474 1_555
O7 P3 1.521474 1_555
O8 P4 1.521474 1_555
O9 P5 1.521474 1_555
O10 P5 1.521474 1_555
O11 P4 1.521474 1_555
O12 P3 1.521474 1_555
O13 P2 1.521474 1_555
O14 P0 1.521474 1_555
O15 P1 1.521474 1_555
O16 P1 1.564086 1_655
O17 P0 1.564091 1_565
