# generated using pymatgen
data_MgScMo3O8
_symmetry_space_group_name_H-M   'P 1'
_cell_length_a   6.19656053
_cell_length_b   6.43371751
_cell_length_c   5.45971802
_cell_angle_alpha   67.09568645
_cell_angle_beta   90.67799214
_cell_angle_gamma   119.29941018
_symmetry_Int_Tables_number   1
_chemical_formula_structural   MgScMo3O8
_chemical_formula_sum   'Mg1 Sc1 Mo3 O8'
_cell_volume   170.47400862
_cell_formula_units_Z   1
loop_
 _symmetry_equiv_pos_site_id
 _symmetry_equiv_pos_as_xyz
  1  'x, y, z'
loop_
 _atom_site_type_symbol
 _atom_site_label
 _atom_site_symmetry_multiplicity
 _atom_site_fract_x
 _atom_site_fract_y
 _atom_site_fract_z
 _atom_site_occupancy
  Mg  Mg0  1  0.55564636  0.11065589  0.79843540  1
  Sc  Sc0  1  0.27310905  0.54357497  0.60893123  1
  Mo  Mo0  1  0.84755486  0.69635663  0.23926199  1
  Mo  Mo1  1  0.84044126  0.17384277  0.27409109  1
  Mo  Mo2  1  0.33335416  0.17283087  0.27004497  1
  O  O0  1  0.46030482  0.93702081  0.53412459  1
  O  O1  1  0.69870197  0.42072707  0.05186868  1
  O  O2  1  0.71321113  0.92995474  0.06579270  1
  O  O3  1  0.21907978  0.93125883  0.06457968  1
  O  O4  1  0.92627425  0.40328560  0.51127381  1
  O  O5  1  0.96943552  0.91187922  0.47771851  1
  O  O6  1  0.21111691  0.40102482  0.01118510  1
  O  O7  1  0.47468293  0.40091679  0.50680225  1
loop_
_geom_bond_atom_site_label_1
_geom_bond_atom_site_label_2
_geom_bond_distance
_geom_bond_site_symmetry_2
Mg0 O2 2.047411 1_546
Mg0 O3 2.050223 1_546
Mg0 O0 2.065938 1_545
Mg0 O4 2.198352 1_555
Mg0 O7 2.204065 1_555
Mg0 O1 2.658715 1_556
Mo0 O2 1.986614 1_555
Mo0 O3 2.004574 1_655
Mo0 O5 2.131894 1_555
Mo0 O4 2.168439 1_555
Mo0 O7 2.169185 1_555
Mo0 O1 2.198001 1_555
Mo1 O2 2.129320 1_545
Mo1 O5 2.134125 1_545
Mo1 O1 2.146285 1_555
Mo1 O6 2.152116 1_655
Mo1 O0 2.183642 1_545
Mo1 O4 2.200468 1_555
Mo2 O5 2.015629 1_445
Mo2 O1 2.034437 1_555
Mo2 O6 2.043173 1_555
Mo2 O3 2.106304 1_545
Mo2 O0 2.106639 1_545
Mo2 O7 2.187031 1_555
O0 Sc0 2.062170 1_555
O4 Sc0 2.041276 1_655
O6 Sc0 1.979717 1_554
O7 Sc0 2.061642 1_555
