# generated using pymatgen
data_Sc3NbP2(SO6)4
_symmetry_space_group_name_H-M   'P 1'
_cell_length_a   8.85257187
_cell_length_b   8.85671670
_cell_length_c   22.78778237
_cell_angle_alpha   89.97871075
_cell_angle_beta   90.00231803
_cell_angle_gamma   119.89784334
_symmetry_Int_Tables_number   1
_chemical_formula_structural   Sc3NbP2(SO6)4
_chemical_formula_sum   'Sc9 Nb3 P6 S12 O72'
_cell_volume   1548.89156593
_cell_formula_units_Z   3
loop_
 _symmetry_equiv_pos_site_id
 _symmetry_equiv_pos_as_xyz
  1  'x, y, z'
loop_
 _atom_site_type_symbol
 _atom_site_label
 _atom_site_symmetry_multiplicity
 _atom_site_fract_x
 _atom_site_fract_y
 _atom_site_fract_z
 _atom_site_occupancy
  Sc  Sc0  1  0.99709996  0.99987889  0.35592010  1
  Sc  Sc1  1  0.99503068  0.00199863  0.85636553  1
  Sc  Sc2  1  0.99185270  0.99667797  0.64579611  1
  Sc  Sc3  1  0.00146645  0.00794274  0.14453354  1
  Sc  Sc4  1  0.66602563  0.32828009  0.68832076  1
  Sc  Sc5  1  0.67259401  0.33479742  0.18919783  1
  Sc  Sc6  1  0.67226442  0.33799271  0.47776100  1
  Sc  Sc7  1  0.33219890  0.66595379  0.01984977  1
  Sc  Sc8  1  0.32970928  0.67028014  0.52300124  1
  Nb  Nb0  1  0.66683032  0.33291151  0.97292089  1
  Nb  Nb1  1  0.32207698  0.65997021  0.31226449  1
  Nb  Nb2  1  0.33838603  0.67159971  0.81236179  1
  P  P0  1  0.99783623  0.28382727  0.25021870  1
  P  P1  1  0.71360821  0.00161614  0.75009697  1
  P  P2  1  0.61989943  0.66878245  0.91784124  1
  P  P3  1  0.05070852  0.38168158  0.91738401  1
  P  P4  1  0.32956782  0.95107420  0.91760703  1
  P  P5  1  0.04406737  0.66823236  0.41857196  1
  S  S0  1  0.28908345  0.00021328  0.25032977  1
  S  S1  1  0.70935439  0.71147315  0.25043655  1
  S  S2  1  0.28914589  0.29024945  0.75029657  1
  S  S3  1  0.00041812  0.71052102  0.75039573  1
  S  S4  1  0.95595080  0.33297937  0.58334203  1
  S  S5  1  0.37684922  0.04615506  0.58322388  1
  S  S6  1  0.66610941  0.62136626  0.58317857  1
  S  S7  1  0.95305096  0.62123571  0.08323335  1
  S  S8  1  0.66549488  0.04633240  0.08323254  1
  S  S9  1  0.38136128  0.33331816  0.08343657  1
  S  S10  1  0.61884301  0.95271930  0.41703188  1
  S  S11  1  0.33329545  0.37935127  0.41742606  1
  O  O0  1  0.20935344  0.02645618  0.30256085  1
  O  O1  1  0.81804211  0.78974572  0.30247456  1
  O  O2  1  0.97332648  0.17523669  0.30461948  1
  O  O3  1  0.21165043  0.18319723  0.80250757  1
  O  O4  1  0.97412704  0.79005765  0.80262037  1
  O  O5  1  0.82330454  0.02783504  0.80444042  1
  O  O6  1  0.79005126  0.96278639  0.69560240  1
  O  O7  1  0.17987875  0.21462817  0.69775898  1
  O  O8  1  0.03691047  0.82065653  0.69780548  1
  O  O9  1  0.78536726  0.82089433  0.19785468  1
  O  O10  1  0.03675020  0.20757159  0.19555119  1
  O  O11  1  0.17871750  0.96235617  0.19775823  1
  O  O12  1  0.87528262  0.36264475  0.63556019  1
  O  O13  1  0.48741234  0.12748491  0.63552320  1
  O  O14  1  0.63796651  0.51258096  0.63561770  1
  O  O15  1  0.87068820  0.51126408  0.13542648  1
  O  O16  1  0.63883771  0.12851754  0.13549767  1
  O  O17  1  0.48961088  0.35924203  0.13569023  1
  O  O18  1  0.46846835  0.30739173  0.03029645  1
  O  O19  1  0.83965164  0.53394776  0.03026335  1
  O  O20  1  0.69323683  0.16014211  0.03030250  1
  O  O21  1  0.45859280  0.15514247  0.53045096  1
  O  O22  1  0.69478166  0.53925506  0.53038613  1
  O  O23  1  0.84511241  0.30307073  0.53069493  1
  O  O24  1  0.53563975  0.69348353  0.97177932  1
  O  O25  1  0.15742138  0.46498741  0.97192802  1
  O  O26  1  0.30601638  0.84272561  0.97161916  1
  O  O27  1  0.53995059  0.84321900  0.46875468  1
  O  O28  1  0.30551527  0.46142460  0.46856210  1
  O  O29  1  0.16300903  0.69681895  0.47041761  1
  O  O30  1  0.14193951  0.64167516  0.36185237  1
  O  O31  1  0.50656779  0.86510082  0.36338765  1
  O  O32  1  0.36087185  0.49380403  0.36323114  1
  O  O33  1  0.13302886  0.50094217  0.86261721  1
  O  O34  1  0.36728595  0.86680504  0.86266266  1
  O  O35  1  0.49936987  0.63195462  0.86273535  1
  O  O36  1  0.02884721  0.82744043  0.40466188  1
  O  O37  1  0.79101866  0.97084144  0.40752217  1
  O  O38  1  0.17959979  0.20887856  0.40714401  1
  O  O39  1  0.02125746  0.20186703  0.90715823  1
  O  O40  1  0.18085611  0.98078721  0.90513666  1
  O  O41  1  0.79979754  0.81683445  0.90674838  1
  O  O42  1  0.97500127  0.17788933  0.59135576  1
  O  O43  1  0.20286381  0.02628151  0.59189645  1
  O  O44  1  0.82281084  0.79472073  0.59068604  1
  O  O45  1  0.96719822  0.79297880  0.09037715  1
  O  O46  1  0.82368101  0.03160564  0.08963828  1
  O  O47  1  0.20933583  0.17412732  0.08949817  1
  O  O48  1  0.68278721  0.15456936  0.74035543  1
  O  O49  1  0.46564800  0.31802824  0.74161052  1
  O  O50  1  0.85023937  0.53586891  0.74154872  1
  O  O51  1  0.68324099  0.53581392  0.24171920  1
  O  O52  1  0.84594597  0.31611010  0.24069233  1
  O  O53  1  0.46361992  0.15002427  0.24163816  1
  O  O54  1  0.63403182  0.49733099  0.92746774  1
  O  O55  1  0.86333709  0.36488451  0.92771936  1
  O  O56  1  0.50118391  0.13624271  0.92763349  1
  O  O57  1  0.63267675  0.12409618  0.42273653  1
  O  O58  1  0.49056499  0.36477098  0.42236298  1
  O  O59  1  0.86786273  0.50279999  0.42369850  1
  O  O60  1  0.36213524  0.48650290  0.07533612  1
  O  O61  1  0.12477470  0.63844616  0.07519004  1
  O  O62  1  0.51223290  0.87476163  0.07510883  1
  O  O63  1  0.36033647  0.87240461  0.57576927  1
  O  O64  1  0.51195758  0.64150070  0.57454362  1
  O  O65  1  0.12999419  0.48754969  0.57523721  1
  O  O66  1  0.31111830  0.84145382  0.26010771  1
  O  O67  1  0.53183956  0.69296389  0.26078742  1
  O  O68  1  0.16624591  0.47273701  0.26221626  1
  O  O69  1  0.30685020  0.46844701  0.76001749  1
  O  O70  1  0.16004362  0.69067730  0.75996489  1
  O  O71  1  0.52514738  0.83330367  0.76232729  1
loop_
_geom_bond_atom_site_label_1
_geom_bond_atom_site_label_2
_geom_bond_distance
_geom_bond_site_symmetry_2
Nb0 O55 1.917340 1_555
Nb0 O54 1.923036 1_555
Nb0 O56 1.924636 1_555
Nb0 O18 2.109128 1_556
Nb0 O20 2.112100 1_556
Nb0 O19 2.122337 1_556
Nb1 O30 1.894352 1_555
Nb1 O68 1.916863 1_555
Nb1 O32 2.033534 1_555
Nb1 O66 2.039516 1_555
Nb1 O67 2.090125 1_555
Nb1 O31 2.090137 1_555
Nb2 O71 1.929505 1_555
Nb2 O34 1.982134 1_555
Nb2 O35 1.992575 1_555
Nb2 O33 2.039744 1_555
Nb2 O70 2.052417 1_555
Nb2 O69 2.058860 1_555
O0 S0 1.460364 1_555
O0 Sc0 2.150247 1_445
O1 S1 1.465642 1_555
O1 Sc0 2.126064 1_555
O2 P0 1.516557 1_555
O2 Sc0 2.036541 1_545
O3 S2 1.461486 1_555
O3 Sc1 2.165605 1_455
O4 S3 1.459721 1_655
O4 Sc1 2.170974 1_565
O5 P1 1.518490 1_555
O5 Sc1 2.027305 1_555
O6 P1 1.533200 1_565
O6 Sc2 2.008742 1_555
O7 S2 1.473842 1_555
O7 Sc2 2.167327 1_445
O8 S3 1.475487 1_555
O8 Sc2 2.147708 1_455
O9 S1 1.475405 1_555
O9 Sc3 2.172514 1_665
O10 P0 1.536001 1_455
O10 Sc3 2.006521 1_555
O11 S0 1.475059 1_565
O11 Sc3 2.174233 1_565
O12 S4 1.477259 1_555
O12 Sc4 2.099430 1_555
O13 S5 1.481517 1_555
O13 Sc4 2.075697 1_555
O14 S6 1.475870 1_555
O14 Sc4 2.138035 1_555
O15 S7 1.478550 1_555
O15 Sc5 2.070223 1_555
O16 S8 1.475099 1_555
O16 Sc5 2.093303 1_555
O17 S9 1.472981 1_555
O17 Sc5 2.122936 1_555
O18 S9 1.513455 1_555
O19 S7 1.513061 1_555
O20 S8 1.511123 1_555
O21 S5 1.484740 1_555
O21 Sc6 2.141764 1_555
O22 S6 1.491729 1_555
O22 Sc6 2.074265 1_555
O23 S4 1.487705 1_555
O23 Sc6 2.088882 1_555
O24 P2 1.509292 1_555
O24 Sc7 2.016210 1_556
O25 P3 1.512425 1_555
O25 Sc7 2.002599 1_556
O26 P4 1.509611 1_555
O26 Sc7 2.018241 1_556
O27 S10 1.463388 1_555
O27 Sc8 2.120132 1_555
O28 S11 1.457943 1_555
O28 Sc8 2.147841 1_555
O29 P5 1.517551 1_555
O29 Sc8 2.003570 1_555
O30 P5 1.637094 1_555
O31 S10 1.521879 1_555
O32 S11 1.537762 1_555
O33 P3 1.560775 1_555
O34 P4 1.576498 1_555
O35 P2 1.573214 1_555
O36 P5 1.515245 1_555
O36 Sc0 2.017857 1_455
O37 S10 1.466976 1_555
O37 Sc0 2.075896 1_555
O38 S11 1.462199 1_555
O38 Sc0 2.102194 1_445
O39 P3 1.498294 1_555
O39 Sc1 2.029510 1_455
O40 P4 1.492789 1_555
O40 Sc1 2.069876 1_465
O41 P2 1.495835 1_555
O41 Sc1 2.041528 1_565
O42 S4 1.476239 1_555
O42 Sc2 2.091481 1_545
O43 S5 1.473786 1_555
O43 Sc2 2.139727 1_445
O44 S6 1.479130 1_555
O44 Sc2 2.085422 1_555
O45 S7 1.471782 1_555
O45 Sc3 2.160027 1_665
O46 S8 1.476945 1_555
O46 Sc3 2.101018 1_655
O47 S9 1.478327 1_555
O47 Sc3 2.103371 1_555
O48 P1 1.525477 1_555
O48 Sc4 2.005305 1_555
O49 S2 1.468967 1_555
O49 Sc4 2.114001 1_555
O50 S3 1.466609 1_655
O50 Sc4 2.126836 1_555
O51 S1 1.467989 1_555
O51 Sc5 2.108375 1_555
O52 P0 1.523179 1_555
O52 Sc5 2.003076 1_555
O53 S0 1.463939 1_555
O53 Sc5 2.123464 1_555
O54 P2 1.599608 1_555
O55 P3 1.607158 1_655
O56 P4 1.601957 1_545
O57 S10 1.466480 1_545
O57 Sc6 2.150291 1_555
O58 S11 1.465220 1_555
O58 Sc6 2.148747 1_555
O59 P5 1.521530 1_655
O59 Sc6 2.031198 1_555
O60 S9 1.460728 1_555
O60 Sc7 2.147874 1_555
O61 S7 1.461788 1_455
O61 Sc7 2.139027 1_555
O62 S8 1.459110 1_565
O62 Sc7 2.146880 1_555
O63 S5 1.481299 1_565
O63 Sc8 2.059567 1_555
O64 S6 1.474894 1_555
O64 Sc8 2.111171 1_555
O65 S4 1.476211 1_455
O65 Sc8 2.075615 1_555
O66 S0 1.529044 1_565
O67 S1 1.514989 1_555
O68 P0 1.615662 1_455
O69 S2 1.522550 1_555
O70 S3 1.524077 1_555
O71 P1 1.613591 1_565
