# generated using pymatgen
data_Sm4MgTi2Mn2O12
_symmetry_space_group_name_H-M   'P 1'
_cell_length_a   5.60868929
_cell_length_b   5.70008299
_cell_length_c   8.71819535
_cell_angle_alpha   90.94508249
_cell_angle_beta   96.45890017
_cell_angle_gamma   85.54031561
_symmetry_Int_Tables_number   1
_chemical_formula_structural   Sm4MgTi2Mn2O12
_chemical_formula_sum   'Sm4 Mg1 Ti2 Mn2 O12'
_cell_volume   276.10459072
_cell_formula_units_Z   1
loop_
 _symmetry_equiv_pos_site_id
 _symmetry_equiv_pos_as_xyz
  1  'x, y, z'
loop_
 _atom_site_type_symbol
 _atom_site_label
 _atom_site_symmetry_multiplicity
 _atom_site_fract_x
 _atom_site_fract_y
 _atom_site_fract_z
 _atom_site_occupancy
  Sm  Sm0  1  0.03417000  0.93701600  0.73030200  1
  Sm  Sm1  1  0.42321700  0.41494300  0.80620500  1
  Sm  Sm2  1  0.94676300  0.05978600  0.26694900  1
  Sm  Sm3  1  0.51915100  0.55959000  0.20761300  1
  Mg  Mg0  1  0.72672600  0.49148200  0.57503700  1
  Ti  Ti0  1  0.50174200  0.00873500  0.49892000  1
  Ti  Ti1  1  0.96819100  0.51242200  0.99960000  1
  Mn  Mn0  1  0.14608000  0.53202900  0.44318500  1
  Mn  Mn1  1  0.44388300  0.01032000  0.04575200  1
  O  O0  1  0.83909800  0.59350100  0.79000400  1
  O  O1  1  0.67466400  0.15093000  0.67764800  1
  O  O2  1  0.12229800  0.42432000  0.21598300  1
  O  O3  1  0.35072700  0.92652500  0.28801800  1
  O  O4  1  0.83579200  0.77714300  0.46452200  1
  O  O5  1  0.67531500  0.29896500  0.03583200  1
  O  O6  1  0.18573000  0.20525300  0.55897100  1
  O  O7  1  0.26749900  0.70302200  0.96409700  1
  O  O8  1  0.16089000  0.20275200  0.91772400  1
  O  O9  1  0.38345700  0.69761800  0.60047200  1
  O  O10  1  0.77325900  0.79643500  0.09982500  1
  O  O11  1  0.65884400  0.29096300  0.38834100  1
loop_
_geom_bond_atom_site_label_1
_geom_bond_atom_site_label_2
_geom_bond_distance
_geom_bond_site_symmetry_2
Mg0 O11 1.991854 1_555
Mg0 O0 2.000758 1_555
Mg0 O4 2.071980 1_555
Mg0 O1 2.204066 1_555
Mg0 O9 2.207298 1_555
Mn0 O2 2.057046 1_555
Mn0 O9 2.070216 1_555
Mn0 O6 2.117783 1_555
Mn0 O4 2.168291 1_455
Mn1 O8 2.083101 1_554
Mn1 O10 2.143392 1_545
Mn1 O7 2.150245 1_544
Mn1 O5 2.182075 1_555
Mn1 O3 2.298381 1_545
O0 Ti1 1.937784 1_555
O0 Sm0 2.407672 1_655
O0 Sm1 2.635280 1_555
O1 Ti0 1.940649 1_555
O1 Sm0 2.278388 1_645
O1 Sm1 2.340876 1_555
O2 Ti1 2.038369 1_454
O2 Sm3 2.420627 1_555
O2 Sm2 2.435424 1_455
O3 Ti0 2.000170 1_565
O3 Sm2 2.321097 1_465
O3 Sm3 2.356204 1_555
O4 Ti0 2.252023 1_565
O4 Sm2 2.537442 1_565
O4 Sm0 2.635426 1_655
O4 Sm3 3.010701 1_555
O5 Ti1 2.172264 1_554
O5 Sm3 2.288307 1_555
O5 Sm1 2.388609 1_554
O5 Sm2 2.704474 1_555
O6 Ti0 2.133302 1_555
O6 Sm0 2.419629 1_545
O6 Sm1 2.713927 1_555
O6 Sm2 2.881153 1_455
O7 Ti1 2.122709 1_455
O7 Sm1 2.308011 1_555
O7 Sm3 2.524171 1_556
O7 Sm0 2.619973 1_555
O8 Ti1 2.151438 1_455
O8 Sm1 2.282606 1_555
O8 Sm0 2.300849 1_545
O9 Ti0 2.176190 1_565
O9 Sm1 2.410906 1_555
O9 Sm0 2.648262 1_555
O10 Ti1 2.114868 1_554
O10 Sm2 2.271407 1_565
O10 Sm3 2.319329 1_555
O11 Ti0 2.180940 1_555
O11 Sm3 2.248620 1_555
O11 Sm2 2.339177 1_555
