# generated using pymatgen
data_Na10La4Mg4Si3(S3O16)3
_symmetry_space_group_name_H-M   'P 1'
_cell_length_a   18.81910798
_cell_length_b   9.42823452
_cell_length_c   23.73102017
_cell_angle_alpha   89.97798218
_cell_angle_beta   89.48546199
_cell_angle_gamma   120.40276625
_symmetry_Int_Tables_number   1
_chemical_formula_structural   Na10La4Mg4Si3(S3O16)3
_chemical_formula_sum   'Na30 La12 Mg12 Si9 S27 O144'
_cell_volume   3631.40676581
_cell_formula_units_Z   3
loop_
 _symmetry_equiv_pos_site_id
 _symmetry_equiv_pos_as_xyz
  1  'x, y, z'
loop_
 _atom_site_type_symbol
 _atom_site_label
 _atom_site_symmetry_multiplicity
 _atom_site_fract_x
 _atom_site_fract_y
 _atom_site_fract_z
 _atom_site_occupancy
  Na  Na0  1  0.19344057  0.37094903  0.24277570  1
  Na  Na1  1  0.69278010  0.37466845  0.24312108  1
  Na  Na2  1  0.98979949  0.63659712  0.25346797  1
  Na  Na3  1  0.49160285  0.63115160  0.26013516  1
  Na  Na4  1  0.32412366  0.65494010  0.74421161  1
  Na  Na5  1  0.82204492  0.65095017  0.74357817  1
  Na  Na6  1  0.99072637  0.34493326  0.75144214  1
  Na  Na7  1  0.19551388  0.01353733  0.73914498  1
  Na  Na8  1  0.69448635  0.01143240  0.74087587  1
  Na  Na9  1  0.52528374  0.70703847  0.57264576  1
  Na  Na10  1  0.32494585  0.96715899  0.58900990  1
  Na  Na11  1  0.82485034  0.96280825  0.58845174  1
  Na  Na12  1  0.15403963  0.98591810  0.07920472  1
  Na  Na13  1  0.65399215  0.98498220  0.07895956  1
  Na  Na14  1  0.32637042  0.68180967  0.09161284  1
  Na  Na15  1  0.82592953  0.68227833  0.09219228  1
  Na  Na16  1  0.65721944  0.01364911  0.42430696  1
  Na  Na17  1  0.35912336  0.67463179  0.40952543  1
  Na  Na18  1  0.01773303  0.00243423  0.49556275  1
  Na  Na19  1  0.51254047  0.00870338  0.49297559  1
  Na  Na20  1  0.01040413  0.02974745  0.99507771  1
  Na  Na21  1  0.51063727  0.03005220  0.99439132  1
  Na  Na22  1  0.34393384  0.31838220  0.82535174  1
  Na  Na23  1  0.83333372  0.31600291  0.82869518  1
  Na  Na24  1  0.34372898  0.34445855  0.33054157  1
  Na  Na25  1  0.83893379  0.34963878  0.32603293  1
  Na  Na26  1  0.17480011  0.65426376  0.16036702  1
  Na  Na27  1  0.67570232  0.65461455  0.16298978  1
  Na  Na28  1  0.17006479  0.68575698  0.65448190  1
  Na  Na29  1  0.66958070  0.67270717  0.65650306  1
  La  La0  1  0.00522516  0.00052483  0.64746845  1
  La  La1  1  0.50380827  0.01099239  0.65134555  1
  La  La2  1  0.99537832  0.00787744  0.15293960  1
  La  La3  1  0.49618871  0.00822816  0.15212911  1
  La  La4  1  0.32984800  0.33219054  0.98174356  1
  La  La5  1  0.82971118  0.33279716  0.98154751  1
  La  La6  1  0.32862862  0.32587561  0.48170067  1
  La  La7  1  0.83101827  0.33700726  0.48532537  1
  La  La8  1  0.17452403  0.67573943  0.31615801  1
  La  La9  1  0.67061506  0.67097437  0.32052336  1
  La  La10  1  0.17305395  0.67960612  0.82158237  1
  La  La11  1  0.66647618  0.66941407  0.81910356  1
  Mg  Mg0  1  0.98769430  0.97218519  0.34896246  1
  Mg  Mg1  1  0.49244557  0.97216123  0.34979972  1
  Mg  Mg2  1  0.98993523  0.00879004  0.85083811  1
  Mg  Mg3  1  0.49008203  0.01091626  0.84997257  1
  Mg  Mg4  1  0.33331921  0.29238191  0.67989085  1
  Mg  Mg5  1  0.83012603  0.30046510  0.67814002  1
  Mg  Mg6  1  0.32941737  0.35333062  0.18242460  1
  Mg  Mg7  1  0.82801207  0.35237057  0.18223468  1
  Mg  Mg8  1  0.16089446  0.63099762  0.01734441  1
  Mg  Mg9  1  0.66043122  0.63050592  0.01758243  1
  Mg  Mg10  1  0.15734877  0.67995992  0.51827599  1
  Mg  Mg11  1  0.66165069  0.68315918  0.51326389  1
  Si  Si0  1  0.35173538  0.68927162  0.24958647  1
  Si  Si1  1  0.85147480  0.69062961  0.24851123  1
  Si  Si2  1  0.35359153  0.01064981  0.74988758  1
  Si  Si3  1  0.85433085  0.01029351  0.74896349  1
  Si  Si4  1  0.18446386  0.02059630  0.58522434  1
  Si  Si5  1  0.68343569  0.02039164  0.58381631  1
  Si  Si6  1  0.18465190  0.34027193  0.08615677  1
  Si  Si7  1  0.68469412  0.34072724  0.08581093  1
  Si  Si8  1  0.51768204  0.67845357  0.41612871  1
  S  S0  1  0.14968070  0.01069646  0.25042266  1
  S  S1  1  0.65160064  0.01091363  0.25056670  1
  S  S2  1  0.99442648  0.29671957  0.25411744  1
  S  S3  1  0.49491302  0.29639108  0.25350226  1
  S  S4  1  0.15081929  0.29316713  0.75383357  1
  S  S5  1  0.65448022  0.29512067  0.75363840  1
  S  S6  1  0.99478420  0.69673814  0.75385066  1
  S  S7  1  0.49441411  0.69930413  0.75184408  1
  S  S8  1  0.48407604  0.34672416  0.58439663  1
  S  S9  1  0.98546370  0.34769716  0.58547168  1
  S  S10  1  0.32814195  0.62771136  0.58578264  1
  S  S11  1  0.82601588  0.62749919  0.58705858  1
  S  S12  1  0.48681172  0.62712216  0.08510264  1
  S  S13  1  0.98703535  0.62749283  0.08506333  1
  S  S14  1  0.32576659  0.02902426  0.08400394  1
  S  S15  1  0.82606461  0.02980928  0.08389510  1
  S  S16  1  0.32253128  0.68372211  0.91836134  1
  S  S17  1  0.82131101  0.68373528  0.91726297  1
  S  S18  1  0.02060175  0.35972190  0.91636338  1
  S  S19  1  0.52054849  0.35861595  0.91851999  1
  S  S20  1  0.15731308  0.96131704  0.91868985  1
  S  S21  1  0.65807008  0.95996308  0.91812118  1
  S  S22  1  0.32026235  0.95786380  0.41984433  1
  S  S23  1  0.82255122  0.96487692  0.41998489  1
  S  S24  1  0.15802772  0.36312415  0.41772606  1
  S  S25  1  0.66041446  0.35867320  0.41723611  1
  S  S26  1  0.02128967  0.68166296  0.41601902  1
  O  O0  1  0.10563511  0.03224359  0.29850860  1
  O  O1  1  0.60874239  0.03147116  0.30019888  1
  O  O2  1  0.40824506  0.78857212  0.30395619  1
  O  O3  1  0.91561851  0.79573265  0.29861793  1
  O  O4  1  0.48896299  0.19408903  0.30204727  1
  O  O5  1  0.98863298  0.19402821  0.30240728  1
  O  O6  1  0.10787786  0.18486941  0.80250313  1
  O  O7  1  0.60919261  0.18841171  0.80196357  1
  O  O8  1  0.48750147  0.79085383  0.79993952  1
  O  O9  1  0.98731537  0.78456201  0.80270876  1
  O  O10  1  0.41000988  0.01749834  0.80194004  1
  O  O11  1  0.91644635  0.03673265  0.80048735  1
  O  O12  1  0.38561206  0.97083539  0.68998731  1
  O  O13  1  0.88731201  0.96933742  0.69031846  1
  O  O14  1  0.10206324  0.22563841  0.70188938  1
  O  O15  1  0.60880978  0.23007282  0.70072828  1
  O  O16  1  0.01367749  0.79738129  0.70190452  1
  O  O17  1  0.51053832  0.79528686  0.69830146  1
  O  O18  1  0.38802159  0.78774469  0.18955337  1
  O  O19  1  0.88629172  0.78332862  0.18692678  1
  O  O20  1  0.01401589  0.23661058  0.20144667  1
  O  O21  1  0.51146624  0.23165469  0.20072906  1
  O  O22  1  0.10326015  0.98403847  0.19693871  1
  O  O23  1  0.60310758  0.98659316  0.19838028  1
  O  O24  1  0.44132404  0.36559863  0.63443917  1
  O  O25  1  0.94515514  0.36516847  0.63762729  1
  O  O26  1  0.23863914  0.10814593  0.64265494  1
  O  O27  1  0.73960191  0.11480204  0.63931585  1
  O  O28  1  0.32312119  0.53227894  0.63679368  1
  O  O29  1  0.82310713  0.53502490  0.63880060  1
  O  O30  1  0.44643490  0.52806980  0.13644471  1
  O  O31  1  0.94697085  0.52894957  0.13663755  1
  O  O32  1  0.32142081  0.11748353  0.13397004  1
  O  O33  1  0.82184951  0.11828226  0.13393289  1
  O  O34  1  0.24007162  0.36457836  0.14262107  1
  O  O35  1  0.73988096  0.36444821  0.14221346  1
  O  O36  1  0.22994178  0.30858549  0.03210334  1
  O  O37  1  0.72994790  0.30857899  0.03171555  1
  O  O38  1  0.43529871  0.54998157  0.03507013  1
  O  O39  1  0.93538981  0.54939206  0.03516281  1
  O  O40  1  0.34016043  0.12689281  0.03212998  1
  O  O41  1  0.84040161  0.12803557  0.03204793  1
  O  O42  1  0.23028952  0.13525203  0.53034271  1
  O  O43  1  0.72487687  0.12666647  0.52567517  1
  O  O44  1  0.34266641  0.55606303  0.53425911  1
  O  O45  1  0.83889898  0.55155795  0.53644737  1
  O  O46  1  0.43579539  0.32264302  0.53316993  1
  O  O47  1  0.93354625  0.32398923  0.53586841  1
  O  O48  1  0.27476793  0.69241258  0.96713930  1
  O  O49  1  0.77502454  0.69241340  0.96687873  1
  O  O50  1  0.07370450  0.45669833  0.96381722  1
  O  O51  1  0.57177693  0.45113231  0.96726766  1
  O  O52  1  0.15298341  0.86045968  0.96807440  1
  O  O53  1  0.65386824  0.86111512  0.96807984  1
  O  O54  1  0.27568752  0.85476998  0.46978021  1
  O  O55  1  0.77961725  0.86300717  0.47057896  1
  O  O56  1  0.15223844  0.45601600  0.46586470  1
  O  O57  1  0.65786953  0.45383352  0.46548229  1
  O  O58  1  0.07295667  0.69091873  0.46418928  1
  O  O59  1  0.57575882  0.69823787  0.47073825  1
  O  O60  1  0.05620266  0.66101101  0.36198423  1
  O  O61  1  0.55756193  0.65732974  0.35693956  1
  O  O62  1  0.27130878  0.88309939  0.36827412  1
  O  O63  1  0.77141699  0.89260480  0.36917342  1
  O  O64  1  0.16977238  0.45646981  0.36364494  1
  O  O65  1  0.67331315  0.44810490  0.36306899  1
  O  O66  1  0.05448529  0.44812684  0.86172370  1
  O  O67  1  0.55649668  0.45243522  0.86557641  1
  O  O68  1  0.16681787  0.88729853  0.86521405  1
  O  O69  1  0.66775449  0.88438414  0.86517535  1
  O  O70  1  0.27566555  0.65735752  0.86502051  1
  O  O71  1  0.77394937  0.65984495  0.86443048  1
  O  O72  1  0.01544433  0.83359835  0.41310549  1
  O  O73  1  0.51372668  0.85128083  0.41262907  1
  O  O74  1  0.40084376  0.96407998  0.41396461  1
  O  O75  1  0.90451271  0.98099919  0.41254393  1
  O  O76  1  0.08530247  0.19596239  0.41336064  1
  O  O77  1  0.58513203  0.19273468  0.41435573  1
  O  O78  1  0.01493528  0.19639612  0.91415044  1
  O  O79  1  0.51505782  0.19558395  0.91472195  1
  O  O80  1  0.08277262  0.97597210  0.91485032  1
  O  O81  1  0.58374515  0.97521826  0.91409413  1
  O  O82  1  0.40411082  0.83603902  0.91387006  1
  O  O83  1  0.90339485  0.83581863  0.91258108  1
  O  O84  1  0.49081584  0.19616048  0.58931086  1
  O  O85  1  0.98983541  0.19412197  0.58903420  1
  O  O86  1  0.09116186  0.99485498  0.58525034  1
  O  O87  1  0.58779742  0.98497754  0.58594218  1
  O  O88  1  0.40299180  0.79928515  0.58818729  1
  O  O89  1  0.89774899  0.80040121  0.58755247  1
  O  O90  1  0.49550772  0.79497393  0.08904797  1
  O  O91  1  0.99595205  0.79542118  0.08879769  1
  O  O92  1  0.39438766  0.99177728  0.08626959  1
  O  O93  1  0.89494990  0.99323768  0.08607171  1
  O  O94  1  0.09410228  0.16744134  0.08657695  1
  O  O95  1  0.59437665  0.16762260  0.08611137  1
  O  O96  1  0.33927816  0.16896991  0.74653121  1
  O  O97  1  0.84604776  0.17803088  0.74400054  1
  O  O98  1  0.23483409  0.31623070  0.74723056  1
  O  O99  1  0.73757983  0.30925021  0.74847937  1
  O  O100  1  0.41689829  0.53786773  0.74647572  1
  O  O101  1  0.91684798  0.53466109  0.74715117  1
  O  O102  1  0.34669809  0.50801971  0.24688927  1
  O  O103  1  0.84635513  0.50828796  0.24638914  1
  O  O104  1  0.42064154  0.31200697  0.24745946  1
  O  O105  1  0.91978338  0.31025996  0.24754166  1
  O  O106  1  0.23325134  0.15810709  0.24500880  1
  O  O107  1  0.73436237  0.16142252  0.24494235  1
  O  O108  1  0.33318928  0.53815469  0.92239685  1
  O  O109  1  0.83205219  0.53760014  0.92068355  1
  O  O110  1  0.43683665  0.33684260  0.92295218  1
  O  O111  1  0.93719926  0.33908528  0.92170084  1
  O  O112  1  0.23356817  0.12710570  0.91991578  1
  O  O113  1  0.73451182  0.12673693  0.91889703  1
  O  O114  1  0.33303392  0.12552401  0.42202922  1
  O  O115  1  0.83004314  0.13073081  0.42425211  1
  O  O116  1  0.23593905  0.35595456  0.42061295  1
  O  O117  1  0.73303859  0.33068243  0.42016985  1
  O  O118  1  0.42179394  0.52379444  0.41844300  1
  O  O119  1  0.93712176  0.53367943  0.42100667  1
  O  O120  1  0.18289163  0.51260873  0.07721973  1
  O  O121  1  0.68304739  0.51292565  0.07711301  1
  O  O122  1  0.07143878  0.65213003  0.07728361  1
  O  O123  1  0.57127792  0.65254544  0.07736358  1
  O  O124  1  0.24636829  0.86677164  0.07933867  1
  O  O125  1  0.74679762  0.86763935  0.07924822  1
  O  O126  1  0.18320896  0.84456957  0.57822005  1
  O  O127  1  0.67906526  0.83990719  0.57895223  1
  O  O128  1  0.25407995  0.64415712  0.58022873  1
  O  O129  1  0.74993900  0.63748813  0.58189134  1
  O  O130  1  0.06852724  0.49351626  0.57829654  1
  O  O131  1  0.56692637  0.49661949  0.57948095  1
  O  O132  1  0.15450334  0.85764351  0.25655382  1
  O  O133  1  0.65829890  0.86074166  0.25528382  1
  O  O134  1  0.25494659  0.65128440  0.25183203  1
  O  O135  1  0.75570523  0.65424664  0.25285809  1
  O  O136  1  0.06696234  0.47031900  0.25886492  1
  O  O137  1  0.56904452  0.46771416  0.25668921  1
  O  O138  1  0.15954094  0.46064814  0.75970474  1
  O  O139  1  0.66951582  0.46674537  0.75865211  1
  O  O140  1  0.06476135  0.66310320  0.75910505  1
  O  O141  1  0.56776369  0.67780263  0.75695730  1
  O  O142  1  0.25760288  0.84136089  0.75385949  1
  O  O143  1  0.75911847  0.84743442  0.75549072  1
loop_
_geom_bond_atom_site_label_1
_geom_bond_atom_site_label_2
_geom_bond_distance
_geom_bond_site_symmetry_2
Na0 O134 2.297865 1_555
Na0 O106 2.472528 1_555
Na0 O102 2.496126 1_555
Na0 O34 2.537470 1_555
Na1 O135 2.291251 1_555
Na1 O107 2.499893 1_555
Na1 O103 2.502979 1_555
Na1 O35 2.564721 1_555
Na1 O137 2.889627 1_555
Na2 O103 2.341346 1_555
Na2 O136 2.624917 1_655
Na2 O105 2.668868 1_555
Na2 O132 2.724348 1_655
Na2 O3 2.728067 1_555
Na2 O60 2.830792 1_655
Na2 O31 2.929304 1_555
Na3 O102 2.386286 1_555
Na3 O61 2.573076 1_555
Na3 O137 2.603089 1_555
Na3 O104 2.620797 1_555
Na3 O133 2.767725 1_555
Na3 O2 2.841411 1_555
Na4 O100 2.494337 1_555
Na4 O142 2.632678 1_555
Na4 O138 2.705626 1_555
Na4 O98 2.755556 1_555
Na4 O28 2.795880 1_555
Na4 O12 2.889182 1_555
Na4 O8 2.988457 1_555
Na4 O70 3.004248 1_555
Na5 O139 2.513768 1_555
Na5 O101 2.524845 1_555
Na5 O143 2.669993 1_555
Na5 O29 2.720454 1_555
Na5 O99 2.780703 1_555
Na5 O13 2.890404 1_555
Na6 O97 2.364938 1_555
Na6 O140 2.597621 1_655
Na6 O11 2.758477 1_555
Na6 O101 2.768178 1_555
Na6 O138 2.797299 1_655
Na6 O66 2.848205 1_655
Na6 O25 2.876420 1_555
Na7 O96 2.343891 1_555
Na7 O26 2.435131 1_555
Na7 O142 2.459496 1_545
Na7 O98 2.567966 1_555
Na8 O143 2.429237 1_545
Na8 O97 2.465230 1_555
Na8 O99 2.504541 1_555
Na8 O27 2.569690 1_555
Na8 O141 2.849113 1_545
Na9 O87 2.288552 1_555
Na9 O131 2.480300 1_555
Na9 O127 2.511092 1_555
Na9 O59 2.606984 1_555
Na9 O88 2.863552 1_555
Na10 O126 2.325587 1_555
Na10 O128 2.644021 1_555
Na10 O88 2.648616 1_555
Na10 O12 2.656319 1_555
Na10 O84 2.753996 1_565
Na10 O26 2.859206 1_565
Na10 O54 3.007172 1_555
Na11 O127 2.390432 1_555
Na11 O89 2.520479 1_555
Na11 O129 2.654638 1_555
Na11 O13 2.684635 1_555
Na11 O85 2.746602 1_565
Na11 O27 2.894451 1_565
Na11 O55 2.944256 1_555
Na12 O94 2.486474 1_565
Na12 O124 2.501325 1_555
Na12 O91 2.589956 1_455
Na12 O122 2.715187 1_555
Na12 O36 2.848694 1_565
Na12 O52 2.886882 1_554
Na12 O22 2.941860 1_555
Na13 O95 2.490958 1_565
Na13 O125 2.496050 1_555
Na13 O90 2.596340 1_555
Na13 O123 2.703933 1_555
Na13 O37 2.857097 1_565
Na13 O53 2.878762 1_554
Na13 O23 2.985743 1_555
Na14 O120 2.368440 1_555
Na14 O92 2.530965 1_555
Na14 O18 2.573527 1_555
Na14 O90 2.798707 1_555
Na14 O124 2.838581 1_555
Na14 O34 2.844984 1_555
Na15 O121 2.362187 1_555
Na15 O19 2.490856 1_555
Na15 O93 2.538814 1_555
Na15 O91 2.814772 1_555
Na15 O125 2.829881 1_555
Na15 O35 2.839390 1_555
Na16 O73 2.354169 1_545
Na16 O117 2.580801 1_555
Na16 O77 2.659129 1_555
Na16 O43 2.688331 1_555
Na16 O59 2.785761 1_545
Na16 O115 2.857033 1_555
Na17 O118 2.271592 1_555
Na17 O74 2.430625 1_555
Na17 O73 2.518686 1_555
Na17 O2 2.690009 1_555
Na17 O116 2.722010 1_555
Na18 O72 2.509844 1_545
Na18 O76 2.521100 1_555
Na18 O86 2.568522 1_545
Na18 O75 2.846399 1_445
Na18 O89 3.007879 1_445
Na18 O85 3.066709 1_455
Na19 O73 2.423606 1_545
Na19 O77 2.431121 1_555
Na19 O74 2.699536 1_545
Na19 O87 2.701765 1_545
Na20 O78 2.454251 1_555
Na20 O80 2.527779 1_545
Na20 O94 2.622045 1_556
Na20 O83 2.752813 1_445
Na20 O93 2.942856 1_446
Na20 O91 3.046076 1_446
Na21 O79 2.424998 1_555
Na21 O81 2.542603 1_545
Na21 O95 2.626471 1_556
Na21 O82 2.715908 1_545
Na21 O92 2.963945 1_546
Na21 O90 3.063527 1_546
Na22 O96 2.317516 1_555
Na22 O100 2.597352 1_555
Na22 O98 2.771109 1_555
Na22 O110 2.866469 1_555
Na22 O112 2.953664 1_555
Na23 O97 2.469306 1_555
Na23 O99 2.611619 1_555
Na23 O101 2.669779 1_555
Na23 O113 2.791344 1_555
Na23 O111 2.895983 1_555
Na23 O109 3.030608 1_555
Na24 O102 2.496088 1_555
Na24 O104 2.544287 1_555
Na24 O118 2.629085 1_555
Na24 O106 2.812617 1_555
Na24 O114 2.929701 1_555
Na24 O116 2.973262 1_555
Na25 O103 2.368696 1_555
Na25 O105 2.538468 1_555
Na25 O107 2.694621 1_555
Na25 O119 2.887479 1_555
Na25 O117 2.924592 1_555
Na26 O120 2.429562 1_555
Na26 O124 2.597118 1_555
Na26 O134 2.662456 1_555
Na26 O122 2.775033 1_555
Na26 O136 2.989863 1_555
Na27 O121 2.478067 1_555
Na27 O135 2.622596 1_555
Na27 O125 2.646233 1_555
Na27 O123 2.832711 1_555
Na27 O137 2.900897 1_555
Na28 O126 2.278910 1_555
Na28 O128 2.517308 1_555
Na28 O130 2.600818 1_555
Na28 O142 2.837983 1_555
Na29 O127 2.368735 1_555
Na29 O129 2.448042 1_555
Na29 O131 2.578518 1_555
Na29 O143 2.887174 1_555
La0 O86 2.200702 1_545
La0 O13 2.311574 1_445
La0 O14 2.371326 1_555
La0 O16 2.381716 1_545
La0 O89 2.421522 1_445
La0 O85 2.424625 1_455
La1 O12 2.245590 1_545
La1 O87 2.305658 1_545
La1 O15 2.335981 1_555
La1 O17 2.378079 1_545
La1 O84 2.389850 1_555
La1 O88 2.459787 1_545
La2 O19 2.217431 1_545
La2 O94 2.304738 1_655
La2 O20 2.311360 1_655
La2 O22 2.400496 1_645
La2 O93 2.428810 1_545
La2 O91 2.520588 1_545
La3 O18 2.221907 1_545
La3 O21 2.290210 1_555
La3 O95 2.294087 1_555
La3 O23 2.397882 1_545
La3 O92 2.426988 1_545
La3 O90 2.502048 1_545
La4 O36 2.132754 1_556
La4 O40 2.365700 1_556
La4 O108 2.372980 1_555
La4 O112 2.382943 1_555
La4 O38 2.383008 1_556
La4 O110 2.421254 1_555
La5 O37 2.126055 1_556
La5 O41 2.366295 1_556
La5 O39 2.383506 1_556
La5 O113 2.392011 1_555
La5 O109 2.393164 1_555
La5 O111 2.437076 1_555
La6 O42 2.140331 1_555
La6 O118 2.334249 1_555
La6 O46 2.380469 1_555
La6 O114 2.395567 1_555
La6 O44 2.400664 1_555
La6 O116 2.402181 1_555
La7 O43 2.189623 1_555
La7 O45 2.299374 1_555
La7 O47 2.336189 1_555
La7 O117 2.394625 1_555
La7 O115 2.418626 1_555
La7 O119 2.439406 1_555
La8 O134 2.232942 1_555
La8 O62 2.259959 1_555
La8 O64 2.315395 1_555
La8 O132 2.397030 1_555
La8 O136 2.404256 1_555
La8 O60 2.409062 1_555
La9 O61 2.231536 1_555
La9 O63 2.308022 1_555
La9 O135 2.318883 1_555
La9 O65 2.354691 1_555
La9 O137 2.442873 1_555
La9 O133 2.464919 1_555
La10 O142 2.221829 1_555
La10 O68 2.269866 1_555
La10 O70 2.298082 1_555
La10 O66 2.383419 1_555
La10 O138 2.441372 1_555
La10 O140 2.471696 1_555
La11 O143 2.263751 1_555
La11 O69 2.292738 1_555
La11 O67 2.314465 1_555
La11 O71 2.340848 1_555
La11 O139 2.413240 1_555
La11 O141 2.414555 1_555
Mg0 O3 1.944618 1_555
Mg0 O75 2.196218 1_555
Mg0 O72 2.236166 1_655
Mg0 O0 2.315221 1_665
Mg0 O5 2.357142 1_565
Mg0 O76 2.508252 1_665
Mg1 O2 1.986664 1_555
Mg1 O73 2.038082 1_555
Mg1 O74 2.261846 1_555
Mg1 O1 2.280943 1_565
Mg1 O4 2.409329 1_565
Mg1 O77 2.468443 1_565
Mg2 O11 1.951415 1_555
Mg2 O83 2.173910 1_545
Mg2 O78 2.186283 1_655
Mg2 O6 2.285056 1_655
Mg2 O9 2.381940 1_545
Mg2 O80 2.459716 1_645
Mg3 O10 1.923353 1_555
Mg3 O79 2.190911 1_555
Mg3 O82 2.211210 1_545
Mg3 O7 2.297606 1_555
Mg3 O8 2.370203 1_545
Mg3 O81 2.486757 1_545
Mg4 O26 1.967155 1_555
Mg4 O96 2.000311 1_555
Mg4 O24 2.076326 1_555
Mg4 O98 2.531457 1_555
Mg4 O28 2.576761 1_555
Mg4 O100 2.586589 1_555
Mg5 O27 1.956102 1_555
Mg5 O97 2.054788 1_555
Mg5 O25 2.146653 1_555
Mg5 O99 2.433181 1_555
Mg5 O29 2.464944 1_555
Mg5 O101 2.573809 1_555
Mg6 O34 1.984824 1_555
Mg6 O102 2.025768 1_555
Mg6 O30 2.244479 1_555
Mg6 O106 2.333870 1_555
Mg6 O32 2.440437 1_555
Mg6 O104 2.490999 1_555
Mg7 O35 1.971073 1_555
Mg7 O103 2.023743 1_555
Mg7 O31 2.266509 1_555
Mg7 O107 2.302406 1_555
Mg7 O33 2.437955 1_555
Mg7 O105 2.506762 1_555
Mg8 O120 1.978196 1_555
Mg8 O50 2.077564 1_554
Mg8 O48 2.246077 1_554
Mg8 O122 2.278984 1_555
Mg8 O124 2.473685 1_555
Mg8 O52 2.529197 1_554
Mg9 O121 1.973075 1_555
Mg9 O51 2.061747 1_554
Mg9 O49 2.262301 1_554
Mg9 O123 2.276204 1_555
Mg9 O125 2.479727 1_555
Mg9 O53 2.528841 1_554
Mg10 O126 1.979581 1_555
Mg10 O58 2.093576 1_555
Mg10 O130 2.212266 1_555
Mg10 O54 2.288658 1_555
Mg10 O56 2.410987 1_555
Mg10 O128 2.501782 1_555
Mg11 O59 1.978182 1_555
Mg11 O127 2.059663 1_555
Mg11 O55 2.231140 1_555
Mg11 O131 2.348300 1_555
Mg11 O57 2.411068 1_555
Mg11 O129 2.523995 1_555
O0 S0 1.477885 1_555
O1 S1 1.488859 1_555
O2 Si0 1.640137 1_555
O3 Si1 1.633706 1_555
O4 S3 1.468851 1_555
O5 S2 1.467172 1_555
O6 S4 1.475383 1_555
O7 S5 1.472213 1_555
O8 S7 1.475258 1_555
O9 S6 1.471502 1_555
O10 Si2 1.616031 1_555
O11 Si3 1.629295 1_555
O12 Si2 1.654889 1_565
O13 Si3 1.642764 1_565
O14 S4 1.482028 1_555
O15 S5 1.475752 1_555
O16 S6 1.481955 1_455
O17 S7 1.496576 1_555
O18 Si0 1.642474 1_555
O19 Si1 1.652649 1_555
O20 S2 1.491020 1_455
O21 S3 1.491310 1_555
O22 S0 1.495059 1_565
O23 S1 1.492599 1_565
O24 S8 1.489023 1_555
O25 S9 1.498081 1_555
O26 Si4 1.659002 1_555
O27 Si5 1.648583 1_555
O28 S10 1.481544 1_555
O29 S11 1.490145 1_555
O30 S12 1.482660 1_555
O31 S13 1.484308 1_555
O32 S14 1.475236 1_555
O33 S15 1.475860 1_555
O34 Si6 1.648989 1_555
O35 Si7 1.646298 1_555
O36 Si6 1.643015 1_555
O37 Si7 1.645318 1_555
O38 S12 1.478579 1_555
O39 S13 1.478555 1_555
O40 S14 1.476608 1_555
O41 S15 1.478027 1_555
O42 Si4 1.625945 1_555
O43 Si5 1.644562 1_555
O44 S10 1.485788 1_555
O45 S11 1.478206 1_555
O46 S8 1.471797 1_555
O47 S9 1.479876 1_555
O48 S16 1.486783 1_555
O49 S17 1.485124 1_555
O50 S18 1.482908 1_555
O51 S19 1.482635 1_555
O52 S20 1.484361 1_555
O53 S21 1.484338 1_555
O54 S22 1.486182 1_555
O55 S23 1.487646 1_555
O56 S24 1.476160 1_555
O57 S25 1.470175 1_555
O58 S26 1.481195 1_555
O59 Si8 1.651690 1_555
O60 S26 1.492797 1_555
O61 Si8 1.645735 1_555
O62 S22 1.485581 1_555
O63 S23 1.483945 1_555
O64 S24 1.505879 1_555
O65 S25 1.486149 1_555
O66 S18 1.492991 1_555
O67 S19 1.482178 1_555
O68 S20 1.500803 1_555
O69 S21 1.499230 1_555
O70 S16 1.496793 1_555
O71 S17 1.494718 1_555
O72 S26 1.492797 1_555
O73 Si8 1.670430 1_555
O74 S22 1.492924 1_555
O75 S23 1.480268 1_555
O76 S24 1.478926 1_555
O77 S25 1.489264 1_555
O78 S18 1.489731 1_555
O79 S19 1.490304 1_555
O80 S20 1.481103 1_555
O81 S21 1.480633 1_555
O82 S16 1.481923 1_555
O83 S17 1.486436 1_555
O84 S8 1.492376 1_555
O85 S9 1.493673 1_555
O86 Si4 1.646393 1_565
O87 Si5 1.656355 1_565
O88 S10 1.516375 1_555
O89 S11 1.500951 1_555
O90 S12 1.509389 1_555
O91 S13 1.508051 1_555
O92 S14 1.501379 1_565
O93 S15 1.501905 1_565
O94 Si6 1.657816 1_555
O95 Si7 1.656717 1_555
O96 Si2 1.647497 1_555
O97 Si3 1.670003 1_555
O98 S4 1.489700 1_555
O99 S5 1.504686 1_555
O100 S7 1.488990 1_555
O101 S6 1.499146 1_555
O102 Si0 1.664212 1_555
O103 Si1 1.673270 1_555
O104 S3 1.485847 1_555
O105 S2 1.483006 1_555
O106 S0 1.485073 1_555
O107 S1 1.488758 1_555
O108 S16 1.487235 1_555
O109 S17 1.492606 1_555
O110 S19 1.484827 1_555
O111 S18 1.484835 1_655
O112 S20 1.494621 1_545
O113 S21 1.501078 1_545
O114 S22 1.474766 1_545
O115 S23 1.500850 1_545
O116 S24 1.503724 1_555
O117 S25 1.519598 1_555
O118 Si8 1.649384 1_555
O119 S26 1.493074 1_655
O120 Si6 1.655444 1_555
O121 Si7 1.652328 1_555
O122 S13 1.494089 1_455
O123 S12 1.492320 1_555
O124 S14 1.508183 1_565
O125 S15 1.506567 1_565
O126 Si4 1.656243 1_565
O127 Si5 1.665642 1_565
O128 S10 1.485281 1_555
O129 S11 1.487711 1_555
O130 S9 1.477325 1_455
O131 S8 1.486010 1_555
O132 S0 1.498113 1_565
O133 S1 1.487900 1_565
O134 Si0 1.669385 1_555
O135 Si1 1.657550 1_555
O136 S2 1.515421 1_455
O137 S3 1.510715 1_555
O138 S4 1.509307 1_555
O139 S5 1.499953 1_555
O140 S6 1.508630 1_455
O141 S7 1.499157 1_555
O142 Si2 1.702391 1_565
O143 Si3 1.674033 1_565
