# generated using pymatgen
data_Mg(TiS3)2
_symmetry_space_group_name_H-M   'P 1'
_cell_length_a   3.42033201
_cell_length_b   5.02926364
_cell_length_c   9.30552394
_cell_angle_alpha   89.85926360
_cell_angle_beta   90.00000000
_cell_angle_gamma   90.00000000
_symmetry_Int_Tables_number   1
_chemical_formula_structural   Mg(TiS3)2
_chemical_formula_sum   'Mg1 Ti2 S6'
_cell_volume   160.07082689
_cell_formula_units_Z   1
loop_
 _symmetry_equiv_pos_site_id
 _symmetry_equiv_pos_as_xyz
  1  'x, y, z'
loop_
 _atom_site_type_symbol
 _atom_site_label
 _atom_site_symmetry_multiplicity
 _atom_site_fract_x
 _atom_site_fract_y
 _atom_site_fract_z
 _atom_site_occupancy
  Mg  Mg0  1  0.75000000  0.24345607  0.02922272  1
  Ti  Ti0  1  0.25000000  0.73831085  0.65141905  1
  Ti  Ti1  1  0.75000000  0.24232500  0.35357515  1
  S  S0  1  0.25000000  0.99139752  0.19154881  1
  S  S1  1  0.75000000  0.97613966  0.79986454  1
  S  S2  1  0.75000000  0.74016035  0.45821041  1
  S  S3  1  0.25000000  0.23927656  0.54021328  1
  S  S4  1  0.75000000  0.49602844  0.79812666  1
  S  S5  1  0.25000000  0.49540555  0.19170839  1
loop_
_geom_bond_atom_site_label_1
_geom_bond_atom_site_label_2
_geom_bond_distance
_geom_bond_site_symmetry_2
Mg0 S4 2.494924 1_554
Mg0 S1 2.525222 1_544
Mg0 S0 2.608437 1_545
Mg0 S0 2.608437 1_645
Mg0 S5 2.612635 1_655
Mg0 S5 2.612635 1_555
S0 Ti1 2.607660 1_565
S0 Ti1 2.607660 1_465
S1 Ti0 2.504319 1_555
S1 Ti0 2.504319 1_655
S2 Ti0 2.481359 1_655
S2 Ti0 2.481359 1_555
S2 Ti1 2.688639 1_555
S2 Ti1 2.704483 1_565
S3 Ti1 2.437443 1_455
S3 Ti1 2.437443 1_555
S3 Ti0 2.717094 1_555
S3 Ti0 2.721375 1_545
S4 Ti0 2.502996 1_555
S4 Ti0 2.502996 1_655
S5 Ti1 2.608466 1_455
S5 Ti1 2.608466 1_555
