# generated using pymatgen
data_LiSn(PO3)4
_symmetry_space_group_name_H-M   'P 1'
_cell_length_a   8.38828700
_cell_length_b   9.94393200
_cell_length_c   13.16651900
_cell_angle_alpha   90.00000000
_cell_angle_beta   90.00000000
_cell_angle_gamma   90.00000000
_symmetry_Int_Tables_number   1
_chemical_formula_structural   LiSn(PO3)4
_chemical_formula_sum   'Li4 Sn4 P16 O48'
_cell_volume   1098.25299715
_cell_formula_units_Z   4
loop_
 _symmetry_equiv_pos_site_id
 _symmetry_equiv_pos_as_xyz
  1  'x, y, z'
loop_
 _atom_site_type_symbol
 _atom_site_label
 _atom_site_symmetry_multiplicity
 _atom_site_fract_x
 _atom_site_fract_y
 _atom_site_fract_z
 _atom_site_occupancy
  Li  Li0  1  0.00983200  0.25000000  0.00000000  1
  Li  Li1  1  0.99016800  0.75000000  0.00000000  1
  Li  Li2  1  0.49016800  0.75000000  0.50000000  1
  Li  Li3  1  0.50983200  0.25000000  0.50000000  1
  Sn  Sn0  1  0.38111200  0.75000000  0.00000000  1
  Sn  Sn1  1  0.61888800  0.25000000  0.00000000  1
  Sn  Sn2  1  0.11888800  0.25000000  0.50000000  1
  Sn  Sn3  1  0.88111200  0.75000000  0.50000000  1
  P  P0  1  0.16980100  0.50609000  0.13200300  1
  P  P1  1  0.83019900  0.00609000  0.13200300  1
  P  P2  1  0.46920400  0.00704600  0.15940300  1
  P  P3  1  0.53079600  0.50704600  0.15940300  1
  P  P4  1  0.03079600  0.50704600  0.34059700  1
  P  P5  1  0.96920400  0.00704600  0.34059700  1
  P  P6  1  0.33019900  0.00609000  0.36799700  1
  P  P7  1  0.66980100  0.50609000  0.36799700  1
  P  P8  1  0.33019900  0.49391000  0.63200300  1
  P  P9  1  0.66980100  0.99391000  0.63200300  1
  P  P10  1  0.03079600  0.99295400  0.65940300  1
  P  P11  1  0.96920400  0.49295400  0.65940300  1
  P  P12  1  0.46920400  0.49295400  0.84059700  1
  P  P13  1  0.53079600  0.99295400  0.84059700  1
  P  P14  1  0.16980100  0.99391000  0.86799700  1
  P  P15  1  0.83019900  0.49391000  0.86799700  1
  O  O0  1  0.17616300  0.62871200  0.06213300  1
  O  O1  1  0.82383700  0.12871200  0.06213300  1
  O  O2  1  0.44630500  0.11689400  0.08116000  1
  O  O3  1  0.55369500  0.61689400  0.08116000  1
  O  O4  1  0.09758000  0.37972200  0.09512600  1
  O  O5  1  0.90242000  0.87972200  0.09512600  1
  O  O6  1  0.38108700  0.87706300  0.13984900  1
  O  O7  1  0.61891300  0.37706300  0.13984900  1
  O  O8  1  0.34574700  0.47586000  0.17646700  1
  O  O9  1  0.65425300  0.97586000  0.17646700  1
  O  O10  1  0.08183400  0.56510400  0.23215800  1
  O  O11  1  0.91816600  0.06510400  0.23215800  1
  O  O12  1  0.41816600  0.06510400  0.26784200  1
  O  O13  1  0.58183400  0.56510400  0.26784200  1
  O  O14  1  0.15425300  0.97586000  0.32353300  1
  O  O15  1  0.84574700  0.47586000  0.32353300  1
  O  O16  1  0.11891300  0.37706300  0.36015100  1
  O  O17  1  0.88108700  0.87706300  0.36015100  1
  O  O18  1  0.40242000  0.87972200  0.40487400  1
  O  O19  1  0.59758000  0.37972200  0.40487400  1
  O  O20  1  0.05369500  0.61689400  0.41884000  1
  O  O21  1  0.94630500  0.11689400  0.41884000  1
  O  O22  1  0.32383700  0.12871200  0.43786700  1
  O  O23  1  0.67616300  0.62871200  0.43786700  1
  O  O24  1  0.32383700  0.37128800  0.56213300  1
  O  O25  1  0.67616300  0.87128800  0.56213300  1
  O  O26  1  0.05369500  0.88310600  0.58116000  1
  O  O27  1  0.94630500  0.38310600  0.58116000  1
  O  O28  1  0.40242000  0.62027800  0.59512600  1
  O  O29  1  0.59758000  0.12027800  0.59512600  1
  O  O30  1  0.11891300  0.12293700  0.63984900  1
  O  O31  1  0.88108700  0.62293700  0.63984900  1
  O  O32  1  0.15425300  0.52414000  0.67646700  1
  O  O33  1  0.84574700  0.02414000  0.67646700  1
  O  O34  1  0.41816600  0.43489600  0.73215800  1
  O  O35  1  0.58183400  0.93489600  0.73215800  1
  O  O36  1  0.08183400  0.93489600  0.76784200  1
  O  O37  1  0.91816600  0.43489600  0.76784200  1
  O  O38  1  0.34574700  0.02414000  0.82353300  1
  O  O39  1  0.65425300  0.52414000  0.82353300  1
  O  O40  1  0.38108700  0.62293700  0.86015100  1
  O  O41  1  0.61891300  0.12293700  0.86015100  1
  O  O42  1  0.09758000  0.12027800  0.90487400  1
  O  O43  1  0.90242000  0.62027800  0.90487400  1
  O  O44  1  0.44630500  0.38310600  0.91884000  1
  O  O45  1  0.55369500  0.88310600  0.91884000  1
  O  O46  1  0.17616300  0.87128800  0.93786700  1
  O  O47  1  0.82383700  0.37128800  0.93786700  1
loop_
_geom_bond_atom_site_label_1
_geom_bond_atom_site_label_2
_geom_bond_distance
_geom_bond_site_symmetry_2
Li0 O4 1.942792 1_555
Li0 O42 1.942792 1_554
Li0 O47 2.134956 1_454
Li0 O1 2.134956 1_455
Li1 O5 1.942792 1_555
Li1 O43 1.942792 1_554
Li1 O0 2.134956 1_655
Li1 O46 2.134956 1_654
Li2 O18 1.942792 1_555
Li2 O28 1.942792 1_555
Li2 O25 2.134956 1_555
Li2 O23 2.134956 1_555
Li3 O19 1.942792 1_555
Li3 O29 1.942792 1_555
Li3 O24 2.134956 1_555
Li3 O22 2.134956 1_555
O0 P0 1.528381 1_555
O0 Sn0 2.253758 1_555
O1 P1 1.528381 1_555
O1 Sn1 2.253758 1_555
O2 P2 1.513720 1_555
O2 Sn1 2.233734 1_555
O3 P3 1.513720 1_555
O3 Sn0 2.233734 1_555
O4 P0 1.477088 1_555
O5 P1 1.477088 1_565
O6 P2 1.511057 1_565
O6 Sn0 2.233142 1_555
O7 P3 1.511057 1_555
O7 Sn1 2.233142 1_555
O8 P3 1.598784 1_555
O8 P0 1.615963 1_555
O9 P2 1.598784 1_565
O9 P1 1.615963 1_565
O10 P4 1.598469 1_555
O10 P0 1.621051 1_555
O11 P5 1.598469 1_555
O11 P1 1.621051 1_555
O12 P2 1.598469 1_555
O12 P6 1.621051 1_555
O13 P3 1.598469 1_555
O13 P7 1.621051 1_555
O14 P5 1.598784 1_465
O14 P6 1.615963 1_565
O15 P4 1.598784 1_655
O15 P7 1.615963 1_555
O16 P4 1.511057 1_555
O16 Sn2 2.233142 1_555
O17 P5 1.511057 1_565
O17 Sn3 2.233142 1_555
O18 P6 1.477088 1_565
O19 P7 1.477088 1_555
O20 P4 1.513720 1_555
O20 Sn3 2.233734 1_455
O21 P5 1.513720 1_555
O21 Sn2 2.233734 1_655
O22 P6 1.528381 1_555
O22 Sn2 2.253758 1_555
O23 P7 1.528381 1_555
O23 Sn3 2.253758 1_555
O24 P8 1.528381 1_555
O24 Sn2 2.253758 1_555
O25 P9 1.528381 1_555
O25 Sn3 2.253758 1_555
O26 P10 1.513720 1_555
O26 Sn3 2.233734 1_455
O27 P11 1.513720 1_555
O27 Sn2 2.233734 1_655
O28 P8 1.477088 1_555
O29 P9 1.477088 1_545
O30 P10 1.511057 1_545
O30 Sn2 2.233142 1_555
O31 P11 1.511057 1_555
O31 Sn3 2.233142 1_555
O32 P11 1.598784 1_455
O32 P8 1.615963 1_555
O33 P10 1.598784 1_645
O33 P9 1.615963 1_545
O34 P12 1.598469 1_555
O34 P8 1.621051 1_555
O35 P13 1.598469 1_555
O35 P9 1.621051 1_555
O36 P10 1.598469 1_555
O36 P14 1.621051 1_555
O37 P11 1.598469 1_555
O37 P15 1.621051 1_555
O38 P13 1.598784 1_545
O38 P14 1.615963 1_545
O39 P12 1.598784 1_555
O39 P15 1.615963 1_555
O40 P12 1.511057 1_555
O40 Sn0 2.233142 1_556
O41 P13 1.511057 1_545
O41 Sn1 2.233142 1_556
O42 P14 1.477088 1_545
O43 P15 1.477088 1_555
O44 P12 1.513720 1_555
O44 Sn1 2.233734 1_556
O45 P13 1.513720 1_555
O45 Sn0 2.233734 1_556
O46 P14 1.528381 1_555
O46 Sn0 2.253758 1_556
O47 P15 1.528381 1_555
O47 Sn1 2.253758 1_556
