# generated using pymatgen
data_SrIn2Ir
_symmetry_space_group_name_H-M   'P 1'
_cell_length_a   5.95985888
_cell_length_b   5.95985888
_cell_length_c   8.05724384
_cell_angle_alpha   90.00000000
_cell_angle_beta   90.00000000
_cell_angle_gamma   137.11423014
_symmetry_Int_Tables_number   1
_chemical_formula_structural   SrIn2Ir
_chemical_formula_sum   'Sr2 In4 Ir2'
_cell_volume   194.76522767
_cell_formula_units_Z   2
loop_
 _symmetry_equiv_pos_site_id
 _symmetry_equiv_pos_as_xyz
  1  'x, y, z'
loop_
 _atom_site_type_symbol
 _atom_site_label
 _atom_site_symmetry_multiplicity
 _atom_site_fract_x
 _atom_site_fract_y
 _atom_site_fract_z
 _atom_site_occupancy
  Sr  Sr0  1  0.93948240  0.06051760  0.75000000  1
  Sr  Sr1  1  0.06051760  0.93948240  0.25000000  1
  In  In0  1  0.65667779  0.34332221  0.94632582  1
  In  In1  1  0.65667779  0.34332221  0.55367418  1
  In  In2  1  0.34332221  0.65667779  0.05367418  1
  In  In3  1  0.34332221  0.65667779  0.44632582  1
  Ir  Ir0  1  0.21810221  0.78189779  0.75000000  1
  Ir  Ir1  1  0.78189779  0.21810221  0.25000000  1
loop_
_geom_bond_atom_site_label_1
_geom_bond_atom_site_label_2
_geom_bond_distance
_geom_bond_site_symmetry_2
In0 Ir0 2.777351 1_545
In0 Ir0 2.777351 1_655
In0 Ir1 2.813681 1_556
In0 Sr1 3.445569 1_656
In0 Sr1 3.445569 1_546
In0 Sr0 3.513817 1_555
In0 Sr0 3.613303 1_565
In0 Sr0 3.613303 1_455
In1 Ir0 2.777351 1_545
In1 Ir0 2.777351 1_655
In1 Ir1 2.813681 1_555
In1 Sr1 3.445569 1_655
In1 Sr1 3.445569 1_545
In1 Sr0 3.513817 1_555
In1 Sr0 3.613303 1_565
In1 Sr0 3.613303 1_455
In2 Ir1 2.777351 1_565
In2 Ir1 2.777351 1_455
In2 Ir0 2.813681 1_554
In2 Sr0 3.445569 1_564
In2 Sr0 3.445569 1_454
In2 Sr1 3.513817 1_555
In2 Sr1 3.613303 1_655
In2 Sr1 3.613303 1_545
In3 Ir1 2.777351 1_565
In3 Ir1 2.777351 1_455
In3 Ir0 2.813681 1_555
In3 Sr0 3.445569 1_565
In3 Sr0 3.445569 1_455
In3 Sr1 3.513817 1_555
In3 Sr1 3.613303 1_655
In3 Sr1 3.613303 1_545
Ir0 Sr0 3.091193 1_465
Ir0 Sr0 3.283237 1_565
Ir0 Sr0 3.283237 1_455
Ir1 Sr1 3.091193 1_645
Ir1 Sr1 3.283237 1_655
Ir1 Sr1 3.283237 1_545
