# generated using pymatgen
data_Na6MgV2(SO3)2
_symmetry_space_group_name_H-M   'P 1'
_cell_length_a   6.67039835
_cell_length_b   6.67039827
_cell_length_c   6.67039753
_cell_angle_alpha   82.83777678
_cell_angle_beta   82.83777672
_cell_angle_gamma   82.83776634
_symmetry_Int_Tables_number   1
_chemical_formula_structural   Na6MgV2(SO3)2
_chemical_formula_sum   'Na6 Mg1 V2 S2 O6'
_cell_volume   290.37955187
_cell_formula_units_Z   1
loop_
 _symmetry_equiv_pos_site_id
 _symmetry_equiv_pos_as_xyz
  1  'x, y, z'
loop_
 _atom_site_type_symbol
 _atom_site_label
 _atom_site_symmetry_multiplicity
 _atom_site_fract_x
 _atom_site_fract_y
 _atom_site_fract_z
 _atom_site_occupancy
  Na  Na0  1  0.74624317  0.06468509  0.39843246  1
  Na  Na1  1  0.58721404  0.20043118  0.91099042  1
  Na  Na2  1  0.20043118  0.91099042  0.58721404  1
  Na  Na3  1  0.39843246  0.74624317  0.06468509  1
  Na  Na4  1  0.06468509  0.39843246  0.74624317  1
  Na  Na5  1  0.91099042  0.58721404  0.20043118  1
  Mg  Mg0  1  0.33302463  0.33302463  0.33302463  1
  V  V0  1  0.68636289  0.68636289  0.68636289  1
  V  V1  1  0.15030057  0.15030057  0.15030057  1
  S  S0  1  0.51062387  0.51062387  0.51062387  1
  S  S1  1  0.97176362  0.97176362  0.97176362  1
  O  O0  1  0.53957193  0.91278121  0.72253568  1
  O  O1  1  0.72253568  0.53957192  0.91278121  1
  O  O2  1  0.91278121  0.72253568  0.53957193  1
  O  O3  1  0.23076473  0.42008072  0.05590680  1
  O  O4  1  0.42008072  0.05590680  0.23076473  1
  O  O5  1  0.05590680  0.23076473  0.42008072  1
loop_
_geom_bond_atom_site_label_1
_geom_bond_atom_site_label_2
_geom_bond_distance
_geom_bond_site_symmetry_2
Na0 O5 2.489900 1_655
Na0 O2 2.534157 1_545
Na0 O4 2.577305 1_555
Na0 O0 2.580675 1_545
Na0 S1 3.144348 1_544
Na1 O4 2.425757 1_556
Na1 O0 2.493168 1_545
Na1 O1 2.539901 1_555
Na1 O3 2.765088 1_556
Na1 S1 2.863581 1_545
Na1 S0 3.220726 1_555
Na2 O5 2.425757 1_565
Na2 O2 2.493168 1_455
Na2 O0 2.539901 1_555
Na2 O4 2.765088 1_565
Na2 S1 2.863581 1_455
Na2 S0 3.220726 1_555
Na3 O4 2.489900 1_565
Na3 O0 2.534157 1_554
Na3 O3 2.577305 1_555
Na3 O1 2.580675 1_554
Na3 S1 3.144348 1_454
Na4 O3 2.489900 1_556
Na4 O1 2.534157 1_455
Na4 O5 2.577304 1_555
Na4 O2 2.580675 1_455
Na4 S1 3.144349 1_445
Na5 O3 2.425757 1_655
Na5 O1 2.493168 1_554
Na5 O2 2.539900 1_555
Na5 O5 2.765088 1_655
Na5 S1 2.863581 1_554
Na5 S0 3.220726 1_555
Mg0 O3 2.041413 1_555
Mg0 O4 2.041413 1_555
Mg0 O5 2.041413 1_555
Mg0 S0 2.293491 1_555
S0 V0 2.269468 1_555
S1 V1 2.305600 1_666
O0 V0 1.720805 1_555
O1 V0 1.720805 1_555
O2 V0 1.720806 1_555
O3 V1 1.948567 1_555
O4 V1 1.948567 1_555
O5 V1 1.948567 1_555
