# generated using pymatgen
data_Na18Ca20Nb4Si3(S11O48)3
_symmetry_space_group_name_H-M   'P 1'
_cell_length_a   18.38560881
_cell_length_b   9.19887019
_cell_length_c   23.96934026
_cell_angle_alpha   90.04072720
_cell_angle_beta   90.09535437
_cell_angle_gamma   119.88746326
_symmetry_Int_Tables_number   1
_chemical_formula_structural   Na18Ca20Nb4Si3(S11O48)3
_chemical_formula_sum   'Na18 Ca20 Nb4 Si3 S33 O144'
_cell_volume   3514.70843086
_cell_formula_units_Z   1
loop_
 _symmetry_equiv_pos_site_id
 _symmetry_equiv_pos_as_xyz
  1  'x, y, z'
loop_
 _atom_site_type_symbol
 _atom_site_label
 _atom_site_symmetry_multiplicity
 _atom_site_fract_x
 _atom_site_fract_y
 _atom_site_fract_z
 _atom_site_occupancy
  Na  Na0  1  0.31870550  0.99836746  0.25468539  1
  Na  Na1  1  0.81838519  0.99905453  0.24862022  1
  Na  Na2  1  0.18007757  0.36449415  0.26358776  1
  Na  Na3  1  0.68239211  0.36651879  0.25954333  1
  Na  Na4  1  0.68018481  0.99760184  0.75168551  1
  Na  Na5  1  0.98805690  0.68426779  0.92448300  1
  Na  Na6  1  0.01117693  0.02748165  0.49332222  1
  Na  Na7  1  0.51180797  0.02854452  0.49338678  1
  Na  Na8  1  0.99742825  0.99805354  0.00162180  1
  Na  Na9  1  0.51199699  0.01073722  0.00045879  1
  Na  Na10  1  0.33718232  0.34752138  0.82618178  1
  Na  Na11  1  0.82657315  0.32535101  0.83583751  1
  Na  Na12  1  0.33755050  0.35420048  0.33831932  1
  Na  Na13  1  0.83739989  0.35457207  0.33520295  1
  Na  Na14  1  0.15033806  0.66260470  0.16549696  1
  Na  Na15  1  0.66503601  0.66664565  0.16045226  1
  Na  Na16  1  0.16496571  0.65732837  0.65751620  1
  Na  Na17  1  0.66434543  0.64653677  0.66549560  1
  Ca  Ca0  1  0.00308606  0.00046723  0.35453600  1
  Ca  Ca1  1  0.50431212  0.00145931  0.35456991  1
  Ca  Ca2  1  0.99862125  0.00513317  0.84801689  1
  Ca  Ca3  1  0.50081452  0.00039221  0.85121966  1
  Ca  Ca4  1  0.00168698  0.00838150  0.64560570  1
  Ca  Ca5  1  0.49703140  0.99894517  0.64370103  1
  Ca  Ca6  1  0.00081421  0.99356559  0.14794387  1
  Ca  Ca7  1  0.50120555  0.99350066  0.14677561  1
  Ca  Ca8  1  0.33352635  0.33445341  0.68520548  1
  Ca  Ca9  1  0.83770712  0.34129318  0.68377822  1
  Ca  Ca10  1  0.33896500  0.34528214  0.18331851  1
  Ca  Ca11  1  0.83480072  0.34085265  0.17844881  1
  Ca  Ca12  1  0.82842135  0.32461593  0.98592130  1
  Ca  Ca13  1  0.16580956  0.66685254  0.01913764  1
  Ca  Ca14  1  0.67244348  0.67302916  0.01599437  1
  Ca  Ca15  1  0.16556910  0.65798662  0.51460445  1
  Ca  Ca16  1  0.66539142  0.65773377  0.51559338  1
  Ca  Ca17  1  0.16414664  0.65302250  0.33015173  1
  Ca  Ca18  1  0.66507904  0.65428294  0.32943925  1
  Ca  Ca19  1  0.66408625  0.65467099  0.81946674  1
  Nb  Nb0  1  0.32853085  0.32202121  0.98068496  1
  Nb  Nb1  1  0.32959467  0.33311611  0.48218321  1
  Nb  Nb2  1  0.82933828  0.33308655  0.48232655  1
  Nb  Nb3  1  0.17017791  0.67832289  0.81825318  1
  Si  Si0  1  0.16633001  0.96158993  0.91917959  1
  Si  Si1  1  0.16455401  0.35682369  0.41612662  1
  Si  Si2  1  0.66414532  0.35707624  0.41638766  1
  S  S0  1  0.15279615  0.00034296  0.24898641  1
  S  S1  1  0.65226412  0.99905500  0.24903144  1
  S  S2  1  0.34735237  0.70293444  0.24956162  1
  S  S3  1  0.84757608  0.70055233  0.25035469  1
  S  S4  1  0.00018681  0.29799084  0.24900668  1
  S  S5  1  0.49959209  0.29519341  0.24949391  1
  S  S6  1  0.15195338  0.31536218  0.75376014  1
  S  S7  1  0.64902132  0.29629278  0.74894804  1
  S  S8  1  0.00623843  0.69929194  0.75539313  1
  S  S9  1  0.50117374  0.70299692  0.74991934  1
  S  S10  1  0.34517849  0.99072534  0.75403450  1
  S  S11  1  0.84633826  0.99743983  0.74888947  1
  S  S12  1  0.47716994  0.33234093  0.58175988  1
  S  S13  1  0.97874734  0.33373007  0.58126527  1
  S  S14  1  0.18945643  0.04535383  0.58132347  1
  S  S15  1  0.68883282  0.04452388  0.58204242  1
  S  S16  1  0.33434184  0.62297957  0.58116684  1
  S  S17  1  0.83549939  0.62556443  0.58113482  1
  S  S18  1  0.47718875  0.62274023  0.07715267  1
  S  S19  1  0.98664554  0.63799411  0.08068989  1
  S  S20  1  0.33470290  0.04615428  0.08116960  1
  S  S21  1  0.83393059  0.02861506  0.08586004  1
  S  S22  1  0.18941409  0.33150636  0.08072382  1
  S  S23  1  0.67930755  0.33441960  0.08532445  1
  S  S24  1  0.31099375  0.65543500  0.91717318  1
  S  S25  1  0.81949243  0.66381669  0.91655618  1
  S  S26  1  0.02338146  0.38422371  0.91319330  1
  S  S27  1  0.51066103  0.36384367  0.92171345  1
  S  S28  1  0.66656516  0.96956455  0.91451712  1
  S  S29  1  0.31808949  0.98099712  0.41899198  1
  S  S30  1  0.81767494  0.98053457  0.41944404  1
  S  S31  1  0.00903588  0.65516790  0.42160145  1
  S  S32  1  0.50932096  0.65510010  0.42144425  1
  O  O0  1  0.11087379  0.01732753  0.29876064  1
  O  O1  1  0.61013911  0.01667916  0.29861045  1
  O  O2  1  0.39607969  0.78319101  0.30014753  1
  O  O3  1  0.89567579  0.78025547  0.30137304  1
  O  O4  1  0.48864913  0.19224384  0.29950070  1
  O  O5  1  0.99021927  0.19541695  0.29906910  1
  O  O6  1  0.11009041  0.21000105  0.80225304  1
  O  O7  1  0.60751344  0.19812081  0.79997417  1
  O  O8  1  0.49269023  0.78424136  0.80078512  1
  O  O9  1  0.99684081  0.77780660  0.80612210  1
  O  O10  1  0.39649976  0.01044097  0.80332659  1
  O  O11  1  0.89356039  0.01199923  0.80028205  1
  O  O12  1  0.37747614  0.95977386  0.70246703  1
  O  O13  1  0.89026189  0.98558254  0.69903110  1
  O  O14  1  0.10302781  0.25031114  0.70198019  1
  O  O15  1  0.59918562  0.21090332  0.69867869  1
  O  O16  1  0.02368136  0.80296293  0.70526162  1
  O  O17  1  0.50822483  0.80383589  0.69975615  1
  O  O18  1  0.39027409  0.79894738  0.19877852  1
  O  O19  1  0.89087800  0.79915238  0.20014056  1
  O  O20  1  0.01130577  0.21698783  0.19863654  1
  O  O21  1  0.50763110  0.21151023  0.19886499  1
  O  O22  1  0.10548294  0.98631487  0.19761586  1
  O  O23  1  0.60376668  0.98191978  0.19769638  1
  O  O24  1  0.43621071  0.33866545  0.63377653  1
  O  O25  1  0.93847529  0.34166380  0.63327270  1
  O  O26  1  0.23486783  0.12544456  0.63301730  1
  O  O27  1  0.73206911  0.12048717  0.63513313  1
  O  O28  1  0.32775975  0.53076789  0.63269993  1
  O  O29  1  0.82840074  0.53331450  0.63283477  1
  O  O30  1  0.44011053  0.53493312  0.12959521  1
  O  O31  1  0.93944086  0.54012741  0.12978784  1
  O  O32  1  0.32867603  0.12373313  0.13319023  1
  O  O33  1  0.82897954  0.10746947  0.13899856  1
  O  O34  1  0.23330743  0.34102862  0.13289398  1
  O  O35  1  0.72329177  0.34395141  0.13853922  1
  O  O36  1  0.24359457  0.32777089  0.03094890  1
  O  O37  1  0.72655746  0.32559052  0.03683593  1
  O  O38  1  0.42058864  0.51578043  0.02856887  1
  O  O39  1  0.94319409  0.55526751  0.02765004  1
  O  O40  1  0.33595141  0.15930461  0.03158332  1
  O  O41  1  0.83875249  0.13146279  0.03706511  1
  O  O42  1  0.24117036  0.15465355  0.53164723  1
  O  O43  1  0.74317145  0.15849246  0.53378407  1
  O  O44  1  0.33668828  0.51855197  0.53155163  1
  O  O45  1  0.83825057  0.52057728  0.53178160  1
  O  O46  1  0.42444485  0.32755270  0.53219617  1
  O  O47  1  0.92611342  0.32816146  0.53188725  1
  O  O48  1  0.27212204  0.67434458  0.96718486  1
  O  O49  1  0.77757673  0.67393171  0.96725303  1
  O  O50  1  0.06939874  0.45508499  0.96478721  1
  O  O51  1  0.56424111  0.44825719  0.96954206  1
  O  O52  1  0.15360632  0.84460507  0.97026243  1
  O  O53  1  0.66166859  0.86633269  0.96294109  1
  O  O54  1  0.27140290  0.87376114  0.46545058  1
  O  O55  1  0.77139890  0.87339900  0.46596794  1
  O  O56  1  0.16079249  0.46643491  0.46592093  1
  O  O57  1  0.66063041  0.46634226  0.46640518  1
  O  O58  1  0.06334498  0.68319020  0.46928505  1
  O  O59  1  0.56332342  0.68288678  0.46926683  1
  O  O60  1  0.04043834  0.62006996  0.36954303  1
  O  O61  1  0.54048636  0.61965268  0.36945317  1
  O  O62  1  0.27114987  0.92389699  0.36523165  1
  O  O63  1  0.77087547  0.92398339  0.36585480  1
  O  O64  1  0.18842106  0.44892554  0.35516349  1
  O  O65  1  0.68764077  0.44775023  0.35526707  1
  O  O66  1  0.07744319  0.49928332  0.86433132  1
  O  O67  1  0.54001161  0.45910979  0.86957445  1
  O  O68  1  0.18322211  0.85867732  0.86234395  1
  O  O69  1  0.67023918  0.88949811  0.86123352  1
  O  O70  1  0.25651969  0.63183324  0.86600195  1
  O  O71  1  0.77054412  0.64841117  0.86589503  1
  O  O72  1  0.99054597  0.79199008  0.41579784  1
  O  O73  1  0.49038930  0.79135181  0.41564283  1
  O  O74  1  0.40243325  0.00316473  0.41500651  1
  O  O75  1  0.90240058  0.00355497  0.41535001  1
  O  O76  1  0.09085991  0.16480182  0.41654092  1
  O  O77  1  0.59063464  0.16470393  0.41723062  1
  O  O78  1  0.00980726  0.21613035  0.90476567  1
  O  O79  1  0.49345238  0.19038387  0.91717595  1
  O  O80  1  0.08777630  0.98367114  0.90631979  1
  O  O81  1  0.59058968  0.98931997  0.91583832  1
  O  O82  1  0.39484494  0.79846816  0.90870639  1
  O  O83  1  0.90515144  0.81723060  0.91463352  1
  O  O84  1  0.48183132  0.17574699  0.57913195  1
  O  O85  1  0.98403310  0.17754601  0.57918465  1
  O  O86  1  0.10787206  0.04037462  0.57901665  1
  O  O87  1  0.60742527  0.03939119  0.57827038  1
  O  O88  1  0.41333473  0.78413986  0.57811439  1
  O  O89  1  0.91500671  0.78662250  0.57901923  1
  O  O90  1  0.47889375  0.78481180  0.07420298  1
  O  O91  1  0.99558829  0.80780897  0.08126018  1
  O  O92  1  0.41325154  0.04295630  0.07635529  1
  O  O93  1  0.91063293  0.01226381  0.08492779  1
  O  O94  1  0.10863861  0.17673362  0.07582957  1
  O  O95  1  0.59488220  0.17971148  0.08424205  1
  O  O96  1  0.32716581  0.12914972  0.75060227  1
  O  O97  1  0.83431762  0.14760944  0.74659384  1
  O  O98  1  0.23779709  0.34168360  0.74945969  1
  O  O99  1  0.73264721  0.30383353  0.74684419  1
  O  O100  1  0.42802284  0.53027241  0.74744637  1
  O  O101  1  0.93546901  0.52903103  0.74980678  1
  O  O102  1  0.33145460  0.52657953  0.24651278  1
  O  O103  1  0.83240961  0.52502187  0.24681848  1
  O  O104  1  0.42141472  0.30830678  0.24598841  1
  O  O105  1  0.92219160  0.30994435  0.24472353  1
  O  O106  1  0.23820128  0.15848279  0.24640770  1
  O  O107  1  0.73728214  0.15750204  0.24606652  1
  O  O108  1  0.31680934  0.49522260  0.92180197  1
  O  O109  1  0.83296587  0.51560450  0.91836492  1
  O  O110  1  0.42314595  0.35045360  0.93212863  1
  O  O111  1  0.94491740  0.39204350  0.91044734  1
  O  O112  1  0.25424351  0.15133115  0.93052593  1
  O  O113  1  0.74381441  0.13837396  0.91679306  1
  O  O114  1  0.32842100  0.15593226  0.42923908  1
  O  O115  1  0.82815231  0.15567425  0.43007667  1
  O  O116  1  0.25469872  0.34383255  0.43448931  1
  O  O117  1  0.75441428  0.34340503  0.43490332  1
  O  O118  1  0.42340284  0.49415004  0.43119751  1
  O  O119  1  0.92340779  0.49460018  0.43131983  1
  O  O120  1  0.18360318  0.48323875  0.07469531  1
  O  O121  1  0.67006273  0.48584354  0.08265667  1
  O  O122  1  0.07092471  0.65147892  0.08382018  1
  O  O123  1  0.56077449  0.64181511  0.07125629  1
  O  O124  1  0.26044414  0.88117662  0.07530025  1
  O  O125  1  0.75708651  0.86017885  0.08335428  1
  O  O126  1  0.18136659  0.87984056  0.57565924  1
  O  O127  1  0.68150924  0.88028829  0.57538545  1
  O  O128  1  0.26050870  0.64374766  0.57677490  1
  O  O129  1  0.76169171  0.64538483  0.57620761  1
  O  O130  1  0.06271705  0.48468441  0.57884977  1
  O  O131  1  0.56093999  0.48276417  0.57922052  1
  O  O132  1  0.16726606  0.85461996  0.25256042  1
  O  O133  1  0.66706277  0.85403664  0.25328189  1
  O  O134  1  0.26329257  0.69461897  0.25171277  1
  O  O135  1  0.76326108  0.69176220  0.25229145  1
  O  O136  1  0.07683939  0.46782600  0.25335854  1
  O  O137  1  0.57582974  0.46405303  0.25341580  1
  O  O138  1  0.16088575  0.48924566  0.76397034  1
  O  O139  1  0.66089115  0.46768965  0.75181182  1
  O  O140  1  0.08637986  0.68126718  0.76419899  1
  O  O141  1  0.58112368  0.69601646  0.75248747  1
  O  O142  1  0.25892559  0.82694239  0.76385530  1
  O  O143  1  0.75972758  0.84686397  0.75081267  1
loop_
_geom_bond_atom_site_label_1
_geom_bond_atom_site_label_2
_geom_bond_distance
_geom_bond_site_symmetry_2
Na0 O132 2.415307 1_555
Na0 O134 2.452092 1_555
Na0 O104 2.524814 1_565
Na0 O106 2.563504 1_565
Na0 O62 2.769142 1_555
Na1 O133 2.415556 1_555
Na1 O135 2.484130 1_555
Na1 O105 2.528112 1_565
Na1 O107 2.552926 1_565
Na1 O33 2.783601 1_565
Na1 O63 2.923346 1_555
Na1 O19 2.992132 1_555
Na1 O5 3.000496 1_565
Na2 O64 2.307063 1_555
Na2 O102 2.450644 1_555
Na2 O136 2.522550 1_555
Na2 O106 2.630869 1_555
Na2 O134 2.648801 1_555
Na2 O0 2.913120 1_555
Na3 O65 2.399390 1_555
Na3 O103 2.412879 1_555
Na3 O137 2.533008 1_555
Na3 O107 2.598775 1_555
Na3 O135 2.600098 1_555
Na4 O141 2.445117 1_555
Na4 O97 2.460466 1_565
Na4 O143 2.466352 1_555
Na4 O99 2.484389 1_565
Na4 O69 2.782304 1_555
Na5 O83 2.394228 1_555
Na5 O111 2.416883 1_555
Na5 O80 2.471520 1_655
Na5 O109 2.479661 1_555
Na5 O39 2.690533 1_556
Na5 O52 2.855932 1_655
Na5 O9 2.946476 1_555
Na6 O76 2.301516 1_555
Na6 O85 2.660113 1_455
Na6 O75 2.662585 1_455
Na6 O86 2.677887 1_555
Na6 O72 2.731762 1_445
Na6 O89 2.892928 1_445
Na7 O77 2.281298 1_555
Na7 O87 2.655761 1_555
Na7 O84 2.665516 1_555
Na7 O74 2.673355 1_555
Na7 O73 2.742952 1_545
Na7 O88 2.901561 1_545
Na8 O91 2.579448 1_555
Na8 O94 2.584674 1_665
Na8 O93 2.601713 1_565
Na8 O83 2.676463 1_554
Na8 O80 2.868124 1_654
Na8 O78 3.003192 1_664
Na9 O95 2.529042 1_555
Na9 O81 2.556101 1_544
Na9 O90 2.561683 1_545
Na9 O92 2.690684 1_555
Na9 O79 2.719570 1_554
Na9 O82 3.012547 1_544
Na10 O100 2.528645 1_555
Na10 O98 2.571863 1_555
Na10 O96 2.641209 1_555
Na10 O108 2.782983 1_555
Na10 O110 2.981893 1_555
Na10 O112 3.018955 1_555
Na11 O113 2.538752 1_555
Na11 O109 2.603655 1_555
Na11 O111 2.638935 1_555
Na11 O99 2.686627 1_555
Na11 O97 2.738142 1_555
Na11 O101 2.837602 1_555
Na12 O118 2.657823 1_555
Na12 O116 2.740497 1_555
Na12 O102 2.747840 1_555
Na12 O114 2.793859 1_555
Na12 O104 2.848207 1_555
Na12 O106 2.852174 1_555
Na13 O103 2.665039 1_555
Na13 O119 2.724189 1_555
Na13 O107 2.809850 1_555
Na13 O117 2.811697 1_555
Na13 O105 2.819582 1_555
Na13 O115 2.871412 1_555
Na14 O122 2.411696 1_555
Na14 O132 2.648859 1_555
Na14 O136 2.659594 1_555
Na14 O134 2.836456 1_555
Na14 O124 2.962949 1_555
Na14 O120 2.972945 1_555
Na15 O121 2.530056 1_555
Na15 O125 2.541867 1_555
Na15 O135 2.780432 1_555
Na15 O123 2.801239 1_555
Na15 O133 2.802498 1_555
Na15 O137 2.846083 1_555
Na16 O130 2.572973 1_555
Na16 O128 2.660156 1_555
Na16 O126 2.742773 1_555
Na16 O138 2.966104 1_555
Na16 O140 3.000584 1_555
Na16 O142 3.034630 1_555
Na17 O139 2.625331 1_555
Na17 O131 2.699738 1_555
Na17 O143 2.723098 1_555
Na17 O141 2.756710 1_555
Na17 O129 2.795596 1_555
Na17 O127 2.953113 1_555
Ca0 O76 2.157758 1_555
Ca0 O0 2.332693 1_555
Ca0 O72 2.334874 1_445
Ca0 O5 2.337662 1_455
Ca0 O75 2.369334 1_455
Ca0 O3 2.372406 1_445
Ca1 O77 2.154846 1_555
Ca1 O1 2.311258 1_555
Ca1 O4 2.326154 1_555
Ca1 O73 2.335851 1_545
Ca1 O74 2.376041 1_555
Ca1 O2 2.387174 1_545
Ca2 O80 2.234747 1_645
Ca2 O6 2.261916 1_655
Ca2 O11 2.271247 1_555
Ca2 O78 2.292870 1_655
Ca2 O9 2.304572 1_545
Ca2 O83 2.354424 1_545
Ca3 O7 2.262887 1_555
Ca3 O8 2.266542 1_545
Ca3 O10 2.274682 1_555
Ca3 O81 2.300653 1_545
Ca3 O82 2.356003 1_545
Ca3 O79 2.409292 1_555
Ca4 O13 2.337010 1_445
Ca4 O85 2.359389 1_455
Ca4 O86 2.425687 1_555
Ca4 O89 2.448555 1_445
Ca4 O14 2.470858 1_555
Ca4 O16 2.557787 1_545
Ca5 O15 2.324704 1_565
Ca5 O17 2.332272 1_555
Ca5 O84 2.360850 1_565
Ca5 O88 2.387683 1_555
Ca5 O87 2.444676 1_565
Ca5 O12 2.483395 1_555
Ca6 O22 2.290350 1_555
Ca6 O19 2.293073 1_455
Ca6 O91 2.305605 1_455
Ca6 O93 2.310064 1_465
Ca6 O20 2.310446 1_565
Ca6 O94 2.538402 1_565
Ca7 O95 2.284561 1_565
Ca7 O23 2.291168 1_555
Ca7 O18 2.300066 1_555
Ca7 O21 2.313971 1_565
Ca7 O90 2.467290 1_555
Ca7 O92 2.529074 1_565
Ca8 O24 2.240587 1_555
Ca8 O28 2.247196 1_555
Ca8 O26 2.250555 1_555
Ca8 O100 2.314635 1_555
Ca8 O98 2.366370 1_555
Ca8 O96 2.412918 1_555
Ca9 O25 2.213400 1_555
Ca9 O29 2.223508 1_555
Ca9 O27 2.305415 1_555
Ca9 O97 2.310560 1_555
Ca9 O99 2.341365 1_555
Ca9 O101 2.368771 1_555
Ca10 O30 2.222138 1_555
Ca10 O34 2.269874 1_555
Ca10 O104 2.275318 1_555
Ca10 O32 2.290083 1_555
Ca10 O102 2.306814 1_555
Ca10 O106 2.347777 1_555
Ca11 O31 2.217618 1_555
Ca11 O35 2.273943 1_555
Ca11 O33 2.298350 1_555
Ca11 O103 2.372378 1_555
Ca11 O105 2.373475 1_555
Ca11 O107 2.384533 1_555
Ca12 O37 2.240814 1_556
Ca12 O41 2.243773 1_556
Ca12 O113 2.330626 1_555
Ca12 O39 2.341573 1_556
Ca12 O109 2.360907 1_555
Ca12 O111 2.633526 1_555
Ca13 O52 2.112784 1_554
Ca13 O50 2.276267 1_554
Ca13 O122 2.287031 1_555
Ca13 O48 2.291281 1_554
Ca13 O120 2.299061 1_555
Ca13 O124 2.301363 1_555
Ca14 O49 2.256718 1_554
Ca14 O53 2.274134 1_554
Ca14 O125 2.304369 1_555
Ca14 O51 2.315712 1_554
Ca14 O121 2.334310 1_555
Ca14 O123 2.339723 1_555
Ca15 O56 2.077683 1_555
Ca15 O58 2.279015 1_555
Ca15 O54 2.296948 1_555
Ca15 O130 2.344672 1_555
Ca15 O128 2.346088 1_555
Ca15 O126 2.407182 1_555
Ca16 O57 2.083388 1_555
Ca16 O59 2.287854 1_555
Ca16 O55 2.303678 1_555
Ca16 O129 2.334673 1_555
Ca16 O131 2.353141 1_555
Ca16 O127 2.392248 1_555
Ca17 O64 2.217934 1_555
Ca17 O60 2.340290 1_555
Ca17 O62 2.427402 1_555
Ca17 O136 2.475363 1_555
Ca17 O134 2.514243 1_555
Ca17 O132 2.607778 1_555
Ca18 O65 2.225093 1_555
Ca18 O61 2.355681 1_555
Ca18 O63 2.425370 1_555
Ca18 O135 2.487698 1_555
Ca18 O137 2.489802 1_555
Ca18 O133 2.578411 1_555
Ca19 O71 2.275505 1_555
Ca19 O69 2.331154 1_555
Ca19 O139 2.342362 1_555
Ca19 O141 2.370565 1_555
Ca19 O67 2.409349 1_555
Ca19 O143 2.416865 1_555
Nb0 O112 1.905499 1_555
Nb0 O40 1.988218 1_556
Nb0 O36 1.995350 1_556
Nb0 O110 2.000696 1_555
Nb0 O38 2.083988 1_556
Nb0 O108 2.218400 1_555
Nb1 O116 1.828376 1_555
Nb1 O42 2.023143 1_555
Nb1 O44 2.025323 1_555
Nb1 O118 2.031236 1_555
Nb1 O114 2.056546 1_555
Nb1 O46 2.136088 1_555
Nb2 O117 1.823163 1_555
Nb2 O43 2.020921 1_555
Nb2 O45 2.030132 1_555
Nb2 O119 2.035233 1_555
Nb2 O115 2.047903 1_555
Nb2 O47 2.156948 1_555
Nb3 O68 1.878032 1_555
Nb3 O142 2.004501 1_555
Nb3 O66 2.012377 1_555
Nb3 O140 2.021906 1_555
Nb3 O138 2.108832 1_555
Nb3 O70 2.164250 1_555
O0 S0 1.471287 1_555
O1 S1 1.471831 1_545
O2 S2 1.467579 1_555
O3 S3 1.471051 1_555
O4 S5 1.478705 1_555
O5 S4 1.481156 1_655
O6 S6 1.464221 1_555
O7 S7 1.487165 1_555
O8 S9 1.478132 1_555
O9 S8 1.467590 1_655
O10 S10 1.464445 1_545
O11 S11 1.472919 1_545
O12 S10 1.460104 1_555
O13 S11 1.477519 1_555
O14 S6 1.471876 1_555
O15 S7 1.478540 1_555
O16 S8 1.467758 1_555
O17 S9 1.485002 1_555
O18 S2 1.481416 1_555
O19 S3 1.479947 1_555
O20 S4 1.485274 1_555
O21 S5 1.483161 1_555
O22 S0 1.474392 1_565
O23 S1 1.479847 1_555
O24 S12 1.473666 1_555
O25 S13 1.471164 1_555
O26 S14 1.468808 1_555
O27 S15 1.476943 1_555
O28 S16 1.469558 1_555
O29 S17 1.471209 1_555
O30 S18 1.467230 1_555
O31 S19 1.474756 1_555
O32 S20 1.467760 1_555
O33 S21 1.490512 1_555
O34 S22 1.465837 1_555
O35 S23 1.488068 1_555
O36 S22 1.566815 1_555
O37 S23 1.478380 1_555
O38 S18 1.543060 1_555
O39 S19 1.490963 1_555
O40 S20 1.573085 1_555
O41 S21 1.479590 1_555
O42 S14 1.544491 1_555
O43 S15 1.548211 1_555
O44 S16 1.542333 1_555
O45 S17 1.543347 1_555
O46 S12 1.518733 1_555
O47 S13 1.512148 1_555
O48 S24 1.450678 1_555
O49 S25 1.467518 1_555
O50 S26 1.454586 1_555
O51 S27 1.456129 1_555
O52 Si0 1.569690 1_555
O53 S28 1.474379 1_555
O54 S29 1.452869 1_555
O55 S30 1.451818 1_555
O56 Si1 1.585572 1_555
O57 Si2 1.585894 1_555
O58 S31 1.452258 1_555
O59 S32 1.451877 1_555
O60 S31 1.477224 1_555
O61 S32 1.475007 1_555
O62 S29 1.491560 1_555
O63 S30 1.486672 1_555
O64 Si1 1.636760 1_555
O65 Si2 1.635043 1_555
O66 S26 1.561115 1_555
O67 S27 1.467491 1_555
O68 Si0 1.772326 1_555
O69 S28 1.492222 1_555
O70 S24 1.527563 1_555
O71 S25 1.474300 1_555
O72 S31 1.464756 1_655
O73 S32 1.465014 1_555
O74 S29 1.463145 1_545
O75 S30 1.467241 1_545
O76 Si1 1.603408 1_555
O77 Si2 1.604733 1_555
O78 S26 1.452184 1_555
O79 S27 1.467819 1_555
O80 Si0 1.585283 1_555
O81 S28 1.496113 1_555
O82 S24 1.459099 1_555
O83 S25 1.503114 1_555
O84 S12 1.486351 1_555
O85 S13 1.488338 1_555
O86 S14 1.478628 1_555
O87 S15 1.476385 1_555
O88 S16 1.472132 1_555
O89 S17 1.475265 1_555
O90 S18 1.477251 1_555
O91 S19 1.487074 1_555
O92 S20 1.463790 1_555
O93 S21 1.491085 1_555
O94 S22 1.462295 1_555
O95 S23 1.494550 1_555
O96 S10 1.469075 1_545
O97 S11 1.504805 1_545
O98 S6 1.476475 1_555
O99 S7 1.505083 1_555
O100 S9 1.485533 1_555
O101 S8 1.460173 1_655
O102 S2 1.499908 1_555
O103 S3 1.497715 1_555
O104 S5 1.503316 1_555
O105 S4 1.495201 1_655
O106 S0 1.519740 1_555
O107 S1 1.517482 1_545
O108 S24 1.533945 1_555
O109 S25 1.502895 1_555
O110 S27 1.571719 1_555
O111 S26 1.481127 1_655
O112 Si0 1.708584 1_545
O113 S28 1.494378 1_545
O114 S29 1.542921 1_545
O115 S30 1.545193 1_545
O116 Si1 1.774796 1_555
O117 Si2 1.781250 1_555
O118 S32 1.553361 1_555
O119 S31 1.548772 1_655
O120 S22 1.459214 1_555
O121 S23 1.486363 1_555
O122 S19 1.493347 1_455
O123 S18 1.464398 1_555
O124 S20 1.456393 1_565
O125 S21 1.489418 1_565
O126 S14 1.460350 1_565
O127 S15 1.457020 1_565
O128 S16 1.465709 1_555
O129 S17 1.461064 1_555
O130 S13 1.476123 1_455
O131 S12 1.472082 1_555
O132 S0 1.493491 1_565
O133 S1 1.491912 1_555
O134 S2 1.509803 1_555
O135 S3 1.512311 1_555
O136 S4 1.497599 1_555
O137 S5 1.488571 1_555
O138 S6 1.543659 1_555
O139 S7 1.481578 1_555
O140 S8 1.576574 1_555
O141 S9 1.504118 1_555
O142 S10 1.568686 1_555
O143 S11 1.502860 1_555
