# generated using pymatgen
data_Ba2TmMgCu3O7
_symmetry_space_group_name_H-M   'P 1'
_cell_length_a   3.71791200
_cell_length_b   3.92922700
_cell_length_c   14.62485600
_cell_angle_alpha   90.00000000
_cell_angle_beta   90.00000000
_cell_angle_gamma   90.00000000
_symmetry_Int_Tables_number   1
_chemical_formula_structural   Ba2TmMgCu3O7
_chemical_formula_sum   'Ba2 Tm1 Mg1 Cu3 O7'
_cell_volume   213.64750450
_cell_formula_units_Z   1
loop_
 _symmetry_equiv_pos_site_id
 _symmetry_equiv_pos_as_xyz
  1  'x, y, z'
loop_
 _atom_site_type_symbol
 _atom_site_label
 _atom_site_symmetry_multiplicity
 _atom_site_fract_x
 _atom_site_fract_y
 _atom_site_fract_z
 _atom_site_occupancy
  Ba  Ba0  1  0.50000000  0.50000000  0.08786300  1
  Ba  Ba1  1  0.50000000  0.50000000  0.77818300  1
  Tm  Tm0  1  0.50000000  0.50000000  0.52237800  1
  Mg  Mg0  1  0.50000000  0.00000000  0.27810500  1
  Cu  Cu0  1  0.00000000  0.00000000  0.63472300  1
  Cu  Cu1  1  0.00000000  0.00000000  0.42193400  1
  Cu  Cu2  1  0.00000000  0.00000000  0.93617900  1
  O  O0  1  0.50000000  0.00000000  0.41070900  1
  O  O1  1  0.00000000  0.00000000  0.80297900  1
  O  O2  1  0.50000000  0.00000000  0.60260300  1
  O  O3  1  0.00000000  0.50000000  0.43366400  1
  O  O4  1  0.00000000  0.50000000  0.62664600  1
  O  O5  1  0.00000000  0.00000000  0.21187300  1
  O  O6  1  0.00000000  0.50000000  0.97438500  1
loop_
_geom_bond_atom_site_label_1
_geom_bond_atom_site_label_2
_geom_bond_distance
_geom_bond_site_symmetry_2
Ba0 O6 2.491985 1_654
Ba0 O6 2.491985 1_554
Ba1 O1 2.728906 1_565
Ba1 O1 2.728906 1_665
Ba1 O1 2.728906 1_555
Ba1 O1 2.728906 1_655
Ba1 O4 2.892627 1_555
Ba1 O4 2.892627 1_655
Mg0 O0 1.939314 1_555
Mg0 O5 2.096179 1_555
Mg0 O5 2.096179 1_655
Cu0 O2 1.917390 1_455
Cu0 O2 1.917390 1_555
Cu0 O4 1.968162 1_555
Cu0 O4 1.968162 1_545
Cu0 O1 2.460720 1_555
Cu1 O0 1.866191 1_455
Cu1 O0 1.866191 1_555
Cu1 O3 1.972089 1_555
Cu1 O3 1.972089 1_545
Cu2 O1 1.948031 1_555
Cu2 O6 2.042527 1_545
Cu2 O6 2.042527 1_555
O0 Tm0 2.554772 1_545
O0 Tm0 2.554772 1_555
O2 Tm0 2.288294 1_545
O2 Tm0 2.288294 1_555
O3 Tm0 2.266945 1_555
O3 Tm0 2.266945 1_455
O4 Tm0 2.404382 1_555
O4 Tm0 2.404382 1_455
