# generated using pymatgen
data_Na4YNb3Si4(PO12)2
_symmetry_space_group_name_H-M   'P 1'
_cell_length_a   9.05911882
_cell_length_b   9.08393258
_cell_length_c   22.89390883
_cell_angle_alpha   90.08821295
_cell_angle_beta   89.95630701
_cell_angle_gamma   120.08058611
_symmetry_Int_Tables_number   1
_chemical_formula_structural   Na4YNb3Si4(PO12)2
_chemical_formula_sum   'Na12 Y3 Nb9 Si12 P6 O72'
_cell_volume   1630.25930253
_cell_formula_units_Z   3
loop_
 _symmetry_equiv_pos_site_id
 _symmetry_equiv_pos_as_xyz
  1  'x, y, z'
loop_
 _atom_site_type_symbol
 _atom_site_label
 _atom_site_symmetry_multiplicity
 _atom_site_fract_x
 _atom_site_fract_y
 _atom_site_fract_z
 _atom_site_occupancy
  Na  Na0  1  0.63219709  0.62488647  0.74642255  1
  Na  Na1  1  0.99547089  0.37221419  0.74692873  1
  Na  Na2  1  0.31634557  0.97662866  0.08470929  1
  Na  Na3  1  0.02474237  0.34388981  0.08438077  1
  Na  Na4  1  0.96344273  0.29336230  0.41342823  1
  Na  Na5  1  0.70562394  0.67745373  0.41602119  1
  Na  Na6  1  0.00829102  0.99426725  0.50227159  1
  Na  Na7  1  0.98836313  0.98811068  0.99553554  1
  Na  Na8  1  0.64972199  0.31538424  0.83467778  1
  Na  Na9  1  0.65309620  0.32067949  0.32545921  1
  Na  Na10  1  0.34778964  0.66436383  0.16555577  1
  Na  Na11  1  0.33329541  0.67352957  0.66629056  1
  Y  Y0  1  0.00764489  0.99969478  0.35453365  1
  Y  Y1  1  0.65784226  0.32524026  0.68563094  1
  Y  Y2  1  0.66794846  0.33648490  0.18245737  1
  Nb  Nb0  1  0.00407565  0.00668924  0.85804328  1
  Nb  Nb1  1  0.99440884  0.00214564  0.64498187  1
  Nb  Nb2  1  0.99536083  0.99661636  0.14608269  1
  Nb  Nb3  1  0.66699706  0.33479129  0.97795452  1
  Nb  Nb4  1  0.67021488  0.33151774  0.48310693  1
  Nb  Nb5  1  0.33703387  0.66699806  0.01577522  1
  Nb  Nb6  1  0.33560977  0.66956880  0.52206490  1
  Nb  Nb7  1  0.33085446  0.67302236  0.31084688  1
  Nb  Nb8  1  0.33579725  0.66950511  0.81457141  1
  Si  Si0  1  0.28529664  0.28931415  0.75192823  1
  Si  Si1  1  0.71050823  0.99486610  0.75261058  1
  Si  Si2  1  0.96486899  0.33352615  0.58583978  1
  Si  Si3  1  0.66944636  0.63025152  0.58484113  1
  Si  Si4  1  0.96076296  0.62699898  0.08126722  1
  Si  Si5  1  0.66400731  0.03783386  0.08159799  1
  Si  Si6  1  0.37390782  0.33755175  0.08240401  1
  Si  Si7  1  0.62498099  0.66342101  0.91475258  1
  Si  Si8  1  0.03944982  0.37776044  0.91556301  1
  Si  Si9  1  0.33568885  0.95876207  0.91673450  1
  Si  Si10  1  0.61362200  0.96023221  0.41713924  1
  Si  Si11  1  0.04231468  0.66088488  0.41846500  1
  P  P0  1  0.29352875  0.99396540  0.24914274  1
  P  P1  1  0.70095949  0.70866784  0.25272779  1
  P  P2  1  0.00787881  0.29876094  0.25205158  1
  P  P3  1  0.01059617  0.72499527  0.75129645  1
  P  P4  1  0.36827010  0.03757240  0.58156572  1
  P  P5  1  0.34353936  0.39035664  0.41764020  1
  O  O0  1  0.20768197  0.00695699  0.30408937  1
  O  O1  1  0.79339804  0.78824754  0.31006413  1
  O  O2  1  0.99341361  0.20438219  0.30898492  1
  O  O3  1  0.18253087  0.17207388  0.80850229  1
  O  O4  1  0.99112328  0.81373513  0.80563422  1
  O  O5  1  0.82907083  0.00387663  0.80776036  1
  O  O6  1  0.80532003  0.96841703  0.69324160  1
  O  O7  1  0.16489018  0.18795421  0.69399322  1
  O  O8  1  0.02817573  0.82962272  0.69520783  1
  O  O9  1  0.80739806  0.82833786  0.19940478  1
  O  O10  1  0.02275214  0.19802790  0.19751569  1
  O  O11  1  0.18230746  0.97607219  0.19365371  1
  O  O12  1  0.89745092  0.36891583  0.64537933  1
  O  O13  1  0.47301969  0.10249827  0.63688747  1
  O  O14  1  0.62931484  0.52729354  0.64462477  1
  O  O15  1  0.90233167  0.50427775  0.13663126  1
  O  O16  1  0.60683984  0.10035274  0.13780109  1
  O  O17  1  0.48049583  0.37860046  0.14090966  1
  O  O18  1  0.46538990  0.29403577  0.02764421  1
  O  O19  1  0.83212091  0.53177874  0.02560890  1
  O  O20  1  0.70693538  0.17160889  0.02680384  1
  O  O21  1  0.46749149  0.15736774  0.52866690  1
  O  O22  1  0.68857936  0.52296983  0.52760479  1
  O  O23  1  0.83406127  0.30577411  0.52859184  1
  O  O24  1  0.52483299  0.68894239  0.96966813  1
  O  O25  1  0.15731780  0.47048583  0.97260280  1
  O  O26  1  0.30963902  0.84180430  0.97391100  1
  O  O27  1  0.51566835  0.83480596  0.47144296  1
  O  O28  1  0.32422403  0.48083536  0.47149577  1
  O  O29  1  0.16035428  0.67134953  0.47274881  1
  O  O30  1  0.13626887  0.63353434  0.35941139  1
  O  O31  1  0.49616625  0.85830280  0.35838111  1
  O  O32  1  0.36774006  0.50153166  0.36207923  1
  O  O33  1  0.13635540  0.49479402  0.85736915  1
  O  O34  1  0.35871313  0.85703491  0.86010628  1
  O  O35  1  0.50483678  0.63880252  0.85637867  1
  O  O36  1  0.00580798  0.81623081  0.41923513  1
  O  O37  1  0.80409387  0.98615970  0.41596443  1
  O  O38  1  0.18053800  0.21681306  0.41556485  1
  O  O39  1  0.02159001  0.18881670  0.91021099  1
  O  O40  1  0.16526738  0.97483269  0.90924343  1
  O  O41  1  0.81279386  0.83191294  0.90931513  1
  O  O42  1  0.97856200  0.15890302  0.58885362  1
  O  O43  1  0.19214415  0.02393860  0.58570994  1
  O  O44  1  0.84651470  0.81647322  0.58829602  1
  O  O45  1  0.98170982  0.81851345  0.09270553  1
  O  O46  1  0.84130943  0.02793273  0.09285472  1
  O  O47  1  0.18077931  0.15985204  0.09227352  1
  O  O48  1  0.70723200  0.16943724  0.75183615  1
  O  O49  1  0.47809203  0.32634015  0.75273630  1
  O  O50  1  0.85006998  0.54639294  0.74855276  1
  O  O51  1  0.67734090  0.53203277  0.24724424  1
  O  O52  1  0.85604735  0.32543554  0.24716010  1
  O  O53  1  0.47402419  0.14244514  0.24641687  1
  O  O54  1  0.63617101  0.49153963  0.92346383  1
  O  O55  1  0.85230105  0.35995831  0.92252471  1
  O  O56  1  0.50629467  0.14448802  0.92360045  1
  O  O57  1  0.62902041  0.14764281  0.42355187  1
  O  O58  1  0.50781793  0.37851743  0.42323168  1
  O  O59  1  0.85384915  0.48170136  0.42410206  1
  O  O60  1  0.32733158  0.48789791  0.07065954  1
  O  O61  1  0.15634918  0.66638625  0.06922332  1
  O  O62  1  0.50481238  0.84641660  0.06912548  1
  O  O63  1  0.34301839  0.85729994  0.57057381  1
  O  O64  1  0.50940828  0.66163319  0.57056902  1
  O  O65  1  0.15421674  0.49401100  0.57132290  1
  O  O66  1  0.29739146  0.82064911  0.25349357  1
  O  O67  1  0.52383822  0.70136986  0.25355297  1
  O  O68  1  0.17989694  0.47518338  0.25445017  1
  O  O69  1  0.28810664  0.47418873  0.75508429  1
  O  O70  1  0.17056065  0.70263287  0.75563152  1
  O  O71  1  0.52439255  0.81725291  0.75556491  1
loop_
_geom_bond_atom_site_label_1
_geom_bond_atom_site_label_2
_geom_bond_distance
_geom_bond_site_symmetry_2
Na0 O49 2.351656 1_555
Na0 O71 2.400092 1_555
Na0 O50 2.411937 1_555
Na0 O14 2.487689 1_555
Na0 O69 2.711511 1_555
Na0 O35 2.797301 1_555
Na0 O6 2.963602 1_555
Na1 O48 2.324345 1_555
Na1 O69 2.336533 1_655
Na1 O12 2.484079 1_555
Na1 O50 2.515709 1_555
Na1 O70 2.605915 1_655
Na1 O33 2.798807 1_655
Na2 O61 2.464114 1_555
Na2 O47 2.521162 1_565
Na2 O62 2.542364 1_555
Na2 O16 2.588777 1_565
Na2 O45 2.630913 1_455
Na2 O11 2.772109 1_555
Na2 O26 2.802520 1_554
Na2 O18 2.819516 1_565
Na3 O60 2.393616 1_555
Na3 O46 2.501374 1_455
Na3 O15 2.528951 1_455
Na3 O61 2.573969 1_555
Na3 O47 2.682519 1_555
Na3 O25 2.816634 1_554
Na3 O20 2.821073 1_455
Na3 O10 2.907081 1_555
Na4 O59 2.381912 1_555
Na4 O38 2.392689 1_655
Na4 O37 2.415964 1_545
Na4 O2 2.580220 1_555
Na4 O57 2.638951 1_555
Na4 O23 2.909416 1_555
Na4 O30 2.947595 1_655
Na5 O36 2.356536 1_655
Na5 O58 2.394864 1_555
Na5 O37 2.480328 1_555
Na5 O1 2.594593 1_555
Na5 O59 2.719240 1_555
Na5 O22 2.883103 1_555
Na5 O32 2.923080 1_555
Na5 O27 3.011822 1_555
Na6 O43 2.459457 1_565
Na6 O36 2.486788 1_555
Na6 O44 2.503523 1_455
Na6 O42 2.575288 1_465
Na6 O37 2.683305 1_455
Na6 O38 2.703256 1_565
Na7 O41 2.484600 1_555
Na7 O40 2.583394 1_655
Na7 O39 2.586585 1_665
Na7 O45 2.691324 1_556
Na7 O46 2.710291 1_566
Na7 O47 2.765229 1_666
Na8 O49 2.471179 1_555
Na8 O56 2.495266 1_555
Na8 O48 2.511817 1_555
Na8 O55 2.614356 1_555
Na8 O54 2.625621 1_555
Na8 O50 2.788332 1_555
Na9 O53 2.426971 1_555
Na9 O52 2.551679 1_555
Na9 O51 2.554999 1_555
Na9 O57 2.688499 1_555
Na9 O58 2.775534 1_555
Na9 O59 2.806504 1_555
Na10 O67 2.486068 1_555
Na10 O68 2.606583 1_555
Na10 O66 2.629951 1_555
Na10 O60 2.648774 1_555
Na10 O62 2.698230 1_555
Na10 O61 2.812450 1_555
Na11 O71 2.571042 1_555
Na11 O70 2.609828 1_555
Na11 O69 2.616480 1_555
Na11 O65 2.713059 1_555
Na11 O63 2.731303 1_555
Na11 O64 2.743401 1_555
Nb0 O3 1.929958 1_555
Nb0 O5 1.949718 1_455
Nb0 O39 1.979848 1_555
Nb0 O40 2.004328 1_545
Nb0 O41 2.036176 1_445
Nb0 O4 2.076829 1_445
Nb1 O6 1.928966 1_545
Nb1 O7 1.968968 1_655
Nb1 O42 1.977463 1_555
Nb1 O44 2.013612 1_545
Nb1 O8 2.087702 1_645
Nb1 O43 2.175079 1_655
Nb2 O46 1.978674 1_565
Nb2 O45 1.979824 1_555
Nb2 O47 2.010845 1_665
Nb2 O9 2.029708 1_555
Nb2 O10 2.081888 1_665
Nb2 O11 2.099854 1_655
Nb3 O19 1.985737 1_556
Nb3 O54 2.016512 1_555
Nb3 O18 2.021675 1_556
Nb3 O55 2.023259 1_555
Nb3 O20 2.030342 1_556
Nb3 O56 2.032149 1_555
Nb4 O23 1.921788 1_555
Nb4 O22 1.948038 1_555
Nb4 O21 2.013228 1_555
Nb4 O57 2.038896 1_555
Nb4 O59 2.044661 1_555
Nb4 O58 2.204581 1_555
Nb5 O24 1.925180 1_554
Nb5 O25 1.974280 1_554
Nb5 O26 1.975296 1_554
Nb5 O62 1.992930 1_555
Nb5 O60 2.023920 1_555
Nb5 O61 2.040691 1_555
Nb6 O27 1.950635 1_555
Nb6 O29 1.955553 1_555
Nb6 O64 1.958037 1_555
Nb6 O65 1.972564 1_555
Nb6 O63 2.006382 1_555
Nb6 O28 2.026593 1_555
Nb7 O31 1.931303 1_555
Nb7 O30 1.958722 1_555
Nb7 O66 2.006960 1_555
Nb7 O68 2.073370 1_555
Nb7 O67 2.095113 1_555
Nb7 O32 2.107648 1_555
Nb8 O34 1.916283 1_555
Nb8 O35 1.941677 1_555
Nb8 O33 1.967448 1_555
Nb8 O71 2.061226 1_555
Nb8 O69 2.101046 1_555
Nb8 O70 2.146611 1_555
O0 P0 1.513676 1_545
O0 Y0 2.121131 1_545
O1 P1 1.529318 1_555
O1 Y0 2.180094 1_655
O2 P2 1.530251 1_655
O2 Y0 2.192658 1_645
O3 Si0 1.639204 1_555
O4 P3 1.538701 1_655
O5 Si1 1.633431 1_545
O6 Si1 1.687284 1_555
O7 Si0 1.669870 1_555
O8 P3 1.558613 1_555
O9 P1 1.597909 1_555
O10 P2 1.591900 1_555
O11 P0 1.578789 1_555
O12 Si2 1.590152 1_555
O12 Y1 2.202970 1_555
O13 P4 1.513583 1_555
O13 Y1 2.177744 1_555
O14 Si3 1.594526 1_555
O14 Y1 2.190461 1_555
O15 Si4 1.594146 1_555
O15 Y2 2.165554 1_555
O16 Si5 1.593086 1_555
O16 Y2 2.180940 1_555
O17 Si6 1.582710 1_555
O17 Y2 2.142357 1_555
O18 Si6 1.655309 1_555
O19 Si4 1.648747 1_555
O20 Si5 1.652823 1_555
O21 P4 1.575020 1_555
O22 Si3 1.691706 1_555
O23 Si2 1.699241 1_555
O24 Si7 1.632695 1_555
O25 Si8 1.628517 1_555
O26 Si9 1.628006 1_555
O27 Si10 1.618754 1_555
O28 P5 1.538525 1_555
O29 Si11 1.611444 1_555
O30 Si11 1.680232 1_555
O31 Si10 1.676252 1_555
O32 P5 1.570847 1_555
O33 Si8 1.656170 1_555
O34 Si9 1.663523 1_555
O35 Si7 1.666708 1_555
O36 Si11 1.602742 1_555
O36 Y0 2.225235 1_555
O37 Si10 1.620534 1_555
O37 Y0 2.272150 1_655
O38 P5 1.527842 1_555
O38 Y0 2.278945 1_545
O39 Si8 1.645620 1_555
O40 Si9 1.631154 1_555
O41 Si7 1.625653 1_555
O42 Si2 1.653476 1_555
O43 P4 1.540073 1_555
O44 Si3 1.649425 1_555
O45 Si4 1.672991 1_555
O46 Si5 1.673291 1_555
O47 Si6 1.699177 1_555
O48 Si1 1.601000 1_545
O48 Y1 2.267827 1_555
O49 Si0 1.604708 1_555
O49 Y1 2.241516 1_555
O50 P3 1.544560 1_655
O50 Y1 2.373072 1_555
O51 P1 1.513725 1_555
O51 Y2 2.281044 1_555
O52 P2 1.515771 1_655
O52 Y2 2.298636 1_555
O53 P0 1.511970 1_545
O53 Y2 2.288499 1_555
O54 Si7 1.627128 1_555
O55 Si8 1.628120 1_655
O56 Si9 1.626490 1_545
O57 Si10 1.643309 1_545
O58 P5 1.550331 1_555
O59 Si11 1.671990 1_655
O60 Si6 1.641500 1_555
O61 Si4 1.645455 1_455
O62 Si5 1.634075 1_565
O63 P4 1.555838 1_565
O64 Si3 1.644770 1_555
O65 Si2 1.634609 1_455
O66 P0 1.595486 1_555
O67 P1 1.572482 1_555
O68 P2 1.579922 1_555
O69 Si0 1.668229 1_555
O70 P3 1.564125 1_555
O71 Si1 1.650362 1_555
