# generated using pymatgen
data_NbSiIr
_symmetry_space_group_name_H-M   'P 1'
_cell_length_a   3.79800648
_cell_length_b   6.45416533
_cell_length_c   7.29845563
_cell_angle_alpha   90.00000000
_cell_angle_beta   90.00000000
_cell_angle_gamma   90.00000000
_symmetry_Int_Tables_number   1
_chemical_formula_structural   NbSiIr
_chemical_formula_sum   'Nb4 Si4 Ir4'
_cell_volume   178.90676367
_cell_formula_units_Z   4
loop_
 _symmetry_equiv_pos_site_id
 _symmetry_equiv_pos_as_xyz
  1  'x, y, z'
loop_
 _atom_site_type_symbol
 _atom_site_label
 _atom_site_symmetry_multiplicity
 _atom_site_fract_x
 _atom_site_fract_y
 _atom_site_fract_z
 _atom_site_occupancy
  Nb  Nb0  1  0.75000000  0.52353003  0.17183562  1
  Nb  Nb1  1  0.25000000  0.97646997  0.67183562  1
  Nb  Nb2  1  0.75000000  0.02353103  0.32816438  1
  Nb  Nb3  1  0.25000000  0.47646997  0.82816438  1
  Si  Si0  1  0.25000000  0.22950320  0.12419249  1
  Si  Si1  1  0.25000000  0.72950320  0.37580751  1
  Si  Si2  1  0.75000000  0.77049680  0.87580751  1
  Si  Si3  1  0.75000000  0.27049680  0.62419249  1
  Ir  Ir0  1  0.25000000  0.85488781  0.06411655  1
  Ir  Ir1  1  0.25000000  0.35488781  0.43588345  1
  Ir  Ir2  1  0.75000000  0.64511219  0.56411655  1
  Ir  Ir3  1  0.75000000  0.14511219  0.93588345  1
loop_
_geom_bond_atom_site_label_1
_geom_bond_atom_site_label_2
_geom_bond_distance
_geom_bond_site_symmetry_2
Nb0 Si2 2.684900 1_554
Nb0 Si0 2.707098 1_655
Nb0 Si0 2.707098 1_555
Nb0 Si1 2.754931 1_555
Nb0 Si1 2.754931 1_655
Nb1 Si1 2.684900 1_555
Nb1 Si3 2.707098 1_565
Nb1 Si3 2.707098 1_465
Nb1 Si2 2.754931 1_455
Nb1 Si2 2.754931 1_555
Nb2 Si3 2.684897 1_555
Nb2 Si1 2.707103 1_545
Nb2 Si1 2.707103 1_645
Nb2 Si0 2.754928 1_655
Nb2 Si0 2.754928 1_555
Nb3 Si0 2.684900 1_556
Nb3 Si2 2.707098 1_455
Nb3 Si2 2.707098 1_555
Nb3 Si3 2.754931 1_555
Nb3 Si3 2.754931 1_455
Ir0 Si2 2.406608 1_554
Ir0 Si2 2.406608 1_454
Ir0 Si1 2.414517 1_555
Ir0 Si0 2.457265 1_565
Ir0 Nb2 2.916301 1_565
Ir0 Nb2 2.916301 1_465
Ir0 Nb0 2.966154 1_555
Ir0 Nb0 2.966154 1_455
Ir0 Nb1 2.968636 1_554
Ir0 Nb3 2.988438 1_554
Ir1 Si3 2.406608 1_455
Ir1 Si3 2.406608 1_555
Ir1 Si0 2.414517 1_555
Ir1 Si1 2.457265 1_555
Ir1 Nb0 2.916299 1_455
Ir1 Nb0 2.916299 1_555
Ir1 Nb2 2.966149 1_455
Ir1 Nb2 2.966149 1_555
Ir1 Nb3 2.968636 1_555
Ir1 Nb1 2.988438 1_545
Ir2 Si1 2.406608 1_555
Ir2 Si1 2.406608 1_655
Ir2 Si2 2.414517 1_555
Ir2 Si3 2.457265 1_555
Ir2 Nb3 2.916299 1_655
Ir2 Nb3 2.916299 1_555
Ir2 Nb1 2.966154 1_555
Ir2 Nb1 2.966154 1_655
Ir2 Nb0 2.968636 1_555
Ir2 Nb2 2.988443 1_565
Ir3 Si0 2.406608 1_556
Ir3 Si0 2.406608 1_656
Ir3 Si3 2.414517 1_555
Ir3 Si2 2.457265 1_545
Ir3 Nb1 2.916299 1_545
Ir3 Nb1 2.916299 1_645
Ir3 Nb3 2.966154 1_655
Ir3 Nb3 2.966154 1_555
Ir3 Nb2 2.968634 1_556
Ir3 Nb0 2.988438 1_556
