# generated using pymatgen
data_MgZn
_symmetry_space_group_name_H-M   'P 1'
_cell_length_a   5.24444261
_cell_length_b   5.24444261
_cell_length_c   4.37825414
_cell_angle_alpha   90.00000000
_cell_angle_beta   90.00000000
_cell_angle_gamma   109.41528611
_symmetry_Int_Tables_number   1
_chemical_formula_structural   MgZn
_chemical_formula_sum   'Mg3 Zn3'
_cell_volume   113.57246350
_cell_formula_units_Z   3
loop_
 _symmetry_equiv_pos_site_id
 _symmetry_equiv_pos_as_xyz
  1  'x, y, z'
loop_
 _atom_site_type_symbol
 _atom_site_label
 _atom_site_symmetry_multiplicity
 _atom_site_fract_x
 _atom_site_fract_y
 _atom_site_fract_z
 _atom_site_occupancy
  Mg  Mg0  1  0.92938095  0.30279643  -0.00000000  1
  Mg  Mg1  1  0.30279643  0.92938095  -0.00000000  1
  Mg  Mg2  1  0.39786180  0.39786180  0.50000000  1
  Zn  Zn0  1  0.72811582  0.72811582  0.00000000  1
  Zn  Zn1  1  0.98234774  0.65949726  0.50000000  1
  Zn  Zn2  1  0.65949726  0.98234774  0.50000000  1
loop_
_geom_bond_atom_site_label_1
_geom_bond_atom_site_label_2
_geom_bond_distance
_geom_bond_site_symmetry_2
Mg0 Zn0 2.766734 1_555
Mg0 Zn1 2.832574 1_555
Mg0 Zn1 2.832574 1_554
Mg0 Zn2 2.835231 1_545
Mg0 Zn2 2.835231 1_544
Mg0 Zn0 2.842999 1_545
Mg1 Zn0 2.766734 1_555
Mg1 Zn2 2.832574 1_554
Mg1 Zn2 2.832574 1_555
Mg1 Zn1 2.835231 1_454
Mg1 Zn1 2.835231 1_455
Mg1 Zn0 2.842999 1_455
Mg2 Zn1 2.912486 1_555
Mg2 Zn2 2.912486 1_555
Mg2 Zn2 2.935859 1_545
Mg2 Zn1 2.935859 1_455
Mg2 Zn0 2.966068 1_555
Mg2 Zn0 2.966068 1_556
Zn0 Zn2 2.649240 1_554
Zn0 Zn1 2.649240 1_555
Zn0 Zn1 2.649240 1_554
Zn0 Zn2 2.649240 1_555
Zn1 Zn2 2.763982 1_555
