# generated using pymatgen
data_LiAlH4
_symmetry_space_group_name_H-M   'P 1'
_cell_length_a   7.82470000
_cell_length_b   4.86190900
_cell_length_c   7.87004681
_cell_angle_alpha   68.19494442
_cell_angle_beta   90.00000000
_cell_angle_gamma   90.00000000
_symmetry_Int_Tables_number   1
_chemical_formula_structural   LiAlH4
_chemical_formula_sum   'Li4 Al4 H16'
_cell_volume   277.97887079
_cell_formula_units_Z   4
loop_
 _symmetry_equiv_pos_site_id
 _symmetry_equiv_pos_as_xyz
  1  'x, y, z'
loop_
 _atom_site_type_symbol
 _atom_site_label
 _atom_site_symmetry_multiplicity
 _atom_site_fract_x
 _atom_site_fract_y
 _atom_site_fract_z
 _atom_site_occupancy
  Li  Li0  1  0.96476900  0.42931100  0.32434400  1
  Li  Li1  1  0.46476900  0.57068900  0.17565600  1
  Li  Li2  1  0.03523100  0.57068900  0.67565600  1
  Li  Li3  1  0.53523100  0.42931100  0.82434400  1
  Al  Al0  1  0.70216300  0.86025100  0.43230600  1
  Al  Al1  1  0.20216300  0.13974900  0.06769400  1
  Al  Al2  1  0.29783700  0.13974900  0.56769400  1
  Al  Al3  1  0.79783700  0.86025100  0.93230600  1
  H  H0  1  0.59904000  0.81757300  0.26431400  1
  H  H1  1  0.09904000  0.18242700  0.23568600  1
  H  H2  1  0.40096000  0.18242700  0.73568600  1
  H  H3  1  0.90096000  0.81757300  0.76431400  1
  H  H4  1  0.87201000  0.64619800  0.47777400  1
  H  H5  1  0.37201000  0.35380200  0.02222600  1
  H  H6  1  0.12799000  0.35380200  0.52222600  1
  H  H7  1  0.62799000  0.64619800  0.97777400  1
  H  H8  1  0.58259200  0.76180300  0.61422100  1
  H  H9  1  0.08259200  0.23819700  0.88577900  1
  H  H10  1  0.41740800  0.23819700  0.38577900  1
  H  H11  1  0.91740800  0.76180300  0.11422100  1
  H  H12  1  0.76402000  0.20188300  0.37238200  1
  H  H13  1  0.26402000  0.79811700  0.12761800  1
  H  H14  1  0.23598000  0.79811700  0.62761800  1
  H  H15  1  0.73598000  0.20188300  0.87238200  1
loop_
_geom_bond_atom_site_label_1
_geom_bond_atom_site_label_2
_geom_bond_distance
_geom_bond_site_symmetry_2
Al0 H12 1.622841 1_565
Al0 H8 1.626371 1_555
Al0 H0 1.626627 1_555
Al0 H4 1.643382 1_555
Al1 H13 1.622841 1_545
Al1 H9 1.626371 1_554
Al1 H1 1.626627 1_555
Al1 H5 1.643382 1_555
Al2 H14 1.622841 1_545
Al2 H10 1.626371 1_555
Al2 H2 1.626627 1_555
Al2 H6 1.643382 1_555
Al3 H15 1.622841 1_565
Al3 H11 1.626371 1_556
Al3 H3 1.626627 1_555
Al3 H7 1.643382 1_555
H0 Li1 1.911452 1_555
H1 Li0 1.911452 1_455
H2 Li3 1.911452 1_555
H3 Li2 1.911452 1_655
H4 Li2 1.940741 1_655
H4 Li0 2.010654 1_555
H5 Li3 1.940741 1_554
H5 Li1 2.010654 1_555
H6 Li0 1.940741 1_455
H6 Li2 2.010654 1_555
H7 Li1 1.940741 1_556
H7 Li3 2.010654 1_555
H8 Li3 1.870629 1_555
H9 Li2 1.870629 1_555
H10 Li1 1.870629 1_555
H11 Li0 1.870629 1_555
H12 Li0 1.876815 1_555
H13 Li1 1.876815 1_555
H14 Li2 1.876815 1_555
H15 Li3 1.876815 1_555
