# generated using pymatgen
data_Na5In2Ga2P5SO24
_symmetry_space_group_name_H-M   'P 1'
_cell_length_a   8.88212134
_cell_length_b   8.86568126
_cell_length_c   22.41090749
_cell_angle_alpha   90.40560806
_cell_angle_beta   89.76731856
_cell_angle_gamma   119.95380563
_symmetry_Int_Tables_number   1
_chemical_formula_structural   Na5In2Ga2P5SO24
_chemical_formula_sum   'Na15 In6 Ga6 P15 S3 O72'
_cell_volume   1529.00848824
_cell_formula_units_Z   3
loop_
 _symmetry_equiv_pos_site_id
 _symmetry_equiv_pos_as_xyz
  1  'x, y, z'
loop_
 _atom_site_type_symbol
 _atom_site_label
 _atom_site_symmetry_multiplicity
 _atom_site_fract_x
 _atom_site_fract_y
 _atom_site_fract_z
 _atom_site_occupancy
  Na  Na0  1  0.63762722  0.00063040  0.25030508  1
  Na  Na1  1  0.99824119  0.36114445  0.74967238  1
  Na  Na2  1  0.36295850  -0.00046361  0.75057522  1
  Na  Na3  1  0.03322606  0.70007570  0.58125598  1
  Na  Na4  1  0.66485323  0.96643399  0.58277821  1
  Na  Na5  1  0.30304540  0.97354074  0.08353804  1
  Na  Na6  1  0.02949523  0.33280261  0.08471684  1
  Na  Na7  1  0.97244226  0.66527511  0.91736095  1
  Na  Na8  1  0.70074845  0.66956435  0.41699993  1
  Na  Na9  1  0.01774172  0.01665827  0.49649139  1
  Na  Na10  1  0.99661709  0.00653861  0.00188431  1
  Na  Na11  1  0.65555021  0.32559796  0.83447974  1
  Na  Na12  1  0.67911379  0.33844616  0.33273051  1
  Na  Na13  1  0.33644548  0.65102269  0.16886026  1
  Na  Na14  1  0.34445277  0.65342754  0.66576424  1
  In  In0  1  0.00507952  0.01054260  0.85337390  1
  In  In1  1  0.00408525  0.00390971  0.64743904  1
  In  In2  1  0.66590898  0.34053886  0.68193162  1
  In  In3  1  0.66274628  0.32544872  0.98724385  1
  In  In4  1  0.32998644  0.66616041  0.51150777  1
  In  In5  1  0.33795891  0.66806509  0.81779937  1
  Ga  Ga0  1  0.98612944  0.99188730  0.34735377  1
  Ga  Ga1  1  0.98860377  0.99759069  0.15201564  1
  Ga  Ga2  1  0.67733780  0.35227320  0.18278110  1
  Ga  Ga3  1  0.67474842  0.32636801  0.48114742  1
  Ga  Ga4  1  0.33248902  0.66607054  0.02071848  1
  Ga  Ga5  1  0.32298585  0.65839181  0.31601786  1
  P  P0  1  0.70378326  0.70269805  0.25078473  1
  P  P1  1  0.00220866  0.29361586  0.24979667  1
  P  P2  1  0.29959187  0.29905982  0.75039735  1
  P  P3  1  0.99776678  0.70176416  0.75144562  1
  P  P4  1  0.70191537  0.99859764  0.74833559  1
  P  P5  1  0.96216684  0.33426033  0.58147127  1
  P  P6  1  0.37653399  0.04485772  0.58000387  1
  P  P7  1  0.66329087  0.62325206  0.57778675  1
  P  P8  1  0.96343169  0.63524786  0.08441491  1
  P  P9  1  0.66662904  0.03404192  0.08776046  1
  P  P10  1  0.37065530  0.33400042  0.08721411  1
  P  P11  1  0.04059414  0.37388494  0.92067996  1
  P  P12  1  0.33512651  0.96146602  0.91976865  1
  P  P13  1  0.63106963  0.96696142  0.41267355  1
  P  P14  1  0.03472544  0.66905643  0.41387080  1
  S  S0  1  0.28961547  0.00014528  0.25012827  1
  S  S1  1  0.62610260  0.66617384  0.92040357  1
  S  S2  1  0.32941055  0.36348285  0.41287835  1
  O  O0  1  0.20369617  0.02348779  0.30281449  1
  O  O1  1  0.81227971  0.77985656  0.30851841  1
  O  O2  1  0.96552106  0.16836822  0.30284004  1
  O  O3  1  0.22088409  0.18557940  0.80588321  1
  O  O4  1  0.97687280  0.78493190  0.80902365  1
  O  O5  1  0.81830096  0.02954840  0.80263712  1
  O  O6  1  0.77736854  0.97512614  0.68918141  1
  O  O7  1  0.18532460  0.22062151  0.69468219  1
  O  O8  1  0.02619430  0.81012254  0.69445928  1
  O  O9  1  0.79132659  0.82883429  0.19786239  1
  O  O10  1  0.03245133  0.21475858  0.19177358  1
  O  O11  1  0.18829577  0.97504814  0.19469696  1
  O  O12  1  0.89225769  0.36510379  0.64102391  1
  O  O13  1  0.47441901  0.11202779  0.63986777  1
  O  O14  1  0.63943881  0.52571742  0.63587660  1
  O  O15  1  0.87580145  0.50399947  0.13579379  1
  O  O16  1  0.62821470  0.11960954  0.14263286  1
  O  O17  1  0.49077354  0.36423891  0.14075883  1
  O  O18  1  0.43798018  0.28794435  0.03049488  1
  O  O19  1  0.86161880  0.56829168  0.02564837  1
  O  O20  1  0.71483557  0.15178419  0.03261694  1
  O  O21  1  0.47311903  0.16065440  0.52672805  1
  O  O22  1  0.68838787  0.53360408  0.52181954  1
  O  O23  1  0.84099860  0.30712203  0.52849298  1
  O  O24  1  0.53638731  0.68461666  0.97301951  1
  O  O25  1  0.15368342  0.46842359  0.97620312  1
  O  O26  1  0.31479994  0.84507558  0.97456220  1
  O  O27  1  0.56193989  0.85311307  0.46963616  1
  O  O28  1  0.29536620  0.43157468  0.46871846  1
  O  O29  1  0.13250726  0.70084454  0.47369084  1
  O  O30  1  0.12982552  0.63734516  0.36190698  1
  O  O31  1  0.51295301  0.87298434  0.35794125  1
  O  O32  1  0.36459191  0.48594954  0.36251810  1
  O  O33  1  0.11689857  0.47472089  0.86192748  1
  O  O34  1  0.35579375  0.88553414  0.86014216  1
  O  O35  1  0.53345141  0.64424239  0.86411051  1
  O  O36  1  0.01288189  0.83237987  0.40536268  1
  O  O37  1  0.81436302  0.98344889  0.40576031  1
  O  O38  1  0.17661133  0.18924262  0.40378932  1
  O  O39  1  0.01897355  0.19079461  0.91970130  1
  O  O40  1  0.16014507  0.96313497  0.91916486  1
  O  O41  1  0.80209840  0.82383633  0.91873525  1
  O  O42  1  0.97092964  0.16491017  0.58275559  1
  O  O43  1  0.19067159  0.01792838  0.58168658  1
  O  O44  1  0.83329145  0.80550399  0.58051649  1
  O  O45  1  0.99325265  0.82099852  0.09558061  1
  O  O46  1  0.83046265  0.01583420  0.09521997  1
  O  O47  1  0.18488422  0.16950405  0.09494606  1
  O  O48  1  0.68399585  0.16448646  0.74668681  1
  O  O49  1  0.47802260  0.31165511  0.74627193  1
  O  O50  1  0.84047994  0.51642157  0.74869807  1
  O  O51  1  0.68581517  0.52072166  0.24223547  1
  O  O52  1  0.83142940  0.30490665  0.24338646  1
  O  O53  1  0.46738595  0.15495070  0.24623646  1
  O  O54  1  0.65008928  0.51239549  0.92373166  1
  O  O55  1  0.86226347  0.36663984  0.92379980  1
  O  O56  1  0.49340989  0.14496737  0.92277807  1
  O  O57  1  0.64599483  0.14760907  0.42017087  1
  O  O58  1  0.49166809  0.35449256  0.41843246  1
  O  O59  1  0.84718372  0.50607099  0.41910964  1
  O  O60  1  0.34600316  0.49552682  0.07960080  1
  O  O61  1  0.14794964  0.65127075  0.07922239  1
  O  O62  1  0.49791194  0.85521869  0.07865604  1
  O  O63  1  0.35784911  0.86035812  0.57583672  1
  O  O64  1  0.50768276  0.65484035  0.57411059  1
  O  O65  1  0.14153535  0.49967788  0.57571311  1
  O  O66  1  0.31152023  0.84310825  0.25506615  1
  O  O67  1  0.52196593  0.69194508  0.25745856  1
  O  O68  1  0.16542037  0.47658516  0.25820327  1
  O  O69  1  0.31288720  0.47865038  0.75502475  1
  O  O70  1  0.16448298  0.68544687  0.75320061  1
  O  O71  1  0.51732601  0.83988935  0.75275487  1
loop_
_geom_bond_atom_site_label_1
_geom_bond_atom_site_label_2
_geom_bond_distance
_geom_bond_site_symmetry_2
Na0 O52 2.372960 1_555
Na0 O67 2.401661 1_545
Na0 O53 2.497080 1_555
Na0 O66 2.512307 1_545
Na0 O16 2.658594 1_555
Na0 O31 2.662949 1_545
Na0 O9 2.757321 1_545
Na0 O2 2.785275 1_555
Na1 O50 2.405436 1_555
Na1 O48 2.444411 1_555
Na1 O69 2.450248 1_655
Na1 O70 2.492258 1_655
Na1 O12 2.620878 1_555
Na1 O33 2.716530 1_655
Na1 O7 2.803753 1_655
Na1 O5 2.819202 1_555
Na2 O71 2.413522 1_545
Na2 O49 2.426885 1_555
Na2 O70 2.442272 1_545
Na2 O48 2.472409 1_555
Na2 O34 2.650410 1_545
Na2 O13 2.675723 1_555
Na2 O3 2.808235 1_555
Na2 O8 2.886756 1_545
Na3 O44 2.384440 1_455
Na3 O65 2.408347 1_555
Na3 O43 2.441556 1_565
Na3 O63 2.501148 1_555
Na3 O29 2.562378 1_555
Na3 O8 2.723345 1_555
Na3 O12 2.917326 1_455
Na3 O22 2.970688 1_455
Na4 O42 2.389574 1_565
Na4 O64 2.400303 1_555
Na4 O63 2.405172 1_555
Na4 O44 2.531088 1_555
Na4 O6 2.575037 1_555
Na4 O27 2.709234 1_555
Na4 O13 2.881565 1_565
Na4 O23 2.892826 1_565
Na5 O45 2.399222 1_455
Na5 O62 2.432714 1_555
Na5 O47 2.449002 1_565
Na5 O61 2.477311 1_555
Na5 O11 2.690248 1_555
Na5 O18 2.705260 1_565
Na5 O26 2.711075 1_554
Na5 O16 2.836272 1_565
Na6 O60 2.438709 1_555
Na6 O47 2.460913 1_555
Na6 O46 2.474388 1_455
Na6 O61 2.476153 1_555
Na6 O10 2.629788 1_555
Na6 O20 2.696468 1_455
Na6 O25 2.696610 1_554
Na6 O15 2.740308 1_455
Na7 O40 2.314564 1_655
Na7 O55 2.324912 1_555
Na7 O54 2.485835 1_555
Na7 O41 2.527700 1_555
Na7 O19 2.600509 1_556
Na7 O4 2.648737 1_555
Na7 O33 2.857555 1_655
Na7 O26 2.931451 1_655
Na8 O59 2.383075 1_555
Na8 O36 2.416821 1_655
Na8 O37 2.455471 1_555
Na8 O58 2.464355 1_555
Na8 O22 2.624714 1_555
Na8 O1 2.625806 1_555
Na8 O27 2.743020 1_555
Na8 O32 2.864169 1_555
Na9 O43 2.451744 1_555
Na9 O42 2.478130 1_455
Na9 O38 2.552180 1_555
Na9 O44 2.587799 1_445
Na9 O36 2.593253 1_545
Na9 O37 2.640968 1_445
Na10 O39 2.411606 1_654
Na10 O40 2.494106 1_644
Na10 O41 2.503990 1_544
Na10 O46 2.579553 1_555
Na10 O47 2.608924 1_655
Na10 O45 2.667445 1_545
Na11 O49 2.497332 1_555
Na11 O56 2.504606 1_555
Na11 O48 2.508335 1_555
Na11 O50 2.549777 1_555
Na11 O54 2.603531 1_555
Na11 O55 2.619706 1_555
Na12 O59 2.439637 1_555
Na12 O52 2.509808 1_555
Na12 O57 2.516827 1_555
Na12 O51 2.584076 1_555
Na12 O58 2.586077 1_555
Na12 O53 2.621153 1_555
Na13 O60 2.446562 1_555
Na13 O67 2.491742 1_555
Na13 O68 2.526154 1_555
Na13 O62 2.618476 1_555
Na13 O61 2.621010 1_555
Na13 O66 2.647262 1_555
Na14 O69 2.467134 1_555
Na14 O64 2.505851 1_555
Na14 O71 2.516960 1_555
Na14 O65 2.591632 1_555
Na14 O70 2.625910 1_555
Na14 O63 2.697021 1_555
In0 O3 2.061909 1_555
In0 O5 2.090627 1_455
In0 O4 2.127179 1_445
In0 O39 2.132953 1_555
In0 O40 2.202485 1_545
In0 O41 2.273501 1_445
In1 O7 2.073707 1_555
In1 O8 2.113037 1_545
In1 O6 2.114300 1_445
In1 O42 2.162879 1_455
In1 O43 2.170373 1_555
In1 O44 2.227381 1_445
In2 O14 2.056036 1_555
In2 O13 2.104962 1_555
In2 O12 2.116712 1_555
In2 O49 2.118643 1_555
In2 O50 2.155455 1_555
In2 O48 2.202814 1_555
In3 O20 2.087083 1_556
In3 O18 2.088461 1_556
In3 O56 2.119294 1_555
In3 O55 2.153156 1_555
In3 O19 2.164404 1_556
In3 O54 2.237496 1_555
In4 O29 2.108042 1_555
In4 O27 2.113917 1_555
In4 O65 2.143386 1_555
In4 O63 2.155495 1_555
In4 O64 2.155851 1_555
In4 O28 2.162191 1_555
In5 O34 2.076809 1_555
In5 O33 2.102094 1_555
In5 O69 2.108187 1_555
In5 O35 2.126216 1_555
In5 O71 2.138381 1_555
In5 O70 2.179952 1_555
Ga0 O1 1.940269 1_555
Ga0 O2 1.945848 1_565
Ga0 O37 1.979325 1_555
Ga0 O36 2.027422 1_655
Ga0 O0 2.063215 1_665
Ga0 O38 2.133880 1_665
Ga1 O9 1.937441 1_555
Ga1 O46 1.965598 1_565
Ga1 O10 1.970344 1_665
Ga1 O45 2.022018 1_555
Ga1 O47 2.086675 1_665
Ga1 O11 2.114552 1_655
Ga2 O15 1.913839 1_555
Ga2 O17 1.957991 1_555
Ga2 O51 1.967652 1_555
Ga2 O16 2.081568 1_555
Ga2 O52 2.119308 1_555
Ga2 O53 2.305692 1_555
Ga3 O23 1.897989 1_555
Ga3 O21 1.946321 1_555
Ga3 O22 1.994004 1_555
Ga3 O57 2.003072 1_555
Ga3 O59 2.096278 1_555
Ga3 O58 2.260611 1_555
Ga4 O25 1.948619 1_554
Ga4 O26 1.971499 1_554
Ga4 O24 2.034465 1_554
Ga4 O62 2.044765 1_555
Ga4 O61 2.047714 1_555
Ga4 O60 2.062194 1_555
Ga5 O30 1.924758 1_555
Ga5 O68 1.991976 1_555
Ga5 O31 2.032541 1_555
Ga5 O32 2.037087 1_555
Ga5 O67 2.096678 1_555
Ga5 O66 2.181165 1_555
O0 S0 1.471840 1_555
O1 P0 1.552418 1_555
O2 P1 1.551297 1_655
O3 P2 1.534759 1_555
O4 P3 1.537664 1_555
O5 P4 1.532031 1_545
O6 P4 1.542099 1_555
O7 P2 1.538164 1_555
O8 P3 1.546024 1_455
O9 P0 1.550748 1_555
O10 P1 1.556813 1_555
O11 S0 1.485874 1_565
O12 P5 1.548947 1_555
O13 P6 1.546470 1_555
O14 P7 1.522554 1_555
O15 P8 1.546900 1_555
O16 P9 1.563982 1_555
O17 P10 1.539592 1_555
O18 P10 1.539607 1_555
O19 P8 1.538578 1_555
O20 P9 1.538787 1_555
O21 P6 1.531336 1_555
O22 P7 1.554068 1_555
O23 P5 1.540642 1_555
O24 S1 1.473743 1_555
O25 P11 1.553855 1_555
O26 P12 1.560574 1_555
O27 P13 1.555135 1_555
O28 S2 1.480020 1_555
O29 P14 1.546183 1_555
O30 P14 1.540537 1_555
O31 P13 1.556435 1_555
O32 S2 1.491965 1_555
O33 P11 1.548096 1_555
O34 P12 1.543117 1_555
O35 S1 1.466897 1_555
O36 P14 1.566964 1_555
O37 P13 1.567321 1_555
O38 S2 1.474419 1_555
O39 P11 1.536376 1_555
O40 P12 1.561761 1_555
O41 S1 1.489001 1_555
O42 P5 1.542215 1_555
O43 P6 1.545889 1_555
O44 P7 1.567636 1_555
O45 P8 1.550440 1_555
O46 P9 1.551939 1_555
O47 P10 1.574088 1_555
O48 P4 1.557011 1_545
O49 P2 1.534593 1_555
O50 P3 1.537028 1_555
O51 P0 1.550423 1_555
O52 P1 1.576449 1_655
O53 S0 1.490282 1_555
O54 S1 1.483680 1_555
O55 P11 1.554185 1_655
O56 P12 1.530681 1_545
O57 P13 1.547633 1_545
O58 S2 1.488350 1_555
O59 P14 1.572802 1_655
O60 P10 1.563550 1_555
O61 P8 1.576688 1_455
O62 P9 1.557627 1_565
O63 P6 1.561635 1_565
O64 P7 1.543787 1_555
O65 P5 1.540588 1_455
O66 S0 1.503757 1_565
O67 P0 1.576051 1_555
O68 P1 1.554990 1_555
O69 P2 1.539409 1_555
O70 P3 1.558748 1_455
O71 P4 1.540996 1_555
