# generated using pymatgen
data_Na4Ca2Ga2SiS5O24
_symmetry_space_group_name_H-M   'P 1'
_cell_length_a   8.99338836
_cell_length_b   8.97445957
_cell_length_c   22.82846919
_cell_angle_alpha   90.42205485
_cell_angle_beta   89.55940943
_cell_angle_gamma   119.76584492
_symmetry_Int_Tables_number   1
_chemical_formula_structural   Na4Ca2Ga2SiS5O24
_chemical_formula_sum   'Na12 Ca6 Ga6 Si3 S15 O72'
_cell_volume   1599.34624835
_cell_formula_units_Z   3
loop_
 _symmetry_equiv_pos_site_id
 _symmetry_equiv_pos_as_xyz
  1  'x, y, z'
loop_
 _atom_site_type_symbol
 _atom_site_label
 _atom_site_symmetry_multiplicity
 _atom_site_fract_x
 _atom_site_fract_y
 _atom_site_fract_z
 _atom_site_occupancy
  Na  Na0  1  0.00078971  0.63453624  0.23813473  1
  Na  Na1  1  0.99818693  0.36363308  0.75514572  1
  Na  Na2  1  0.37403465  0.99692633  0.74911046  1
  Na  Na3  1  0.66015019  0.97217752  0.59195332  1
  Na  Na4  1  0.68156401  0.68371532  0.07636065  1
  Na  Na5  1  0.33480430  0.03919108  0.42676834  1
  Na  Na6  1  0.02175836  0.00553527  0.50900564  1
  Na  Na7  1  0.01721448  0.99576355  0.00316610  1
  Na  Na8  1  0.66441753  0.33950274  0.83905465  1
  Na  Na9  1  0.66546480  0.33381441  0.32867196  1
  Na  Na10  1  0.31446628  0.66171884  0.15609716  1
  Na  Na11  1  0.35051154  0.67225044  0.66410129  1
  Ca  Ca0  1  0.99413940  0.00500720  0.35573985  1
  Ca  Ca1  1  0.67274508  0.33365131  0.17209549  1
  Ca  Ca2  1  0.67488633  0.33906432  0.98730586  1
  Ca  Ca3  1  0.65759445  0.33131944  0.48927523  1
  Ca  Ca4  1  0.33870072  0.66149315  0.30956713  1
  Ca  Ca5  1  0.35149338  0.67507401  0.81312533  1
  Ga  Ga0  1  0.97582403  0.99856502  0.85244935  1
  Ga  Ga1  1  0.00169923  0.98976906  0.65111668  1
  Ga  Ga2  1  0.00828470  0.00381885  0.14727234  1
  Ga  Ga3  1  0.65724841  0.30538526  0.67797659  1
  Ga  Ga4  1  0.31573097  0.66944659  0.01402236  1
  Ga  Ga5  1  0.32350534  0.67012230  0.52069211  1
  Si  Si0  1  0.72129483  0.01042029  0.74373351  1
  Si  Si1  1  0.34843780  0.01930580  0.58288962  1
  Si  Si2  1  0.98689636  0.65560511  0.08657125  1
  S  S0  1  0.29446057  0.00560801  0.24984944  1
  S  S1  1  0.71111827  0.70975297  0.24506668  1
  S  S2  1  0.99651968  0.28777482  0.24507020  1
  S  S3  1  0.29057669  0.27664574  0.74766954  1
  S  S4  1  0.98457689  0.70618795  0.75084073  1
  S  S5  1  0.97354757  0.33653432  0.58584651  1
  S  S6  1  0.66662990  0.63011056  0.58830992  1
  S  S7  1  0.66318889  0.01256539  0.08151813  1
  S  S8  1  0.34942820  0.33713734  0.08136301  1
  S  S9  1  0.64080365  0.67983078  0.91752261  1
  S  S10  1  0.04396290  0.36175661  0.91281978  1
  S  S11  1  0.31574240  0.96317708  0.91243484  1
  S  S12  1  0.62165960  0.95210201  0.42351778  1
  S  S13  1  0.33161654  0.38130982  0.42402164  1
  S  S14  1  0.04250274  0.66559407  0.41909550  1
  O  O0  1  0.22261408  0.01436812  0.30748490  1
  O  O1  1  0.80532986  0.79556111  0.29857386  1
  O  O2  1  0.99846410  0.20541807  0.29962572  1
  O  O3  1  0.21690570  0.17080728  0.80124634  1
  O  O4  1  0.96922554  0.79117634  0.80482706  1
  O  O5  1  0.84270191  0.04672588  0.80249813  1
  O  O6  1  0.81987820  0.99890282  0.68502880  1
  O  O7  1  0.18664188  0.19208195  0.69527321  1
  O  O8  1  0.02043599  0.81599196  0.69856198  1
  O  O9  1  0.80490973  0.80753002  0.19158463  1
  O  O10  1  0.99732313  0.18855193  0.19247503  1
  O  O11  1  0.18218370  0.99882909  0.20103028  1
  O  O12  1  0.89612131  0.36708397  0.64062278  1
  O  O13  1  0.49339002  0.11534056  0.63694389  1
  O  O14  1  0.64931570  0.51845214  0.63944945  1
  O  O15  1  0.92613864  0.55188591  0.14764246  1
  O  O16  1  0.62218306  0.07715542  0.13494197  1
  O  O17  1  0.45794607  0.37323830  0.13375591  1
  O  O18  1  0.41851444  0.29156583  0.03055840  1
  O  O19  1  0.83970098  0.56609241  0.03726901  1
  O  O20  1  0.69009332  0.11828355  0.03034245  1
  O  O21  1  0.41269763  0.12031904  0.52235594  1
  O  O22  1  0.69499987  0.56648719  0.53333076  1
  O  O23  1  0.86399579  0.30855734  0.53548484  1
  O  O24  1  0.55208382  0.69259637  0.97168522  1
  O  O25  1  0.15516619  0.45699001  0.96380621  1
  O  O26  1  0.29972601  0.84993929  0.96299534  1
  O  O27  1  0.53236690  0.85752896  0.47875888  1
  O  O28  1  0.33063988  0.47905675  0.47762153  1
  O  O29  1  0.15261100  0.67605441  0.46997895  1
  O  O30  1  0.11986770  0.65729664  0.36286016  1
  O  O31  1  0.52304428  0.86208804  0.37122082  1
  O  O32  1  0.33045049  0.46599367  0.36983317  1
  O  O33  1  0.11690762  0.45118422  0.85722638  1
  O  O34  1  0.33665406  0.89223413  0.85648568  1
  O  O35  1  0.54577545  0.66687286  0.86477375  1
  O  O36  1  0.03852687  0.83008902  0.42257853  1
  O  O37  1  0.79297980  0.97019274  0.42471279  1
  O  O38  1  0.17829414  0.20626081  0.42776256  1
  O  O39  1  0.03672805  0.18932542  0.91212013  1
  O  O40  1  0.15150508  0.96998255  0.91084520  1
  O  O41  1  0.81344360  0.84451646  0.91525309  1
  O  O42  1  0.98927897  0.18010184  0.59102909  1
  O  O43  1  0.15776741  0.99279697  0.59745296  1
  O  O44  1  0.81403306  0.80909679  0.59519101  1
  O  O45  1  0.01127980  0.85284282  0.09310192  1
  O  O46  1  0.82075068  0.99704520  0.09002137  1
  O  O47  1  0.17085098  0.19658286  0.09234602  1
  O  O48  1  0.70447907  0.19180080  0.74005860  1
  O  O49  1  0.46703480  0.29907744  0.74138493  1
  O  O50  1  0.82858821  0.53574391  0.74462267  1
  O  O51  1  0.69629347  0.53671464  0.24482049  1
  O  O52  1  0.84176523  0.30727623  0.24573339  1
  O  O53  1  0.46833178  0.15340794  0.24487336  1
  O  O54  1  0.66684663  0.53080644  0.91975281  1
  O  O55  1  0.87024204  0.33634798  0.91927638  1
  O  O56  1  0.46412971  0.13594092  0.92024134  1
  O  O57  1  0.63423525  0.12385173  0.42288440  1
  O  O58  1  0.48594387  0.36154891  0.42236020  1
  O  O59  1  0.87068931  0.51676512  0.42340309  1
  O  O60  1  0.34652501  0.50111880  0.07029992  1
  O  O61  1  0.17606858  0.67650666  0.07021822  1
  O  O62  1  0.51823951  0.83160257  0.07157844  1
  O  O63  1  0.34690870  0.83080399  0.57867867  1
  O  O64  1  0.50821348  0.64637761  0.58598996  1
  O  O65  1  0.14708247  0.49064180  0.57981053  1
  O  O66  1  0.29669734  0.84000043  0.24571300  1
  O  O67  1  0.53967990  0.69291233  0.24327162  1
  O  O68  1  0.15042225  0.46284452  0.24111261  1
  O  O69  1  0.29984162  0.44565455  0.75151012  1
  O  O70  1  0.13607449  0.67943029  0.75441129  1
  O  O71  1  0.52701348  0.85148235  0.74440935  1
loop_
_geom_bond_atom_site_label_1
_geom_bond_atom_site_label_2
_geom_bond_distance
_geom_bond_site_symmetry_2
Na0 O15 2.184662 1_455
Na0 O66 2.375316 1_555
Na0 O51 2.429326 1_455
Na0 O68 2.500300 1_555
Na0 O52 2.556250 1_455
Na1 O48 2.331422 1_555
Na1 O69 2.433757 1_655
Na1 O70 2.465973 1_655
Na1 O33 2.523128 1_655
Na1 O50 2.668385 1_555
Na1 O5 2.699235 1_555
Na1 O12 2.782958 1_555
Na2 O71 2.320956 1_555
Na2 O49 2.415889 1_565
Na2 O70 2.580670 1_555
Na2 O34 2.590725 1_555
Na2 O48 2.601603 1_565
Na2 O13 2.775493 1_565
Na2 O3 2.825751 1_565
Na2 O8 2.997114 1_555
Na3 O44 2.465159 1_555
Na3 O63 2.469053 1_555
Na3 O6 2.516552 1_555
Na3 O64 2.542590 1_555
Na3 O42 2.599873 1_565
Na3 O13 2.612454 1_565
Na3 O27 2.808758 1_555
Na3 O23 2.943098 1_565
Na4 O19 2.321750 1_555
Na4 O62 2.423043 1_555
Na4 O46 2.463622 1_555
Na4 O45 2.604354 1_655
Na4 O60 2.623720 1_555
Na4 O24 2.685177 1_554
Na4 O17 2.823895 1_555
Na4 O9 2.856940 1_555
Na5 O21 2.296989 1_555
Na5 O36 2.380536 1_545
Na5 O57 2.408866 1_555
Na5 O38 2.514816 1_555
Na5 O58 2.514920 1_555
Na5 O0 2.879728 1_555
Na6 O43 2.401313 1_545
Na6 O38 2.481473 1_555
Na6 O42 2.539404 1_455
Na6 O36 2.565161 1_545
Na6 O44 2.682049 1_445
Na6 O37 2.727756 1_445
Na7 O45 2.415026 1_555
Na7 O40 2.486967 1_554
Na7 O41 2.602905 1_454
Na7 O47 2.611232 1_565
Na7 O46 2.649402 1_455
Na7 O39 2.667052 1_564
Na8 O54 2.501716 1_555
Na8 O56 2.597719 1_555
Na8 O55 2.624112 1_555
Na8 O50 2.711814 1_555
Na8 O48 2.722443 1_555
Na8 O49 2.768318 1_555
Na9 O52 2.545113 1_555
Na9 O53 2.565247 1_555
Na9 O51 2.568792 1_555
Na9 O58 2.753346 1_555
Na9 O59 2.789110 1_555
Na9 O57 2.789272 1_555
Na10 O61 2.369742 1_555
Na10 O60 2.521704 1_555
Na10 O68 2.553655 1_555
Na10 O62 2.573006 1_555
Na10 O66 2.640334 1_555
Na10 O67 2.762585 1_555
Na11 O64 2.350973 1_555
Na11 O63 2.432320 1_555
Na11 O71 2.436011 1_555
Na11 O65 2.598734 1_555
Na11 O69 2.729546 1_555
Na11 O70 2.834424 1_555
Ca0 O2 2.200245 1_555
Ca0 O1 2.224488 1_545
Ca0 O0 2.288614 1_655
Ca0 O37 2.291700 1_545
Ca0 O36 2.370364 1_645
Ca0 O38 2.395077 1_655
Ca1 O15 2.214869 1_555
Ca1 O16 2.272179 1_555
Ca1 O17 2.309982 1_555
Ca1 O52 2.365361 1_555
Ca1 O51 2.387430 1_555
Ca1 O53 2.407578 1_555
Ca2 O19 2.154613 1_556
Ca2 O20 2.282462 1_556
Ca2 O18 2.338374 1_556
Ca2 O55 2.345031 1_555
Ca2 O54 2.347092 1_555
Ca2 O56 2.415026 1_555
Ca3 O22 2.201784 1_555
Ca3 O21 2.204840 1_555
Ca3 O23 2.238298 1_555
Ca3 O58 2.290926 1_555
Ca3 O57 2.320095 1_555
Ca3 O59 2.351495 1_555
Ca4 O32 2.209365 1_555
Ca4 O31 2.237291 1_555
Ca4 O67 2.257240 1_555
Ca4 O30 2.290199 1_555
Ca4 O66 2.340456 1_555
Ca4 O68 2.343034 1_555
Ca5 O35 2.146889 1_555
Ca5 O71 2.230709 1_555
Ca5 O34 2.241339 1_555
Ca5 O33 2.299972 1_555
Ca5 O69 2.334766 1_555
Ca5 O70 2.380607 1_555
Ga0 O5 1.860780 1_565
Ga0 O41 2.022830 1_555
Ga0 O39 2.032852 1_665
Ga0 O4 2.123909 1_555
Ga0 O40 2.186106 1_655
Ga0 O3 2.261967 1_665
Ga1 O6 1.841892 1_455
Ga1 O43 1.846004 1_555
Ga1 O8 1.980492 1_555
Ga1 O7 2.019767 1_565
Ga1 O44 2.095943 1_455
Ga1 O42 2.244572 1_465
Ga2 O45 1.837619 1_545
Ga2 O10 1.989630 1_455
Ga2 O11 2.013413 1_545
Ga2 O47 2.048152 1_555
Ga2 O9 2.066512 1_445
Ga2 O46 2.118314 1_445
Ga3 O13 1.860131 1_555
Ga3 O48 1.920557 1_555
Ga3 O12 2.108678 1_555
Ga3 O14 2.143872 1_555
Ga3 O49 2.211753 1_555
Ga3 O50 2.406196 1_555
Ga4 O61 1.811196 1_555
Ga4 O26 2.064788 1_554
Ga4 O25 2.072258 1_554
Ga4 O60 2.111577 1_555
Ga4 O62 2.130284 1_555
Ga4 O24 2.242406 1_554
Ga5 O63 1.884371 1_555
Ga5 O29 1.953138 1_555
Ga5 O28 1.998633 1_555
Ga5 O27 2.032885 1_555
Ga5 O65 2.096384 1_555
Ga5 O64 2.328328 1_555
O0 S0 1.480090 1_555
O1 S1 1.468724 1_555
O2 S2 1.457526 1_555
O3 S3 1.488921 1_555
O4 S4 1.485858 1_555
O5 Si0 1.661570 1_555
O6 Si0 1.631990 1_565
O7 S3 1.476434 1_555
O8 S4 1.481637 1_455
O9 S1 1.495709 1_555
O10 S2 1.491676 1_555
O11 S0 1.490183 1_565
O12 S5 1.514858 1_555
O13 Si1 1.690682 1_555
O14 S6 1.500272 1_555
O15 Si2 1.615884 1_555
O16 S7 1.467758 1_555
O17 S8 1.478600 1_555
O18 S8 1.460361 1_555
O19 Si2 1.618078 1_555
O20 S7 1.451750 1_555
O21 Si1 1.597312 1_555
O22 S6 1.447598 1_555
O23 S5 1.457070 1_555
O24 S9 1.500689 1_555
O25 S10 1.496651 1_555
O26 S11 1.501702 1_555
O27 S12 1.509631 1_555
O28 S13 1.502824 1_555
O29 S14 1.504153 1_555
O30 S14 1.474449 1_555
O31 S12 1.468044 1_555
O32 S13 1.459427 1_555
O33 S10 1.471242 1_555
O34 S11 1.474878 1_555
O35 S9 1.452250 1_555
O36 S14 1.495849 1_555
O37 S12 1.467385 1_555
O38 S13 1.491944 1_555
O39 S10 1.516196 1_555
O40 S11 1.509024 1_555
O41 S9 1.522868 1_555
O42 S5 1.484877 1_555
O43 Si1 1.641619 1_565
O44 S6 1.499140 1_555
O45 Si2 1.677729 1_455
O46 S7 1.505194 1_565
O47 S8 1.490058 1_555
O48 Si0 1.710629 1_555
O49 S3 1.503082 1_555
O50 S4 1.482288 1_555
O51 S1 1.491205 1_555
O52 S2 1.486393 1_555
O53 S0 1.468845 1_555
O54 S9 1.469126 1_555
O55 S10 1.468961 1_655
O56 S11 1.470288 1_545
O57 S12 1.488626 1_545
O58 S13 1.484154 1_555
O59 S14 1.460012 1_655
O60 S8 1.507956 1_555
O61 Si2 1.656311 1_455
O62 S7 1.511749 1_565
O63 Si1 1.686953 1_565
O64 S6 1.503888 1_555
O65 S5 1.491237 1_455
O66 S0 1.498604 1_565
O67 S1 1.473504 1_555
O68 S2 1.494448 1_455
O69 S3 1.479144 1_555
O70 S4 1.499169 1_455
O71 Si0 1.616480 1_565
