# generated using pymatgen
data_Tl8Ge5O14
_symmetry_space_group_name_H-M   'P 1'
_cell_length_a   14.56087425
_cell_length_b   14.56087425
_cell_length_c   14.56087458
_cell_angle_alpha   38.39280401
_cell_angle_beta   38.39280401
_cell_angle_gamma   38.39279641
_symmetry_Int_Tables_number   1
_chemical_formula_structural   Tl8Ge5O14
_chemical_formula_sum   'Tl16 Ge10 O28'
_cell_volume   1069.63148709
_cell_formula_units_Z   2
loop_
 _symmetry_equiv_pos_site_id
 _symmetry_equiv_pos_as_xyz
  1  'x, y, z'
loop_
 _atom_site_type_symbol
 _atom_site_label
 _atom_site_symmetry_multiplicity
 _atom_site_fract_x
 _atom_site_fract_y
 _atom_site_fract_z
 _atom_site_occupancy
  Tl  Tl0  1  0.34215035  0.87687113  0.17852902  1
  Tl  Tl1  1  0.32147098  0.62312887  0.15784965  1
  Tl  Tl2  1  0.65784965  0.12312887  0.82147098  1
  Tl  Tl3  1  0.67852902  0.37687113  0.84215035  1
  Tl  Tl4  1  0.15784965  0.32147098  0.62312887  1
  Tl  Tl5  1  0.87687113  0.17852902  0.34215035  1
  Tl  Tl6  1  0.84215035  0.67852902  0.37687113  1
  Tl  Tl7  1  0.12312887  0.82147098  0.65784965  1
  Tl  Tl8  1  0.44653396  0.44653396  0.44653396  1
  Tl  Tl9  1  0.05346604  0.05346604  0.05346604  1
  Tl  Tl10  1  0.55346604  0.55346604  0.55346604  1
  Tl  Tl11  1  0.94653396  0.94653396  0.94653396  1
  Tl  Tl12  1  0.62312887  0.15784965  0.32147098  1
  Tl  Tl13  1  0.17852902  0.34215035  0.87687113  1
  Tl  Tl14  1  0.37687113  0.84215035  0.67852902  1
  Tl  Tl15  1  0.82147098  0.65784965  0.12312887  1
  Ge  Ge0  1  0.02186138  0.75000000  0.47813862  1
  Ge  Ge1  1  0.97813862  0.25000000  0.52186138  1
  Ge  Ge2  1  0.70286649  0.70286649  0.70286649  1
  Ge  Ge3  1  0.79713351  0.79713351  0.79713351  1
  Ge  Ge4  1  0.29713351  0.29713351  0.29713351  1
  Ge  Ge5  1  0.20286649  0.20286649  0.20286649  1
  Ge  Ge6  1  0.47813862  0.02186138  0.75000000  1
  Ge  Ge7  1  0.75000000  0.47813862  0.02186138  1
  Ge  Ge8  1  0.52186138  0.97813862  0.25000000  1
  Ge  Ge9  1  0.25000000  0.52186138  0.97813862  1
  O  O0  1  0.51908218  0.84402260  0.78912770  1
  O  O1  1  0.71087230  0.65597740  0.98091782  1
  O  O2  1  0.48091782  0.15597740  0.21087230  1
  O  O3  1  0.28912770  0.34402260  0.01908218  1
  O  O4  1  0.19075334  0.57426941  0.44535072  1
  O  O5  1  0.05464928  0.92573059  0.30924666  1
  O  O6  1  0.80924666  0.42573059  0.55464928  1
  O  O7  1  0.94535072  0.07426941  0.69075334  1
  O  O8  1  0.44535072  0.19075334  0.57426941  1
  O  O9  1  0.92573059  0.30924666  0.05464928  1
  O  O10  1  0.55464928  0.80924666  0.42573059  1
  O  O11  1  0.07426941  0.69075334  0.94535072  1
  O  O12  1  0.57426941  0.44535072  0.19075334  1
  O  O13  1  0.30924666  0.05464928  0.92573059  1
  O  O14  1  0.42573059  0.55464928  0.80924666  1
  O  O15  1  0.69075334  0.94535072  0.07426941  1
  O  O16  1  0.84402260  0.78912770  0.51908218  1
  O  O17  1  0.98091782  0.71087230  0.65597740  1
  O  O18  1  0.15597740  0.21087230  0.48091782  1
  O  O19  1  0.01908218  0.28912770  0.34402260  1
  O  O20  1  0.33981594  0.33981594  0.33981594  1
  O  O21  1  0.16018406  0.16018406  0.16018406  1
  O  O22  1  0.66018406  0.66018406  0.66018406  1
  O  O23  1  0.83981594  0.83981594  0.83981594  1
  O  O24  1  0.65597740  0.98091782  0.71087230  1
  O  O25  1  0.78912770  0.51908218  0.84402260  1
  O  O26  1  0.21087230  0.48091782  0.15597740  1
  O  O27  1  0.34402260  0.01908218  0.28912770  1
loop_
_geom_bond_atom_site_label_1
_geom_bond_atom_site_label_2
_geom_bond_distance
_geom_bond_site_symmetry_2
Ge0 O4 1.741738 1_555
Ge0 O5 1.741739 1_555
Ge0 O16 1.784748 1_455
Ge0 O17 1.784748 1_455
Ge1 O6 1.741738 1_555
Ge1 O7 1.741739 1_555
Ge1 O18 1.784748 1_655
Ge1 O19 1.784748 1_655
Ge2 O22 1.724869 1_555
Ge2 O0 1.766191 1_555
Ge2 O25 1.766191 1_555
Ge2 O16 1.766191 1_555
Ge3 O23 1.724869 1_555
Ge3 O24 1.766191 1_555
Ge3 O17 1.766191 1_555
Ge3 O1 1.766191 1_555
Ge4 O20 1.724869 1_555
Ge4 O2 1.766191 1_555
Ge4 O26 1.766191 1_555
Ge4 O18 1.766191 1_555
Ge5 O21 1.724869 1_555
Ge5 O27 1.766191 1_555
Ge5 O19 1.766191 1_555
Ge5 O3 1.766191 1_555
Ge6 O13 1.741738 1_555
Ge6 O8 1.741738 1_555
Ge6 O24 1.784748 1_545
Ge6 O0 1.784748 1_545
Ge7 O9 1.741738 1_555
Ge7 O12 1.741739 1_555
Ge7 O1 1.784748 1_554
Ge7 O25 1.784748 1_554
Ge8 O15 1.741738 1_555
Ge8 O10 1.741738 1_555
Ge8 O27 1.784748 1_565
Ge8 O2 1.784748 1_565
Ge9 O11 1.741738 1_555
Ge9 O14 1.741739 1_555
Ge9 O3 1.784748 1_556
Ge9 O26 1.784748 1_556
O4 Tl4 2.522673 1_555
O4 Tl8 2.553921 1_555
O4 Tl1 2.572488 1_555
O5 Tl5 2.522672 1_465
O5 Tl9 2.553921 1_565
O5 Tl0 2.572488 1_555
O6 Tl6 2.522673 1_555
O6 Tl10 2.553921 1_555
O6 Tl3 2.572488 1_555
O7 Tl7 2.522672 1_645
O7 Tl11 2.553921 1_545
O7 Tl2 2.572488 1_555
O8 Tl12 2.522673 1_555
O8 Tl8 2.553921 1_555
O8 Tl4 2.572487 1_555
O9 Tl13 2.522673 1_654
O9 Tl9 2.553921 1_655
O9 Tl5 2.572488 1_555
O10 Tl14 2.522673 1_555
O10 Tl10 2.553921 1_555
O10 Tl6 2.572487 1_555
O11 Tl15 2.522673 1_456
O11 Tl11 2.553921 1_455
O11 Tl7 2.572488 1_555
O12 Tl1 2.522672 1_555
O12 Tl8 2.553921 1_555
O12 Tl12 2.572488 1_555
O13 Tl0 2.522673 1_546
O13 Tl9 2.553921 1_556
O13 Tl13 2.572487 1_555
O14 Tl3 2.522672 1_555
O14 Tl10 2.553921 1_555
O14 Tl14 2.572488 1_555
O15 Tl2 2.522673 1_564
O15 Tl11 2.553921 1_554
O15 Tl15 2.572487 1_555
O20 Tl12 2.521510 1_555
O20 Tl1 2.521510 1_555
O20 Tl4 2.521510 1_555
O21 Tl0 2.521510 1_545
O21 Tl5 2.521510 1_455
O21 Tl13 2.521510 1_554
O22 Tl14 2.521510 1_555
O22 Tl3 2.521510 1_555
O22 Tl6 2.521510 1_555
O23 Tl2 2.521510 1_565
O23 Tl7 2.521510 1_655
O23 Tl15 2.521510 1_556
