# generated using pymatgen
data_KO2
_symmetry_space_group_name_H-M   'P 1'
_cell_length_a   4.33714636
_cell_length_b   5.48386381
_cell_length_c   8.66368235
_cell_angle_alpha   93.57226128
_cell_angle_beta   101.55648955
_cell_angle_gamma   93.62397606
_symmetry_Int_Tables_number   1
_chemical_formula_structural   KO2
_chemical_formula_sum   'K4 O8'
_cell_volume   200.88566885
_cell_formula_units_Z   4
loop_
 _symmetry_equiv_pos_site_id
 _symmetry_equiv_pos_as_xyz
  1  'x, y, z'
loop_
 _atom_site_type_symbol
 _atom_site_label
 _atom_site_symmetry_multiplicity
 _atom_site_fract_x
 _atom_site_fract_y
 _atom_site_fract_z
 _atom_site_occupancy
  K  K0  1  0.25276739  0.24909676  0.62515517  1
  K  K1  1  0.75004888  0.74892691  0.87588857  1
  K  K2  1  0.74723361  0.75090324  0.37484483  1
  K  K3  1  0.24995112  0.25107309  0.12411143  1
  O  O0  1  0.34840908  0.74931344  0.57592825  1
  O  O1  1  0.65138057  0.24910983  0.92520012  1
  O  O2  1  0.65159092  0.25068656  0.42407175  1
  O  O3  1  0.34861943  0.75089017  0.07479988  1
  O  O4  1  0.85060866  0.24829484  0.82451279  1
  O  O5  1  0.14795889  0.74787718  0.67599470  1
  O  O6  1  0.14939134  0.75170516  0.17548721  1
  O  O7  1  0.85204111  0.25212282  0.32400530  1
loop_
_geom_bond_atom_site_label_1
_geom_bond_atom_site_label_2
_geom_bond_distance
_geom_bond_site_symmetry_2
K0 O4 2.689324 1_455
K0 O2 2.689703 1_555
K0 O4 2.813259 1_555
K0 O0 2.816839 1_545
K0 O1 2.818791 1_555
K0 O0 2.819839 1_555
K0 O5 2.823024 1_555
K0 O2 2.831665 1_455
K0 O7 2.832024 1_455
K0 O5 2.833493 1_545
K1 O5 2.678638 1_655
K1 O3 2.683913 1_556
K1 O3 2.812684 1_656
K1 O6 2.815641 1_656
K1 O1 2.819438 1_555
K1 O1 2.822225 1_565
K1 O4 2.822449 1_565
K1 O0 2.824069 1_555
K1 O4 2.828855 1_555
K1 O5 2.829005 1_555
K2 O6 2.689321 1_655
K2 O0 2.689706 1_555
K2 O6 2.813262 1_555
K2 O2 2.816840 1_565
K2 O3 2.818793 1_555
K2 O2 2.819839 1_555
K2 O7 2.823023 1_555
K2 O0 2.831662 1_655
K2 O5 2.832022 1_655
K2 O7 2.833493 1_565
K3 O7 2.678638 1_455
K3 O1 2.683913 1_554
K3 O1 2.812684 1_454
K3 O4 2.815641 1_454
K3 O3 2.819438 1_555
K3 O3 2.822225 1_545
K3 O6 2.822449 1_545
K3 O2 2.824069 1_555
K3 O6 2.828855 1_555
K3 O7 2.829005 1_555
O0 O5 1.345158 1_555
O1 O4 1.345219 1_555
O2 O7 1.345158 1_555
O3 O6 1.345219 1_555
