# generated using pymatgen
data_BaLi2Si
_symmetry_space_group_name_H-M   'P 1'
_cell_length_a   4.66207222
_cell_length_b   6.34743322
_cell_length_c   6.68787476
_cell_angle_alpha   90.00000000
_cell_angle_beta   90.00000000
_cell_angle_gamma   90.00000000
_symmetry_Int_Tables_number   1
_chemical_formula_structural   BaLi2Si
_chemical_formula_sum   'Ba2 Li4 Si2'
_cell_volume   197.90887453
_cell_formula_units_Z   2
loop_
 _symmetry_equiv_pos_site_id
 _symmetry_equiv_pos_as_xyz
  1  'x, y, z'
loop_
 _atom_site_type_symbol
 _atom_site_label
 _atom_site_symmetry_multiplicity
 _atom_site_fract_x
 _atom_site_fract_y
 _atom_site_fract_z
 _atom_site_occupancy
  Ba  Ba0  1  0.25000000  0.09391693  0.25000000  1
  Ba  Ba1  1  0.75000000  0.90608307  0.75000000  1
  Li  Li0  1  0.25000000  0.58695520  0.04851553  1
  Li  Li1  1  0.75000000  0.41304480  0.95148447  1
  Li  Li2  1  0.75000000  0.41304480  0.54851553  1
  Li  Li3  1  0.25000000  0.58695520  0.45148447  1
  Si  Si0  1  0.75000000  0.69121656  0.25000000  1
  Si  Si1  1  0.25000000  0.30878344  0.75000000  1
loop_
_geom_bond_atom_site_label_1
_geom_bond_atom_site_label_2
_geom_bond_distance
_geom_bond_site_symmetry_2
Ba0 Li3 3.407302 1_555
Ba0 Li0 3.407302 1_555
Ba0 Si0 3.459400 1_445
Ba0 Si0 3.459400 1_545
Ba0 Li0 3.488650 1_545
Ba0 Li3 3.488650 1_545
Ba0 Si1 3.611372 1_555
Ba0 Si1 3.611372 1_554
Ba0 Li1 3.677324 1_454
Ba0 Li2 3.677324 1_455
Ba0 Li2 3.677324 1_555
Ba0 Li1 3.677324 1_554
Ba1 Li1 3.407302 1_555
Ba1 Li2 3.407302 1_555
Ba1 Si1 3.459400 1_665
Ba1 Si1 3.459400 1_565
Ba1 Li1 3.488650 1_565
Ba1 Li2 3.488650 1_565
Ba1 Si0 3.611372 1_556
Ba1 Si0 3.611372 1_555
Ba1 Li3 3.677324 1_655
Ba1 Li3 3.677324 1_555
Ba1 Li0 3.677324 1_656
Ba1 Li0 3.677324 1_556
Li0 Si1 2.665214 1_554
Li0 Si0 2.772627 1_455
Li0 Si0 2.772627 1_555
Li1 Si0 2.665214 1_556
Li1 Si1 2.772627 1_655
Li1 Si1 2.772627 1_555
Li2 Si0 2.665214 1_555
Li2 Si1 2.772627 1_655
Li2 Si1 2.772627 1_555
Li3 Si1 2.665214 1_555
Li3 Si0 2.772627 1_455
Li3 Si0 2.772627 1_555
