# generated using pymatgen
data_Rb2CoPb(NO2)6
_symmetry_space_group_name_H-M   'P 1'
_cell_length_a   7.56794609
_cell_length_b   7.56794609
_cell_length_c   7.56794609
_cell_angle_alpha   60.00000000
_cell_angle_beta   60.00000000
_cell_angle_gamma   60.00000000
_symmetry_Int_Tables_number   1
_chemical_formula_structural   Rb2CoPb(NO2)6
_chemical_formula_sum   'Rb2 Co1 Pb1 N6 O12'
_cell_volume   306.49196347
_cell_formula_units_Z   1
loop_
 _symmetry_equiv_pos_site_id
 _symmetry_equiv_pos_as_xyz
  1  'x, y, z'
loop_
 _atom_site_type_symbol
 _atom_site_label
 _atom_site_symmetry_multiplicity
 _atom_site_fract_x
 _atom_site_fract_y
 _atom_site_fract_z
 _atom_site_occupancy
  Rb  Rb0  1  0.25000000  0.25000000  0.25000000  1
  Rb  Rb1  1  0.75000000  0.75000000  0.75000000  1
  Co  Co0  1  0.00000000  0.00000000  0.00000000  1
  Pb  Pb0  1  0.50000000  0.50000000  0.50000000  1
  N  N0  1  0.81026600  0.18973400  0.18973400  1
  N  N1  1  0.81026600  0.18973400  0.81026600  1
  N  N2  1  0.81026600  0.81026600  0.18973400  1
  N  N3  1  0.18973400  0.18973400  0.81026600  1
  N  N4  1  0.18973400  0.81026600  0.18973400  1
  N  N5  1  0.18973400  0.81026600  0.81026600  1
  O  O0  1  0.15034200  0.35162400  0.84965800  1
  O  O1  1  0.84965800  0.35162400  0.64837600  1
  O  O2  1  0.15034200  0.64837600  0.35162400  1
  O  O3  1  0.64837600  0.15034200  0.84965800  1
  O  O4  1  0.35162400  0.84965800  0.15034200  1
  O  O5  1  0.35162400  0.64837600  0.84965800  1
  O  O6  1  0.35162400  0.15034200  0.64837600  1
  O  O7  1  0.84965800  0.64837600  0.15034200  1
  O  O8  1  0.64837600  0.35162400  0.15034200  1
  O  O9  1  0.15034200  0.84965800  0.64837600  1
  O  O10  1  0.64837600  0.84965800  0.35162400  1
  O  O11  1  0.84965800  0.15034200  0.35162400  1
loop_
_geom_bond_atom_site_label_1
_geom_bond_atom_site_label_2
_geom_bond_distance
_geom_bond_site_symmetry_2
Co0 N1 2.030665 1_454
Co0 N5 2.030665 1_544
Co0 N2 2.030665 1_445
Co0 N3 2.030665 1_554
Co0 N0 2.030665 1_455
Co0 N4 2.030665 1_545
N0 O11 1.260923 1_555
N0 O8 1.260923 1_555
N1 O1 1.260923 1_555
N1 O3 1.260923 1_555
N2 O10 1.260923 1_555
N2 O7 1.260923 1_555
N3 O0 1.260923 1_555
N3 O6 1.260923 1_555
N4 O4 1.260923 1_555
N4 O2 1.260923 1_555
N5 O5 1.260923 1_555
N5 O9 1.260923 1_555
O0 Pb0 2.874586 1_555
O0 Rb1 3.116838 1_455
O0 Rb0 3.116838 1_556
O1 Pb0 2.874586 1_555
O1 Rb0 3.116838 1_655
O1 Rb1 3.116838 1_555
O2 Pb0 2.874586 1_555
O2 Rb0 3.116838 1_555
O2 Rb1 3.116838 1_455
O3 Pb0 2.874586 1_555
O3 Rb1 3.116838 1_545
O3 Rb0 3.116838 1_556
O4 Pb0 2.874586 1_555
O4 Rb1 3.116838 1_554
O4 Rb0 3.116838 1_565
O5 Pb0 2.874586 1_555
O5 Rb0 3.116838 1_556
O5 Rb1 3.116838 1_555
O6 Pb0 2.874586 1_555
O6 Rb0 3.116838 1_555
O6 Rb1 3.116838 1_545
O7 Pb0 2.874586 1_555
O7 Rb0 3.116838 1_655
O7 Rb1 3.116838 1_554
O8 Pb0 2.874586 1_555
O8 Rb0 3.116838 1_555
O8 Rb1 3.116838 1_554
O9 Pb0 2.874586 1_555
O9 Rb1 3.116838 1_455
O9 Rb0 3.116838 1_565
O10 Pb0 2.874586 1_555
O10 Rb0 3.116838 1_565
O10 Rb1 3.116838 1_555
O11 Pb0 2.874586 1_555
O11 Rb1 3.116838 1_545
O11 Rb0 3.116838 1_655
