# generated using pymatgen
data_Cr4(PO4)3
_symmetry_space_group_name_H-M   'P 1'
_cell_length_a   8.85273920
_cell_length_b   8.85273920
_cell_length_c   6.80955928
_cell_angle_alpha   71.48046355
_cell_angle_beta   71.48046355
_cell_angle_gamma   90.87483603
_symmetry_Int_Tables_number   1
_chemical_formula_structural   Cr4(PO4)3
_chemical_formula_sum   'Cr8 P6 O24'
_cell_volume   475.81005548
_cell_formula_units_Z   2
loop_
 _symmetry_equiv_pos_site_id
 _symmetry_equiv_pos_as_xyz
  1  'x, y, z'
loop_
 _atom_site_type_symbol
 _atom_site_label
 _atom_site_symmetry_multiplicity
 _atom_site_fract_x
 _atom_site_fract_y
 _atom_site_fract_z
 _atom_site_occupancy
  Cr  Cr0  1  0.93691700  0.62130900  0.13184500  1
  Cr  Cr1  1  0.06308300  0.37869100  0.86815500  1
  Cr  Cr2  1  0.50320100  0.49679900  0.25000000  1
  Cr  Cr3  1  0.74601200  0.25398800  0.75000000  1
  Cr  Cr4  1  0.62130900  0.93691700  0.63184500  1
  Cr  Cr5  1  0.49679900  0.50320100  0.75000000  1
  Cr  Cr6  1  0.37869100  0.06308300  0.36815500  1
  Cr  Cr7  1  0.25398800  0.74601200  0.25000000  1
  P  P0  1  0.12727100  0.35215400  0.37494100  1
  P  P1  1  0.71994900  0.28005100  0.25000000  1
  P  P2  1  0.87272900  0.64784600  0.62505900  1
  P  P3  1  0.28005100  0.71994900  0.75000000  1
  P  P4  1  0.64784600  0.87272900  0.12505900  1
  P  P5  1  0.35215400  0.12727100  0.87494100  1
  O  O0  1  0.79792500  0.79897100  0.63353600  1
  O  O1  1  0.32827100  0.00171300  0.10616100  1
  O  O2  1  0.54006600  0.26828800  0.25100500  1
  O  O3  1  0.83310300  0.25914300  0.04043400  1
  O  O4  1  0.73171200  0.45993400  0.24899500  1
  O  O5  1  0.04536200  0.41104500  0.19500000  1
  O  O6  1  0.73712600  0.50689100  0.67547300  1
  O  O7  1  0.00171300  0.32827100  0.60616100  1
  O  O8  1  0.26828800  0.54006600  0.75100500  1
  O  O9  1  0.67172900  0.99828700  0.89383900  1
  O  O10  1  0.20102900  0.20207500  0.86646400  1
  O  O11  1  0.49310900  0.26287400  0.82452700  1
  O  O12  1  0.20207500  0.20102900  0.36646400  1
  O  O13  1  0.25914300  0.83310300  0.54043400  1
  O  O14  1  0.79897100  0.79792500  0.13353600  1
  O  O15  1  0.45993400  0.73171200  0.74899500  1
  O  O16  1  0.74085700  0.16689700  0.45956600  1
  O  O17  1  0.16689700  0.74085700  0.95956600  1
  O  O18  1  0.50689100  0.73712600  0.17547300  1
  O  O19  1  0.58895500  0.95463800  0.30500000  1
  O  O20  1  0.99828700  0.67172900  0.39383900  1
  O  O21  1  0.26287400  0.49310900  0.32452700  1
  O  O22  1  0.95463800  0.58895500  0.80500000  1
  O  O23  1  0.41104500  0.04536200  0.69500000  1
loop_
_geom_bond_atom_site_label_1
_geom_bond_atom_site_label_2
_geom_bond_distance
_geom_bond_site_symmetry_2
Cr0 O14 1.999229 1_555
Cr0 O4 2.062429 1_555
Cr0 O17 2.066308 1_654
Cr0 O5 2.092795 1_655
Cr0 O20 2.188945 1_555
Cr0 O22 2.290150 1_554
Cr1 O10 1.999229 1_555
Cr1 O8 2.062429 1_555
Cr1 O3 2.066308 1_456
Cr1 O22 2.092795 1_455
Cr1 O7 2.188945 1_555
Cr1 O5 2.290150 1_556
Cr2 O21 2.021520 1_555
Cr2 O18 2.021520 1_555
Cr2 O4 2.052233 1_555
Cr2 O2 2.052233 1_555
Cr3 O6 2.141329 1_555
Cr3 O11 2.141329 1_555
Cr3 O7 2.157043 1_655
Cr3 O9 2.157043 1_545
Cr3 O3 2.352197 1_556
Cr3 O16 2.352197 1_555
Cr4 O0 1.999229 1_555
Cr4 O15 2.062429 1_555
Cr4 O16 2.066308 1_565
Cr4 O23 2.092795 1_565
Cr4 O9 2.188945 1_555
Cr4 O19 2.290150 1_555
Cr5 O6 2.021520 1_555
Cr5 O11 2.021520 1_555
Cr5 O15 2.052233 1_555
Cr5 O8 2.052233 1_555
Cr6 O12 1.999229 1_555
Cr6 O2 2.062429 1_555
Cr6 O13 2.066308 1_545
Cr6 O19 2.092795 1_545
Cr6 O1 2.188945 1_555
Cr6 O23 2.290150 1_555
Cr7 O18 2.141329 1_555
Cr7 O21 2.141329 1_555
Cr7 O1 2.157043 1_565
Cr7 O20 2.157043 1_455
Cr7 O13 2.352197 1_555
Cr7 O17 2.352197 1_554
O0 P2 1.511157 1_555
O1 P5 1.558478 1_554
O2 P1 1.591971 1_555
O3 P1 1.529555 1_555
O4 P1 1.591971 1_555
O5 P0 1.571358 1_555
O6 P2 1.592602 1_555
O7 P0 1.558478 1_555
O8 P3 1.591971 1_555
O9 P4 1.558478 1_556
O10 P5 1.511157 1_555
O11 P5 1.592602 1_555
O12 P0 1.511157 1_555
O13 P3 1.529555 1_555
O14 P4 1.511157 1_555
O15 P3 1.591971 1_555
O16 P1 1.529555 1_555
O17 P3 1.529555 1_555
O18 P4 1.592602 1_555
O19 P4 1.571358 1_555
O20 P2 1.558478 1_555
O21 P0 1.592602 1_555
O22 P2 1.571358 1_555
O23 P5 1.571358 1_555
