# generated using pymatgen
data_P(WO4)2
_symmetry_space_group_name_H-M   'P 1'
_cell_length_a   5.37434200
_cell_length_b   6.72677600
_cell_length_c   17.77983800
_cell_angle_alpha   90.00000000
_cell_angle_beta   90.00000000
_cell_angle_gamma   90.00000000
_symmetry_Int_Tables_number   1
_chemical_formula_structural   P(WO4)2
_chemical_formula_sum   'P4 W8 O32'
_cell_volume   642.77661059
_cell_formula_units_Z   4
loop_
 _symmetry_equiv_pos_site_id
 _symmetry_equiv_pos_as_xyz
  1  'x, y, z'
loop_
 _atom_site_type_symbol
 _atom_site_label
 _atom_site_symmetry_multiplicity
 _atom_site_fract_x
 _atom_site_fract_y
 _atom_site_fract_z
 _atom_site_occupancy
  P  P0  1  0.76768400  0.54958500  0.31126400  1
  P  P1  1  0.73231600  0.45041500  0.81126400  1
  P  P2  1  0.26768400  0.95041500  0.68873600  1
  P  P3  1  0.23231600  0.04958600  0.18873600  1
  W  W0  1  0.75802000  0.90926300  0.45379100  1
  W  W1  1  0.74198000  0.09073700  0.95379100  1
  W  W2  1  0.25802000  0.59073700  0.54620900  1
  W  W3  1  0.24198000  0.40926300  0.04620900  1
  W  W4  1  0.74215100  0.74967500  0.12840000  1
  W  W5  1  0.75784900  0.25032500  0.62840000  1
  W  W6  1  0.24215100  0.75032500  0.87160000  1
  W  W7  1  0.25784900  0.24967500  0.37160000  1
  O  O0  1  0.05317200  0.76717600  0.49538400  1
  O  O1  1  0.44682800  0.23282400  0.99538400  1
  O  O2  1  0.55317200  0.73282400  0.50461600  1
  O  O3  1  0.94682800  0.26717600  0.00461600  1
  O  O4  1  0.75639300  0.73787600  0.35924100  1
  O  O5  1  0.74360700  0.26212400  0.85924100  1
  O  O6  1  0.25639300  0.76212400  0.64075900  1
  O  O7  1  0.24360700  0.23787600  0.14075900  1
  O  O8  1  0.73834000  0.60874200  0.22815900  1
  O  O9  1  0.76166000  0.39125800  0.72815900  1
  O  O10  1  0.23834000  0.89125800  0.77184100  1
  O  O11  1  0.26166000  0.10874200  0.27184100  1
  O  O12  1  0.02308700  0.59876700  0.09938800  1
  O  O13  1  0.47691300  0.40123300  0.59938800  1
  O  O14  1  0.52308700  0.90123300  0.90061200  1
  O  O15  1  0.97691300  0.09876700  0.40061200  1
  O  O16  1  0.52829800  0.56181600  0.09042900  1
  O  O17  1  0.97170200  0.43818400  0.59042900  1
  O  O18  1  0.02829800  0.93818400  0.90957100  1
  O  O19  1  0.47170200  0.06181600  0.40957100  1
  O  O20  1  0.55480800  0.40477300  0.33165000  1
  O  O21  1  0.94519200  0.59522700  0.83165000  1
  O  O22  1  0.05480800  0.09522700  0.66835000  1
  O  O23  1  0.44519200  0.90477300  0.16835000  1
  O  O24  1  0.02240900  0.44500700  0.32049600  1
  O  O25  1  0.47759100  0.55499300  0.82049600  1
  O  O26  1  0.52240900  0.05499300  0.67950400  1
  O  O27  1  0.97759100  0.94500700  0.17950400  1
  O  O28  1  0.75793300  0.09424500  0.54298500  1
  O  O29  1  0.74206700  0.90575500  0.04298500  1
  O  O30  1  0.25793300  0.40575500  0.45701500  1
  O  O31  1  0.24206700  0.59424500  0.95701500  1
loop_
_geom_bond_atom_site_label_1
_geom_bond_atom_site_label_2
_geom_bond_distance
_geom_bond_site_symmetry_2
O0 W2 1.853991 1_555
O0 W0 1.994141 1_455
O1 W3 1.853991 1_556
O1 W1 1.994141 1_555
O2 W0 1.853991 1_555
O2 W2 1.994141 1_555
O3 W1 1.853991 1_554
O3 W3 1.994141 1_655
O4 P0 1.528262 1_555
O4 W0 2.038444 1_555
O5 P1 1.528262 1_555
O5 W1 2.038444 1_555
O6 P2 1.528262 1_555
O6 W2 2.038444 1_555
O7 P3 1.528256 1_555
O7 W3 2.038444 1_555
O8 P0 1.538345 1_555
O8 W4 2.011263 1_555
O9 P1 1.538345 1_555
O9 W5 2.011263 1_555
O10 P2 1.538345 1_555
O10 W6 2.011263 1_555
O11 P3 1.538344 1_555
O11 W7 2.011263 1_555
O12 W4 1.891082 1_455
O12 W3 1.975580 1_555
O13 W5 1.891082 1_555
O13 W2 1.975580 1_555
O14 W6 1.891082 1_555
O14 W1 1.975580 1_565
O15 W7 1.891082 1_655
O15 W0 1.975580 1_545
O16 W4 1.836742 1_555
O16 W3 2.009734 1_555
O17 W5 1.836742 1_555
O17 W2 2.009734 1_655
O18 W6 1.836742 1_555
O18 W1 2.009734 1_465
O19 W7 1.836742 1_555
O19 W0 2.009734 1_545
O20 P0 1.545696 1_555
O20 W7 2.034727 1_555
O21 P1 1.545696 1_555
O21 W6 2.034727 1_655
O22 P2 1.545696 1_545
O22 W5 2.034727 1_455
O23 P3 1.545700 1_565
O23 W4 2.034727 1_555
O24 P0 1.547876 1_455
O24 W7 2.037926 1_555
O25 P1 1.547876 1_555
O25 W6 2.037926 1_555
O26 P2 1.547876 1_545
O26 W5 2.037926 1_555
O27 P3 1.547879 1_665
O27 W4 2.037926 1_555
O28 W5 1.846257 1_555
O28 W0 2.015763 1_545
O29 W4 1.846257 1_555
O29 W1 2.015763 1_564
O30 W7 1.846257 1_555
O30 W2 2.015763 1_555
O31 W6 1.846257 1_555
O31 W3 2.015763 1_556
