# generated using pymatgen
data_BaSe2O5
_symmetry_space_group_name_H-M   'P 1'
_cell_length_a   11.75860894
_cell_length_b   4.58024973
_cell_length_c   9.80053485
_cell_angle_alpha   87.64535617
_cell_angle_beta   90.00000000
_cell_angle_gamma   90.00000000
_symmetry_Int_Tables_number   1
_chemical_formula_structural   BaSe2O5
_chemical_formula_sum   'Ba4 Se8 O20'
_cell_volume   527.38532135
_cell_formula_units_Z   4
loop_
 _symmetry_equiv_pos_site_id
 _symmetry_equiv_pos_as_xyz
  1  'x, y, z'
loop_
 _atom_site_type_symbol
 _atom_site_label
 _atom_site_symmetry_multiplicity
 _atom_site_fract_x
 _atom_site_fract_y
 _atom_site_fract_z
 _atom_site_occupancy
  Ba  Ba0  1  0.66982271  0.24420430  0.03717426  1
  Ba  Ba1  1  0.16982271  0.75579570  0.46282574  1
  Ba  Ba2  1  0.33017729  0.75579570  0.96282574  1
  Ba  Ba3  1  0.83017729  0.24420430  0.53717426  1
  Se  Se0  1  0.60552455  0.81275779  0.74235791  1
  Se  Se1  1  0.10552455  0.18724221  0.75764209  1
  Se  Se2  1  0.39447545  0.18724221  0.25764209  1
  Se  Se3  1  0.89447545  0.81275779  0.24235791  1
  Se  Se4  1  0.58023097  0.73229491  0.35490243  1
  Se  Se5  1  0.08023097  0.26770509  0.14509757  1
  Se  Se6  1  0.41976903  0.26770509  0.64509757  1
  Se  Se7  1  0.91976903  0.73229491  0.85490243  1
  O  O0  1  0.55878501  0.75700941  0.90348085  1
  O  O1  1  0.05878501  0.24299059  0.59651915  1
  O  O2  1  0.44121499  0.24299059  0.09651915  1
  O  O3  1  0.94121499  0.75700941  0.40348085  1
  O  O4  1  0.65608259  0.15546707  0.74124578  1
  O  O5  1  0.15608259  0.84453293  0.75875422  1
  O  O6  1  0.34391741  0.84453293  0.25875422  1
  O  O7  1  0.84391741  0.15546707  0.24124578  1
  O  O8  1  0.53584858  0.11848503  0.34271053  1
  O  O9  1  0.03584858  0.88151497  0.15728947  1
  O  O10  1  0.46415142  0.88151497  0.65728947  1
  O  O11  1  0.96415142  0.11848503  0.84271053  1
  O  O12  1  0.85971065  0.71315821  0.70067928  1
  O  O13  1  0.35971065  0.28684179  0.79932072  1
  O  O14  1  0.14028935  0.28684179  0.29932072  1
  O  O15  1  0.64028935  0.71315821  0.20067928  1
  O  O16  1  0.80969351  0.76635813  0.96138787  1
  O  O17  1  0.30969351  0.23364187  0.53861213  1
  O  O18  1  0.19030649  0.23364187  0.03861213  1
  O  O19  1  0.69030649  0.76635813  0.46138787  1
loop_
_geom_bond_atom_site_label_1
_geom_bond_atom_site_label_2
_geom_bond_distance
_geom_bond_site_symmetry_2
Ba0 O2 2.750267 1_555
Ba0 O15 2.754053 1_555
Ba0 O16 2.860149 1_544
Ba0 O15 2.878252 1_545
Ba0 O7 2.879080 1_555
Ba0 O0 2.939599 1_544
Ba0 O0 2.947098 1_554
Ba0 O4 2.949517 1_554
Ba0 O16 2.971604 1_554
Ba1 O3 2.750267 1_455
Ba1 O14 2.754053 1_555
Ba1 O17 2.860149 1_565
Ba1 O14 2.878252 1_565
Ba1 O6 2.879080 1_555
Ba1 O1 2.939599 1_565
Ba1 O1 2.947098 1_555
Ba1 O5 2.949517 1_555
Ba1 O17 2.971604 1_555
Ba2 O0 2.750267 1_555
Ba2 O13 2.754053 1_555
Ba2 O18 2.860149 1_566
Ba2 O13 2.878252 1_565
Ba2 O5 2.879080 1_555
Ba2 O2 2.939599 1_566
Ba2 O2 2.947098 1_556
Ba2 O6 2.949517 1_556
Ba2 O18 2.971604 1_556
Ba3 O1 2.750267 1_655
Ba3 O12 2.754053 1_555
Ba3 O19 2.860149 1_545
Ba3 O12 2.878252 1_545
Ba3 O4 2.879080 1_555
Ba3 O3 2.939599 1_545
Ba3 O3 2.947098 1_555
Ba3 O7 2.949517 1_555
Ba3 O19 2.971604 1_555
O0 Se0 1.681561 1_555
O1 Se1 1.681561 1_555
O2 Se2 1.681561 1_555
O3 Se3 1.681561 1_555
O4 Se0 1.678116 1_545
O5 Se1 1.678116 1_565
O6 Se2 1.678116 1_565
O7 Se3 1.678116 1_545
O8 Se4 1.843389 1_545
O8 Se2 1.880452 1_555
O9 Se5 1.843389 1_565
O9 Se3 1.880452 1_455
O10 Se6 1.843389 1_565
O10 Se0 1.880452 1_555
O11 Se7 1.843389 1_545
O11 Se1 1.880452 1_655
O12 Se7 1.673867 1_555
O13 Se6 1.673867 1_555
O14 Se5 1.673867 1_555
O15 Se4 1.673867 1_555
O16 Se7 1.673964 1_555
O17 Se6 1.673964 1_555
O18 Se5 1.673964 1_555
O19 Se4 1.673964 1_555
