# generated using pymatgen
data_V6PbO11
_symmetry_space_group_name_H-M   'P 1'
_cell_length_a   5.83955700
_cell_length_b   5.83955700
_cell_length_c   13.19701500
_cell_angle_alpha   90.00000000
_cell_angle_beta   90.00000000
_cell_angle_gamma   120.00001135
_symmetry_Int_Tables_number   1
_chemical_formula_structural   V6PbO11
_chemical_formula_sum   'V12 Pb2 O22'
_cell_volume   389.73202726
_cell_formula_units_Z   2
loop_
 _symmetry_equiv_pos_site_id
 _symmetry_equiv_pos_as_xyz
  1  'x, y, z'
loop_
 _atom_site_type_symbol
 _atom_site_label
 _atom_site_symmetry_multiplicity
 _atom_site_fract_x
 _atom_site_fract_y
 _atom_site_fract_z
 _atom_site_occupancy
  V  V0  1  0.66666700  0.33333300  0.25000000  1
  V  V1  1  0.33333300  0.66666700  0.75000000  1
  V  V2  1  0.00000000  0.00000000  0.35264300  1
  V  V3  1  0.00000000  0.00000000  0.85264300  1
  V  V4  1  0.00000000  0.00000000  0.64735700  1
  V  V5  1  0.00000000  0.00000000  0.14735700  1
  V  V6  1  0.50000000  0.00000000  0.50000000  1
  V  V7  1  0.50000000  0.50000000  0.00000000  1
  V  V8  1  0.00000000  0.50000000  0.00000000  1
  V  V9  1  0.00000000  0.50000000  0.50000000  1
  V  V10  1  0.50000000  0.50000000  0.50000000  1
  V  V11  1  0.50000000  0.00000000  0.00000000  1
  Pb  Pb0  1  0.66666700  0.33333300  0.75000000  1
  Pb  Pb1  1  0.33333300  0.66666700  0.25000000  1
  O  O0  1  0.33333300  0.66666700  0.91230700  1
  O  O1  1  0.66666700  0.33333300  0.41230700  1
  O  O2  1  0.66666700  0.33333300  0.08769300  1
  O  O3  1  0.33333300  0.66666700  0.58769300  1
  O  O4  1  0.84894000  0.69788000  0.25000000  1
  O  O5  1  0.15106000  0.84894000  0.75000000  1
  O  O6  1  0.69788000  0.84894000  0.75000000  1
  O  O7  1  0.30212000  0.15106000  0.25000000  1
  O  O8  1  0.84894000  0.15106000  0.25000000  1
  O  O9  1  0.15106000  0.30212000  0.75000000  1
  O  O10  1  0.17077000  0.82923000  0.41928500  1
  O  O11  1  0.17077000  0.34154000  0.41928500  1
  O  O12  1  0.65846000  0.82923000  0.41928500  1
  O  O13  1  0.34154000  0.17077000  0.91928500  1
  O  O14  1  0.17077000  0.34154000  0.08071500  1
  O  O15  1  0.82923000  0.17077000  0.58071500  1
  O  O16  1  0.34154000  0.17077000  0.58071500  1
  O  O17  1  0.65846000  0.82923000  0.08071500  1
  O  O18  1  0.17077000  0.82923000  0.08071500  1
  O  O19  1  0.82923000  0.65846000  0.91928500  1
  O  O20  1  0.82923000  0.17077000  0.91928500  1
  O  O21  1  0.82923000  0.65846000  0.58071500  1
loop_
_geom_bond_atom_site_label_1
_geom_bond_atom_site_label_2
_geom_bond_distance
_geom_bond_site_symmetry_2
O0 V11 2.044751 1_566
O0 V8 2.044751 1_556
O0 V7 2.044755 1_556
O0 V1 2.141968 1_555
O1 V6 2.044751 1_555
O1 V9 2.044751 1_655
O1 V10 2.044755 1_555
O1 V0 2.141968 1_555
O2 V8 2.044751 1_655
O2 V11 2.044751 1_555
O2 V7 2.044755 1_555
O2 V0 2.141968 1_555
O3 V9 2.044751 1_555
O3 V6 2.044751 1_565
O3 V10 2.044755 1_555
O3 V1 2.141968 1_555
O4 V0 1.843589 1_555
O4 V2 2.041890 1_665
O4 V5 2.041890 1_665
O5 V1 1.843584 1_555
O5 V3 2.041890 1_565
O5 V4 2.041890 1_565
O6 V1 1.843589 1_555
O6 V3 2.041890 1_665
O6 V4 2.041890 1_665
O7 V0 1.843589 1_555
O7 V2 2.041890 1_555
O7 V5 2.041890 1_555
O8 V0 1.843584 1_555
O8 V2 2.041890 1_655
O8 V5 2.041890 1_655
O9 V1 1.843589 1_555
O9 V3 2.041890 1_555
O9 V4 2.041890 1_555
O10 V2 1.938254 1_565
O10 V9 1.976893 1_555
O10 V6 1.976893 1_565
O10 Pb1 2.773896 1_555
O11 V2 1.938253 1_555
O11 V10 1.976893 1_555
O11 V9 1.976893 1_555
O11 Pb1 2.773899 1_555
O12 V2 1.938253 1_665
O12 V10 1.976893 1_555
O12 V6 1.976893 1_565
O12 Pb1 2.773899 1_555
O13 V3 1.938253 1_555
O13 V7 1.976893 1_556
O13 V11 1.976893 1_556
O13 Pb0 2.773899 1_555
O14 V5 1.938253 1_555
O14 V7 1.976893 1_555
O14 V8 1.976893 1_555
O14 Pb1 2.773899 1_555
O15 V4 1.938254 1_655
O15 V6 1.976893 1_555
O15 V9 1.976893 1_655
O15 Pb0 2.773896 1_555
O16 V4 1.938253 1_555
O16 V10 1.976893 1_555
O16 V6 1.976893 1_555
O16 Pb0 2.773899 1_555
O17 V5 1.938253 1_665
O17 V7 1.976893 1_555
O17 V11 1.976893 1_565
O17 Pb1 2.773899 1_555
O18 V5 1.938254 1_565
O18 V11 1.976893 1_565
O18 V8 1.976893 1_555
O18 Pb1 2.773896 1_555
O19 V3 1.938253 1_665
O19 V7 1.976893 1_556
O19 V8 1.976893 1_656
O19 Pb0 2.773899 1_555
O20 V3 1.938254 1_655
O20 V11 1.976893 1_556
O20 V8 1.976893 1_656
O20 Pb0 2.773896 1_555
O21 V4 1.938253 1_665
O21 V10 1.976893 1_555
O21 V9 1.976893 1_655
O21 Pb0 2.773899 1_555
