# generated using pymatgen
data_Na3Al4P3(SO8)3
_symmetry_space_group_name_H-M   'P 1'
_cell_length_a   8.40775762
_cell_length_b   8.40601331
_cell_length_c   21.69956599
_cell_angle_alpha   89.21704028
_cell_angle_beta   90.68895528
_cell_angle_gamma   120.19036410
_symmetry_Int_Tables_number   1
_chemical_formula_structural   Na3Al4P3(SO8)3
_chemical_formula_sum   'Na9 Al12 P9 S9 O72'
_cell_volume   1325.46232613
_cell_formula_units_Z   3
loop_
 _symmetry_equiv_pos_site_id
 _symmetry_equiv_pos_as_xyz
  1  'x, y, z'
loop_
 _atom_site_type_symbol
 _atom_site_label
 _atom_site_symmetry_multiplicity
 _atom_site_fract_x
 _atom_site_fract_y
 _atom_site_fract_z
 _atom_site_occupancy
  Na  Na0  1  0.36036173  0.36059058  0.25109458  1
  Na  Na1  1  0.69359776  0.02693367  0.91670162  1
  Na  Na2  1  0.97263992  0.30603915  0.41679319  1
  Na  Na3  1  0.00351908  0.99752657  0.50041378  1
  Na  Na4  1  0.00171825  0.99576667  0.00059124  1
  Na  Na5  1  0.66286566  0.33555398  0.83284466  1
  Na  Na6  1  0.66657085  0.33327758  0.33333156  1
  Na  Na7  1  0.33213369  0.67564406  0.16617483  1
  Na  Na8  1  0.33335338  0.66665939  0.66669451  1
  Al  Al0  1  0.01452897  0.00415730  0.35208668  1
  Al  Al1  1  0.99724360  0.99247762  0.85239248  1
  Al  Al2  1  0.99175137  0.00546236  0.64776720  1
  Al  Al3  1  -0.00004136  0.00529288  0.14814350  1
  Al  Al4  1  0.67497763  0.32792431  0.68562621  1
  Al  Al5  1  0.66842674  0.31698310  0.18588981  1
  Al  Al6  1  0.66070465  0.33102318  0.98084645  1
  Al  Al7  1  0.66914397  0.34050740  0.48100495  1
  Al  Al8  1  0.34556713  0.68184314  0.01858740  1
  Al  Al9  1  0.31908626  0.65497371  0.51868085  1
  Al  Al10  1  0.31936490  0.66323859  0.31454268  1
  Al  Al11  1  0.34809155  0.67919428  0.81483088  1
  P  P0  1  0.28734569  0.99515958  0.24888128  1
  P  P1  1  0.99598384  0.28687344  0.25039281  1
  P  P2  1  0.71150172  -0.00005439  0.75013283  1
  P  P3  1  0.95529020  0.33337001  0.58317769  1
  P  P4  1  0.66849076  0.04384068  0.08299815  1
  P  P5  1  0.62073070  0.66044043  0.91697901  1
  P  P6  1  0.32722518  0.95442430  0.91628113  1
  P  P7  1  0.33956165  0.38029030  0.41663345  1
  P  P8  1  0.04449129  0.67225165  0.41694943  1
  S  S0  1  0.71422240  0.71425058  0.25009408  1
  S  S1  1  0.28888967  0.28919995  0.74988088  1
  S  S2  1  0.00040616  0.71177546  0.74928867  1
  S  S3  1  0.37777224  0.04426255  0.58336917  1
  S  S4  1  0.66627876  0.62154808  0.58396343  1
  S  S5  1  0.95467412  0.62074890  0.08349031  1
  S  S6  1  0.37783567  0.33442636  0.08359746  1
  S  S7  1  0.05076396  0.38396933  0.91665747  1
  S  S8  1  0.61731837  0.94987862  0.41697059  1
  O  O0  1  0.20747145  0.03880627  0.30557040  1
  O  O1  1  0.82646156  0.79324773  0.30575750  1
  O  O2  1  0.96310743  0.16859310  0.30918901  1
  O  O3  1  0.20785319  0.17305236  0.80549632  1
  O  O4  1  0.96786870  0.79178230  0.80465412  1
  O  O5  1  0.83125879  0.03484993  0.80888662  1
  O  O6  1  0.79773968  0.96516169  0.69393950  1
  O  O7  1  0.17534045  0.20629418  0.69420264  1
  O  O8  1  0.03452338  0.82828051  0.69384239  1
  O  O9  1  0.79310370  0.82618417  0.19400350  1
  O  O10  1  0.03810960  0.20416855  0.19425744  1
  O  O11  1  0.16636823  0.96413620  0.19171724  1
  O  O12  1  0.86891687  0.36823039  0.63941089  1
  O  O13  1  0.49145703  0.12715465  0.63912182  1
  O  O14  1  0.63214391  0.50497750  0.63949187  1
  O  O15  1  0.87121208  0.50743138  0.13923355  1
  O  O16  1  0.63242808  0.12924998  0.13885241  1
  O  O17  1  0.49226458  0.36880285  0.13998049  1
  O  O18  1  0.46034096  0.30227775  0.02897409  1
  O  O19  1  0.83941317  0.53961634  0.02770477  1
  O  O20  1  0.70201232  0.16379267  0.02422564  1
  O  O21  1  0.45878465  0.16035895  0.52781128  1
  O  O22  1  0.69864151  0.54146505  0.52867070  1
  O  O23  1  0.83559432  0.29848780  0.52449429  1
  O  O24  1  0.53830728  0.70291797  0.97319106  1
  O  O25  1  0.16170018  0.46200244  0.97278378  1
  O  O26  1  0.29378233  0.83469799  0.97380869  1
  O  O27  1  0.53800912  0.83842862  0.47312343  1
  O  O28  1  0.29844160  0.46416605  0.47253873  1
  O  O29  1  0.16529274  0.70583512  0.47406069  1
  O  O30  1  0.12514151  0.62736672  0.36082167  1
  O  O31  1  0.50616742  0.87165277  0.36099917  1
  O  O32  1  0.37097001  0.49728125  0.35759322  1
  O  O33  1  0.12887236  0.49516182  0.86047816  1
  O  O34  1  0.36986326  0.87210653  0.86010997  1
  O  O35  1  0.50134677  0.62733197  0.85951677  1
  O  O36  1  0.01985325  0.83899862  0.40764451  1
  O  O37  1  0.80444315  0.97453597  0.41017890  1
  O  O38  1  0.16181115  0.18959125  0.40926051  1
  O  O39  1  0.02573953  0.19597983  0.91009810  1
  O  O40  1  0.15994932  0.97867591  0.90677438  1
  O  O41  1  0.81193998  0.83775589  0.90847077  1
  O  O42  1  0.97652913  0.16171822  0.59126030  1
  O  O43  1  0.19296110  0.02339650  0.59140558  1
  O  O44  1  0.83416459  0.80491266  0.59110716  1
  O  O45  1  0.97453479  0.80529709  0.09037953  1
  O  O46  1  0.84025507  0.02351487  0.09190966  1
  O  O47  1  0.19466742  0.16723109  0.09025610  1
  O  O48  1  0.69024241  0.17160302  0.74207618  1
  O  O49  1  0.47375402  0.30996632  0.74188618  1
  O  O50  1  0.83247907  0.52838473  0.74219431  1
  O  O51  1  0.68974309  0.52709826  0.24237600  1
  O  O52  1  0.82947716  0.31223627  0.24222506  1
  O  O53  1  0.47810163  0.17419450  0.24112554  1
  O  O54  1  0.64522541  0.49322357  0.92651353  1
  O  O55  1  0.86275023  0.35917834  0.92317517  1
  O  O56  1  0.50454463  0.14556318  0.92482487  1
  O  O57  1  0.64093656  0.13754264  0.42342332  1
  O  O58  1  0.50663727  0.35571960  0.42610100  1
  O  O59  1  0.85353808  0.49459806  0.42515561  1
  O  O60  1  0.35625089  0.49754204  0.07539231  1
  O  O61  1  0.13727611  0.63667260  0.07612666  1
  O  O62  1  0.49529901  0.85187218  0.07587601  1
  O  O63  1  0.36259702  0.86227243  0.57614515  1
  O  O64  1  0.50354550  0.64377830  0.57557257  1
  O  O65  1  0.14801291  0.50526230  0.57601905  1
  O  O66  1  0.31292385  0.82906992  0.25861782  1
  O  O67  1  0.52802086  0.69152982  0.25674518  1
  O  O68  1  0.17302564  0.47801509  0.25751868  1
  O  O69  1  0.30414185  0.47119792  0.75719115  1
  O  O70  1  0.16308876  0.68945234  0.75775501  1
  O  O71  1  0.51880725  0.82797574  0.75726143  1
loop_
_geom_bond_atom_site_label_1
_geom_bond_atom_site_label_2
_geom_bond_distance
_geom_bond_site_symmetry_2
Na0 O68 2.246620 1_555
Na0 O53 2.248592 1_555
Na0 O51 2.402313 1_555
Na0 O67 2.408764 1_555
Na0 O32 2.575530 1_555
Na0 O0 2.611221 1_555
Na0 O10 2.640436 1_555
Na0 O17 2.651595 1_555
Na1 O41 2.270274 1_545
Na1 O56 2.271068 1_555
Na1 O39 2.418928 1_655
Na1 O55 2.419401 1_555
Na1 O20 2.599996 1_556
Na1 O5 2.607852 1_555
Na1 O24 2.645063 1_545
Na1 O34 2.647822 1_545
Na2 O38 2.256338 1_655
Na2 O59 2.270809 1_555
Na2 O37 2.414201 1_545
Na2 O57 2.415770 1_555
Na2 O2 2.601819 1_555
Na2 O23 2.603983 1_555
Na2 O30 2.622898 1_655
Na2 O28 2.652524 1_655
Na3 O43 2.463853 1_565
Na3 O38 2.470881 1_565
Na3 O36 2.472055 1_555
Na3 O44 2.486696 1_455
Na3 O42 2.498540 1_465
Na3 O37 2.505809 1_455
Na4 O45 2.443210 1_455
Na4 O47 2.478702 1_565
Na4 O41 2.484031 1_454
Na4 O40 2.490039 1_554
Na4 O46 2.493941 1_465
Na4 O39 2.511292 1_564
Na5 O49 2.462169 1_555
Na5 O56 2.478893 1_555
Na5 O50 2.487157 1_555
Na5 O54 2.487678 1_555
Na5 O48 2.497188 1_555
Na5 O55 2.510313 1_555
Na6 O52 2.476700 1_555
Na6 O59 2.476853 1_555
Na6 O57 2.478112 1_555
Na6 O53 2.483590 1_555
Na6 O51 2.487978 1_555
Na6 O58 2.495348 1_555
Na7 O62 2.420183 1_555
Na7 O66 2.449762 1_555
Na7 O61 2.451582 1_555
Na7 O68 2.493357 1_555
Na7 O67 2.510186 1_555
Na7 O60 2.560997 1_555
Na8 O71 2.450496 1_555
Na8 O65 2.452219 1_555
Na8 O69 2.476644 1_555
Na8 O63 2.478249 1_555
Na8 O70 2.518874 1_555
Na8 O64 2.519831 1_555
Al0 O0 1.814223 1_555
Al0 O36 1.843460 1_545
Al0 O2 1.876227 1_455
Al0 O38 1.891278 1_555
Al0 O1 1.960905 1_445
Al0 O37 2.091332 1_445
Al1 O40 1.842408 1_655
Al1 O5 1.850610 1_565
Al1 O41 1.887865 1_555
Al1 O4 1.898097 1_555
Al1 O3 1.942424 1_665
Al1 O39 2.047143 1_665
Al2 O6 1.803796 1_545
Al2 O42 1.834781 1_555
Al2 O7 1.906879 1_655
Al2 O8 1.958720 1_645
Al2 O44 1.969812 1_545
Al2 O43 2.041728 1_655
Al3 O10 1.843265 1_555
Al3 O11 1.848612 1_545
Al3 O46 1.864884 1_455
Al3 O9 1.910235 1_445
Al3 O47 1.967818 1_555
Al3 O45 2.032948 1_445
Al4 O12 1.803813 1_555
Al4 O48 1.834528 1_555
Al4 O13 1.907214 1_555
Al4 O14 1.958736 1_555
Al4 O50 1.967996 1_555
Al4 O49 2.040411 1_555
Al5 O16 1.783252 1_555
Al5 O52 1.828303 1_555
Al5 O53 1.874307 1_555
Al5 O15 1.935679 1_555
Al5 O17 1.994359 1_555
Al5 O51 2.095140 1_555
Al6 O54 1.843053 1_555
Al6 O20 1.851971 1_556
Al6 O56 1.893893 1_555
Al6 O18 1.900782 1_556
Al6 O19 1.930877 1_556
Al6 O55 2.036306 1_555
Al7 O23 1.852066 1_555
Al7 O58 1.853375 1_555
Al7 O59 1.879533 1_555
Al7 O22 1.898720 1_555
Al7 O21 1.939166 1_555
Al7 O57 2.042677 1_555
Al8 O26 1.817431 1_554
Al8 O24 1.836496 1_554
Al8 O62 1.836929 1_555
Al8 O25 1.983119 1_554
Al8 O60 2.003178 1_555
Al8 O61 2.034914 1_555
Al9 O29 1.818480 1_555
Al9 O28 1.834383 1_555
Al9 O65 1.838581 1_555
Al9 O27 1.972483 1_555
Al9 O64 2.008915 1_555
Al9 O63 2.032852 1_555
Al10 O30 1.817132 1_555
Al10 O66 1.856588 1_555
Al10 O68 1.886411 1_555
Al10 O32 1.889571 1_555
Al10 O31 1.948092 1_555
Al10 O67 2.081430 1_555
Al11 O35 1.820438 1_555
Al11 O34 1.835543 1_555
Al11 O71 1.838452 1_555
Al11 O33 1.976307 1_555
Al11 O70 2.011585 1_555
Al11 O69 2.038817 1_555
O0 P0 1.542348 1_545
O1 S0 1.467891 1_555
O2 P1 1.546018 1_555
O3 S1 1.480685 1_555
O4 S2 1.478361 1_655
O5 P2 1.551641 1_555
O6 P2 1.530462 1_565
O7 S1 1.477487 1_555
O8 S2 1.477345 1_555
O9 S0 1.472109 1_555
O10 P1 1.540696 1_455
O11 P0 1.533948 1_555
O12 P3 1.532101 1_555
O13 S3 1.479242 1_555
O14 S4 1.479071 1_555
O15 S5 1.476335 1_555
O16 P4 1.525753 1_555
O17 S6 1.485861 1_555
O18 S6 1.475209 1_555
O19 S5 1.482987 1_555
O20 P4 1.552516 1_555
O21 S3 1.479464 1_555
O22 S4 1.476802 1_555
O23 P3 1.550137 1_555
O24 P5 1.541654 1_555
O25 S7 1.470626 1_555
O26 P6 1.529624 1_555
O27 S8 1.472106 1_555
O28 P7 1.538480 1_555
O29 P8 1.529063 1_555
O30 P8 1.541199 1_555
O31 S8 1.468798 1_555
O32 P7 1.546194 1_555
O33 S7 1.470305 1_555
O34 P6 1.541451 1_555
O35 P5 1.529108 1_555
O36 P8 1.526979 1_555
O37 S8 1.488866 1_555
O38 P7 1.555811 1_555
O39 S7 1.494231 1_555
O40 P6 1.530474 1_555
O41 P5 1.558801 1_555
O42 P3 1.547936 1_555
O43 S3 1.485660 1_555
O44 S4 1.485041 1_555
O45 S5 1.483918 1_555
O46 P4 1.546839 1_555
O47 S6 1.480130 1_555
O48 P2 1.548026 1_555
O49 S1 1.486329 1_555
O50 S2 1.485198 1_655
O51 S0 1.492013 1_555
O52 P1 1.526403 1_555
O53 P0 1.561251 1_545
O54 P5 1.530745 1_555
O55 S7 1.495169 1_655
O56 P6 1.559136 1_545
O57 S8 1.495953 1_545
O58 P7 1.530307 1_555
O59 P8 1.558100 1_655
O60 S6 1.479024 1_555
O61 S5 1.482951 1_455
O62 P4 1.544791 1_565
O63 S3 1.480182 1_565
O64 S4 1.479976 1_555
O65 P3 1.543593 1_455
O66 P0 1.527399 1_555
O67 S0 1.487337 1_555
O68 P1 1.554690 1_455
O69 S1 1.480190 1_555
O70 S2 1.480197 1_555
O71 P2 1.543656 1_565
