# generated using pymatgen
data_Na4HgP2
_symmetry_space_group_name_H-M   'P 1'
_cell_length_a   8.97861425
_cell_length_b   8.97861460
_cell_length_c   8.97861449
_cell_angle_alpha   32.12722641
_cell_angle_beta   32.12721766
_cell_angle_gamma   32.12722063
_symmetry_Int_Tables_number   1
_chemical_formula_structural   Na4HgP2
_chemical_formula_sum   'Na4 Hg1 P2'
_cell_volume   181.91470786
_cell_formula_units_Z   1
loop_
 _symmetry_equiv_pos_site_id
 _symmetry_equiv_pos_as_xyz
  1  'x, y, z'
loop_
 _atom_site_type_symbol
 _atom_site_label
 _atom_site_symmetry_multiplicity
 _atom_site_fract_x
 _atom_site_fract_y
 _atom_site_fract_z
 _atom_site_occupancy
  Na  Na0  1  0.79327429  0.79327429  0.79327429  1
  Na  Na1  1  0.59727293  0.59727293  0.59727293  1
  Na  Na2  1  0.20672571  0.20672571  0.20672571  1
  Na  Na3  1  0.40272707  0.40272707  0.40272707  1
  Hg  Hg0  1  -0.00000000  0.00000000  0.00000000  1
  P  P0  1  0.09371708  0.09371708  0.09371708  1
  P  P1  1  0.90628292  0.90628292  0.90628292  1
loop_
_geom_bond_atom_site_label_1
_geom_bond_atom_site_label_2
_geom_bond_distance
_geom_bond_site_symmetry_2
Na0 P1 2.884425 1_555
Na0 P0 2.989073 1_566
Na0 P0 2.989073 1_665
Na0 P0 2.989073 1_656
Na1 P1 2.935171 1_455
Na1 P1 2.935171 1_554
Na1 P1 2.935172 1_545
Na2 P0 2.884425 1_555
Na2 P1 2.989073 1_544
Na2 P1 2.989073 1_445
Na2 P1 2.989073 1_454
Na3 P0 2.935171 1_655
Na3 P0 2.935171 1_556
Na3 P0 2.935172 1_565
Hg0 P0 2.392029 1_555
Hg0 P1 2.392029 1_444
Hg0 Na1 3.371492 1_544
Hg0 Na3 3.371492 1_455
Hg0 Na1 3.371492 1_445
Hg0 Na3 3.371492 1_554
Hg0 Na1 3.371492 1_454
Hg0 Na3 3.371492 1_545
