# generated using pymatgen
data_TbTiSi
_symmetry_space_group_name_H-M   'P 1'
_cell_length_a   4.02112726
_cell_length_b   4.02112726
_cell_length_c   7.71817569
_cell_angle_alpha   90.00000000
_cell_angle_beta   90.00000000
_cell_angle_gamma   90.00000000
_symmetry_Int_Tables_number   1
_chemical_formula_structural   TbTiSi
_chemical_formula_sum   'Tb2 Ti2 Si2'
_cell_volume   124.79876737
_cell_formula_units_Z   2
loop_
 _symmetry_equiv_pos_site_id
 _symmetry_equiv_pos_as_xyz
  1  'x, y, z'
loop_
 _atom_site_type_symbol
 _atom_site_label
 _atom_site_symmetry_multiplicity
 _atom_site_fract_x
 _atom_site_fract_y
 _atom_site_fract_z
 _atom_site_occupancy
  Tb  Tb0  1  0.75000000  0.75000000  0.34940417  1
  Tb  Tb1  1  0.25000000  0.25000000  0.65059583  1
  Ti  Ti0  1  0.75000000  0.25000000  -0.00000000  1
  Ti  Ti1  1  0.25000000  0.75000000  -0.00000000  1
  Si  Si0  1  0.75000000  0.75000000  0.76650811  1
  Si  Si1  1  0.25000000  0.25000000  0.23349189  1
loop_
_geom_bond_atom_site_label_1
_geom_bond_atom_site_label_2
_geom_bond_distance
_geom_bond_site_symmetry_2
Si0 Ti0 2.700008 1_556
Si0 Ti0 2.700008 1_566
Si0 Ti1 2.700008 1_656
Si0 Ti1 2.700008 1_556
Si0 Tb1 2.980788 1_555
Si0 Tb1 2.980788 1_655
Si0 Tb1 2.980788 1_565
Si0 Tb1 2.980788 1_665
Si0 Tb0 3.219281 1_555
Si1 Ti0 2.700008 1_455
Si1 Ti1 2.700008 1_555
Si1 Ti1 2.700008 1_545
Si1 Ti0 2.700008 1_555
Si1 Tb0 2.980788 1_455
Si1 Tb0 2.980788 1_545
Si1 Tb0 2.980788 1_445
Si1 Tb0 2.980788 1_555
Si1 Tb1 3.219281 1_555
