# generated using pymatgen
data_MgFe4(CoO4)2
_symmetry_space_group_name_H-M   'P 1'
_cell_length_a   5.84992633
_cell_length_b   6.63780217
_cell_length_c   5.84992725
_cell_angle_alpha   57.11645535
_cell_angle_beta   59.92059325
_cell_angle_gamma   57.11645880
_symmetry_Int_Tables_number   1
_chemical_formula_structural   MgFe4(CoO4)2
_chemical_formula_sum   'Mg1 Fe4 Co2 O8'
_cell_volume   153.17989870
_cell_formula_units_Z   1
loop_
 _symmetry_equiv_pos_site_id
 _symmetry_equiv_pos_as_xyz
  1  'x, y, z'
loop_
 _atom_site_type_symbol
 _atom_site_label
 _atom_site_symmetry_multiplicity
 _atom_site_fract_x
 _atom_site_fract_y
 _atom_site_fract_z
 _atom_site_occupancy
  Mg  Mg0  1  0.12500000  0.62500000  0.12500000  1
  Fe  Fe0  1  0.91175371  0.12080324  0.91175371  1
  Fe  Fe1  1  0.33824629  0.12919676  0.33824629  1
  Fe  Fe2  1  0.12500000  0.62500000  0.62500000  1
  Fe  Fe3  1  0.62500000  0.62500000  0.12500000  1
  Co  Co0  1  0.62500000  0.12500000  0.62500000  1
  Co  Co1  1  0.62500000  0.62500000  0.62500000  1
  O  O0  1  0.37764309  0.40683018  0.37764309  1
  O  O1  1  0.39832502  0.39013552  0.87564668  1
  O  O2  1  0.36084562  0.81761017  0.36084562  1
  O  O3  1  0.87564668  0.39013552  0.39832502  1
  O  O4  1  0.37435332  0.85986448  0.85167498  1
  O  O5  1  0.88915438  0.43238983  0.88915438  1
  O  O6  1  0.85167498  0.85986448  0.37435332  1
  O  O7  1  0.87235691  0.84316982  0.87235691  1
loop_
_geom_bond_atom_site_label_1
_geom_bond_atom_site_label_2
_geom_bond_distance
_geom_bond_site_symmetry_2
Mg0 O7 2.001799 1_454
Mg0 O0 2.001799 1_555
Mg0 O3 2.130602 1_455
Mg0 O4 2.130602 1_554
Mg0 O1 2.130602 1_554
Mg0 O6 2.130602 1_455
Fe0 O5 1.932955 1_555
Fe0 O7 2.116141 1_545
Fe0 O4 2.250517 1_645
Fe0 O6 2.250517 1_546
Fe0 O1 2.580134 1_555
Fe0 O3 2.580134 1_555
Fe1 O2 1.932955 1_545
Fe1 O0 2.116141 1_555
Fe1 O3 2.250517 1_455
Fe1 O1 2.250517 1_554
Fe1 O6 2.580134 1_545
Fe1 O4 2.580134 1_545
Fe2 O5 1.886526 1_455
Fe2 O2 1.886526 1_555
Fe2 O0 2.045239 1_555
Fe2 O7 2.045239 1_455
Fe2 O6 2.073189 1_455
Fe2 O1 2.073189 1_555
Fe3 O5 1.886527 1_554
Fe3 O2 1.886527 1_555
Fe3 O0 2.045238 1_555
Fe3 O7 2.045238 1_554
Fe3 O3 2.073189 1_555
Fe3 O4 2.073189 1_554
Co0 O0 1.976717 1_555
Co0 O7 1.976717 1_545
Co0 O4 2.307512 1_545
Co0 O3 2.307512 1_555
Co0 O6 2.307512 1_545
Co0 O1 2.307512 1_555
Co1 O1 2.037732 1_555
Co1 O6 2.037732 1_555
Co1 O3 2.037732 1_555
Co1 O4 2.037732 1_555
Co1 O2 2.124480 1_555
Co1 O5 2.124480 1_555
