# generated using pymatgen
data_Na8TaGa3Si4(PO12)2
_symmetry_space_group_name_H-M   'P 1'
_cell_length_a   8.95802405
_cell_length_b   8.96485147
_cell_length_c   22.04655429
_cell_angle_alpha   89.70390039
_cell_angle_beta   89.90077917
_cell_angle_gamma   119.96174444
_symmetry_Int_Tables_number   1
_chemical_formula_structural   Na8TaGa3Si4(PO12)2
_chemical_formula_sum   'Na24 Ta3 Ga9 Si12 P6 O72'
_cell_volume   1533.84961723
_cell_formula_units_Z   3
loop_
 _symmetry_equiv_pos_site_id
 _symmetry_equiv_pos_as_xyz
  1  'x, y, z'
loop_
 _atom_site_type_symbol
 _atom_site_label
 _atom_site_symmetry_multiplicity
 _atom_site_fract_x
 _atom_site_fract_y
 _atom_site_fract_z
 _atom_site_occupancy
  Na  Na0  1  0.63168149  0.99790764  0.25234633  1
  Na  Na1  1  0.36724689  0.36902929  0.25133446  1
  Na  Na2  1  0.00183899  0.63254368  0.25127798  1
  Na  Na3  1  0.63792965  0.63199389  0.74523915  1
  Na  Na4  1  0.99277061  0.35839633  0.74632006  1
  Na  Na5  1  0.37002909  0.00971248  0.74814018  1
  Na  Na6  1  0.29768603  0.33709892  0.58385646  1
  Na  Na7  1  0.03489149  0.69968094  0.58274386  1
  Na  Na8  1  0.66734769  0.96183305  0.58270889  1
  Na  Na9  1  0.29532770  0.96179584  0.08273220  1
  Na  Na10  1  0.66395798  0.69969875  0.08377741  1
  Na  Na11  1  0.03975406  0.33827197  0.08391156  1
  Na  Na12  1  0.97259765  0.67611315  0.91531002  1
  Na  Na13  1  0.70497120  0.02928917  0.91395325  1
  Na  Na14  1  0.32275584  0.29369612  0.91426421  1
  Na  Na15  1  0.97316382  0.29890054  0.41606924  1
  Na  Na16  1  0.32738568  0.02758291  0.41585902  1
  Na  Na17  1  0.69970303  0.67348837  0.41614297  1
  Na  Na18  1  0.99807773  0.99988772  0.50010474  1
  Na  Na19  1  0.00181794  0.00005696  0.99894476  1
  Na  Na20  1  0.66436268  0.32997104  0.82844783  1
  Na  Na21  1  0.66621911  0.33276323  0.33236315  1
  Na  Na22  1  0.33123276  0.66405075  0.16626799  1
  Na  Na23  1  0.33420723  0.66381270  0.66113515  1
  Ta  Ta0  1  0.66475130  0.33627092  0.98056716  1
  Ta  Ta1  1  0.67165867  0.33721986  0.48013852  1
  Ta  Ta2  1  0.33599886  0.66575382  0.81280803  1
  Ga  Ga0  1  0.99951256  0.00020884  0.35436054  1
  Ga  Ga1  1  0.00221291  0.00664736  0.85087862  1
  Ga  Ga2  1  0.99200986  0.00399967  0.64778264  1
  Ga  Ga3  1  0.00521302  0.99923515  0.14887001  1
  Ga  Ga4  1  0.66434988  0.33206988  0.68308625  1
  Ga  Ga5  1  0.66835756  0.33853361  0.18162485  1
  Ga  Ga6  1  0.32708502  0.66008027  0.01701640  1
  Ga  Ga7  1  0.33260891  0.65956958  0.51586837  1
  Ga  Ga8  1  0.33431684  0.66750562  0.32233637  1
  Si  Si0  1  0.28980955  0.28380045  0.74865872  1
  Si  Si1  1  0.71447693  0.00585251  0.74942688  1
  Si  Si2  1  0.96281906  0.33556376  0.58607675  1
  Si  Si3  1  0.66723370  0.62935959  0.58626297  1
  Si  Si4  1  0.96297170  0.62924543  0.08617641  1
  Si  Si5  1  0.37051362  0.33426259  0.08647827  1
  Si  Si6  1  0.62711328  0.67296454  0.91887202  1
  Si  Si7  1  0.04329385  0.37231050  0.91806024  1
  Si  Si8  1  0.32864012  0.95449175  0.91834038  1
  Si  Si9  1  0.62200242  0.95258625  0.41603054  1
  Si  Si10  1  0.32921875  0.37501669  0.41540655  1
  Si  Si11  1  0.04985342  0.67194386  0.41600732  1
  P  P0  1  0.29213840  0.00013403  0.24975387  1
  P  P1  1  0.71027797  0.71071886  0.24961799  1
  P  P2  1  0.99881686  0.28929143  0.24910346  1
  P  P3  1  -0.00138083  0.71277620  0.74996384  1
  P  P4  1  0.37385708  0.04000184  0.58497096  1
  P  P5  1  0.66631630  0.04145971  0.08564207  1
  O  O0  1  0.21093427  0.03579609  0.30573484  1
  O  O1  1  0.82585988  0.79132040  0.30575973  1
  O  O2  1  0.96471490  0.17406420  0.30581593  1
  O  O3  1  0.21035018  0.17020354  0.81035595  1
  O  O4  1  0.96707784  0.79009820  0.80770748  1
  O  O5  1  0.82736496  0.03646485  0.81057122  1
  O  O6  1  0.78609828  0.95210395  0.69081310  1
  O  O7  1  0.16622077  0.20591972  0.68987792  1
  O  O8  1  0.04033612  0.82753744  0.69347110  1
  O  O9  1  0.79208919  0.82665557  0.19228229  1
  O  O10  1  0.03188451  0.20719527  0.19210160  1
  O  O11  1  0.17698371  0.96566823  0.19275145  1
  O  O12  1  0.87227762  0.37121328  0.64397713  1
  O  O13  1  0.49003665  0.12145012  0.64083338  1
  O  O14  1  0.62710457  0.50089305  0.64399153  1
  O  O15  1  0.87515051  0.49959483  0.14351534  1
  O  O16  1  0.63183367  0.12451268  0.14102758  1
  O  O17  1  0.49777362  0.37012740  0.14363383  1
  O  O18  1  0.46406865  0.29703301  0.02636624  1
  O  O19  1  0.83320610  0.53274609  0.02617610  1
  O  O20  1  0.69876385  0.16124391  0.02809958  1
  O  O21  1  0.46227260  0.16011286  0.52785054  1
  O  O22  1  0.69771569  0.53187918  0.52609722  1
  O  O23  1  0.83295757  0.29960535  0.52618908  1
  O  O24  1  0.54070504  0.70659502  0.97728000  1
  O  O25  1  0.16251892  0.45661790  0.97657589  1
  O  O26  1  0.29742889  0.83598469  0.97746693  1
  O  O27  1  0.54015404  0.83519515  0.47637472  1
  O  O28  1  0.29137757  0.45382375  0.47556953  1
  O  O29  1  0.16595904  0.70756257  0.47621752  1
  O  O30  1  0.12054438  0.62181383  0.35536378  1
  O  O31  1  0.50204992  0.87990330  0.35529852  1
  O  O32  1  0.37861675  0.49796857  0.35496682  1
  O  O33  1  0.12858915  0.50164396  0.85847746  1
  O  O34  1  0.36943093  0.86810931  0.85850972  1
  O  O35  1  0.49822537  0.62868057  0.85919224  1
  O  O36  1  0.01997662  0.83640768  0.40894431  1
  O  O37  1  0.81568160  0.97925830  0.40905235  1
  O  O38  1  0.16233466  0.18213784  0.40863576  1
  O  O39  1  0.02009210  0.18249831  0.91165656  1
  O  O40  1  0.16133444  0.97674130  0.91067354  1
  O  O41  1  0.81816893  0.83534308  0.90981747  1
  O  O42  1  0.97598773  0.16006802  0.58712018  1
  O  O43  1  0.19602325  0.02686200  0.58867464  1
  O  O44  1  0.84693464  0.81464483  0.58864930  1
  O  O45  1  0.97088576  0.81562541  0.08968639  1
  O  O46  1  0.83184850  0.02873746  0.08927920  1
  O  O47  1  0.18123027  0.15916105  0.08980451  1
  O  O48  1  0.68700529  0.17287974  0.74402630  1
  O  O49  1  0.48603652  0.31438750  0.74461543  1
  O  O50  1  0.84066007  0.52916086  0.74599382  1
  O  O51  1  0.69203013  0.52756906  0.24493542  1
  O  O52  1  0.83274282  0.30601628  0.24404619  1
  O  O53  1  0.47563278  0.16421784  0.24359609  1
  O  O54  1  0.63933221  0.49352559  0.92298079  1
  O  O55  1  0.85125792  0.35709391  0.92365371  1
  O  O56  1  0.50712997  0.14591105  0.92336021  1
  O  O57  1  0.64142001  0.14730417  0.42333433  1
  O  O58  1  0.50339329  0.35416521  0.42355226  1
  O  O59  1  0.85328506  0.49572655  0.42297597  1
  O  O60  1  0.35962398  0.50891830  0.07808862  1
  O  O61  1  0.15165032  0.64682080  0.07822458  1
  O  O62  1  0.50523416  0.86412124  0.07858982  1
  O  O63  1  0.35872898  0.86264031  0.57835590  1
  O  O64  1  0.49537759  0.64647592  0.57830819  1
  O  O65  1  0.14959077  0.51013434  0.57816917  1
  O  O66  1  0.30986495  0.83591301  0.25420784  1
  O  O67  1  0.52758230  0.69170642  0.25378364  1
  O  O68  1  0.16214423  0.47142141  0.25344879  1
  O  O69  1  0.30711148  0.47991767  0.75655850  1
  O  O70  1  0.16438391  0.69286945  0.75671227  1
  O  O71  1  0.51660313  0.82983026  0.75675685  1
loop_
_geom_bond_atom_site_label_1
_geom_bond_atom_site_label_2
_geom_bond_distance
_geom_bond_site_symmetry_2
Na0 O67 2.418271 1_555
Na0 O52 2.435447 1_565
Na0 O66 2.497738 1_555
Na0 O53 2.508775 1_565
Na0 O31 2.521577 1_555
Na0 O16 2.698322 1_565
Na0 O2 2.847685 1_565
Na0 O9 2.897106 1_555
Na1 O68 2.430065 1_555
Na1 O53 2.475156 1_555
Na1 O67 2.507134 1_555
Na1 O51 2.524051 1_555
Na1 O32 2.545006 1_555
Na1 O17 2.642692 1_555
Na1 O0 2.846489 1_555
Na1 O10 2.918048 1_555
Na2 O66 2.432870 1_555
Na2 O51 2.449756 1_455
Na2 O68 2.494434 1_555
Na2 O52 2.542736 1_455
Na2 O30 2.552281 1_555
Na2 O15 2.653383 1_455
Na2 O1 2.864673 1_455
Na2 O11 2.884130 1_555
Na3 O50 2.412559 1_555
Na3 O49 2.467675 1_555
Na3 O14 2.507449 1_555
Na3 O71 2.514030 1_555
Na3 O69 2.580995 1_555
Na3 O6 2.755213 1_555
Na3 O35 2.798177 1_555
Na3 O4 2.908494 1_555
Na4 O48 2.392109 1_555
Na4 O69 2.471346 1_655
Na4 O50 2.506760 1_555
Na4 O12 2.529590 1_555
Na4 O70 2.609761 1_655
Na4 O33 2.779606 1_655
Na4 O7 2.821957 1_655
Na4 O5 2.865393 1_555
Na5 O49 2.389291 1_555
Na5 O48 2.461627 1_555
Na5 O70 2.502833 1_545
Na5 O71 2.544261 1_545
Na5 O13 2.578166 1_555
Na5 O34 2.737437 1_545
Na5 O8 2.838542 1_545
Na5 O3 2.840214 1_555
Na6 O64 2.435832 1_555
Na6 O43 2.458163 1_555
Na6 O65 2.497229 1_555
Na6 O42 2.501685 1_455
Na6 O7 2.609996 1_555
Na6 O28 2.613687 1_555
Na6 O14 2.885729 1_555
Na6 O21 2.926836 1_555
Na7 O44 2.376552 1_455
Na7 O65 2.387196 1_555
Na7 O63 2.514666 1_555
Na7 O43 2.545503 1_565
Na7 O29 2.608644 1_555
Na7 O8 2.692381 1_555
Na7 O12 2.878028 1_455
Na7 O22 2.905112 1_455
Na8 O42 2.430389 1_565
Na8 O63 2.447300 1_555
Na8 O64 2.455283 1_555
Na8 O44 2.542755 1_555
Na8 O27 2.612964 1_555
Na8 O6 2.630354 1_555
Na8 O23 2.896611 1_565
Na8 O13 2.914567 1_565
Na9 O62 2.440414 1_555
Na9 O47 2.451165 1_565
Na9 O61 2.452137 1_555
Na9 O45 2.525840 1_455
Na9 O26 2.589670 1_554
Na9 O11 2.652748 1_555
Na9 O18 2.877251 1_565
Na9 O16 2.916691 1_565
Na10 O60 2.391511 1_555
Na10 O45 2.409384 1_555
Na10 O62 2.509926 1_555
Na10 O46 2.559479 1_565
Na10 O24 2.609821 1_554
Na10 O9 2.658580 1_555
Na10 O17 2.871688 1_555
Na10 O19 2.903618 1_555
Na11 O61 2.428638 1_555
Na11 O46 2.452874 1_455
Na11 O60 2.487082 1_555
Na11 O47 2.496472 1_555
Na11 O25 2.595075 1_554
Na11 O10 2.638704 1_555
Na11 O15 2.852286 1_455
Na11 O20 2.924781 1_455
Na12 O40 2.361706 1_655
Na12 O41 2.436660 1_555
Na12 O55 2.506689 1_555
Na12 O4 2.588456 1_555
Na12 O54 2.595166 1_555
Na12 O19 2.745764 1_556
Na12 O33 2.857663 1_655
Na12 O26 2.875353 1_655
Na13 O41 2.412883 1_545
Na13 O39 2.446156 1_655
Na13 O56 2.475627 1_555
Na13 O5 2.514052 1_555
Na13 O55 2.561245 1_555
Na13 O20 2.798464 1_556
Na13 O24 2.860518 1_545
Na13 O34 2.882620 1_545
Na14 O39 2.376870 1_555
Na14 O40 2.463691 1_545
Na14 O54 2.493890 1_555
Na14 O3 2.531431 1_555
Na14 O56 2.589872 1_555
Na14 O18 2.772231 1_556
Na14 O25 2.861618 1_555
Na14 O35 2.864290 1_555
Na15 O38 2.401420 1_655
Na15 O59 2.486927 1_555
Na15 O37 2.488562 1_545
Na15 O57 2.581874 1_555
Na15 O2 2.666586 1_555
Na15 O23 2.732958 1_555
Na15 O28 2.802274 1_655
Na15 O30 2.837395 1_655
Na16 O36 2.415341 1_545
Na16 O57 2.465852 1_555
Na16 O38 2.485147 1_555
Na16 O58 2.545924 1_555
Na16 O0 2.659281 1_555
Na16 O21 2.752169 1_555
Na16 O29 2.811166 1_545
Na16 O31 2.839655 1_545
Na17 O37 2.401727 1_555
Na17 O36 2.490018 1_655
Na17 O58 2.505986 1_555
Na17 O59 2.577452 1_555
Na17 O1 2.662102 1_555
Na17 O22 2.726490 1_555
Na17 O27 2.826746 1_555
Na17 O32 2.843027 1_555
Na18 O42 2.468287 1_565
Na18 O44 2.472486 1_555
Na18 O37 2.539065 1_555
Na18 O38 2.540764 1_665
Na18 O36 2.557700 1_655
Na18 O43 2.569859 1_665
Na19 O39 2.470654 1_555
Na19 O40 2.483086 1_545
Na19 O45 2.513754 1_446
Na19 O41 2.522434 1_445
Na19 O47 2.526067 1_556
Na19 O46 2.595483 1_456
Na20 O49 2.403590 1_555
Na20 O48 2.408243 1_555
Na20 O50 2.475278 1_555
Na20 O56 2.591869 1_555
Na20 O55 2.622704 1_555
Na20 O54 2.627180 1_555
Na21 O51 2.525650 1_555
Na21 O52 2.534939 1_555
Na21 O57 2.535969 1_555
Na21 O58 2.545469 1_555
Na21 O53 2.548175 1_555
Na21 O59 2.555327 1_555
Na22 O61 2.478950 1_555
Na22 O60 2.481472 1_555
Na22 O68 2.512690 1_555
Na22 O67 2.541454 1_555
Na22 O66 2.548225 1_555
Na22 O62 2.558190 1_555
Na23 O64 2.379288 1_555
Na23 O65 2.395723 1_555
Na23 O63 2.475869 1_555
Na23 O69 2.601010 1_555
Na23 O71 2.635214 1_555
Na23 O70 2.685630 1_555
Ga0 O38 1.967071 1_655
Ga0 O37 1.970487 1_545
Ga0 O36 1.972175 1_645
Ga0 O2 2.034938 1_555
Ga0 O1 2.047329 1_545
Ga0 O0 2.055206 1_655
Ga1 O3 1.916878 1_555
Ga1 O5 1.932607 1_455
Ga1 O39 2.019099 1_555
Ga1 O4 2.045368 1_445
Ga1 O41 2.051334 1_445
Ga1 O40 2.055748 1_545
Ga2 O6 1.910770 1_545
Ga2 O7 1.942725 1_655
Ga2 O42 1.987134 1_555
Ga2 O44 2.023698 1_545
Ga2 O8 2.091337 1_645
Ga2 O43 2.166787 1_655
Ga3 O11 1.964385 1_555
Ga3 O47 1.988216 1_565
Ga3 O9 1.995654 1_455
Ga3 O10 2.003863 1_565
Ga3 O45 2.006113 1_455
Ga3 O46 2.149770 1_465
Ga4 O14 1.907012 1_555
Ga4 O12 1.916865 1_555
Ga4 O13 1.987330 1_555
Ga4 O48 2.037967 1_555
Ga4 O49 2.038155 1_555
Ga4 O50 2.187553 1_555
Ga5 O15 1.879559 1_555
Ga5 O17 1.884439 1_555
Ga5 O16 1.995280 1_555
Ga5 O51 2.128758 1_555
Ga5 O53 2.136412 1_555
Ga5 O52 2.139846 1_555
Ga6 O25 1.905435 1_554
Ga6 O26 1.929422 1_554
Ga6 O24 1.948496 1_554
Ga6 O61 2.027131 1_555
Ga6 O60 2.027636 1_555
Ga6 O62 2.202929 1_555
Ga7 O28 1.914543 1_555
Ga7 O27 1.936498 1_555
Ga7 O29 1.954503 1_555
Ga7 O65 2.036791 1_555
Ga7 O64 2.052075 1_555
Ga7 O63 2.206446 1_555
Ga8 O31 1.889914 1_555
Ga8 O30 1.890424 1_555
Ga8 O32 1.891337 1_555
Ga8 O66 2.211636 1_555
Ga8 O67 2.222823 1_555
Ga8 O68 2.258994 1_555
O0 P0 1.545265 1_555
O1 P1 1.546779 1_555
O2 P2 1.547196 1_555
O3 Si0 1.628562 1_555
O4 P3 1.544179 1_655
O5 Si1 1.626793 1_555
O6 Si1 1.620502 1_565
O7 Si0 1.623206 1_555
O8 P3 1.533112 1_555
O9 P1 1.561273 1_555
O10 P2 1.560361 1_455
O11 P0 1.558536 1_565
O12 Si2 1.627570 1_555
O13 P4 1.545237 1_555
O14 Si3 1.626390 1_555
O15 Si4 1.623545 1_555
O16 P5 1.542266 1_555
O17 Si5 1.622909 1_555
O18 Si5 1.688250 1_555
O18 Ta0 1.932215 1_554
O19 Si4 1.691792 1_555
O19 Ta0 1.938900 1_554
O20 P5 1.587416 1_555
O20 Ta0 2.028464 1_554
O21 P4 1.582180 1_555
O21 Ta1 2.036375 1_555
O22 Si3 1.687245 1_555
O22 Ta1 1.933570 1_555
O23 Si2 1.683916 1_555
O23 Ta1 1.928851 1_555
O24 Si6 1.606818 1_555
O25 Si7 1.607717 1_555
O26 Si8 1.610528 1_555
O27 Si9 1.620635 1_555
O28 Si10 1.618852 1_555
O29 Si11 1.619636 1_555
O30 Si11 1.636469 1_555
O31 Si9 1.639082 1_555
O32 Si10 1.637642 1_555
O33 Si7 1.658184 1_555
O33 Ta2 1.969317 1_555
O34 Si8 1.662732 1_555
O34 Ta2 1.968010 1_555
O35 Si6 1.665726 1_555
O35 Ta2 1.937043 1_555
O36 Si11 1.631451 1_555
O37 Si9 1.635643 1_555
O38 Si10 1.633560 1_555
O39 Si7 1.614938 1_555
O40 Si8 1.616684 1_555
O41 Si6 1.611015 1_555
O42 Si2 1.635454 1_555
O43 P4 1.539588 1_555
O44 Si3 1.638169 1_555
O45 Si4 1.638858 1_555
O46 P5 1.545154 1_555
O47 Si5 1.638403 1_555
O48 Si1 1.638045 1_555
O49 Si0 1.640358 1_555
O50 P3 1.547541 1_655
O51 P1 1.570661 1_555
O52 P2 1.572053 1_555
O53 P0 1.570403 1_555
O54 Si6 1.668030 1_555
O54 Ta0 1.988533 1_555
O55 Si7 1.660666 1_655
O55 Ta0 2.019745 1_555
O56 Si8 1.665992 1_545
O56 Ta0 2.029346 1_555
O57 Si9 1.674240 1_545
O57 Ta1 2.025589 1_555
O58 Si10 1.671392 1_555
O58 Ta1 2.021068 1_555
O59 Si11 1.684613 1_655
O59 Ta1 1.979817 1_555
O60 Si5 1.626337 1_555
O61 Si4 1.626340 1_455
O62 P5 1.531595 1_565
O63 P4 1.534612 1_565
O64 Si3 1.631241 1_555
O65 Si2 1.630855 1_455
O66 P0 1.560241 1_565
O67 P1 1.560965 1_555
O68 P2 1.559398 1_455
O69 Si0 1.696043 1_555
O69 Ta2 1.993042 1_555
O70 P3 1.588764 1_555
O70 Ta2 2.080553 1_555
O71 Si1 1.691358 1_565
O71 Ta2 1.976212 1_555
