# generated using pymatgen
data_Na6ScNb3(SiO4)6
_symmetry_space_group_name_H-M   'P 1'
_cell_length_a   9.10918384
_cell_length_b   9.11131739
_cell_length_c   22.56461616
_cell_angle_alpha   90.03252457
_cell_angle_beta   90.01173833
_cell_angle_gamma   119.95710664
_symmetry_Int_Tables_number   1
_chemical_formula_structural   Na6ScNb3(SiO4)6
_chemical_formula_sum   'Na18 Sc3 Nb9 Si18 O72'
_cell_volume   1622.58192923
_cell_formula_units_Z   3
loop_
 _symmetry_equiv_pos_site_id
 _symmetry_equiv_pos_as_xyz
  1  'x, y, z'
loop_
 _atom_site_type_symbol
 _atom_site_label
 _atom_site_symmetry_multiplicity
 _atom_site_fract_x
 _atom_site_fract_y
 _atom_site_fract_z
 _atom_site_occupancy
  Na  Na0  1  0.00700982  0.00054078  0.49969941  1
  Na  Na1  1  0.99144360  0.99210128  0.99725225  1
  Na  Na2  1  0.66658429  0.33256620  0.83390042  1
  Na  Na3  1  0.66673685  0.33283922  0.32741084  1
  Na  Na4  1  0.34286881  0.66715508  0.16314665  1
  Na  Na5  1  0.32435061  0.65785491  0.66549238  1
  Na  Na6  1  0.63896080  0.01321422  0.24625576  1
  Na  Na7  1  0.37306238  0.36037946  0.24550704  1
  Na  Na8  1  0.98768795  0.62601329  0.24596403  1
  Na  Na9  1  0.63346176  0.62398188  0.74677247  1
  Na  Na10  1  0.98921403  0.36567049  0.74710352  1
  Na  Na11  1  0.37751701  0.01010939  0.74760637  1
  Na  Na12  1  0.66558869  0.96941087  0.58600001  1
  Na  Na13  1  0.30611609  0.97267001  0.08331255  1
  Na  Na14  1  0.02904951  0.33696154  0.08341631  1
  Na  Na15  1  0.96480327  0.28864842  0.41313155  1
  Na  Na16  1  0.32415703  0.03408000  0.41323031  1
  Na  Na17  1  0.71076267  0.67705371  0.41352273  1
  Sc  Sc0  1  0.99974291  0.00001841  0.35241462  1
  Sc  Sc1  1  0.66729844  0.33481044  0.68543595  1
  Sc  Sc2  1  0.66582046  0.33395868  0.18258536  1
  Nb  Nb0  1  0.00061227  0.00084763  0.85686594  1
  Nb  Nb1  1  0.00455527  -0.00003520  0.64464436  1
  Nb  Nb2  1  0.99578177  0.99605416  0.14555086  1
  Nb  Nb3  1  0.66736928  0.33433196  0.97795326  1
  Nb  Nb4  1  0.66617782  0.33416028  0.48243968  1
  Nb  Nb5  1  0.33729013  0.66672980  0.01816728  1
  Nb  Nb6  1  0.32949911  0.66267846  0.52223489  1
  Nb  Nb7  1  0.33285984  0.66669372  0.31217498  1
  Nb  Nb8  1  0.33388500  0.66720825  0.81479474  1
  Si  Si0  1  0.29235979  0.00097790  0.25144248  1
  Si  Si1  1  0.70813908  0.70742256  0.25222481  1
  Si  Si2  1  0.99943117  0.29129842  0.25117609  1
  Si  Si3  1  0.28718835  0.28885568  0.75095622  1
  Si  Si4  1  0.00112114  0.71217609  0.75133999  1
  Si  Si5  1  0.71137939  0.99857229  0.75022104  1
  Si  Si6  1  0.95997579  0.33422230  0.58576150  1
  Si  Si7  1  0.37324392  0.04174570  0.58482535  1
  Si  Si8  1  0.66738296  0.62592973  0.58558402  1
  Si  Si9  1  0.95701741  0.62489043  0.08340474  1
  Si  Si10  1  0.66571119  0.04085903  0.08359991  1
  Si  Si11  1  0.37690699  0.33612528  0.08416013  1
  Si  Si12  1  0.62594720  0.66558530  0.91599256  1
  Si  Si13  1  0.04047583  0.37540537  0.91679118  1
  Si  Si14  1  0.33428784  0.95923122  0.91721969  1
  Si  Si15  1  0.62258365  0.95800383  0.41804989  1
  Si  Si16  1  0.33589370  0.37745877  0.41694286  1
  Si  Si17  1  0.04200332  0.66472024  0.41736268  1
  O  O0  1  0.20937807  0.02972716  0.31048618  1
  O  O1  1  0.81910454  0.78863687  0.31150592  1
  O  O2  1  0.97023805  0.17953965  0.31024615  1
  O  O3  1  0.18909943  0.16533514  0.80720785  1
  O  O4  1  0.97667878  0.81120395  0.80743265  1
  O  O5  1  0.83603191  0.02278386  0.80619260  1
  O  O6  1  0.79789701  0.96486624  0.69070512  1
  O  O7  1  0.16021181  0.19539748  0.69317853  1
  O  O8  1  0.03349184  0.83850589  0.69345466  1
  O  O9  1  0.80683535  0.83820089  0.19527344  1
  O  O10  1  0.03271649  0.19935512  0.19258016  1
  O  O11  1  0.16731828  0.96825509  0.19283389  1
  O  O12  1  0.88106262  0.36379031  0.64481216  1
  O  O13  1  0.49096303  0.11645246  0.64262022  1
  O  O14  1  0.63463674  0.51639215  0.64442074  1
  O  O15  1  0.88770516  0.51247961  0.14307273  1
  O  O16  1  0.62590945  0.11192176  0.14366876  1
  O  O17  1  0.47904164  0.36506541  0.14531529  1
  O  O18  1  0.47263461  0.30151168  0.02854938  1
  O  O19  1  0.83302467  0.52588682  0.02702486  1
  O  O20  1  0.69887157  0.17013986  0.02788839  1
  O  O21  1  0.47031159  0.16246474  0.52542165  1
  O  O22  1  0.69107302  0.52890420  0.52610138  1
  O  O23  1  0.83472551  0.30549372  0.52672843  1
  O  O24  1  0.52438313  0.68938602  0.97196989  1
  O  O25  1  0.15930612  0.47028918  0.97465313  1
  O  O26  1  0.30902727  0.83949469  0.97487088  1
  O  O27  1  0.52647293  0.83785155  0.47477787  1
  O  O28  1  0.31335947  0.48037332  0.47205524  1
  O  O29  1  0.16868907  0.68913663  0.47222904  1
  O  O30  1  0.13272773  0.63267357  0.35811886  1
  O  O31  1  0.49835416  0.86471191  0.35916825  1
  O  O32  1  0.36708458  0.49995532  0.35787005  1
  O  O33  1  0.13790010  0.49585685  0.85825641  1
  O  O34  1  0.35815604  0.86223877  0.85852379  1
  O  O35  1  0.50615044  0.64128319  0.85716193  1
  O  O36  1  0.02321941  0.83131563  0.41537265  1
  O  O37  1  0.80874163  0.97807052  0.41520596  1
  O  O38  1  0.16930897  0.19215010  0.41533101  1
  O  O39  1  0.02522147  0.18989436  0.91044070  1
  O  O40  1  0.16433818  0.97479191  0.91050777  1
  O  O41  1  0.81044530  0.83601876  0.91068880  1
  O  O42  1  0.96682401  0.15710555  0.58752686  1
  O  O43  1  0.18575018  0.02423468  0.58798689  1
  O  O44  1  0.83461789  0.81784326  0.58756587  1
  O  O45  1  0.98417780  0.81836725  0.08850821  1
  O  O46  1  0.84147659  0.03028278  0.08883249  1
  O  O47  1  0.18551229  0.16212439  0.08833342  1
  O  O48  1  0.68994628  0.16429624  0.74824021  1
  O  O49  1  0.47300360  0.30802879  0.74760293  1
  O  O50  1  0.83527885  0.52603116  0.74823333  1
  O  O51  1  0.68246736  0.51961994  0.24536858  1
  O  O52  1  0.83756873  0.31834767  0.24531864  1
  O  O53  1  0.48157966  0.16210791  0.24593351  1
  O  O54  1  0.63923920  0.49490628  0.92323131  1
  O  O55  1  0.85465633  0.35952663  0.92265477  1
  O  O56  1  0.50479421  0.14422683  0.92345747  1
  O  O57  1  0.63393182  0.14475926  0.42209614  1
  O  O58  1  0.51100882  0.36672810  0.42206336  1
  O  O59  1  0.85659391  0.48948279  0.42271326  1
  O  O60  1  0.34100553  0.49532592  0.07513710  1
  O  O61  1  0.14949488  0.65108592  0.07444383  1
  O  O62  1  0.49660361  0.85319404  0.07412218  1
  O  O63  1  0.35802585  0.85596681  0.57402657  1
  O  O64  1  0.50515747  0.65662071  0.57520248  1
  O  O65  1  0.14853161  0.49847595  0.57499617  1
  O  O66  1  0.30188180  0.82262159  0.25506500  1
  O  O67  1  0.52127408  0.69894516  0.25473044  1
  O  O68  1  0.17748662  0.47916415  0.25500407  1
  O  O69  1  0.29944070  0.47623621  0.75544035  1
  O  O70  1  0.17655415  0.70006987  0.75546439  1
  O  O71  1  0.52295281  0.82368433  0.75573513  1
loop_
_geom_bond_atom_site_label_1
_geom_bond_atom_site_label_2
_geom_bond_distance
_geom_bond_site_symmetry_2
Na0 O36 2.498790 1_545
Na0 O38 2.506998 1_555
Na0 O43 2.512662 1_555
Na0 O44 2.561702 1_445
Na0 O37 2.562736 1_445
Na0 O42 2.571971 1_455
Na1 O41 2.491969 1_555
Na1 O40 2.566221 1_655
Na1 O39 2.574894 1_665
Na1 O45 2.578632 1_556
Na1 O46 2.594699 1_566
Na1 O47 2.647401 1_666
Na2 O48 2.540587 1_555
Na2 O50 2.550506 1_555
Na2 O49 2.560404 1_555
Na2 O55 2.565915 1_555
Na2 O54 2.584139 1_555
Na2 O56 2.584543 1_555
Na3 O53 2.453540 1_555
Na3 O52 2.465039 1_555
Na3 O51 2.470627 1_555
Na3 O57 2.661523 1_555
Na3 O58 2.665935 1_555
Na3 O59 2.679986 1_555
Na4 O60 2.522912 1_555
Na4 O62 2.550289 1_555
Na4 O67 2.554097 1_555
Na4 O61 2.621275 1_555
Na4 O68 2.632077 1_555
Na4 O66 2.640633 1_555
Na5 O65 2.552679 1_555
Na5 O69 2.557000 1_555
Na5 O70 2.568954 1_555
Na5 O64 2.623626 1_555
Na5 O71 2.639576 1_555
Na5 O63 2.657722 1_555
Na6 O53 2.416208 1_555
Na6 O52 2.445337 1_555
Na6 O16 2.508082 1_555
Na6 O67 2.513948 1_545
Na6 O66 2.675562 1_545
Na6 O31 2.870043 1_545
Na6 O9 2.939143 1_545
Na6 O2 2.986023 1_555
Na7 O51 2.442275 1_555
Na7 O17 2.450468 1_555
Na7 O53 2.454420 1_555
Na7 O68 2.513296 1_555
Na7 O67 2.687332 1_555
Na7 O32 2.848541 1_555
Na7 O10 2.940126 1_555
Na7 O0 2.994824 1_555
Na8 O52 2.428973 1_555
Na8 O51 2.445054 1_555
Na8 O66 2.514260 1_655
Na8 O15 2.518999 1_555
Na8 O68 2.670466 1_655
Na8 O30 2.841165 1_655
Na8 O11 2.957636 1_655
Na8 O1 3.001974 1_555
Na9 O50 2.411600 1_555
Na9 O71 2.488764 1_555
Na9 O49 2.494348 1_555
Na9 O14 2.510559 1_555
Na9 O69 2.649175 1_555
Na9 O35 2.785253 1_555
Na10 O48 2.409029 1_555
Na10 O50 2.479473 1_555
Na10 O69 2.488465 1_655
Na10 O12 2.506123 1_555
Na10 O70 2.652811 1_655
Na10 O33 2.814756 1_655
Na11 O49 2.401409 1_555
Na11 O48 2.465839 1_555
Na11 O70 2.489705 1_545
Na11 O13 2.573399 1_555
Na11 O71 2.630879 1_545
Na11 O34 2.806612 1_545
Na12 O42 2.401810 1_565
Na12 O63 2.469388 1_555
Na12 O64 2.481277 1_555
Na12 O44 2.530352 1_555
Na12 O6 2.661781 1_555
Na12 O27 2.796332 1_555
Na12 O13 2.843374 1_565
Na12 O23 2.972046 1_565
Na13 O47 2.468443 1_565
Na13 O62 2.474919 1_555
Na13 O45 2.544239 1_455
Na13 O61 2.546580 1_555
Na13 O26 2.736673 1_554
Na13 O11 2.767331 1_555
Na13 O16 2.873273 1_565
Na13 O18 2.875938 1_565
Na14 O46 2.444280 1_455
Na14 O60 2.469316 1_555
Na14 O61 2.510169 1_555
Na14 O47 2.617038 1_555
Na14 O25 2.733446 1_554
Na14 O10 2.772349 1_555
Na14 O15 2.842859 1_455
Na14 O20 2.890827 1_455
Na15 O38 2.425202 1_655
Na15 O37 2.452212 1_545
Na15 O59 2.483496 1_555
Na15 O2 2.535153 1_555
Na15 O57 2.626405 1_555
Na15 O23 2.860127 1_555
Na16 O36 2.423310 1_545
Na16 O38 2.468792 1_555
Na16 O57 2.485383 1_555
Na16 O0 2.535176 1_555
Na16 O58 2.640080 1_555
Na16 O21 2.826572 1_555
Na17 O37 2.423921 1_555
Na17 O36 2.466349 1_655
Na17 O58 2.491035 1_555
Na17 O1 2.511613 1_555
Na17 O59 2.644998 1_555
Na17 O22 2.840707 1_555
Nb0 O3 1.970390 1_555
Nb0 O5 1.973260 1_455
Nb0 O4 1.974560 1_445
Nb0 O39 2.022489 1_555
Nb0 O40 2.024584 1_545
Nb0 O41 2.033701 1_445
Nb1 O8 1.958484 1_545
Nb1 O7 1.963711 1_555
Nb1 O43 2.011043 1_555
Nb1 O6 2.031309 1_445
Nb1 O44 2.059127 1_445
Nb1 O42 2.079070 1_455
Nb2 O9 1.954514 1_555
Nb2 O11 2.009714 1_655
Nb2 O10 2.011397 1_665
Nb2 O45 2.028701 1_555
Nb2 O46 2.036768 1_565
Nb2 O47 2.082029 1_665
Nb3 O19 1.978919 1_556
Nb3 O18 2.002734 1_556
Nb3 O20 2.005119 1_556
Nb3 O54 2.026614 1_555
Nb3 O55 2.032313 1_555
Nb3 O56 2.034818 1_555
Nb4 O22 1.940755 1_555
Nb4 O21 1.945801 1_555
Nb4 O23 1.955593 1_555
Nb4 O58 2.088188 1_555
Nb4 O59 2.092676 1_555
Nb4 O57 2.099823 1_555
Nb5 O24 1.919219 1_554
Nb5 O25 1.973689 1_554
Nb5 O26 1.976098 1_554
Nb5 O62 2.030039 1_555
Nb5 O60 2.036581 1_555
Nb5 O61 2.077691 1_555
Nb6 O28 1.953624 1_555
Nb6 O29 1.956885 1_555
Nb6 O65 1.978103 1_555
Nb6 O27 2.014003 1_555
Nb6 O63 2.018738 1_555
Nb6 O64 2.019743 1_555
Nb7 O30 1.982701 1_555
Nb7 O31 1.983183 1_555
Nb7 O32 1.985697 1_555
Nb7 O66 2.039855 1_555
Nb7 O68 2.041667 1_555
Nb7 O67 2.051795 1_555
Nb8 O34 1.945700 1_555
Nb8 O35 1.949855 1_555
Nb8 O33 1.950702 1_555
Nb8 O71 2.079813 1_555
Nb8 O70 2.089042 1_555
Nb8 O69 2.090876 1_555
O0 Si0 1.616408 1_555
O0 Sc0 2.024788 1_455
O1 Si1 1.615528 1_555
O1 Sc0 2.025180 1_565
O2 Si2 1.617234 1_555
O2 Sc0 2.023303 1_555
O3 Si3 1.635200 1_555
O4 Si4 1.632526 1_655
O5 Si5 1.637690 1_545
O6 Si5 1.661515 1_555
O7 Si3 1.666475 1_555
O8 Si4 1.667566 1_555
O9 Si1 1.676866 1_555
O10 Si2 1.671673 1_455
O11 Si0 1.671827 1_565
O12 Si6 1.599415 1_555
O12 Sc1 2.046744 1_555
O13 Si7 1.607292 1_555
O13 Sc1 2.068170 1_555
O14 Si8 1.597495 1_555
O14 Sc1 2.043398 1_555
O15 Si9 1.617556 1_555
O15 Sc2 2.060314 1_555
O16 Si10 1.619110 1_555
O16 Sc2 2.063817 1_555
O17 Si11 1.610405 1_555
O17 Sc2 2.040498 1_555
O18 Si11 1.645937 1_555
O19 Si9 1.639653 1_555
O20 Si10 1.644856 1_555
O21 Si7 1.679055 1_555
O22 Si8 1.678953 1_555
O23 Si6 1.686813 1_555
O24 Si12 1.642843 1_555
O25 Si13 1.639304 1_555
O26 Si14 1.639037 1_555
O27 Si15 1.627366 1_555
O28 Si16 1.630618 1_555
O29 Si17 1.629927 1_555
O30 Si17 1.672217 1_555
O31 Si15 1.675066 1_555
O32 Si16 1.669829 1_555
O33 Si13 1.663131 1_555
O34 Si14 1.665262 1_555
O35 Si12 1.661278 1_555
O36 Si17 1.610833 1_555
O36 Sc0 2.181109 1_465
O37 Si15 1.613544 1_555
O37 Sc0 2.174506 1_565
O38 Si16 1.611165 1_555
O38 Sc0 2.182123 1_455
O39 Si13 1.631545 1_555
O40 Si14 1.630580 1_555
O41 Si12 1.626076 1_555
O42 Si6 1.646309 1_555
O43 Si7 1.635677 1_555
O44 Si8 1.649184 1_555
O45 Si9 1.657173 1_555
O46 Si10 1.655507 1_555
O47 Si11 1.673828 1_555
O48 Si5 1.616972 1_545
O48 Sc1 2.187937 1_555
O49 Si3 1.614306 1_555
O49 Sc1 2.174819 1_555
O50 Si4 1.613869 1_655
O50 Sc1 2.172235 1_555
O51 Si1 1.614510 1_555
O51 Sc2 2.152337 1_555
O52 Si2 1.617106 1_555
O52 Sc2 2.166379 1_555
O53 Si0 1.617038 1_555
O53 Sc2 2.165798 1_555
O54 Si12 1.627279 1_555
O55 Si13 1.630672 1_655
O56 Si14 1.630439 1_545
O57 Si15 1.654864 1_545
O58 Si16 1.650190 1_555
O59 Si17 1.650306 1_655
O60 Si11 1.651211 1_555
O61 Si9 1.659586 1_455
O62 Si10 1.646591 1_565
O63 Si7 1.645894 1_565
O64 Si8 1.652095 1_555
O65 Si6 1.637762 1_455
O66 Si0 1.672109 1_565
O67 Si1 1.665936 1_555
O68 Si2 1.671878 1_455
O69 Si3 1.657411 1_555
O70 Si4 1.658490 1_555
O71 Si5 1.664179 1_555
