# generated using pymatgen
data_K8MgCo2(Mo4O15)2
_symmetry_space_group_name_H-M   'P 1'
_cell_length_a   10.54857387
_cell_length_b   10.56543584
_cell_length_c   8.54604543
_cell_angle_alpha   86.30250850
_cell_angle_beta   90.49008311
_cell_angle_gamma   121.25148368
_symmetry_Int_Tables_number   1
_chemical_formula_structural   K8MgCo2(Mo4O15)2
_chemical_formula_sum   'K8 Mg1 Co2 Mo8 O30'
_cell_volume   812.21466787
_cell_formula_units_Z   1
loop_
 _symmetry_equiv_pos_site_id
 _symmetry_equiv_pos_as_xyz
  1  'x, y, z'
loop_
 _atom_site_type_symbol
 _atom_site_label
 _atom_site_symmetry_multiplicity
 _atom_site_fract_x
 _atom_site_fract_y
 _atom_site_fract_z
 _atom_site_occupancy
  K  K0  1  0.09572100  0.69330400  0.13490300  1
  K  K1  1  0.58659600  0.90432700  0.14756700  1
  K  K2  1  0.40123600  0.04784100  0.81259000  1
  K  K3  1  0.96689700  0.95451100  0.94970100  1
  K  K4  1  0.89596500  0.30867200  0.85568100  1
  K  K5  1  0.68241300  0.58290400  0.83573400  1
  K  K6  1  0.31219200  0.45012000  0.19747800  1
  K  K7  1  0.99992900  0.01120700  0.43337200  1
  Mg  Mg0  1  0.30797500  0.19378000  0.04442200  1
  Co  Co0  1  0.33876400  0.67172200  0.49421700  1
  Co  Co1  1  0.64663400  0.32593900  0.51404500  1
  Mo  Mo0  1  0.97626900  0.33310000  0.38030600  1
  Mo  Mo1  1  0.02502600  0.68033500  0.62069000  1
  Mo  Mo2  1  0.31451500  0.99541500  0.37542200  1
  Mo  Mo3  1  0.65294600  0.32380000  0.15617500  1
  Mo  Mo4  1  0.66486400  0.98916900  0.63054100  1
  Mo  Mo5  1  0.33378000  0.64337700  0.85710400  1
  Mo  Mo6  1  0.67905900  0.66617000  0.36486400  1
  Mo  Mo7  1  0.32192000  0.32726800  0.65083500  1
  O  O0  1  0.48206600  0.81623000  0.66355700  1
  O  O1  1  0.65617000  0.48469600  0.33615900  1
  O  O2  1  0.72987800  0.98648900  0.44182500  1
  O  O3  1  0.50084500  0.65596000  0.36734800  1
  O  O4  1  0.17322500  0.49356700  0.95638000  1
  O  O5  1  0.14066600  0.51867400  0.36618500  1
  O  O6  1  0.27332100  0.04616200  0.55498300  1
  O  O7  1  0.36345700  0.85159600  0.35671700  1
  O  O8  1  0.50808200  0.34965400  0.06254600  1
  O  O9  1  0.86036900  0.49810200  0.62165400  1
  O  O10  1  0.33632600  0.51933600  0.67362800  1
  O  O11  1  0.80230300  0.33425800  0.33977200  1
  O  O12  1  0.96322800  0.25031200  0.57012500  1
  O  O13  1  0.77048600  0.72818400  0.54323000  1
  O  O14  1  0.33795900  0.79707400  0.94164300  1
  O  O15  1  0.81326700  0.48131000  0.06374200  1
  O  O16  1  0.22267500  0.02157400  0.18410400  1
  O  O17  1  0.07407400  0.78597600  0.43175200  1
  O  O18  1  0.64045300  0.17847500  0.05143200  1
  O  O19  1  0.77752700  0.98964900  0.78748300  1
  O  O20  1  0.00095000  0.23319000  0.23654400  1
  O  O21  1  0.51137900  0.18519600  0.33814500  1
  O  O22  1  0.51326600  0.35589800  0.65132300  1
  O  O23  1  0.18293700  0.65900500  0.66693400  1
  O  O24  1  0.24609700  0.29135600  0.46209200  1
  O  O25  1  0.64279200  0.14801100  0.64492700  1
  O  O26  1  0.79021200  0.79546800  0.20728400  1
  O  O27  1  0.00656900  0.77406500  0.77626900  1
  O  O28  1  0.48138500  0.64220200  0.95773500  1
  O  O29  1  0.23283500  0.20661800  0.84352500  1
loop_
_geom_bond_atom_site_label_1
_geom_bond_atom_site_label_2
_geom_bond_distance
_geom_bond_site_symmetry_2
K0 O14 2.718646 1_554
K0 O15 2.735739 1_455
K0 O5 2.820804 1_555
K0 O17 2.829993 1_555
K0 O16 3.059179 1_565
K0 O4 3.110660 1_554
K0 O7 3.127804 1_555
K0 O27 3.384096 1_554
K1 O18 2.716813 1_565
K1 O7 2.761965 1_555
K1 O3 2.857009 1_555
K1 O2 2.866542 1_555
K1 O14 2.890412 1_554
K1 O26 2.943692 1_555
K1 O28 2.982125 1_554
K2 O14 2.546041 1_545
K2 O6 2.568474 1_555
K2 O25 2.595111 1_555
K2 O18 3.016676 1_556
K2 O29 3.032632 1_555
K2 Mg0 3.044978 1_556
K2 O22 3.057418 1_555
K2 O0 3.304964 1_545
K3 O19 2.589551 1_555
K3 O27 2.685054 1_655
K3 O26 2.736168 1_556
K3 O29 2.786845 1_665
K3 O16 3.146688 1_666
K4 O4 2.712234 1_655
K4 O12 2.741658 1_555
K4 O18 2.808692 1_556
K4 O9 2.897807 1_555
K4 O25 2.977570 1_555
K4 O19 3.022111 1_545
K4 O15 3.057023 1_556
K5 O22 2.723759 1_555
K5 O28 2.734395 1_555
K5 O13 2.744659 1_555
K5 O8 2.820417 1_556
K5 O15 2.841812 1_556
K5 O27 2.959939 1_655
K5 O9 3.112728 1_555
K6 O3 2.581587 1_555
K6 O24 2.595767 1_555
K6 O4 2.670116 1_554
K6 O28 2.696257 1_554
K6 O5 2.723270 1_555
K6 O20 2.873326 1_555
K6 O8 3.033271 1_555
K6 Mg0 3.062506 1_555
K7 O2 2.723495 1_545
K7 O24 2.769844 1_655
K7 O20 2.792043 1_655
K7 O13 2.801490 1_545
K7 O17 2.865362 1_645
K7 O6 2.902845 1_655
K7 O26 3.014229 1_545
K7 O12 3.049752 1_555
K7 O16 3.139960 1_655
Mg0 O16 1.893289 1_555
Mg0 O8 1.900575 1_555
Mg0 O29 1.911162 1_554
Co0 O7 2.064931 1_555
Co0 O3 2.115860 1_555
Co0 O0 2.136194 1_555
Co0 O10 2.140802 1_555
Co0 O23 2.164592 1_555
Co0 O5 2.204916 1_555
Co1 O22 1.998483 1_555
Co1 O25 2.106475 1_555
Co1 O21 2.134677 1_555
Co1 O1 2.152514 1_555
Co1 O11 2.190324 1_555
Co1 O9 2.272152 1_555
Mo0 O12 1.763946 1_555
Mo0 O20 1.774656 1_655
Mo0 O5 1.819678 1_655
Mo0 O11 1.870719 1_555
Mo1 O27 1.777835 1_555
Mo1 O9 1.803400 1_455
Mo1 O17 1.817497 1_555
Mo1 O23 1.829864 1_555
Mo2 O6 1.786159 1_565
Mo2 O7 1.856799 1_555
Mo2 O16 1.969931 1_565
Mo2 O21 2.010698 1_565
Mo2 O17 2.370927 1_555
Mo3 O18 1.772417 1_555
Mo3 O15 1.785104 1_555
Mo3 O8 1.853101 1_555
Mo3 O21 2.066372 1_555
Mo3 O11 2.180760 1_555
Mo3 O1 2.352278 1_555
Mo4 O2 1.765541 1_555
Mo4 O19 1.782881 1_555
Mo4 O25 1.821627 1_565
Mo4 O0 1.850261 1_555
Mo5 O28 1.777594 1_555
Mo5 O4 1.778592 1_555
Mo5 O14 1.799273 1_555
Mo5 O10 2.116398 1_555
Mo5 O0 2.282218 1_555
Mo5 O23 2.322531 1_555
Mo6 O13 1.769460 1_555
Mo6 O26 1.783902 1_555
Mo6 O3 1.826499 1_555
Mo6 O1 1.836852 1_555
Mo7 O24 1.768462 1_555
Mo7 O22 1.879384 1_555
Mo7 O29 1.931981 1_555
Mo7 O10 1.977253 1_555
