# generated using pymatgen
data_MgFe4O5F3
_symmetry_space_group_name_H-M   'P 1'
_cell_length_a   5.24802662
_cell_length_b   5.96523471
_cell_length_c   5.96380809
_cell_angle_alpha   119.14626699
_cell_angle_beta   103.89805530
_cell_angle_gamma   76.06983918
_symmetry_Int_Tables_number   1
_chemical_formula_structural   MgFe4O5F3
_chemical_formula_sum   'Mg1 Fe4 O5 F3'
_cell_volume   156.59192906
_cell_formula_units_Z   1
loop_
 _symmetry_equiv_pos_site_id
 _symmetry_equiv_pos_as_xyz
  1  'x, y, z'
loop_
 _atom_site_type_symbol
 _atom_site_label
 _atom_site_symmetry_multiplicity
 _atom_site_fract_x
 _atom_site_fract_y
 _atom_site_fract_z
 _atom_site_occupancy
  Mg  Mg0  1  0.05575081  0.98638780  0.51293132  1
  Fe  Fe0  1  0.53318595  0.06126661  0.43869922  1
  Fe  Fe1  1  0.51504909  0.50024640  -0.00037667  1
  Fe  Fe2  1  0.97141263  0.49057179  0.49788030  1
  Fe  Fe3  1  0.97166617  0.00234346  0.00940837  1
  O  O0  1  0.78017248  0.18197749  0.31807133  1
  O  O1  1  0.77518758  0.16289947  0.78934885  1
  O  O2  1  0.77510944  0.71101636  0.33762448  1
  O  O3  1  0.25989251  0.83986008  0.20114050  1
  O  O4  1  0.25966557  0.29840657  0.65985440  1
  F  F0  1  0.79354799  0.68481565  0.81564027  1
  F  F1  1  0.19416796  0.30118549  0.19890931  1
  F  F2  1  0.21241684  0.79092584  0.70896532  1
loop_
_geom_bond_atom_site_label_1
_geom_bond_atom_site_label_2
_geom_bond_distance
_geom_bond_site_symmetry_2
Mg0 O3 2.071790 1_555
Mg0 O4 2.072981 1_565
Mg0 O0 2.122333 1_465
Mg0 O2 2.170902 1_455
Mg0 O1 2.173246 1_465
Fe0 O4 1.978781 1_555
Fe0 O3 1.980371 1_545
Fe0 O0 2.029307 1_555
Fe0 O2 2.050426 1_545
Fe0 O1 2.052700 1_555
Fe1 O3 2.106409 1_555
Fe1 O4 2.108969 1_554
Fe1 O1 2.127794 1_554
Fe1 O2 2.131353 1_555
Fe2 O2 1.950114 1_555
Fe2 O0 1.998891 1_555
Fe2 O4 2.019229 1_655
Fe3 O1 1.949791 1_554
Fe3 O0 1.998888 1_555
Fe3 O3 2.019340 1_645
F0 Fe2 1.998817 1_555
F0 Fe3 1.999592 1_566
F1 Fe3 2.055352 1_455
F1 Fe2 2.055565 1_455
F2 Mg0 1.951102 1_555
F2 Fe3 2.125214 1_466
F2 Fe2 2.126912 1_455
