# generated using pymatgen
data_Mg(NiO2)4
_symmetry_space_group_name_H-M   'P 1'
_cell_length_a   2.81794505
_cell_length_b   7.49924135
_cell_length_c   7.92128774
_cell_angle_alpha   92.02958725
_cell_angle_beta   79.75018848
_cell_angle_gamma   79.16988265
_symmetry_Int_Tables_number   1
_chemical_formula_structural   Mg(NiO2)4
_chemical_formula_sum   'Mg1 Ni4 O8'
_cell_volume   161.37978670
_cell_formula_units_Z   1
loop_
 _symmetry_equiv_pos_site_id
 _symmetry_equiv_pos_as_xyz
  1  'x, y, z'
loop_
 _atom_site_type_symbol
 _atom_site_label
 _atom_site_symmetry_multiplicity
 _atom_site_fract_x
 _atom_site_fract_y
 _atom_site_fract_z
 _atom_site_occupancy
  Mg  Mg0  1  0.45300900  0.54966100  0.54887700  1
  Ni  Ni0  1  0.64990500  0.19607800  0.50863900  1
  Ni  Ni1  1  0.15757400  0.47860700  0.21116300  1
  Ni  Ni2  1  0.82363700  0.46543900  0.89245700  1
  Ni  Ni3  1  0.35283600  0.86119000  0.43806100  1
  O  O0  1  0.84373200  0.75158500  0.56569000  1
  O  O1  1  0.43591100  0.38994400  0.74340000  1
  O  O2  1  0.53880900  0.62400700  0.30327000  1
  O  O3  1  0.10552500  0.35811800  0.43546300  1
  O  O4  1  0.17619200  0.05868500  0.59356900  1
  O  O5  1  0.77468100  0.33692200  0.11870500  1
  O  O6  1  0.85302100  0.97006900  0.32866000  1
  O  O7  1  0.20177000  0.59150100  0.01004500  1
loop_
_geom_bond_atom_site_label_1
_geom_bond_atom_site_label_2
_geom_bond_distance
_geom_bond_site_symmetry_2
Mg0 O1 1.984243 1_555
Mg0 O2 2.028412 1_555
Mg0 O0 2.045939 1_455
Mg0 O0 2.046339 1_555
Mg0 O3 2.139968 1_555
Mg0 O3 2.139996 1_655
Ni0 O4 1.882159 1_555
Ni0 O4 1.882438 1_655
Ni0 O3 1.957477 1_555
Ni0 O3 1.957658 1_655
Ni0 O6 2.099211 1_545
Ni0 O1 2.239513 1_555
Ni1 O7 1.826153 1_555
Ni1 O5 1.867210 1_455
Ni1 O5 1.867260 1_555
Ni1 O2 1.880957 1_455
Ni1 O2 1.881009 1_555
Ni1 O3 2.016324 1_555
Ni2 O1 1.884693 1_655
Ni2 O1 1.884836 1_555
Ni2 O7 1.888421 1_656
Ni2 O7 1.888480 1_556
Ni2 O5 2.060126 1_556
Ni3 O4 1.825986 1_565
Ni3 O6 1.858027 1_555
Ni3 O6 1.858423 1_455
Ni3 O0 1.934049 1_555
Ni3 O0 1.934344 1_455
Ni3 O2 1.973439 1_555
