# generated using pymatgen
data_Sr4MgFe2(SO3)2
_symmetry_space_group_name_H-M   'P 1'
_cell_length_a   3.94259718
_cell_length_b   3.94366342
_cell_length_c   16.86309670
_cell_angle_alpha   94.92155303
_cell_angle_beta   85.13503402
_cell_angle_gamma   90.09094893
_symmetry_Int_Tables_number   1
_chemical_formula_structural   Sr4MgFe2(SO3)2
_chemical_formula_sum   'Sr4 Mg1 Fe2 S2 O6'
_cell_volume   260.28002898
_cell_formula_units_Z   1
loop_
 _symmetry_equiv_pos_site_id
 _symmetry_equiv_pos_as_xyz
  1  'x, y, z'
loop_
 _atom_site_type_symbol
 _atom_site_label
 _atom_site_symmetry_multiplicity
 _atom_site_fract_x
 _atom_site_fract_y
 _atom_site_fract_z
 _atom_site_occupancy
  Sr  Sr0  1  0.49657800  0.00014900  0.04367200  1
  Sr  Sr1  1  0.21343500  0.28802000  0.81815500  1
  Sr  Sr2  1  0.84550400  0.65527700  0.44158300  1
  Sr  Sr3  1  0.28805600  0.21183900  0.60602100  1
  Mg  Mg0  1  0.91842800  0.58095800  0.24513300  1
  Fe  Fe0  1  0.38868600  0.11121200  0.32546200  1
  Fe  Fe1  1  0.75386400  0.74670900  0.70051600  1
  S  S0  1  0.97392000  0.52310700  0.10176200  1
  S  S1  1  0.69347000  0.80806400  0.88236100  1
  O  O0  1  0.89857500  0.10087900  0.29670600  1
  O  O1  1  0.39873500  0.60112000  0.29674200  1
  O  O2  1  0.25122300  0.75000800  0.70957500  1
  O  O3  1  0.75118200  0.25026500  0.70945800  1
  O  O4  1  0.34731500  0.15270700  0.43913100  1
  O  O5  1  0.79769500  0.70302400  0.57816800  1
loop_
_geom_bond_atom_site_label_1
_geom_bond_atom_site_label_2
_geom_bond_distance
_geom_bond_site_symmetry_2
Mg0 O1 2.148683 1_655
Mg0 O0 2.148824 1_555
Mg0 O1 2.155938 1_555
Mg0 O0 2.156289 1_565
Mg0 S0 2.400185 1_555
Fe0 O4 1.902835 1_555
Fe0 O0 2.027210 1_555
Fe0 O1 2.027959 1_545
Fe0 O0 2.031235 1_455
Fe0 O1 2.031237 1_555
Fe1 O2 1.974608 1_555
Fe1 O3 1.976406 1_555
Fe1 O3 1.978607 1_565
Fe1 O2 1.979638 1_655
Fe1 O5 2.048129 1_555
Fe1 S1 3.044258 1_555
S0 Sr0 2.946315 1_565
S0 Sr0 2.950687 1_665
S0 Sr0 2.951012 1_555
S0 Sr0 2.963716 1_655
S1 Sr0 2.804651 1_566
S1 Sr1 2.972674 1_655
S1 Sr1 2.985713 1_555
S1 Sr1 2.986686 1_665
S1 Sr1 3.007881 1_565
O2 Sr3 2.624778 1_565
O2 Sr3 2.626195 1_555
O2 Sr1 2.676689 1_565
O2 Sr1 2.686896 1_555
O3 Sr3 2.622060 1_655
O3 Sr3 2.625527 1_555
O3 Sr1 2.678036 1_555
O3 Sr1 2.687431 1_655
O4 Sr2 2.783488 1_545
O4 Sr2 2.784224 1_445
O4 Sr2 2.788400 1_555
O4 Sr3 2.793777 1_555
O4 Sr2 2.797970 1_455
O5 Sr2 2.286479 1_555
O5 Sr3 2.822172 1_665
O5 Sr3 2.824064 1_565
O5 Sr3 2.827333 1_555
O5 Sr3 2.834165 1_655
