# generated using pymatgen
data_Yb(MnGe)2
_symmetry_space_group_name_H-M   'P 1'
_cell_length_a   3.97200800
_cell_length_b   3.97200800
_cell_length_c   6.13092687
_cell_angle_alpha   108.90088900
_cell_angle_beta   108.90088900
_cell_angle_gamma   90.00000000
_symmetry_Int_Tables_number   1
_chemical_formula_structural   Yb(MnGe)2
_chemical_formula_sum   'Yb1 Mn2 Ge2'
_cell_volume   85.97996961
_cell_formula_units_Z   1
loop_
 _symmetry_equiv_pos_site_id
 _symmetry_equiv_pos_as_xyz
  1  'x, y, z'
loop_
 _atom_site_type_symbol
 _atom_site_label
 _atom_site_symmetry_multiplicity
 _atom_site_fract_x
 _atom_site_fract_y
 _atom_site_fract_z
 _atom_site_occupancy
  Yb  Yb0  1  0.00000000  0.00000000  0.00000000  1
  Mn  Mn0  1  0.25000000  0.75000000  0.50000000  1
  Mn  Mn1  1  0.75000000  0.25000000  0.50000000  1
  Ge  Ge0  1  0.62173400  0.62173400  0.24346800  1
  Ge  Ge1  1  0.37826600  0.37826600  0.75653200  1
loop_
_geom_bond_atom_site_label_1
_geom_bond_atom_site_label_2
_geom_bond_distance
_geom_bond_site_symmetry_2
Ge0 Mn0 2.428728 1_655
Ge0 Mn0 2.428728 1_555
Ge0 Mn1 2.428728 1_555
Ge0 Mn1 2.428728 1_565
Ge0 Ge1 2.653682 1_554
Ge0 Yb0 3.106273 1_555
Ge0 Yb0 3.106273 1_655
Ge0 Yb0 3.106273 1_665
Ge0 Yb0 3.106273 1_565
Ge1 Mn1 2.428728 1_455
Ge1 Mn0 2.428728 1_555
Ge1 Mn0 2.428728 1_545
Ge1 Mn1 2.428728 1_555
Ge1 Yb0 3.106273 1_556
Ge1 Yb0 3.106273 1_566
Ge1 Yb0 3.106273 1_666
Ge1 Yb0 3.106273 1_656
