# generated using pymatgen
data_DyTiGe
_symmetry_space_group_name_H-M   'P 1'
_cell_length_a   4.03234751
_cell_length_b   4.03234751
_cell_length_c   7.72231277
_cell_angle_alpha   90.00000000
_cell_angle_beta   90.00000000
_cell_angle_gamma   90.00000000
_symmetry_Int_Tables_number   1
_chemical_formula_structural   DyTiGe
_chemical_formula_sum   'Dy2 Ti2 Ge2'
_cell_volume   125.56346537
_cell_formula_units_Z   2
loop_
 _symmetry_equiv_pos_site_id
 _symmetry_equiv_pos_as_xyz
  1  'x, y, z'
loop_
 _atom_site_type_symbol
 _atom_site_label
 _atom_site_symmetry_multiplicity
 _atom_site_fract_x
 _atom_site_fract_y
 _atom_site_fract_z
 _atom_site_occupancy
  Dy  Dy0  1  0.75000000  0.75000000  0.34780591  1
  Dy  Dy1  1  0.25000000  0.25000000  0.65219409  1
  Ti  Ti0  1  0.25000000  0.75000000  -0.00000000  1
  Ti  Ti1  1  0.75000000  0.25000000  -0.00000000  1
  Ge  Ge0  1  0.25000000  0.25000000  0.24247435  1
  Ge  Ge1  1  0.75000000  0.75000000  0.75752565  1
loop_
_geom_bond_atom_site_label_1
_geom_bond_atom_site_label_2
_geom_bond_distance
_geom_bond_site_symmetry_2
Dy0 Ge0 2.965053 1_565
Dy0 Ge0 2.965053 1_665
Dy0 Ge0 2.965053 1_655
Dy0 Ge0 2.965053 1_555
Dy0 Ge1 3.163984 1_555
Dy1 Ge1 2.965053 1_555
Dy1 Ge1 2.965053 1_545
Dy1 Ge1 2.965053 1_445
Dy1 Ge1 2.965053 1_455
Dy1 Ge0 3.163984 1_555
Ge0 Ti0 2.751558 1_545
Ge0 Ti1 2.751558 1_555
Ge0 Ti0 2.751558 1_555
Ge0 Ti1 2.751558 1_455
Ge1 Ti1 2.751558 1_556
Ge1 Ti1 2.751558 1_566
Ge1 Ti0 2.751558 1_656
Ge1 Ti0 2.751558 1_556
