# generated using pymatgen
data_GeBi2O5
_symmetry_space_group_name_H-M   'P 1'
_cell_length_a   3.97117600
_cell_length_b   11.08617700
_cell_length_c   11.19724900
_cell_angle_alpha   90.00000000
_cell_angle_beta   90.00000000
_cell_angle_gamma   90.00000000
_symmetry_Int_Tables_number   1
_chemical_formula_structural   GeBi2O5
_chemical_formula_sum   'Ge4 Bi8 O20'
_cell_volume   492.96067917
_cell_formula_units_Z   4
loop_
 _symmetry_equiv_pos_site_id
 _symmetry_equiv_pos_as_xyz
  1  'x, y, z'
loop_
 _atom_site_type_symbol
 _atom_site_label
 _atom_site_symmetry_multiplicity
 _atom_site_fract_x
 _atom_site_fract_y
 _atom_site_fract_z
 _atom_site_occupancy
  Ge  Ge0  1  0.25000000  0.20221200  0.86431500  1
  Ge  Ge1  1  0.75000000  0.79778800  0.13568500  1
  Ge  Ge2  1  0.75000000  0.29778800  0.36431500  1
  Ge  Ge3  1  0.25000000  0.70221200  0.63568500  1
  Bi  Bi0  1  0.75000000  0.35907300  0.04888500  1
  Bi  Bi1  1  0.25000000  0.64092700  0.95111500  1
  Bi  Bi2  1  0.25000000  0.14092700  0.54888500  1
  Bi  Bi3  1  0.75000000  0.85907300  0.45111500  1
  Bi  Bi4  1  0.75000000  0.91788100  0.78052100  1
  Bi  Bi5  1  0.25000000  0.08211900  0.21947900  1
  Bi  Bi6  1  0.25000000  0.58211900  0.28052100  1
  Bi  Bi7  1  0.75000000  0.41788100  0.71947900  1
  O  O0  1  0.75000000  0.24085900  0.87220800  1
  O  O1  1  0.25000000  0.75914100  0.12779200  1
  O  O2  1  0.25000000  0.25914100  0.37220800  1
  O  O3  1  0.75000000  0.74085900  0.62779200  1
  O  O4  1  0.75000000  0.45005700  0.32146900  1
  O  O5  1  0.25000000  0.54994300  0.67853100  1
  O  O6  1  0.25000000  0.04994300  0.82146900  1
  O  O7  1  0.75000000  0.95005700  0.17853100  1
  O  O8  1  0.75000000  0.25323600  0.52031100  1
  O  O9  1  0.25000000  0.74676400  0.47968900  1
  O  O10  1  0.25000000  0.24676400  0.02031100  1
  O  O11  1  0.75000000  0.75323600  0.97968900  1
  O  O12  1  0.25000000  0.30309700  0.73647300  1
  O  O13  1  0.75000000  0.69690300  0.26352700  1
  O  O14  1  0.75000000  0.19690300  0.23647300  1
  O  O15  1  0.25000000  0.80309700  0.76352700  1
  O  O16  1  0.75000000  0.99635000  0.60094100  1
  O  O17  1  0.25000000  0.00365000  0.39905900  1
  O  O18  1  0.25000000  0.50365000  0.10094100  1
  O  O19  1  0.75000000  0.49635000  0.89905900  1
loop_
_geom_bond_atom_site_label_1
_geom_bond_atom_site_label_2
_geom_bond_distance
_geom_bond_site_symmetry_2
Ge0 O6 1.754932 1_555
Ge0 O10 1.815214 1_556
Ge0 O12 1.816594 1_555
Ge0 O0 2.033209 1_455
Ge0 O0 2.033209 1_555
Ge1 O7 1.754932 1_555
Ge1 O11 1.815214 1_554
Ge1 O13 1.816594 1_555
Ge1 O1 2.033209 1_555
Ge1 O1 2.033209 1_655
Ge2 O4 1.754932 1_555
Ge2 O8 1.815214 1_555
Ge2 O14 1.816594 1_555
Ge2 O2 2.033209 1_655
Ge2 O2 2.033209 1_555
Ge3 O5 1.754932 1_555
Ge3 O9 1.815214 1_555
Ge3 O15 1.816594 1_555
Ge3 O3 2.033209 1_555
Ge3 O3 2.033209 1_455
Bi0 O19 2.265079 1_554
Bi0 O10 2.365406 1_555
Bi0 O10 2.365406 1_655
Bi0 O0 2.373010 1_554
Bi0 O18 2.617499 1_555
Bi0 O18 2.617499 1_655
Bi0 O14 2.764818 1_555
Bi1 O18 2.265079 1_556
Bi1 O11 2.365406 1_555
Bi1 O11 2.365406 1_455
Bi1 O1 2.373010 1_556
Bi1 O19 2.617499 1_455
Bi1 O19 2.617499 1_555
Bi1 O15 2.764818 1_555
Bi2 O17 2.265079 1_555
Bi2 O8 2.365406 1_555
Bi2 O8 2.365406 1_455
Bi2 O2 2.373010 1_555
Bi2 O16 2.617499 1_545
Bi2 O16 2.617499 1_445
Bi2 O12 2.764818 1_555
Bi3 O16 2.265079 1_555
Bi3 O9 2.365406 1_555
Bi3 O9 2.365406 1_655
Bi3 O3 2.373010 1_555
Bi3 O17 2.617499 1_565
Bi3 O17 2.617499 1_665
Bi3 O13 2.764818 1_555
Bi4 O16 2.190910 1_555
Bi4 O15 2.366023 1_555
Bi4 O15 2.366023 1_655
Bi4 O6 2.509236 1_665
Bi4 O6 2.509236 1_565
Bi4 O3 2.603073 1_555
Bi4 O11 2.881867 1_555
Bi5 O17 2.190910 1_555
Bi5 O14 2.366023 1_555
Bi5 O14 2.366023 1_455
Bi5 O7 2.509236 1_445
Bi5 O7 2.509236 1_545
Bi5 O2 2.603073 1_555
Bi5 O10 2.881867 1_555
Bi6 O18 2.190910 1_555
Bi6 O13 2.366023 1_455
Bi6 O13 2.366023 1_555
Bi6 O4 2.509236 1_555
Bi6 O4 2.509236 1_455
Bi6 O1 2.603073 1_555
Bi6 O9 2.881867 1_555
Bi7 O19 2.190910 1_555
Bi7 O12 2.366023 1_555
Bi7 O12 2.366023 1_655
Bi7 O5 2.509236 1_655
Bi7 O5 2.509236 1_555
Bi7 O0 2.603073 1_555
Bi7 O8 2.881867 1_555
