# generated using pymatgen
data_InNi2
_symmetry_space_group_name_H-M   'P 1'
_cell_length_a   4.30736071
_cell_length_b   4.30736071
_cell_length_c   5.25315700
_cell_angle_alpha   90.00000000
_cell_angle_beta   90.00000000
_cell_angle_gamma   120.00001086
_symmetry_Int_Tables_number   1
_chemical_formula_structural   InNi2
_chemical_formula_sum   'In2 Ni4'
_cell_volume   84.40602513
_cell_formula_units_Z   2
loop_
 _symmetry_equiv_pos_site_id
 _symmetry_equiv_pos_as_xyz
  1  'x, y, z'
loop_
 _atom_site_type_symbol
 _atom_site_label
 _atom_site_symmetry_multiplicity
 _atom_site_fract_x
 _atom_site_fract_y
 _atom_site_fract_z
 _atom_site_occupancy
  In  In0  1  0.33333300  0.66666700  0.75000000  1
  In  In1  1  0.66666700  0.33333300  0.25000000  1
  Ni  Ni0  1  0.00000000  0.00000000  0.50000000  1
  Ni  Ni1  1  0.00000000  0.00000000  0.00000000  1
  Ni  Ni2  1  0.33333300  0.66666700  0.25000000  1
  Ni  Ni3  1  0.66666700  0.33333300  0.75000000  1
loop_
_geom_bond_atom_site_label_1
_geom_bond_atom_site_label_2
_geom_bond_distance
_geom_bond_site_symmetry_2
In0 Ni3 2.486853 1_455
In0 Ni3 2.486853 1_565
In0 Ni3 2.486861 1_555
In0 Ni2 2.626578 1_555
In0 Ni2 2.626578 1_556
In0 Ni1 2.812324 1_566
In0 Ni0 2.812324 1_565
In0 Ni0 2.812327 1_665
In0 Ni1 2.812327 1_666
In0 Ni0 2.812327 1_555
In0 Ni1 2.812327 1_556
In1 Ni2 2.486853 1_545
In1 Ni2 2.486853 1_655
In1 Ni2 2.486861 1_555
In1 Ni3 2.626578 1_555
In1 Ni3 2.626578 1_554
In1 Ni0 2.812324 1_655
In1 Ni1 2.812324 1_655
In1 Ni1 2.812327 1_555
In1 Ni0 2.812327 1_665
In1 Ni1 2.812327 1_665
In1 Ni0 2.812327 1_555
Ni0 Ni1 2.626578 1_556
Ni0 Ni1 2.626578 1_555
Ni0 Ni2 2.812324 1_545
Ni0 Ni3 2.812324 1_455
Ni0 Ni2 2.812327 1_555
Ni0 Ni3 2.812327 1_445
Ni0 Ni3 2.812327 1_555
Ni0 Ni2 2.812327 1_445
Ni1 Ni2 2.812324 1_545
Ni1 Ni3 2.812324 1_454
Ni1 Ni3 2.812327 1_554
Ni1 Ni2 2.812327 1_555
Ni1 Ni3 2.812327 1_444
Ni1 Ni2 2.812327 1_445
