# generated using pymatgen
data_U2Cu4As5
_symmetry_space_group_name_H-M   'P 1'
_cell_length_a   12.47579664
_cell_length_b   12.47579664
_cell_length_c   12.47579664
_cell_angle_alpha   161.58852880
_cell_angle_beta   161.58852880
_cell_angle_gamma   26.15230378
_symmetry_Int_Tables_number   1
_chemical_formula_structural   U2Cu4As5
_chemical_formula_sum   'U2 Cu4 As5'
_cell_volume   193.63618929
_cell_formula_units_Z   1
loop_
 _symmetry_equiv_pos_site_id
 _symmetry_equiv_pos_as_xyz
  1  'x, y, z'
loop_
 _atom_site_type_symbol
 _atom_site_label
 _atom_site_symmetry_multiplicity
 _atom_site_fract_x
 _atom_site_fract_y
 _atom_site_fract_z
 _atom_site_occupancy
  U  U0  1  0.84207300  0.84207300  0.00000000  1
  U  U1  1  0.15792700  0.15792700  0.00000000  1
  Cu  Cu0  1  0.44202700  0.94202700  0.50000000  1
  Cu  Cu1  1  0.55797300  0.05797300  0.50000000  1
  Cu  Cu2  1  0.05797300  0.55797300  0.50000000  1
  Cu  Cu3  1  0.94202700  0.44202700  0.50000000  1
  As  As0  1  0.37578100  0.37578100  0.00000000  1
  As  As1  1  0.62421900  0.62421900  0.00000000  1
  As  As2  1  0.00000000  0.00000000  0.00000000  1
  As  As3  1  0.25000000  0.75000000  0.50000000  1
  As  As4  1  0.75000000  0.25000000  0.50000000  1
loop_
_geom_bond_atom_site_label_1
_geom_bond_atom_site_label_2
_geom_bond_distance
_geom_bond_site_symmetry_2
Cu0 U0 3.144079 1_556
Cu0 U0 3.144079 1_455
Cu1 U1 3.144079 1_656
Cu1 U1 3.144079 1_555
Cu2 U1 3.144079 1_566
Cu2 U1 3.144079 1_555
Cu3 U0 3.144079 1_556
Cu3 U0 3.144079 1_545
As0 Cu0 2.564351 1_544
As0 Cu3 2.564351 1_454
As0 Cu0 2.564351 1_555
As0 Cu3 2.564351 1_555
As0 U0 2.939089 1_556
As0 U0 2.939089 1_444
As0 U0 2.939089 1_545
As0 U0 2.939089 1_455
As1 Cu2 2.564351 1_655
As1 Cu1 2.564351 1_565
As1 Cu1 2.564351 1_554
As1 Cu2 2.564351 1_554
As1 U1 2.939089 1_666
As1 U1 2.939089 1_655
As1 U1 2.939089 1_565
As1 U1 2.939089 1_554
As2 Cu1 2.443121 1_454
As2 Cu2 2.443121 1_544
As2 Cu0 2.443121 1_444
As2 Cu0 2.443121 1_545
As2 Cu3 2.443121 1_455
As2 Cu1 2.443121 1_555
As2 Cu2 2.443121 1_555
As2 Cu3 2.443121 1_444
As3 As4 2.822598 1_454
As3 As4 2.822598 1_465
As3 As4 2.822598 1_555
As3 As4 2.822598 1_566
As3 U0 2.998544 1_455
As3 U0 2.998544 1_556
As3 U1 2.998544 1_555
As3 U1 2.998544 1_566
As4 U0 2.998544 1_545
As4 U0 2.998544 1_556
As4 U1 2.998544 1_555
As4 U1 2.998544 1_656
