# generated using pymatgen
data_NaLaNb(PO4)3
_symmetry_space_group_name_H-M   'P 1'
_cell_length_a   9.21449399
_cell_length_b   9.21449366
_cell_length_c   23.55675048
_cell_angle_alpha   90.00000000
_cell_angle_beta   90.00000000
_cell_angle_gamma   120.00000115
_symmetry_Int_Tables_number   1
_chemical_formula_structural   NaLaNb(PO4)3
_chemical_formula_sum   'Na6 La6 Nb6 P18 O72'
_cell_volume   1732.16386764
_cell_formula_units_Z   6
loop_
 _symmetry_equiv_pos_site_id
 _symmetry_equiv_pos_as_xyz
  1  'x, y, z'
loop_
 _atom_site_type_symbol
 _atom_site_label
 _atom_site_symmetry_multiplicity
 _atom_site_fract_x
 _atom_site_fract_y
 _atom_site_fract_z
 _atom_site_occupancy
  Na  Na0  1  -0.00000000  0.00000000  0.50112064  1
  Na  Na1  1  -0.00000000  0.00000000  0.00112064  1
  Na  Na2  1  0.66666700  0.33333300  0.83445364  1
  Na  Na3  1  0.66666700  0.33333300  0.33445364  1
  Na  Na4  1  0.33333300  0.66666700  0.16778764  1
  Na  Na5  1  0.33333300  0.66666700  0.66778764  1
  La  La0  1  -0.00000000  0.00000000  0.35491880  1
  La  La1  1  -0.00000000  0.00000000  0.85491880  1
  La  La2  1  0.66666700  0.33333300  0.68825180  1
  La  La3  1  0.66666700  0.33333300  0.18825180  1
  La  La4  1  0.33333300  0.66666700  0.02158580  1
  La  La5  1  0.33333300  0.66666700  0.52158580  1
  Nb  Nb0  1  -0.00000000  0.00000000  0.64853775  1
  Nb  Nb1  1  -0.00000000  0.00000000  0.14853775  1
  Nb  Nb2  1  0.66666700  0.33333300  0.98187075  1
  Nb  Nb3  1  0.66666700  0.33333300  0.48187075  1
  Nb  Nb4  1  0.33333300  0.66666700  0.31520475  1
  Nb  Nb5  1  0.33333300  0.66666700  0.81520475  1
  P  P0  1  0.28184895  0.97687656  0.24980739  1
  P  P1  1  0.69502761  0.71815105  0.24980739  1
  P  P2  1  0.02312344  0.30497239  0.24980739  1
  P  P3  1  0.28184895  0.30497239  0.74980739  1
  P  P4  1  0.02312344  0.71815105  0.74980739  1
  P  P5  1  0.69502761  0.97687656  0.74980739  1
  P  P6  1  0.94851595  0.31020956  0.58314039  1
  P  P7  1  0.36169461  0.05148405  0.58314039  1
  P  P8  1  0.68979044  0.63830539  0.58314039  1
  P  P9  1  0.94851595  0.63830539  0.08314039  1
  P  P10  1  0.68979044  0.05148405  0.08314039  1
  P  P11  1  0.36169461  0.31020956  0.08314039  1
  P  P12  1  0.61518195  0.64354356  0.91647439  1
  P  P13  1  0.02836061  0.38481805  0.91647439  1
  P  P14  1  0.35645644  0.97163939  0.91647439  1
  P  P15  1  0.61518195  0.97163939  0.41647439  1
  P  P16  1  0.35645644  0.38481805  0.41647439  1
  P  P17  1  0.02836061  0.64354356  0.41647439  1
  O  O0  1  0.20893475  0.00424709  0.30296317  1
  O  O1  1  0.79531234  0.79106525  0.30296317  1
  O  O2  1  0.99575291  0.20468766  0.30296317  1
  O  O3  1  0.20893475  0.20468766  0.80296317  1
  O  O4  1  0.99575291  0.79106525  0.80296317  1
  O  O5  1  0.79531234  0.00424709  0.80296317  1
  O  O6  1  0.79964051  0.96356976  0.69654298  1
  O  O7  1  0.16392925  0.20035949  0.69654298  1
  O  O8  1  0.03643024  0.83607075  0.69654298  1
  O  O9  1  0.79964051  0.83607075  0.19654298  1
  O  O10  1  0.03643024  0.20035949  0.19654298  1
  O  O11  1  0.16392925  0.96356976  0.19654298  1
  O  O12  1  0.87560175  0.33758009  0.63629617  1
  O  O13  1  0.46197934  0.12439825  0.63629617  1
  O  O14  1  0.66241991  0.53802066  0.63629617  1
  O  O15  1  0.87560175  0.53802066  0.13629617  1
  O  O16  1  0.66241991  0.12439825  0.13629617  1
  O  O17  1  0.46197934  0.33758009  0.13629617  1
  O  O18  1  0.46630751  0.29690276  0.02987598  1
  O  O19  1  0.83059625  0.53369249  0.02987598  1
  O  O20  1  0.70309724  0.16940375  0.02987598  1
  O  O21  1  0.46630751  0.16940375  0.52987598  1
  O  O22  1  0.70309724  0.53369249  0.52987598  1
  O  O23  1  0.83059625  0.29690276  0.52987598  1
  O  O24  1  0.54226775  0.67091409  0.96963017  1
  O  O25  1  0.12864534  0.45773225  0.96963017  1
  O  O26  1  0.32908591  0.87135466  0.96963017  1
  O  O27  1  0.54226775  0.87135466  0.46963017  1
  O  O28  1  0.32908591  0.45773225  0.46963017  1
  O  O29  1  0.12864534  0.67091409  0.46963017  1
  O  O30  1  0.13297351  0.63023676  0.36320998  1
  O  O31  1  0.49726225  0.86702649  0.36320998  1
  O  O32  1  0.36976324  0.50273775  0.36320998  1
  O  O33  1  0.13297351  0.50273775  0.86320998  1
  O  O34  1  0.36976324  0.86702649  0.86320998  1
  O  O35  1  0.49726225  0.63023676  0.86320998  1
  O  O36  1  0.99083507  0.78447491  0.40922915  1
  O  O37  1  0.79363984  0.00916493  0.40922915  1
  O  O38  1  0.21552509  0.20636016  0.40922915  1
  O  O39  1  0.99083507  0.20636016  0.90922915  1
  O  O40  1  0.21552509  0.00916493  0.90922915  1
  O  O41  1  0.79363984  0.78447491  0.90922915  1
  O  O42  1  0.95228482  0.14053845  0.58993158  1
  O  O43  1  0.18825364  0.04771518  0.58993158  1
  O  O44  1  0.85946155  0.81174636  0.58993158  1
  O  O45  1  0.95228482  0.81174636  0.08993158  1
  O  O46  1  0.85946155  0.04771518  0.08993158  1
  O  O47  1  0.18825364  0.14053845  0.08993158  1
  O  O48  1  0.65750207  0.11780791  0.74256215  1
  O  O49  1  0.46030684  0.34249793  0.74256215  1
  O  O50  1  0.88219209  0.53969316  0.74256215  1
  O  O51  1  0.65750207  0.53969316  0.24256215  1
  O  O52  1  0.88219209  0.34249793  0.24256215  1
  O  O53  1  0.46030684  0.11780791  0.24256215  1
  O  O54  1  0.61895182  0.47387145  0.92326458  1
  O  O55  1  0.85492064  0.38104818  0.92326458  1
  O  O56  1  0.52612855  0.14507936  0.92326458  1
  O  O57  1  0.61895182  0.14507936  0.42326458  1
  O  O58  1  0.52612855  0.38104818  0.42326458  1
  O  O59  1  0.85492064  0.47387145  0.42326458  1
  O  O60  1  0.32416807  0.45114191  0.07589615  1
  O  O61  1  0.12697284  0.67583193  0.07589615  1
  O  O62  1  0.54885809  0.87302716  0.07589615  1
  O  O63  1  0.32416807  0.87302716  0.57589615  1
  O  O64  1  0.54885809  0.67583193  0.57589615  1
  O  O65  1  0.12697284  0.45114191  0.57589615  1
  O  O66  1  0.28561782  0.80720545  0.25659858  1
  O  O67  1  0.52158664  0.71438218  0.25659858  1
  O  O68  1  0.19279455  0.47841336  0.25659858  1
  O  O69  1  0.28561782  0.47841336  0.75659858  1
  O  O70  1  0.19279455  0.71438218  0.75659858  1
  O  O71  1  0.52158664  0.80720545  0.75659858  1
loop_
_geom_bond_atom_site_label_1
_geom_bond_atom_site_label_2
_geom_bond_distance
_geom_bond_site_symmetry_2
Na0 O42 2.610853 1_455
Na0 O44 2.610853 1_445
Na0 O43 2.610853 1_555
Na0 O36 2.910190 1_445
Na0 O38 2.910190 1_555
Na0 O37 2.910190 1_455
Na1 O46 2.610853 1_455
Na1 O45 2.610853 1_445
Na1 O47 2.610853 1_555
Na1 O41 2.910190 1_444
Na1 O39 2.910190 1_454
Na1 O40 2.910190 1_554
Na2 O54 2.610853 1_555
Na2 O56 2.610853 1_555
Na2 O55 2.610853 1_555
Na2 O48 2.910190 1_555
Na2 O50 2.910190 1_555
Na2 O49 2.910190 1_555
Na3 O58 2.610853 1_555
Na3 O57 2.610853 1_555
Na3 O59 2.610853 1_555
Na3 O53 2.910190 1_555
Na3 O51 2.910190 1_555
Na3 O52 2.910190 1_555
Na4 O66 2.610853 1_555
Na4 O68 2.610853 1_555
Na4 O67 2.610853 1_555
Na4 O60 2.910190 1_555
Na4 O62 2.910190 1_555
Na4 O61 2.910190 1_555
Na5 O70 2.610853 1_555
Na5 O69 2.610853 1_555
Na5 O71 2.610853 1_555
Na5 O65 2.910190 1_555
Na5 O63 2.910190 1_555
Na5 O64 2.910190 1_555
La0 O1 2.265091 1_445
La0 O2 2.265091 1_455
La0 O0 2.265091 1_555
La0 O36 2.328140 1_445
La0 O38 2.328140 1_555
La0 O37 2.328140 1_455
La1 O4 2.265091 1_445
La1 O3 2.265091 1_555
La1 O5 2.265091 1_455
La1 O41 2.328140 1_445
La1 O39 2.328140 1_455
La1 O40 2.328140 1_555
La2 O13 2.265091 1_555
La2 O14 2.265091 1_555
La2 O12 2.265091 1_555
La2 O48 2.328140 1_555
La2 O50 2.328140 1_555
La2 O49 2.328140 1_555
La3 O16 2.265091 1_555
La3 O15 2.265091 1_555
La3 O17 2.265091 1_555
La3 O53 2.328140 1_555
La3 O51 2.328140 1_555
La3 O52 2.328140 1_555
La4 O25 2.265091 1_554
La4 O26 2.265091 1_554
La4 O24 2.265091 1_554
La4 O60 2.328140 1_555
La4 O62 2.328140 1_555
La4 O61 2.328140 1_555
La5 O28 2.265091 1_555
La5 O27 2.265091 1_555
La5 O29 2.265091 1_555
La5 O65 2.328140 1_555
La5 O63 2.328140 1_555
La5 O64 2.328140 1_555
Nb0 O7 2.044566 1_555
Nb0 O8 2.044566 1_545
Nb0 O6 2.044566 1_445
Nb0 O42 2.084624 1_455
Nb0 O44 2.084624 1_445
Nb0 O43 2.084624 1_555
Nb1 O10 2.044566 1_555
Nb1 O9 2.044566 1_445
Nb1 O11 2.044566 1_545
Nb1 O46 2.084624 1_455
Nb1 O45 2.084624 1_445
Nb1 O47 2.084624 1_555
Nb2 O19 2.044566 1_556
Nb2 O20 2.044566 1_556
Nb2 O18 2.044566 1_556
Nb2 O54 2.084624 1_555
Nb2 O56 2.084624 1_555
Nb2 O55 2.084624 1_555
Nb3 O22 2.044566 1_555
Nb3 O21 2.044566 1_555
Nb3 O23 2.044566 1_555
Nb3 O58 2.084624 1_555
Nb3 O57 2.084624 1_555
Nb3 O59 2.084624 1_555
Nb4 O31 2.044566 1_555
Nb4 O32 2.044566 1_555
Nb4 O30 2.044566 1_555
Nb4 O66 2.084624 1_555
Nb4 O68 2.084624 1_555
Nb4 O67 2.084624 1_555
Nb5 O34 2.044566 1_555
Nb5 O33 2.044566 1_555
Nb5 O35 2.044566 1_555
Nb5 O70 2.084624 1_555
Nb5 O69 2.084624 1_555
Nb5 O71 2.084624 1_555
O0 P0 1.500803 1_545
O1 P1 1.500803 1_555
O2 P2 1.500803 1_655
O3 P3 1.500803 1_555
O4 P4 1.500803 1_655
O5 P5 1.500803 1_545
O6 P5 1.623824 1_555
O7 P3 1.623824 1_555
O8 P4 1.623824 1_555
O9 P1 1.623824 1_555
O10 P2 1.623824 1_555
O11 P0 1.623824 1_555
O12 P6 1.500803 1_555
O13 P7 1.500803 1_555
O14 P8 1.500803 1_555
O15 P9 1.500803 1_555
O16 P10 1.500803 1_555
O17 P11 1.500803 1_555
O18 P11 1.623824 1_555
O19 P9 1.623824 1_555
O20 P10 1.623824 1_555
O21 P7 1.623824 1_555
O22 P8 1.623824 1_555
O23 P6 1.623824 1_555
O24 P12 1.500803 1_555
O25 P13 1.500803 1_555
O26 P14 1.500803 1_555
O27 P15 1.500803 1_555
O28 P16 1.500803 1_555
O29 P17 1.500803 1_555
O30 P17 1.623824 1_555
O31 P15 1.623824 1_555
O32 P16 1.623824 1_555
O33 P13 1.623824 1_555
O34 P14 1.623824 1_555
O35 P12 1.623824 1_555
O36 P17 1.511329 1_655
O37 P15 1.511338 1_545
O38 P16 1.511335 1_555
O39 P13 1.511338 1_655
O40 P14 1.511329 1_545
O41 P12 1.511335 1_555
O42 P6 1.589156 1_555
O43 P7 1.589166 1_555
O44 P8 1.589161 1_555
O45 P9 1.589166 1_555
O46 P10 1.589157 1_555
O47 P11 1.589161 1_555
O48 P5 1.511329 1_545
O49 P3 1.511338 1_555
O50 P4 1.511335 1_655
O51 P1 1.511338 1_555
O52 P2 1.511329 1_655
O53 P0 1.511335 1_545
O54 P12 1.589168 1_555
O55 P13 1.589150 1_655
O56 P14 1.589158 1_545
O57 P15 1.589150 1_545
O58 P16 1.589168 1_555
O59 P17 1.589158 1_655
O60 P11 1.511341 1_555
O61 P9 1.511324 1_455
O62 P10 1.511329 1_565
O63 P7 1.511323 1_565
O64 P8 1.511342 1_555
O65 P6 1.511329 1_455
O66 P0 1.589156 1_555
O67 P1 1.589166 1_555
O68 P2 1.589161 1_555
O69 P3 1.589166 1_555
O70 P4 1.589157 1_555
O71 P5 1.589161 1_555
