# generated using pymatgen
data_Na5Zr2Si3Sn2(PO8)3
_symmetry_space_group_name_H-M   'P 1'
_cell_length_a   9.03920102
_cell_length_b   9.04348057
_cell_length_c   22.92468989
_cell_angle_alpha   89.93795936
_cell_angle_beta   90.15006044
_cell_angle_gamma   119.99112986
_symmetry_Int_Tables_number   1
_chemical_formula_structural   Na5Zr2Si3Sn2(PO8)3
_chemical_formula_sum   'Na15 Zr6 Si9 Sn6 P9 O72'
_cell_volume   1623.06929509
_cell_formula_units_Z   3
loop_
 _symmetry_equiv_pos_site_id
 _symmetry_equiv_pos_as_xyz
  1  'x, y, z'
loop_
 _atom_site_type_symbol
 _atom_site_label
 _atom_site_symmetry_multiplicity
 _atom_site_fract_x
 _atom_site_fract_y
 _atom_site_fract_z
 _atom_site_occupancy
  Na  Na0  1  0.00089642  0.63206557  0.25002858  1
  Na  Na1  1  0.36984812  0.99913472  0.75168268  1
  Na  Na2  1  0.03044671  0.70081799  0.58074603  1
  Na  Na3  1  0.66079368  0.96475101  0.58530440  1
  Na  Na4  1  0.29701524  0.96875344  0.08000949  1
  Na  Na5  1  0.03725770  0.33968359  0.08516026  1
  Na  Na6  1  0.97043371  0.66862618  0.91899755  1
  Na  Na7  1  0.96453467  0.30214643  0.41352100  1
  Na  Na8  1  0.33678393  0.02830416  0.41743471  1
  Na  Na9  1  0.99766821  0.99147418  0.49995788  1
  Na  Na10  1  0.99757773  0.99946896  0.99843098  1
  Na  Na11  1  0.66502859  0.32447586  0.83441697  1
  Na  Na12  1  0.66443169  0.33171887  0.33166188  1
  Na  Na13  1  0.34610897  0.65959585  0.16746150  1
  Na  Na14  1  0.34129626  0.65353574  0.66824892  1
  Zr  Zr0  1  0.99015271  0.99584096  0.35069032  1
  Zr  Zr1  1  0.99927377  0.00237845  0.64983130  1
  Zr  Zr2  1  0.99896868  0.00078365  0.14761134  1
  Zr  Zr3  1  0.66657044  0.33331372  0.68767525  1
  Zr  Zr4  1  0.66565635  0.34085358  0.48049705  1
  Zr  Zr5  1  0.34032650  0.67023085  0.51890682  1
  Si  Si0  1  0.99980264  0.30026751  0.24932413  1
  Si  Si1  1  0.70452014  0.99596584  0.75219661  1
  Si  Si2  1  0.37036839  0.04074956  0.58328486  1
  Si  Si3  1  0.66558592  0.62670698  0.58532051  1
  Si  Si4  1  0.95644690  0.62252693  0.08097832  1
  Si  Si5  1  0.38031862  0.33909875  0.08326064  1
  Si  Si6  1  0.33541775  0.96265557  0.91583971  1
  Si  Si7  1  0.62609848  0.95844797  0.41562591  1
  Si  Si8  1  0.04143330  0.66712673  0.41520623  1
  Sn  Sn0  1  0.00035860  0.00561550  0.85310153  1
  Sn  Sn1  1  0.66635304  0.33319107  0.18441694  1
  Sn  Sn2  1  0.65723604  0.32869749  0.98027641  1
  Sn  Sn3  1  0.33483337  0.66629688  0.01733807  1
  Sn  Sn4  1  0.33405753  0.66552910  0.31391721  1
  Sn  Sn5  1  0.33963109  0.66896540  0.81586642  1
  P  P0  1  0.29950432  0.00276605  0.25021281  1
  P  P1  1  0.70061247  0.70207368  0.24905558  1
  P  P2  1  0.28979529  0.29497510  0.75282961  1
  P  P3  1  0.00211998  0.70722670  0.75329898  1
  P  P4  1  0.95816784  0.33307380  0.58285350  1
  P  P5  1  0.66420608  0.04364068  0.08207335  1
  P  P6  1  0.62586219  0.66676386  0.91657502  1
  P  P7  1  0.04212226  0.37468821  0.91694654  1
  P  P8  1  0.33360282  0.37669631  0.41443177  1
  O  O0  1  0.21319789  0.02364873  0.30515481  1
  O  O1  1  0.81690607  0.78685540  0.30306387  1
  O  O2  1  0.97597971  0.18599618  0.30758826  1
  O  O3  1  0.21297701  0.17668216  0.80668464  1
  O  O4  1  0.97730165  0.79024905  0.80879829  1
  O  O5  1  0.82689473  0.02883647  0.80845926  1
  O  O6  1  0.78958425  0.97240318  0.69251473  1
  O  O7  1  0.18110203  0.21111230  0.69834406  1
  O  O8  1  0.03424541  0.82219203  0.69896088  1
  O  O9  1  0.78991662  0.81354728  0.19539324  1
  O  O10  1  0.02178689  0.20752463  0.19145553  1
  O  O11  1  0.18329833  0.97244885  0.19590148  1
  O  O12  1  0.87119626  0.36221230  0.63593110  1
  O  O13  1  0.49245843  0.12624629  0.64068894  1
  O  O14  1  0.64557138  0.50968136  0.64145169  1
  O  O15  1  0.88057311  0.50255956  0.13952677  1
  O  O16  1  0.62382051  0.11747765  0.13663533  1
  O  O17  1  0.49337138  0.36809290  0.14166696  1
  O  O18  1  0.45291423  0.28406095  0.02718893  1
  O  O19  1  0.84559151  0.53773789  0.02152482  1
  O  O20  1  0.70609037  0.16066437  0.02822474  1
  O  O21  1  0.45983142  0.15061238  0.52436634  1
  O  O22  1  0.70572406  0.54300044  0.52852517  1
  O  O23  1  0.84896813  0.30188052  0.52708050  1
  O  O24  1  0.54540860  0.69623070  0.97144242  1
  O  O25  1  0.14744228  0.44985540  0.97376318  1
  O  O26  1  0.29450482  0.84081821  0.97434039  1
  O  O27  1  0.54463888  0.84725639  0.47499024  1
  O  O28  1  0.30072278  0.45688893  0.46822562  1
  O  O29  1  0.15668290  0.69580437  0.47387141  1
  O  O30  1  0.12163330  0.62718670  0.35692615  1
  O  O31  1  0.49912418  0.87086822  0.35997298  1
  O  O32  1  0.36488615  0.48559431  0.35957494  1
  O  O33  1  0.12744555  0.49308346  0.86386937  1
  O  O34  1  0.35983264  0.87542373  0.85699808  1
  O  O35  1  0.51417464  0.63269113  0.86212347  1
  O  O36  1  0.03804844  0.84561567  0.40948014  1
  O  O37  1  0.82054975  0.98939016  0.41147670  1
  O  O38  1  0.17264739  0.19645682  0.40889129  1
  O  O39  1  0.02285697  0.19560137  0.91156541  1
  O  O40  1  0.15379498  0.96818511  0.91086497  1
  O  O41  1  0.80878175  0.82597670  0.91146184  1
  O  O42  1  0.97055083  0.17053447  0.58975725  1
  O  O43  1  0.17821576  0.01124313  0.58908583  1
  O  O44  1  0.83658869  0.81752569  0.58981186  1
  O  O45  1  0.98663081  0.81586007  0.08823163  1
  O  O46  1  0.82526365  0.02771799  0.08969084  1
  O  O47  1  0.18655823  0.16895447  0.09013123  1
  O  O48  1  0.67517616  0.16117628  0.74802006  1
  O  O49  1  0.46707861  0.30898773  0.74646065  1
  O  O50  1  0.84444328  0.52975937  0.74689157  1
  O  O51  1  0.69268725  0.52695844  0.24499714  1
  O  O52  1  0.83022856  0.32481061  0.24530901  1
  O  O53  1  0.47698250  0.16314732  0.24429412  1
  O  O54  1  0.65412231  0.51022111  0.92131585  1
  O  O55  1  0.86583736  0.36668558  0.92151751  1
  O  O56  1  0.50821036  0.15065310  0.92027141  1
  O  O57  1  0.64270252  0.14712905  0.42033151  1
  O  O58  1  0.48827493  0.34922303  0.42045559  1
  O  O59  1  0.85639963  0.49282413  0.42017990  1
  O  O60  1  0.35057838  0.50345269  0.07612736  1
  O  O61  1  0.15007438  0.64335910  0.07658463  1
  O  O62  1  0.50042191  0.86668979  0.07490553  1
  O  O63  1  0.35052757  0.84930025  0.57954099  1
  O  O64  1  0.50042706  0.65212197  0.58097021  1
  O  O65  1  0.13363301  0.49527078  0.57770627  1
  O  O66  1  0.30782905  0.83506008  0.25373421  1
  O  O67  1  0.52412589  0.68689270  0.25500599  1
  O  O68  1  0.16936247  0.49393474  0.25292646  1
  O  O69  1  0.30334820  0.47158610  0.75915156  1
  O  O70  1  0.16828058  0.69544446  0.75744210  1
  O  O71  1  0.51010452  0.82585916  0.75501029  1
loop_
_geom_bond_atom_site_label_1
_geom_bond_atom_site_label_2
_geom_bond_distance
_geom_bond_site_symmetry_2
Na0 O68 2.405166 1_555
Na0 O52 2.413886 1_455
Na0 O66 2.445807 1_555
Na0 O51 2.455510 1_455
Na0 O30 2.689299 1_555
Na0 O15 2.773145 1_455
Na0 O1 2.923270 1_455
Na0 O11 2.943169 1_555
Na1 O48 2.393587 1_565
Na1 O70 2.424413 1_555
Na1 O71 2.460499 1_555
Na1 O49 2.485263 1_565
Na1 O34 2.642509 1_555
Na1 O13 2.785493 1_565
Na1 O8 2.890672 1_555
Na1 O3 2.910086 1_565
Na2 O43 2.439836 1_565
Na2 O65 2.462550 1_555
Na2 O44 2.465593 1_455
Na2 O63 2.508228 1_555
Na2 O29 2.715427 1_555
Na2 O22 2.807651 1_455
Na2 O8 2.918662 1_555
Na2 O12 2.940048 1_455
Na3 O64 2.450948 1_555
Na3 O63 2.458468 1_555
Na3 O42 2.470444 1_565
Na3 O44 2.534251 1_555
Na3 O6 2.702870 1_555
Na3 O27 2.739238 1_555
Na3 O13 2.880315 1_565
Na3 O23 2.964579 1_565
Na4 O45 2.437794 1_455
Na4 O62 2.438073 1_555
Na4 O47 2.477504 1_565
Na4 O61 2.553870 1_555
Na4 O26 2.680825 1_554
Na4 O18 2.750867 1_565
Na4 O11 2.857460 1_555
Na4 O16 2.869178 1_565
Na5 O61 2.412614 1_555
Na5 O60 2.463030 1_555
Na5 O46 2.497582 1_455
Na5 O47 2.510007 1_555
Na5 O10 2.685948 1_555
Na5 O25 2.742630 1_554
Na5 O15 2.797807 1_455
Na5 O20 2.902533 1_455
Na6 O40 2.373284 1_655
Na6 O55 2.402569 1_555
Na6 O54 2.477063 1_555
Na6 O41 2.503349 1_555
Na6 O19 2.621343 1_556
Na6 O4 2.742676 1_555
Na6 O26 2.835495 1_655
Na6 O33 2.897919 1_655
Na7 O59 2.374585 1_555
Na7 O37 2.452704 1_545
Na7 O38 2.502488 1_655
Na7 O57 2.525335 1_555
Na7 O2 2.669648 1_555
Na7 O23 2.807175 1_555
Na7 O30 2.858103 1_655
Na7 O28 2.915163 1_655
Na8 O36 2.364857 1_545
Na8 O57 2.415426 1_555
Na8 O58 2.515882 1_555
Na8 O38 2.608738 1_555
Na8 O21 2.689135 1_555
Na8 O0 2.795222 1_555
Na8 O31 2.831717 1_545
Na8 O29 2.911126 1_545
Na9 O44 2.560581 1_555
Na9 O43 2.561607 1_665
Na9 O37 2.575056 1_555
Na9 O36 2.581975 1_655
Na9 O42 2.706828 1_565
Na9 O38 2.715538 1_665
Na10 O40 2.553278 1_655
Na10 O41 2.580922 1_555
Na10 O39 2.598726 1_665
Na10 O45 2.614265 1_556
Na10 O47 2.656537 1_666
Na10 O46 2.698937 1_566
Na11 O56 2.476772 1_555
Na11 O48 2.500983 1_555
Na11 O55 2.591809 1_555
Na11 O54 2.640796 1_555
Na11 O49 2.649181 1_555
Na11 O50 2.664894 1_555
Na12 O52 2.505633 1_555
Na12 O53 2.571571 1_555
Na12 O57 2.573747 1_555
Na12 O51 2.583444 1_555
Na12 O59 2.590769 1_555
Na12 O58 2.640784 1_555
Na13 O68 2.500558 1_555
Na13 O67 2.503007 1_555
Na13 O60 2.538405 1_555
Na13 O66 2.666193 1_555
Na13 O61 2.687559 1_555
Na13 O62 2.711189 1_555
Na14 O64 2.471046 1_555
Na14 O71 2.515253 1_555
Na14 O69 2.569035 1_555
Na14 O63 2.668744 1_555
Na14 O65 2.679653 1_555
Na14 O70 2.716873 1_555
O0 P0 1.543908 1_555
O0 Zr0 2.172873 1_445
O1 P1 1.554127 1_555
O1 Zr0 2.062284 1_555
O2 Si0 1.635363 1_555
O2 Zr0 2.041057 1_545
O3 P2 1.552369 1_555
O3 Sn0 2.062526 1_555
O4 P3 1.550728 1_655
O4 Sn0 2.113222 1_665
O5 Si1 1.624866 1_545
O5 Sn0 1.967314 1_655
O6 Si1 1.636617 1_555
O6 Zr1 2.029547 1_565
O7 P2 1.533408 1_555
O7 Zr1 2.096378 1_455
O8 P3 1.553789 1_555
O8 Zr1 2.129057 1_465
O9 P1 1.539559 1_555
O9 Zr2 2.108514 1_565
O10 Si0 1.635015 1_455
O10 Zr2 2.041047 1_455
O11 P0 1.560353 1_565
O11 Zr2 2.117535 1_465
O12 P4 1.543004 1_555
O12 Zr3 2.103376 1_555
O13 Si2 1.639836 1_555
O13 Zr3 2.047674 1_555
O14 Si3 1.617236 1_555
O14 Zr3 2.000205 1_555
O15 Si4 1.645215 1_555
O15 Sn1 2.048547 1_555
O16 P5 1.546475 1_555
O16 Sn1 2.099024 1_555
O17 Si5 1.622201 1_555
O17 Sn1 1.997418 1_555
O18 Si5 1.631870 1_555
O18 Sn2 1.998684 1_554
O19 Si4 1.636049 1_555
O19 Sn2 2.035785 1_554
O20 P5 1.544763 1_555
O20 Sn2 2.092170 1_554
O21 Si2 1.632489 1_555
O21 Zr4 2.058837 1_555
O22 Si3 1.636800 1_555
O22 Zr4 2.006433 1_555
O23 P4 1.550632 1_555
O23 Zr4 2.141039 1_555
O24 P6 1.543131 1_555
O24 Sn3 2.073182 1_556
O25 P7 1.553504 1_555
O25 Sn3 2.092637 1_556
O26 Si6 1.655720 1_555
O26 Sn3 2.040935 1_556
O27 Si7 1.633237 1_555
O27 Zr5 2.009409 1_555
O28 P8 1.534412 1_555
O28 Zr5 2.124297 1_555
O29 Si8 1.638460 1_555
O29 Zr5 2.061376 1_555
O30 Si8 1.645886 1_555
O30 Sn4 2.030485 1_555
O31 Si7 1.630361 1_555
O31 Sn4 2.003843 1_555
O32 P8 1.533655 1_555
O32 Sn4 2.066212 1_555
O33 P7 1.548651 1_555
O33 Sn5 2.092127 1_555
O34 Si6 1.633571 1_555
O34 Sn5 2.017571 1_555
O35 P6 1.534802 1_555
O35 Sn5 2.056522 1_555
O36 Si8 1.634802 1_555
O36 Zr0 2.104878 1_455
O37 Si7 1.638874 1_555
O37 Zr0 2.053580 1_555
O38 P8 1.555118 1_555
O38 Zr0 2.189668 1_445
O39 P7 1.544961 1_555
O39 Sn0 2.108055 1_555
O40 Si6 1.670882 1_555
O40 Sn0 2.061671 1_565
O41 P6 1.562483 1_555
O41 Sn0 2.150086 1_665
O42 P4 1.536924 1_555
O42 Zr1 2.159843 1_555
O43 Si2 1.625888 1_555
O43 Zr1 2.108052 1_455
O44 Si3 1.646407 1_555
O44 Zr1 2.094519 1_565
O45 Si4 1.637833 1_555
O45 Zr2 2.116580 1_565
O46 P5 1.542358 1_555
O46 Zr2 2.158363 1_555
O47 Si5 1.663323 1_555
O47 Zr2 2.086583 1_455
O48 Si1 1.645460 1_545
O48 Zr3 2.111641 1_555
O49 P2 1.550338 1_555
O49 Zr3 2.175251 1_555
O50 P3 1.530140 1_655
O50 Zr3 2.173077 1_555
O51 P1 1.551968 1_555
O51 Sn1 2.154662 1_555
O52 Si0 1.657286 1_555
O52 Sn1 2.061506 1_555
O53 P0 1.539561 1_555
O53 Sn1 2.134301 1_555
O54 P6 1.562789 1_555
O54 Sn2 2.136308 1_555
O55 P7 1.562353 1_655
O55 Sn2 2.202873 1_555
O56 Si6 1.638648 1_545
O56 Sn2 2.031285 1_555
O57 Si7 1.640128 1_545
O57 Zr4 2.157566 1_555
O58 P8 1.543277 1_555
O58 Zr4 2.140253 1_555
O59 Si8 1.630962 1_655
O59 Zr4 2.100710 1_555
O60 Si5 1.645265 1_555
O60 Sn3 2.051740 1_555
O61 Si4 1.667394 1_455
O61 Sn3 2.083707 1_555
O62 P5 1.552551 1_565
O62 Sn3 2.132904 1_555
O63 Si2 1.651357 1_565
O63 Zr5 2.101920 1_555
O64 Si3 1.622881 1_555
O64 Zr5 2.090721 1_555
O65 P4 1.534878 1_455
O65 Zr5 2.205537 1_555
O66 P0 1.557624 1_565
O66 Sn4 2.160407 1_555
O67 P1 1.537717 1_555
O67 Sn4 2.119606 1_555
O68 Si0 1.655120 1_455
O68 Sn4 2.064834 1_555
O69 P2 1.546540 1_555
O69 Sn5 2.098033 1_555
O70 P3 1.560603 1_555
O70 Sn5 2.146967 1_555
O71 Si1 1.660324 1_555
O71 Sn5 2.038426 1_555
