# generated using pymatgen
data_Na7Hf2Al2Si3(PO8)3
_symmetry_space_group_name_H-M   'P 1'
_cell_length_a   8.94902664
_cell_length_b   8.90201305
_cell_length_c   22.20393731
_cell_angle_alpha   89.73328142
_cell_angle_beta   90.24788519
_cell_angle_gamma   119.96060019
_symmetry_Int_Tables_number   1
_chemical_formula_structural   Na7Hf2Al2Si3(PO8)3
_chemical_formula_sum   'Na21 Hf6 Al6 Si9 P9 O72'
_cell_volume   1532.46679444
_cell_formula_units_Z   3
loop_
 _symmetry_equiv_pos_site_id
 _symmetry_equiv_pos_as_xyz
  1  'x, y, z'
loop_
 _atom_site_type_symbol
 _atom_site_label
 _atom_site_symmetry_multiplicity
 _atom_site_fract_x
 _atom_site_fract_y
 _atom_site_fract_z
 _atom_site_occupancy
  Na  Na0  1  0.63557525  0.00305966  0.25154117  1
  Na  Na1  1  0.36452736  0.36723721  0.24813303  1
  Na  Na2  1  0.99963501  0.62969377  0.24967383  1
  Na  Na3  1  0.63270237  0.63550034  0.75019007  1
  Na  Na4  1  0.99564617  0.36389495  0.74969031  1
  Na  Na5  1  0.37109851  0.00108580  0.74866997  1
  Na  Na6  1  0.03308759  0.69766544  0.58311838  1
  Na  Na7  1  0.66471909  0.97131105  0.58316245  1
  Na  Na8  1  0.66554275  0.69208270  0.08226899  1
  Na  Na9  1  0.03236915  0.33544230  0.08501987  1
  Na  Na10  1  0.96261091  0.66522486  0.91833226  1
  Na  Na11  1  0.70064249  0.03128463  0.91621132  1
  Na  Na12  1  0.33810152  0.30282583  0.91766847  1
  Na  Na13  1  0.96673763  0.30260070  0.41602628  1
  Na  Na14  1  0.33470777  0.02780758  0.41801057  1
  Na  Na15  1  0.00027315  0.99938322  0.50021489  1
  Na  Na16  1  0.00633498  0.99624849  0.99910082  1
  Na  Na17  1  0.66657357  0.33322197  0.83343040  1
  Na  Na18  1  0.67164823  0.33893872  0.33269260  1
  Na  Na19  1  0.32779563  0.66708013  0.16756120  1
  Na  Na20  1  0.33351658  0.66286442  0.66704230  1
  Hf  Hf0  1  0.99002099  0.99487913  0.35237100  1
  Hf  Hf1  1  0.00272304  0.00667949  0.64887390  1
  Hf  Hf2  1  0.00986391  0.00414967  0.14557276  1
  Hf  Hf3  1  0.66687782  0.33322906  0.47941924  1
  Hf  Hf4  1  0.33521513  0.66988730  0.02009607  1
  Hf  Hf5  1  0.33333594  0.66639615  0.52068230  1
  Al  Al0  1  0.99040908  0.99651159  0.84992320  1
  Al  Al1  1  0.66935591  0.32342145  0.68340869  1
  Al  Al2  1  0.67344502  0.33630491  0.18192838  1
  Al  Al3  1  0.66238627  0.34422980  0.98392375  1
  Al  Al4  1  0.32627284  0.66283773  0.31709457  1
  Al  Al5  1  0.34346984  0.67090216  0.81686844  1
  Si  Si0  1  0.99981466  0.30569117  0.24933967  1
  Si  Si1  1  0.70215854  -0.00021449  0.75300026  1
  Si  Si2  1  0.95566001  0.33463885  0.58656027  1
  Si  Si3  1  0.37740101  0.04799821  0.58590559  1
  Si  Si4  1  0.94853535  0.61491498  0.08292579  1
  Si  Si5  1  0.38773619  0.32963643  0.08333132  1
  Si  Si6  1  0.63090321  0.66690694  0.91388225  1
  Si  Si7  1  0.61860549  0.94933356  0.41355928  1
  Si  Si8  1  0.04461597  0.66679386  0.41368780  1
  P  P0  1  0.30101494  0.00069221  0.25063322  1
  P  P1  1  0.69886487  0.69954628  0.24878693  1
  P  P2  1  0.29300926  0.29449451  0.75442119  1
  P  P3  1  0.00067210  0.70594494  0.75342158  1
  P  P4  1  0.66466244  0.61502536  0.58803967  1
  P  P5  1  0.66402527  0.05477598  0.08298441  1
  P  P6  1  0.04175520  0.37348274  0.91344926  1
  P  P7  1  0.33262491  0.96000920  0.91310084  1
  P  P8  1  0.33612422  0.38263593  0.41298797  1
  O  O0  1  0.21803107  0.03583139  0.30608741  1
  O  O1  1  0.82335660  0.78671181  0.30286035  1
  O  O2  1  0.96254835  0.17677564  0.30727500  1
  O  O3  1  0.20525803  0.17117387  0.80853787  1
  O  O4  1  0.97137905  0.79816493  0.80727768  1
  O  O5  1  0.83561980  0.03720595  0.80903194  1
  O  O6  1  0.78477563  0.95763249  0.69351015  1
  O  O7  1  0.17589326  0.21106503  0.69809145  1
  O  O8  1  0.03827823  0.82069420  0.69597909  1
  O  O9  1  0.78298322  0.81886637  0.19329114  1
  O  O10  1  0.03686512  0.21248105  0.19197155  1
  O  O11  1  0.17569358  0.96366180  0.19672746  1
  O  O12  1  0.86624380  0.36946603  0.64424448  1
  O  O13  1  0.50043839  0.13765774  0.64396740  1
  O  O14  1  0.64222107  0.50525455  0.64413451  1
  O  O15  1  0.86589703  0.49801212  0.14315448  1
  O  O16  1  0.63976647  0.13436878  0.14065466  1
  O  O17  1  0.50494725  0.36389167  0.14355311  1
  O  O18  1  0.46917040  0.30289726  0.02232640  1
  O  O19  1  0.83327046  0.52933118  0.02270037  1
  O  O20  1  0.69613835  0.16564970  0.02587539  1
  O  O21  1  0.45631482  0.15653312  0.52365857  1
  O  O22  1  0.69865733  0.53939667  0.53074204  1
  O  O23  1  0.83957712  0.29933355  0.52529844  1
  O  O24  1  0.54748581  0.70840291  0.97359186  1
  O  O25  1  0.15574059  0.45500841  0.97093152  1
  O  O26  1  0.29440779  0.84095727  0.96912871  1
  O  O27  1  0.54169597  0.84238167  0.47604570  1
  O  O28  1  0.29994011  0.45822431  0.46955413  1
  O  O29  1  0.15999684  0.69994627  0.47502484  1
  O  O30  1  0.13455952  0.63282673  0.35613998  1
  O  O31  1  0.49573525  0.85788086  0.35555189  1
  O  O32  1  0.35983859  0.49251928  0.35680880  1
  O  O33  1  0.12994934  0.49669769  0.85925042  1
  O  O34  1  0.36277864  0.87051861  0.85846340  1
  O  O35  1  0.49810435  0.63005124  0.85776063  1
  O  O36  1  0.03577297  0.84535388  0.41003242  1
  O  O37  1  0.81759053  0.98585283  0.41133050  1
  O  O38  1  0.17329071  0.19776746  0.40816828  1
  O  O39  1  0.02886391  0.19246759  0.90744168  1
  O  O40  1  0.17089433  0.98162714  0.90588194  1
  O  O41  1  0.82451315  0.84102910  0.90634748  1
  O  O42  1  0.96654589  0.15669915  0.58978765  1
  O  O43  1  0.17843995  0.00878874  0.58996458  1
  O  O44  1  0.82897961  0.79961968  0.59182891  1
  O  O45  1  0.96158068  0.80566467  0.08837052  1
  O  O46  1  0.82616471  0.02980044  0.08882805  1
  O  O47  1  0.18627827  0.16805819  0.08700115  1
  O  O48  1  0.68704543  0.17651944  0.74440494  1
  O  O49  1  0.47387721  0.31514466  0.74553826  1
  O  O50  1  0.83403681  0.52744078  0.74583611  1
  O  O51  1  0.68311673  0.51941804  0.24327581  1
  O  O52  1  0.82191865  0.31503144  0.24165293  1
  O  O53  1  0.47886625  0.16520928  0.24188176  1
  O  O54  1  0.64707857  0.49075223  0.92203044  1
  O  O55  1  0.85959674  0.35109500  0.92146840  1
  O  O56  1  0.49923954  0.13841645  0.92137684  1
  O  O57  1  0.63680222  0.14337248  0.41786345  1
  O  O58  1  0.49288305  0.35643001  0.41852415  1
  O  O59  1  0.85508823  0.49450221  0.41909216  1
  O  O60  1  0.36356947  0.50417390  0.07820938  1
  O  O61  1  0.14120760  0.63505299  0.07763552  1
  O  O62  1  0.50705405  0.86684078  0.07836159  1
  O  O63  1  0.36294997  0.85543974  0.58166869  1
  O  O64  1  0.50844172  0.64306713  0.58187961  1
  O  O65  1  0.14534226  0.50608607  0.58123157  1
  O  O66  1  0.31637285  0.83607935  0.25646237  1
  O  O67  1  0.52180811  0.68693013  0.25744660  1
  O  O68  1  0.17771206  0.49320468  0.25749885  1
  O  O69  1  0.30540462  0.47503654  0.75988531  1
  O  O70  1  0.16244866  0.68455411  0.76082403  1
  O  O71  1  0.50889511  0.82577958  0.76049343  1
loop_
_geom_bond_atom_site_label_1
_geom_bond_atom_site_label_2
_geom_bond_distance
_geom_bond_site_symmetry_2
Na0 O52 2.431787 1_555
Na0 O67 2.471717 1_545
Na0 O53 2.472383 1_555
Na0 O66 2.478202 1_545
Na0 O31 2.636608 1_545
Na0 O16 2.712933 1_555
Na0 O2 2.819887 1_555
Na0 O9 2.880371 1_545
Na1 O68 2.444040 1_555
Na1 O51 2.473656 1_555
Na1 O67 2.474902 1_555
Na1 O53 2.478360 1_555
Na1 O17 2.652422 1_555
Na1 O32 2.672257 1_555
Na1 O10 2.828538 1_555
Na1 O0 2.862577 1_555
Na2 O52 2.441309 1_555
Na2 O68 2.444527 1_655
Na2 O51 2.495516 1_555
Na2 O66 2.495992 1_655
Na2 O30 2.643732 1_655
Na2 O15 2.645842 1_555
Na2 O11 2.829853 1_655
Na2 O1 2.840929 1_555
Na3 O50 2.431970 1_555
Na3 O71 2.455481 1_555
Na3 O49 2.473178 1_555
Na3 O69 2.547446 1_555
Na3 O14 2.650039 1_555
Na3 O35 2.669001 1_555
Na3 O6 2.782535 1_555
Na3 O4 2.913723 1_555
Na4 O48 2.412653 1_555
Na4 O69 2.443691 1_655
Na4 O70 2.486972 1_655
Na4 O50 2.513840 1_555
Na4 O12 2.618787 1_555
Na4 O33 2.709668 1_655
Na4 O7 2.826281 1_655
Na4 O5 2.839963 1_555
Na5 O71 2.437311 1_545
Na5 O48 2.456174 1_555
Na5 O49 2.469295 1_555
Na5 O70 2.498261 1_545
Na5 O13 2.610362 1_555
Na5 O34 2.681111 1_545
Na5 O8 2.833486 1_545
Na5 O3 2.922751 1_555
Na6 O65 2.373115 1_555
Na6 O43 2.406197 1_565
Na6 O44 2.420330 1_455
Na6 O63 2.558706 1_555
Na6 O29 2.655344 1_555
Na6 O8 2.730413 1_555
Na6 O22 2.840431 1_455
Na6 O12 2.868958 1_455
Na7 O63 2.361201 1_555
Na7 O42 2.363775 1_565
Na7 O64 2.532532 1_555
Na7 O44 2.602439 1_555
Na7 O27 2.631897 1_555
Na7 O6 2.697685 1_555
Na7 O23 2.836316 1_565
Na7 O13 2.896066 1_565
Na8 O45 2.319894 1_555
Na8 O60 2.365018 1_555
Na8 O62 2.576991 1_555
Na8 O46 2.609911 1_565
Na8 O24 2.662355 1_554
Na8 O9 2.697027 1_555
Na8 O17 2.870321 1_555
Na8 O19 2.882463 1_555
Na9 O61 2.343459 1_555
Na9 O46 2.408248 1_455
Na9 O47 2.483543 1_555
Na9 O60 2.572733 1_555
Na9 O10 2.618810 1_555
Na9 O25 2.755787 1_554
Na9 O15 2.857872 1_455
Na9 O20 2.916271 1_455
Na10 O41 2.443861 1_555
Na10 O54 2.452090 1_555
Na10 O55 2.469490 1_555
Na10 O40 2.497495 1_655
Na10 O19 2.602306 1_556
Na10 O4 2.714561 1_555
Na10 O26 2.807816 1_655
Na10 O33 2.914355 1_655
Na11 O56 2.427103 1_555
Na11 O41 2.454799 1_545
Na11 O55 2.469611 1_555
Na11 O39 2.552853 1_655
Na11 O5 2.661845 1_555
Na11 O20 2.727187 1_556
Na11 O24 2.794564 1_545
Na11 O34 2.914741 1_545
Na12 O54 2.415060 1_555
Na12 O39 2.440541 1_555
Na12 O40 2.492664 1_545
Na12 O56 2.516769 1_555
Na12 O18 2.598384 1_556
Na12 O3 2.695973 1_555
Na12 O35 2.849458 1_555
Na12 O25 2.852554 1_555
Na13 O59 2.372291 1_555
Na13 O37 2.446535 1_545
Na13 O38 2.458738 1_655
Na13 O57 2.559102 1_555
Na13 O2 2.658813 1_555
Na13 O23 2.678204 1_555
Na13 O28 2.842859 1_655
Na13 O30 2.869944 1_655
Na14 O36 2.341945 1_545
Na14 O57 2.364141 1_555
Na14 O58 2.534944 1_555
Na14 O38 2.569177 1_555
Na14 O21 2.599537 1_555
Na14 O0 2.705849 1_555
Na14 O29 2.826731 1_545
Na14 O31 2.915852 1_545
Na15 O37 2.521871 1_455
Na15 O43 2.522131 1_565
Na15 O36 2.541027 1_555
Na15 O42 2.541890 1_465
Na15 O44 2.630717 1_455
Na15 O38 2.637408 1_565
Na16 O45 2.502906 1_456
Na16 O47 2.506439 1_566
Na16 O41 2.559333 1_455
Na16 O40 2.586531 1_555
Na16 O39 2.617726 1_565
Na16 O46 2.678146 1_466
Na17 O54 2.477933 1_555
Na17 O48 2.484143 1_555
Na17 O50 2.534535 1_555
Na17 O56 2.542246 1_555
Na17 O49 2.550449 1_555
Na17 O55 2.555288 1_555
Na18 O59 2.453523 1_555
Na18 O57 2.477229 1_555
Na18 O52 2.500662 1_555
Na18 O51 2.518133 1_555
Na18 O58 2.548241 1_555
Na18 O53 2.601508 1_555
Na19 O68 2.470956 1_555
Na19 O66 2.520569 1_555
Na19 O61 2.521356 1_555
Na19 O60 2.576364 1_555
Na19 O67 2.587628 1_555
Na19 O62 2.608409 1_555
Na20 O65 2.462411 1_555
Na20 O63 2.474813 1_555
Na20 O64 2.522205 1_555
Na20 O71 2.568748 1_555
Na20 O69 2.580888 1_555
Na20 O70 2.653967 1_555
Hf0 O37 1.998513 1_555
Hf0 O2 2.016287 1_565
Hf0 O36 2.025471 1_655
Hf0 O1 2.027623 1_555
Hf0 O38 2.128720 1_665
Hf0 O0 2.150397 1_665
Hf1 O42 2.005337 1_455
Hf1 O7 2.023323 1_555
Hf1 O6 2.034495 1_445
Hf1 O43 2.042568 1_555
Hf1 O8 2.107965 1_545
Hf1 O44 2.135784 1_445
Hf2 O47 2.003014 1_555
Hf2 O10 2.031561 1_555
Hf2 O11 2.034248 1_545
Hf2 O45 2.043398 1_445
Hf2 O9 2.150105 1_445
Hf2 O46 2.167133 1_455
Hf3 O23 1.991640 1_555
Hf3 O21 2.007728 1_555
Hf3 O22 2.059899 1_555
Hf3 O59 2.068491 1_555
Hf3 O57 2.088293 1_555
Hf3 O58 2.143773 1_555
Hf4 O24 2.038492 1_554
Hf4 O61 2.054387 1_555
Hf4 O60 2.063700 1_555
Hf4 O26 2.066161 1_554
Hf4 O25 2.089494 1_554
Hf4 O62 2.103201 1_555
Hf5 O29 1.992367 1_555
Hf5 O27 1.999318 1_555
Hf5 O28 2.067786 1_555
Hf5 O65 2.068357 1_555
Hf5 O63 2.075723 1_555
Hf5 O64 2.156175 1_555
Al0 O5 1.833490 1_565
Al0 O41 1.907083 1_555
Al0 O4 1.938322 1_555
Al0 O3 1.993677 1_665
Al0 O39 2.051778 1_665
Al0 O40 2.089258 1_655
Al1 O13 1.814355 1_555
Al1 O12 1.821343 1_555
Al1 O48 1.938533 1_555
Al1 O14 1.953759 1_555
Al1 O50 2.173513 1_555
Al1 O49 2.204520 1_555
Al2 O15 1.817860 1_555
Al2 O17 1.848482 1_555
Al2 O16 1.906306 1_555
Al2 O52 1.947723 1_555
Al2 O51 2.097340 1_555
Al2 O53 2.115703 1_555
Al3 O18 1.796278 1_556
Al3 O19 1.811086 1_556
Al3 O54 1.941356 1_555
Al3 O20 1.987337 1_556
Al3 O56 2.179796 1_555
Al3 O55 2.225792 1_555
Al4 O30 1.821909 1_555
Al4 O31 1.848319 1_555
Al4 O32 1.899148 1_555
Al4 O68 1.948593 1_555
Al4 O66 2.077206 1_555
Al4 O67 2.122410 1_555
Al5 O35 1.833118 1_555
Al5 O71 1.902803 1_555
Al5 O34 1.935908 1_555
Al5 O33 1.995973 1_555
Al5 O69 2.044651 1_555
Al5 O70 2.089351 1_555
O0 P0 1.552084 1_555
O1 P1 1.555144 1_555
O2 Si0 1.640344 1_555
O3 P2 1.549360 1_555
O4 P3 1.549015 1_655
O5 Si1 1.636733 1_555
O6 Si1 1.649977 1_565
O7 P2 1.560206 1_555
O8 P3 1.559394 1_555
O9 P1 1.552578 1_555
O10 Si0 1.645990 1_455
O11 P0 1.556231 1_565
O12 Si2 1.623966 1_555
O13 Si3 1.622022 1_555
O14 P4 1.530154 1_555
O15 Si4 1.626413 1_555
O16 P5 1.534059 1_555
O17 Si5 1.628930 1_555
O18 Si5 1.614731 1_555
O19 Si4 1.626432 1_555
O20 P5 1.540418 1_555
O21 Si3 1.630034 1_555
O22 P4 1.542817 1_555
O23 Si2 1.641305 1_555
O24 Si6 1.655292 1_555
O25 P6 1.566584 1_555
O26 P7 1.554722 1_555
O27 Si7 1.626849 1_555
O28 P8 1.537585 1_555
O29 Si8 1.641735 1_555
O30 Si8 1.621000 1_555
O31 Si7 1.623009 1_555
O32 P8 1.530186 1_555
O33 P6 1.550974 1_555
O34 P7 1.551058 1_555
O35 Si6 1.635345 1_555
O36 Si8 1.632141 1_555
O37 Si7 1.643626 1_555
O38 P8 1.564689 1_555
O39 P6 1.563298 1_555
O40 P7 1.559935 1_555
O41 Si6 1.658387 1_555
O42 Si2 1.636081 1_555
O43 Si3 1.637231 1_555
O44 P4 1.567293 1_555
O45 Si4 1.647856 1_555
O46 P5 1.578594 1_555
O47 Si5 1.654064 1_555
O48 Si1 1.655132 1_555
O49 P2 1.548474 1_555
O50 P3 1.552644 1_655
O51 P1 1.543381 1_555
O52 Si0 1.643236 1_555
O53 P0 1.545203 1_555
O54 Si6 1.654260 1_555
O55 P6 1.551280 1_655
O56 P7 1.553839 1_545
O57 Si7 1.655233 1_545
O58 P8 1.537076 1_555
O59 Si8 1.626427 1_655
O60 Si5 1.675579 1_555
O61 Si4 1.646732 1_455
O62 P5 1.560700 1_565
O63 Si3 1.656470 1_565
O64 P4 1.543402 1_555
O65 Si2 1.623943 1_455
O66 P0 1.543450 1_565
O67 P1 1.544304 1_555
O68 Si0 1.643085 1_455
O69 P2 1.560035 1_555
O70 P3 1.559563 1_555
O71 Si1 1.656074 1_565
