# generated using pymatgen
data_Na18Ca8Ta16Si21(S5O48)3
_symmetry_space_group_name_H-M   'P 1'
_cell_length_a   18.10131714
_cell_length_b   9.10298516
_cell_length_c   22.93784872
_cell_angle_alpha   89.81895812
_cell_angle_beta   90.83851168
_cell_angle_gamma   120.29048442
_symmetry_Int_Tables_number   1
_chemical_formula_structural   Na18Ca8Ta16Si21(S5O48)3
_chemical_formula_sum   'Na18 Ca8 Ta16 Si21 S15 O144'
_cell_volume   3263.22440824
_cell_formula_units_Z   1
loop_
 _symmetry_equiv_pos_site_id
 _symmetry_equiv_pos_as_xyz
  1  'x, y, z'
loop_
 _atom_site_type_symbol
 _atom_site_label
 _atom_site_symmetry_multiplicity
 _atom_site_fract_x
 _atom_site_fract_y
 _atom_site_fract_z
 _atom_site_occupancy
  Na  Na0  1  0.32378648  0.01588710  0.23771862  1
  Na  Na1  1  0.81995981  0.00973498  0.23891163  1
  Na  Na2  1  0.99646104  0.64080062  0.23904819  1
  Na  Na3  1  0.33264511  0.63302802  0.74378096  1
  Na  Na4  1  0.82034474  0.62569279  0.73975303  1
  Na  Na5  1  0.49436805  0.35018945  0.73782852  1
  Na  Na6  1  0.98516927  0.97437752  0.49301071  1
  Na  Na7  1  0.48577434  0.98143858  0.49591180  1
  Na  Na8  1  0.98638312  0.99244079  0.99075591  1
  Na  Na9  1  0.48769651  0.99669585  0.99123304  1
  Na  Na10  1  0.32705457  0.34372307  0.82272552  1
  Na  Na11  1  0.81758832  0.31445779  0.82738369  1
  Na  Na12  1  0.32161096  0.32307381  0.33022263  1
  Na  Na13  1  0.80612464  0.29925199  0.33343094  1
  Na  Na14  1  0.16808569  0.67771277  0.15960854  1
  Na  Na15  1  0.65180944  0.66723974  0.16196148  1
  Na  Na16  1  0.15727130  0.64053854  0.66467026  1
  Na  Na17  1  0.66001463  0.65715967  0.66458470  1
  Ca  Ca0  1  0.00024395  0.99940912  0.36141141  1
  Ca  Ca1  1  0.50106086  0.99681966  0.36150220  1
  Ca  Ca2  1  0.00042764  0.00339331  0.86068074  1
  Ca  Ca3  1  0.49867780  0.99479305  0.85934382  1
  Ca  Ca4  1  0.33479339  0.34310149  0.67772929  1
  Ca  Ca5  1  0.83468911  0.33677233  0.67925489  1
  Ca  Ca6  1  0.33488485  0.33275877  0.17915416  1
  Ca  Ca7  1  0.82986863  0.32401690  0.17679707  1
  Ta  Ta0  1  0.00176624  0.01183718  0.64344389  1
  Ta  Ta1  1  0.50363163  0.99687794  0.64624333  1
  Ta  Ta2  1  0.00260070  0.99290884  0.14153600  1
  Ta  Ta3  1  0.50215308  0.99151708  0.14270972  1
  Ta  Ta4  1  0.34537148  0.34448940  0.97869500  1
  Ta  Ta5  1  0.84382269  0.34342278  0.97990778  1
  Ta  Ta6  1  0.34510605  0.34344483  0.48243955  1
  Ta  Ta7  1  0.84375908  0.34237697  0.48054734  1
  Ta  Ta8  1  0.16860021  0.66758749  0.01946974  1
  Ta  Ta9  1  0.66939422  0.66841872  0.01877048  1
  Ta  Ta10  1  0.16916466  0.67318429  0.52031169  1
  Ta  Ta11  1  0.66900530  0.67065894  0.52082903  1
  Ta  Ta12  1  0.16431949  0.68196655  0.31607184  1
  Ta  Ta13  1  0.65879079  0.67930097  0.31550611  1
  Ta  Ta14  1  0.16201523  0.64176465  0.81415069  1
  Ta  Ta15  1  0.66056984  0.64532712  0.81253895  1
  Si  Si0  1  0.14838554  0.00650776  0.25322076  1
  Si  Si1  1  0.64741615  0.00622172  0.25341662  1
  Si  Si2  1  0.14655547  0.28801600  0.75336407  1
  Si  Si3  1  0.64815036  0.28712019  0.75340489  1
  Si  Si4  1  0.50314849  0.71004434  0.75307056  1
  Si  Si5  1  0.48796642  0.32972535  0.58651483  1
  Si  Si6  1  0.98588546  0.33969474  0.58457968  1
  Si  Si7  1  0.33593328  0.63449205  0.58492965  1
  Si  Si8  1  0.83565517  0.63081432  0.58563964  1
  Si  Si9  1  0.48579911  0.62998541  0.08406808  1
  Si  Si10  1  0.98587797  0.63007754  0.08650424  1
  Si  Si11  1  0.33430255  0.03909029  0.08586171  1
  Si  Si12  1  0.83439063  0.03631496  0.08538305  1
  Si  Si13  1  0.30831169  0.64921670  0.91993742  1
  Si  Si14  1  0.80847779  0.65072635  0.91821804  1
  Si  Si15  1  0.02031520  0.37803749  0.91956757  1
  Si  Si16  1  0.52138514  0.37699179  0.91831419  1
  Si  Si17  1  0.30961748  0.97302568  0.42026863  1
  Si  Si18  1  0.80758532  0.96833297  0.41928312  1
  Si  Si19  1  0.01906337  0.66076182  0.41909886  1
  Si  Si20  1  0.51901763  0.66310458  0.42102931  1
  S  S0  1  0.35122853  0.71357752  0.24853017  1
  S  S1  1  0.85164878  0.71449728  0.24746787  1
  S  S2  1  0.00766835  0.29815351  0.24953014  1
  S  S3  1  0.50826357  0.29720076  0.25035465  1
  S  S4  1  0.00811164  0.71909818  0.75037351  1
  S  S5  1  0.34936010  0.98546647  0.74805388  1
  S  S6  1  0.85305521  0.98974597  0.74742326  1
  S  S7  1  0.18120190  0.03303024  0.58161121  1
  S  S8  1  0.68279747  0.03399672  0.58071596  1
  S  S9  1  0.18150064  0.33159069  0.08232517  1
  S  S10  1  0.68023637  0.33070139  0.08148171  1
  S  S11  1  0.17507005  0.95642622  0.91816983  1
  S  S12  1  0.67598137  0.95844980  0.91908474  1
  S  S13  1  0.17536392  0.39695638  0.41817751  1
  S  S14  1  0.67444856  0.39567524  0.41818019  1
  O  O0  1  0.09562095  0.99838138  0.30775330  1
  O  O1  1  0.60271945  0.01373084  0.31021793  1
  O  O2  1  0.39859842  0.79308380  0.30177488  1
  O  O3  1  0.90055648  0.79458498  0.30030984  1
  O  O4  1  0.49448448  0.19512402  0.30217824  1
  O  O5  1  0.99301016  0.19563635  0.30143778  1
  O  O6  1  0.10022802  0.19051745  0.80979373  1
  O  O7  1  0.59957540  0.19632990  0.81019274  1
  O  O8  1  0.47254504  0.78153254  0.80421956  1
  O  O9  1  0.99441076  0.79329997  0.80219447  1
  O  O10  1  0.39834417  0.01508104  0.80193922  1
  O  O11  1  0.90081455  0.00632689  0.80082483  1
  O  O12  1  0.39469559  0.96104754  0.69632193  1
  O  O13  1  0.90050161  0.97271928  0.69438103  1
  O  O14  1  0.08520806  0.18523081  0.69291350  1
  O  O15  1  0.58632484  0.19002940  0.69311679  1
  O  O16  1  0.01548226  0.82180963  0.69673027  1
  O  O17  1  0.51238916  0.83122786  0.69282734  1
  O  O18  1  0.39700857  0.82638304  0.19555145  1
  O  O19  1  0.89824644  0.82730919  0.19452713  1
  O  O20  1  0.01391251  0.21049689  0.19612368  1
  O  O21  1  0.51608236  0.21093229  0.19687288  1
  O  O22  1  0.08602774  0.98223861  0.19259707  1
  O  O23  1  0.58671613  0.98762486  0.19309857  1
  O  O24  1  0.45850872  0.37067912  0.64564774  1
  O  O25  1  0.95457800  0.38253158  0.64187321  1
  O  O26  1  0.22979898  0.09106645  0.63550079  1
  O  O27  1  0.73123746  0.09272490  0.63502360  1
  O  O28  1  0.31013540  0.54217297  0.64598955  1
  O  O29  1  0.81129256  0.53884322  0.64685120  1
  O  O30  1  0.45466999  0.52750425  0.14234609  1
  O  O31  1  0.95657297  0.54127193  0.14795867  1
  O  O32  1  0.30960666  0.08171669  0.14708916  1
  O  O33  1  0.81267349  0.08181844  0.14714660  1
  O  O34  1  0.22931202  0.36740928  0.13657749  1
  O  O35  1  0.72855222  0.36936688  0.13593900  1
  O  O36  1  0.22109651  0.30155717  0.03176522  1
  O  O37  1  0.72153507  0.30103530  0.03165664  1
  O  O38  1  0.41832124  0.53144385  0.02736119  1
  O  O39  1  0.91610469  0.52354416  0.03221070  1
  O  O40  1  0.34484534  0.17531999  0.03266481  1
  O  O41  1  0.84442398  0.17260523  0.03260738  1
  O  O42  1  0.22298475  0.14356127  0.53083442  1
  O  O43  1  0.72654404  0.14384457  0.53010069  1
  O  O44  1  0.34446129  0.51515375  0.53159577  1
  O  O45  1  0.84550096  0.51422411  0.53191710  1
  O  O46  1  0.41735269  0.30504271  0.53102085  1
  O  O47  1  0.91827866  0.30360918  0.52718257  1
  O  O48  1  0.24858409  0.65167215  0.97267743  1
  O  O49  1  0.75180999  0.65879515  0.97202761  1
  O  O50  1  0.07524493  0.50251576  0.97349738  1
  O  O51  1  0.57770555  0.50627408  0.97093635  1
  O  O52  1  0.17278305  0.85848713  0.97163908  1
  O  O53  1  0.67448254  0.86299169  0.97262748  1
  O  O54  1  0.25129710  0.84747260  0.47195468  1
  O  O55  1  0.75112748  0.84518548  0.47202924  1
  O  O56  1  0.17279981  0.48858078  0.47041099  1
  O  O57  1  0.67299268  0.48794658  0.47088689  1
  O  O58  1  0.07722323  0.64954466  0.47085243  1
  O  O59  1  0.57739546  0.65087859  0.47241752  1
  O  O60  1  0.06605338  0.63949974  0.35699287  1
  O  O61  1  0.56506446  0.64094422  0.35896074  1
  O  O62  1  0.25007827  0.86596862  0.35829704  1
  O  O63  1  0.74890771  0.86181673  0.35769850  1
  O  O64  1  0.18188486  0.49955470  0.36378136  1
  O  O65  1  0.68160176  0.49762985  0.36410874  1
  O  O66  1  0.06735591  0.49474759  0.85935123  1
  O  O67  1  0.56636931  0.48968002  0.85693645  1
  O  O68  1  0.18258239  0.87024329  0.86493574  1
  O  O69  1  0.68413231  0.87362165  0.86621053  1
  O  O70  1  0.24977807  0.63703606  0.85874501  1
  O  O71  1  0.75242507  0.64191697  0.85753434  1
  O  O72  1  0.01076745  0.82394014  0.42362009  1
  O  O73  1  0.51057126  0.82572135  0.42587058  1
  O  O74  1  0.40231475  0.99947331  0.41927040  1
  O  O75  1  0.90089174  0.99633402  0.41884718  1
  O  O76  1  0.09795585  0.23113536  0.41685208  1
  O  O77  1  0.59808287  0.23023801  0.41770911  1
  O  O78  1  0.01125405  0.19798575  0.92465884  1
  O  O79  1  0.51205892  0.19724349  0.92452911  1
  O  O80  1  0.09851271  0.96831944  0.91850265  1
  O  O81  1  0.59997037  0.97291008  0.91953744  1
  O  O82  1  0.39979522  0.81111270  0.92315761  1
  O  O83  1  0.90270755  0.80698447  0.92047898  1
  O  O84  1  0.49182993  0.15339981  0.58956692  1
  O  O85  1  0.98974216  0.15903271  0.59047213  1
  O  O86  1  0.09422823  0.01620112  0.58700692  1
  O  O87  1  0.59695397  0.02015167  0.58490043  1
  O  O88  1  0.42528365  0.82023147  0.58917461  1
  O  O89  1  0.92543529  0.81856467  0.59191293  1
  O  O90  1  0.49010675  0.82004801  0.09113708  1
  O  O91  1  0.99038214  0.82049045  0.09028995  1
  O  O92  1  0.42413710  0.03070219  0.09414209  1
  O  O93  1  0.92497409  0.02967069  0.09261455  1
  O  O94  1  0.09342590  0.17358578  0.08869157  1
  O  O95  1  0.59296547  0.17262082  0.08781423  1
  O  O96  1  0.33461753  0.12664988  0.73749795  1
  O  O97  1  0.83822344  0.13112158  0.73998327  1
  O  O98  1  0.24403393  0.33897260  0.74717677  1
  O  O99  1  0.74589378  0.33405844  0.74919617  1
  O  O100  1  0.43192892  0.51185156  0.74477995  1
  O  O101  1  0.93621054  0.54361686  0.74416303  1
  O  O102  1  0.33567058  0.54212273  0.24115491  1
  O  O103  1  0.84271090  0.54640933  0.24008682  1
  O  O104  1  0.43642753  0.32903917  0.24409512  1
  O  O105  1  0.93663377  0.33405832  0.24374393  1
  O  O106  1  0.24637869  0.15313671  0.25043979  1
  O  O107  1  0.74611097  0.15308066  0.24840943  1
  O  O108  1  0.30616152  0.46541092  0.92796675  1
  O  O109  1  0.80676520  0.46672917  0.92904591  1
  O  O110  1  0.42578762  0.36631501  0.92327901  1
  O  O111  1  0.92531190  0.36845069  0.92427108  1
  O  O112  1  0.25401032  0.12736491  0.92279441  1
  O  O113  1  0.75546591  0.13057887  0.92338056  1
  O  O114  1  0.30568055  0.14954907  0.42732092  1
  O  O115  1  0.80460761  0.14708054  0.42587206  1
  O  O116  1  0.25391717  0.38421822  0.42071031  1
  O  O117  1  0.75383349  0.38332642  0.42120172  1
  O  O118  1  0.42455992  0.48267812  0.42462883  1
  O  O119  1  0.92388775  0.48177267  0.42282288  1
  O  O120  1  0.16310066  0.47426901  0.07328108  1
  O  O121  1  0.66216695  0.47281596  0.07146737  1
  O  O122  1  0.08262399  0.67106058  0.07262414  1
  O  O123  1  0.58354686  0.67602569  0.07005532  1
  O  O124  1  0.25895769  0.84348518  0.06812313  1
  O  O125  1  0.75948180  0.84196912  0.06831599  1
  O  O126  1  0.16282666  0.85309004  0.57157448  1
  O  O127  1  0.66526977  0.85437489  0.57164922  1
  O  O128  1  0.25927051  0.67400302  0.56543877  1
  O  O129  1  0.76004528  0.67274774  0.56654384  1
  O  O130  1  0.08336571  0.49046476  0.56958918  1
  O  O131  1  0.58339766  0.49101999  0.57042765  1
  O  O132  1  0.14896834  0.81156356  0.25499301  1
  O  O133  1  0.65077575  0.81585327  0.25564505  1
  O  O134  1  0.26575116  0.71078363  0.24956188  1
  O  O135  1  0.76623533  0.70450686  0.24829713  1
  O  O136  1  0.09089539  0.46879130  0.25446804  1
  O  O137  1  0.59203619  0.46793468  0.25574351  1
  O  O138  1  0.14824196  0.48345674  0.75637161  1
  O  O139  1  0.65081373  0.48480753  0.75425298  1
  O  O140  1  0.09195445  0.71762329  0.75560763  1
  O  O141  1  0.59891985  0.71995036  0.76144691  1
  O  O142  1  0.26428401  0.81892464  0.75152697  1
  O  O143  1  0.76968139  0.82199869  0.74720819  1
loop_
_geom_bond_atom_site_label_1
_geom_bond_atom_site_label_2
_geom_bond_distance
_geom_bond_site_symmetry_2
Na0 O32 2.208674 1_555
Na0 O106 2.321561 1_555
Na0 O134 2.439553 1_545
Na0 O104 2.536811 1_555
Na0 O132 2.779357 1_545
Na0 O18 2.832417 1_545
Na1 O33 2.224631 1_555
Na1 O107 2.303694 1_555
Na1 O135 2.447179 1_545
Na1 O105 2.625675 1_555
Na1 O133 2.686751 1_545
Na1 O19 2.868640 1_545
Na2 O31 2.239568 1_555
Na2 O132 2.411665 1_655
Na2 O105 2.435624 1_555
Na2 O103 2.464529 1_555
Na2 O136 2.859660 1_655
Na3 O98 2.327051 1_555
Na3 O28 2.350888 1_555
Na3 O100 2.538801 1_555
Na3 O142 2.558724 1_555
Na3 O8 2.572549 1_555
Na4 O29 2.250034 1_555
Na4 O99 2.303609 1_555
Na4 O143 2.392321 1_555
Na4 O101 2.557587 1_555
Na4 O139 2.688789 1_555
Na5 O24 2.237498 1_555
Na5 O100 2.270038 1_555
Na5 O139 2.476715 1_555
Na5 O96 2.562479 1_555
Na6 O72 2.301939 1_655
Na6 O75 2.343202 1_555
Na6 O89 2.613778 1_555
Na6 O85 2.776329 1_565
Na6 O86 2.795200 1_665
Na6 O76 2.819149 1_665
Na7 O73 2.338639 1_555
Na7 O74 2.360172 1_555
Na7 O88 2.521228 1_555
Na7 O84 2.630324 1_565
Na7 O87 2.740392 1_565
Na7 O77 2.813610 1_565
Na8 O83 2.260312 1_555
Na8 O78 2.270361 1_665
Na8 O93 2.696361 1_566
Na8 O80 2.732208 1_655
Na8 O91 2.784725 1_556
Na8 O94 2.862312 1_666
Na9 O82 2.248626 1_555
Na9 O79 2.249051 1_565
Na9 O81 2.725002 1_555
Na9 O92 2.726700 1_566
Na9 O90 2.807767 1_556
Na9 O95 2.814954 1_566
Na10 O98 2.263174 1_555
Na10 O100 2.508766 1_555
Na10 O108 2.768345 1_555
Na10 O96 2.837302 1_555
Na10 O110 2.840388 1_555
Na10 O112 2.886037 1_555
Na11 O99 2.257420 1_555
Na11 O113 2.658069 1_555
Na11 O97 2.759675 1_555
Na11 O109 2.775838 1_555
Na11 O111 2.810003 1_555
Na11 O101 2.860480 1_555
Na12 O106 2.327325 1_555
Na12 O116 2.624710 1_555
Na12 O114 2.660052 1_555
Na12 O118 2.728257 1_555
Na12 O102 2.773499 1_555
Na12 O104 2.868967 1_555
Na13 O107 2.291324 1_555
Na13 O117 2.516189 1_555
Na13 O115 2.521992 1_555
Na13 O119 2.798165 1_555
Na13 O103 2.931359 1_555
Na13 O105 3.049017 1_555
Na14 O122 2.488709 1_555
Na14 O134 2.614125 1_555
Na14 O132 2.618333 1_555
Na14 O124 2.638849 1_555
Na14 O120 2.684822 1_555
Na14 O136 2.772334 1_555
Na15 O123 2.449450 1_555
Na15 O133 2.548204 1_555
Na15 O137 2.674506 1_555
Na15 O135 2.739046 1_555
Na15 O121 2.800983 1_555
Na15 O125 2.813589 1_555
Na16 O138 2.500217 1_555
Na16 O130 2.549972 1_555
Na16 O142 2.663233 1_555
Na16 O140 2.675747 1_555
Na16 O126 2.845641 1_555
Na16 O128 2.869466 1_555
Na17 O139 2.538839 1_555
Na17 O143 2.585939 1_555
Na17 O131 2.586958 1_555
Na17 O141 2.683980 1_555
Na17 O127 2.754225 1_555
Na17 O129 2.866009 1_555
Ca0 O0 2.138726 1_555
Ca0 O72 2.215477 1_555
Ca0 O75 2.233620 1_455
Ca0 O3 2.290277 1_455
Ca0 O5 2.305526 1_465
Ca0 O76 2.320042 1_565
Ca1 O1 2.137784 1_565
Ca1 O73 2.209962 1_555
Ca1 O74 2.250426 1_555
Ca1 O2 2.286529 1_555
Ca1 O4 2.306722 1_565
Ca1 O77 2.334098 1_565
Ca2 O6 2.114818 1_555
Ca2 O78 2.233295 1_555
Ca2 O83 2.252135 1_445
Ca2 O11 2.261173 1_455
Ca2 O9 2.295866 1_445
Ca2 O80 2.348098 1_545
Ca3 O7 2.153976 1_565
Ca3 O8 2.159368 1_555
Ca3 O82 2.276889 1_555
Ca3 O79 2.290662 1_565
Ca3 O10 2.309374 1_565
Ca3 O81 2.366534 1_555
Ca4 O28 2.193448 1_555
Ca4 O100 2.242283 1_555
Ca4 O24 2.258198 1_555
Ca4 O98 2.291707 1_555
Ca4 O26 2.318523 1_555
Ca4 O96 2.395534 1_555
Ca5 O25 2.181420 1_555
Ca5 O29 2.209837 1_555
Ca5 O99 2.278819 1_555
Ca5 O27 2.287662 1_555
Ca5 O97 2.355998 1_555
Ca5 O101 2.363511 1_555
Ca6 O30 2.173364 1_555
Ca6 O32 2.217785 1_555
Ca6 O34 2.292752 1_555
Ca6 O106 2.308924 1_555
Ca6 O104 2.362382 1_555
Ca6 O102 2.375744 1_555
Ca7 O33 2.175155 1_555
Ca7 O31 2.251557 1_555
Ca7 O107 2.257216 1_555
Ca7 O35 2.263438 1_555
Ca7 O103 2.407044 1_555
Ca7 O105 2.416030 1_555
O0 Si0 1.563798 1_565
O1 Si1 1.563336 1_555
O2 S0 1.448990 1_555
O3 S1 1.451719 1_555
O4 S3 1.451410 1_555
O5 S2 1.453057 1_655
O6 Si2 1.562068 1_555
O7 Si3 1.564150 1_555
O8 Si4 1.579358 1_555
O9 S4 1.453737 1_655
O10 S5 1.454476 1_545
O11 S6 1.452281 1_545
O12 S5 1.531371 1_555
O12 Ta1 2.174707 1_555
O13 S6 1.551769 1_555
O13 Ta0 2.062405 1_665
O14 Si2 1.716470 1_555
O14 Ta0 1.901711 1_555
O15 Si3 1.706042 1_555
O15 Ta1 1.948834 1_545
O16 S4 1.509212 1_555
O16 Ta0 2.226851 1_565
O17 Si4 1.722029 1_555
O17 Ta1 1.914860 1_555
O18 S0 1.543082 1_555
O18 Ta3 2.126282 1_555
O19 S1 1.545634 1_555
O19 Ta2 2.121589 1_655
O20 S2 1.500462 1_555
O20 Ta2 2.265384 1_545
O21 S3 1.504975 1_555
O21 Ta3 2.257195 1_545
O22 Si0 1.720771 1_565
O22 Ta2 1.938354 1_555
O23 Si1 1.708660 1_565
O23 Ta3 1.919082 1_555
O24 Si5 1.577331 1_555
O25 Si6 1.564693 1_555
O26 S7 1.443741 1_555
O27 S8 1.451127 1_555
O28 Si7 1.581696 1_555
O29 Si8 1.582732 1_555
O30 Si9 1.568004 1_555
O31 Si10 1.582421 1_555
O32 Si11 1.587328 1_555
O33 Si12 1.586658 1_555
O34 S9 1.445789 1_555
O35 S10 1.452372 1_555
O36 S9 1.468826 1_555
O36 Ta4 2.425967 1_554
O37 S10 1.472601 1_555
O37 Ta5 2.381209 1_554
O38 Si9 1.686439 1_555
O38 Ta4 1.894194 1_554
O39 Si10 1.677083 1_555
O39 Ta5 1.908409 1_554
O40 Si11 1.679798 1_555
O40 Ta4 1.969150 1_554
O41 Si12 1.675498 1_555
O41 Ta5 1.970794 1_554
O42 S7 1.480425 1_555
O42 Ta6 2.330480 1_555
O43 S8 1.481783 1_555
O43 Ta7 2.291149 1_555
O44 Si7 1.698136 1_555
O44 Ta6 1.935090 1_555
O45 Si8 1.697697 1_555
O45 Ta7 1.948672 1_555
O46 Si5 1.723097 1_555
O46 Ta6 1.868225 1_555
O47 Si6 1.699684 1_555
O47 Ta7 1.877218 1_555
O48 Si13 1.641855 1_555
O48 Ta8 1.878089 1_556
O49 Si14 1.641539 1_555
O49 Ta9 1.887342 1_556
O50 Si15 1.624552 1_555
O50 Ta8 1.903123 1_556
O51 Si16 1.626015 1_555
O51 Ta9 1.903357 1_556
O52 S11 1.502706 1_555
O52 Ta8 2.021605 1_556
O53 S12 1.494868 1_555
O53 Ta9 2.022946 1_556
O54 Si17 1.623948 1_555
O54 Ta10 1.901444 1_555
O55 Si18 1.623831 1_555
O55 Ta11 1.908356 1_555
O56 S13 1.476583 1_555
O56 Ta10 2.065010 1_555
O57 S14 1.482400 1_555
O57 Ta11 2.054122 1_555
O58 Si19 1.612169 1_555
O58 Ta10 1.920454 1_555
O59 Si20 1.612390 1_555
O59 Ta11 1.913510 1_555
O60 Si19 1.730217 1_555
O60 Ta12 1.883441 1_555
O61 Si20 1.722953 1_555
O61 Ta13 1.855670 1_555
O62 Si17 1.742499 1_555
O62 Ta12 1.869950 1_555
O63 Si18 1.729056 1_555
O63 Ta13 1.894186 1_555
O64 S13 1.526030 1_555
O64 Ta12 2.137023 1_555
O65 S14 1.514140 1_555
O65 Ta13 2.193618 1_555
O66 Si15 1.695331 1_555
O66 Ta14 1.879346 1_555
O67 Si16 1.696830 1_555
O67 Ta15 1.885920 1_555
O68 S11 1.497839 1_555
O68 Ta14 2.245626 1_555
O69 S12 1.488309 1_555
O69 Ta15 2.263398 1_555
O70 Si13 1.715812 1_555
O70 Ta14 1.895531 1_555
O71 Si14 1.688409 1_555
O71 Ta15 1.957652 1_555
O72 Si19 1.570412 1_555
O73 Si20 1.567429 1_555
O74 Si17 1.570846 1_555
O75 Si18 1.576034 1_555
O76 S13 1.451961 1_555
O77 S14 1.441719 1_555
O78 Si15 1.566861 1_555
O79 Si16 1.564195 1_555
O80 S11 1.443555 1_555
O81 S12 1.446949 1_555
O82 Si13 1.566794 1_555
O83 Si14 1.576617 1_555
O84 Si5 1.642706 1_555
O84 Ta1 2.013217 1_545
O85 Si6 1.685784 1_555
O85 Ta0 1.896124 1_655
O86 S7 1.509839 1_555
O86 Ta0 2.115338 1_555
O87 S8 1.498791 1_555
O87 Ta1 2.141260 1_545
O88 Si7 1.649827 1_555
O88 Ta1 1.992247 1_555
O89 Si8 1.666018 1_555
O89 Ta0 1.978558 1_665
O90 Si9 1.700312 1_555
O90 Ta3 1.882573 1_555
O91 Si10 1.696110 1_555
O91 Ta2 1.883594 1_655
O92 Si11 1.674009 1_555
O92 Ta3 1.955042 1_545
O93 Si12 1.676825 1_555
O93 Ta2 1.942025 1_645
O94 S9 1.524496 1_555
O94 Ta2 2.048237 1_545
O95 S10 1.516438 1_555
O95 Ta3 2.078281 1_545
O96 S5 1.457282 1_545
O97 S6 1.450251 1_545
O98 Si2 1.590595 1_555
O99 Si3 1.601371 1_555
O100 Si4 1.613013 1_555
O101 S4 1.471278 1_655
O102 S0 1.449398 1_555
O103 S1 1.465321 1_555
O104 S3 1.473061 1_555
O105 S2 1.482041 1_655
O106 Si0 1.595759 1_555
O107 Si1 1.608655 1_555
O108 Si13 1.663593 1_555
O108 Ta4 1.955809 1_555
O109 Si14 1.677270 1_555
O109 Ta5 1.949184 1_555
O110 Si16 1.689048 1_555
O110 Ta4 1.880141 1_555
O111 Si15 1.682425 1_655
O111 Ta5 1.889607 1_555
O112 S11 1.492650 1_545
O112 Ta4 2.223106 1_555
O113 S12 1.502525 1_545
O113 Ta5 2.195988 1_555
O114 Si17 1.652525 1_545
O114 Ta6 1.984974 1_555
O115 Si18 1.662404 1_545
O115 Ta7 1.988147 1_555
O116 S13 1.484094 1_555
O116 Ta6 2.326701 1_555
O117 S14 1.497435 1_555
O117 Ta7 2.277203 1_555
O118 Si20 1.672792 1_555
O118 Ta6 1.907788 1_555
O119 Si19 1.673880 1_655
O119 Ta7 1.912082 1_555
O120 S9 1.507812 1_555
O120 Ta8 2.107939 1_555
O121 S10 1.502028 1_555
O121 Ta9 2.098731 1_555
O122 Si10 1.632135 1_455
O122 Ta8 2.003745 1_555
O123 Si9 1.636261 1_555
O123 Ta9 1.991471 1_555
O124 Si11 1.653699 1_565
O124 Ta8 1.949474 1_555
O125 Si12 1.640313 1_565
O125 Ta9 1.950613 1_555
O126 S7 1.515651 1_565
O126 Ta10 2.069649 1_555
O127 S8 1.514710 1_565
O127 Ta11 2.070976 1_555
O128 Si7 1.655070 1_555
O128 Ta10 1.915769 1_555
O129 Si8 1.648986 1_555
O129 Ta11 1.932247 1_555
O130 Si6 1.639273 1_455
O130 Ta10 1.972267 1_555
O131 Si5 1.653073 1_555
O131 Ta11 1.962980 1_555
O132 Si0 1.780251 1_565
O132 Ta12 1.934077 1_555
O133 Si1 1.764932 1_565
O133 Ta13 1.901801 1_555
O134 S0 1.535113 1_555
O134 Ta12 2.315366 1_555
O135 S1 1.502683 1_555
O135 Ta13 2.418101 1_555
O136 S2 1.526667 1_555
O136 Ta12 2.211214 1_555
O137 S3 1.532493 1_555
O137 Ta13 2.159665 1_555
O138 Si2 1.765444 1_555
O138 Ta14 1.880243 1_555
O139 Si3 1.775877 1_555
O139 Ta15 1.923249 1_555
O140 S4 1.527453 1_555
O140 Ta14 2.171663 1_555
O141 Si4 1.697951 1_555
O141 Ta15 1.949773 1_555
O142 S5 1.524449 1_555
O142 Ta14 2.267753 1_555
O143 S6 1.511449 1_555
O143 Ta15 2.366457 1_555
