# generated using pymatgen
data_Mn3Sn
_symmetry_space_group_name_H-M   'P 1'
_cell_length_a   5.59107030
_cell_length_b   5.59107030
_cell_length_c   4.50261700
_cell_angle_alpha   90.00000000
_cell_angle_beta   90.00000000
_cell_angle_gamma   120.00000354
_symmetry_Int_Tables_number   1
_chemical_formula_structural   Mn3Sn
_chemical_formula_sum   'Mn6 Sn2'
_cell_volume   121.89489812
_cell_formula_units_Z   2
loop_
 _symmetry_equiv_pos_site_id
 _symmetry_equiv_pos_as_xyz
  1  'x, y, z'
loop_
 _atom_site_type_symbol
 _atom_site_label
 _atom_site_symmetry_multiplicity
 _atom_site_fract_x
 _atom_site_fract_y
 _atom_site_fract_z
 _atom_site_occupancy
  Mn  Mn0  1  0.16193400  0.83806600  0.25000000  1
  Mn  Mn1  1  0.16193400  0.32386800  0.25000000  1
  Mn  Mn2  1  0.67613200  0.83806600  0.25000000  1
  Mn  Mn3  1  0.83806600  0.16193400  0.75000000  1
  Mn  Mn4  1  0.83806600  0.67613200  0.75000000  1
  Mn  Mn5  1  0.32386800  0.16193400  0.75000000  1
  Sn  Sn0  1  0.33333300  0.66666700  0.75000000  1
  Sn  Sn1  1  0.66666700  0.33333300  0.25000000  1
loop_
_geom_bond_atom_site_label_1
_geom_bond_atom_site_label_2
_geom_bond_distance
_geom_bond_site_symmetry_2
Mn0 Mn2 2.716153 1_455
Mn0 Mn1 2.716153 1_565
Mn0 Mn5 2.743639 1_564
Mn0 Mn5 2.743639 1_565
Mn0 Mn4 2.743639 1_455
Mn0 Mn4 2.743639 1_454
Mn0 Sn1 2.795911 1_455
Mn0 Sn1 2.795911 1_565
Mn0 Sn0 2.797039 1_554
Mn0 Sn0 2.797039 1_555
Mn0 Mn1 2.874917 1_555
Mn0 Mn2 2.874917 1_555
Mn1 Mn2 2.716153 1_445
Mn1 Mn3 2.743639 1_455
Mn1 Mn3 2.743639 1_454
Mn1 Mn5 2.743639 1_554
Mn1 Mn5 2.743639 1_555
Mn1 Sn1 2.795908 1_455
Mn1 Sn1 2.795914 1_555
Mn1 Sn0 2.797042 1_554
Mn1 Sn0 2.797042 1_555
Mn1 Mn2 2.874917 1_555
Mn2 Mn3 2.743639 1_565
Mn2 Mn3 2.743639 1_564
Mn2 Mn4 2.743639 1_554
Mn2 Mn4 2.743639 1_555
Mn2 Sn1 2.795908 1_565
Mn2 Sn1 2.795914 1_555
Mn2 Sn0 2.797042 1_554
Mn2 Sn0 2.797042 1_555
Mn3 Mn4 2.716153 1_545
Mn3 Mn5 2.716153 1_655
Mn3 Sn0 2.795911 1_545
Mn3 Sn0 2.795911 1_655
Mn3 Sn1 2.797039 1_555
Mn3 Sn1 2.797039 1_556
Mn3 Mn5 2.874917 1_555
Mn3 Mn4 2.874917 1_555
Mn4 Mn5 2.716153 1_665
Mn4 Sn0 2.795908 1_655
Mn4 Sn0 2.795914 1_555
Mn4 Sn1 2.797042 1_556
Mn4 Sn1 2.797042 1_555
Mn4 Mn5 2.874917 1_555
Mn5 Sn0 2.795908 1_545
Mn5 Sn0 2.795914 1_555
Mn5 Sn1 2.797042 1_555
Mn5 Sn1 2.797042 1_556
