# generated using pymatgen
data_MgV4(OF2)4
_symmetry_space_group_name_H-M   'P 1'
_cell_length_a   5.17671838
_cell_length_b   9.45415036
_cell_length_c   5.25208112
_cell_angle_alpha   103.25636456
_cell_angle_beta   117.90237743
_cell_angle_gamma   77.26869030
_symmetry_Int_Tables_number   1
_chemical_formula_structural   MgV4(OF2)4
_chemical_formula_sum   'Mg1 V4 O4 F8'
_cell_volume   219.19064804
_cell_formula_units_Z   1
loop_
 _symmetry_equiv_pos_site_id
 _symmetry_equiv_pos_as_xyz
  1  'x, y, z'
loop_
 _atom_site_type_symbol
 _atom_site_label
 _atom_site_symmetry_multiplicity
 _atom_site_fract_x
 _atom_site_fract_y
 _atom_site_fract_z
 _atom_site_occupancy
  Mg  Mg0  1  0.56931100  0.19714500  0.37539800  1
  V  V0  1  0.01058900  0.98562500  0.98210800  1
  V  V1  1  0.75415800  0.74938200  0.23522300  1
  V  V2  1  0.48168600  0.51685400  0.55382800  1
  V  V3  1  0.24276100  0.24861300  0.74805600  1
  O  O0  1  0.81787800  0.87535000  0.04293600  1
  O  O1  1  0.31087800  0.35471000  0.52811900  1
  O  O2  1  0.23695800  0.11862600  0.99941200  1
  O  O3  1  0.52377700  0.62405300  0.86882900  1
  F  F0  1  0.12284200  0.61392100  0.27215500  1
  F  F1  1  0.96675400  0.12592400  0.37071500  1
  F  F2  1  0.39622600  0.87870600  0.23762000  1
  F  F3  1  0.49516200  0.35743400  0.13833400  1
  F  F4  1  0.71345100  0.61976600  0.45891100  1
  F  F5  1  0.62775100  0.11027500  0.72418800  1
  F  F6  1  0.00277500  0.86719400  0.62573100  1
  F  F7  1  0.85204000  0.36356500  0.70094100  1
loop_
_geom_bond_atom_site_label_1
_geom_bond_atom_site_label_2
_geom_bond_distance
_geom_bond_site_symmetry_2
Mg0 O2 2.030141 1_554
Mg0 O1 2.056739 1_555
O0 V0 1.758884 1_654
O0 V1 1.893022 1_555
O1 V3 1.879704 1_555
O1 V2 1.881683 1_555
O2 V0 1.860092 1_545
O2 V3 2.012793 1_555
O3 V2 1.674115 1_555
O3 V1 1.989602 1_556
F0 V2 1.944394 1_555
F0 V1 2.002624 1_455
F1 Mg0 2.028854 1_555
F1 V3 2.083394 1_655
F1 V0 2.244050 1_644
F2 V1 1.986093 1_555
F2 V0 2.008310 1_554
F3 V3 2.021367 1_554
F3 Mg0 2.038533 1_555
F3 V2 2.371971 1_555
F4 V2 1.982763 1_555
F4 V1 1.982933 1_555
F5 Mg0 2.045378 1_555
F5 V0 2.083635 1_645
F5 V3 2.169792 1_555
F6 V0 1.935614 1_555
F6 V1 2.053567 1_455
F7 V3 2.004860 1_655
F7 V2 2.067706 1_555
F7 Mg0 2.231609 1_555
