# generated using pymatgen
data_In2Bi
_symmetry_space_group_name_H-M   'P 1'
_cell_length_a   5.55919262
_cell_length_b   5.55919262
_cell_length_c   6.50844099
_cell_angle_alpha   90.00000000
_cell_angle_beta   90.00000000
_cell_angle_gamma   120.00001354
_symmetry_Int_Tables_number   1
_chemical_formula_structural   In2Bi
_chemical_formula_sum   'In4 Bi2'
_cell_volume   174.19311599
_cell_formula_units_Z   2
loop_
 _symmetry_equiv_pos_site_id
 _symmetry_equiv_pos_as_xyz
  1  'x, y, z'
loop_
 _atom_site_type_symbol
 _atom_site_label
 _atom_site_symmetry_multiplicity
 _atom_site_fract_x
 _atom_site_fract_y
 _atom_site_fract_z
 _atom_site_occupancy
  In  In0  1  -0.00000000  0.00000000  0.50000000  1
  In  In1  1  0.00000000  0.00000000  0.00000000  1
  In  In2  1  0.33333300  0.66666700  0.75000000  1
  In  In3  1  0.66666700  0.33333300  0.25000000  1
  Bi  Bi0  1  0.33333300  0.66666700  0.25000000  1
  Bi  Bi1  1  0.66666700  0.33333300  0.75000000  1
loop_
_geom_bond_atom_site_label_1
_geom_bond_atom_site_label_2
_geom_bond_distance
_geom_bond_site_symmetry_2
In0 In1 3.254220 1_556
In0 In1 3.254220 1_555
Bi0 In3 3.209598 1_455
Bi0 In3 3.209598 1_565
Bi0 In3 3.209608 1_555
Bi0 In2 3.254220 1_554
Bi0 In2 3.254220 1_555
Bi0 In1 3.598473 1_565
Bi0 In0 3.598473 1_565
Bi0 In1 3.598477 1_555
Bi0 In0 3.598477 1_665
Bi0 In1 3.598477 1_665
Bi0 In0 3.598477 1_555
Bi1 In2 3.209598 1_545
Bi1 In2 3.209598 1_655
Bi1 In2 3.209608 1_555
Bi1 In3 3.254220 1_555
Bi1 In3 3.254220 1_556
Bi1 In0 3.598473 1_655
Bi1 In1 3.598473 1_656
Bi1 In0 3.598477 1_665
Bi1 In1 3.598477 1_666
Bi1 In0 3.598477 1_555
Bi1 In1 3.598477 1_556
