# generated using pymatgen
data_MgSb2(RhO4)2
_symmetry_space_group_name_H-M   'P 1'
_cell_length_a   5.89913615
_cell_length_b   6.04921365
_cell_length_c   5.89913615
_cell_angle_alpha   75.96046310
_cell_angle_beta   114.67967023
_cell_angle_gamma   71.00936880
_symmetry_Int_Tables_number   1
_chemical_formula_structural   MgSb2(RhO4)2
_chemical_formula_sum   'Mg1 Sb2 Rh2 O8'
_cell_volume   162.37897568
_cell_formula_units_Z   1
loop_
 _symmetry_equiv_pos_site_id
 _symmetry_equiv_pos_as_xyz
  1  'x, y, z'
loop_
 _atom_site_type_symbol
 _atom_site_label
 _atom_site_symmetry_multiplicity
 _atom_site_fract_x
 _atom_site_fract_y
 _atom_site_fract_z
 _atom_site_occupancy
  Mg  Mg0  1  0.25991505  0.03036573  0.70971922  1
  Sb  Sb0  1  0.24141006  0.45816653  0.30042341  1
  Sb  Sb1  1  0.92034231  0.07109539  0.00856230  1
  Rh  Rh0  1  0.77277006  0.67517516  0.55205478  1
  Rh  Rh1  1  0.52887674  0.45657535  0.01454891  1
  O  O0  1  0.46849890  0.26037815  0.73565000  1
  O  O1  1  0.09606636  0.66442935  0.86715296  1
  O  O2  1  0.53807643  0.72625064  0.73567193  1
  O  O3  1  0.97300301  0.28734466  0.73965333  1
  O  O4  1  0.52719835  0.17249227  0.30030937  1
  O  O5  1  0.95145519  0.72529927  0.32324654  1
  O  O6  1  0.46841869  0.66442935  0.23950430  1
  O  O7  1  0.00397085  0.26037815  0.27112195  1
loop_
_geom_bond_atom_site_label_1
_geom_bond_atom_site_label_2
_geom_bond_distance
_geom_bond_site_symmetry_2
Mg0 O2 1.946603 1_545
Mg0 O3 1.995691 1_455
Mg0 O0 2.129263 1_555
Mg0 O7 2.129267 1_555
O0 Sb0 2.100516 1_555
O0 Sb1 2.131540 1_556
O0 Rh1 2.230581 1_556
O1 Rh0 1.999233 1_455
O1 Rh1 2.093357 1_556
O1 Sb0 2.179699 1_556
O2 Rh1 2.049560 1_556
O2 Rh0 2.078913 1_555
O3 Rh0 1.992264 1_555
O3 Sb1 1.998340 1_556
O4 Sb0 1.983431 1_555
O4 Rh1 2.101064 1_555
O4 Rh0 2.560039 1_545
O5 Sb0 2.013483 1_655
O5 Rh0 2.054875 1_555
O5 Sb1 2.331728 1_565
O6 Rh0 1.999230 1_555
O6 Rh1 2.093352 1_555
O6 Sb0 2.179704 1_555
O7 Sb0 2.100520 1_555
O7 Sb1 2.131535 1_455
O7 Rh1 2.230571 1_455
