# generated using pymatgen
data_MgZn2Ni3O8
_symmetry_space_group_name_H-M   'P 1'
_cell_length_a   5.08249376
_cell_length_b   5.89209059
_cell_length_c   5.80616147
_cell_angle_alpha   122.82898658
_cell_angle_beta   93.03249581
_cell_angle_gamma   93.72634457
_symmetry_Int_Tables_number   1
_chemical_formula_structural   MgZn2Ni3O8
_chemical_formula_sum   'Mg1 Zn2 Ni3 O8'
_cell_volume   144.98874447
_cell_formula_units_Z   1
loop_
 _symmetry_equiv_pos_site_id
 _symmetry_equiv_pos_as_xyz
  1  'x, y, z'
loop_
 _atom_site_type_symbol
 _atom_site_label
 _atom_site_symmetry_multiplicity
 _atom_site_fract_x
 _atom_site_fract_y
 _atom_site_fract_z
 _atom_site_occupancy
  Mg  Mg0  1  0.00000000  0.50000000  0.50000000  1
  Zn  Zn0  1  0.53505459  0.70701953  0.35727817  1
  Zn  Zn1  1  0.46494441  0.29298147  0.64272183  1
  Ni  Ni0  1  0.50000000  0.99999900  -0.00000000  1
  Ni  Ni1  1  0.00741675  0.76676589  0.03514068  1
  Ni  Ni2  1  0.99258125  0.23323411  0.96485932  1
  O  O0  1  0.12003014  0.39048783  0.77405195  1
  O  O1  1  0.87996986  0.60951117  0.22594805  1
  O  O2  1  0.15878843  0.87595468  0.80637598  1
  O  O3  1  0.84121157  0.12404432  0.19362302  1
  O  O4  1  0.31335843  0.37160549  0.23367948  1
  O  O5  1  0.35305462  0.93306976  0.25791077  1
  O  O6  1  0.64694638  0.06692924  0.74208923  1
  O  O7  1  0.68664257  0.62839451  0.76632052  1
loop_
_geom_bond_atom_site_label_1
_geom_bond_atom_site_label_2
_geom_bond_distance
_geom_bond_site_symmetry_2
Mg0 O2 2.016388 1_555
Mg0 O3 2.016393 1_455
Mg0 O1 2.093344 1_455
Mg0 O0 2.093348 1_555
Mg0 O7 2.156073 1_455
Mg0 O4 2.156077 1_555
Ni0 O3 1.882437 1_565
Ni0 O2 1.882438 1_554
Ni0 O5 1.917306 1_555
Ni0 O6 1.917311 1_564
Ni0 O7 2.172523 1_554
Ni0 O4 2.172528 1_565
Ni1 O1 1.901670 1_455
Ni1 O2 1.933997 1_554
Ni1 O5 1.969970 1_555
Ni1 O7 1.984204 1_454
Ni1 O0 2.038043 1_554
Ni1 O3 2.050585 1_465
Ni2 O0 1.901669 1_655
Ni2 O3 1.933992 1_556
Ni2 O6 1.969958 1_555
Ni2 O4 1.984216 1_656
Ni2 O1 2.038035 1_556
Ni2 O2 2.050594 1_645
O0 Zn1 1.944724 1_555
O1 Zn0 1.944730 1_555
O4 Zn0 1.943595 1_555
O5 Zn0 1.974680 1_555
O5 Zn1 2.093785 1_565
O6 Zn1 1.974695 1_555
O6 Zn0 2.093782 1_545
O7 Zn1 1.943596 1_555
