# generated using pymatgen
data_Lu2MgW2(ClO4)2
_symmetry_space_group_name_H-M   'P 1'
_cell_length_a   6.18235156
_cell_length_b   7.03177280
_cell_length_c   6.70342284
_cell_angle_alpha   72.75494071
_cell_angle_beta   79.81722063
_cell_angle_gamma   65.52501836
_symmetry_Int_Tables_number   1
_chemical_formula_structural   Lu2MgW2(ClO4)2
_chemical_formula_sum   'Lu2 Mg1 W2 Cl2 O8'
_cell_volume   252.81907295
_cell_formula_units_Z   1
loop_
 _symmetry_equiv_pos_site_id
 _symmetry_equiv_pos_as_xyz
  1  'x, y, z'
loop_
 _atom_site_type_symbol
 _atom_site_label
 _atom_site_symmetry_multiplicity
 _atom_site_fract_x
 _atom_site_fract_y
 _atom_site_fract_z
 _atom_site_occupancy
  Lu  Lu0  1  0.31845600  0.21714600  0.79835700  1
  Lu  Lu1  1  0.67261700  0.80727600  0.20002800  1
  Mg  Mg0  1  0.77969000  0.33322600  0.41766500  1
  W  W0  1  0.35049300  0.39070600  0.20308800  1
  W  W1  1  0.65240900  0.60150500  0.80945800  1
  Cl  Cl0  1  0.93932000  0.00165500  0.24043500  1
  Cl  Cl1  1  0.02134200  0.07371800  0.69873800  1
  O  O0  1  0.46448200  0.28372700  0.48715300  1
  O  O1  1  0.63367600  0.63108800  0.51457400  1
  O  O2  1  0.42207100  0.45724700  0.88014700  1
  O  O3  1  0.59076800  0.53175300  0.15139700  1
  O  O4  1  0.97451000  0.47926300  0.81609800  1
  O  O5  1  0.02662200  0.51094700  0.24920400  1
  O  O6  1  0.39707900  0.12128700  0.14719800  1
  O  O7  1  0.56896600  0.87945700  0.86794200  1
loop_
_geom_bond_atom_site_label_1
_geom_bond_atom_site_label_2
_geom_bond_distance
_geom_bond_site_symmetry_2
Lu0 O0 2.119287 1_555
Lu0 O4 2.173931 1_455
Lu0 O7 2.192300 1_545
Lu0 O2 2.265082 1_555
Lu0 O6 2.314024 1_556
Lu1 O6 2.129734 1_565
Lu1 O1 2.134845 1_555
Lu1 O7 2.277890 1_554
Lu1 O5 2.304249 1_655
Lu1 O3 2.315391 1_555
Mg0 O0 2.068961 1_555
Mg0 O3 2.099427 1_555
Mg0 O1 2.157910 1_555
Mg0 O5 2.302615 1_655
Cl0 Lu1 2.627760 1_545
Cl0 Mg0 2.672582 1_555
Cl1 Mg0 2.410329 1_455
Cl1 Lu0 2.684261 1_555
O0 W0 1.968354 1_555
O1 W1 1.944564 1_555
O2 W1 1.988647 1_555
O2 W0 2.081689 1_556
O3 W0 2.036016 1_555
O3 W1 2.195275 1_554
O4 W1 1.815665 1_555
O5 W0 1.831105 1_555
O6 W0 1.934684 1_555
O7 W1 1.946083 1_555
