# generated using pymatgen
data_Na2Ta8Si9(SO16)3
_symmetry_space_group_name_H-M   'P 1'
_cell_length_a   17.76078652
_cell_length_b   8.86734413
_cell_length_c   22.92819612
_cell_angle_alpha   89.97433140
_cell_angle_beta   89.93111043
_cell_angle_gamma   119.88074723
_symmetry_Int_Tables_number   1
_chemical_formula_structural   Na2Ta8Si9(SO16)3
_chemical_formula_sum   'Na6 Ta24 Si27 S9 O144'
_cell_volume   3130.95100532
_cell_formula_units_Z   3
loop_
 _symmetry_equiv_pos_site_id
 _symmetry_equiv_pos_as_xyz
  1  'x, y, z'
loop_
 _atom_site_type_symbol
 _atom_site_label
 _atom_site_symmetry_multiplicity
 _atom_site_fract_x
 _atom_site_fract_y
 _atom_site_fract_z
 _atom_site_occupancy
  Na  Na0  1  0.00026245  0.00028241  0.50039450  1
  Na  Na1  1  0.50340520  0.00220270  0.99717207  1
  Na  Na2  1  0.33613569  0.33902440  0.83051198  1
  Na  Na3  1  0.83119806  0.32460995  0.83278288  1
  Na  Na4  1  0.33178032  0.33682270  0.33841748  1
  Na  Na5  1  0.83580691  0.33079691  0.33617848  1
  Ta  Ta0  1  0.00581703  0.01650424  0.35939841  1
  Ta  Ta1  1  0.49521259  0.99636941  0.35946898  1
  Ta  Ta2  1  0.99519774  0.99459750  0.85736781  1
  Ta  Ta3  1  0.50613755  0.99656539  0.85803626  1
  Ta  Ta4  1  0.99448714  0.98426869  0.64109966  1
  Ta  Ta5  1  0.50540795  0.00507269  0.64198390  1
  Ta  Ta6  1  0.00280598  0.00219223  0.14340085  1
  Ta  Ta7  1  0.50066398  0.00407988  0.14527060  1
  Ta  Ta8  1  0.33623899  0.34048061  0.68249677  1
  Ta  Ta9  1  0.83792439  0.34675382  0.69251103  1
  Ta  Ta10  1  0.33826997  0.34114944  0.19483578  1
  Ta  Ta11  1  0.83711121  0.33343293  0.18264734  1
  Ta  Ta12  1  0.33790498  0.34596353  0.97274467  1
  Ta  Ta13  1  0.83383590  0.32562327  0.98079683  1
  Ta  Ta14  1  0.33451258  0.34383596  0.48159925  1
  Ta  Ta15  1  0.84066204  0.34190262  0.47494061  1
  Ta  Ta16  1  0.16101498  0.66208395  0.01793225  1
  Ta  Ta17  1  0.65935023  0.66247911  0.02716414  1
  Ta  Ta18  1  0.15851615  0.65620960  0.52783701  1
  Ta  Ta19  1  0.66566471  0.65804916  0.52095678  1
  Ta  Ta20  1  0.15992462  0.64986434  0.30541310  1
  Ta  Ta21  1  0.66412259  0.65893866  0.31563371  1
  Ta  Ta22  1  0.16420100  0.66863987  0.81356185  1
  Ta  Ta23  1  0.66082009  0.67101250  0.80449525  1
  Si  Si0  1  0.14175193  0.99854026  0.25051039  1
  Si  Si1  1  0.35778726  0.72141396  0.25089703  1
  Si  Si2  1  0.99350389  0.27713869  0.24984748  1
  Si  Si3  1  0.50428768  0.28885745  0.25101883  1
  Si  Si4  1  0.64278054  0.28507464  0.75031016  1
  Si  Si5  1  0.00357864  0.72041325  0.75019426  1
  Si  Si6  1  0.49320139  0.70947005  0.74953468  1
  Si  Si7  1  0.85777030  0.00036724  0.74959475  1
  Si  Si8  1  0.47808459  0.33423089  0.58143343  1
  Si  Si9  1  0.97214230  0.32525557  0.58453461  1
  Si  Si10  1  0.19076875  0.04867053  0.58340249  1
  Si  Si11  1  0.33417773  0.62833758  0.58311830  1
  Si  Si12  1  0.82950980  0.61217533  0.58286937  1
  Si  Si13  1  0.47222875  0.61894608  0.08412853  1
  Si  Si14  1  0.97869756  0.62303416  0.08146418  1
  Si  Si15  1  0.83404450  0.04100108  0.08286292  1
  Si  Si16  1  0.69071980  0.33390857  0.08333133  1
  Si  Si17  1  0.30929299  0.67366252  0.91626110  1
  Si  Si18  1  0.02049331  0.37740536  0.91567047  1
  Si  Si19  1  0.52830823  0.38327977  0.91576347  1
  Si  Si20  1  0.16607538  0.95507825  0.91652076  1
  Si  Si21  1  0.67089614  0.95178010  0.91674306  1
  Si  Si22  1  0.80842998  0.95088619  0.41641544  1
  Si  Si23  1  0.17127133  0.39048007  0.41717126  1
  Si  Si24  1  0.66709974  0.37636307  0.41732632  1
  Si  Si25  1  0.02789300  0.67255766  0.41575557  1
  Si  Si26  1  0.52221031  0.66357317  0.41821412  1
  S  S0  1  0.64355353  0.00187342  0.25070213  1
  S  S1  1  0.85650838  0.71333012  0.25011652  1
  S  S2  1  0.14348135  0.28582759  0.75068449  1
  S  S3  1  0.35662796  0.99949651  0.75043604  1
  S  S4  1  0.69241605  0.04854785  0.58324249  1
  S  S5  1  0.33208117  0.04616428  0.08341620  1
  S  S6  1  0.19204449  0.33468450  0.08341549  1
  S  S7  1  0.80809004  0.66411217  0.91653440  1
  S  S8  1  0.30757711  0.95224887  0.41614251  1
  O  O0  1  0.09599058  0.03321114  0.30658031  1
  O  O1  1  0.60271797  0.02935748  0.30260993  1
  O  O2  1  0.42028050  0.80689588  0.30686406  1
  O  O3  1  0.91051581  0.79000806  0.30223923  1
  O  O4  1  0.48677052  0.16234391  0.30636540  1
  O  O5  1  0.98043583  0.15902198  0.30714479  1
  O  O6  1  0.10290761  0.17774961  0.80384119  1
  O  O7  1  0.59410722  0.15947685  0.80693506  1
  O  O8  1  0.48028824  0.80123106  0.80770854  1
  O  O9  1  0.98829019  0.81255290  0.80709370  1
  O  O10  1  0.41010175  0.02893488  0.80310572  1
  O  O11  1  0.91956849  0.03285043  0.80720360  1
  O  O12  1  0.39626932  0.97528399  0.69723605  1
  O  O13  1  0.90705447  0.97631166  0.69334147  1
  O  O14  1  0.09198510  0.21006629  0.69805574  1
  O  O15  1  0.58239783  0.19297020  0.69326554  1
  O  O16  1  0.01698131  0.83729334  0.69286822  1
  O  O17  1  0.50783823  0.83201384  0.69336204  1
  O  O18  1  0.40678845  0.83692741  0.19286814  1
  O  O19  1  0.89717875  0.81814332  0.19657942  1
  O  O20  1  0.00839722  0.18479420  0.19305008  1
  O  O21  1  0.51505772  0.19461885  0.19252727  1
  O  O22  1  0.08232844  0.97139465  0.19280049  1
  O  O23  1  0.58996916  0.97654744  0.19688120  1
  O  O24  1  0.43071914  0.36409385  0.63955655  1
  O  O25  1  0.92547414  0.35425863  0.64084472  1
  O  O26  1  0.25009552  0.13961088  0.64187284  1
  O  O27  1  0.74386584  0.12719445  0.63627093  1
  O  O28  1  0.31771536  0.49954181  0.63991339  1
  O  O29  1  0.81781102  0.49634420  0.64093801  1
  O  O30  1  0.42415398  0.49319155  0.13971873  1
  O  O31  1  0.93187943  0.49819113  0.13931217  1
  O  O32  1  0.31980548  0.12619838  0.13638874  1
  O  O33  1  0.81808059  0.13699949  0.13973978  1
  O  O34  1  0.24504099  0.35784278  0.13569549  1
  O  O35  1  0.74886035  0.35803615  0.14181776  1
  O  O36  1  0.23048534  0.30218835  0.03078446  1
  O  O37  1  0.73620022  0.29991148  0.02673604  1
  O  O38  1  0.41137339  0.52258252  0.02730388  1
  O  O39  1  0.91671297  0.52922110  0.02566094  1
  O  O40  1  0.34629603  0.15535177  0.03102744  1
  O  O41  1  0.85159674  0.16925603  0.02671936  1
  O  O42  1  0.23694955  0.17330102  0.52655197  1
  O  O43  1  0.72971346  0.15663849  0.53071875  1
  O  O44  1  0.35199795  0.53564809  0.52681477  1
  O  O45  1  0.84474663  0.51877548  0.52614766  1
  O  O46  1  0.41507191  0.30049588  0.52557029  1
  O  O47  1  0.91337148  0.29573145  0.52624058  1
  O  O48  1  0.26362834  0.69419342  0.97528650  1
  O  O49  1  0.77134048  0.69453984  0.96939833  1
  O  O50  1  0.08266113  0.46979621  0.97318629  1
  O  O51  1  0.58490783  0.46975420  0.97429463  1
  O  O52  1  0.15156100  0.83152501  0.97363535  1
  O  O53  1  0.65576018  0.83203976  0.97410860  1
  O  O54  1  0.27139845  0.84887421  0.46916323  1
  O  O55  1  0.76273918  0.83187534  0.47343026  1
  O  O56  1  0.15638516  0.48102315  0.47394223  1
  O  O57  1  0.64992230  0.46689165  0.47325246  1
  O  O58  1  0.08521370  0.70082991  0.47381796  1
  O  O59  1  0.58359291  0.69770974  0.47396788  1
  O  O60  1  0.07235488  0.64035413  0.35888190  1
  O  O61  1  0.56975140  0.63659363  0.35956686  1
  O  O62  1  0.25685647  0.87481021  0.36330082  1
  O  O63  1  0.74956989  0.86167968  0.35744299  1
  O  O64  1  0.18322552  0.50403764  0.35853011  1
  O  O65  1  0.68353744  0.50233750  0.35966623  1
  O  O66  1  0.07032776  0.50387620  0.85960632  1
  O  O67  1  0.57034357  0.50458793  0.85926010  1
  O  O68  1  0.18495129  0.86496575  0.86009741  1
  O  O69  1  0.68301314  0.86165922  0.85891087  1
  O  O70  1  0.24967127  0.63797595  0.85872652  1
  O  O71  1  0.75643911  0.63730756  0.86375517  1
  O  O72  1  0.01137222  0.83663331  0.40657464  1
  O  O73  1  0.51234911  0.83392150  0.40424368  1
  O  O74  1  0.39750554  0.97187441  0.40889734  1
  O  O75  1  0.90436720  0.97059553  0.40694565  1
  O  O76  1  0.08287104  0.19531030  0.41059446  1
  O  O77  1  0.58191614  0.18936068  0.40337219  1
  O  O78  1  0.01328239  0.19054566  0.90517863  1
  O  O79  1  0.51034328  0.18539677  0.90750083  1
  O  O80  1  0.08247287  0.97557425  0.90429499  1
  O  O81  1  0.58287133  0.97147412  0.91047738  1
  O  O82  1  0.40527695  0.84056288  0.90913315  1
  O  O83  1  0.89750974  0.82286178  0.90889221  1
  O  O84  1  0.48675038  0.16389573  0.59526849  1
  O  O85  1  0.98790057  0.16100233  0.59250158  1
  O  O86  1  0.09576865  0.03100273  0.59275645  1
  O  O87  1  0.60328930  0.02998120  0.59090590  1
  O  O88  1  0.41940434  0.81362838  0.59611713  1
  O  O89  1  0.91813380  0.80486469  0.58936818  1
  O  O90  1  0.48468775  0.81312608  0.09200571  1
  O  O91  1  0.98809657  0.81103486  0.09498527  1
  O  O92  1  0.41284736  0.03072086  0.08962344  1
  O  O93  1  0.91933762  0.02523561  0.09586752  1
  O  O94  1  0.10368312  0.17879639  0.09085857  1
  O  O95  1  0.59370567  0.16108705  0.09258043  1
  O  O96  1  0.34463353  0.15494043  0.74430283  1
  O  O97  1  0.84489259  0.16885182  0.74109439  1
  O  O98  1  0.23169867  0.30366515  0.74582426  1
  O  O99  1  0.73736052  0.29994976  0.74181494  1
  O  O100  1  0.40870143  0.51210340  0.74406920  1
  O  O101  1  0.91669280  0.52685273  0.74450704  1
  O  O102  1  0.34568032  0.52441756  0.24114686  1
  O  O103  1  0.84509505  0.53453725  0.24280349  1
  O  O104  1  0.41601412  0.30569966  0.24175872  1
  O  O105  1  0.90870133  0.30510355  0.24333519  1
  O  O106  1  0.23765164  0.17069917  0.23727949  1
  O  O107  1  0.73040195  0.15969468  0.24382295  1
  O  O108  1  0.31841128  0.49669136  0.92483192  1
  O  O109  1  0.82131497  0.51131492  0.92286498  1
  O  O110  1  0.42913298  0.35998619  0.92639229  1
  O  O111  1  0.92678547  0.36397911  0.92321735  1
  O  O112  1  0.25159848  0.14439626  0.92924679  1
  O  O113  1  0.75304097  0.15017211  0.92405030  1
  O  O114  1  0.32096152  0.13125276  0.42166685  1
  O  O115  1  0.81825605  0.14292010  0.42443415  1
  O  O116  1  0.25329148  0.35572109  0.42327618  1
  O  O117  1  0.75150506  0.35415369  0.42519721  1
  O  O118  1  0.42679968  0.48977897  0.42310997  1
  O  O119  1  0.93056044  0.49749011  0.42288915  1
  O  O120  1  0.18272109  0.49010495  0.07582693  1
  O  O121  1  0.68173677  0.50335524  0.07193919  1
  O  O122  1  0.07424126  0.64134933  0.07321893  1
  O  O123  1  0.56714347  0.63758896  0.07579236  1
  O  O124  1  0.25659907  0.87113399  0.07590971  1
  O  O125  1  0.75016433  0.85435014  0.07114095  1
  O  O126  1  0.18276806  0.86177225  0.57164834  1
  O  O127  1  0.68037415  0.87312084  0.57585635  1
  O  O128  1  0.25004996  0.64599896  0.57109845  1
  O  O129  1  0.74814217  0.64271224  0.57299282  1
  O  O130  1  0.06702723  0.49955912  0.57588813  1
  O  O131  1  0.57109031  0.50646227  0.57279899  1
  O  O132  1  0.15639600  0.83613043  0.26255973  1
  O  O133  1  0.65242084  0.84596146  0.25664659  1
  O  O134  1  0.26383447  0.70027081  0.26060056  1
  O  O135  1  0.76969954  0.69696181  0.25666796  1
  O  O136  1  0.08004394  0.46813348  0.25695743  1
  O  O137  1  0.58729437  0.48168009  0.25935113  1
  O  O138  1  0.15444209  0.46250113  0.75939064  1
  O  O139  1  0.65518602  0.47547656  0.76321876  1
  O  O140  1  0.08759875  0.69476111  0.76042467  1
  O  O141  1  0.58035083  0.69297833  0.75712143  1
  O  O142  1  0.26946433  0.84186671  0.75788368  1
  O  O143  1  0.76444813  0.82840540  0.76178166  1
loop_
_geom_bond_atom_site_label_1
_geom_bond_atom_site_label_2
_geom_bond_distance
_geom_bond_site_symmetry_2
Na0 O89 2.600619 1_445
Na0 O76 2.616116 1_555
Na0 O85 2.617737 1_455
Na0 O86 2.642894 1_555
Na0 O72 2.656900 1_545
Na0 O75 2.668978 1_445
Na1 O81 2.528701 1_545
Na1 O79 2.584200 1_555
Na1 O82 2.586221 1_545
Na1 O90 2.662523 1_546
Na1 O95 2.665006 1_556
Na1 O92 2.746212 1_556
Na2 O100 2.442336 1_555
Na2 O98 2.595951 1_555
Na2 O96 2.615718 1_555
Na2 O108 2.677709 1_555
Na2 O110 2.701605 1_555
Na2 O112 2.786416 1_555
Na3 O113 2.559133 1_555
Na3 O111 2.592694 1_555
Na3 O97 2.592744 1_555
Na3 O99 2.611777 1_555
Na3 O101 2.625734 1_555
Na3 O109 2.707297 1_555
Na4 O116 2.446120 1_555
Na4 O118 2.487563 1_555
Na4 O114 2.578778 1_555
Na4 O102 2.718126 1_555
Na4 O104 2.762230 1_555
Na4 O106 2.810835 1_555
Na5 O115 2.538773 1_555
Na5 O119 2.549850 1_555
Na5 O105 2.558760 1_555
Na5 O117 2.598569 1_555
Na5 O107 2.733666 1_555
Na5 O103 2.751984 1_555
O0 Si0 1.629303 1_545
O0 Ta0 1.952502 1_555
O1 S0 1.475188 1_555
O1 Ta1 2.206361 1_545
O2 Si1 1.618386 1_555
O2 Ta1 1.956144 1_555
O3 S1 1.471139 1_555
O3 Ta0 2.288393 1_665
O4 Si3 1.617306 1_555
O4 Ta1 1.972238 1_545
O5 Si2 1.622518 1_555
O5 Ta0 1.950195 1_655
O6 S2 1.493959 1_555
O6 Ta2 2.168022 1_445
O7 Si4 1.646203 1_555
O7 Ta3 1.909433 1_545
O8 Si6 1.637049 1_555
O8 Ta3 1.937317 1_555
O9 Si5 1.632304 1_655
O9 Ta2 1.937588 1_555
O10 S3 1.478007 1_545
O10 Ta3 2.251798 1_545
O11 Si7 1.649596 1_555
O11 Ta2 1.923432 1_545
O12 S3 1.475957 1_555
O12 Ta5 2.217117 1_565
O13 Si7 1.630588 1_565
O13 Ta4 1.933241 1_555
O14 S2 1.461190 1_555
O14 Ta4 2.294779 1_445
O15 Si4 1.630783 1_555
O15 Ta5 1.940073 1_555
O16 Si5 1.615745 1_555
O16 Ta4 1.945657 1_455
O17 Si6 1.619759 1_555
O17 Ta5 1.951661 1_565
O18 Si1 1.638474 1_555
O18 Ta7 1.923439 1_565
O19 S1 1.490060 1_555
O19 Ta6 2.147481 1_665
O20 Si2 1.628594 1_455
O20 Ta6 1.941454 1_555
O21 Si3 1.641072 1_555
O21 Ta7 1.914666 1_555
O22 Si0 1.634979 1_555
O22 Ta6 1.933953 1_565
O23 S0 1.506347 1_565
O23 Ta7 2.089449 1_565
O24 Si8 1.665347 1_555
O24 Ta8 1.864065 1_555
O25 Si9 1.621786 1_555
O25 Ta9 1.928215 1_555
O26 Si10 1.647889 1_555
O26 Ta8 1.915876 1_555
O27 S4 1.472449 1_555
O27 Ta9 2.238463 1_555
O28 Si11 1.658495 1_555
O28 Ta8 1.874242 1_555
O29 Si12 1.629801 1_555
O29 Ta9 1.938334 1_555
O30 Si13 1.626190 1_555
O30 Ta10 1.919943 1_555
O31 Si14 1.659813 1_555
O31 Ta11 1.870613 1_555
O32 S5 1.476709 1_555
O32 Ta10 2.217410 1_555
O33 Si15 1.657180 1_555
O33 Ta11 1.879315 1_555
O34 S6 1.474899 1_555
O34 Ta10 2.202674 1_555
O35 Si16 1.641276 1_555
O35 Ta11 1.929972 1_555
O36 S6 1.483149 1_555
O36 Ta12 2.194770 1_554
O37 Si16 1.633301 1_555
O37 Ta13 1.941633 1_554
O38 Si13 1.637079 1_555
O38 Ta12 1.920878 1_554
O39 Si14 1.622609 1_555
O39 Ta13 1.960005 1_554
O40 S5 1.482788 1_555
O40 Ta12 2.216810 1_554
O41 Si15 1.640768 1_555
O41 Ta13 1.888386 1_554
O42 Si10 1.638933 1_555
O42 Ta14 1.932630 1_555
O43 S4 1.473833 1_555
O43 Ta15 2.232466 1_555
O44 Si11 1.643592 1_555
O44 Ta14 1.881542 1_555
O45 Si12 1.635228 1_555
O45 Ta15 1.931859 1_555
O46 Si8 1.628730 1_555
O46 Ta14 1.939666 1_555
O47 Si9 1.635821 1_555
O47 Ta15 1.936177 1_555
O48 Si17 1.633150 1_555
O48 Ta16 1.958840 1_556
O49 S7 1.463491 1_555
O49 Ta17 2.284992 1_556
O50 Si18 1.653040 1_555
O50 Ta16 1.880748 1_556
O51 Si19 1.623464 1_555
O51 Ta17 1.972922 1_556
O52 Si20 1.642603 1_555
O52 Ta16 1.888818 1_556
O53 Si21 1.625767 1_555
O53 Ta17 1.959235 1_556
O54 S8 1.463297 1_555
O54 Ta18 2.307957 1_555
O55 Si22 1.619885 1_555
O55 Ta19 1.970258 1_555
O56 Si23 1.618776 1_555
O56 Ta18 1.970998 1_555
O57 Si24 1.620414 1_555
O57 Ta19 1.917789 1_555
O58 Si25 1.618894 1_555
O58 Ta18 1.975410 1_555
O59 Si26 1.609096 1_555
O59 Ta19 1.980759 1_555
O60 Si25 1.621149 1_555
O60 Ta20 1.947733 1_555
O61 Si26 1.666486 1_555
O61 Ta21 1.878328 1_555
O62 S8 1.462169 1_555
O62 Ta20 2.300098 1_555
O63 Si22 1.651438 1_555
O63 Ta21 1.934072 1_555
O64 Si23 1.628463 1_555
O64 Ta20 1.964585 1_555
O65 Si24 1.659413 1_555
O65 Ta21 1.882330 1_555
O66 Si18 1.643291 1_555
O66 Ta22 1.896350 1_555
O67 Si19 1.609063 1_555
O67 Ta23 1.991822 1_555
O68 Si20 1.640522 1_555
O68 Ta22 1.915278 1_555
O69 Si21 1.617032 1_555
O69 Ta23 1.977124 1_555
O70 Si17 1.622193 1_555
O70 Ta22 1.966079 1_555
O71 S7 1.465652 1_555
O71 Ta23 2.308786 1_555
O72 Si25 1.634755 1_555
O72 Ta0 1.969568 1_565
O73 Si26 1.636553 1_555
O73 Ta1 1.912538 1_555
O74 S8 1.526863 1_555
O74 Ta1 1.990600 1_555
O75 Si22 1.638106 1_555
O75 Ta0 1.965911 1_665
O76 Si23 1.666233 1_555
O76 Ta0 1.899525 1_555
O77 Si24 1.625706 1_555
O77 Ta1 1.921651 1_545
O78 Si18 1.615160 1_555
O78 Ta2 1.941745 1_445
O79 Si19 1.630720 1_555
O79 Ta3 1.993200 1_545
O80 Si20 1.608173 1_555
O80 Ta2 1.962969 1_455
O81 Si21 1.663694 1_555
O81 Ta3 1.912700 1_555
O82 Si17 1.615061 1_555
O82 Ta3 2.004876 1_555
O83 S7 1.518581 1_555
O83 Ta2 2.021330 1_555
O84 Si8 1.623885 1_555
O84 Ta5 1.924834 1_555
O85 Si9 1.624536 1_555
O85 Ta4 1.972987 1_545
O86 Si10 1.628851 1_555
O86 Ta4 1.971849 1_445
O87 S4 1.517688 1_555
O87 Ta5 2.013656 1_555
O88 Si11 1.613414 1_555
O88 Ta5 1.934626 1_565
O89 Si12 1.655378 1_555
O89 Ta4 1.905945 1_555
O90 Si13 1.633133 1_555
O90 Ta7 1.990747 1_565
O91 Si14 1.620614 1_555
O91 Ta6 1.932589 1_665
O92 S5 1.514239 1_555
O92 Ta7 2.118485 1_555
O93 Si15 1.617205 1_555
O93 Ta6 1.932030 1_655
O94 S6 1.496810 1_555
O94 Ta6 2.076346 1_555
O95 Si16 1.652320 1_555
O95 Ta7 1.957005 1_555
O96 S3 1.502514 1_545
O96 Ta8 2.231609 1_555
O97 Si7 1.631774 1_555
O97 Ta9 1.984441 1_555
O98 S2 1.498319 1_555
O98 Ta8 2.247528 1_555
O99 Si4 1.629581 1_555
O99 Ta9 1.973934 1_555
O100 Si6 1.647588 1_555
O100 Ta8 2.005025 1_555
O101 Si5 1.644954 1_655
O101 Ta9 1.925733 1_555
O102 Si1 1.665487 1_555
O102 Ta10 1.890642 1_555
O103 S1 1.504279 1_555
O103 Ta11 2.203007 1_555
O104 Si3 1.661167 1_555
O104 Ta10 1.897007 1_555
O105 Si2 1.650743 1_555
O105 Ta11 1.984484 1_555
O106 Si0 1.652614 1_545
O106 Ta10 1.930876 1_555
O107 S0 1.486942 1_555
O107 Ta11 2.239463 1_555
O108 Si17 1.667470 1_555
O108 Ta12 1.890436 1_555
O109 S7 1.492988 1_555
O109 Ta13 2.211024 1_555
O110 Si19 1.685556 1_555
O110 Ta12 1.888190 1_555
O111 Si18 1.617390 1_655
O111 Ta13 2.004700 1_555
O112 Si20 1.634418 1_545
O112 Ta12 1.953046 1_555
O113 Si21 1.641629 1_545
O113 Ta13 1.988548 1_555
O114 S8 1.488733 1_545
O114 Ta14 2.247368 1_555
O115 Si22 1.633446 1_545
O115 Ta15 1.978879 1_555
O116 Si23 1.638450 1_555
O116 Ta14 2.009047 1_555
O117 Si24 1.616618 1_555
O117 Ta15 1.998925 1_555
O118 Si26 1.629862 1_555
O118 Ta14 2.009833 1_555
O119 Si25 1.658380 1_655
O119 Ta15 1.917325 1_555
O120 S6 1.477931 1_555
O120 Ta16 2.195790 1_555
O121 Si16 1.609323 1_555
O121 Ta17 1.939494 1_555
O122 Si14 1.632879 1_455
O122 Ta16 1.930967 1_555
O123 Si13 1.620855 1_555
O123 Ta17 1.899745 1_555
O124 S5 1.470830 1_565
O124 Ta16 2.226521 1_555
O125 Si15 1.604852 1_565
O125 Ta17 1.945270 1_555
O126 Si10 1.614088 1_565
O126 Ta18 1.933271 1_555
O127 S4 1.470732 1_565
O127 Ta19 2.190043 1_555
O128 Si11 1.602232 1_555
O128 Ta18 1.945631 1_555
O129 Si12 1.613602 1_555
O129 Ta19 1.946882 1_555
O130 Si9 1.634571 1_455
O130 Ta18 1.878567 1_555
O131 Si8 1.607960 1_555
O131 Ta19 1.945563 1_555
O132 Si0 1.609664 1_555
O132 Ta20 1.949162 1_555
O133 S0 1.473631 1_565
O133 Ta21 2.228168 1_555
O134 Si1 1.598898 1_555
O134 Ta20 1.958197 1_555
O135 S1 1.482298 1_555
O135 Ta21 2.195720 1_555
O136 Si2 1.632317 1_455
O136 Ta20 1.889807 1_555
O137 Si3 1.619501 1_555
O137 Ta21 1.966424 1_555
O138 S2 1.492834 1_555
O138 Ta22 2.144954 1_555
O139 Si4 1.617606 1_555
O139 Ta23 1.934129 1_555
O140 Si5 1.634815 1_555
O140 Ta22 1.925288 1_555
O141 Si6 1.635121 1_555
O141 Ta23 1.881830 1_555
O142 S3 1.490831 1_555
O142 Ta22 2.148383 1_555
O143 Si7 1.621938 1_565
O143 Ta23 1.931179 1_555
