# generated using pymatgen
data_MgCu6OF11
_symmetry_space_group_name_H-M   'P 1'
_cell_length_a   5.72469757
_cell_length_b   5.09591562
_cell_length_c   8.24808349
_cell_angle_alpha   94.10596570
_cell_angle_beta   96.75722357
_cell_angle_gamma   95.90012684
_symmetry_Int_Tables_number   1
_chemical_formula_structural   MgCu6OF11
_chemical_formula_sum   'Mg1 Cu6 O1 F11'
_cell_volume   236.82589675
_cell_formula_units_Z   1
loop_
 _symmetry_equiv_pos_site_id
 _symmetry_equiv_pos_as_xyz
  1  'x, y, z'
loop_
 _atom_site_type_symbol
 _atom_site_label
 _atom_site_symmetry_multiplicity
 _atom_site_fract_x
 _atom_site_fract_y
 _atom_site_fract_z
 _atom_site_occupancy
  Mg  Mg0  1  0.42557500  0.56249200  0.42019800  1
  Cu  Cu0  1  0.99337100  0.97865000  0.00244200  1
  Cu  Cu1  1  0.51688400  0.48481100  0.00043800  1
  Cu  Cu2  1  0.49855700  0.97118500  0.20294900  1
  Cu  Cu3  1  0.88476000  0.52377200  0.31613400  1
  Cu  Cu4  1  0.10536000  0.52278900  0.69440300  1
  Cu  Cu5  1  0.61250700  0.02883800  0.67606400  1
  O  O0  1  0.61371500  0.64364700  0.21499400  1
  F  F0  1  0.28694100  0.21245500  0.08982400  1
  F  F1  1  0.19611200  0.75455200  0.27408800  1
  F  F2  1  0.80450300  0.18383200  0.13167400  1
  F  F3  1  0.11132800  0.36449000  0.46557600  1
  F  F4  1  0.56831400  0.23199600  0.42311100  1
  F  F5  1  0.32116800  0.79335700  0.60920000  1
  F  F6  1  0.73991800  0.74581100  0.54707200  1
  F  F7  1  0.44429400  0.29228600  0.78547100  1
  F  F8  1  0.17336600  0.71951700  0.90824300  1
  F  F9  1  0.91028400  0.23053000  0.76321600  1
  F  F10  1  0.70554200  0.76888000  0.90459200  1
loop_
_geom_bond_atom_site_label_1
_geom_bond_atom_site_label_2
_geom_bond_distance
_geom_bond_site_symmetry_2
Mg0 O0 2.152532 1_555
Cu0 F10 1.926261 1_554
Cu0 F8 1.931429 1_654
Cu0 F2 1.934550 1_565
Cu0 F0 1.985888 1_665
Cu0 F9 2.456512 1_564
Cu1 O0 1.888377 1_555
Cu1 F7 1.942337 1_554
Cu1 F10 1.982494 1_554
Cu1 F0 2.049861 1_555
Cu1 F8 2.477485 1_554
Cu1 F2 2.563730 1_555
Cu2 O0 1.861436 1_555
Cu2 F0 2.013538 1_565
Cu2 F1 2.121231 1_555
Cu2 F2 2.128560 1_565
Cu2 F4 2.144310 1_565
Cu3 O0 1.854706 1_555
Cu3 F3 1.960600 1_655
Cu3 F1 2.110257 1_655
Cu3 F2 2.195725 1_555
Cu3 F6 2.419086 1_555
Cu3 F4 2.506257 1_555
Cu4 F9 1.927600 1_455
Cu4 F8 1.942276 1_555
Cu4 F5 1.978411 1_555
Cu4 F3 2.004228 1_555
Cu4 F7 2.441441 1_555
Cu5 F9 1.929943 1_555
Cu5 F5 1.950152 1_545
Cu5 F7 1.959784 1_555
Cu5 F6 1.980732 1_545
Cu5 F4 2.393266 1_555
Cu5 F10 2.420301 1_545
F1 Mg0 2.048531 1_555
F3 Mg0 2.057623 1_555
F4 Mg0 1.946500 1_555
F5 Mg0 2.067051 1_555
F6 Mg0 2.068163 1_555
