# generated using pymatgen
data_MgCuPtO2
_symmetry_space_group_name_H-M   'P 1'
_cell_length_a   2.78930348
_cell_length_b   2.85912815
_cell_length_c   7.74221729
_cell_angle_alpha   90.00000000
_cell_angle_beta   90.00000000
_cell_angle_gamma   90.00000000
_symmetry_Int_Tables_number   1
_chemical_formula_structural   MgCuPtO2
_chemical_formula_sum   'Mg1 Cu1 Pt1 O2'
_cell_volume   61.74399784
_cell_formula_units_Z   1
loop_
 _symmetry_equiv_pos_site_id
 _symmetry_equiv_pos_as_xyz
  1  'x, y, z'
loop_
 _atom_site_type_symbol
 _atom_site_label
 _atom_site_symmetry_multiplicity
 _atom_site_fract_x
 _atom_site_fract_y
 _atom_site_fract_z
 _atom_site_occupancy
  Mg  Mg0  1  0.50000000  0.00000000  0.24491208  1
  Cu  Cu0  1  0.50000000  0.50000000  0.55695859  1
  Pt  Pt0  1  0.00000000  0.00000000  0.93281371  1
  O  O0  1  0.00000000  0.50000000  0.73076313  1
  O  O1  1  0.00000000  0.50000000  0.34705249  1
loop_
_geom_bond_atom_site_label_1
_geom_bond_atom_site_label_2
_geom_bond_distance
_geom_bond_site_symmetry_2
Mg0 O1 2.148037 1_545
Mg0 O1 2.148037 1_655
Mg0 O1 2.148037 1_645
Mg0 O1 2.148037 1_555
Cu0 O0 1.937984 1_555
Cu0 O0 1.937984 1_655
Cu0 O1 2.141525 1_555
Cu0 O1 2.141525 1_655
O0 Pt0 2.119139 1_565
O0 Pt0 2.119139 1_555
