# generated using pymatgen
data_MgMn3(CuO4)2
_symmetry_space_group_name_H-M   'P 1'
_cell_length_a   5.30484265
_cell_length_b   6.54949217
_cell_length_c   6.54918092
_cell_angle_alpha   53.22715252
_cell_angle_beta   63.16598612
_cell_angle_gamma   63.16629374
_symmetry_Int_Tables_number   1
_chemical_formula_structural   MgMn3(CuO4)2
_chemical_formula_sum   'Mg1 Mn3 Cu2 O8'
_cell_volume   157.32876049
_cell_formula_units_Z   1
loop_
 _symmetry_equiv_pos_site_id
 _symmetry_equiv_pos_as_xyz
  1  'x, y, z'
loop_
 _atom_site_type_symbol
 _atom_site_label
 _atom_site_symmetry_multiplicity
 _atom_site_fract_x
 _atom_site_fract_y
 _atom_site_fract_z
 _atom_site_occupancy
  Mg  Mg0  1  0.50010782  0.49993411  0.49993112  1
  Mn  Mn0  1  0.49984177  0.00009673  0.00009564  1
  Mn  Mn1  1  -0.00000131  0.25302471  0.74696444  1
  Mn  Mn2  1  -0.00000150  0.74696287  0.25302548  1
  Cu  Cu0  1  0.49618576  0.25003794  0.25003630  1
  Cu  Cu1  1  0.50386767  0.74994737  0.74994955  1
  O  O0  1  0.94552293  0.90606265  0.90603482  1
  O  O1  1  0.05428046  0.09400147  0.09403012  1
  O  O2  1  0.04974351  0.59528959  0.59531998  1
  O  O3  1  0.95044019  0.40463488  0.40460732  1
  O  O4  1  0.57049162  0.86209757  0.36957070  1
  O  O5  1  0.57049422  0.36956771  0.86210119  1
  O  O6  1  0.42951456  0.63052970  0.13780683  1
  O  O7  1  0.42951629  0.13781170  0.63052551  1
loop_
_geom_bond_atom_site_label_1
_geom_bond_atom_site_label_2
_geom_bond_distance
_geom_bond_site_symmetry_2
Mg0 O3 2.064045 1_555
Mg0 O2 2.064164 1_555
Mg0 O6 2.140169 1_555
Mg0 O7 2.140273 1_555
Mg0 O5 2.140425 1_555
Mg0 O4 2.140508 1_555
Mn0 O1 2.042378 1_555
Mn0 O0 2.042872 1_544
Mn0 O4 2.169567 1_545
Mn0 O5 2.169679 1_554
Mn0 O7 2.169928 1_554
Mn0 O6 2.170042 1_545
Mn1 O2 1.926900 1_555
Mn1 O3 1.926977 1_455
Mn1 O0 1.954324 1_445
Mn1 O1 1.954461 1_556
Mn1 O5 1.977494 1_455
Mn1 O7 1.977532 1_555
Mn2 O2 1.926926 1_555
Mn2 O3 1.926954 1_455
Mn2 O0 1.954343 1_454
Mn2 O1 1.954449 1_565
Mn2 O4 1.977504 1_455
Mn2 O6 1.977525 1_555
Cu0 O7 2.030012 1_555
Cu0 O6 2.030143 1_555
Cu0 O5 2.053349 1_554
Cu0 O4 2.053500 1_545
Cu0 O3 2.523175 1_455
Cu0 O1 2.577047 1_655
Cu1 O4 2.029537 1_555
Cu1 O5 2.029659 1_555
Cu1 O6 2.053033 1_556
Cu1 O7 2.053191 1_565
Cu1 O2 2.523814 1_655
Cu1 O0 2.578215 1_455
