# generated using pymatgen
data_NaTa2Al2P5SO24
_symmetry_space_group_name_H-M   'P 1'
_cell_length_a   8.56317688
_cell_length_b   8.54541182
_cell_length_c   22.11520621
_cell_angle_alpha   89.98492512
_cell_angle_beta   90.19044470
_cell_angle_gamma   119.93872699
_symmetry_Int_Tables_number   1
_chemical_formula_structural   NaTa2Al2P5SO24
_chemical_formula_sum   'Na3 Ta6 Al6 P15 S3 O72'
_cell_volume   1402.34344455
_cell_formula_units_Z   3
loop_
 _symmetry_equiv_pos_site_id
 _symmetry_equiv_pos_as_xyz
  1  'x, y, z'
loop_
 _atom_site_type_symbol
 _atom_site_label
 _atom_site_symmetry_multiplicity
 _atom_site_fract_x
 _atom_site_fract_y
 _atom_site_fract_z
 _atom_site_occupancy
  Na  Na0  1  0.99997189  0.99943959  0.00527989  1
  Na  Na1  1  0.66645268  0.33317682  0.83240336  1
  Na  Na2  1  0.66712815  0.33040410  0.33977682  1
  Ta  Ta0  1  0.00458188  0.00680256  0.36052058  1
  Ta  Ta1  1  0.99917070  -0.00000954  0.85305515  1
  Ta  Ta2  1  0.66630034  0.32823589  0.18936451  1
  Ta  Ta3  1  0.33188459  0.66648327  0.02748114  1
  Ta  Ta4  1  0.33862537  0.66773909  0.52547355  1
  Ta  Ta5  1  0.33409955  0.66614808  0.80675280  1
  Al  Al0  1  0.99326935  0.99294008  0.64416574  1
  Al  Al1  1  0.01055864  0.00784788  0.14612578  1
  Al  Al2  1  0.66398834  0.33772122  0.68684351  1
  Al  Al3  1  0.66740135  0.33402940  0.98075943  1
  Al  Al4  1  0.67002365  0.34251079  0.47935184  1
  Al  Al5  1  0.32391862  0.66630307  0.31329188  1
  P  P0  1  0.27776924  0.98709983  0.24917687  1
  P  P1  1  0.01427301  0.29180666  0.24896452  1
  P  P2  1  0.28821105  0.27839993  0.74385541  1
  P  P3  1  0.99049891  0.70903593  0.74462185  1
  P  P4  1  0.71838603  0.01160774  0.74419641  1
  P  P5  1  0.68078912  0.61811712  0.58485655  1
  P  P6  1  0.94333328  0.62567431  0.08216070  1
  P  P7  1  0.68235660  0.05459387  0.08137339  1
  P  P8  1  0.37712766  0.32030056  0.08134527  1
  P  P9  1  0.61921089  0.65761498  0.91829167  1
  P  P10  1  0.03792853  0.38114814  0.91776065  1
  P  P11  1  0.34301017  0.96226879  0.91781300  1
  P  P12  1  0.60984215  0.95750768  0.41536832  1
  P  P13  1  0.34918332  0.39375635  0.41529768  1
  P  P14  1  0.04262643  0.65380052  0.41627769  1
  S  S0  1  0.70914159  0.71934085  0.24925901  1
  S  S1  1  0.94308349  0.32376908  0.58454958  1
  S  S2  1  0.38089055  0.05818086  0.58449165  1
  O  O0  1  0.19591363  0.02876787  0.30571272  1
  O  O1  1  0.82482224  0.79404900  0.30400133  1
  O  O2  1  0.96796038  0.16743356  0.30563822  1
  O  O3  1  0.20186909  0.16600386  0.80373008  1
  O  O4  1  0.96226638  0.79512012  0.80424991  1
  O  O5  1  0.83187682  0.03920702  0.80413412  1
  O  O6  1  0.80342710  0.97280330  0.69154379  1
  O  O7  1  0.16530940  0.19236579  0.69070428  1
  O  O8  1  0.03052046  0.83307123  0.69185922  1
  O  O9  1  0.79335864  0.82431896  0.19504471  1
  O  O10  1  0.03044831  0.19854489  0.19311253  1
  O  O11  1  0.16628182  0.96535991  0.19317640  1
  O  O12  1  0.86606538  0.36050332  0.63826718  1
  O  O13  1  0.49639033  0.13237393  0.63829483  1
  O  O14  1  0.63689769  0.49713773  0.64022610  1
  O  O15  1  0.86349858  0.50551339  0.13932882  1
  O  O16  1  0.64111415  0.13385041  0.13895700  1
  O  O17  1  0.49511465  0.35925953  0.13904502  1
  O  O18  1  0.46559681  0.29511857  0.02606024  1
  O  O19  1  0.83064792  0.53687660  0.02638879  1
  O  O20  1  0.70741810  0.16959341  0.02635784  1
  O  O21  1  0.46357299  0.16338726  0.52947050  1
  O  O22  1  0.70255868  0.53023852  0.52770282  1
  O  O23  1  0.83504264  0.29649411  0.52954561  1
  O  O24  1  0.53413436  0.69531190  0.97359721  1
  O  O25  1  0.16050847  0.46563531  0.97347927  1
  O  O26  1  0.30521378  0.83970166  0.97340458  1
  O  O27  1  0.53024961  0.83859751  0.47304541  1
  O  O28  1  0.30805881  0.47119372  0.47282247  1
  O  O29  1  0.16181472  0.69377510  0.47350421  1
  O  O30  1  0.12774083  0.62607889  0.36031092  1
  O  O31  1  0.49594793  0.86861439  0.35971839  1
  O  O32  1  0.37400872  0.50630592  0.35952034  1
  O  O33  1  0.12927356  0.49502103  0.86067593  1
  O  O34  1  0.36558307  0.87054355  0.86072616  1
  O  O35  1  0.50508971  0.63430356  0.86081314  1
  O  O36  1  0.02281105  0.82485752  0.40719714  1
  O  O37  1  0.79845845  0.97241936  0.40707514  1
  O  O38  1  0.17477518  0.20290692  0.40889808  1
  O  O39  1  0.02323496  0.19250581  0.91028530  1
  O  O40  1  0.16951280  0.97731302  0.91011953  1
  O  O41  1  0.80748410  0.83089022  0.91035815  1
  O  O42  1  0.97032926  0.16885054  0.59229056  1
  O  O43  1  0.20086825  0.03451117  0.59225685  1
  O  O44  1  0.83945971  0.80788662  0.59346391  1
  O  O45  1  0.96890899  0.81283944  0.09217533  1
  O  O46  1  0.84207230  0.02739637  0.09230289  1
  O  O47  1  0.18934641  0.15922580  0.09010168  1
  O  O48  1  0.69347430  0.17468534  0.73848667  1
  O  O49  1  0.47552568  0.30169417  0.74014597  1
  O  O50  1  0.82805170  0.52074438  0.74014863  1
  O  O51  1  0.69132347  0.53312984  0.24389265  1
  O  O52  1  0.83980497  0.31153441  0.24304517  1
  O  O53  1  0.47004944  0.16382272  0.24313508  1
  O  O54  1  0.63951834  0.49322226  0.92503102  1
  O  O55  1  0.85362611  0.36063696  0.92481709  1
  O  O56  1  0.50711900  0.14653165  0.92500800  1
  O  O57  1  0.63731536  0.14534863  0.42704333  1
  O  O58  1  0.50734319  0.36248710  0.42529290  1
  O  O59  1  0.85540560  0.49105658  0.42560043  1
  O  O60  1  0.36033696  0.49359785  0.07480950  1
  O  O61  1  0.13292098  0.64158414  0.07499894  1
  O  O62  1  0.50785576  0.86633835  0.07483667  1
  O  O63  1  0.36007360  0.87133162  0.57692813  1
  O  O64  1  0.50699096  0.63924150  0.57485639  1
  O  O65  1  0.12783718  0.49092233  0.57654513  1
  O  O66  1  0.30624459  0.82884905  0.26026632  1
  O  O67  1  0.53051155  0.69645548  0.25801306  1
  O  O68  1  0.17560065  0.47590364  0.26028332  1
  O  O69  1  0.30535247  0.46679933  0.75701348  1
  O  O70  1  0.16170308  0.69289936  0.75781595  1
  O  O71  1  0.53145472  0.83997620  0.75765135  1
loop_
_geom_bond_atom_site_label_1
_geom_bond_atom_site_label_2
_geom_bond_distance
_geom_bond_site_symmetry_2
Na0 O47 2.404984 1_665
Na0 O45 2.425864 1_555
Na0 O46 2.434974 1_565
Na0 O41 2.609030 1_554
Na0 O39 2.616868 1_664
Na0 O40 2.620478 1_654
Na1 O55 2.530613 1_555
Na1 O54 2.537600 1_555
Na1 O56 2.538582 1_555
Na1 O49 2.539149 1_555
Na1 O50 2.539626 1_555
Na1 O48 2.553279 1_555
Na2 O59 2.420381 1_555
Na2 O57 2.426768 1_555
Na2 O58 2.432259 1_555
Na2 O53 2.649908 1_555
Na2 O52 2.654806 1_555
Na2 O51 2.680165 1_555
Al0 O44 1.845233 1_555
Al0 O6 1.871417 1_555
Al0 O8 1.874190 1_655
Al0 O7 1.902293 1_665
Al0 O42 1.976552 1_565
Al0 O43 1.996820 1_665
Al1 O11 1.861869 1_545
Al1 O10 1.867353 1_555
Al1 O47 1.894030 1_555
Al1 O45 1.932023 1_445
Al1 O46 1.937882 1_455
Al1 O9 2.047020 1_445
Al2 O14 1.812622 1_555
Al2 O49 1.898775 1_555
Al2 O50 1.899032 1_555
Al2 O48 1.912471 1_555
Al2 O13 1.941320 1_555
Al2 O12 1.965278 1_555
Al3 O18 1.881042 1_556
Al3 O19 1.884154 1_556
Al3 O20 1.893784 1_556
Al3 O54 1.935951 1_555
Al3 O56 1.940602 1_555
Al3 O55 1.943283 1_555
Al4 O22 1.829565 1_555
Al4 O59 1.882768 1_555
Al4 O58 1.904002 1_555
Al4 O57 1.945038 1_555
Al4 O23 1.981825 1_555
Al4 O21 2.001994 1_555
Al5 O30 1.859179 1_555
Al5 O66 1.880224 1_555
Al5 O68 1.887617 1_555
Al5 O31 1.913620 1_555
Al5 O32 1.918397 1_555
Al5 O67 2.061507 1_555
O0 P0 1.560944 1_545
O0 Ta0 1.973546 1_555
O1 S0 1.488519 1_555
O1 Ta0 2.105281 1_665
O2 P1 1.561934 1_655
O2 Ta0 1.970264 1_655
O3 P2 1.587302 1_555
O3 Ta1 1.941447 1_455
O4 P3 1.587032 1_555
O4 Ta1 1.943268 1_565
O5 P4 1.587439 1_555
O5 Ta1 1.950323 1_555
O6 P4 1.497671 1_565
O7 P2 1.499907 1_555
O8 P3 1.497295 1_455
O9 S0 1.456632 1_555
O10 P1 1.513881 1_555
O11 P0 1.514912 1_555
O12 S1 1.468619 1_555
O13 S2 1.470591 1_555
O14 P5 1.524473 1_555
O15 P6 1.557091 1_555
O15 Ta2 1.956798 1_555
O16 P7 1.564405 1_555
O16 Ta2 1.921011 1_555
O17 P8 1.554292 1_555
O17 Ta2 1.958165 1_555
O18 P8 1.511322 1_555
O19 P6 1.513253 1_555
O20 P7 1.510861 1_555
O21 S2 1.469681 1_555
O22 P5 1.529084 1_555
O23 S1 1.472205 1_555
O24 P9 1.539759 1_555
O24 Ta3 2.016905 1_556
O25 P10 1.541716 1_555
O25 Ta3 2.000254 1_556
O26 P11 1.541702 1_555
O26 Ta3 2.002029 1_556
O27 P12 1.561373 1_555
O27 Ta4 1.946554 1_555
O28 P13 1.554462 1_555
O28 Ta4 1.950753 1_555
O29 P14 1.550387 1_555
O29 Ta4 1.996831 1_555
O30 P14 1.515841 1_555
O31 P12 1.515225 1_555
O32 P13 1.512893 1_555
O33 P10 1.548766 1_555
O33 Ta5 2.022323 1_555
O34 P11 1.548871 1_555
O34 Ta5 2.019193 1_555
O35 P9 1.551794 1_555
O35 Ta5 2.008294 1_555
O36 P14 1.566216 1_555
O36 Ta0 1.935887 1_565
O37 P12 1.566884 1_555
O37 Ta0 1.938061 1_665
O38 P13 1.574118 1_555
O38 Ta0 1.905186 1_555
O39 P10 1.561838 1_555
O39 Ta1 2.002939 1_455
O40 P11 1.562594 1_555
O40 Ta1 2.006906 1_465
O41 P9 1.562520 1_555
O41 Ta1 2.008419 1_565
O42 S1 1.464312 1_555
O43 S2 1.461961 1_555
O44 P5 1.520290 1_555
O45 P6 1.518333 1_555
O46 P7 1.515922 1_555
O47 P8 1.520028 1_555
O48 P4 1.516553 1_555
O49 P2 1.517024 1_555
O50 P3 1.516204 1_555
O51 S0 1.525476 1_555
O51 Ta2 2.047116 1_555
O52 P1 1.589867 1_655
O52 Ta2 1.958829 1_555
O53 P0 1.590267 1_545
O53 Ta2 1.966695 1_555
O54 P9 1.506480 1_555
O55 P10 1.507099 1_655
O56 P11 1.506488 1_545
O57 P12 1.523644 1_545
O58 P13 1.521095 1_555
O59 P14 1.524283 1_655
O60 P8 1.564257 1_555
O60 Ta3 1.922059 1_555
O61 P6 1.568636 1_455
O61 Ta3 1.924145 1_555
O62 P7 1.562375 1_565
O62 Ta3 1.925072 1_555
O63 S2 1.524815 1_565
O63 Ta4 2.009020 1_555
O64 P5 1.600742 1_555
O64 Ta4 1.915850 1_555
O65 S1 1.523385 1_455
O65 Ta4 2.026617 1_555
O66 P0 1.508951 1_555
O67 S0 1.455639 1_555
O68 P1 1.508199 1_555
O69 P2 1.569155 1_555
O69 Ta5 1.937311 1_555
O70 P3 1.566009 1_455
O70 Ta5 1.931053 1_555
O71 P4 1.568925 1_565
O71 Ta5 1.935810 1_555
