# generated using pymatgen
data_MgV2(CuO3)2
_symmetry_space_group_name_H-M   'P 1'
_cell_length_a   5.90131714
_cell_length_b   5.75018014
_cell_length_c   5.80099226
_cell_angle_alpha   53.87515550
_cell_angle_beta   54.07299473
_cell_angle_gamma   52.30486640
_symmetry_Int_Tables_number   1
_chemical_formula_structural   MgV2(CuO3)2
_chemical_formula_sum   'Mg1 V2 Cu2 O6'
_cell_volume   117.66589128
_cell_formula_units_Z   1
loop_
 _symmetry_equiv_pos_site_id
 _symmetry_equiv_pos_as_xyz
  1  'x, y, z'
loop_
 _atom_site_type_symbol
 _atom_site_label
 _atom_site_symmetry_multiplicity
 _atom_site_fract_x
 _atom_site_fract_y
 _atom_site_fract_z
 _atom_site_occupancy
  Mg  Mg0  1  0.70718944  0.71418197  0.71974108  1
  V  V0  1  0.50922586  0.52193885  0.53970275  1
  V  V1  1  0.32805324  0.36538931  0.32168972  1
  Cu  Cu0  1  0.96620390  0.91517902  0.93021372  1
  Cu  Cu1  1  0.08841430  0.12804546  0.11529125  1
  O  O0  1  0.34360092  0.92162343  0.56130756  1
  O  O1  1  0.93570131  0.55461084  0.32549330  1
  O  O2  1  0.59214339  0.31446814  0.92162767  1
  O  O3  1  0.69999057  0.15008402  0.45419966  1
  O  O4  1  0.43869177  0.71668321  0.14753439  1
  O  O5  1  0.14078429  0.45970575  0.71320189  1
loop_
_geom_bond_atom_site_label_1
_geom_bond_atom_site_label_2
_geom_bond_distance
_geom_bond_site_symmetry_2
Mg0 O3 2.012786 1_565
Mg0 O5 2.015603 1_655
Mg0 O4 2.017209 1_556
Mg0 O0 2.182419 1_555
Mg0 O2 2.217351 1_555
Mg0 O1 2.287540 1_555
Cu0 O2 1.985688 1_565
Cu0 O1 1.988828 1_556
Cu0 O0 1.988857 1_655
Cu1 O3 1.945657 1_455
Cu1 O5 1.950131 1_554
Cu1 O4 1.963563 1_545
O0 V0 1.924009 1_555
O0 V1 2.032995 1_565
O1 V1 1.852803 1_655
O1 V0 2.132244 1_555
O2 V1 1.974658 1_556
O2 V0 2.003281 1_555
O3 V0 1.933106 1_555
O3 V1 2.115653 1_555
O4 V1 1.989960 1_555
O4 V0 2.034735 1_555
O5 V0 1.956368 1_555
O5 V1 2.108922 1_555
