# generated using pymatgen
data_Na2Mg(NiO2)5
_symmetry_space_group_name_H-M   'P 1'
_cell_length_a   7.63644263
_cell_length_b   5.01378300
_cell_length_c   5.74615682
_cell_angle_alpha   79.11243235
_cell_angle_beta   111.67572970
_cell_angle_gamma   79.33547409
_symmetry_Int_Tables_number   1
_chemical_formula_structural   Na2Mg(NiO2)5
_chemical_formula_sum   'Na2 Mg1 Ni5 O10'
_cell_volume   192.78260413
_cell_formula_units_Z   1
loop_
 _symmetry_equiv_pos_site_id
 _symmetry_equiv_pos_as_xyz
  1  'x, y, z'
loop_
 _atom_site_type_symbol
 _atom_site_label
 _atom_site_symmetry_multiplicity
 _atom_site_fract_x
 _atom_site_fract_y
 _atom_site_fract_z
 _atom_site_occupancy
  Na  Na0  1  0.88731272  0.99780865  0.40722332  1
  Na  Na1  1  0.72737370  0.57350146  0.25296794  1
  Mg  Mg0  1  0.31148028  0.78511780  0.84680697  1
  Ni  Ni0  1  0.99175424  0.01328836  0.98853833  1
  Ni  Ni1  1  0.18898888  0.41297747  0.19257891  1
  Ni  Ni2  1  0.38311090  0.81414585  0.39307777  1
  Ni  Ni3  1  0.57446051  0.20933835  0.61444799  1
  Ni  Ni4  1  0.78762978  0.60970682  0.79838864  1
  O  O0  1  0.24410065  0.07384457  0.05004214  1
  O  O1  1  0.13662148  0.75807022  0.32454952  1
  O  O2  1  0.33372172  0.09795037  0.55370993  1
  O  O3  1  0.43762749  0.52886963  0.24147458  1
  O  O4  1  0.04982731  0.73025384  0.83530976  1
  O  O5  1  0.93199303  0.32377090  0.11815208  1
  O  O6  1  0.50152173  0.55037706  0.72893135  1
  O  O7  1  0.62943408  0.88638463  0.46947158  1
  O  O8  1  0.82643605  0.29126439  0.66250254  1
  O  O9  1  0.76216147  0.90721866  0.96182665  1
loop_
_geom_bond_atom_site_label_1
_geom_bond_atom_site_label_2
_geom_bond_distance
_geom_bond_site_symmetry_2
Na0 O5 2.268478 1_565
Na0 O7 2.273788 1_555
Na0 O4 2.296246 1_655
Na0 O1 2.309089 1_655
Na0 O8 2.366119 1_565
Na0 O9 2.542190 1_554
Na1 O3 2.243003 1_555
Na1 O9 2.259260 1_554
Na1 O8 2.267880 1_555
Na1 O5 2.268468 1_555
Na1 O7 2.357605 1_555
Mg0 O4 2.045778 1_555
Mg0 O6 2.084507 1_555
Mg0 O0 2.128608 1_566
Mg0 O3 2.132861 1_556
Mg0 O2 2.153470 1_565
Ni0 O4 1.874352 1_645
Ni0 O1 1.885211 1_646
Ni0 O9 1.886130 1_545
Ni0 O5 1.900625 1_556
Ni0 O8 1.913455 1_555
Ni0 O0 1.919510 1_656
Ni1 O5 2.002901 1_455
Ni1 O3 2.024257 1_555
Ni1 O1 2.047490 1_555
Ni1 O0 2.062757 1_555
Ni1 O4 2.098426 1_554
Ni1 O2 2.108059 1_555
Ni2 O1 1.862076 1_555
Ni2 O3 1.869812 1_555
Ni2 O7 1.887966 1_555
Ni2 O2 1.890406 1_565
Ni2 O6 1.896092 1_555
Ni2 O0 1.918544 1_565
Ni3 O2 1.947571 1_555
Ni3 O8 1.972407 1_555
Ni3 O7 2.002102 1_545
Ni3 O6 2.002455 1_555
Ni3 O9 2.067385 1_545
Ni3 O3 2.163490 1_555
Ni4 O5 1.889528 1_556
Ni4 O7 1.912731 1_555
Ni4 O9 1.923958 1_555
Ni4 O8 1.927017 1_555
Ni4 O4 2.145199 1_655
Ni4 O6 2.159301 1_555
