# generated using pymatgen
data_MgTe4Mo3WS4
_symmetry_space_group_name_H-M   'P 1'
_cell_length_a   6.70374000
_cell_length_b   6.70340932
_cell_length_c   76.24477000
_cell_angle_alpha   89.99916562
_cell_angle_beta   90.00083708
_cell_angle_gamma   120.00122669
_symmetry_Int_Tables_number   1
_chemical_formula_structural   MgTe4Mo3WS4
_chemical_formula_sum   'Mg8 Te32 Mo24 W8 S32'
_cell_volume   2967.20958148
_cell_formula_units_Z   8
loop_
 _symmetry_equiv_pos_site_id
 _symmetry_equiv_pos_as_xyz
  1  'x, y, z'
loop_
 _atom_site_type_symbol
 _atom_site_label
 _atom_site_symmetry_multiplicity
 _atom_site_fract_x
 _atom_site_fract_y
 _atom_site_fract_z
 _atom_site_occupancy
  Mg  Mg0_0  1  0.18237000  0.35115000  0.43709850  1
  Mg  Mg0_1  1  0.18237000  0.35115000  0.93709850  1
  Mg  Mg0_2  1  0.18237000  0.85115000  0.43709850  1
  Mg  Mg0_3  1  0.18237000  0.85115000  0.93709850  1
  Mg  Mg0_4  1  0.68237000  0.35115000  0.43709850  1
  Mg  Mg0_5  1  0.68237000  0.35115000  0.93709850  1
  Mg  Mg0_6  1  0.68237000  0.85115000  0.43709850  1
  Mg  Mg0_7  1  0.68237000  0.85115000  0.93709850  1
  Te  Te0_0  1  0.16667200  0.33332700  0.35366900  1
  Te  Te0_1  1  0.16667200  0.33332700  0.85366900  1
  Te  Te0_2  1  0.16667200  0.83332700  0.35366900  1
  Te  Te0_3  1  0.16667200  0.83332700  0.85366900  1
  Te  Te0_4  1  0.66667200  0.33332700  0.35366900  1
  Te  Te0_5  1  0.66667200  0.33332700  0.85366900  1
  Te  Te0_6  1  0.66667200  0.83332700  0.35366900  1
  Te  Te0_7  1  0.66667200  0.83332700  0.85366900  1
  Te  Te1_0  1  0.33331900  0.16662750  0.02212850  1
  Te  Te1_1  1  0.33331900  0.16662750  0.52212850  1
  Te  Te1_2  1  0.33331900  0.66662750  0.02212850  1
  Te  Te1_3  1  0.33331900  0.66662750  0.52212850  1
  Te  Te1_4  1  0.83331900  0.16662750  0.02212850  1
  Te  Te1_5  1  0.83331900  0.16662750  0.52212850  1
  Te  Te1_6  1  0.83331900  0.66662750  0.02212850  1
  Te  Te1_7  1  0.83331900  0.66662750  0.52212850  1
  Te  Te2_0  1  0.33332700  0.16661700  0.07176850  1
  Te  Te2_1  1  0.33332700  0.16661700  0.57176850  1
  Te  Te2_2  1  0.33332700  0.66661700  0.07176850  1
  Te  Te2_3  1  0.33332700  0.66661700  0.57176850  1
  Te  Te2_4  1  0.83332700  0.16661700  0.07176850  1
  Te  Te2_5  1  0.83332700  0.16661700  0.57176850  1
  Te  Te2_6  1  0.83332700  0.66661700  0.07176850  1
  Te  Te2_7  1  0.83332700  0.66661700  0.57176850  1
  Te  Te3_0  1  0.16666900  0.33333700  0.30400150  1
  Te  Te3_1  1  0.16666900  0.33333700  0.80400150  1
  Te  Te3_2  1  0.16666900  0.83333700  0.30400150  1
  Te  Te3_3  1  0.16666900  0.83333700  0.80400150  1
  Te  Te3_4  1  0.66666900  0.33333700  0.30400150  1
  Te  Te3_5  1  0.66666900  0.33333700  0.80400150  1
  Te  Te3_6  1  0.66666900  0.83333700  0.30400150  1
  Te  Te3_7  1  0.66666900  0.83333700  0.80400150  1
  Mo  Mo0_0  1  0.16665500  0.33329350  0.04692600  1
  Mo  Mo0_1  1  0.16665500  0.33329350  0.54692600  1
  Mo  Mo0_2  1  0.16665500  0.83329350  0.04692600  1
  Mo  Mo0_3  1  0.16665500  0.83329350  0.54692600  1
  Mo  Mo0_4  1  0.66665500  0.33329350  0.04692600  1
  Mo  Mo0_5  1  0.66665500  0.33329350  0.54692600  1
  Mo  Mo0_6  1  0.66665500  0.83329350  0.04692600  1
  Mo  Mo0_7  1  0.66665500  0.83329350  0.54692600  1
  Mo  Mo1_0  1  0.33335250  0.16666550  0.14093750  1
  Mo  Mo1_1  1  0.33335250  0.16666550  0.64093750  1
  Mo  Mo1_2  1  0.33335250  0.66666550  0.14093750  1
  Mo  Mo1_3  1  0.33335250  0.66666550  0.64093750  1
  Mo  Mo1_4  1  0.83335250  0.16666550  0.14093750  1
  Mo  Mo1_5  1  0.83335250  0.16666550  0.64093750  1
  Mo  Mo1_6  1  0.83335250  0.66666550  0.14093750  1
  Mo  Mo1_7  1  0.83335250  0.66666550  0.64093750  1
  Mo  Mo2_0  1  0.33333900  0.16666200  0.32885850  1
  Mo  Mo2_1  1  0.33333900  0.16666200  0.82885850  1
  Mo  Mo2_2  1  0.33333900  0.66666200  0.32885850  1
  Mo  Mo2_3  1  0.33333900  0.66666200  0.82885850  1
  Mo  Mo2_4  1  0.83333900  0.16666200  0.32885850  1
  Mo  Mo2_5  1  0.83333900  0.16666200  0.82885850  1
  Mo  Mo2_6  1  0.83333900  0.66666200  0.32885850  1
  Mo  Mo2_7  1  0.83333900  0.66666200  0.82885850  1
  W  W0_0  1  0.16665150  0.33327750  0.23482650  1
  W  W0_1  1  0.16665150  0.33327750  0.73482650  1
  W  W0_2  1  0.16665150  0.83327750  0.23482650  1
  W  W0_3  1  0.16665150  0.83327750  0.73482650  1
  W  W0_4  1  0.66665150  0.33327750  0.23482650  1
  W  W0_5  1  0.66665150  0.33327750  0.73482650  1
  W  W0_6  1  0.66665150  0.83327750  0.23482650  1
  W  W0_7  1  0.66665150  0.83327750  0.73482650  1
  S  S0_0  1  0.16666700  0.33331100  0.16079800  1
  S  S0_1  1  0.16666700  0.33331100  0.66079800  1
  S  S0_2  1  0.16666700  0.83331100  0.16079800  1
  S  S0_3  1  0.16666700  0.83331100  0.66079800  1
  S  S0_4  1  0.66666700  0.33331100  0.16079800  1
  S  S0_5  1  0.66666700  0.33331100  0.66079800  1
  S  S0_6  1  0.66666700  0.83331100  0.16079800  1
  S  S0_7  1  0.66666700  0.83331100  0.66079800  1
  S  S1_0  1  0.33331700  0.16661600  0.21490850  1
  S  S1_1  1  0.33331700  0.16661600  0.71490850  1
  S  S1_2  1  0.33331700  0.66661600  0.21490850  1
  S  S1_3  1  0.33331700  0.66661600  0.71490850  1
  S  S1_4  1  0.83331700  0.16661600  0.21490850  1
  S  S1_5  1  0.83331700  0.16661600  0.71490850  1
  S  S1_6  1  0.83331700  0.66661600  0.21490850  1
  S  S1_7  1  0.83331700  0.66661600  0.71490850  1
  S  S2_0  1  0.33332200  0.16661100  0.25473650  1
  S  S2_1  1  0.33332200  0.16661100  0.75473650  1
  S  S2_2  1  0.33332200  0.66661100  0.25473650  1
  S  S2_3  1  0.33332200  0.66661100  0.75473650  1
  S  S2_4  1  0.83332200  0.16661100  0.25473650  1
  S  S2_5  1  0.83332200  0.16661100  0.75473650  1
  S  S2_6  1  0.83332200  0.66661100  0.25473650  1
  S  S2_7  1  0.83332200  0.66661100  0.75473650  1
  S  S3_0  1  0.16666250  0.33332050  0.12105200  1
  S  S3_1  1  0.16666250  0.33332050  0.62105200  1
  S  S3_2  1  0.16666250  0.83332050  0.12105200  1
  S  S3_3  1  0.16666250  0.83332050  0.62105200  1
  S  S3_4  1  0.66666250  0.33332050  0.12105200  1
  S  S3_5  1  0.66666250  0.33332050  0.62105200  1
  S  S3_6  1  0.66666250  0.83332050  0.12105200  1
  S  S3_7  1  0.66666250  0.83332050  0.62105200  1
loop_
_geom_bond_atom_site_label_1
_geom_bond_atom_site_label_2
_geom_bond_distance
_geom_bond_site_symmetry_2
Mg0_0 Mg0_2 3.351705 1_555
Mg0_0 Mg0_2 3.351705 1_545
Mg0_0 Mg0_6 3.351725 1_445
Mg0_0 Mg0_6 3.351725 1_555
Mg0_0 Mg0_4 3.351870 1_555
Mg0_0 Mg0_4 3.351870 1_455
Mg0_1 Mg0_3 3.351705 1_555
Mg0_1 Mg0_3 3.351705 1_545
Mg0_1 Mg0_7 3.351725 1_555
Mg0_1 Mg0_7 3.351725 1_445
Mg0_1 Mg0_5 3.351870 1_555
Mg0_1 Mg0_5 3.351870 1_455
Mg0_2 Mg0_4 3.351725 1_565
Mg0_2 Mg0_4 3.351725 1_455
Mg0_2 Mg0_6 3.351870 1_555
Mg0_2 Mg0_6 3.351870 1_455
Mg0_3 Mg0_5 3.351725 1_565
Mg0_3 Mg0_5 3.351725 1_455
Mg0_3 Mg0_7 3.351870 1_555
Mg0_3 Mg0_7 3.351870 1_455
Mg0_4 Mg0_6 3.351705 1_555
Mg0_4 Mg0_6 3.351705 1_545
Mg0_5 Mg0_7 3.351705 1_555
Mg0_5 Mg0_7 3.351705 1_545
Mo0_0 Te1_2 2.705397 1_555
Mo0_0 Te1_4 2.705473 1_455
Mo0_0 Te1_0 2.705474 1_555
Mo0_0 Te2_2 2.707775 1_555
Mo0_0 Te2_4 2.707862 1_455
Mo0_0 Te2_0 2.707904 1_555
Mo0_1 Te1_3 2.705397 1_555
Mo0_1 Te1_5 2.705473 1_455
Mo0_1 Te1_1 2.705474 1_555
Mo0_1 Te2_3 2.707775 1_555
Mo0_1 Te2_5 2.707862 1_455
Mo0_1 Te2_1 2.707904 1_555
Mo0_2 Te1_0 2.705397 1_565
Mo0_2 Te1_6 2.705473 1_455
Mo0_2 Te1_2 2.705474 1_555
Mo0_2 Te2_0 2.707775 1_565
Mo0_2 Te2_6 2.707862 1_455
Mo0_2 Te2_2 2.707904 1_555
Mo0_3 Te1_1 2.705397 1_565
Mo0_3 Te1_7 2.705473 1_455
Mo0_3 Te1_3 2.705474 1_555
Mo0_3 Te2_1 2.707775 1_565
Mo0_3 Te2_7 2.707862 1_455
Mo0_3 Te2_3 2.707904 1_555
Mo0_4 Te1_6 2.705397 1_555
Mo0_4 Te1_0 2.705473 1_555
Mo0_4 Te1_4 2.705474 1_555
Mo0_4 Te2_6 2.707775 1_555
Mo0_4 Te2_0 2.707862 1_555
Mo0_4 Te2_4 2.707904 1_555
Mo0_5 Te1_7 2.705397 1_555
Mo0_5 Te1_1 2.705473 1_555
Mo0_5 Te1_5 2.705474 1_555
Mo0_5 Te2_7 2.707775 1_555
Mo0_5 Te2_1 2.707862 1_555
Mo0_5 Te2_5 2.707904 1_555
Mo0_6 Te1_4 2.705397 1_565
Mo0_6 Te1_2 2.705473 1_555
Mo0_6 Te1_6 2.705474 1_555
Mo0_6 Te2_4 2.707775 1_565
Mo0_6 Te2_2 2.707862 1_555
Mo0_6 Te2_6 2.707904 1_555
Mo0_7 Te1_5 2.705397 1_565
Mo0_7 Te1_3 2.705473 1_555
Mo0_7 Te1_7 2.705474 1_555
Mo0_7 Te2_5 2.707775 1_565
Mo0_7 Te2_3 2.707862 1_555
Mo0_7 Te2_7 2.707904 1_555
Mo1_0 S0_4 2.457118 1_555
Mo1_0 S0_0 2.457214 1_555
Mo1_0 S0_2 2.457225 1_545
Mo1_0 S3_4 2.458292 1_555
Mo1_0 S3_2 2.458377 1_545
Mo1_0 S3_0 2.458413 1_555
Mo1_1 S0_5 2.457118 1_555
Mo1_1 S0_1 2.457214 1_555
Mo1_1 S0_3 2.457225 1_545
Mo1_1 S3_5 2.458292 1_555
Mo1_1 S3_3 2.458377 1_545
Mo1_1 S3_1 2.458413 1_555
Mo1_2 S0_6 2.457118 1_555
Mo1_2 S0_2 2.457214 1_555
Mo1_2 S0_0 2.457225 1_555
Mo1_2 S3_6 2.458292 1_555
Mo1_2 S3_0 2.458377 1_555
Mo1_2 S3_2 2.458413 1_555
Mo1_3 S0_7 2.457118 1_555
Mo1_3 S0_3 2.457214 1_555
Mo1_3 S0_1 2.457225 1_555
Mo1_3 S3_7 2.458292 1_555
Mo1_3 S3_1 2.458377 1_555
Mo1_3 S3_3 2.458413 1_555
Mo1_4 S0_0 2.457118 1_655
Mo1_4 S0_4 2.457214 1_555
Mo1_4 S0_6 2.457225 1_545
Mo1_4 S3_0 2.458292 1_655
Mo1_4 S3_6 2.458377 1_545
Mo1_4 S3_4 2.458413 1_555
Mo1_5 S0_1 2.457118 1_655
Mo1_5 S0_5 2.457214 1_555
Mo1_5 S0_7 2.457225 1_545
Mo1_5 S3_1 2.458292 1_655
Mo1_5 S3_7 2.458377 1_545
Mo1_5 S3_5 2.458413 1_555
Mo1_6 S0_2 2.457118 1_655
Mo1_6 S0_6 2.457214 1_555
Mo1_6 S0_4 2.457225 1_555
Mo1_6 S3_2 2.458292 1_655
Mo1_6 S3_4 2.458377 1_555
Mo1_6 S3_6 2.458413 1_555
Mo1_7 S0_3 2.457118 1_655
Mo1_7 S0_7 2.457214 1_555
Mo1_7 S0_5 2.457225 1_555
Mo1_7 S3_3 2.458292 1_655
Mo1_7 S3_5 2.458377 1_555
Mo1_7 S3_7 2.458413 1_555
Mo2_0 Te0_2 2.706094 1_545
Mo2_0 Te0_4 2.706154 1_555
Mo2_0 Te0_0 2.706175 1_555
Mo2_0 Te3_2 2.708555 1_545
Mo2_0 Te3_4 2.708644 1_555
Mo2_0 Te3_0 2.708663 1_555
Mo2_1 Te0_3 2.706094 1_545
Mo2_1 Te0_5 2.706154 1_555
Mo2_1 Te0_1 2.706175 1_555
Mo2_1 Te3_3 2.708555 1_545
Mo2_1 Te3_5 2.708644 1_555
Mo2_1 Te3_1 2.708663 1_555
Mo2_2 Te0_0 2.706094 1_555
Mo2_2 Te0_6 2.706154 1_555
Mo2_2 Te0_2 2.706175 1_555
Mo2_2 Te3_0 2.708555 1_555
Mo2_2 Te3_6 2.708644 1_555
Mo2_2 Te3_2 2.708663 1_555
Mo2_3 Te0_1 2.706094 1_555
Mo2_3 Te0_7 2.706154 1_555
Mo2_3 Te0_3 2.706175 1_555
Mo2_3 Te3_1 2.708555 1_555
Mo2_3 Te3_7 2.708644 1_555
Mo2_3 Te3_3 2.708663 1_555
Mo2_4 Te0_6 2.706094 1_545
Mo2_4 Te0_0 2.706154 1_655
Mo2_4 Te0_4 2.706175 1_555
Mo2_4 Te3_6 2.708555 1_545
Mo2_4 Te3_0 2.708644 1_655
Mo2_4 Te3_4 2.708663 1_555
Mo2_5 Te0_7 2.706094 1_545
Mo2_5 Te0_1 2.706154 1_655
Mo2_5 Te0_5 2.706175 1_555
Mo2_5 Te3_7 2.708555 1_545
Mo2_5 Te3_1 2.708644 1_655
Mo2_5 Te3_5 2.708663 1_555
Mo2_6 Te0_4 2.706094 1_555
Mo2_6 Te0_2 2.706154 1_655
Mo2_6 Te0_6 2.706175 1_555
Mo2_6 Te3_4 2.708555 1_555
Mo2_6 Te3_2 2.708644 1_655
Mo2_6 Te3_6 2.708663 1_555
Mo2_7 Te0_5 2.706094 1_555
Mo2_7 Te0_3 2.706154 1_655
Mo2_7 Te0_7 2.706175 1_555
Mo2_7 Te3_5 2.708555 1_555
Mo2_7 Te3_3 2.708644 1_655
Mo2_7 Te3_7 2.708663 1_555
S1_0 W0_2 2.459856 1_545
S1_0 W0_0 2.459900 1_555
S1_0 W0_4 2.459913 1_555
S1_1 W0_3 2.459856 1_545
S1_1 W0_1 2.459900 1_555
S1_1 W0_5 2.459913 1_555
S1_2 W0_0 2.459856 1_555
S1_2 W0_2 2.459900 1_555
S1_2 W0_6 2.459913 1_555
S1_3 W0_1 2.459856 1_555
S1_3 W0_3 2.459900 1_555
S1_3 W0_7 2.459913 1_555
S1_4 W0_6 2.459856 1_545
S1_4 W0_4 2.459900 1_555
S1_4 W0_0 2.459913 1_655
S1_5 W0_7 2.459856 1_545
S1_5 W0_5 2.459900 1_555
S1_5 W0_1 2.459913 1_655
S1_6 W0_4 2.459856 1_555
S1_6 W0_6 2.459900 1_555
S1_6 W0_2 2.459913 1_655
S1_7 W0_5 2.459856 1_555
S1_7 W0_7 2.459900 1_555
S1_7 W0_3 2.459913 1_655
S2_0 W0_2 2.459477 1_545
S2_0 W0_0 2.459529 1_555
S2_0 W0_4 2.459534 1_555
S2_1 W0_3 2.459477 1_545
S2_1 W0_1 2.459529 1_555
S2_1 W0_5 2.459534 1_555
S2_2 W0_0 2.459477 1_555
S2_2 W0_2 2.459529 1_555
S2_2 W0_6 2.459534 1_555
S2_3 W0_1 2.459477 1_555
S2_3 W0_3 2.459529 1_555
S2_3 W0_7 2.459534 1_555
S2_4 W0_6 2.459477 1_545
S2_4 W0_4 2.459529 1_555
S2_4 W0_0 2.459534 1_655
S2_5 W0_7 2.459477 1_545
S2_5 W0_5 2.459529 1_555
S2_5 W0_1 2.459534 1_655
S2_6 W0_4 2.459477 1_555
S2_6 W0_6 2.459529 1_555
S2_6 W0_2 2.459534 1_655
S2_7 W0_5 2.459477 1_555
S2_7 W0_7 2.459529 1_555
S2_7 W0_3 2.459534 1_655
