# generated using pymatgen
data_Na3GaSiSn(PO6)2
_symmetry_space_group_name_H-M   'P 1'
_cell_length_a   15.43661674
_cell_length_b   8.90861047
_cell_length_c   8.92870194
_cell_angle_alpha   90.00000000
_cell_angle_beta   124.90268156
_cell_angle_gamma   90.00000000
_symmetry_Int_Tables_number   1
_chemical_formula_structural   Na3GaSiSn(PO6)2
_chemical_formula_sum   'Na12 Ga4 Si4 Sn4 P8 O48'
_cell_volume   1007.00243234
_cell_formula_units_Z   4
loop_
 _symmetry_equiv_pos_site_id
 _symmetry_equiv_pos_as_xyz
  1  'x, y, z'
loop_
 _atom_site_type_symbol
 _atom_site_label
 _atom_site_symmetry_multiplicity
 _atom_site_fract_x
 _atom_site_fract_y
 _atom_site_fract_z
 _atom_site_occupancy
  Na  Na0  1  0.25075415  0.72533328  0.99464993  1
  Na  Na1  1  0.75075415  0.77466672  0.49464993  1
  Na  Na2  1  0.75075415  0.22533328  0.99464993  1
  Na  Na3  1  0.25075415  0.27466672  0.49464993  1
  Na  Na4  1  0.50530336  0.11141984  0.76094930  1
  Na  Na5  1  0.50530336  0.88858016  0.26094930  1
  Na  Na6  1  0.00530336  0.61141984  0.76094930  1
  Na  Na7  1  0.00530336  0.38858016  0.26094930  1
  Na  Na8  1  0.18556914  0.93240355  0.28112183  1
  Na  Na9  1  0.18556914  0.06759645  0.78112183  1
  Na  Na10  1  0.68556914  0.43240355  0.28112183  1
  Na  Na11  1  0.68556914  0.56759645  0.78112183  1
  Ga  Ga0  1  0.10516864  0.74094660  0.56204442  1
  Ga  Ga1  1  0.10516864  0.25905340  0.06204442  1
  Ga  Ga2  1  0.60516864  0.24094660  0.56204442  1
  Ga  Ga3  1  0.60516864  0.75905340  0.06204442  1
  Si  Si0  1  0.64562118  0.89857350  0.74774692  1
  Si  Si1  1  0.64562118  0.10142650  0.24774692  1
  Si  Si2  1  0.14562118  0.39857350  0.74774692  1
  Si  Si3  1  0.14562118  0.60142650  0.24774692  1
  Sn  Sn0  1  0.89766054  0.75636022  0.94326174  1
  Sn  Sn1  1  0.89766054  0.24363978  0.44326174  1
  Sn  Sn2  1  0.39766054  0.25636022  0.94326174  1
  Sn  Sn3  1  0.39766054  0.74363978  0.44326174  1
  P  P0  1  0.00201651  0.95589791  0.75656725  1
  P  P1  1  0.00201651  0.04410209  0.25656725  1
  P  P2  1  0.50201651  0.45589791  0.75656725  1
  P  P3  1  0.50201651  0.54410209  0.25656725  1
  P  P4  1  0.35203680  0.89141462  0.75901965  1
  P  P5  1  0.35203680  0.10858538  0.25901965  1
  P  P6  1  0.85203680  0.39141462  0.75901965  1
  P  P7  1  0.85203680  0.60858538  0.25901965  1
  O  O0  1  0.14741702  0.58131979  0.73827496  1
  O  O1  1  0.84665306  0.56831568  0.76088390  1
  O  O2  1  0.84665306  0.43168432  0.26088390  1
  O  O3  1  0.14741702  0.41868021  0.23827496  1
  O  O4  1  0.64741702  0.08131979  0.73827496  1
  O  O5  1  0.34665306  0.06831568  0.76088390  1
  O  O6  1  0.34665306  0.93168432  0.26088390  1
  O  O7  1  0.64741702  0.91868021  0.23827496  1
  O  O8  1  0.43208581  0.54921698  0.58053182  1
  O  O9  1  0.56649466  0.55330052  0.92977675  1
  O  O10  1  0.56649466  0.44669948  0.42977675  1
  O  O11  1  0.43208581  0.45078302  0.08053182  1
  O  O12  1  0.93208581  0.04921698  0.58053182  1
  O  O13  1  0.06649466  0.05330052  0.92977675  1
  O  O14  1  0.06649466  0.94669948  0.42977675  1
  O  O15  1  0.93208581  0.95078302  0.08053182  1
  O  O16  1  0.25344829  0.83310804  0.74380352  1
  O  O17  1  0.74491288  0.81480831  0.75952248  1
  O  O18  1  0.74491288  0.18519169  0.25952248  1
  O  O19  1  0.25344829  0.16689196  0.24380352  1
  O  O20  1  0.75344829  0.33310804  0.74380352  1
  O  O21  1  0.24491288  0.31480831  0.75952248  1
  O  O22  1  0.24491288  0.68519169  0.25952248  1
  O  O23  1  0.75344829  0.66689196  0.24380352  1
  O  O24  1  0.34839695  0.86394390  0.58233551  1
  O  O25  1  0.63639532  0.85344413  0.91325026  1
  O  O26  1  0.63639532  0.14655587  0.41325026  1
  O  O27  1  0.34839695  0.13605610  0.08233551  1
  O  O28  1  0.84839695  0.36394390  0.58233551  1
  O  O29  1  0.13639532  0.35344413  0.91325026  1
  O  O30  1  0.13639532  0.64655587  0.41325026  1
  O  O31  1  0.84839695  0.63605610  0.08233551  1
  O  O32  1  0.45240347  0.82992409  0.93169916  1
  O  O33  1  0.54310741  0.82768417  0.55577673  1
  O  O34  1  0.54310741  0.17231583  0.05577673  1
  O  O35  1  0.45240347  0.17007591  0.43169916  1
  O  O36  1  0.95240347  0.32992409  0.93169916  1
  O  O37  1  0.04310741  0.32768417  0.55577673  1
  O  O38  1  0.04310741  0.67231583  0.05577673  1
  O  O39  1  0.95240347  0.67007591  0.43169916  1
  O  O40  1  0.08235677  0.85931820  0.74574621  1
  O  O41  1  0.92219803  0.84571947  0.75303766  1
  O  O42  1  0.92219803  0.15428053  0.25303766  1
  O  O43  1  0.08235677  0.14068180  0.24574621  1
  O  O44  1  0.58235677  0.35931820  0.74574621  1
  O  O45  1  0.42219803  0.34571947  0.75303766  1
  O  O46  1  0.42219803  0.65428053  0.25303766  1
  O  O47  1  0.58235677  0.64068180  0.24574621  1
loop_
_geom_bond_atom_site_label_1
_geom_bond_atom_site_label_2
_geom_bond_distance
_geom_bond_site_symmetry_2
Na0 O0 2.291693 1_555
Na0 O46 2.395852 1_556
Na0 O22 2.443997 1_556
Na0 O16 2.458976 1_555
Na0 O40 2.551464 1_555
Na0 O6 2.682257 1_556
Na1 O7 2.291693 1_555
Na1 O41 2.395852 1_555
Na1 O17 2.443997 1_555
Na1 O23 2.458976 1_555
Na1 O47 2.551464 1_555
Na1 O1 2.682257 1_555
Na2 O4 2.291693 1_555
Na2 O42 2.395852 1_556
Na2 O18 2.443997 1_556
Na2 O20 2.458976 1_555
Na2 O44 2.551464 1_555
Na2 O2 2.682257 1_556
Na3 O3 2.291693 1_555
Na3 O45 2.395852 1_555
Na3 O21 2.443997 1_555
Na3 O19 2.458976 1_555
Na3 O43 2.551464 1_555
Na3 O5 2.682257 1_555
Na4 O4 2.331029 1_555
Na4 O34 2.409678 1_556
Na4 O45 2.429770 1_555
Na4 O5 2.478616 1_555
Na4 O44 2.548556 1_555
Na4 O35 2.614381 1_555
Na4 O25 2.841984 1_545
Na4 O24 2.974910 1_545
Na5 O7 2.331029 1_555
Na5 O33 2.409678 1_555
Na5 O46 2.429770 1_555
Na5 O6 2.478616 1_555
Na5 O47 2.548556 1_555
Na5 O32 2.614381 1_554
Na5 O26 2.841984 1_565
Na5 O27 2.974910 1_565
Na6 O0 2.331029 1_555
Na6 O38 2.409678 1_556
Na6 O41 2.429770 1_455
Na6 O1 2.478616 1_455
Na6 O40 2.548556 1_555
Na6 O39 2.614381 1_455
Na6 O29 2.841984 1_555
Na6 O28 2.974910 1_455
Na7 O3 2.331029 1_555
Na7 O37 2.409678 1_555
Na7 O42 2.429770 1_455
Na7 O2 2.478616 1_455
Na7 O43 2.548556 1_555
Na7 O36 2.614381 1_454
Na7 O30 2.841984 1_555
Na7 O31 2.974910 1_455
Na8 O43 2.346292 1_565
Na8 O22 2.434899 1_555
Na8 O19 2.443826 1_565
Na8 O24 2.487355 1_555
Na8 O6 2.594228 1_555
Na8 O13 2.789449 1_564
Na8 O14 2.819308 1_555
Na9 O40 2.346292 1_545
Na9 O21 2.434899 1_555
Na9 O16 2.443826 1_545
Na9 O27 2.487355 1_556
Na9 O5 2.594228 1_555
Na9 O14 2.789449 1_545
Na9 O13 2.819308 1_555
Na10 O47 2.346292 1_555
Na10 O18 2.434899 1_555
Na10 O23 2.443826 1_555
Na10 O28 2.487355 1_555
Na10 O2 2.594228 1_555
Na10 O9 2.789449 1_554
Na10 O10 2.819308 1_555
Na11 O44 2.346292 1_555
Na11 O17 2.434899 1_555
Na11 O20 2.443826 1_555
Na11 O31 2.487355 1_556
Na11 O1 2.594228 1_555
Na11 O10 2.789449 1_555
Na11 O9 2.819308 1_555
Ga0 O30 1.854002 1_555
Ga0 O0 1.936271 1_555
Ga0 O39 2.042886 1_455
Ga0 O16 2.072705 1_555
Ga0 O14 2.074627 1_555
Ga0 O40 2.141801 1_555
Ga1 O29 1.854002 1_554
Ga1 O3 1.936271 1_555
Ga1 O36 2.042886 1_454
Ga1 O19 2.072705 1_555
Ga1 O13 2.074627 1_554
Ga1 O43 2.141801 1_555
Ga2 O26 1.854002 1_555
Ga2 O4 1.936271 1_555
Ga2 O35 2.042886 1_555
Ga2 O20 2.072705 1_555
Ga2 O10 2.074627 1_555
Ga2 O44 2.141801 1_555
Ga3 O25 1.854002 1_554
Ga3 O7 1.936271 1_555
Ga3 O32 2.042886 1_554
Ga3 O23 2.072705 1_555
Ga3 O9 2.074627 1_554
Ga3 O47 2.141801 1_555
O0 Si2 1.631269 1_555
O1 P6 1.578722 1_555
O1 Sn0 2.147259 1_555
O2 P7 1.578722 1_555
O2 Sn1 2.147259 1_555
O3 Si3 1.631269 1_555
O4 Si0 1.631269 1_545
O5 P4 1.578722 1_545
O5 Sn2 2.147259 1_555
O6 P5 1.578722 1_565
O6 Sn3 2.147259 1_555
O7 Si1 1.631269 1_565
O8 P2 1.544418 1_555
O8 Sn3 2.009777 1_555
O9 P2 1.540731 1_555
O10 P3 1.540731 1_555
O11 P3 1.544418 1_555
O11 Sn2 2.009777 1_554
O12 P0 1.544418 1_645
O12 Sn1 2.009777 1_555
O13 P0 1.540731 1_545
O14 P1 1.540731 1_565
O15 P1 1.544418 1_665
O15 Sn0 2.009777 1_554
O16 P4 1.538750 1_555
O17 Si0 1.653104 1_555
O17 Sn0 2.023742 1_555
O18 Si1 1.653104 1_555
O18 Sn1 2.023742 1_555
O19 P5 1.538750 1_555
O20 P6 1.538750 1_555
O21 Si2 1.653104 1_555
O21 Sn2 2.023742 1_555
O22 Si3 1.653104 1_555
O22 Sn3 2.023742 1_555
O23 P7 1.538750 1_555
O24 P4 1.565346 1_555
O24 Sn3 2.085547 1_555
O25 Si0 1.614447 1_555
O26 Si1 1.614447 1_555
O27 P5 1.565346 1_555
O27 Sn2 2.085547 1_554
O28 P6 1.565346 1_555
O28 Sn1 2.085547 1_555
O29 Si2 1.614447 1_555
O30 Si3 1.614447 1_555
O31 P7 1.565346 1_555
O31 Sn0 2.085547 1_554
O32 P4 1.531021 1_555
O33 Si0 1.654378 1_555
O33 Sn3 2.007383 1_555
O34 Si1 1.654378 1_555
O34 Sn2 2.007383 1_554
O35 P5 1.531021 1_555
O36 P6 1.531021 1_555
O37 Si2 1.654378 1_555
O37 Sn1 2.007383 1_455
O38 Si3 1.654378 1_555
O38 Sn0 2.007383 1_454
O39 P7 1.531021 1_555
O40 P0 1.557171 1_555
O41 P0 1.561445 1_655
O41 Sn0 2.097177 1_555
O42 P1 1.561445 1_655
O42 Sn1 2.097177 1_555
O43 P1 1.557171 1_555
O44 P2 1.557171 1_555
O45 P2 1.561445 1_555
O45 Sn2 2.097177 1_555
O46 P3 1.561445 1_555
O46 Sn3 2.097177 1_555
O47 P3 1.557171 1_555
