# generated using pymatgen
data_RbPbF3
_symmetry_space_group_name_H-M   'P 1'
_cell_length_a   4.65089153
_cell_length_b   4.65141786
_cell_length_c   19.35328723
_cell_angle_alpha   89.94734326
_cell_angle_beta   103.88876231
_cell_angle_gamma   90.02067156
_symmetry_Int_Tables_number   1
_chemical_formula_structural   RbPbF3
_chemical_formula_sum   'Rb4 Pb4 F12'
_cell_volume   406.43359242
_cell_formula_units_Z   4
loop_
 _symmetry_equiv_pos_site_id
 _symmetry_equiv_pos_as_xyz
  1  'x, y, z'
loop_
 _atom_site_type_symbol
 _atom_site_label
 _atom_site_symmetry_multiplicity
 _atom_site_fract_x
 _atom_site_fract_y
 _atom_site_fract_z
 _atom_site_occupancy
  Rb  Rb0  1  0.07177149  0.75909294  0.32413595  1
  Rb  Rb1  1  0.42385390  0.25905715  0.17607914  1
  Rb  Rb2  1  0.92805039  0.24112341  0.67585634  1
  Rb  Rb3  1  0.57599280  0.74076566  0.82396478  1
  Pb  Pb0  1  0.18825976  0.24327670  0.93939102  1
  Pb  Pb1  1  0.68776901  0.25685481  0.43955145  1
  Pb  Pb2  1  0.31258940  0.74337986  0.56039798  1
  Pb  Pb3  1  0.81183678  0.75650909  0.06061858  1
  F  F0  1  0.93151295  0.75590715  0.17862202  1
  F  F1  1  0.06861014  0.24405872  0.82138148  1
  F  F2  1  0.83662626  0.25663146  0.08765349  1
  F  F3  1  0.33947087  0.76009940  0.08755374  1
  F  F4  1  0.42914469  0.74388211  0.67836161  1
  F  F5  1  0.57103992  0.25654919  0.32164183  1
  F  F6  1  0.65881959  0.75701522  0.41256251  1
  F  F7  1  0.83930597  0.74108803  0.58754746  1
  F  F8  1  0.16317111  0.74297547  0.91237165  1
  F  F9  1  0.16077516  0.25912418  0.41244613  1
  F  F10  1  0.66034641  0.23971206  0.91245675  1
  F  F11  1  0.34105339  0.24289939  0.58740807  1
loop_
_geom_bond_atom_site_label_1
_geom_bond_atom_site_label_2
_geom_bond_distance
_geom_bond_site_symmetry_2
F0 Pb3 2.217001 1_555
F0 Rb0 2.733993 1_655
F0 Rb1 3.262641 1_655
F0 Rb1 3.282229 1_665
F0 Rb1 3.295229 1_555
F0 Rb1 3.316978 1_565
F1 Pb0 2.217116 1_555
F1 Rb2 2.734186 1_455
F1 Rb3 3.263222 1_455
F1 Rb3 3.283747 1_445
F1 Rb3 3.293724 1_555
F1 Rb3 3.316415 1_545
F2 Pb3 2.379563 1_555
F2 Pb3 2.381533 1_545
F2 Rb1 2.853780 1_655
F2 Rb1 2.862080 1_555
F3 Pb3 2.376619 1_555
F3 Pb3 2.383243 1_455
F3 Rb1 2.856489 1_565
F3 Rb1 2.862044 1_555
F4 Pb2 2.216249 1_555
F4 Rb3 2.735549 1_555
F4 Rb2 3.276062 1_465
F4 Rb2 3.284164 1_565
F4 Rb2 3.293106 1_455
F4 Rb2 3.303530 1_555
F5 Pb1 2.215230 1_555
F5 Rb1 2.734782 1_555
F5 Rb0 3.275608 1_645
F5 Rb0 3.286026 1_545
F5 Rb0 3.291242 1_655
F5 Rb0 3.303974 1_555
F6 Pb1 2.380052 1_565
F6 Pb1 2.380667 1_555
F6 Rb0 2.853097 1_555
F6 Rb0 2.862751 1_655
F7 Pb2 2.378930 1_555
F7 Pb2 2.382571 1_655
F7 Rb2 2.855550 1_555
F7 Rb2 2.858132 1_565
F8 Pb0 2.378682 1_555
F8 Pb0 2.382277 1_565
F8 Rb3 2.853455 1_455
F8 Rb3 2.861987 1_555
F9 Pb1 2.380212 1_555
F9 Pb1 2.380933 1_455
F9 Rb0 2.855581 1_555
F9 Rb0 2.858132 1_545
F10 Pb0 2.375342 1_555
F10 Pb0 2.384512 1_655
F10 Rb3 2.856080 1_545
F10 Rb3 2.861723 1_555
F11 Pb2 2.378675 1_545
F11 Pb2 2.382197 1_555
F11 Rb2 2.853055 1_555
F11 Rb2 2.863260 1_455
