# generated using pymatgen
data_Na7Zr4Si5PO24
_symmetry_space_group_name_H-M   'P 1'
_cell_length_a   9.27169435
_cell_length_b   9.27737113
_cell_length_c   22.86084488
_cell_angle_alpha   89.90509788
_cell_angle_beta   90.06224492
_cell_angle_gamma   120.05489881
_symmetry_Int_Tables_number   1
_chemical_formula_structural   Na7Zr4Si5PO24
_chemical_formula_sum   'Na21 Zr12 Si15 P3 O72'
_cell_volume   1702.02452766
_cell_formula_units_Z   3
loop_
 _symmetry_equiv_pos_site_id
 _symmetry_equiv_pos_as_xyz
  1  'x, y, z'
loop_
 _atom_site_type_symbol
 _atom_site_label
 _atom_site_symmetry_multiplicity
 _atom_site_fract_x
 _atom_site_fract_y
 _atom_site_fract_z
 _atom_site_occupancy
  Na  Na0  1  0.63716655  0.00184512  0.25140844  1
  Na  Na1  1  0.36309478  0.36381546  0.24772900  1
  Na  Na2  1  0.00063465  0.63338200  0.25059841  1
  Na  Na3  1  0.63339641  0.63238321  0.74900245  1
  Na  Na4  1  0.99875273  0.36514047  0.75025663  1
  Na  Na5  1  0.36769821  0.00293276  0.75073474  1
  Na  Na6  1  0.30096910  0.33229706  0.58402592  1
  Na  Na7  1  0.03202104  0.70137224  0.58300615  1
  Na  Na8  1  0.66912801  0.96683430  0.58370551  1
  Na  Na9  1  0.29339942  0.96820822  0.08033234  1
  Na  Na10  1  0.03932344  0.33718535  0.08632196  1
  Na  Na11  1  0.97307773  0.67022925  0.91753069  1
  Na  Na12  1  0.32855941  0.29306017  0.91901640  1
  Na  Na13  1  0.32994203  0.03032010  0.41674782  1
  Na  Na14  1  0.70461196  0.66913521  0.41887308  1
  Na  Na15  1  0.99505249  0.00794505  0.49887510  1
  Na  Na16  1  0.98196409  0.99027809  0.00013783  1
  Na  Na17  1  0.66800943  0.31273133  0.83428112  1
  Na  Na18  1  0.68637827  0.33029276  0.33520219  1
  Na  Na19  1  0.34453732  0.66053095  0.16545496  1
  Na  Na20  1  0.33497075  0.66585523  0.66683083  1
  Zr  Zr0  1  0.99719593  0.00195728  0.35218352  1
  Zr  Zr1  1  0.99911737  0.00338455  0.85264837  1
  Zr  Zr2  1  0.00041677  0.99912092  0.64833122  1
  Zr  Zr3  1  0.99811714  0.99410274  0.14746351  1
  Zr  Zr4  1  0.66744710  0.33371110  0.68521257  1
  Zr  Zr5  1  0.66757867  0.34068111  0.18514628  1
  Zr  Zr6  1  0.66604052  0.33190433  0.98085298  1
  Zr  Zr7  1  0.67482691  0.33233708  0.48082765  1
  Zr  Zr8  1  0.33367815  0.66489277  0.01893402  1
  Zr  Zr9  1  0.33197455  0.66878468  0.51816821  1
  Zr  Zr10  1  0.32742444  0.66657527  0.31461203  1
  Zr  Zr11  1  0.33191632  0.67118024  0.81514505  1
  Si  Si0  1  0.29647135  0.00082444  0.25060581  1
  Si  Si1  1  0.70538236  0.70605204  0.25204697  1
  Si  Si2  1  0.99954918  0.29280317  0.24695288  1
  Si  Si3  1  0.29642266  0.29621403  0.75052883  1
  Si  Si4  1  0.99904524  0.70395935  0.75112755  1
  Si  Si5  1  0.70515657  0.99947254  0.74846951  1
  Si  Si6  1  0.96370642  0.33254664  0.58541084  1
  Si  Si7  1  0.37215940  0.03956830  0.58214034  1
  Si  Si8  1  0.66595231  0.62777917  0.58254259  1
  Si  Si9  1  0.96444913  0.63135684  0.08167438  1
  Si  Si10  1  0.36815874  0.33359719  0.08342602  1
  Si  Si11  1  0.03636751  0.37012130  0.91675887  1
  Si  Si12  1  0.33290216  0.96507394  0.91706091  1
  Si  Si13  1  0.62920205  0.96303974  0.41627119  1
  Si  Si14  1  0.03337376  0.66824047  0.41599315  1
  P  P0  1  0.66612828  0.04204841  0.08483543  1
  P  P1  1  0.62595477  0.66527908  0.91610478  1
  P  P2  1  0.33446261  0.37255824  0.41701447  1
  O  O0  1  0.20919550  0.03052631  0.30841140  1
  O  O1  1  0.82052567  0.78800471  0.31095640  1
  O  O2  1  0.96856815  0.16653118  0.30206549  1
  O  O3  1  0.20602242  0.17711609  0.80802320  1
  O  O4  1  0.97328257  0.79424806  0.80862035  1
  O  O5  1  0.83181792  0.02944957  0.80307598  1
  O  O6  1  0.78707516  0.97036489  0.68881875  1
  O  O7  1  0.17929098  0.20901311  0.69231904  1
  O  O8  1  0.02753983  0.82007318  0.69276361  1
  O  O9  1  0.79881234  0.83286411  0.19701361  1
  O  O10  1  0.03040054  0.21190461  0.18760401  1
  O  O11  1  0.17698344  0.97217360  0.19310672  1
  O  O12  1  0.88266687  0.36483061  0.64458630  1
  O  O13  1  0.48888384  0.12703563  0.64029737  1
  O  O14  1  0.63925804  0.51261163  0.64111065  1
  O  O15  1  0.87478526  0.51402119  0.13975994  1
  O  O16  1  0.64236394  0.12110283  0.14144536  1
  O  O17  1  0.47691817  0.34687064  0.14238877  1
  O  O18  1  0.46241810  0.30931140  0.02632959  1
  O  O19  1  0.85367573  0.53505026  0.02363156  1
  O  O20  1  0.68852677  0.15771723  0.03177973  1
  O  O21  1  0.46033106  0.15673255  0.52451194  1
  O  O22  1  0.69195919  0.53673039  0.52525602  1
  O  O23  1  0.83695224  0.30263728  0.53047748  1
  O  O24  1  0.53341234  0.68250028  0.96926292  1
  O  O25  1  0.15501402  0.46444487  0.97424537  1
  O  O26  1  0.31544915  0.85021242  0.97452911  1
  O  O27  1  0.53828087  0.84767772  0.47475024  1
  O  O28  1  0.31774193  0.45907613  0.47282973  1
  O  O29  1  0.14821649  0.68484555  0.47369089  1
  O  O30  1  0.12450879  0.64860328  0.35718120  1
  O  O31  1  0.51475830  0.86662796  0.35831064  1
  O  O32  1  0.35019688  0.47848007  0.36208637  1
  O  O33  1  0.13008758  0.48502675  0.85846346  1
  O  O34  1  0.35304115  0.87448141  0.85800255  1
  O  O35  1  0.52457480  0.64487166  0.85934780  1
  O  O36  1  0.02874649  0.84420430  0.41490892  1
  O  O37  1  0.81174909  0.97452568  0.41353149  1
  O  O38  1  0.18137689  0.19355987  0.41370319  1
  O  O39  1  0.02717841  0.18869153  0.91405069  1
  O  O40  1  0.15744227  0.97147605  0.91512214  1
  O  O41  1  0.80580547  0.81642467  0.91360853  1
  O  O42  1  0.98225441  0.16572764  0.58719683  1
  O  O43  1  0.18585106  0.01944733  0.58668777  1
  O  O44  1  0.83391138  0.81343222  0.58635542  1
  O  O45  1  0.99095633  0.82024748  0.08474497  1
  O  O46  1  0.82834591  0.03201566  0.08749791  1
  O  O47  1  0.18104052  0.16464776  0.08535511  1
  O  O48  1  0.68406869  0.16505364  0.74639449  1
  O  O49  1  0.48074557  0.31154571  0.74639332  1
  O  O50  1  0.83194518  0.51841994  0.74712056  1
  O  O51  1  0.69026118  0.52195797  0.24519856  1
  O  O52  1  0.83326252  0.31302403  0.24458313  1
  O  O53  1  0.48389319  0.16491015  0.24526953  1
  O  O54  1  0.63721949  0.50283706  0.92125305  1
  O  O55  1  0.85650980  0.36472140  0.92017495  1
  O  O56  1  0.49069906  0.15712576  0.91976271  1
  O  O57  1  0.63066413  0.14099226  0.41902114  1
  O  O58  1  0.49625260  0.36122942  0.41961477  1
  O  O59  1  0.84187692  0.51020301  0.41851393  1
  O  O60  1  0.34474953  0.49779495  0.08092044  1
  O  O61  1  0.15222343  0.65042405  0.07890255  1
  O  O62  1  0.50712234  0.87045840  0.07810336  1
  O  O63  1  0.35363865  0.85317213  0.57806482  1
  O  O64  1  0.49719790  0.64391956  0.57875403  1
  O  O65  1  0.14944924  0.49801006  0.57857468  1
  O  O66  1  0.31273299  0.83162844  0.25401177  1
  O  O67  1  0.51680544  0.67960989  0.25581164  1
  O  O68  1  0.16746624  0.47724642  0.25404270  1
  O  O69  1  0.31790156  0.48273898  0.75553141  1
  O  O70  1  0.16765080  0.68645892  0.75434026  1
  O  O71  1  0.52087007  0.83144019  0.75459720  1
loop_
_geom_bond_atom_site_label_1
_geom_bond_atom_site_label_2
_geom_bond_distance
_geom_bond_site_symmetry_2
Na0 O52 2.530985 1_555
Na0 O53 2.545611 1_555
Na0 O66 2.605312 1_545
Na0 O67 2.617278 1_545
Na0 O31 2.721037 1_545
Na0 O16 2.735602 1_555
Na0 O2 2.900418 1_555
Na0 O9 2.934989 1_545
Na1 O68 2.516175 1_555
Na1 O67 2.543139 1_555
Na1 O53 2.594890 1_555
Na1 O51 2.626708 1_555
Na1 O17 2.666583 1_555
Na1 O32 2.849185 1_555
Na2 O51 2.526835 1_455
Na2 O66 2.535988 1_555
Na2 O52 2.577095 1_455
Na2 O68 2.596292 1_555
Na2 O30 2.666184 1_555
Na2 O15 2.777916 1_455
Na3 O69 2.537478 1_555
Na3 O71 2.538942 1_555
Na3 O50 2.541343 1_555
Na3 O49 2.578194 1_555
Na3 O14 2.718660 1_555
Na3 O35 2.741982 1_555
Na4 O48 2.557595 1_555
Na4 O50 2.573250 1_555
Na4 O70 2.583021 1_655
Na4 O69 2.593603 1_655
Na4 O12 2.642991 1_555
Na4 O33 2.735872 1_655
Na4 O5 2.952291 1_555
Na4 O7 3.015625 1_655
Na5 O49 2.509829 1_555
Na5 O48 2.541104 1_555
Na5 O70 2.571408 1_545
Na5 O71 2.611212 1_545
Na5 O34 2.698309 1_545
Na5 O13 2.768190 1_555
Na6 O64 2.532481 1_555
Na6 O43 2.542346 1_555
Na6 O65 2.552453 1_555
Na6 O42 2.559590 1_455
Na6 O7 2.722881 1_555
Na6 O28 2.770790 1_555
Na7 O44 2.524655 1_455
Na7 O43 2.556158 1_565
Na7 O63 2.584919 1_555
Na7 O65 2.610282 1_555
Na7 O8 2.750541 1_555
Na7 O29 2.757157 1_555
Na8 O42 2.544380 1_565
Na8 O44 2.557495 1_555
Na8 O63 2.568057 1_555
Na8 O64 2.597303 1_555
Na8 O6 2.632478 1_555
Na8 O27 2.749033 1_555
Na8 O23 2.956916 1_565
Na8 O13 3.028936 1_565
Na9 O45 2.429464 1_455
Na9 O47 2.514436 1_565
Na9 O61 2.557555 1_555
Na9 O62 2.559686 1_555
Na9 O26 2.706384 1_554
Na9 O11 2.803431 1_555
Na10 O60 2.455257 1_555
Na10 O46 2.509029 1_455
Na10 O47 2.529054 1_555
Na10 O61 2.553678 1_555
Na10 O10 2.571762 1_555
Na10 O25 2.799394 1_554
Na11 O40 2.439308 1_655
Na11 O55 2.477151 1_555
Na11 O41 2.521741 1_555
Na11 O54 2.696665 1_555
Na11 O19 2.699401 1_556
Na11 O4 2.740649 1_555
Na12 O56 2.397812 1_555
Na12 O39 2.459300 1_555
Na12 O54 2.530085 1_555
Na12 O40 2.585612 1_545
Na12 O18 2.718229 1_556
Na12 O3 2.768552 1_555
Na13 O36 2.439637 1_545
Na13 O57 2.441991 1_555
Na13 O38 2.506929 1_555
Na13 O58 2.658095 1_555
Na13 O0 2.717223 1_555
Na13 O21 2.736617 1_555
Na14 O59 2.381923 1_555
Na14 O37 2.491760 1_555
Na14 O58 2.522807 1_555
Na14 O36 2.605524 1_655
Na14 O1 2.695771 1_555
Na14 O22 2.698829 1_555
Na15 O37 2.501608 1_545
Na15 O42 2.533360 1_555
Na15 O36 2.564400 1_645
Na15 O38 2.599492 1_655
Na15 O44 2.604246 1_545
Na15 O43 2.640964 1_655
Na16 O45 2.521434 1_555
Na16 O41 2.558699 1_554
Na16 O39 2.579551 1_664
Na16 O46 2.593886 1_565
Na16 O40 2.597512 1_654
Na16 O47 2.613587 1_665
Na17 O48 2.479935 1_555
Na17 O56 2.495178 1_555
Na17 O55 2.508827 1_555
Na17 O50 2.647776 1_555
Na17 O49 2.650453 1_555
Na17 O54 2.768101 1_555
Na18 O59 2.466996 1_555
Na18 O57 2.470857 1_555
Na18 O52 2.529380 1_555
Na18 O53 2.687442 1_555
Na18 O51 2.705657 1_555
Na18 O58 2.725749 1_555
Na19 O60 2.454936 1_555
Na19 O67 2.561274 1_555
Na19 O68 2.624433 1_555
Na19 O61 2.632248 1_555
Na19 O62 2.665725 1_555
Na19 O66 2.680655 1_555
Na20 O64 2.583129 1_555
Na20 O71 2.589769 1_555
Na20 O69 2.596715 1_555
Na20 O70 2.598151 1_555
Na20 O65 2.602728 1_555
Na20 O63 2.618330 1_555
O0 Si0 1.644362 1_555
O0 Zr0 2.101597 1_455
O1 Si1 1.648839 1_555
O1 Zr0 2.063351 1_565
O2 Si2 1.643501 1_555
O2 Zr0 2.028252 1_555
O3 Si3 1.649506 1_555
O3 Zr1 2.054355 1_455
O4 Si4 1.640401 1_555
O4 Zr1 2.091745 1_565
O5 Si5 1.638804 1_545
O5 Zr1 2.029734 1_555
O6 Si5 1.648727 1_555
O6 Zr2 2.077279 1_655
O7 Si3 1.650791 1_555
O7 Zr2 2.078840 1_545
O8 Si4 1.649661 1_455
O8 Zr2 2.065554 1_555
O9 Si1 1.641337 1_555
O9 Zr3 2.040984 1_555
O10 Si2 1.644743 1_455
O10 Zr3 2.101031 1_445
O11 Si0 1.651932 1_565
O11 Zr3 2.052783 1_455
O12 Si6 1.647212 1_555
O12 Zr4 2.086586 1_555
O13 Si7 1.648673 1_555
O13 Zr4 2.072403 1_555
O14 Si8 1.651254 1_555
O14 Zr4 2.065883 1_555
O15 Si9 1.652428 1_555
O15 Zr5 2.063419 1_555
O16 P0 1.557853 1_555
O16 Zr5 2.175259 1_555
O17 Si10 1.649896 1_555
O17 Zr5 2.044850 1_555
O18 Si10 1.648928 1_555
O18 Zr6 2.072728 1_554
O19 Si9 1.641834 1_555
O19 Zr6 2.062308 1_554
O20 P0 1.561669 1_555
O20 Zr6 2.083520 1_554
O21 Si7 1.641029 1_555
O21 Zr7 2.088092 1_555
O22 Si8 1.641682 1_555
O22 Zr7 2.087304 1_555
O23 Si6 1.645159 1_555
O23 Zr7 2.008455 1_555
O24 P1 1.542323 1_555
O24 Zr8 2.108668 1_556
O25 Si11 1.655117 1_555
O25 Zr8 2.040338 1_556
O26 Si12 1.646455 1_555
O26 Zr8 2.073618 1_556
O27 Si13 1.654487 1_555
O27 Zr9 2.053605 1_555
O28 P2 1.557207 1_555
O28 Zr9 2.150828 1_555
O29 Si14 1.652462 1_555
O29 Zr9 2.051546 1_555
O30 Si14 1.646908 1_555
O30 Zr10 2.050280 1_555
O31 Si13 1.652831 1_555
O31 Zr10 2.057377 1_555
O32 P2 1.554490 1_555
O32 Zr10 2.151714 1_555
O33 Si11 1.654529 1_555
O33 Zr11 2.055786 1_555
O34 Si12 1.650931 1_555
O34 Zr11 2.047276 1_555
O35 P1 1.556542 1_555
O35 Zr11 2.168741 1_555
O36 Si14 1.654530 1_555
O36 Zr0 2.169032 1_465
O37 Si13 1.643003 1_555
O37 Zr0 2.133961 1_565
O38 P2 1.554754 1_555
O38 Zr0 2.239721 1_455
O39 Si11 1.643446 1_555
O39 Zr1 2.133725 1_455
O40 Si12 1.657897 1_555
O40 Zr1 2.170613 1_465
O41 P1 1.551757 1_555
O41 Zr1 2.246445 1_565
O42 Si6 1.640976 1_555
O42 Zr2 2.150291 1_645
O43 Si7 1.645260 1_555
O43 Zr2 2.158021 1_545
O44 Si8 1.647058 1_555
O44 Zr2 2.167440 1_655
O45 Si9 1.644760 1_555
O45 Zr3 2.135858 1_555
O46 P0 1.553862 1_555
O46 Zr3 2.242533 1_545
O47 Si10 1.656721 1_555
O47 Zr3 2.169264 1_445
O48 Si5 1.643425 1_545
O48 Zr4 2.159196 1_555
O49 Si3 1.645182 1_555
O49 Zr4 2.154702 1_555
O50 Si4 1.643353 1_555
O50 Zr4 2.156632 1_555
O51 Si1 1.649883 1_555
O51 Zr5 2.100010 1_555
O52 Si2 1.644579 1_555
O52 Zr5 2.158947 1_555
O53 Si0 1.643792 1_555
O53 Zr5 2.159780 1_555
O54 P1 1.566193 1_555
O54 Zr6 2.204341 1_555
O55 Si11 1.645005 1_655
O55 Zr6 2.144974 1_555
O56 Si12 1.645595 1_545
O56 Zr6 2.141192 1_555
O57 Si13 1.645490 1_545
O57 Zr7 2.143435 1_555
O58 P2 1.556435 1_555
O58 Zr7 2.282469 1_555
O59 Si14 1.642503 1_655
O59 Zr7 2.141993 1_555
O60 Si10 1.643704 1_555
O60 Zr8 2.138601 1_555
O61 Si9 1.660741 1_455
O61 Zr8 2.122761 1_555
O62 P0 1.542992 1_565
O62 Zr8 2.232639 1_555
O63 Si7 1.652752 1_565
O63 Zr9 2.122390 1_555
O64 Si8 1.646925 1_555
O64 Zr9 2.160227 1_555
O65 Si6 1.642694 1_455
O65 Zr9 2.143187 1_555
O66 Si0 1.652079 1_565
O66 Zr10 2.117559 1_555
O67 Si1 1.641712 1_555
O67 Zr10 2.167163 1_555
O68 Si2 1.646228 1_455
O68 Zr10 2.143901 1_555
O69 Si3 1.643975 1_555
O69 Zr11 2.170360 1_555
O70 Si4 1.652112 1_455
O70 Zr11 2.117287 1_555
O71 Si5 1.643483 1_555
O71 Zr11 2.141286 1_555
