# generated using pymatgen
data_Ba2MgFeWO6
_symmetry_space_group_name_H-M   'P 1'
_cell_length_a   6.78218481
_cell_length_b   6.73981022
_cell_length_c   6.78093982
_cell_angle_alpha   74.47869084
_cell_angle_beta   130.26873343
_cell_angle_gamma   128.68313006
_symmetry_Int_Tables_number   1
_chemical_formula_structural   Ba2MgFeWO6
_chemical_formula_sum   'Ba2 Mg1 Fe1 W1 O6'
_cell_volume   179.71488964
_cell_formula_units_Z   1
loop_
 _symmetry_equiv_pos_site_id
 _symmetry_equiv_pos_as_xyz
  1  'x, y, z'
loop_
 _atom_site_type_symbol
 _atom_site_label
 _atom_site_symmetry_multiplicity
 _atom_site_fract_x
 _atom_site_fract_y
 _atom_site_fract_z
 _atom_site_occupancy
  Ba  Ba0  1  0.50008000  0.81483200  0.31455400  1
  Ba  Ba1  1  0.50054200  0.18564700  0.68565400  1
  Mg  Mg0  1  0.49980900  0.49971400  0.00018000  1
  Fe  Fe0  1  0.99952800  0.49945800  0.49950400  1
  W  W0  1  0.99967800  0.99963000  0.00005300  1
  O  O0  1  0.48769100  0.73384400  0.74847800  1
  O  O1  1  0.98620400  0.73373200  0.24714600  1
  O  O2  1  0.01320500  0.26605000  0.75253500  1
  O  O3  1  0.51179200  0.26554700  0.25175700  1
  O  O4  1  0.99886800  0.19020500  0.19221600  1
  O  O5  1  0.00260400  0.81134100  0.80792300  1
loop_
_geom_bond_atom_site_label_1
_geom_bond_atom_site_label_2
_geom_bond_distance
_geom_bond_site_symmetry_2
Ba0 O5 2.850759 1_655
Ba0 O5 2.854150 1_554
Ba0 O1 2.889175 1_455
Ba0 O0 2.892318 1_555
Ba0 O2 2.902221 1_665
Ba0 O3 2.909513 1_565
Ba0 O4 3.209580 1_455
Ba0 O4 3.215420 1_565
Ba1 O4 2.851578 1_455
Ba1 O4 2.853312 1_556
Ba1 O2 2.885561 1_655
Ba1 O3 2.888495 1_555
Ba1 O1 2.905836 1_445
Ba1 O0 2.912643 1_545
Ba1 O5 3.210456 1_545
Ba1 O5 3.215202 1_655
Mg0 O1 1.985558 1_555
Mg0 O2 1.986402 1_554
Mg0 O3 1.986910 1_555
Mg0 O0 1.987272 1_554
Fe0 O2 1.989811 1_655
Fe0 O1 1.990467 1_555
Fe0 O3 1.991119 1_555
Fe0 O0 1.992714 1_655
O0 W0 2.092572 1_556
O1 W0 2.100845 1_555
O2 W0 2.104731 1_446
O3 W0 2.093094 1_445
O4 W0 2.064355 1_545
O5 W0 2.063476 1_456
