# generated using pymatgen
data_Ce(In2Au)2
_symmetry_space_group_name_H-M   'P 1'
_cell_length_a   4.73720500
_cell_length_b   7.47453200
_cell_length_c   18.83660800
_cell_angle_alpha   90.00000000
_cell_angle_beta   90.00000000
_cell_angle_gamma   90.00000000
_symmetry_Int_Tables_number   1
_chemical_formula_structural   Ce(In2Au)2
_chemical_formula_sum   'Ce4 In16 Au8'
_cell_volume   666.97396918
_cell_formula_units_Z   4
loop_
 _symmetry_equiv_pos_site_id
 _symmetry_equiv_pos_as_xyz
  1  'x, y, z'
loop_
 _atom_site_type_symbol
 _atom_site_label
 _atom_site_symmetry_multiplicity
 _atom_site_fract_x
 _atom_site_fract_y
 _atom_site_fract_z
 _atom_site_occupancy
  Ce  Ce0  1  0.75000000  0.97805000  0.85939400  1
  Ce  Ce1  1  0.25000000  0.02195000  0.14060600  1
  Ce  Ce2  1  0.25000000  0.47805000  0.64060600  1
  Ce  Ce3  1  0.75000000  0.52195000  0.35939400  1
  In  In0  1  0.25000000  0.26633800  0.81138800  1
  In  In1  1  0.75000000  0.73366200  0.18861200  1
  In  In2  1  0.75000000  0.76633800  0.68861200  1
  In  In3  1  0.25000000  0.23366200  0.31138800  1
  In  In4  1  0.25000000  0.67824800  0.81525000  1
  In  In5  1  0.75000000  0.32175200  0.18475000  1
  In  In6  1  0.75000000  0.17824800  0.68475000  1
  In  In7  1  0.25000000  0.82175200  0.31525000  1
  In  In8  1  0.25000000  0.14531800  0.96488900  1
  In  In9  1  0.75000000  0.85468200  0.03511100  1
  In  In10  1  0.75000000  0.64531800  0.53511100  1
  In  In11  1  0.25000000  0.35468200  0.46488900  1
  In  In12  1  0.25000000  0.48726300  0.06783700  1
  In  In13  1  0.75000000  0.51273700  0.93216300  1
  In  In14  1  0.75000000  0.98726300  0.43216300  1
  In  In15  1  0.25000000  0.01273700  0.56783700  1
  Au  Au0  1  0.25000000  0.75887500  0.96153700  1
  Au  Au1  1  0.75000000  0.24112500  0.03846300  1
  Au  Au2  1  0.75000000  0.25887500  0.53846300  1
  Au  Au3  1  0.25000000  0.74112500  0.46153700  1
  Au  Au4  1  0.25000000  0.96854900  0.71809600  1
  Au  Au5  1  0.75000000  0.03145100  0.28190400  1
  Au  Au6  1  0.75000000  0.46854900  0.78190400  1
  Au  Au7  1  0.25000000  0.53145100  0.21809600  1
loop_
_geom_bond_atom_site_label_1
_geom_bond_atom_site_label_2
_geom_bond_distance
_geom_bond_site_symmetry_2
Ce0 In0 3.327345 1_565
Ce0 In0 3.327345 1_665
Ce0 In8 3.335002 1_565
Ce0 In8 3.335002 1_665
Ce0 In4 3.365004 1_555
Ce0 In4 3.365004 1_655
Ce0 In9 3.435960 1_556
Ce0 In2 3.585099 1_555
Ce0 In6 3.614042 1_565
Ce0 In13 3.738360 1_555
Ce1 In1 3.327345 1_545
Ce1 In1 3.327345 1_445
Ce1 In9 3.335002 1_445
Ce1 In9 3.335002 1_545
Ce1 In5 3.365004 1_555
Ce1 In5 3.365004 1_455
Ce1 In8 3.435960 1_554
Ce1 In3 3.585099 1_555
Ce1 In7 3.614042 1_545
Ce1 In12 3.738360 1_555
Ce2 In2 3.327345 1_455
Ce2 In2 3.327345 1_555
Ce2 In10 3.335002 1_455
Ce2 In10 3.335002 1_555
Ce2 In6 3.365004 1_455
Ce2 In6 3.365004 1_555
Ce2 In11 3.435960 1_555
Ce2 In0 3.585099 1_555
Ce2 In4 3.614042 1_555
Ce2 In15 3.738360 1_555
Ce3 In3 3.327345 1_555
Ce3 In3 3.327345 1_655
Ce3 In11 3.335002 1_555
Ce3 In11 3.335002 1_655
Ce3 In7 3.365004 1_555
Ce3 In7 3.365004 1_655
Ce3 In10 3.435960 1_555
Ce3 In1 3.585099 1_555
Ce3 In5 3.614042 1_555
Ce3 In14 3.738360 1_555
In0 In8 3.029630 1_555
In0 In4 3.079694 1_555
In0 In6 3.425505 1_455
In0 In6 3.425505 1_555
In1 In9 3.029630 1_555
In1 In5 3.079694 1_555
In1 In7 3.425505 1_555
In1 In7 3.425505 1_655
In2 In6 3.079694 1_565
In2 In4 3.425505 1_555
In2 In4 3.425505 1_655
In3 In7 3.079694 1_545
In3 In5 3.425505 1_455
In3 In5 3.425505 1_555
In10 In2 3.029630 1_555
In10 In14 3.208267 1_555
In11 In3 3.029630 1_555
In11 In15 3.208267 1_555
In12 In8 3.208267 1_554
In12 In5 3.462747 1_455
In12 In5 3.462747 1_555
In13 In9 3.208267 1_556
In13 In4 3.462747 1_555
In13 In4 3.462747 1_655
In14 In7 3.462747 1_555
In14 In7 3.462747 1_655
In15 In6 3.462747 1_455
In15 In6 3.462747 1_555
Au0 In4 2.820682 1_555
Au0 In9 2.836154 1_556
Au0 In9 2.836154 1_456
Au0 In12 2.851479 1_556
Au0 In8 2.889171 1_565
Au0 In13 3.049781 1_455
Au0 In13 3.049781 1_555
Au0 Ce0 3.463518 1_555
Au0 Ce0 3.463518 1_455
Au1 In5 2.820682 1_555
Au1 In8 2.836154 1_554
Au1 In8 2.836154 1_654
Au1 In13 2.851479 1_554
Au1 In9 2.889171 1_545
Au1 In12 3.049781 1_655
Au1 In12 3.049781 1_555
Au1 Ce1 3.463518 1_555
Au1 Ce1 3.463518 1_655
Au2 In6 2.820682 1_555
Au2 In11 2.836154 1_555
Au2 In11 2.836154 1_655
Au2 In14 2.851479 1_545
Au2 In10 2.889171 1_555
Au2 In15 3.049781 1_555
Au2 In15 3.049781 1_655
Au2 Ce2 3.463518 1_555
Au2 Ce2 3.463518 1_655
Au3 In7 2.820682 1_555
Au3 In10 2.836154 1_455
Au3 In10 2.836154 1_555
Au3 In15 2.851479 1_565
Au3 In11 2.889171 1_555
Au3 In14 3.049781 1_455
Au3 In14 3.049781 1_555
Au3 Ce3 3.463518 1_455
Au3 Ce3 3.463518 1_555
Au4 In0 2.835922 1_565
Au4 In4 2.838556 1_555
Au4 In15 2.849576 1_565
Au4 In2 2.864114 1_555
Au4 In2 2.864114 1_455
Au4 In6 2.908877 1_565
Au4 In6 2.908877 1_465
Au4 Ce0 3.563608 1_455
Au4 Ce0 3.563608 1_555
Au5 In1 2.835922 1_545
Au5 In5 2.838556 1_555
Au5 In14 2.849576 1_545
Au5 In3 2.864114 1_555
Au5 In3 2.864114 1_655
Au5 In7 2.908877 1_645
Au5 In7 2.908877 1_545
Au5 Ce1 3.563608 1_555
Au5 Ce1 3.563608 1_655
Au6 In2 2.835922 1_555
Au6 In6 2.838556 1_555
Au6 In13 2.849576 1_555
Au6 In0 2.864114 1_555
Au6 In0 2.864114 1_655
Au6 In4 2.908877 1_655
Au6 In4 2.908877 1_555
Au6 Ce2 3.563608 1_555
Au6 Ce2 3.563608 1_655
Au7 In3 2.835922 1_555
Au7 In7 2.838556 1_555
Au7 In12 2.849576 1_555
Au7 In1 2.864114 1_455
Au7 In1 2.864114 1_555
Au7 In5 2.908877 1_455
Au7 In5 2.908877 1_555
Au7 Ce3 3.563608 1_455
Au7 Ce3 3.563608 1_555
