# generated using pymatgen
data_Li3Ti2(PO4)3
_symmetry_space_group_name_H-M   'P 1'
_cell_length_a   8.90584000
_cell_length_b   8.52446000
_cell_length_c   14.68657967
_cell_angle_alpha   55.62604743
_cell_angle_beta   90.00000000
_cell_angle_gamma   90.00000000
_symmetry_Int_Tables_number   1
_chemical_formula_structural   Li3Ti2(PO4)3
_chemical_formula_sum   'Li12 Ti8 P12 O48'
_cell_volume   920.26148139
_cell_formula_units_Z   4
loop_
 _symmetry_equiv_pos_site_id
 _symmetry_equiv_pos_as_xyz
  1  'x, y, z'
loop_
 _atom_site_type_symbol
 _atom_site_label
 _atom_site_symmetry_multiplicity
 _atom_site_fract_x
 _atom_site_fract_y
 _atom_site_fract_z
 _atom_site_occupancy
  Li  Li0  1  0.51193000  0.71691700  0.34743600  1
  Li  Li1  1  0.41430600  0.39585600  0.18744700  1
  Li  Li2  1  0.98807000  0.71691700  0.84743600  1
  Li  Li3  1  0.08569400  0.39585600  0.68744700  1
  Li  Li4  1  0.48807000  0.28308300  0.65256400  1
  Li  Li5  1  0.21771400  0.99852100  0.82208100  1
  Li  Li6  1  0.71771400  0.00147900  0.67791900  1
  Li  Li7  1  0.28228600  0.99852100  0.32208100  1
  Li  Li8  1  0.01193000  0.28308300  0.15256400  1
  Li  Li9  1  0.58569400  0.60414400  0.81255300  1
  Li  Li10  1  0.91430600  0.60414400  0.31255300  1
  Li  Li11  1  0.78228600  0.00147900  0.17791900  1
  Ti  Ti0  1  0.97417000  0.65296000  0.10440500  1
  Ti  Ti1  1  0.52583000  0.65296000  0.60440500  1
  Ti  Ti2  1  0.03595700  0.13899300  0.60469400  1
  Ti  Ti3  1  0.02583000  0.34704000  0.89559500  1
  Ti  Ti4  1  0.46404300  0.13899300  0.10469400  1
  Ti  Ti5  1  0.47417000  0.34704000  0.39559500  1
  Ti  Ti6  1  0.96404300  0.86100700  0.39530600  1
  Ti  Ti7  1  0.53595700  0.86100700  0.89530600  1
  P  P0  1  0.11960700  0.26708800  0.34527200  1
  P  P1  1  0.24998000  0.55128700  0.49050100  1
  P  P2  1  0.38039300  0.26708800  0.84527200  1
  P  P3  1  0.89077300  0.03551100  0.84941000  1
  P  P4  1  0.60922700  0.03551100  0.34941000  1
  P  P5  1  0.39077300  0.96448900  0.65059000  1
  P  P6  1  0.74998000  0.44871300  0.00949900  1
  P  P7  1  0.10922700  0.96448900  0.15059000  1
  P  P8  1  0.75002000  0.44871300  0.50949900  1
  P  P9  1  0.88039300  0.73291200  0.65472800  1
  P  P10  1  0.61960700  0.73291200  0.15472800  1
  P  P11  1  0.25002000  0.55128700  0.99050100  1
  O  O0  1  0.70764000  0.70374400  0.67273700  1
  O  O1  1  0.86127800  0.48447200  0.91769400  1
  O  O2  1  0.76565100  0.01434200  0.31184500  1
  O  O3  1  0.60941600  0.15649400  0.39654700  1
  O  O4  1  0.95591200  0.83220400  0.93382200  1
  O  O5  1  0.16659700  0.54075300  0.90137500  1
  O  O6  1  0.12867300  0.39724300  0.55285400  1
  O  O7  1  0.62867300  0.60275700  0.94714600  1
  O  O8  1  0.99605200  0.87396500  0.25053100  1
  O  O9  1  0.45591200  0.16779600  0.56617800  1
  O  O10  1  0.31967200  0.75199700  0.93680300  1
  O  O11  1  0.33340300  0.54075300  0.40137500  1
  O  O12  1  0.49605200  0.12603500  0.24946900  1
  O  O13  1  0.52882700  0.54778200  0.22362000  1
  O  O14  1  0.10941600  0.84350600  0.10345300  1
  O  O15  1  0.79236000  0.70374400  0.17273700  1
  O  O16  1  0.04408800  0.16779600  0.06617800  1
  O  O17  1  0.18032800  0.75199700  0.43680300  1
  O  O18  1  0.37132700  0.39724300  0.05285400  1
  O  O19  1  0.89058400  0.15649400  0.89654700  1
  O  O20  1  0.83340300  0.45924700  0.09862500  1
  O  O21  1  0.42205200  0.12830600  0.81117800  1
  O  O22  1  0.20764000  0.29625600  0.82726300  1
  O  O23  1  0.68032800  0.24800300  0.06319700  1
  O  O24  1  0.58571700  0.82956800  0.03087600  1
  O  O25  1  0.13872200  0.51552800  0.08230600  1
  O  O26  1  0.87132700  0.60275700  0.44714600  1
  O  O27  1  0.00394800  0.12603500  0.74946900  1
  O  O28  1  0.41428300  0.17043200  0.96912400  1
  O  O29  1  0.08571700  0.17043200  0.46912400  1
  O  O30  1  0.97117300  0.54778200  0.72362000  1
  O  O31  1  0.36127800  0.51552800  0.58230600  1
  O  O32  1  0.92205200  0.87169400  0.68882200  1
  O  O33  1  0.81967200  0.24800300  0.56319700  1
  O  O34  1  0.57794800  0.87169400  0.18882200  1
  O  O35  1  0.07794800  0.12830600  0.31117800  1
  O  O36  1  0.91428300  0.82956800  0.53087600  1
  O  O37  1  0.02882700  0.45221800  0.27638000  1
  O  O38  1  0.23434900  0.98565800  0.68815500  1
  O  O39  1  0.26565100  0.98565800  0.18815500  1
  O  O40  1  0.50394800  0.87396500  0.75053100  1
  O  O41  1  0.47117300  0.45221800  0.77638000  1
  O  O42  1  0.73434900  0.01434200  0.81184500  1
  O  O43  1  0.29236000  0.29625600  0.32726300  1
  O  O44  1  0.63872200  0.48447200  0.41769400  1
  O  O45  1  0.66659700  0.45924700  0.59862500  1
  O  O46  1  0.39058400  0.84350600  0.60345300  1
  O  O47  1  0.54408800  0.83220400  0.43382200  1
loop_
_geom_bond_atom_site_label_1
_geom_bond_atom_site_label_2
_geom_bond_distance
_geom_bond_site_symmetry_2
Li0 O44 1.989295 1_555
Li0 O34 2.010588 1_555
Li0 O47 2.016281 1_555
Li0 O11 2.016742 1_555
Li1 O13 1.943347 1_555
Li1 O18 2.006899 1_555
Li1 O43 2.036715 1_555
Li1 O12 2.069859 1_555
Li2 O1 1.989295 1_555
Li2 O32 2.010588 1_555
Li2 O4 2.016281 1_555
Li2 O5 2.016742 1_655
Li3 O30 1.943347 1_455
Li3 O6 2.006899 1_555
Li3 O22 2.036715 1_555
Li3 O27 2.069859 1_555
Li4 O31 1.989295 1_555
Li4 O21 2.010588 1_555
Li4 O9 2.016281 1_555
Li4 O45 2.016742 1_555
Li5 O10 2.020247 1_555
Li5 O38 2.036237 1_555
Li5 O21 2.088368 1_565
Li5 O27 2.152716 1_565
Li6 O33 2.020247 1_555
Li6 O42 2.036237 1_555
Li6 O32 2.088368 1_545
Li6 O40 2.152716 1_545
Li7 O17 2.020247 1_555
Li7 O39 2.036237 1_555
Li7 O35 2.088368 1_565
Li7 O12 2.152716 1_565
Li8 O25 1.989295 1_555
Li8 O35 2.010588 1_555
Li8 O16 2.016281 1_555
Li8 O20 2.016742 1_455
Li9 O41 1.943347 1_555
Li9 O7 2.006899 1_555
Li9 O0 2.036715 1_555
Li9 O40 2.069859 1_555
Li10 O37 1.943347 1_655
Li10 O26 2.006899 1_555
Li10 O15 2.036715 1_555
Li10 O8 2.069859 1_555
Li11 O23 2.020247 1_555
Li11 O2 2.036237 1_555
Li11 O34 2.088368 1_545
Li11 O8 2.152716 1_545
O0 P9 1.557091 1_555
O0 Ti1 2.075291 1_555
O1 P6 1.558597 1_556
O1 Ti3 2.013652 1_655
O2 P4 1.545978 1_555
O2 Ti6 2.126870 1_545
O3 P4 1.532664 1_555
O3 Ti5 2.015857 1_555
O4 P3 1.565543 1_565
O4 Ti0 2.077271 1_556
O5 P11 1.551171 1_555
O5 Ti3 2.112797 1_555
O6 P1 1.540202 1_555
O6 Ti2 2.053098 1_555
O7 P6 1.540202 1_556
O7 Ti7 2.053098 1_555
O8 P7 1.576964 1_655
O8 Ti6 2.085473 1_555
O9 P5 1.565543 1_545
O9 Ti5 2.077271 1_555
O10 P11 1.552559 1_555
O10 Ti7 2.075015 1_555
O11 P1 1.551171 1_555
O11 Ti5 2.112797 1_555
O12 P4 1.576964 1_555
O12 Ti4 2.085473 1_555
O13 P10 1.537803 1_555
O13 Ti5 2.159650 1_555
O14 P7 1.532664 1_555
O14 Ti0 2.015857 1_455
O15 P10 1.557091 1_555
O15 Ti0 2.075291 1_555
O16 P7 1.565543 1_545
O16 Ti3 2.077271 1_554
O17 P1 1.552559 1_555
O17 Ti6 2.075015 1_455
O18 P11 1.540202 1_554
O18 Ti4 2.053098 1_555
O19 P3 1.532664 1_555
O19 Ti3 2.015857 1_655
O20 P6 1.551171 1_555
O20 Ti0 2.112797 1_555
O21 P2 1.567438 1_555
O21 Ti7 2.137420 1_545
O22 P2 1.557091 1_555
O22 Ti3 2.075291 1_555
O23 P6 1.552559 1_555
O23 Ti4 2.075015 1_555
O24 P10 1.544756 1_555
O24 Ti7 1.905253 1_554
O25 P11 1.558597 1_554
O25 Ti0 2.013652 1_455
O26 P8 1.540202 1_555
O26 Ti6 2.053098 1_555
O27 P3 1.576964 1_455
O27 Ti2 2.085473 1_555
O28 P2 1.544756 1_555
O28 Ti4 1.905253 1_556
O29 P0 1.544756 1_555
O29 Ti2 1.905253 1_555
O30 P9 1.537803 1_555
O30 Ti3 2.159650 1_655
O31 P1 1.558597 1_555
O31 Ti1 2.013652 1_555
O32 P9 1.567438 1_555
O32 Ti2 2.137420 1_665
O33 P8 1.552559 1_555
O33 Ti2 2.075015 1_655
O34 P10 1.567438 1_555
O34 Ti4 2.137420 1_565
O35 P0 1.567438 1_555
O35 Ti6 2.137420 1_445
O36 P9 1.544756 1_555
O36 Ti6 1.905253 1_555
O37 P0 1.537803 1_555
O37 Ti0 2.159650 1_455
O38 P5 1.545978 1_555
O38 Ti2 2.126870 1_565
O39 P7 1.545978 1_555
O39 Ti4 2.126870 1_565
O40 P5 1.576964 1_555
O40 Ti7 2.085473 1_555
O41 P2 1.537803 1_555
O41 Ti1 2.159650 1_555
O42 P3 1.545978 1_555
O42 Ti7 2.126870 1_545
O43 P0 1.557091 1_555
O43 Ti5 2.075291 1_555
O44 P8 1.558597 1_555
O44 Ti5 2.013652 1_555
O45 P8 1.551171 1_555
O45 Ti1 2.112797 1_555
O46 P5 1.532664 1_555
O46 Ti1 2.015857 1_555
O47 P4 1.565543 1_565
O47 Ti1 2.077271 1_555
