# generated using pymatgen
data_MgVSbO4
_symmetry_space_group_name_H-M   'P 1'
_cell_length_a   3.15396057
_cell_length_b   5.65615096
_cell_length_c   5.65615096
_cell_angle_alpha   76.45909652
_cell_angle_beta   90.00000000
_cell_angle_gamma   90.00000000
_symmetry_Int_Tables_number   1
_chemical_formula_structural   MgVSbO4
_chemical_formula_sum   'Mg1 V1 Sb1 O4'
_cell_volume   98.09688277
_cell_formula_units_Z   1
loop_
 _symmetry_equiv_pos_site_id
 _symmetry_equiv_pos_as_xyz
  1  'x, y, z'
loop_
 _atom_site_type_symbol
 _atom_site_label
 _atom_site_symmetry_multiplicity
 _atom_site_fract_x
 _atom_site_fract_y
 _atom_site_fract_z
 _atom_site_occupancy
  Mg  Mg0  1  0.50000000  0.19432663  0.19432663  1
  V  V0  1  0.00000000  0.92602113  0.92602113  1
  Sb  Sb0  1  0.50000000  0.53199440  0.53199440  1
  O  O0  1  0.50000000  0.17851970  0.83208335  1
  O  O1  1  0.50000000  0.83208335  0.17851970  1
  O  O2  1  0.00000000  0.32045237  0.32045237  1
  O  O3  1  0.00000000  0.71104643  0.71104643  1
loop_
_geom_bond_atom_site_label_1
_geom_bond_atom_site_label_2
_geom_bond_distance
_geom_bond_site_symmetry_2
Mg0 O2 1.934689 1_655
Mg0 O2 1.934689 1_555
Mg0 O1 2.071661 1_545
Mg0 O0 2.071661 1_554
O0 V0 2.110332 1_545
O0 V0 2.110332 1_645
O0 Sb0 2.299805 1_555
O1 V0 2.110332 1_554
O1 V0 2.110332 1_654
O1 Sb0 2.299805 1_555
O2 Sb0 2.453684 1_455
O2 Sb0 2.453684 1_555
O3 V0 1.910317 1_555
O3 Sb0 2.240193 1_455
O3 Sb0 2.240193 1_555
