# generated using pymatgen
data_Na4Hf2Al2Si3(SO8)3
_symmetry_space_group_name_H-M   'P 1'
_cell_length_a   8.84351737
_cell_length_b   8.83790884
_cell_length_c   22.47125601
_cell_angle_alpha   90.24595471
_cell_angle_beta   88.53690793
_cell_angle_gamma   119.91012629
_symmetry_Int_Tables_number   1
_chemical_formula_structural   Na4Hf2Al2Si3(SO8)3
_chemical_formula_sum   'Na12 Hf6 Al6 Si9 S9 O72'
_cell_volume   1521.81870657
_cell_formula_units_Z   3
loop_
 _symmetry_equiv_pos_site_id
 _symmetry_equiv_pos_as_xyz
  1  'x, y, z'
loop_
 _atom_site_type_symbol
 _atom_site_label
 _atom_site_symmetry_multiplicity
 _atom_site_fract_x
 _atom_site_fract_y
 _atom_site_fract_z
 _atom_site_occupancy
  Na  Na0  1  0.00340881  0.64896013  0.25368996  1
  Na  Na1  1  0.00042874  0.35751856  0.73916412  1
  Na  Na2  1  0.66609672  0.97547279  0.58837334  1
  Na  Na3  1  0.67140732  0.69742356  0.08202615  1
  Na  Na4  1  0.33743653  0.30626831  0.90233479  1
  Na  Na5  1  0.32558181  0.02658576  0.42214526  1
  Na  Na6  1  0.01132366  0.00334055  0.50069933  1
  Na  Na7  1  0.98749045  0.97950666  0.99320587  1
  Na  Na8  1  0.65567947  0.32991213  0.82019841  1
  Na  Na9  1  0.66547329  0.34620483  0.33151028  1
  Na  Na10  1  0.33646365  0.67920148  0.16766608  1
  Na  Na11  1  0.33531038  0.66684842  0.65924568  1
  Hf  Hf0  1  0.00987117  0.01165453  0.64530888  1
  Hf  Hf1  1  0.00326333  0.98807700  0.14882923  1
  Hf  Hf2  1  0.67567928  0.34797256  0.97990197  1
  Hf  Hf3  1  0.67492194  0.33833560  0.48304071  1
  Hf  Hf4  1  0.33729162  0.67187204  0.31279063  1
  Hf  Hf5  1  0.34937145  0.66936223  0.80973055  1
  Al  Al0  1  0.00303647  0.96654968  0.34817025  1
  Al  Al1  1  0.97648061  0.99021838  0.84280179  1
  Al  Al2  1  0.64335659  0.29100484  0.68524765  1
  Al  Al3  1  0.68077975  0.34676566  0.19291469  1
  Al  Al4  1  0.33249374  0.67518793  0.01718482  1
  Al  Al5  1  0.28400664  0.66539300  0.52449601  1
  Si  Si0  1  0.30808219  0.01850872  0.25118917  1
  Si  Si1  1  0.70872334  0.70270745  0.24988437  1
  Si  Si2  1  0.29521276  0.27606404  0.75419211  1
  Si  Si3  1  0.71260839  0.00827374  0.74862330  1
  Si  Si4  1  0.95705863  0.34309333  0.58828106  1
  Si  Si5  1  0.37518209  0.03403831  0.58048537  1
  Si  Si6  1  0.97107927  0.61741133  0.08577697  1
  Si  Si7  1  0.63282154  0.68717835  0.91956462  1
  Si  Si8  1  0.03623629  0.67016044  0.41572053  1
  S  S0  1  0.99483896  0.28237995  0.25167391  1
  S  S1  1  0.99474522  0.71055024  0.75363740  1
  S  S2  1  0.65958266  0.61886734  0.58614579  1
  S  S3  1  0.66163182  0.04365515  0.08455219  1
  S  S4  1  0.37635959  0.33861962  0.08399609  1
  S  S5  1  0.04985786  0.37897122  0.91919968  1
  S  S6  1  0.32887324  0.95211380  0.92031212  1
  S  S7  1  0.63595251  0.95575867  0.41680711  1
  S  S8  1  0.32455674  0.37596461  0.41908006  1
  O  O0  1  0.21309016  0.04069870  0.31112153  1
  O  O1  1  0.84122143  0.80454090  0.30328871  1
  O  O2  1  0.97478705  0.17701687  0.30401220  1
  O  O3  1  0.19758165  0.15992157  0.81564060  1
  O  O4  1  0.97734269  0.80008069  0.80718040  1
  O  O5  1  0.83641882  0.03827914  0.80482786  1
  O  O6  1  0.78789691  0.96489999  0.68849283  1
  O  O7  1  0.16570060  0.19282696  0.69832046  1
  O  O8  1  0.02892021  0.81460782  0.69910832  1
  O  O9  1  0.78520396  0.81702877  0.18730156  1
  O  O10  1  0.02100182  0.20700541  0.19571936  1
  O  O11  1  0.17276155  0.97277240  0.19541868  1
  O  O12  1  0.86039491  0.36465227  0.64743244  1
  O  O13  1  0.50285544  0.12825139  0.63550857  1
  O  O14  1  0.63780466  0.51158262  0.63839694  1
  O  O15  1  0.86808829  0.49790204  0.14418534  1
  O  O16  1  0.64186209  0.12892231  0.13738832  1
  O  O17  1  0.48789240  0.36065848  0.13425425  1
  O  O18  1  0.45047099  0.30650219  0.02767690  1
  O  O19  1  0.83796024  0.52890764  0.02934745  1
  O  O20  1  0.67759381  0.14283997  0.02934537  1
  O  O21  1  0.45108004  0.14660625  0.51799618  1
  O  O22  1  0.68866343  0.54149331  0.53024006  1
  O  O23  1  0.83510525  0.30828084  0.52995868  1
  O  O24  1  0.53173337  0.70109272  0.98061073  1
  O  O25  1  0.16015883  0.47482917  0.97022306  1
  O  O26  1  0.31083708  0.84521903  0.97383272  1
  O  O27  1  0.55717449  0.85398360  0.47131710  1
  O  O28  1  0.31484105  0.46928012  0.47182704  1
  O  O29  1  0.16841704  0.70422701  0.46997263  1
  O  O30  1  0.12257224  0.64221957  0.35412154  1
  O  O31  1  0.51923270  0.86793910  0.36491427  1
  O  O32  1  0.35266350  0.48070436  0.36363839  1
  O  O33  1  0.11710310  0.47953405  0.86377732  1
  O  O34  1  0.35100731  0.87368366  0.86603591  1
  O  O35  1  0.49778717  0.63702785  0.86512987  1
  O  O36  1  0.02733128  0.85173027  0.41022673  1
  O  O37  1  0.81196337  0.98299385  0.40510802  1
  O  O38  1  0.16563231  0.20214649  0.41431132  1
  O  O39  1  0.04051784  0.20762377  0.91668302  1
  O  O40  1  0.17688499  0.97728842  0.91917327  1
  O  O41  1  0.82698079  0.85324542  0.90614629  1
  O  O42  1  0.97013652  0.16276468  0.58883509  1
  O  O43  1  0.17724867  0.99839303  0.58712542  1
  O  O44  1  0.81945000  0.79590931  0.58809362  1
  O  O45  1  0.98146772  0.81156903  0.08710444  1
  O  O46  1  0.82227063  0.02613404  0.08526179  1
  O  O47  1  0.19794307  0.18824865  0.08904693  1
  O  O48  1  0.70165889  0.18577874  0.74375993  1
  O  O49  1  0.48918512  0.30836683  0.74055928  1
  O  O50  1  0.83946472  0.53771295  0.75056047  1
  O  O51  1  0.70660822  0.51792258  0.24300616  1
  O  O52  1  0.83931644  0.30492161  0.24626126  1
  O  O53  1  0.49868640  0.18270434  0.23639130  1
  O  O54  1  0.64068289  0.50070561  0.92505860  1
  O  O55  1  0.86822607  0.34775541  0.92647178  1
  O  O56  1  0.48929633  0.13042308  0.92475601  1
  O  O57  1  0.64138694  0.12921986  0.41876959  1
  O  O58  1  0.47956460  0.34823522  0.41977063  1
  O  O59  1  0.84144853  0.49987957  0.41978987  1
  O  O60  1  0.36761899  0.50179594  0.07737182  1
  O  O61  1  0.16350800  0.64086301  0.07194429  1
  O  O62  1  0.50714953  0.86285331  0.08033440  1
  O  O63  1  0.37314783  0.84814469  0.57278615  1
  O  O64  1  0.50841902  0.64331284  0.57847314  1
  O  O65  1  0.15074411  0.50894410  0.57823331  1
  O  O66  1  0.31454442  0.83439053  0.25547568  1
  O  O67  1  0.51202448  0.67051573  0.25509846  1
  O  O68  1  0.15138503  0.46304921  0.25435786  1
  O  O69  1  0.29941346  0.46704554  0.76029774  1
  O  O70  1  0.14942319  0.68507415  0.76045918  1
  O  O71  1  0.51398679  0.84236647  0.75553529  1
loop_
_geom_bond_atom_site_label_1
_geom_bond_atom_site_label_2
_geom_bond_distance
_geom_bond_site_symmetry_2
Na0 O51 2.299244 1_455
Na0 O66 2.401320 1_555
Na0 O30 2.528351 1_555
Na0 O68 2.560846 1_555
Na0 O52 2.643199 1_455
Na0 O1 2.657467 1_455
Na0 O15 2.792558 1_455
Na0 O11 2.793790 1_555
Na1 O48 2.298587 1_455
Na1 O69 2.379363 1_555
Na1 O12 2.448671 1_455
Na1 O70 2.561616 1_555
Na1 O50 2.620453 1_455
Na1 O7 2.671852 1_555
Na1 O5 2.843704 1_455
Na2 O63 2.288289 1_555
Na2 O42 2.352081 1_565
Na2 O6 2.540974 1_555
Na2 O44 2.550211 1_555
Na2 O64 2.557253 1_555
Na2 O13 2.623487 1_565
Na2 O27 2.841376 1_555
Na2 O23 2.856062 1_565
Na3 O60 2.366070 1_555
Na3 O45 2.409512 1_555
Na3 O46 2.522447 1_565
Na3 O62 2.523978 1_555
Na3 O9 2.601106 1_555
Na3 O24 2.627671 1_554
Na3 O19 2.805774 1_555
Na3 O17 2.825808 1_555
Na4 O39 2.331322 1_555
Na4 O3 2.346028 1_555
Na4 O54 2.423241 1_555
Na4 O40 2.545132 1_545
Na4 O56 2.568150 1_555
Na4 O35 2.661107 1_555
Na5 O36 2.320409 1_545
Na5 O21 2.434042 1_555
Na5 O58 2.464804 1_555
Na5 O57 2.468154 1_555
Na5 O38 2.577425 1_555
Na5 O29 2.684127 1_545
Na5 O0 2.735439 1_555
Na6 O36 2.469762 1_545
Na6 O43 2.477310 1_545
Na6 O38 2.494120 1_555
Na6 O42 2.547815 1_455
Na6 O44 2.618261 1_445
Na6 O37 2.762014 1_445
Na7 O40 2.337409 1_655
Na7 O41 2.372922 1_555
Na7 O39 2.507410 1_665
Na7 O45 2.569091 1_556
Na7 O46 2.650032 1_566
Na7 O47 2.872625 1_666
Na8 O48 2.280460 1_555
Na8 O49 2.293223 1_555
Na8 O50 2.319741 1_555
Na8 O54 2.828699 1_555
Na8 O56 2.840013 1_555
Na9 O51 2.414380 1_555
Na9 O59 2.495677 1_555
Na9 O58 2.549413 1_555
Na9 O52 2.563085 1_555
Na9 O53 2.615566 1_555
Na9 O57 2.677936 1_555
Na10 O66 2.456538 1_555
Na10 O62 2.489353 1_555
Na10 O67 2.559768 1_555
Na10 O61 2.593443 1_555
Na10 O68 2.621869 1_555
Na10 O60 2.650680 1_555
Na11 O65 2.404994 1_555
Na11 O64 2.419455 1_555
Na11 O63 2.431622 1_555
Na11 O71 2.699296 1_555
Na11 O69 2.795338 1_555
Na11 O70 2.823334 1_555
Hf0 O7 1.936191 1_555
Hf0 O43 1.996761 1_545
Hf0 O42 2.005697 1_455
Hf0 O6 2.015722 1_445
Hf0 O8 2.200846 1_545
Hf0 O44 2.238707 1_445
Hf1 O11 1.909131 1_555
Hf1 O9 1.941712 1_455
Hf1 O45 2.022302 1_455
Hf1 O10 2.137009 1_565
Hf1 O47 2.182494 1_565
Hf1 O46 2.318039 1_465
Hf2 O19 1.904927 1_556
Hf2 O54 1.971561 1_555
Hf2 O55 2.059098 1_555
Hf2 O18 2.102306 1_556
Hf2 O20 2.137840 1_556
Hf2 O56 2.207373 1_555
Hf3 O23 1.908599 1_555
Hf3 O21 1.998430 1_555
Hf3 O59 2.010224 1_555
Hf3 O22 2.033744 1_555
Hf3 O57 2.245397 1_555
Hf3 O58 2.300230 1_555
Hf4 O30 1.988151 1_555
Hf4 O67 1.996167 1_555
Hf4 O66 2.019788 1_555
Hf4 O31 2.064398 1_555
Hf4 O32 2.105253 1_555
Hf4 O68 2.212831 1_555
Hf5 O71 1.909415 1_555
Hf5 O35 1.953118 1_555
Hf5 O69 1.961234 1_555
Hf5 O70 2.172099 1_555
Hf5 O34 2.194803 1_555
Hf5 O33 2.227604 1_555
Al0 O1 1.770025 1_455
Al0 O36 1.807036 1_555
Al0 O0 1.812448 1_565
Al0 O37 2.155537 1_455
Al0 O2 2.235826 1_465
Al0 O38 2.389309 1_565
Al1 O5 1.739132 1_565
Al1 O4 1.861590 1_555
Al1 O3 1.862122 1_665
Al1 O41 1.887358 1_555
Al1 O39 2.388360 1_665
Al1 O40 2.541304 1_655
Al2 O13 1.771113 1_555
Al2 O48 1.839246 1_555
Al2 O12 1.872250 1_555
Al2 O49 1.883553 1_555
Al2 O14 2.242062 1_555
Al2 O50 2.499445 1_555
Al3 O53 1.803692 1_555
Al3 O51 1.805905 1_555
Al3 O15 1.854846 1_555
Al3 O52 2.036216 1_555
Al3 O16 2.173134 1_555
Al3 O17 2.233273 1_555
Al4 O61 1.815679 1_555
Al4 O24 1.832435 1_554
Al4 O26 1.884935 1_554
Al4 O25 1.986613 1_554
Al4 O62 2.164986 1_555
Al4 O60 2.188145 1_555
Al5 O65 1.753695 1_555
Al5 O29 1.755367 1_555
Al5 O63 1.779469 1_555
Al5 O28 2.217306 1_555
Al5 O27 2.428197 1_555
Al5 O64 2.441125 1_555
O0 Si0 1.631617 1_555
O1 Si1 1.622951 1_555
O2 S0 1.454600 1_555
O3 Si2 1.665294 1_555
O4 S1 1.483655 1_555
O5 Si3 1.625572 1_555
O6 Si3 1.618691 1_565
O7 Si2 1.629265 1_555
O8 S1 1.467013 1_455
O9 Si1 1.654729 1_555
O10 S0 1.486584 1_455
O11 Si0 1.660097 1_565
O12 Si4 1.623605 1_555
O13 Si5 1.619195 1_555
O14 S2 1.459672 1_555
O15 Si6 1.630735 1_555
O16 S3 1.456446 1_555
O17 S4 1.466176 1_555
O18 S4 1.500622 1_555
O19 Si6 1.659831 1_555
O20 S3 1.484697 1_555
O21 Si5 1.646208 1_555
O22 S2 1.504489 1_555
O23 Si4 1.647188 1_555
O24 Si7 1.655798 1_555
O25 S5 1.486087 1_555
O26 S6 1.487971 1_555
O27 S7 1.461423 1_555
O28 S8 1.466126 1_555
O29 Si8 1.631547 1_555
O30 Si8 1.640452 1_555
O31 S7 1.510753 1_555
O32 S8 1.495131 1_555
O33 S5 1.462595 1_555
O34 S6 1.456779 1_555
O35 Si7 1.631214 1_555
O36 Si8 1.650674 1_555
O37 S7 1.468303 1_555
O38 S8 1.483159 1_555
O39 S5 1.475820 1_555
O40 S6 1.468617 1_555
O41 Si7 1.630154 1_555
O42 Si4 1.654559 1_555
O43 Si5 1.619454 1_565
O44 S2 1.498465 1_555
O45 Si6 1.672212 1_555
O46 S3 1.504305 1_555
O47 S4 1.472938 1_555
O48 Si3 1.623538 1_555
O49 Si2 1.613525 1_555
O50 S1 1.461459 1_555
O51 Si1 1.630586 1_555
O52 S0 1.492690 1_555
O53 Si0 1.610523 1_555
O54 Si7 1.688941 1_555
O55 S5 1.492631 1_655
O56 S6 1.510744 1_545
O57 S7 1.510132 1_545
O58 S8 1.508504 1_555
O59 Si8 1.627370 1_655
O60 S4 1.490468 1_555
O61 Si6 1.630126 1_455
O62 S3 1.502313 1_565
O63 Si5 1.642454 1_565
O64 S2 1.470920 1_555
O65 Si4 1.616358 1_455
O66 Si0 1.659746 1_565
O67 Si1 1.617679 1_555
O68 S0 1.506226 1_455
O69 Si2 1.674775 1_555
O70 S1 1.504491 1_455
O71 Si3 1.636740 1_565
