# generated using pymatgen
data_Ti(ClO4)4
_symmetry_space_group_name_H-M   'P 1'
_cell_length_a   7.36965456
_cell_length_b   7.36959662
_cell_length_c   12.98710817
_cell_angle_alpha   73.70079455
_cell_angle_beta   73.70119850
_cell_angle_gamma   64.01522777
_symmetry_Int_Tables_number   1
_chemical_formula_structural   Ti(ClO4)4
_chemical_formula_sum   'Ti2 Cl8 O32'
_cell_volume   598.31195573
_cell_formula_units_Z   2
loop_
 _symmetry_equiv_pos_site_id
 _symmetry_equiv_pos_as_xyz
  1  'x, y, z'
loop_
 _atom_site_type_symbol
 _atom_site_label
 _atom_site_symmetry_multiplicity
 _atom_site_fract_x
 _atom_site_fract_y
 _atom_site_fract_z
 _atom_site_occupancy
  Ti  Ti0  1  0.03569743  0.96430460  0.74999801  1
  Ti  Ti1  1  0.96431765  0.03567986  0.25000062  1
  Cl  Cl0  1  0.33084085  0.78550567  0.58484505  1
  Cl  Cl1  1  0.21449602  0.66916125  0.91515324  1
  Cl  Cl2  1  0.66915837  0.21450559  0.41514725  1
  Cl  Cl3  1  0.78549772  0.33083785  0.08484978  1
  Cl  Cl4  1  0.99187652  0.36142540  0.66008164  1
  Cl  Cl5  1  0.63857675  0.00812778  0.83991811  1
  Cl  Cl6  1  0.00811794  0.63857434  0.33992445  1
  Cl  Cl7  1  0.36142650  0.99187224  0.16008041  1
  O  O0  1  0.33415673  0.89332015  0.66841856  1
  O  O1  1  0.10667838  0.66584486  0.83158293  1
  O  O2  1  0.66584069  0.10668376  0.33157837  1
  O  O3  1  0.89331904  0.33415688  0.16841245  1
  O  O4  1  0.45961841  0.57699722  0.60405819  1
  O  O5  1  0.42299556  0.54037505  0.89594912  1
  O  O6  1  0.54037573  0.42301049  0.39593628  1
  O  O7  1  0.57699898  0.45962576  0.10405528  1
  O  O8  1  0.10883638  0.81473956  0.61777074  1
  O  O9  1  0.18526617  0.89116765  0.88222745  1
  O  O10  1  0.21574144  0.92689481  0.13041933  1
  O  O11  1  0.07309869  0.78425294  0.36958265  1
  O  O12  1  0.78427512  0.07309403  0.86957425  1
  O  O13  1  0.92690702  0.21573287  0.63042502  1
  O  O14  1  0.53735412  0.82115078  0.18649285  1
  O  O15  1  0.17883651  0.46263648  0.31352013  1
  O  O16  1  0.46264357  0.17884267  0.81350839  1
  O  O17  1  0.82115785  0.53736391  0.68649106  1
  O  O18  1  0.22409622  0.07562416  0.25989648  1
  O  O19  1  0.92437695  0.77589466  0.24010574  1
  O  O20  1  0.77591972  0.92437264  0.74010527  1
  O  O21  1  0.07563435  0.22408199  0.75989210  1
  O  O22  1  0.39920876  0.14864594  0.07804605  1
  O  O23  1  0.85134039  0.60079856  0.42195668  1
  O  O24  1  0.60079614  0.85134514  0.92195602  1
  O  O25  1  0.14865295  0.39921315  0.57804370  1
  O  O26  1  0.89190238  0.37088213  0.97892753  1
  O  O27  1  0.62911541  0.10810602  0.52106835  1
  O  O28  1  0.10808072  0.62911564  0.02107916  1
  O  O29  1  0.37087822  0.89192505  0.47892256  1
  O  O30  1  0.81472988  0.10883755  0.11777243  1
  O  O31  1  0.89116277  0.18526992  0.38222334  1
loop_
_geom_bond_atom_site_label_1
_geom_bond_atom_site_label_2
_geom_bond_distance
_geom_bond_site_symmetry_2
Cl0 O29 1.401379 1_555
Cl0 O4 1.401422 1_555
Cl0 O8 1.502076 1_555
Cl0 O0 1.525095 1_555
Cl1 O5 1.401391 1_555
Cl1 O28 1.401418 1_556
Cl1 O9 1.502080 1_555
Cl1 O1 1.525079 1_555
Cl2 O27 1.401318 1_555
Cl2 O6 1.401410 1_555
Cl2 O31 1.502071 1_555
Cl2 O2 1.525089 1_555
Cl3 O26 1.401350 1_554
Cl3 O7 1.401391 1_555
Cl3 O30 1.502033 1_555
Cl3 O3 1.525022 1_555
Cl4 O17 1.399882 1_555
Cl4 O25 1.404307 1_655
Cl4 O21 1.500318 1_655
Cl4 O13 1.522014 1_555
Cl5 O16 1.399846 1_555
Cl5 O24 1.404310 1_545
Cl5 O20 1.500344 1_545
Cl5 O12 1.522037 1_555
Cl6 O15 1.399862 1_555
Cl6 O23 1.404247 1_455
Cl6 O19 1.500315 1_455
Cl6 O11 1.521988 1_555
Cl7 O14 1.399850 1_555
Cl7 O22 1.404247 1_565
Cl7 O18 1.500345 1_565
Cl7 O10 1.522039 1_555
O0 Ti0 2.056443 1_555
O1 Ti0 2.056444 1_555
O2 Ti1 2.056533 1_555
O3 Ti1 2.056551 1_555
O8 Ti0 2.115822 1_555
O9 Ti0 2.115865 1_555
O10 Ti1 2.066363 1_465
O11 Ti1 2.066355 1_465
O12 Ti0 2.066324 1_645
O13 Ti0 2.066303 1_645
O18 Ti1 2.102755 1_455
O19 Ti1 2.102771 1_565
O20 Ti0 2.102683 1_655
O21 Ti0 2.102695 1_545
O30 Ti1 2.115909 1_555
O31 Ti1 2.115864 1_555
