# generated using pymatgen
data_Li3In2
_symmetry_space_group_name_H-M   'P 1'
_cell_length_a   5.58052981
_cell_length_b   5.58052912
_cell_length_c   5.58052843
_cell_angle_alpha   50.13518362
_cell_angle_beta   50.13518863
_cell_angle_gamma   50.13518665
_symmetry_Int_Tables_number   1
_chemical_formula_structural   Li3In2
_chemical_formula_sum   'Li3 In2'
_cell_volume   94.25414153
_cell_formula_units_Z   1
loop_
 _symmetry_equiv_pos_site_id
 _symmetry_equiv_pos_as_xyz
  1  'x, y, z'
loop_
 _atom_site_type_symbol
 _atom_site_label
 _atom_site_symmetry_multiplicity
 _atom_site_fract_x
 _atom_site_fract_y
 _atom_site_fract_z
 _atom_site_occupancy
  Li  Li0  1  0.59568523  0.59568523  0.59568523  1
  Li  Li1  1  0.40431477  0.40431477  0.40431477  1
  Li  Li2  1  -0.00000000  -0.00000000  0.00000000  1
  In  In0  1  0.20689380  0.20689380  0.20689380  1
  In  In1  1  0.79310620  0.79310620  0.79310620  1
loop_
_geom_bond_atom_site_label_1
_geom_bond_atom_site_label_2
_geom_bond_distance
_geom_bond_site_symmetry_2
Li0 Li2 2.920274 1_656
Li0 Li2 2.920274 1_566
Li0 Li2 2.920274 1_665
Li1 Li2 2.920274 1_565
Li1 Li2 2.920274 1_655
Li1 Li2 2.920274 1_556
In0 Li0 2.847726 1_545
In0 Li0 2.847727 1_554
In0 Li0 2.847727 1_455
In0 Li1 2.882591 1_555
In0 Li2 3.020906 1_555
In0 Li2 3.295784 1_556
In0 Li2 3.295785 1_565
In0 Li2 3.295786 1_655
In1 Li1 2.847726 1_565
In1 Li1 2.847727 1_556
In1 Li1 2.847727 1_655
In1 Li0 2.882591 1_555
In1 Li2 3.020906 1_666
In1 Li2 3.295784 1_665
In1 Li2 3.295785 1_656
In1 Li2 3.295786 1_566
