# generated using pymatgen
data_ScCuSi
_symmetry_space_group_name_H-M   'P 1'
_cell_length_a   3.94833885
_cell_length_b   6.53023046
_cell_length_c   7.16051603
_cell_angle_alpha   90.00000000
_cell_angle_beta   90.00000000
_cell_angle_gamma   90.00000000
_symmetry_Int_Tables_number   1
_chemical_formula_structural   ScCuSi
_chemical_formula_sum   'Sc4 Cu4 Si4'
_cell_volume   184.62361348
_cell_formula_units_Z   4
loop_
 _symmetry_equiv_pos_site_id
 _symmetry_equiv_pos_as_xyz
  1  'x, y, z'
loop_
 _atom_site_type_symbol
 _atom_site_label
 _atom_site_symmetry_multiplicity
 _atom_site_fract_x
 _atom_site_fract_y
 _atom_site_fract_z
 _atom_site_occupancy
  Sc  Sc0  1  0.75000000  0.99246193  0.80554991  1
  Sc  Sc1  1  0.25000000  0.50753807  0.30554991  1
  Sc  Sc2  1  0.75000000  0.49246193  0.69445009  1
  Sc  Sc3  1  0.25000000  0.00753807  0.19445009  1
  Cu  Cu0  1  0.25000000  0.65691408  0.93382615  1
  Cu  Cu1  1  0.25000000  0.15691408  0.56617385  1
  Cu  Cu2  1  0.75000000  0.84308592  0.43382615  1
  Cu  Cu3  1  0.75000000  0.34308592  0.06617385  1
  Si  Si0  1  0.25000000  0.27446497  0.89164524  1
  Si  Si1  1  0.25000000  0.77446497  0.60835476  1
  Si  Si2  1  0.75000000  0.72553503  0.10835476  1
  Si  Si3  1  0.75000000  0.22553503  0.39164524  1
loop_
_geom_bond_atom_site_label_1
_geom_bond_atom_site_label_2
_geom_bond_distance
_geom_bond_site_symmetry_2
Sc0 Si0 2.769240 1_565
Sc0 Si0 2.769240 1_665
Sc0 Si2 2.782020 1_556
Sc0 Si1 2.813840 1_555
Sc0 Si1 2.813840 1_655
Sc1 Si3 2.769240 1_455
Sc1 Si3 2.769240 1_555
Sc1 Si1 2.782020 1_555
Sc1 Si2 2.813840 1_455
Sc1 Si2 2.813840 1_555
Sc2 Si1 2.769240 1_555
Sc2 Si1 2.769240 1_655
Sc2 Si3 2.782020 1_555
Sc2 Si0 2.813840 1_655
Sc2 Si0 2.813840 1_555
Sc3 Si2 2.769240 1_445
Sc3 Si2 2.769240 1_545
Sc3 Si0 2.782020 1_554
Sc3 Si3 2.813840 1_455
Sc3 Si3 2.813840 1_555
Cu0 Si2 2.379062 1_556
Cu0 Si2 2.379062 1_456
Cu0 Si1 2.453710 1_555
Cu0 Si0 2.515678 1_555
Cu0 Sc2 2.826414 1_555
Cu0 Sc2 2.826414 1_455
Cu0 Sc1 2.834846 1_556
Cu0 Sc3 2.953850 1_566
Cu0 Sc0 3.089079 1_455
Cu0 Sc0 3.089079 1_555
Cu1 Si3 2.379062 1_555
Cu1 Si3 2.379062 1_455
Cu1 Si0 2.453710 1_555
Cu1 Si1 2.515678 1_545
Cu1 Sc0 2.826414 1_545
Cu1 Sc0 2.826414 1_445
Cu1 Sc3 2.834846 1_555
Cu1 Sc1 2.953850 1_555
Cu1 Sc2 3.089079 1_455
Cu1 Sc2 3.089079 1_555
Cu2 Si1 2.379062 1_555
Cu2 Si1 2.379062 1_655
Cu2 Si2 2.453710 1_555
Cu2 Si3 2.515678 1_565
Cu2 Sc3 2.826414 1_565
Cu2 Sc3 2.826414 1_665
Cu2 Sc0 2.834846 1_555
Cu2 Sc2 2.953850 1_555
Cu2 Sc1 3.089079 1_655
Cu2 Sc1 3.089079 1_555
Cu3 Si0 2.379062 1_654
Cu3 Si0 2.379062 1_554
Cu3 Si3 2.453710 1_555
Cu3 Si2 2.515678 1_555
Cu3 Sc1 2.826414 1_655
Cu3 Sc1 2.826414 1_555
Cu3 Sc2 2.834846 1_554
Cu3 Sc0 2.953850 1_544
Cu3 Sc3 3.089079 1_555
Cu3 Sc3 3.089079 1_655
