# generated using pymatgen
data_MgAg4Te8(MoO12)2
_symmetry_space_group_name_H-M   'P 1'
_cell_length_a   5.56421605
_cell_length_b   9.26886067
_cell_length_c   11.76504322
_cell_angle_alpha   102.27417833
_cell_angle_beta   91.42892800
_cell_angle_gamma   107.81676004
_symmetry_Int_Tables_number   1
_chemical_formula_structural   MgAg4Te8(MoO12)2
_chemical_formula_sum   'Mg1 Ag4 Te8 Mo2 O24'
_cell_volume   561.81744471
_cell_formula_units_Z   1
loop_
 _symmetry_equiv_pos_site_id
 _symmetry_equiv_pos_as_xyz
  1  'x, y, z'
loop_
 _atom_site_type_symbol
 _atom_site_label
 _atom_site_symmetry_multiplicity
 _atom_site_fract_x
 _atom_site_fract_y
 _atom_site_fract_z
 _atom_site_occupancy
  Mg  Mg0  1  0.02646317  0.59274009  0.78027934  1
  Ag  Ag0  1  0.95418773  0.42815397  0.25175081  1
  Ag  Ag1  1  0.51418053  0.57106749  0.23519289  1
  Ag  Ag2  1  0.00156282  0.49650604  0.49389909  1
  Ag  Ag3  1  0.46453085  0.42532096  0.77286915  1
  Te  Te0  1  0.00025263  0.69627368  0.06653309  1
  Te  Te1  1  0.34947146  0.28801205  0.41342830  1
  Te  Te2  1  0.00106750  0.32501299  0.95054929  1
  Te  Te3  1  0.68286059  0.71390458  0.60551248  1
  Te  Te4  1  0.58052107  0.83990373  0.91650804  1
  Te  Te5  1  0.82889738  0.19054520  0.60425635  1
  Te  Te6  1  0.41357238  0.16932079  0.09969811  1
  Te  Te7  1  0.20949697  0.83371557  0.41873744  1
  Mo  Mo0  1  0.17369156  0.01553875  0.77453912  1
  Mo  Mo1  1  0.83645231  0.00075601  0.24873549  1
  O  O0  1  0.84834213  0.98643929  0.87284510  1
  O  O1  1  0.91434104  0.03081004  0.65222086  1
  O  O2  1  0.13148496  0.02574453  0.13811521  1
  O  O3  1  0.10770975  0.98591761  0.36883812  1
  O  O4  1  0.75837707  0.77869569  0.15282455  1
  O  O5  1  0.02003176  0.22533922  0.32682875  1
  O  O6  1  0.24058866  0.23382082  0.86498712  1
  O  O7  1  0.99507513  0.78827571  0.70777614  1
  O  O8  1  0.81538629  0.49351838  0.07637825  1
  O  O9  1  0.37218911  0.49850230  0.42889353  1
  O  O10  1  0.18205652  0.52337296  0.92505108  1
  O  O11  1  0.71453649  0.52133395  0.61963242  1
  O  O12  1  0.34775635  0.96464333  0.90189203  1
  O  O13  1  0.41478371  0.04828684  0.68566855  1
  O  O14  1  0.63844695  0.04648761  0.13082604  1
  O  O15  1  0.60830184  0.96463428  0.34493963  1
  O  O16  1  0.84393874  0.68238301  0.91453664  1
  O  O17  1  0.16539898  0.29479788  0.56998312  1
  O  O18  1  0.18137513  0.33574693  0.09296621  1
  O  O19  1  0.87351507  0.72099495  0.46103270  1
  O  O20  1  0.43751940  0.70026877  0.76563091  1
  O  O21  1  0.86782223  0.34299144  0.74153597  1
  O  O22  1  0.50981971  0.29957217  0.25737060  1
  O  O23  1  0.17191204  0.69207936  0.27784951  1
loop_
_geom_bond_atom_site_label_1
_geom_bond_atom_site_label_2
_geom_bond_distance
_geom_bond_site_symmetry_2
Mg0 O16 2.062806 1_455
Mg0 O21 2.150931 1_455
Mg0 O10 2.190132 1_555
Mg0 O7 2.210537 1_455
Mg0 O20 2.225323 1_555
Mg0 O11 2.371537 1_455
Ag0 O23 2.322664 1_655
Ag0 O5 2.357889 1_655
Ag0 O22 2.403474 1_555
Ag0 O18 2.433408 1_655
Ag0 O8 2.441098 1_555
Ag1 O4 2.397365 1_555
Ag1 O23 2.500484 1_555
Ag1 O22 2.577464 1_555
Ag1 O9 2.585785 1_555
Ag1 O18 2.609313 1_555
Ag1 O8 2.671899 1_555
Ag2 O9 2.213466 1_555
Ag2 O11 2.233789 1_455
Ag2 O19 2.494447 1_455
Ag2 O17 2.615641 1_555
Ag3 O6 2.325856 1_555
Ag3 O11 2.454991 1_555
Ag3 O21 2.592933 1_555
Ag3 O10 2.612400 1_555
Ag3 O20 2.617342 1_555
Ag3 O17 2.696916 1_555
Mo0 O13 1.714832 1_555
Mo0 O12 1.978203 1_545
Mo0 O6 1.992071 1_555
Mo0 O7 2.004589 1_445
Mo0 O1 2.069180 1_455
Mo0 O0 2.150793 1_445
Mo1 O15 1.725524 1_545
Mo1 O14 1.943563 1_555
Mo1 O5 2.014833 1_655
Mo1 O4 2.034519 1_545
Mo1 O3 2.096880 1_645
Mo1 O2 2.108175 1_655
O0 Te4 1.850839 1_555
O1 Te5 1.873270 1_555
O2 Te6 1.857902 1_555
O3 Te7 1.865502 1_555
O3 Te1 2.638263 1_565
O4 Te0 1.947609 1_655
O5 Te1 1.933712 1_555
O6 Te2 1.974459 1_555
O7 Te3 1.936746 1_555
O8 Te0 1.875857 1_655
O8 Te2 2.403964 1_654
O9 Te1 1.884810 1_555
O9 Te3 2.690179 1_555
O10 Te2 1.897638 1_555
O10 Te0 2.510813 1_556
O11 Te3 1.887244 1_555
O12 Te4 2.008373 1_555
O12 Te6 2.608491 1_566
O14 Te6 2.005536 1_555
O15 Te7 2.459003 1_555
O16 Te0 1.930517 1_656
O16 Te4 2.361657 1_555
O17 Te5 1.923079 1_455
O17 Te1 2.128317 1_555
O18 Te2 1.899497 1_554
O18 Te6 2.306846 1_555
O19 Te7 1.976442 1_655
O19 Te3 2.028258 1_555
O20 Te4 1.944651 1_555
O20 Te3 2.356304 1_555
O21 Te5 1.864669 1_555
O21 Te2 2.604474 1_655
O22 Te6 1.946289 1_555
O22 Te1 2.070110 1_555
O23 Te7 1.845039 1_555
O23 Te0 2.653325 1_555
