# generated using pymatgen
data_BaPrMgMn2O6
_symmetry_space_group_name_H-M   'P 1'
_cell_length_a   3.95094320
_cell_length_b   3.95094320
_cell_length_c   10.19764425
_cell_angle_alpha   79.61612943
_cell_angle_beta   79.61612943
_cell_angle_gamma   89.84805981
_symmetry_Int_Tables_number   1
_chemical_formula_structural   BaPrMgMn2O6
_chemical_formula_sum   'Ba1 Pr1 Mg1 Mn2 O6'
_cell_volume   153.94001568
_cell_formula_units_Z   1
loop_
 _symmetry_equiv_pos_site_id
 _symmetry_equiv_pos_as_xyz
  1  'x, y, z'
loop_
 _atom_site_type_symbol
 _atom_site_label
 _atom_site_symmetry_multiplicity
 _atom_site_fract_x
 _atom_site_fract_y
 _atom_site_fract_z
 _atom_site_occupancy
  Ba  Ba0  1  0.17490504  0.17490504  0.54358154  1
  Pr  Pr0  1  0.01618168  0.01618168  0.93205394  1
  Mg  Mg0  1  0.78148255  0.78148255  0.32483009  1
  Mn  Mn0  1  0.57992892  0.57992892  0.74963888  1
  Mn  Mn1  1  0.34109311  0.34109311  0.20141578  1
  O  O0  1  0.41823769  0.41823769  0.99231936  1
  O  O1  1  0.06526879  0.56960763  0.77705175  1
  O  O2  1  0.56960763  0.06526879  0.77705175  1
  O  O3  1  0.81099142  0.30961817  0.26558091  1
  O  O4  1  0.68268501  0.68268501  0.52922908  1
  O  O5  1  0.30961817  0.81099142  0.26558091  1
loop_
_geom_bond_atom_site_label_1
_geom_bond_atom_site_label_2
_geom_bond_distance
_geom_bond_site_symmetry_2
Ba0 O4 2.793627 1_455
Ba0 O4 2.793627 1_545
Ba0 O4 2.794757 1_445
Ba0 O4 2.807281 1_555
Ba0 O1 3.025974 1_545
Ba0 O2 3.025974 1_455
Ba0 O2 3.041545 1_555
Ba0 O1 3.041545 1_555
Mg0 O4 2.015842 1_555
Mg0 O5 2.057623 1_555
Mg0 O3 2.057623 1_555
Mg0 O5 2.062549 1_655
Mg0 O3 2.062549 1_565
Mn0 O1 1.986333 1_655
Mn0 O2 1.986333 1_565
Mn0 O2 2.001479 1_555
Mn0 O1 2.001479 1_555
Mn0 O4 2.173616 1_555
Mn0 O0 2.408949 1_555
Mn1 O0 2.065040 1_554
Mn1 O5 2.073095 1_555
Mn1 O3 2.073095 1_555
Mn1 O3 2.075611 1_455
Mn1 O5 2.075611 1_545
O0 Pr0 2.478221 1_555
O0 Pr0 2.879374 1_655
O0 Pr0 2.879374 1_565
O0 Pr0 3.243887 1_665
O1 Pr0 2.441915 1_555
O1 Pr0 2.557770 1_565
O2 Pr0 2.441915 1_555
O2 Pr0 2.557770 1_655
