# generated using pymatgen
data_MgMn2Co5O12
_symmetry_space_group_name_H-M   'P 1'
_cell_length_a   5.13632112
_cell_length_b   5.17216590
_cell_length_c   10.11566353
_cell_angle_alpha   84.34450216
_cell_angle_beta   95.77441263
_cell_angle_gamma   57.54030887
_symmetry_Int_Tables_number   1
_chemical_formula_structural   MgMn2Co5O12
_chemical_formula_sum   'Mg1 Mn2 Co5 O12'
_cell_volume   221.84118099
_cell_formula_units_Z   1
loop_
 _symmetry_equiv_pos_site_id
 _symmetry_equiv_pos_as_xyz
  1  'x, y, z'
loop_
 _atom_site_type_symbol
 _atom_site_label
 _atom_site_symmetry_multiplicity
 _atom_site_fract_x
 _atom_site_fract_y
 _atom_site_fract_z
 _atom_site_occupancy
  Mg  Mg0  1  0.47405279  0.00470805  0.47979263  1
  Mn  Mn0  1  0.23627544  0.25315535  0.73059140  1
  Mn  Mn1  1  0.71937325  0.75590810  0.22788086  1
  Co  Co0  1  0.04917489  0.09075064  0.22493878  1
  Co  Co1  1  0.97706810  0.50858891  0.97841828  1
  Co  Co2  1  0.90161285  0.93110371  0.73251334  1
  Co  Co3  1  0.39053159  0.42559890  0.22997073  1
  Co  Co4  1  0.56757611  0.58933072  0.73011190  1
  O  O0  1  0.94642417  0.24164715  0.83617047  1
  O  O1  1  0.21588655  0.96641048  0.62706837  1
  O  O2  1  0.09508025  0.38013084  0.33659392  1
  O  O3  1  0.34294301  0.13392802  0.11809994  1
  O  O4  1  0.26342357  0.54296390  0.82934168  1
  O  O5  1  0.51909359  0.26345247  0.62187771  1
  O  O6  1  0.43233316  0.74183155  0.33345908  1
  O  O7  1  0.69718234  0.47415017  0.12309070  1
  O  O8  1  0.61182407  0.88519427  0.84217500  1
  O  O9  1  0.84519674  0.62717290  0.62555368  1
  O  O10  1  0.73777440  0.04027093  0.33336276  1
  O  O11  1  0.00574813  0.77228094  0.12232076  1
loop_
_geom_bond_atom_site_label_1
_geom_bond_atom_site_label_2
_geom_bond_distance
_geom_bond_site_symmetry_2
Mg0 O2 2.116308 1_555
Mg0 O9 2.119501 1_545
Mg0 O5 2.134197 1_555
Mg0 O1 2.153684 1_545
Mg0 O10 2.163378 1_555
Mg0 O6 2.175156 1_545
Mn0 O5 1.927520 1_555
Mn0 O4 1.937925 1_555
Mn0 O1 1.938536 1_545
Mn0 O0 1.939883 1_455
Mn0 O8 1.953146 1_545
Mn0 O9 1.974949 1_455
Mn1 O7 1.928421 1_555
Mn1 O6 1.932951 1_555
Mn1 O11 1.934661 1_655
Mn1 O10 1.936198 1_565
Mn1 O2 1.958709 1_655
Mn1 O3 1.968874 1_565
Co0 O7 1.906982 1_455
Co0 O6 1.922879 1_545
Co0 O3 2.033937 1_555
Co0 O2 2.056666 1_555
Co0 O11 2.127272 1_545
Co0 O10 2.138729 1_455
Co1 O8 2.059407 1_555
Co1 O3 2.073701 1_656
Co1 O11 2.136490 1_656
Co1 O0 2.140279 1_555
Co1 O7 2.210636 1_556
Co1 O4 2.267854 1_655
Co2 O5 1.902805 1_565
Co2 O4 1.919545 1_655
Co2 O8 2.040128 1_555
Co2 O1 2.097915 1_655
Co2 O0 2.100591 1_565
Co2 O9 2.118215 1_555
Co3 O10 1.909233 1_555
Co3 O11 1.919676 1_555
Co3 O2 2.045470 1_555
Co3 O3 2.071902 1_555
Co3 O7 2.103921 1_555
Co3 O6 2.118115 1_555
Co4 O1 1.895273 1_555
Co4 O0 1.901268 1_555
Co4 O9 1.937159 1_555
Co4 O4 2.043496 1_555
Co4 O8 2.083683 1_555
Co4 O5 2.204772 1_555
