# generated using pymatgen
data_Yb2O3
_symmetry_space_group_name_H-M   'P 1'
_cell_length_a   8.94617619
_cell_length_b   8.94617619
_cell_length_c   8.94617619
_cell_angle_alpha   109.47122063
_cell_angle_beta   109.47122063
_cell_angle_gamma   109.47122063
_symmetry_Int_Tables_number   1
_chemical_formula_structural   Yb2O3
_chemical_formula_sum   'Yb16 O24'
_cell_volume   551.17619312
_cell_formula_units_Z   8
loop_
 _symmetry_equiv_pos_site_id
 _symmetry_equiv_pos_as_xyz
  1  'x, y, z'
loop_
 _atom_site_type_symbol
 _atom_site_label
 _atom_site_symmetry_multiplicity
 _atom_site_fract_x
 _atom_site_fract_y
 _atom_site_fract_z
 _atom_site_occupancy
  Yb  Yb0  1  0.49987738  0.50000000  0.00000000  1
  Yb  Yb1  1  0.00000000  0.49987738  0.50000000  1
  Yb  Yb2  1  0.50000000  0.00000000  0.49987738  1
  Yb  Yb3  1  0.00012262  0.00012262  0.00012262  1
  Yb  Yb4  1  0.21656975  0.75000000  0.96656975  1
  Yb  Yb5  1  0.25000000  0.53343025  0.28343025  1
  Yb  Yb6  1  0.96656975  0.21656975  0.75000000  1
  Yb  Yb7  1  0.28343025  0.25000000  0.53343025  1
  Yb  Yb8  1  0.75000000  0.96656975  0.21656975  1
  Yb  Yb9  1  0.53343025  0.28343025  0.25000000  1
  Yb  Yb10  1  0.71670135  0.75000000  0.46670135  1
  Yb  Yb11  1  0.25000000  0.03329865  0.78329865  1
  Yb  Yb12  1  0.46670135  0.71670135  0.75000000  1
  Yb  Yb13  1  0.78329865  0.25000000  0.03329865  1
  Yb  Yb14  1  0.75000000  0.46670135  0.71670135  1
  Yb  Yb15  1  0.03329865  0.78329865  0.25000000  1
  O  O0  1  0.46751251  0.73892979  0.01114233  1
  O  O1  1  0.45637017  0.48885767  0.22778745  1
  O  O2  1  0.22858272  0.27221255  0.76107021  1
  O  O3  1  0.22778745  0.45637017  0.48885767  1
  O  O4  1  0.76107021  0.22858272  0.27221255  1
  O  O5  1  0.01114233  0.46751251  0.73892979  1
  O  O6  1  0.27221255  0.76107021  0.22858272  1
  O  O7  1  0.73892979  0.01114233  0.46751251  1
  O  O8  1  0.48885767  0.22778745  0.45637017  1
  O  O9  1  0.03248749  0.04362983  0.27141728  1
  O  O10  1  0.04362983  0.27141728  0.03248749  1
  O  O11  1  0.27141728  0.03248749  0.04362983  1
  O  O12  1  0.54368092  0.51134143  0.77243036  1
  O  O13  1  0.77125056  0.72756964  0.23891107  1
  O  O14  1  0.53234049  0.26108893  0.98865857  1
  O  O15  1  0.23891107  0.77125056  0.72756964  1
  O  O16  1  0.98865857  0.53234049  0.26108893  1
  O  O17  1  0.77243036  0.54368092  0.51134143  1
  O  O18  1  0.26108893  0.98865857  0.53234049  1
  O  O19  1  0.51134143  0.77243036  0.54368092  1
  O  O20  1  0.72756964  0.23891107  0.77125056  1
  O  O21  1  0.95631908  0.72874944  0.96765951  1
  O  O22  1  0.72874944  0.96765951  0.95631908  1
  O  O23  1  0.96765951  0.95631908  0.72874944  1
loop_
_geom_bond_atom_site_label_1
_geom_bond_atom_site_label_2
_geom_bond_distance
_geom_bond_site_symmetry_2
O0 Yb4 2.187806 1_554
O0 Yb8 2.211108 1_555
O0 Yb0 2.225422 1_555
O0 Yb12 2.274986 1_554
O1 Yb5 2.187806 1_555
O1 Yb9 2.211108 1_555
O1 Yb0 2.225422 1_555
O1 Yb10 2.274986 1_555
O2 Yb6 2.187806 1_455
O2 Yb7 2.211108 1_555
O2 Yb0 2.225422 1_556
O2 Yb11 2.274986 1_555
O3 Yb7 2.187806 1_555
O3 Yb5 2.211108 1_555
O3 Yb1 2.225422 1_555
O3 Yb12 2.274986 1_555
O4 Yb8 2.187806 1_545
O4 Yb9 2.211108 1_555
O4 Yb1 2.225422 1_655
O4 Yb13 2.274986 1_555
O5 Yb6 2.187806 1_455
O5 Yb4 2.211108 1_555
O5 Yb1 2.225422 1_555
O5 Yb14 2.274986 1_455
O6 Yb4 2.187806 1_554
O6 Yb5 2.211108 1_555
O6 Yb2 2.225422 1_565
O6 Yb15 2.274986 1_555
O7 Yb8 2.187806 1_545
O7 Yb6 2.211108 1_555
O7 Yb2 2.225422 1_555
O7 Yb10 2.274986 1_545
O8 Yb9 2.187806 1_555
O8 Yb7 2.211108 1_555
O8 Yb2 2.225422 1_555
O8 Yb14 2.274986 1_555
O9 Yb7 2.187806 1_555
O9 Yb8 2.211108 1_445
O9 Yb3 2.225422 1_555
O9 Yb15 2.274986 1_545
O10 Yb5 2.187806 1_555
O10 Yb6 2.211108 1_454
O10 Yb3 2.225422 1_555
O10 Yb13 2.274986 1_455
O11 Yb9 2.187806 1_555
O11 Yb4 2.211108 1_544
O11 Yb3 2.225422 1_555
O11 Yb11 2.274986 1_554
O12 Yb14 2.187937 1_555
O12 Yb12 2.210637 1_555
O12 Yb0 2.225249 1_556
O12 Yb7 2.275583 1_555
O13 Yb15 2.187937 1_655
O13 Yb10 2.210637 1_555
O13 Yb0 2.225249 1_555
O13 Yb8 2.275583 1_555
O14 Yb13 2.187929 1_556
O14 Yb11 2.210642 1_555
O14 Yb0 2.225254 1_556
O14 Yb9 2.275586 1_556
O15 Yb11 2.187937 1_565
O15 Yb12 2.210637 1_555
O15 Yb1 2.225249 1_555
O15 Yb4 2.275583 1_555
O16 Yb15 2.187929 1_655
O16 Yb13 2.210642 1_555
O16 Yb1 2.225254 1_655
O16 Yb5 2.275586 1_655
O17 Yb10 2.187937 1_555
O17 Yb14 2.210637 1_555
O17 Yb1 2.225249 1_655
O17 Yb9 2.275583 1_555
O18 Yb11 2.187929 1_565
O18 Yb15 2.210642 1_555
O18 Yb2 2.225254 1_565
O18 Yb7 2.275586 1_565
O19 Yb12 2.187937 1_555
O19 Yb10 2.210637 1_555
O19 Yb2 2.225249 1_565
O19 Yb5 2.275583 1_555
O20 Yb13 2.187937 1_556
O20 Yb14 2.210637 1_555
O20 Yb2 2.225249 1_555
O20 Yb6 2.275583 1_555
O21 Yb14 2.187934 1_555
O21 Yb15 2.210645 1_656
O21 Yb3 2.225247 1_666
O21 Yb4 2.275579 1_655
O22 Yb12 2.187934 1_555
O22 Yb13 2.210645 1_566
O22 Yb3 2.225247 1_666
O22 Yb8 2.275579 1_556
O23 Yb10 2.187934 1_555
O23 Yb11 2.210645 1_665
O23 Yb3 2.225247 1_666
O23 Yb6 2.275579 1_565
