# generated using pymatgen
data_MgTi5NbO12
_symmetry_space_group_name_H-M   'P 1'
_cell_length_a   7.62115014
_cell_length_b   5.79099809
_cell_length_c   5.65015118
_cell_angle_alpha   73.48044375
_cell_angle_beta   69.17230544
_cell_angle_gamma   67.30783101
_symmetry_Int_Tables_number   1
_chemical_formula_structural   MgTi5NbO12
_chemical_formula_sum   'Mg1 Ti5 Nb1 O12'
_cell_volume   211.87239937
_cell_formula_units_Z   1
loop_
 _symmetry_equiv_pos_site_id
 _symmetry_equiv_pos_as_xyz
  1  'x, y, z'
loop_
 _atom_site_type_symbol
 _atom_site_label
 _atom_site_symmetry_multiplicity
 _atom_site_fract_x
 _atom_site_fract_y
 _atom_site_fract_z
 _atom_site_occupancy
  Mg  Mg0  1  0.00489100  0.51260500  0.00498000  1
  Ti  Ti0  1  0.80640200  0.67347900  0.63120100  1
  Ti  Ti1  1  0.67528700  0.31680900  0.33117700  1
  Ti  Ti2  1  0.34213300  0.69381800  0.67347300  1
  Ti  Ti3  1  0.21361900  0.33911800  0.36728100  1
  Ti  Ti4  1  0.00999500  0.01399000  0.99561900  1
  Nb  Nb0  1  0.50762400  0.00880500  0.00386100  1
  O  O0  1  0.67135500  0.03766900  0.61931000  1
  O  O1  1  0.31045200  0.37984500  0.97747900  1
  O  O2  1  0.96293400  0.21385200  0.25122300  1
  O  O3  1  0.30907900  0.89960600  0.91718000  1
  O  O4  1  0.63872400  0.55466600  0.56931200  1
  O  O5  1  0.71131100  0.11416900  0.08213100  1
  O  O6  1  0.05476700  0.80317900  0.75208000  1
  O  O7  1  0.37951200  0.45745100  0.43390400  1
  O  O8  1  0.01949600  0.33405000  0.71885300  1
  O  O9  1  0.70482300  0.63691700  0.02418100  1
  O  O10  1  0.34604600  0.97142500  0.38236300  1
  O  O11  1  0.99821800  0.68140400  0.28820200  1
loop_
_geom_bond_atom_site_label_1
_geom_bond_atom_site_label_2
_geom_bond_distance
_geom_bond_site_symmetry_2
Mg0 O6 1.938481 1_554
Mg0 O2 1.942360 1_455
Mg0 O11 2.076598 1_455
Mg0 O9 2.087470 1_455
Mg0 O8 2.104528 1_554
Mg0 O1 2.113631 1_554
Nb0 O10 2.050974 1_545
Nb0 O0 2.081422 1_554
Nb0 O5 2.085673 1_555
Nb0 O3 2.090635 1_544
Nb0 O1 2.093579 1_554
Nb0 O9 2.096352 1_545
O0 Ti1 1.941761 1_555
O0 Ti0 1.950793 1_545
O1 Ti3 2.033237 1_556
O1 Ti2 2.140645 1_555
O2 Ti1 1.950840 1_555
O2 Ti4 1.953426 1_654
O3 Ti2 1.958221 1_555
O3 Ti4 2.028382 1_565
O4 Ti0 1.833494 1_555
O4 Ti2 2.005819 1_555
O4 Ti1 2.067977 1_555
O5 Ti1 1.961700 1_555
O5 Ti4 2.026875 1_654
O6 Ti2 1.947516 1_555
O6 Ti4 1.949434 1_565
O7 Ti3 1.833937 1_555
O7 Ti1 2.000833 1_555
O7 Ti2 2.065334 1_555
O8 Ti3 2.011476 1_555
O8 Ti4 2.064149 1_555
O8 Ti0 2.074072 1_455
O9 Ti0 2.052086 1_554
O9 Ti1 2.170599 1_555
O10 Ti2 1.946567 1_555
O10 Ti3 1.964609 1_565
O11 Ti0 1.970152 1_555
O11 Ti3 2.081068 1_655
O11 Ti4 2.160466 1_664
