# generated using pymatgen
data_Na8MgTi3Si4(PO12)2
_symmetry_space_group_name_H-M   'P 1'
_cell_length_a   9.00306924
_cell_length_b   9.01895336
_cell_length_c   21.95716265
_cell_angle_alpha   89.95645684
_cell_angle_beta   89.99375553
_cell_angle_gamma   120.08887695
_symmetry_Int_Tables_number   1
_chemical_formula_structural   Na8MgTi3Si4(PO12)2
_chemical_formula_sum   'Na24 Mg3 Ti9 Si12 P6 O72'
_cell_volume   1542.63699717
_cell_formula_units_Z   3
loop_
 _symmetry_equiv_pos_site_id
 _symmetry_equiv_pos_as_xyz
  1  'x, y, z'
loop_
 _atom_site_type_symbol
 _atom_site_label
 _atom_site_symmetry_multiplicity
 _atom_site_fract_x
 _atom_site_fract_y
 _atom_site_fract_z
 _atom_site_occupancy
  Na  Na0  1  0.63524139  0.00839635  0.24375777  1
  Na  Na1  1  0.37359882  0.36267768  0.24343769  1
  Na  Na2  1  0.99045882  0.62845616  0.24349416  1
  Na  Na3  1  0.62937090  0.62048659  0.74668965  1
  Na  Na4  1  0.98996286  0.36972850  0.74921628  1
  Na  Na5  1  0.38064627  0.00779867  0.74549509  1
  Na  Na6  1  0.30575581  0.33441683  0.58668991  1
  Na  Na7  1  0.03182098  0.69847125  0.58392824  1
  Na  Na8  1  0.66321288  0.97113496  0.58705793  1
  Na  Na9  1  0.30944240  0.96931363  0.08447358  1
  Na  Na10  1  0.65984035  0.69078700  0.08442161  1
  Na  Na11  1  0.03055160  0.33964239  0.08443466  1
  Na  Na12  1  0.96375320  0.66475978  0.91758547  1
  Na  Na13  1  0.70201587  0.03815731  0.91772513  1
  Na  Na14  1  0.33439164  0.29733505  0.91720983  1
  Na  Na15  1  0.96325995  0.28978934  0.41470011  1
  Na  Na16  1  0.32220170  0.03485750  0.41450076  1
  Na  Na17  1  0.71157346  0.67442188  0.41282347  1
  Na  Na18  1  0.00436568  0.00067043  0.49721827  1
  Na  Na19  1  0.00114654  0.00124191  0.99817212  1
  Na  Na20  1  0.66935713  0.33336753  0.83112423  1
  Na  Na21  1  0.66758721  0.33409556  0.33035850  1
  Na  Na22  1  0.33441418  0.66775398  0.16313997  1
  Na  Na23  1  0.33733075  0.67051568  0.66830941  1
  Mg  Mg0  1  0.00244810  0.00004120  0.35275288  1
  Mg  Mg1  1  0.66494198  0.33132908  0.68586501  1
  Mg  Mg2  1  0.66645782  0.33307522  0.18189207  1
  Ti  Ti0  1  0.99305949  0.99532989  0.85375544  1
  Ti  Ti1  1  0.99698885  0.98875232  0.64774235  1
  Ti  Ti2  1  0.99985856  0.99887441  0.14333186  1
  Ti  Ti3  1  0.66721543  0.33344073  0.98242418  1
  Ti  Ti4  1  0.66193800  0.34162228  0.48208893  1
  Ti  Ti5  1  0.33297440  0.66633307  0.01829911  1
  Ti  Ti6  1  0.33155668  0.66729608  0.51914338  1
  Ti  Ti7  1  0.32811890  0.65933945  0.31576861  1
  Ti  Ti8  1  0.33521101  0.67285280  0.81535041  1
  Si  Si0  1  0.00211653  0.70823092  0.75151199  1
  Si  Si1  1  0.70835682  0.99769450  0.75036888  1
  Si  Si2  1  0.37490401  0.04057441  0.58466231  1
  Si  Si3  1  0.66387591  0.62696582  0.58548059  1
  Si  Si4  1  0.96017988  0.62423141  0.08516240  1
  Si  Si5  1  0.66440135  0.03983096  0.08517877  1
  Si  Si6  1  0.37571330  0.33578106  0.08505850  1
  Si  Si7  1  0.62221595  0.66474551  0.91622875  1
  Si  Si8  1  0.04330808  0.37697080  0.91593139  1
  Si  Si9  1  0.33420345  0.95938692  0.91699435  1
  Si  Si10  1  0.33397542  0.37625649  0.41773880  1
  Si  Si11  1  0.03867780  0.66225777  0.41745359  1
  P  P0  1  0.29260187  0.99871129  0.25154428  1
  P  P1  1  0.70711784  0.70948791  0.25171551  1
  P  P2  1  0.00089508  0.29175186  0.25179007  1
  P  P3  1  0.28383461  0.28709440  0.75048518  1
  P  P4  1  0.95835018  0.33463248  0.58306090  1
  P  P5  1  0.61869103  0.95571766  0.41634713  1
  O  O0  1  0.20895764  0.02281688  0.30894611  1
  O  O1  1  0.81444738  0.79374263  0.30908446  1
  O  O2  1  0.97762903  0.18487423  0.30922081  1
  O  O3  1  0.19432339  0.17546371  0.80759866  1
  O  O4  1  0.98076953  0.81153135  0.80957606  1
  O  O5  1  0.83174290  0.02167892  0.80963134  1
  O  O6  1  0.80756953  0.97106010  0.69058584  1
  O  O7  1  0.17154380  0.19908856  0.69258297  1
  O  O8  1  0.03293517  0.83364184  0.69070617  1
  O  O9  1  0.79845283  0.82508327  0.19427965  1
  O  O10  1  0.02850899  0.20419220  0.19437919  1
  O  O11  1  0.17606115  0.97208908  0.19422828  1
  O  O12  1  0.88490641  0.37079165  0.64016209  1
  O  O13  1  0.49321296  0.11277625  0.64391132  1
  O  O14  1  0.62267495  0.50787570  0.64407925  1
  O  O15  1  0.88714544  0.51069580  0.14520867  1
  O  O16  1  0.62375087  0.11310298  0.14502945  1
  O  O17  1  0.48981270  0.37695524  0.14498459  1
  O  O18  1  0.46528145  0.29723908  0.02520081  1
  O  O19  1  0.83231038  0.53490941  0.02527375  1
  O  O20  1  0.70304059  0.16813403  0.02532816  1
  O  O21  1  0.47340533  0.16917564  0.52470478  1
  O  O22  1  0.69983665  0.53404341  0.52497271  1
  O  O23  1  0.84217352  0.30610237  0.52599386  1
  O  O24  1  0.53328752  0.69974006  0.97514453  1
  O  O25  1  0.16680507  0.46806670  0.97497853  1
  O  O26  1  0.29988621  0.83384178  0.97529988  1
  O  O27  1  0.53156016  0.84283402  0.47338448  1
  O  O28  1  0.31342396  0.47820035  0.47574532  1
  O  O29  1  0.16449488  0.68954463  0.47548107  1
  O  O30  1  0.13978924  0.63549506  0.35804938  1
  O  O31  1  0.50300415  0.86684294  0.35948301  1
  O  O32  1  0.36786094  0.50376137  0.35778388  1
  O  O33  1  0.13615785  0.50211193  0.85638464  1
  O  O34  1  0.36715249  0.86610287  0.85739025  1
  O  O35  1  0.49872551  0.63409301  0.85661952  1
  O  O36  1  0.01752040  0.82918137  0.41441192  1
  O  O37  1  0.79764060  0.97363919  0.41228692  1
  O  O38  1  0.16439070  0.18989579  0.41468559  1
  O  O39  1  0.02577127  0.18717674  0.91131766  1
  O  O40  1  0.16371283  0.97903428  0.91130868  1
  O  O41  1  0.81367381  0.83789306  0.91171524  1
  O  O42  1  0.97812652  0.17291689  0.58654115  1
  O  O43  1  0.18480065  0.02765230  0.58680848  1
  O  O44  1  0.84008988  0.81877844  0.58722124  1
  O  O45  1  0.97760527  0.81764641  0.09035873  1
  O  O46  1  0.84059086  0.02248954  0.09055736  1
  O  O47  1  0.18211133  0.15952773  0.09051876  1
  O  O48  1  0.69102624  0.16680462  0.74935838  1
  O  O49  1  0.46228240  0.30457853  0.74794128  1
  O  O50  1  0.83110032  0.52327659  0.74870690  1
  O  O51  1  0.68394237  0.52868076  0.24736187  1
  O  O52  1  0.84480621  0.31705757  0.24734073  1
  O  O53  1  0.47346944  0.15711746  0.24694504  1
  O  O54  1  0.64101072  0.49391812  0.92128646  1
  O  O55  1  0.85368457  0.35969083  0.92139195  1
  O  O56  1  0.50772284  0.14774323  0.92148496  1
  O  O57  1  0.63336213  0.13412916  0.42084374  1
  O  O58  1  0.51137374  0.36404213  0.42146288  1
  O  O59  1  0.85328538  0.48244866  0.42122849  1
  O  O60  1  0.34654143  0.49998068  0.07527705  1
  O  O61  1  0.15384357  0.65342798  0.07548572  1
  O  O62  1  0.49992388  0.84638584  0.07536801  1
  O  O63  1  0.34588691  0.84603031  0.57440167  1
  O  O64  1  0.49830458  0.65446984  0.57488430  1
  O  O65  1  0.14251253  0.49526809  0.57559566  1
  O  O66  1  0.30639478  0.83087408  0.25433939  1
  O  O67  1  0.52595007  0.69758874  0.25377951  1
  O  O68  1  0.17149584  0.47457370  0.25465257  1
  O  O69  1  0.29716412  0.46573356  0.75331975  1
  O  O70  1  0.17896462  0.69715633  0.75375251  1
  O  O71  1  0.52178798  0.81860777  0.75355449  1
loop_
_geom_bond_atom_site_label_1
_geom_bond_atom_site_label_2
_geom_bond_distance
_geom_bond_site_symmetry_2
Na0 O16 2.386778 1_555
Na0 O53 2.425725 1_555
Na0 O52 2.459566 1_555
Na0 O67 2.471379 1_545
Na0 O66 2.574706 1_545
Na0 O31 2.823887 1_545
Na0 O9 2.917370 1_545
Na1 O17 2.376646 1_555
Na1 O51 2.421050 1_555
Na1 O53 2.433660 1_555
Na1 O68 2.496260 1_555
Na1 O67 2.627461 1_555
Na1 O32 2.827752 1_555
Na1 O10 2.899368 1_555
Na2 O15 2.379878 1_555
Na2 O52 2.433352 1_555
Na2 O51 2.437663 1_555
Na2 O66 2.504842 1_655
Na2 O68 2.628767 1_655
Na2 O30 2.837904 1_655
Na2 O11 2.892978 1_655
Na3 O50 2.380271 1_555
Na3 O71 2.426809 1_555
Na3 O14 2.460370 1_555
Na3 O49 2.466528 1_555
Na3 O69 2.593945 1_555
Na3 O35 2.714639 1_555
Na4 O48 2.377816 1_555
Na4 O50 2.439160 1_555
Na4 O69 2.450757 1_655
Na4 O70 2.566704 1_655
Na4 O12 2.576425 1_555
Na4 O33 2.669139 1_655
Na5 O49 2.394822 1_555
Na5 O48 2.419591 1_555
Na5 O13 2.435729 1_555
Na5 O70 2.465266 1_545
Na5 O71 2.594440 1_545
Na5 O34 2.742948 1_545
Na6 O43 2.412367 1_555
Na6 O64 2.527028 1_555
Na6 O65 2.541899 1_555
Na6 O42 2.552298 1_455
Na6 O7 2.621485 1_555
Na6 O28 2.743360 1_555
Na6 O14 2.775681 1_555
Na6 O21 2.934215 1_555
Na7 O63 2.456886 1_555
Na7 O44 2.457702 1_455
Na7 O65 2.493408 1_555
Na7 O43 2.572050 1_565
Na7 O8 2.641071 1_555
Na7 O29 2.683173 1_555
Na7 O12 2.843002 1_455
Na7 O22 2.892707 1_455
Na8 O42 2.485312 1_565
Na8 O64 2.486367 1_555
Na8 O63 2.506141 1_555
Na8 O44 2.572554 1_555
Na8 O6 2.618771 1_555
Na8 O13 2.737731 1_565
Na8 O27 2.757431 1_555
Na8 O23 2.938238 1_565
Na9 O62 2.473207 1_555
Na9 O61 2.473282 1_555
Na9 O47 2.499413 1_565
Na9 O45 2.591394 1_455
Na9 O26 2.673131 1_554
Na9 O11 2.698124 1_555
Na9 O16 2.789449 1_565
Na9 O18 2.870967 1_565
Na10 O60 2.468082 1_555
Na10 O62 2.471281 1_555
Na10 O45 2.495769 1_555
Na10 O46 2.595251 1_565
Na10 O24 2.674773 1_554
Na10 O9 2.707854 1_555
Na10 O17 2.787905 1_555
Na10 O19 2.874944 1_555
Na11 O60 2.469691 1_555
Na11 O61 2.475693 1_555
Na11 O46 2.493809 1_455
Na11 O47 2.596298 1_555
Na11 O25 2.681957 1_554
Na11 O10 2.700631 1_555
Na11 O15 2.797770 1_455
Na11 O20 2.863898 1_455
Na12 O55 2.413501 1_555
Na12 O40 2.485326 1_655
Na12 O54 2.516799 1_555
Na12 O41 2.528981 1_555
Na12 O19 2.639790 1_556
Na12 O4 2.681776 1_555
Na12 O26 2.909635 1_655
Na12 O33 2.941499 1_655
Na13 O56 2.403552 1_555
Na13 O41 2.472069 1_545
Na13 O55 2.512053 1_555
Na13 O39 2.528590 1_655
Na13 O20 2.636244 1_556
Na13 O5 2.682039 1_555
Na13 O24 2.925349 1_545
Na13 O34 2.926637 1_545
Na14 O54 2.421717 1_555
Na14 O39 2.440572 1_555
Na14 O40 2.489310 1_545
Na14 O56 2.524901 1_555
Na14 O18 2.648160 1_556
Na14 O3 2.684343 1_555
Na14 O25 2.930614 1_555
Na14 O35 2.944705 1_555
Na15 O38 2.393000 1_655
Na15 O59 2.396963 1_555
Na15 O37 2.468509 1_545
Na15 O2 2.530229 1_555
Na15 O57 2.574743 1_555
Na15 O23 2.709705 1_555
Na16 O36 2.421442 1_545
Na16 O38 2.442506 1_555
Na16 O57 2.480769 1_555
Na16 O0 2.512527 1_555
Na16 O58 2.582467 1_555
Na16 O21 2.743642 1_555
Na17 O36 2.383616 1_655
Na17 O37 2.405494 1_555
Na17 O58 2.461876 1_555
Na17 O1 2.490135 1_555
Na17 O59 2.621842 1_555
Na17 O22 2.745716 1_555
Na18 O38 2.408648 1_555
Na18 O36 2.428966 1_545
Na18 O43 2.484519 1_555
Na18 O44 2.519056 1_445
Na18 O37 2.558811 1_445
Na18 O42 2.586160 1_455
Na19 O40 2.472615 1_545
Na19 O39 2.473962 1_555
Na19 O41 2.476816 1_445
Na19 O47 2.544965 1_556
Na19 O46 2.553186 1_456
Na19 O45 2.554772 1_446
Na20 O48 2.411613 1_555
Na20 O50 2.413052 1_555
Na20 O55 2.518959 1_555
Na20 O49 2.528858 1_555
Na20 O56 2.531489 1_555
Na20 O54 2.540835 1_555
Na21 O52 2.477424 1_555
Na21 O51 2.481644 1_555
Na21 O53 2.482863 1_555
Na21 O59 2.515587 1_555
Na21 O58 2.536447 1_555
Na21 O57 2.594629 1_555
Na22 O62 2.473395 1_555
Na22 O61 2.480775 1_555
Na22 O60 2.488664 1_555
Na22 O67 2.557959 1_555
Na22 O66 2.571847 1_555
Na22 O68 2.579946 1_555
Na23 O71 2.413639 1_555
Na23 O70 2.440058 1_555
Na23 O69 2.520111 1_555
Na23 O64 2.557231 1_555
Na23 O63 2.576055 1_555
Na23 O65 2.635284 1_555
Mg0 O0 2.010091 1_555
Mg0 O1 2.022725 1_445
Mg0 O2 2.028192 1_455
Mg0 O38 2.099443 1_555
Mg0 O36 2.105348 1_545
Mg0 O37 2.173517 1_445
Mg1 O13 2.017830 1_555
Mg1 O14 2.031578 1_555
Mg1 O12 2.085139 1_555
Mg1 O50 2.132159 1_555
Mg1 O48 2.132337 1_555
Mg1 O49 2.191488 1_555
Mg2 O15 1.992219 1_555
Mg2 O17 1.993343 1_555
Mg2 O16 1.994130 1_555
Mg2 O53 2.192909 1_555
Mg2 O52 2.212921 1_555
Mg2 O51 2.220131 1_555
O0 P0 1.538599 1_545
O1 P1 1.537326 1_555
O2 P2 1.535849 1_655
O3 P3 1.555648 1_555
O3 Ti0 1.998805 1_445
O4 Si0 1.646707 1_655
O4 Ti0 1.876080 1_555
O5 Si1 1.653422 1_545
O5 Ti0 1.857538 1_545
O6 Si1 1.671526 1_555
O6 Ti1 1.882878 1_555
O7 P3 1.570239 1_555
O7 Ti1 2.012885 1_445
O8 Si0 1.679828 1_555
O8 Ti1 1.844911 1_455
O9 P1 1.578516 1_555
O9 Ti2 2.035502 1_555
O10 P2 1.572510 1_555
O10 Ti2 2.067879 1_445
O11 P0 1.578126 1_555
O11 Ti2 2.051351 1_455
O12 P4 1.527149 1_555
O13 Si2 1.599106 1_555
O14 Si3 1.595314 1_555
O15 Si4 1.594310 1_555
O16 Si5 1.594163 1_555
O17 Si6 1.594687 1_555
O18 Si6 1.667338 1_555
O18 Ti3 1.923018 1_554
O19 Si4 1.665984 1_555
O19 Ti3 1.921192 1_554
O20 Si5 1.667629 1_555
O20 Ti3 1.922067 1_554
O21 Si2 1.682541 1_555
O21 Ti4 1.877770 1_555
O22 Si3 1.686995 1_555
O22 Ti4 1.850300 1_555
O23 P4 1.568827 1_555
O23 Ti4 2.046005 1_555
O24 Si7 1.633353 1_555
O24 Ti5 1.922335 1_556
O25 Si8 1.636506 1_555
O25 Ti5 1.913364 1_556
O26 Si9 1.632005 1_555
O26 Ti5 1.926569 1_556
O27 P5 1.554794 1_555
O27 Ti6 1.974094 1_555
O28 Si10 1.635265 1_555
O28 Ti6 1.888532 1_555
O29 Si11 1.639610 1_555
O29 Ti6 1.877293 1_555
O30 Si11 1.675944 1_555
O30 Ti7 1.848439 1_555
O31 P5 1.565549 1_555
O31 Ti7 1.987778 1_555
O32 Si10 1.671628 1_555
O32 Ti7 1.857264 1_555
O33 Si8 1.653369 1_555
O33 Ti8 1.903986 1_555
O34 Si9 1.661460 1_555
O34 Ti8 1.863453 1_555
O35 Si7 1.648721 1_555
O35 Ti8 1.904284 1_555
O36 Si11 1.610772 1_555
O37 P5 1.539007 1_555
O38 Si10 1.608631 1_555
O39 Si8 1.641505 1_555
O39 Ti0 2.042166 1_445
O40 Si9 1.635772 1_555
O40 Ti0 2.050766 1_455
O41 Si7 1.649350 1_555
O41 Ti0 1.985322 1_555
O42 P4 1.557239 1_555
O42 Ti1 2.207477 1_545
O43 Si2 1.656821 1_555
O43 Ti1 2.043579 1_445
O44 Si3 1.661113 1_555
O44 Ti1 1.985836 1_555
O45 Si4 1.675252 1_555
O45 Ti2 1.933695 1_555
O46 Si5 1.674323 1_555
O46 Ti2 1.936594 1_545
O47 Si6 1.673575 1_555
O47 Ti2 1.936402 1_445
O48 Si1 1.609231 1_545
O49 P3 1.534609 1_555
O50 Si0 1.606824 1_655
O51 P1 1.539776 1_555
O52 P2 1.535587 1_655
O53 P0 1.539465 1_545
O54 Si7 1.635793 1_555
O54 Ti3 2.071716 1_555
O55 Si8 1.639001 1_655
O55 Ti3 2.066582 1_555
O56 Si9 1.635658 1_545
O56 Ti3 2.061478 1_555
O57 P5 1.550318 1_545
O57 Ti4 2.213094 1_555
O58 Si10 1.657128 1_555
O58 Ti4 1.981217 1_555
O59 Si11 1.645715 1_655
O59 Ti4 2.041980 1_555
O60 Si6 1.642471 1_555
O60 Ti5 2.003000 1_555
O61 Si4 1.641338 1_455
O61 Ti5 2.000558 1_555
O62 Si5 1.641112 1_565
O62 Ti5 2.005625 1_555
O63 Si2 1.654866 1_565
O63 Ti6 1.970224 1_555
O64 Si3 1.645737 1_555
O64 Ti6 1.984789 1_555
O65 P4 1.570311 1_455
O65 Ti6 2.046764 1_555
O66 P0 1.580778 1_555
O66 Ti7 2.133361 1_555
O67 P1 1.580636 1_555
O67 Ti7 2.127574 1_555
O68 P2 1.594559 1_555
O68 Ti7 2.052741 1_555
O69 P3 1.555741 1_555
O69 Ti8 2.196413 1_555
O70 Si0 1.645261 1_555
O70 Ti8 2.040899 1_555
O71 Si1 1.647595 1_555
O71 Ti8 2.042906 1_555
