# generated using pymatgen
data_Sn3BrF5
_symmetry_space_group_name_H-M   'P 1'
_cell_length_a   12.65411270
_cell_length_b   4.25930922
_cell_length_c   13.38500699
_cell_angle_alpha   71.66885487
_cell_angle_beta   90.00000000
_cell_angle_gamma   90.00000000
_symmetry_Int_Tables_number   1
_chemical_formula_structural   Sn3BrF5
_chemical_formula_sum   'Sn12 Br4 F20'
_cell_volume   684.81333259
_cell_formula_units_Z   4
loop_
 _symmetry_equiv_pos_site_id
 _symmetry_equiv_pos_as_xyz
  1  'x, y, z'
loop_
 _atom_site_type_symbol
 _atom_site_label
 _atom_site_symmetry_multiplicity
 _atom_site_fract_x
 _atom_site_fract_y
 _atom_site_fract_z
 _atom_site_occupancy
  Sn  Sn0  1  0.12407034  0.03177650  0.34263216  1
  Sn  Sn1  1  0.62407034  0.96822350  0.15736784  1
  Sn  Sn2  1  0.87592966  0.96822350  0.65736784  1
  Sn  Sn3  1  0.37592966  0.03177650  0.84263216  1
  Sn  Sn4  1  0.34230742  0.44705693  0.12784726  1
  Sn  Sn5  1  0.84230742  0.55294307  0.37215274  1
  Sn  Sn6  1  0.65769258  0.55294307  0.87215274  1
  Sn  Sn7  1  0.15769258  0.44705693  0.62784726  1
  Sn  Sn8  1  0.39757455  0.54046514  0.39813816  1
  Sn  Sn9  1  0.89757455  0.45953486  0.10186184  1
  Sn  Sn10  1  0.60242545  0.45953486  0.60186184  1
  Sn  Sn11  1  0.10242545  0.54046514  0.89813816  1
  Br  Br0  1  0.12257168  0.86479577  0.12261567  1
  Br  Br1  1  0.62257168  0.13520423  0.37738433  1
  Br  Br2  1  0.87742832  0.13520423  0.87738433  1
  Br  Br3  1  0.37742832  0.86479577  0.62261567  1
  F  F0  1  0.34324254  0.14194817  0.34197367  1
  F  F1  1  0.84324254  0.85805183  0.15802633  1
  F  F2  1  0.65675746  0.85805183  0.65802633  1
  F  F3  1  0.15675746  0.14194817  0.84197367  1
  F  F4  1  0.01133041  0.62706621  0.37828901  1
  F  F5  1  0.51133041  0.37293379  0.12171099  1
  F  F6  1  0.98866959  0.37293379  0.62171099  1
  F  F7  1  0.48866959  0.62706621  0.87828901  1
  F  F8  1  0.38230261  0.91937359  0.01262723  1
  F  F9  1  0.88230261  0.08062641  0.48737277  1
  F  F10  1  0.61769739  0.08062641  0.98737277  1
  F  F11  1  0.11769739  0.91937359  0.51262723  1
  F  F12  1  0.22504842  0.59237395  0.39627120  1
  F  F13  1  0.72504842  0.40762605  0.10372880  1
  F  F14  1  0.77495158  0.40762605  0.60372880  1
  F  F15  1  0.27495158  0.59237395  0.89627120  1
  F  F16  1  0.10134213  0.73913996  0.72553961  1
  F  F17  1  0.60134213  0.26086004  0.77446039  1
  F  F18  1  0.89865787  0.26086004  0.27446039  1
  F  F19  1  0.39865787  0.73913996  0.22553961  1
loop_
_geom_bond_atom_site_label_1
_geom_bond_atom_site_label_2
_geom_bond_distance
_geom_bond_site_symmetry_2
Br0 Sn0 3.239790 1_565
Br0 Sn4 3.289967 1_555
Br1 Sn1 3.239790 1_545
Br1 Sn5 3.289967 1_555
Br2 Sn2 3.239790 1_545
Br2 Sn6 3.289967 1_555
Br3 Sn3 3.239790 1_565
Br3 Sn7 3.289967 1_555
F0 Sn8 2.172943 1_555
F0 Sn8 2.527791 1_545
F1 Sn9 2.172943 1_555
F1 Sn9 2.527791 1_565
F2 Sn10 2.172943 1_555
F2 Sn10 2.527791 1_565
F3 Sn11 2.172943 1_555
F3 Sn11 2.527791 1_545
F4 Sn5 2.167337 1_455
F4 Sn0 2.171861 1_565
F5 Sn4 2.167337 1_555
F5 Sn1 2.171861 1_545
F6 Sn7 2.167337 1_655
F6 Sn2 2.171861 1_545
F7 Sn6 2.167337 1_555
F7 Sn3 2.171861 1_565
F8 Sn3 2.174365 1_564
F8 Sn4 2.174888 1_555
F9 Sn2 2.174365 1_545
F9 Sn5 2.174888 1_555
F10 Sn1 2.174365 1_546
F10 Sn6 2.174888 1_555
F11 Sn0 2.174365 1_565
F11 Sn7 2.174888 1_555
F12 Sn0 2.192191 1_565
F12 Sn8 2.193682 1_555
F13 Sn1 2.192191 1_545
F13 Sn9 2.193682 1_555
F14 Sn2 2.192191 1_545
F14 Sn10 2.193682 1_555
F15 Sn3 2.192191 1_565
F15 Sn11 2.193682 1_555
F16 Sn7 2.188445 1_555
F16 Sn11 2.196303 1_555
F17 Sn6 2.188445 1_555
F17 Sn10 2.196303 1_555
F18 Sn5 2.188445 1_555
F18 Sn9 2.196303 1_555
F19 Sn4 2.188445 1_555
F19 Sn8 2.196303 1_555
