# generated using pymatgen
data_Na4Ca3TiSiS5O24
_symmetry_space_group_name_H-M   'P 1'
_cell_length_a   9.16115311
_cell_length_b   9.21807596
_cell_length_c   23.55923384
_cell_angle_alpha   90.31255648
_cell_angle_beta   89.70635350
_cell_angle_gamma   120.28234607
_symmetry_Int_Tables_number   1
_chemical_formula_structural   Na4Ca3TiSiS5O24
_chemical_formula_sum   'Na12 Ca9 Ti3 Si3 S15 O72'
_cell_volume   1718.03282278
_cell_formula_units_Z   3
loop_
 _symmetry_equiv_pos_site_id
 _symmetry_equiv_pos_as_xyz
  1  'x, y, z'
loop_
 _atom_site_type_symbol
 _atom_site_label
 _atom_site_symmetry_multiplicity
 _atom_site_fract_x
 _atom_site_fract_y
 _atom_site_fract_z
 _atom_site_occupancy
  Na  Na0  1  0.35953053  0.35920454  0.25153577  1
  Na  Na1  1  0.31909881  0.34885400  0.58768997  1
  Na  Na2  1  0.02821267  0.69628114  0.58087816  1
  Na  Na3  1  0.99138094  0.68468625  0.92274601  1
  Na  Na4  1  0.69553612  0.01933484  0.91194807  1
  Na  Na5  1  0.30979835  0.29766454  0.92010387  1
  Na  Na6  1  0.96295817  0.98226386  0.49844216  1
  Na  Na7  1  0.02048235  0.01603043  0.00125814  1
  Na  Na8  1  0.66127265  0.32944404  0.82486890  1
  Na  Na9  1  0.68256795  0.32291170  0.33449759  1
  Na  Na10  1  0.32677826  0.67962584  0.16987375  1
  Na  Na11  1  0.38096038  0.68047904  0.66885522  1
  Ca  Ca0  1  0.99243373  0.99258610  0.35138753  1
  Ca  Ca1  1  0.00251805  0.00468423  0.84464694  1
  Ca  Ca2  1  0.97771505  0.99102973  0.65014502  1
  Ca  Ca3  1  0.99617158  0.99252484  0.14504275  1
  Ca  Ca4  1  0.66312563  0.33124319  0.68625633  1
  Ca  Ca5  1  0.67722248  0.33419748  0.18501999  1
  Ca  Ca6  1  0.32768886  0.65937373  0.01888223  1
  Ca  Ca7  1  0.34815460  0.67515842  0.51281614  1
  Ca  Ca8  1  0.33632920  0.68033002  0.32267564  1
  Ti  Ti0  1  0.66966680  0.31829173  0.98012667  1
  Ti  Ti1  1  0.66556303  0.34471685  0.48420149  1
  Ti  Ti2  1  0.31308556  0.67316822  0.82294089  1
  Si  Si0  1  0.66708841  0.62827474  0.58306317  1
  Si  Si1  1  0.03370246  0.37265290  0.91842389  1
  Si  Si2  1  0.33699677  0.96635768  0.91956435  1
  S  S0  1  0.29904688  0.00068283  0.24944128  1
  S  S1  1  0.69030230  0.69391608  0.24971723  1
  S  S2  1  0.00790951  0.30196160  0.25070258  1
  S  S3  1  0.30869184  0.32687188  0.75380237  1
  S  S4  1  0.01270230  0.69211185  0.75399669  1
  S  S5  1  0.67164296  0.98193073  0.75677252  1
  S  S6  1  0.95515228  0.33416715  0.57843704  1
  S  S7  1  0.37464345  0.04595354  0.57990088  1
  S  S8  1  0.94917999  0.62223561  0.07767431  1
  S  S9  1  0.67470121  0.04795128  0.07844280  1
  S  S10  1  0.38346369  0.32900335  0.07951888  1
  S  S11  1  0.62117271  0.65577405  0.91564598  1
  S  S12  1  0.64427976  0.99356912  0.41978307  1
  S  S13  1  0.34545672  0.35630116  0.42001417  1
  S  S14  1  0.01313942  0.65389925  0.42310050  1
  O  O0  1  0.21135068  0.01250149  0.30055604  1
  O  O1  1  0.78518511  0.77835443  0.30109853  1
  O  O2  1  0.99590606  0.20558138  0.30186138  1
  O  O3  1  0.22043184  0.22477840  0.80402670  1
  O  O4  1  0.99296666  0.77370703  0.80479119  1
  O  O5  1  0.76703463  0.99892114  0.80891762  1
  O  O6  1  0.75822352  0.96582323  0.70567352  1
  O  O7  1  0.21382934  0.24682561  0.70046393  1
  O  O8  1  0.03400223  0.78876373  0.70144499  1
  O  O9  1  0.77573041  0.78784406  0.19787306  1
  O  O10  1  0.02032386  0.21630026  0.19875295  1
  O  O11  1  0.20323773  0.98820262  0.19745600  1
  O  O12  1  0.87624108  0.34349658  0.63134253  1
  O  O13  1  0.46927158  0.11152142  0.63249336  1
  O  O14  1  0.64760332  0.51245263  0.63594957  1
  O  O15  1  0.86223006  0.53544318  0.12950382  1
  O  O16  1  0.66670515  0.13401663  0.12913660  1
  O  O17  1  0.46521417  0.32976680  0.13284590  1
  O  O18  1  0.48858245  0.32675179  0.02839816  1
  O  O19  1  0.85084383  0.51884925  0.02590870  1
  O  O20  1  0.67545852  0.14969501  0.02549825  1
  O  O21  1  0.47694200  0.14967510  0.52966517  1
  O  O22  1  0.67088515  0.50345304  0.52648527  1
  O  O23  1  0.84576325  0.31836104  0.52827129  1
  O  O24  1  0.55959316  0.69224345  0.96771510  1
  O  O25  1  0.16482221  0.43891404  0.96898201  1
  O  O26  1  0.30184800  0.84492355  0.97120985  1
  O  O27  1  0.56055424  0.88995674  0.46971490  1
  O  O28  1  0.32732712  0.44126569  0.47039687  1
  O  O29  1  0.10960231  0.67353343  0.47510369  1
  O  O30  1  0.09450061  0.63096670  0.37241453  1
  O  O31  1  0.54546757  0.91743532  0.36754441  1
  O  O32  1  0.37420913  0.45598959  0.36775137  1
  O  O33  1  0.13408257  0.51469034  0.86399187  1
  O  O34  1  0.36587932  0.86529662  0.86237829  1
  O  O35  1  0.50809794  0.63335442  0.86635256  1
  O  O36  1  0.98303401  0.79577025  0.41746453  1
  O  O37  1  0.81667009  0.01785368  0.41582343  1
  O  O38  1  0.20039251  0.18524045  0.41579438  1
  O  O39  1  0.97971705  0.18099184  0.90415313  1
  O  O40  1  0.18508855  0.00474665  0.90957770  1
  O  O41  1  0.79680785  0.79616442  0.90604515  1
  O  O42  1  0.98456776  0.18958896  0.57798315  1
  O  O43  1  0.21523547  0.05479538  0.58130329  1
  O  O44  1  0.84881602  0.80240302  0.57826476  1
  O  O45  1  0.95755060  0.78688738  0.07260692  1
  O  O46  1  0.83351563  0.04475324  0.07402927  1
  O  O47  1  0.21534269  0.17487064  0.07454824  1
  O  O48  1  0.64850093  0.12936738  0.75233183  1
  O  O49  1  0.47987447  0.34716554  0.75232928  1
  O  O50  1  0.87072667  0.51792953  0.75081031  1
  O  O51  1  0.66537093  0.51955543  0.24838233  1
  O  O52  1  0.86003603  0.32641921  0.24903417  1
  O  O53  1  0.46699135  0.16111751  0.24822422  1
  O  O54  1  0.62668857  0.49446301  0.91991369  1
  O  O55  1  0.85195032  0.37602896  0.92920130  1
  O  O56  1  0.51944920  0.15361411  0.92723920  1
  O  O57  1  0.65926255  0.16315560  0.42658071  1
  O  O58  1  0.50312270  0.34027544  0.42746993  1
  O  O59  1  0.84168630  0.49229221  0.42783408  1
  O  O60  1  0.37180920  0.48234075  0.07705581  1
  O  O61  1  0.11916067  0.64205890  0.07796716  1
  O  O62  1  0.52512846  0.87978930  0.07564703  1
  O  O63  1  0.32834945  0.86883567  0.57260821  1
  O  O64  1  0.49622504  0.63899090  0.57846179  1
  O  O65  1  0.12136336  0.49243743  0.57329609  1
  O  O66  1  0.32397136  0.85390596  0.25216340  1
  O  O67  1  0.51525631  0.67011857  0.25191746  1
  O  O68  1  0.16836719  0.47014228  0.25316593  1
  O  O69  1  0.32289231  0.49613500  0.75996619  1
  O  O70  1  0.17569052  0.68641038  0.76043647  1
  O  O71  1  0.50254964  0.82329671  0.76022556  1
loop_
_geom_bond_atom_site_label_1
_geom_bond_atom_site_label_2
_geom_bond_distance
_geom_bond_site_symmetry_2
Na0 O51 2.421368 1_555
Na0 O68 2.432957 1_555
Na0 O53 2.473876 1_555
Na0 O67 2.475018 1_555
Na0 O32 2.857718 1_555
Na1 O64 2.336494 1_555
Na1 O43 2.381487 1_555
Na1 O42 2.658165 1_455
Na1 O65 2.752732 1_555
Na1 O7 2.821312 1_555
Na1 O14 2.839560 1_555
Na1 O28 2.885508 1_555
Na2 O44 2.298888 1_455
Na2 O63 2.390685 1_555
Na2 O65 2.429593 1_555
Na2 O29 2.634910 1_555
Na2 O43 2.854243 1_565
Na2 O8 2.954207 1_555
Na3 O55 2.467280 1_555
Na3 O41 2.499421 1_555
Na3 O40 2.583408 1_665
Na3 O26 2.711642 1_655
Na3 O19 2.815147 1_556
Na3 O33 2.846845 1_655
Na3 O54 2.886891 1_555
Na3 O4 2.899735 1_555
Na4 O39 2.262217 1_555
Na4 O56 2.503430 1_555
Na4 O5 2.541525 1_545
Na4 O41 2.651904 1_545
Na4 O34 2.862500 1_545
Na4 O55 2.875653 1_555
Na4 O24 2.933887 1_545
Na4 O20 2.969359 1_556
Na5 O40 2.354137 1_555
Na5 O54 2.531293 1_555
Na5 O25 2.548991 1_555
Na5 O39 2.677560 1_455
Na5 O3 2.836963 1_555
Na5 O56 2.838698 1_555
Na5 O35 2.971368 1_555
Na5 O18 2.975947 1_556
Na6 O44 2.375751 1_555
Na6 O37 2.483829 1_565
Na6 O42 2.605071 1_565
Na6 O36 2.628356 1_555
Na6 O38 2.813409 1_665
Na6 O43 2.841287 1_665
Na7 O47 2.383254 1_555
Na7 O46 2.522992 1_455
Na7 O45 2.533805 1_445
Na7 O40 2.659406 1_554
Na7 O39 2.881819 1_454
Na7 O41 3.024458 1_444
Na8 O49 2.452523 1_555
Na8 O48 2.466910 1_555
Na8 O50 2.526137 1_555
Na8 O54 2.805327 1_555
Na8 O56 2.831688 1_555
Na8 O55 2.924638 1_555
Na9 O52 2.571467 1_555
Na9 O57 2.575579 1_555
Na9 O59 2.664221 1_555
Na9 O53 2.700631 1_555
Na9 O58 2.783956 1_555
Na9 O51 2.785336 1_555
Na10 O66 2.519374 1_555
Na10 O68 2.621350 1_555
Na10 O67 2.629413 1_555
Na10 O61 2.792069 1_555
Na10 O62 2.873386 1_555
Na10 O60 2.993858 1_555
Na11 O71 2.474351 1_555
Na11 O64 2.484321 1_555
Na11 O69 2.625737 1_555
Na11 O70 2.873202 1_555
Ca0 O0 2.257532 1_665
Ca0 O1 2.263734 1_555
Ca0 O2 2.275746 1_565
Ca0 O37 2.302352 1_565
Ca0 O36 2.365213 1_555
Ca0 O38 2.381990 1_665
Ca1 O3 2.221310 1_555
Ca1 O39 2.228196 1_455
Ca1 O40 2.272164 1_555
Ca1 O4 2.283376 1_445
Ca1 O5 2.295182 1_445
Ca1 O41 2.384881 1_445
Ca2 O44 2.281041 1_555
Ca2 O6 2.305179 1_555
Ca2 O42 2.482197 1_565
Ca2 O8 2.490696 1_655
Ca2 O43 2.528841 1_665
Ca2 O7 2.548738 1_665
Ca3 O11 2.285958 1_655
Ca3 O9 2.311805 1_555
Ca3 O10 2.327931 1_665
Ca3 O45 2.434166 1_555
Ca3 O46 2.451348 1_565
Ca3 O47 2.491514 1_665
Ca4 O14 2.116134 1_555
Ca4 O13 2.286471 1_555
Ca4 O12 2.291634 1_555
Ca4 O49 2.341410 1_555
Ca4 O50 2.364701 1_555
Ca4 O48 2.383741 1_555
Ca5 O15 2.203961 1_555
Ca5 O16 2.223329 1_555
Ca5 O17 2.286652 1_555
Ca5 O52 2.287500 1_555
Ca5 O51 2.305909 1_555
Ca5 O53 2.317242 1_555
Ca6 O25 2.161497 1_554
Ca6 O26 2.162176 1_554
Ca6 O61 2.297880 1_555
Ca6 O24 2.320994 1_554
Ca6 O60 2.323817 1_555
Ca6 O62 2.340324 1_555
Ca7 O64 2.196888 1_555
Ca7 O27 2.203158 1_555
Ca7 O28 2.290679 1_555
Ca7 O63 2.345478 1_555
Ca7 O29 2.356351 1_555
Ca7 O65 2.377067 1_555
Ca8 O31 2.310327 1_555
Ca8 O30 2.334703 1_555
Ca8 O66 2.355033 1_555
Ca8 O67 2.366553 1_555
Ca8 O68 2.405802 1_555
Ca8 O32 2.505240 1_555
O0 S0 1.477971 1_555
O1 S1 1.464546 1_555
O2 S2 1.471689 1_655
O3 S3 1.474598 1_555
O4 S4 1.468187 1_655
O5 S5 1.472517 1_555
O6 S5 1.485758 1_555
O7 S3 1.494371 1_555
O8 S4 1.482876 1_555
O9 S1 1.473889 1_555
O10 S2 1.487605 1_555
O11 S0 1.480286 1_565
O12 S6 1.461453 1_555
O13 S7 1.458238 1_555
O14 Si0 1.595057 1_555
O15 S8 1.457245 1_555
O16 S9 1.452077 1_555
O17 S10 1.464096 1_555
O18 S10 1.544768 1_555
O18 Ti0 2.040013 1_554
O19 S8 1.529659 1_555
O19 Ti0 2.058652 1_554
O20 S9 1.562569 1_555
O20 Ti0 1.913796 1_554
O21 S7 1.513423 1_555
O21 Ti1 2.057777 1_555
O22 Ti1 1.745984 1_555
O22 Si0 1.767764 1_555
O23 S6 1.511723 1_555
O23 Ti1 2.070526 1_555
O24 S11 1.454564 1_555
O25 Si1 1.581613 1_555
O26 Si2 1.576220 1_555
O27 S12 1.465791 1_555
O28 S13 1.472734 1_555
O29 S14 1.470402 1_555
O30 S14 1.474182 1_555
O31 S12 1.479153 1_555
O32 S13 1.481472 1_555
O33 Si1 1.731004 1_555
O33 Ti2 1.828046 1_555
O34 Si2 1.727492 1_555
O34 Ti2 1.832099 1_555
O35 S11 1.502746 1_555
O35 Ti2 2.248667 1_555
O36 S14 1.473095 1_655
O37 S12 1.481605 1_545
O38 S13 1.465839 1_555
O39 Si1 1.610287 1_655
O40 Si2 1.618089 1_545
O41 S11 1.488057 1_555
O42 S6 1.486920 1_555
O43 S7 1.503298 1_555
O44 Si0 1.632756 1_555
O45 S8 1.486024 1_555
O46 S9 1.473144 1_555
O47 S10 1.482447 1_555
O48 S5 1.481677 1_545
O49 S3 1.482967 1_555
O50 S4 1.472718 1_655
O51 S1 1.505246 1_555
O52 S2 1.481967 1_655
O53 S0 1.503457 1_555
O54 S11 1.516980 1_555
O54 Ti0 2.341010 1_555
O55 Si1 1.698735 1_655
O55 Ti0 1.897743 1_555
O56 Si2 1.701761 1_545
O56 Ti0 1.908082 1_555
O57 S12 1.506441 1_545
O57 Ti1 2.127398 1_555
O58 S13 1.535270 1_555
O58 Ti1 1.990215 1_555
O59 S14 1.529368 1_655
O59 Ti1 2.000390 1_555
O60 S10 1.471679 1_555
O61 S8 1.473596 1_455
O62 S9 1.463721 1_565
O63 S7 1.474585 1_565
O64 Si0 1.621570 1_555
O65 S6 1.490420 1_455
O66 S0 1.483081 1_565
O67 S1 1.505625 1_555
O68 S2 1.506386 1_555
O69 S3 1.505157 1_555
O69 Ti2 2.234377 1_555
O70 S4 1.528679 1_555
O70 Ti2 1.985839 1_555
O71 S5 1.503358 1_555
O71 Ti2 2.164357 1_555
