# generated using pymatgen
data_Cs3EuF6
_symmetry_space_group_name_H-M   'P 1'
_cell_length_a   7.18374266
_cell_length_b   7.18374266
_cell_length_c   7.18374266
_cell_angle_alpha   121.85885633
_cell_angle_beta   119.87202730
_cell_angle_gamma   88.51627422
_symmetry_Int_Tables_number   1
_chemical_formula_structural   Cs3EuF6
_chemical_formula_sum   'Cs3 Eu1 F6'
_cell_volume   258.51882229
_cell_formula_units_Z   1
loop_
 _symmetry_equiv_pos_site_id
 _symmetry_equiv_pos_as_xyz
  1  'x, y, z'
loop_
 _atom_site_type_symbol
 _atom_site_label
 _atom_site_symmetry_multiplicity
 _atom_site_fract_x
 _atom_site_fract_y
 _atom_site_fract_z
 _atom_site_occupancy
  Cs  Cs0  1  0.74611169  0.24611169  0.50000000  1
  Cs  Cs1  1  0.25388831  0.75388831  0.50000000  1
  Cs  Cs2  1  0.50000000  0.50000000  -0.00000000  1
  Eu  Eu0  1  -0.00000000  -0.00000000  -0.00000000  1
  F  F0  1  -0.00000000  0.30979960  0.30979960  1
  F  F1  1  -0.00000000  0.69020040  0.69020040  1
  F  F2  1  0.30948627  -0.00000000  0.30948627  1
  F  F3  1  0.69051373  -0.00000000  0.69051373  1
  F  F4  1  0.22375919  0.22375919  -0.00000000  1
  F  F5  1  0.77624081  0.77624081  -0.00000000  1
loop_
_geom_bond_atom_site_label_1
_geom_bond_atom_site_label_2
_geom_bond_distance
_geom_bond_site_symmetry_2
Cs0 F2 2.879907 1_555
Cs0 F3 2.879907 1_555
Cs0 F1 2.930574 1_655
Cs0 F0 2.930574 1_655
Cs0 F5 3.504225 1_556
Cs0 F5 3.504225 1_545
Cs0 F4 3.606160 1_555
Cs0 F4 3.606160 1_656
Cs1 F2 2.879907 1_565
Cs1 F3 2.879907 1_565
Cs1 F1 2.930574 1_555
Cs1 F0 2.930574 1_555
Cs1 F4 3.504225 1_555
Cs1 F4 3.504225 1_566
Cs1 F5 3.606160 1_455
Cs1 F5 3.606160 1_556
Cs2 F4 2.842527 1_555
Cs2 F5 2.842527 1_555
Eu0 F0 2.162701 1_555
Eu0 F1 2.162701 1_544
Eu0 F3 2.227569 1_454
Eu0 F2 2.227569 1_555
Eu0 F5 2.302490 1_445
Eu0 F4 2.302490 1_555
