# generated using pymatgen
data_Cs3Bi2Br9
_symmetry_space_group_name_H-M   'P 1'
_cell_length_a   8.01402722
_cell_length_b   8.01402757
_cell_length_c   9.94480076
_cell_angle_alpha   90.00000000
_cell_angle_beta   90.00000000
_cell_angle_gamma   119.99999857
_symmetry_Int_Tables_number   1
_chemical_formula_structural   Cs3Bi2Br9
_chemical_formula_sum   'Cs3 Bi2 Br9'
_cell_volume   553.13147227
_cell_formula_units_Z   1
loop_
 _symmetry_equiv_pos_site_id
 _symmetry_equiv_pos_as_xyz
  1  'x, y, z'
loop_
 _atom_site_type_symbol
 _atom_site_label
 _atom_site_symmetry_multiplicity
 _atom_site_fract_x
 _atom_site_fract_y
 _atom_site_fract_z
 _atom_site_occupancy
  Cs  Cs0  1  0.33333300  0.66666700  0.33723250  1
  Cs  Cs1  1  0.66666700  0.33333300  0.66276750  1
  Cs  Cs2  1  0.00000000  -0.00000000  -0.00000000  1
  Bi  Bi0  1  0.33333300  0.66666700  0.81045269  1
  Bi  Bi1  1  0.66666700  0.33333300  0.18954731  1
  Br  Br0  1  0.16692730  0.33385261  0.66240679  1
  Br  Br1  1  0.66614739  0.83307270  0.66240679  1
  Br  Br2  1  0.16692730  0.83307270  0.66240679  1
  Br  Br3  1  0.83307270  0.66614739  0.33759321  1
  Br  Br4  1  0.83307270  0.16692730  0.33759321  1
  Br  Br5  1  0.50000000  0.50000000  -0.00000000  1
  Br  Br6  1  0.50000000  -0.00000000  -0.00000000  1
  Br  Br7  1  0.00000000  0.50000000  -0.00000000  1
  Br  Br8  1  0.33385261  0.16692730  0.33759321  1
loop_
_geom_bond_atom_site_label_1
_geom_bond_atom_site_label_2
_geom_bond_distance
_geom_bond_site_symmetry_2
Bi0 Br2 2.739148 1_555
Bi0 Br1 2.739166 1_555
Bi0 Br0 2.739166 1_555
Bi0 Br7 2.984176 1_556
Bi0 Br6 2.984176 1_566
Bi0 Br5 2.984181 1_556
Bi1 Br4 2.739148 1_555
Bi1 Br8 2.739166 1_555
Bi1 Br3 2.739166 1_555
Bi1 Br7 2.984176 1_655
Bi1 Br6 2.984176 1_555
Bi1 Br5 2.984181 1_555
Br0 Cs0 3.974018 1_555
Br0 Cs1 4.007013 1_555
Br0 Cs1 4.007021 1_455
Br0 Cs2 4.079238 1_556
Br1 Cs0 3.974018 1_555
Br1 Cs1 4.007013 1_555
Br1 Cs1 4.007021 1_565
Br1 Cs2 4.079238 1_666
Br2 Cs0 3.974006 1_555
Br2 Cs1 4.007017 1_455
Br2 Cs1 4.007017 1_565
Br2 Cs2 4.079246 1_566
Br3 Cs1 3.974018 1_555
Br3 Cs0 4.007013 1_555
Br3 Cs0 4.007021 1_655
Br3 Cs2 4.079238 1_665
Br4 Cs1 3.974006 1_555
Br4 Cs0 4.007017 1_655
Br4 Cs0 4.007017 1_545
Br4 Cs2 4.079246 1_655
Br5 Cs2 4.007014 1_665
Br5 Cs2 4.007014 1_555
Br5 Cs0 4.074242 1_555
Br5 Cs1 4.074242 1_554
Br6 Cs2 4.007014 1_555
Br6 Cs2 4.007014 1_655
Br6 Cs1 4.074238 1_554
Br6 Cs0 4.074238 1_545
Br7 Cs2 4.007014 1_555
Br7 Cs2 4.007014 1_565
Br7 Cs1 4.074238 1_454
Br7 Cs0 4.074238 1_555
Br8 Cs1 3.974018 1_555
Br8 Cs0 4.007013 1_555
Br8 Cs0 4.007021 1_545
Br8 Cs2 4.079238 1_555
