# generated using pymatgen
data_LiCoP2O7
_symmetry_space_group_name_H-M   'P 1'
_cell_length_a   6.20711100
_cell_length_b   6.20896333
_cell_length_c   6.72972492
_cell_angle_alpha   66.63009128
_cell_angle_beta   86.28166266
_cell_angle_gamma   82.54056355
_symmetry_Int_Tables_number   1
_chemical_formula_structural   LiCoP2O7
_chemical_formula_sum   'Li2 Co2 P4 O14'
_cell_volume   236.04418931
_cell_formula_units_Z   2
loop_
 _symmetry_equiv_pos_site_id
 _symmetry_equiv_pos_as_xyz
  1  'x, y, z'
loop_
 _atom_site_type_symbol
 _atom_site_label
 _atom_site_symmetry_multiplicity
 _atom_site_fract_x
 _atom_site_fract_y
 _atom_site_fract_z
 _atom_site_occupancy
  Li  Li0  1  0.01326200  0.71461700  0.83078400  1
  Li  Li1  1  0.98673800  0.28538300  0.16921600  1
  Co  Co0  1  0.63656300  0.08979000  0.78861000  1
  Co  Co1  1  0.36343700  0.91021000  0.21139000  1
  P  P0  1  0.60103500  0.65295200  0.64971700  1
  P  P1  1  0.87189300  0.78144700  0.23566800  1
  P  P2  1  0.12810700  0.21855300  0.76433200  1
  P  P3  1  0.39896500  0.34704800  0.35028300  1
  O  O0  1  0.58747100  0.39601200  0.80140800  1
  O  O1  1  0.41252900  0.60398800  0.19859200  1
  O  O2  1  0.32113400  0.22129000  0.21726800  1
  O  O3  1  0.39387600  0.77959200  0.51949900  1
  O  O4  1  0.67886600  0.77871000  0.78273200  1
  O  O5  1  0.95587300  0.06392400  0.75510400  1
  O  O6  1  0.95020500  0.60377900  0.14286800  1
  O  O7  1  0.04979500  0.39622100  0.85713200  1
  O  O8  1  0.20761200  0.35325300  0.52242700  1
  O  O9  1  0.79238800  0.64674700  0.47757300  1
  O  O10  1  0.04412700  0.93607600  0.24489600  1
  O  O11  1  0.60612400  0.22040800  0.48050100  1
  O  O12  1  0.33370800  0.04362600  0.88269200  1
  O  O13  1  0.66629200  0.95637400  0.11730800  1
loop_
_geom_bond_atom_site_label_1
_geom_bond_atom_site_label_2
_geom_bond_distance
_geom_bond_site_symmetry_2
Li0 O7 1.897830 1_555
Li0 O6 1.963281 1_456
Li0 O5 2.009165 1_465
Li0 O4 2.083671 1_455
Li1 O6 1.897830 1_555
Li1 O7 1.963281 1_654
Li1 O10 2.009165 1_645
Li1 O2 2.083671 1_655
Co0 O11 1.915655 1_555
Co0 O0 1.921294 1_555
Co0 O4 1.930991 1_545
Co0 O12 1.964291 1_555
Co0 O5 1.973080 1_555
Co0 O13 2.042782 1_546
Co1 O3 1.915655 1_555
Co1 O1 1.921294 1_555
Co1 O2 1.930991 1_565
Co1 O13 1.964291 1_555
Co1 O10 1.973080 1_555
Co1 O12 2.042782 1_564
O0 P0 1.525126 1_555
O1 P3 1.525126 1_555
O2 P3 1.533925 1_555
O3 P0 1.541635 1_555
O4 P0 1.533925 1_555
O5 P2 1.546273 1_655
O6 P1 1.486996 1_555
O7 P2 1.486996 1_555
O8 P2 1.586211 1_555
O8 P3 1.612256 1_555
O9 P1 1.586211 1_555
O9 P0 1.612256 1_555
O10 P1 1.546273 1_455
O11 P3 1.541635 1_555
O12 P2 1.590089 1_555
O13 P1 1.590089 1_555
