# generated using pymatgen
data_PrLuO3
_symmetry_space_group_name_H-M   'P 1'
_cell_length_a   5.73312695
_cell_length_b   5.96712043
_cell_length_c   8.28217456
_cell_angle_alpha   89.99996985
_cell_angle_beta   89.99996573
_cell_angle_gamma   89.99996202
_symmetry_Int_Tables_number   1
_chemical_formula_structural   PrLuO3
_chemical_formula_sum   'Pr4 Lu4 O12'
_cell_volume   283.33533638
_cell_formula_units_Z   4
loop_
 _symmetry_equiv_pos_site_id
 _symmetry_equiv_pos_as_xyz
  1  'x, y, z'
loop_
 _atom_site_type_symbol
 _atom_site_label
 _atom_site_symmetry_multiplicity
 _atom_site_fract_x
 _atom_site_fract_y
 _atom_site_fract_z
 _atom_site_occupancy
  Pr  Pr0  1  0.98340077  0.05484270  0.24999936  1
  Pr  Pr1  1  0.48340009  0.44514881  0.74999949  1
  Pr  Pr2  1  0.51660026  0.55486220  0.24999996  1
  Pr  Pr3  1  0.01659702  0.94513007  0.75000185  1
  Lu  Lu0  1  0.00000465  0.50001331  -0.00001065  1
  Lu  Lu1  1  0.49999979  -0.00000790  -0.00000256  1
  Lu  Lu2  1  0.49999916  -0.00000484  0.50000282  1
  Lu  Lu3  1  0.00000290  0.50001127  0.50000945  1
  O  O0  1  0.69426541  0.30352730  0.43595247  1
  O  O1  1  0.19426902  0.19647571  0.56404250  1
  O  O2  1  0.80573446  0.80352751  0.06404636  1
  O  O3  1  0.30573077  0.69647308  0.93595922  1
  O  O4  1  0.30573125  0.69647428  0.56404192  1
  O  O5  1  0.80573379  0.80352891  0.43595203  1
  O  O6  1  0.19426729  0.19647364  0.93595939  1
  O  O7  1  0.69426469  0.30352698  0.06404594  1
  O  O8  1  0.12120433  0.44873035  0.25000089  1
  O  O9  1  0.62120162  0.05126787  0.74999920  1
  O  O10  1  0.37879431  0.94873382  0.25000085  1
  O  O11  1  0.87879844  0.55126493  0.74999949  1
loop_
_geom_bond_atom_site_label_1
_geom_bond_atom_site_label_2
_geom_bond_distance
_geom_bond_site_symmetry_2
Lu0 O3 2.174329 1_554
Lu0 O7 2.174531 1_455
Lu0 O2 2.191361 1_455
Lu0 O6 2.191410 1_554
Lu0 O11 2.205268 1_454
Lu0 O8 2.205450 1_555
Lu1 O2 2.174421 1_545
Lu1 O6 2.174443 1_554
Lu1 O3 2.191345 1_544
Lu1 O7 2.191432 1_555
Lu1 O9 2.205344 1_554
Lu1 O10 2.205377 1_545
Lu2 O5 2.174429 1_545
Lu2 O1 2.174432 1_555
Lu2 O4 2.191352 1_545
Lu2 O0 2.191425 1_555
Lu2 O9 2.205329 1_555
Lu2 O10 2.205368 1_545
Lu3 O4 2.174355 1_555
Lu3 O0 2.174514 1_455
Lu3 O5 2.191375 1_455
Lu3 O1 2.191406 1_555
Lu3 O11 2.205267 1_455
Lu3 O8 2.205428 1_555
O0 Pr2 2.378784 1_555
O0 Pr0 2.705872 1_555
O0 Pr1 2.990115 1_555
O1 Pr3 2.378878 1_545
O1 Pr1 2.705840 1_555
O1 Pr0 2.990115 1_455
O2 Pr0 2.378717 1_565
O2 Pr2 2.705808 1_555
O2 Pr3 2.990058 1_654
O3 Pr1 2.378793 1_555
O3 Pr3 2.705797 1_555
O3 Pr2 2.990062 1_556
O4 Pr1 2.378785 1_555
O4 Pr3 2.705806 1_555
O4 Pr2 2.990071 1_555
O5 Pr0 2.378710 1_565
O5 Pr2 2.705805 1_555
O5 Pr3 2.990098 1_655
O6 Pr3 2.378858 1_545
O6 Pr1 2.705865 1_555
O6 Pr0 2.990083 1_456
O7 Pr2 2.378792 1_555
O7 Pr0 2.705876 1_555
O7 Pr1 2.990110 1_554
O8 Pr2 2.353658 1_555
O8 Pr0 2.479604 1_455
O9 Pr3 2.353664 1_645
O9 Pr1 2.479562 1_555
O10 Pr0 2.353607 1_465
O10 Pr2 2.479517 1_555
O11 Pr1 2.353646 1_555
O11 Pr3 2.479468 1_655
