# generated using pymatgen
data_Si(PbSe2)2
_symmetry_space_group_name_H-M   'P 1'
_cell_length_a   7.28624078
_cell_length_b   8.69018504
_cell_length_c   13.84954913
_cell_angle_alpha   71.96685963
_cell_angle_beta   90.00000000
_cell_angle_gamma   90.00000000
_symmetry_Int_Tables_number   1
_chemical_formula_structural   Si(PbSe2)2
_chemical_formula_sum   'Si4 Pb8 Se16'
_cell_volume   833.85935133
_cell_formula_units_Z   4
loop_
 _symmetry_equiv_pos_site_id
 _symmetry_equiv_pos_as_xyz
  1  'x, y, z'
loop_
 _atom_site_type_symbol
 _atom_site_label
 _atom_site_symmetry_multiplicity
 _atom_site_fract_x
 _atom_site_fract_y
 _atom_site_fract_z
 _atom_site_occupancy
  Si  Si0  1  0.74706009  0.20254620  0.35566462  1
  Si  Si1  1  0.24706009  0.79745380  0.14433538  1
  Si  Si2  1  0.25293991  0.79745380  0.64433538  1
  Si  Si3  1  0.75293991  0.20254620  0.85566462  1
  Pb  Pb0  1  0.64094402  0.55650918  0.13757827  1
  Pb  Pb1  1  0.14094402  0.44349082  0.36242173  1
  Pb  Pb2  1  0.35905598  0.44349082  0.86242173  1
  Pb  Pb3  1  0.85905598  0.55650918  0.63757827  1
  Pb  Pb4  1  0.64702433  0.05568237  0.12681513  1
  Pb  Pb5  1  0.14702433  0.94431763  0.37318487  1
  Pb  Pb6  1  0.35297567  0.94431763  0.87318487  1
  Pb  Pb7  1  0.85297567  0.05568237  0.62681513  1
  Se  Se0  1  0.76539253  0.93441040  0.44471594  1
  Se  Se1  1  0.26539253  0.06558960  0.05528406  1
  Se  Se2  1  0.23460747  0.06558960  0.55528406  1
  Se  Se3  1  0.73460747  0.93441040  0.94471594  1
  Se  Se4  1  0.52314019  0.26862905  0.73818818  1
  Se  Se5  1  0.02314019  0.73137095  0.76181182  1
  Se  Se6  1  0.47685981  0.73137095  0.26181182  1
  Se  Se7  1  0.97685981  0.26862905  0.23818818  1
  Se  Se8  1  0.51892905  0.74642577  0.73431404  1
  Se  Se9  1  0.01892905  0.25357423  0.76568596  1
  Se  Se10  1  0.48107095  0.25357423  0.26568596  1
  Se  Se11  1  0.98107095  0.74642577  0.23431404  1
  Se  Se12  1  0.72491796  0.36504354  0.95693187  1
  Se  Se13  1  0.22491796  0.63495646  0.54306813  1
  Se  Se14  1  0.27508204  0.63495646  0.04306813  1
  Se  Se15  1  0.77508204  0.36504354  0.45693187  1
loop_
_geom_bond_atom_site_label_1
_geom_bond_atom_site_label_2
_geom_bond_distance
_geom_bond_site_symmetry_2
Pb0 Se6 2.884031 1_555
Pb0 Se10 2.922905 1_555
Pb0 Se14 2.954966 1_555
Pb1 Se7 2.884031 1_455
Pb1 Se11 2.922905 1_455
Pb1 Se15 2.954966 1_455
Pb2 Se4 2.884031 1_555
Pb2 Se8 2.922905 1_555
Pb2 Se12 2.954966 1_555
Pb3 Se5 2.884031 1_655
Pb3 Se9 2.922905 1_655
Pb3 Se13 2.954966 1_655
Pb4 Se1 2.944166 1_555
Pb4 Se12 3.028057 1_554
Pb4 Se3 3.086083 1_544
Pb4 Se6 3.116633 1_545
Pb4 Se10 3.188481 1_555
Pb5 Se0 2.944166 1_455
Pb5 Se13 3.028057 1_555
Pb5 Se2 3.086083 1_565
Pb5 Se7 3.116633 1_465
Pb5 Se11 3.188481 1_455
Pb6 Se3 2.944166 1_555
Pb6 Se14 3.028057 1_556
Pb6 Se1 3.086083 1_566
Pb6 Se4 3.116633 1_565
Pb6 Se8 3.188481 1_555
Pb7 Se2 2.944166 1_655
Pb7 Se15 3.028057 1_555
Pb7 Se0 3.086083 1_545
Pb7 Se5 3.116633 1_645
Pb7 Se9 3.188481 1_655
Se0 Si0 2.277990 1_565
Se1 Si1 2.277990 1_545
Se2 Si2 2.277990 1_545
Se3 Si3 2.277990 1_565
Se4 Si3 2.280780 1_555
Se5 Si2 2.280780 1_555
Se6 Si1 2.280780 1_555
Se7 Si0 2.280780 1_555
Se8 Si2 2.272336 1_555
Se9 Si3 2.272336 1_455
Se10 Si0 2.272336 1_555
Se11 Si1 2.272336 1_655
Se12 Si3 2.286708 1_555
Se13 Si2 2.286708 1_555
Se14 Si1 2.286708 1_555
Se15 Si0 2.286708 1_555
