# generated using pymatgen
data_MgMn2P2(HO5)2
_symmetry_space_group_name_H-M   'P 1'
_cell_length_a   5.55877773
_cell_length_b   7.31020881
_cell_length_c   5.20757189
_cell_angle_alpha   108.17774276
_cell_angle_beta   100.69238633
_cell_angle_gamma   106.95040114
_symmetry_Int_Tables_number   1
_chemical_formula_structural   MgMn2P2(HO5)2
_chemical_formula_sum   'Mg1 Mn2 P2 H2 O10'
_cell_volume   183.20275602
_cell_formula_units_Z   1
loop_
 _symmetry_equiv_pos_site_id
 _symmetry_equiv_pos_as_xyz
  1  'x, y, z'
loop_
 _atom_site_type_symbol
 _atom_site_label
 _atom_site_symmetry_multiplicity
 _atom_site_fract_x
 _atom_site_fract_y
 _atom_site_fract_z
 _atom_site_occupancy
  Mg  Mg0  1  0.59999300  0.15913100  0.24004500  1
  Mn  Mn0  1  0.00090600  0.50295000  0.99671900  1
  Mn  Mn1  1  0.98709900  0.98630500  0.99971900  1
  P  P0  1  0.36367400  0.23902900  0.67284000  1
  P  P1  1  0.62873200  0.75970100  0.34196400  1
  H  H0  1  0.07846700  0.34569100  0.35072600  1
  H  H1  1  0.96467000  0.66851700  0.64568700  1
  O  O0  1  0.04380200  0.72703800  0.85654400  1
  O  O1  1  0.20872800  0.38145200  0.69084500  1
  O  O2  1  0.33260300  0.64344500  0.29457300  1
  O  O3  1  0.25850400  0.06689100  0.36148500  1
  O  O4  1  0.35237600  0.14605400  0.89869400  1
  O  O5  1  0.66268400  0.89269900  0.15973200  1
  O  O6  1  0.74307800  0.92401400  0.65365600  1
  O  O7  1  0.66045000  0.33922200  0.67907600  1
  O  O8  1  0.77913900  0.61173000  0.29160500  1
  O  O9  1  0.94759400  0.27279800  0.15359000  1
loop_
_geom_bond_atom_site_label_1
_geom_bond_atom_site_label_2
_geom_bond_distance
_geom_bond_site_symmetry_2
Mg0 O4 1.993228 1_554
Mg0 O5 2.007833 1_545
Mg0 O9 2.060758 1_555
Mg0 O3 2.103138 1_555
Mg0 O7 2.156887 1_555
Mn0 O2 1.923808 1_556
Mn0 O0 1.963697 1_555
Mn0 O7 2.008154 1_455
Mn0 O9 2.059734 1_456
Mn0 O8 2.241064 1_456
Mn0 O1 2.249229 1_555
Mn1 O6 1.875045 1_555
Mn1 O0 1.949681 1_655
Mn1 O3 1.976604 1_666
Mn1 O9 2.088753 1_566
Mn1 O5 2.146744 1_556
Mn1 O4 2.271680 1_665
H0 O9 1.011244 1_455
H0 O1 1.689558 1_555
H1 O0 1.000089 1_655
O1 P0 1.525308 1_555
O2 P1 1.547750 1_555
O3 P0 1.581296 1_555
O4 P0 1.533137 1_555
O5 P1 1.554538 1_555
O6 P1 1.561078 1_555
O7 P0 1.587386 1_555
O8 P1 1.539344 1_555
