# generated using pymatgen
data_K2ZrTe3
_symmetry_space_group_name_H-M   'P 1'
_cell_length_a   14.27135963
_cell_length_b   7.04735864
_cell_length_c   9.22874663
_cell_angle_alpha   73.97040118
_cell_angle_beta   90.00000000
_cell_angle_gamma   90.00000000
_symmetry_Int_Tables_number   1
_chemical_formula_structural   K2ZrTe3
_chemical_formula_sum   'K8 Zr4 Te12'
_cell_volume   892.09619612
_cell_formula_units_Z   4
loop_
 _symmetry_equiv_pos_site_id
 _symmetry_equiv_pos_as_xyz
  1  'x, y, z'
loop_
 _atom_site_type_symbol
 _atom_site_label
 _atom_site_symmetry_multiplicity
 _atom_site_fract_x
 _atom_site_fract_y
 _atom_site_fract_z
 _atom_site_occupancy
  K  K0  1  0.96232538  0.66383530  0.65632832  1
  K  K1  1  0.46232538  0.83616470  0.34367168  1
  K  K2  1  0.03767462  0.33616470  0.34367168  1
  K  K3  1  0.53767462  0.16383530  0.65632832  1
  K  K4  1  0.86303566  0.05980108  0.89744615  1
  K  K5  1  0.36303566  0.44019892  0.10255385  1
  K  K6  1  0.13696434  0.94019892  0.10255385  1
  K  K7  1  0.63696434  0.55980108  0.89744615  1
  Zr  Zr0  1  0.74962954  0.69248093  0.29328192  1
  Zr  Zr1  1  0.24962954  0.80751907  0.70671808  1
  Zr  Zr2  1  0.25037046  0.30751907  0.70671808  1
  Zr  Zr3  1  0.75037046  0.19248093  0.29328192  1
  Te  Te0  1  0.91507928  0.92709275  0.27525342  1
  Te  Te1  1  0.41507928  0.57290725  0.72474658  1
  Te  Te2  1  0.08492072  0.07290725  0.72474658  1
  Te  Te3  1  0.58492072  0.42709275  0.27525342  1
  Te  Te4  1  0.81294101  0.33464680  0.53489305  1
  Te  Te5  1  0.31294101  0.16535320  0.46510695  1
  Te  Te6  1  0.18705899  0.66535320  0.46510695  1
  Te  Te7  1  0.68705899  0.83464680  0.53489305  1
  Te  Te8  1  0.84899248  0.49891876  0.07757648  1
  Te  Te9  1  0.34899248  0.00108124  0.92242352  1
  Te  Te10  1  0.15100752  0.50108124  0.92242352  1
  Te  Te11  1  0.65100752  -0.00108124  0.07757648  1
loop_
_geom_bond_atom_site_label_1
_geom_bond_atom_site_label_2
_geom_bond_distance
_geom_bond_site_symmetry_2
K0 Te4 3.552303 1_555
K0 Te0 3.558296 1_555
K0 Te2 3.574361 1_665
K0 Te10 3.611303 1_655
K0 Te6 3.659297 1_655
K0 Te8 4.072454 1_556
K1 Te5 3.552303 1_565
K1 Te1 3.558296 1_555
K1 Te3 3.574361 1_555
K1 Te11 3.611303 1_565
K1 Te7 3.659297 1_555
K1 Te9 4.072454 1_564
K2 Te6 3.552303 1_555
K2 Te2 3.558296 1_555
K2 Te0 3.574361 1_445
K2 Te8 3.611303 1_455
K2 Te4 3.659297 1_455
K2 Te10 4.072454 1_554
K3 Te7 3.552303 1_545
K3 Te3 3.558296 1_555
K3 Te1 3.574361 1_555
K3 Te9 3.611303 1_555
K3 Te5 3.659297 1_555
K3 Te11 4.072454 1_556
K4 Te11 3.421978 1_556
K4 Te0 3.432555 1_546
K4 Te4 3.446564 1_555
K4 Te2 3.534798 1_655
K4 Te8 3.846932 1_546
K4 Te8 3.901466 1_556
K5 Te10 3.421978 1_554
K5 Te1 3.432555 1_554
K5 Te5 3.446564 1_555
K5 Te3 3.534798 1_555
K5 Te9 3.846932 1_564
K5 Te9 3.901466 1_554
K6 Te9 3.421978 1_564
K6 Te2 3.432555 1_564
K6 Te6 3.446564 1_555
K6 Te0 3.534798 1_455
K6 Te10 3.846932 1_564
K6 Te10 3.901466 1_554
K7 Te8 3.421978 1_556
K7 Te3 3.432555 1_556
K7 Te7 3.446564 1_555
K7 Te1 3.534798 1_555
K7 Te11 3.846932 1_556
K7 Te11 3.901466 1_566
Te0 Zr0 2.860891 1_555
Te0 Zr3 3.036925 1_565
Te1 Zr1 2.860891 1_555
Te1 Zr2 3.036925 1_555
Te2 Zr2 2.860891 1_555
Te2 Zr1 3.036925 1_545
Te3 Zr3 2.860891 1_555
Te3 Zr0 3.036925 1_555
Te4 Zr3 2.829630 1_555
Te4 Zr0 3.007034 1_555
Te5 Zr2 2.829630 1_555
Te5 Zr1 3.007034 1_545
Te6 Zr1 2.829630 1_555
Te6 Zr2 3.007034 1_555
Te7 Zr0 2.829630 1_555
Te7 Zr3 3.007034 1_565
Te8 Zr3 2.869385 1_555
Te8 Zr0 3.055186 1_555
Te9 Zr2 2.869385 1_555
Te9 Zr1 3.055186 1_545
Te10 Zr1 2.869385 1_555
Te10 Zr2 3.055186 1_555
Te11 Zr0 2.869385 1_545
Te11 Zr3 3.055186 1_555
