# generated using pymatgen
data_Na4CaHfSi(PO6)2
_symmetry_space_group_name_H-M   'P 1'
_cell_length_a   9.33303580
_cell_length_b   9.37026444
_cell_length_c   22.35193253
_cell_angle_alpha   89.98235030
_cell_angle_beta   90.00000000
_cell_angle_gamma   119.86865898
_symmetry_Int_Tables_number   1
_chemical_formula_structural   Na4CaHfSi(PO6)2
_chemical_formula_sum   'Na24 Ca6 Hf6 Si6 P12 O72'
_cell_volume   1695.09374297
_cell_formula_units_Z   6
loop_
 _symmetry_equiv_pos_site_id
 _symmetry_equiv_pos_as_xyz
  1  'x, y, z'
loop_
 _atom_site_type_symbol
 _atom_site_label
 _atom_site_symmetry_multiplicity
 _atom_site_fract_x
 _atom_site_fract_y
 _atom_site_fract_z
 _atom_site_occupancy
  Na  Na0  1  0.64532846  0.01584392  0.24667711  1
  Na  Na1  1  0.36793421  0.34493323  0.24863062  1
  Na  Na2  1  0.98894780  0.63114456  0.23994311  1
  Na  Na3  1  0.64219676  0.63114456  0.73994311  1
  Na  Na4  1  0.97699902  0.34493323  0.74863062  1
  Na  Na5  1  0.37051546  0.01584392  0.74667711  1
  Na  Na6  1  0.31988727  0.35665542  0.58178715  1
  Na  Na7  1  0.02950925  0.68643892  0.57752634  1
  Na  Na8  1  0.64988084  0.95833140  0.57528829  1
  Na  Na9  1  0.30845155  0.95833140  0.07528829  1
  Na  Na10  1  0.65693067  0.68643892  0.07752634  1
  Na  Na11  1  0.03676915  0.35665542  0.08178715  1
  Na  Na12  1  0.99065635  0.69172773  0.91683634  1
  Na  Na13  1  0.69934383  0.02411075  0.90707496  1
  Na  Na14  1  0.31871836  0.29374492  0.91146929  1
  Na  Na15  1  0.97502556  0.29374492  0.41146929  1
  Na  Na16  1  0.32476592  0.02411075  0.40707496  1
  Na  Na17  1  0.70107038  0.69172773  0.41683634  1
  Na  Na18  1  0.98895896  0.99730251  0.49487077  1
  Na  Na19  1  0.00834355  0.99730251  0.99487077  1
  Na  Na20  1  0.66246420  0.31949418  0.82847461  1
  Na  Na21  1  0.65703098  0.31949418  0.32847461  1
  Na  Na22  1  0.32111927  0.66780911  0.16204395  1
  Na  Na23  1  0.34668884  0.66780911  0.66204395  1
  Ca  Ca0  1  0.00113109  0.99825413  0.34802098  1
  Ca  Ca1  1  0.99712304  0.99825413  0.84802098  1
  Ca  Ca2  1  0.66504271  0.33141416  0.68134466  1
  Ca  Ca3  1  0.66637245  0.33141416  0.18134466  1
  Ca  Ca4  1  0.33328966  0.67024397  0.01472499  1
  Ca  Ca5  1  0.33695330  0.67024397  0.51472499  1
  Hf  Hf0  1  0.99232132  0.99634885  0.64886283  1
  Hf  Hf1  1  0.00402754  0.99634885  0.14886283  1
  Hf  Hf2  1  0.66865845  0.33501518  0.98226385  1
  Hf  Hf3  1  0.66635773  0.33501518  0.48226385  1
  Hf  Hf4  1  0.33785555  0.67482957  0.31570137  1
  Hf  Hf5  1  0.33697302  0.67482957  0.81570137  1
  Si  Si0  1  0.30022370  0.99174066  0.25303720  1
  Si  Si1  1  0.69151695  0.99174066  0.75303720  1
  Si  Si2  1  0.67454142  0.64015016  0.58623481  1
  Si  Si3  1  0.96560974  0.64015016  0.08623481  1
  Si  Si4  1  0.34164447  0.97640257  0.91938477  1
  Si  Si5  1  0.63475710  0.97640257  0.41938477  1
  P  P0  1  0.69289667  0.70382405  0.25124729  1
  P  P1  1  0.01176904  0.30538949  0.25120443  1
  P  P2  1  0.29362045  0.30538949  0.75120443  1
  P  P3  1  0.01092738  0.70382405  0.75124729  1
  P  P4  1  0.96161661  0.32270077  0.58502207  1
  P  P5  1  0.35904084  0.03904736  0.58449059  1
  P  P6  1  0.68000751  0.03904736  0.08449059  1
  P  P7  1  0.36108516  0.32270077  0.08502207  1
  P  P8  1  0.62795753  0.65391573  0.91808408  1
  P  P9  1  0.02832570  0.37191595  0.91803744  1
  P  P10  1  0.34358925  0.37191595  0.41803744  1
  P  P11  1  0.02595720  0.65391573  0.41808408  1
  O  O0  1  0.22772292  0.01741333  0.31407299  1
  O  O1  1  0.78676895  0.77603162  0.30921578  1
  O  O2  1  0.98614706  0.20880822  0.30879495  1
  O  O3  1  0.22266115  0.20880822  0.80879495  1
  O  O4  1  0.98926267  0.77603162  0.80921578  1
  O  O5  1  0.78969041  0.01741333  0.81407299  1
  O  O6  1  0.80195803  0.97446443  0.69598118  1
  O  O7  1  0.18021186  0.20649132  0.69615292  1
  O  O8  1  0.03126177  0.82132831  0.69654659  1
  O  O9  1  0.79006654  0.82132831  0.19654659  1
  O  O10  1  0.02627946  0.20649132  0.19615292  1
  O  O11  1  0.17250640  0.97446443  0.19598118  1
  O  O12  1  0.89089434  0.34428516  0.64293753  1
  O  O13  1  0.45546862  0.10395975  0.64224662  1
  O  O14  1  0.65467735  0.54284203  0.64696719  1
  O  O15  1  0.88816568  0.54284203  0.14696719  1
  O  O16  1  0.64849213  0.10395975  0.14224662  1
  O  O17  1  0.45339182  0.34428516  0.14293753  1
  O  O18  1  0.45883746  0.30303971  0.03040075  1
  O  O19  1  0.84057284  0.53385272  0.02825216  1
  O  O20  1  0.69332470  0.15481591  0.03012820  1
  O  O21  1  0.46149220  0.15481591  0.53012820  1
  O  O22  1  0.69328088  0.53385272  0.52825216  1
  O  O23  1  0.84420325  0.30303971  0.53040075  1
  O  O24  1  0.55696231  0.67559061  0.97654903  1
  O  O25  1  0.12524121  0.44290471  0.97581288  1
  O  O26  1  0.31583703  0.87620791  0.98005420  1
  O  O27  1  0.56036988  0.87620791  0.48005420  1
  O  O28  1  0.31766250  0.44290471  0.47581288  1
  O  O29  1  0.11862729  0.67559061  0.47654903  1
  O  O30  1  0.12645937  0.63632348  0.36410284  1
  O  O31  1  0.50690714  0.86656494  0.36189255  1
  O  O32  1  0.36050268  0.48559953  0.36305654  1
  O  O33  1  0.12509585  0.48559953  0.86305654  1
  O  O34  1  0.35965680  0.86656494  0.86189255  1
  O  O35  1  0.50986312  0.63632348  0.86410284  1
  O  O36  1  0.99406724  0.79822266  0.41182076  1
  O  O37  1  0.82085995  0.00650337  0.41370913  1
  O  O38  1  0.19957343  0.19579076  0.41219449  1
  O  O39  1  0.99621733  0.19579076  0.91219449  1
  O  O40  1  0.18564342  0.00650337  0.91370913  1
  O  O41  1  0.80415542  0.79822266  0.91182076  1
  O  O42  1  0.96916726  0.15809836  0.58608255  1
  O  O43  1  0.19333468  0.04445584  0.58615237  1
  O  O44  1  0.85307529  0.82165598  0.58649779  1
  O  O45  1  0.96858068  0.82165598  0.08649779  1
  O  O46  1  0.85112116  0.04445584  0.08615237  1
  O  O47  1  0.18893110  0.15809836  0.08608255  1
  O  O48  1  0.65825181  0.14477718  0.74707596  1
  O  O49  1  0.47078388  0.33676400  0.74538858  1
  O  O50  1  0.86592806  0.52847022  0.74501841  1
  O  O51  1  0.66254316  0.52847022  0.24501841  1
  O  O52  1  0.86598112  0.33676400  0.24538858  1
  O  O53  1  0.48652636  0.14477718  0.24707596  1
  O  O54  1  0.63052693  0.48684990  0.91925161  1
  O  O55  1  0.85858836  0.37156800  0.91991860  1
  O  O56  1  0.51951062  0.15529428  0.91973048  1
  O  O57  1  0.63578467  0.15529428  0.41973048  1
  O  O58  1  0.51298063  0.37156800  0.41991860  1
  O  O59  1  0.85632397  0.48684990  0.41925161  1
  O  O60  1  0.33317293  0.47010164  0.07787368  1
  O  O61  1  0.15136261  0.66826597  0.08181211  1
  O  O62  1  0.54005704  0.86030449  0.07706223  1
  O  O63  1  0.32024645  0.86030449  0.57706223  1
  O  O64  1  0.51690236  0.66826597  0.58181211  1
  O  O65  1  0.13692770  0.47010164  0.57787368  1
  O  O66  1  0.29918499  0.81191755  0.25347842  1
  O  O67  1  0.52113840  0.69869372  0.25278872  1
  O  O68  1  0.18048854  0.47301315  0.25269532  1
  O  O69  1  0.29252361  0.47301315  0.75269532  1
  O  O70  1  0.17755432  0.69869372  0.75278872  1
  O  O71  1  0.51273156  0.81191755  0.75347842  1
loop_
_geom_bond_atom_site_label_1
_geom_bond_atom_site_label_2
_geom_bond_distance
_geom_bond_site_symmetry_2
Na0 O53 2.332337 1_555
Na0 O16 2.470977 1_555
Na0 O67 2.600485 1_545
Na0 O52 2.667642 1_555
Na0 O66 2.821745 1_545
Na0 O31 2.907846 1_545
Na0 O9 2.975911 1_545
Na1 O51 2.411317 1_555
Na1 O17 2.494423 1_555
Na1 O68 2.569130 1_555
Na1 O53 2.609882 1_555
Na1 O67 2.884529 1_555
Na1 O32 2.894271 1_555
Na1 O10 3.017824 1_555
Na1 O0 3.044293 1_555
Na2 O15 2.261441 1_555
Na2 O52 2.405718 1_555
Na2 O66 2.541589 1_655
Na2 O51 2.701747 1_555
Na2 O68 2.847901 1_655
Na2 O11 2.959439 1_655
Na2 O30 3.047837 1_655
Na3 O14 2.261443 1_555
Na3 O49 2.405718 1_555
Na3 O71 2.541596 1_555
Na3 O50 2.701755 1_555
Na3 O69 2.847909 1_555
Na3 O6 2.959439 1_555
Na3 O35 3.047841 1_555
Na4 O50 2.411309 1_555
Na4 O12 2.494420 1_555
Na4 O69 2.569121 1_655
Na4 O48 2.609875 1_555
Na4 O70 2.884529 1_655
Na4 O33 2.894269 1_655
Na4 O7 3.017824 1_655
Na4 O5 3.044293 1_555
Na5 O48 2.332346 1_555
Na5 O13 2.470979 1_555
Na5 O70 2.600486 1_545
Na5 O49 2.667640 1_555
Na5 O71 2.821738 1_545
Na5 O34 2.907844 1_545
Na5 O8 2.975911 1_545
Na6 O65 2.421026 1_555
Na6 O28 2.505993 1_555
Na6 O43 2.553586 1_555
Na6 O64 2.561069 1_555
Na6 O42 2.849424 1_455
Na6 O7 2.895633 1_555
Na7 O63 2.369395 1_555
Na7 O29 2.425016 1_555
Na7 O44 2.536785 1_455
Na7 O65 2.671823 1_555
Na7 O43 2.918997 1_565
Na7 O22 2.938816 1_455
Na7 O8 2.942224 1_555
Na8 O27 2.276398 1_555
Na8 O64 2.364090 1_555
Na8 O42 2.624198 1_565
Na8 O63 2.737774 1_555
Na8 O44 2.778167 1_555
Na8 O23 2.981962 1_565
Na8 O6 3.016888 1_555
Na9 O26 2.276394 1_554
Na9 O61 2.364091 1_555
Na9 O47 2.624205 1_565
Na9 O62 2.737756 1_555
Na9 O45 2.778176 1_455
Na9 O18 2.981962 1_565
Na9 O11 3.016892 1_555
Na10 O62 2.369410 1_555
Na10 O24 2.425023 1_554
Na10 O45 2.536777 1_555
Na10 O60 2.671837 1_555
Na10 O46 2.918996 1_565
Na10 O19 2.938816 1_555
Na10 O9 2.942223 1_555
Na11 O60 2.421009 1_555
Na11 O25 2.505990 1_554
Na11 O46 2.553587 1_455
Na11 O61 2.561072 1_555
Na11 O47 2.849416 1_555
Na11 O10 2.895631 1_555
Na12 O41 2.401681 1_555
Na12 O4 2.533736 1_555
Na12 O40 2.582624 1_665
Na12 O55 2.615478 1_555
Na12 O19 2.878572 1_556
Na12 O54 2.925484 1_555
Na13 O5 2.255887 1_555
Na13 O39 2.416299 1_555
Na13 O56 2.542270 1_555
Na13 O41 2.740515 1_545
Na13 O55 2.841178 1_555
Na13 O34 2.930777 1_545
Na13 O20 3.023058 1_556
Na14 O40 2.336605 1_555
Na14 O3 2.448363 1_555
Na14 O54 2.555105 1_555
Na14 O39 2.674061 1_455
Na14 O56 2.765933 1_555
Na14 O18 2.944702 1_556
Na14 O35 2.983607 1_555
Na15 O37 2.336604 1_555
Na15 O2 2.448365 1_555
Na15 O59 2.555091 1_555
Na15 O38 2.674070 1_655
Na15 O57 2.765916 1_555
Na15 O23 2.944694 1_555
Na15 O30 2.983607 1_655
Na16 O0 2.255883 1_555
Na16 O38 2.416292 1_555
Na16 O57 2.542287 1_555
Na16 O36 2.740508 1_445
Na16 O58 2.841179 1_555
Na16 O31 2.930777 1_545
Na16 O21 3.023062 1_555
Na17 O36 2.401690 1_555
Na17 O1 2.533737 1_555
Na17 O37 2.582623 1_565
Na17 O58 2.615476 1_555
Na17 O22 2.878576 1_555
Na17 O59 2.925499 1_555
Na18 O37 2.427850 1_565
Na18 O44 2.535861 1_555
Na18 O42 2.596132 1_565
Na18 O36 2.649297 1_555
Na18 O38 2.663557 1_665
Na18 O43 2.675369 1_665
Na19 O40 2.427850 1_565
Na19 O45 2.535861 1_456
Na19 O47 2.596132 1_566
Na19 O41 2.649297 1_455
Na19 O39 2.663557 1_465
Na19 O46 2.675369 1_466
Na20 O48 2.435117 1_555
Na20 O56 2.502268 1_555
Na20 O55 2.622465 1_555
Na20 O49 2.638876 1_555
Na20 O54 2.670680 1_555
Na20 O50 2.685926 1_555
Na21 O53 2.435117 1_555
Na21 O57 2.502268 1_555
Na21 O58 2.622465 1_555
Na21 O52 2.638876 1_555
Na21 O59 2.670680 1_555
Na21 O51 2.685926 1_555
Na22 O61 2.394363 1_555
Na22 O66 2.513803 1_555
Na22 O68 2.602214 1_555
Na22 O67 2.673012 1_555
Na22 O60 2.682154 1_555
Na22 O62 2.713621 1_555
Na23 O64 2.394363 1_555
Na23 O71 2.513803 1_555
Na23 O69 2.602214 1_555
Na23 O70 2.673012 1_555
Na23 O65 2.682154 1_555
Na23 O63 2.713621 1_555
Ca0 O0 2.168435 1_565
Ca0 O1 2.223192 1_455
Ca0 O2 2.225885 1_465
Ca0 O37 2.263203 1_465
Ca0 O36 2.329466 1_455
Ca0 O38 2.345398 1_565
Ca1 O5 2.168435 1_565
Ca1 O4 2.223192 1_555
Ca1 O3 2.225885 1_665
Ca1 O40 2.263203 1_665
Ca1 O41 2.329466 1_555
Ca1 O39 2.345398 1_565
Ca2 O14 2.171325 1_555
Ca2 O12 2.222929 1_555
Ca2 O13 2.231803 1_555
Ca2 O48 2.260327 1_555
Ca2 O49 2.330096 1_555
Ca2 O50 2.345987 1_555
Ca3 O15 2.171325 1_555
Ca3 O17 2.222929 1_555
Ca3 O16 2.231803 1_555
Ca3 O53 2.260327 1_555
Ca3 O52 2.330096 1_555
Ca3 O51 2.345987 1_555
Ca4 O26 2.159615 1_554
Ca4 O25 2.223940 1_554
Ca4 O24 2.232552 1_554
Ca4 O61 2.258436 1_555
Ca4 O62 2.327132 1_555
Ca4 O60 2.346429 1_555
Ca5 O27 2.159615 1_555
Ca5 O28 2.223940 1_555
Ca5 O29 2.232552 1_555
Ca5 O64 2.258436 1_555
Ca5 O63 2.327132 1_555
Ca5 O65 2.346429 1_555
Hf0 O6 1.986148 1_555
Hf0 O44 2.047962 1_555
Hf0 O8 2.133122 1_655
Hf0 O7 2.152143 1_665
Hf0 O42 2.153579 1_565
Hf0 O43 2.201106 1_665
Hf1 O11 1.986148 1_555
Hf1 O45 2.047962 1_455
Hf1 O9 2.133122 1_455
Hf1 O10 2.152143 1_565
Hf1 O47 2.153579 1_565
Hf1 O46 2.201106 1_465
Hf2 O19 2.031260 1_556
Hf2 O56 2.096164 1_555
Hf2 O20 2.105882 1_556
Hf2 O18 2.120767 1_556
Hf2 O55 2.143928 1_555
Hf2 O54 2.153512 1_555
Hf3 O22 2.031260 1_555
Hf3 O57 2.096164 1_555
Hf3 O21 2.105882 1_555
Hf3 O23 2.120767 1_555
Hf3 O58 2.143928 1_555
Hf3 O59 2.153512 1_555
Hf4 O31 1.990203 1_555
Hf4 O66 2.043363 1_555
Hf4 O30 2.117532 1_555
Hf4 O67 2.138311 1_555
Hf4 O32 2.163608 1_555
Hf4 O68 2.225272 1_555
Hf5 O34 1.990203 1_555
Hf5 O71 2.043363 1_555
Hf5 O35 2.117532 1_555
Hf5 O70 2.138311 1_555
Hf5 O33 2.163608 1_555
Hf5 O69 2.225272 1_555
O0 Si0 1.593513 1_545
O1 P0 1.521295 1_555
O2 P1 1.522157 1_655
O3 P2 1.522157 1_555
O4 P3 1.521295 1_655
O5 Si1 1.593513 1_545
O6 Si1 1.697469 1_555
O7 P2 1.586496 1_555
O8 P3 1.591941 1_555
O9 P0 1.591941 1_555
O10 P1 1.586496 1_555
O11 Si0 1.697468 1_555
O12 P4 1.511784 1_555
O13 P5 1.517146 1_555
O14 Si2 1.593547 1_555
O15 Si3 1.593547 1_555
O16 P6 1.517146 1_555
O17 P7 1.511784 1_555
O18 P7 1.588837 1_555
O19 Si3 1.696072 1_555
O20 P6 1.591721 1_555
O21 P5 1.591721 1_555
O22 Si2 1.696072 1_555
O23 P4 1.588837 1_555
O24 P8 1.523887 1_555
O25 P9 1.526291 1_555
O26 Si4 1.597619 1_555
O27 Si5 1.597619 1_555
O28 P10 1.526291 1_555
O29 P11 1.523887 1_555
O30 P11 1.586498 1_555
O31 Si5 1.706476 1_555
O32 P10 1.581658 1_555
O33 P9 1.581658 1_555
O34 Si4 1.706476 1_555
O35 P8 1.586498 1_555
O36 P11 1.528839 1_655
O37 Si5 1.620034 1_545
O38 P10 1.529056 1_555
O39 P9 1.529059 1_655
O40 Si4 1.620025 1_545
O41 P8 1.528845 1_555
O42 P4 1.578817 1_555
O43 P5 1.572834 1_555
O44 Si2 1.687128 1_555
O45 Si3 1.687132 1_555
O46 P6 1.572824 1_555
O47 P7 1.578822 1_555
O48 Si1 1.616724 1_545
O49 P2 1.533984 1_555
O50 P3 1.528384 1_655
O51 P0 1.528387 1_555
O52 P1 1.533975 1_655
O53 Si0 1.616730 1_545
O54 P8 1.577738 1_555
O55 P9 1.583102 1_655
O56 Si4 1.671537 1_545
O57 Si5 1.671527 1_545
O58 P10 1.583121 1_555
O59 P11 1.577729 1_655
O60 P7 1.536003 1_555
O61 Si3 1.621650 1_455
O62 P6 1.536237 1_565
O63 P5 1.536232 1_565
O64 Si2 1.621668 1_555
O65 P4 1.535992 1_455
O66 Si0 1.680209 1_555
O67 P0 1.580011 1_555
O68 P1 1.576159 1_555
O69 P2 1.576164 1_555
O70 P3 1.580002 1_555
O71 Si1 1.680214 1_555
