# generated using pymatgen
data_NaYInP(SO6)2
_symmetry_space_group_name_H-M   'P 1'
_cell_length_a   8.98717986
_cell_length_b   8.99253797
_cell_length_c   24.12623357
_cell_angle_alpha   89.89248447
_cell_angle_beta   90.25413477
_cell_angle_gamma   120.13797239
_symmetry_Int_Tables_number   1
_chemical_formula_structural   NaYInP(SO6)2
_chemical_formula_sum   'Na6 Y6 In6 P6 S12 O72'
_cell_volume   1686.22717820
_cell_formula_units_Z   6
loop_
 _symmetry_equiv_pos_site_id
 _symmetry_equiv_pos_as_xyz
  1  'x, y, z'
loop_
 _atom_site_type_symbol
 _atom_site_label
 _atom_site_symmetry_multiplicity
 _atom_site_fract_x
 _atom_site_fract_y
 _atom_site_fract_z
 _atom_site_occupancy
  Na  Na0  1  0.97846608  0.98635693  0.50018686  1
  Na  Na1  1  0.00612421  0.98805608  0.99996355  1
  Na  Na2  1  0.65987518  0.31431838  0.83586630  1
  Na  Na3  1  0.65475086  0.31272475  0.33129036  1
  Na  Na4  1  0.32065087  0.67254483  0.16898556  1
  Na  Na5  1  0.35364378  0.67276752  0.66888633  1
  Y  Y0  1  0.00211473  0.00055806  0.34850179  1
  Y  Y1  1  0.98531189  0.99121358  0.65098689  1
  Y  Y2  1  0.66533076  0.33122428  0.68707056  1
  Y  Y3  1  0.66542081  0.33265902  0.48084937  1
  Y  Y4  1  0.32185538  0.67362242  0.01836789  1
  Y  Y5  1  0.34927432  0.67314358  0.51801829  1
  In  In0  1  0.00068072  0.00056638  0.85046159  1
  In  In1  1  0.00505162  0.98730888  0.14993422  1
  In  In2  1  0.66466266  0.33060017  0.18342255  1
  In  In3  1  0.66474255  0.33194377  0.98343092  1
  In  In4  1  0.33828846  0.68391656  0.31465356  1
  In  In5  1  0.34506972  0.68481819  0.81976110  1
  P  P0  1  0.30302325  0.00251526  0.24796367  1
  P  P1  1  0.70126125  0.99551507  0.75469092  1
  P  P2  1  0.66781265  0.62766349  0.58377633  1
  P  P3  1  0.94784502  0.62130814  0.08457305  1
  P  P4  1  0.33422879  0.97347351  0.91562906  1
  P  P5  1  0.63207956  0.96527934  0.41414094  1
  S  S0  1  0.69786844  0.69909479  0.24801513  1
  S  S1  1  0.00300390  0.29999994  0.24763809  1
  S  S2  1  0.29312384  0.30199886  0.75335653  1
  S  S3  1  0.00704604  0.70501844  0.75342316  1
  S  S4  1  0.96558975  0.33487592  0.58344939  1
  S  S5  1  0.36580894  0.03583426  0.58382939  1
  S  S6  1  0.67603817  0.04297792  0.08507489  1
  S  S7  1  0.36963210  0.32906862  0.08405791  1
  S  S8  1  0.63052912  0.66460688  0.91637168  1
  S  S9  1  0.03618188  0.36970381  0.91444382  1
  S  S10  1  0.33292898  0.37668787  0.41334513  1
  S  S11  1  0.04082400  0.66485662  0.41492452  1
  O  O0  1  0.22029490  0.02590942  0.30016935  1
  O  O1  1  0.80186588  0.78136773  0.29820623  1
  O  O2  1  0.97864032  0.19579515  0.29794465  1
  O  O3  1  0.21314552  0.19450292  0.80295942  1
  O  O4  1  0.98498463  0.78734959  0.80317983  1
  O  O5  1  0.81129102  0.01784951  0.80660006  1
  O  O6  1  0.78444496  0.97448227  0.70170109  1
  O  O7  1  0.19318418  0.21979831  0.70237436  1
  O  O8  1  0.03017988  0.80799066  0.70278438  1
  O  O9  1  0.77743710  0.80681916  0.19812934  1
  O  O10  1  0.02268056  0.21625385  0.19759432  1
  O  O11  1  0.19483820  0.97664333  0.19522687  1
  O  O12  1  0.87984372  0.34942307  0.63375677  1
  O  O13  1  0.47148575  0.11887807  0.63377235  1
  O  O14  1  0.65535287  0.52356543  0.63606072  1
  O  O15  1  0.86544431  0.51570307  0.13723139  1
  O  O16  1  0.64680936  0.12028047  0.13478785  1
  O  O17  1  0.47220034  0.35187128  0.13459925  1
  O  O18  1  0.44725790  0.30187547  0.03363930  1
  O  O19  1  0.84328225  0.53810840  0.03094506  1
  O  O20  1  0.69760326  0.14336071  0.03391012  1
  O  O21  1  0.45065907  0.13567479  0.53339515  1
  O  O22  1  0.67999888  0.53827134  0.53103809  1
  O  O23  1  0.86155750  0.31303661  0.53324975  1
  O  O24  1  0.54575773  0.68453034  0.96595148  1
  O  O25  1  0.14051029  0.45086130  0.96482470  1
  O  O26  1  0.30778785  0.86286655  0.96740584  1
  O  O27  1  0.54587866  0.85991250  0.46673346  1
  O  O28  1  0.31302025  0.45599662  0.46432489  1
  O  O29  1  0.14034751  0.68110646  0.46556030  1
  O  O30  1  0.12071706  0.64211710  0.36442853  1
  O  O31  1  0.52468986  0.87997932  0.36147718  1
  O  O32  1  0.34828304  0.47817318  0.36317057  1
  O  O33  1  0.11998565  0.47382642  0.86423855  1
  O  O34  1  0.36253590  0.89373664  0.86304148  1
  O  O35  1  0.52621932  0.63785184  0.86546266  1
  O  O36  1  0.02629152  0.82160273  0.41059653  1
  O  O37  1  0.81138299  0.98144896  0.41011746  1
  O  O38  1  0.17928927  0.20243274  0.41009668  1
  O  O39  1  0.01706216  0.19609390  0.91027370  1
  O  O40  1  0.17040572  0.98984323  0.90936219  1
  O  O41  1  0.80312214  0.82178586  0.91140116  1
  O  O42  1  0.98659781  0.18198236  0.58759412  1
  O  O43  1  0.19656514  0.02320034  0.58857468  1
  O  O44  1  0.83027519  0.80931772  0.58589314  1
  O  O45  1  0.96515852  0.80282715  0.08820040  1
  O  O46  1  0.83404632  0.03025396  0.09182518  1
  O  O47  1  0.19440679  0.17450327  0.08922679  1
  O  O48  1  0.68100547  0.15594465  0.74986634  1
  O  O49  1  0.46764328  0.32284284  0.74885802  1
  O  O50  1  0.85080067  0.53338677  0.74818994  1
  O  O51  1  0.68483637  0.52842021  0.24309985  1
  O  O52  1  0.84824077  0.31954760  0.24338812  1
  O  O53  1  0.48521601  0.16593110  0.24264904  1
  O  O54  1  0.65087657  0.51061495  0.92130726  1
  O  O55  1  0.86326720  0.35318720  0.91981524  1
  O  O56  1  0.49866197  0.15469468  0.92293139  1
  O  O57  1  0.64863508  0.14451010  0.41847817  1
  O  O58  1  0.48874824  0.36060825  0.41747971  1
  O  O59  1  0.86658705  0.51178984  0.41837542  1
  O  O60  1  0.35499679  0.48525064  0.07772210  1
  O  O61  1  0.12986345  0.64225229  0.08032978  1
  O  O62  1  0.52283792  0.86787820  0.07933586  1
  O  O63  1  0.34466006  0.86197688  0.58008269  1
  O  O64  1  0.50518969  0.64574120  0.58211662  1
  O  O65  1  0.13549312  0.49185271  0.57910476  1
  O  O66  1  0.31917321  0.83778538  0.25201605  1
  O  O67  1  0.52300353  0.67675028  0.25343053  1
  O  O68  1  0.16029798  0.47283964  0.25405590  1
  O  O69  1  0.30663741  0.47276355  0.75919134  1
  O  O70  1  0.16068773  0.68497401  0.75822368  1
  O  O71  1  0.52168112  0.82857382  0.75757353  1
loop_
_geom_bond_atom_site_label_1
_geom_bond_atom_site_label_2
_geom_bond_distance
_geom_bond_site_symmetry_2
Na0 O44 2.543013 1_555
Na0 O37 2.623683 1_555
Na0 O42 2.725903 1_565
Na0 O36 2.776950 1_655
Na0 O43 2.795104 1_665
Na0 O38 2.873086 1_665
Na1 O45 2.611467 1_456
Na1 O40 2.638710 1_555
Na1 O41 2.714345 1_455
Na1 O47 2.728489 1_566
Na1 O39 2.827350 1_565
Na1 O46 2.840839 1_466
Na2 O56 2.549359 1_555
Na2 O48 2.579835 1_555
Na2 O55 2.625611 1_555
Na2 O49 2.738126 1_555
Na2 O54 2.744123 1_555
Na2 O50 2.814567 1_555
Na3 O53 2.568962 1_555
Na3 O57 2.573242 1_555
Na3 O58 2.722339 1_555
Na3 O52 2.729525 1_555
Na3 O59 2.792797 1_555
Na3 O51 2.797401 1_555
Na4 O66 2.500451 1_555
Na4 O68 2.632101 1_555
Na4 O61 2.662677 1_555
Na4 O67 2.712522 1_555
Na4 O62 2.807302 1_555
Na4 O60 2.884803 1_555
Na5 O64 2.579932 1_555
Na5 O71 2.584538 1_555
Na5 O69 2.718554 1_555
Na5 O63 2.759448 1_555
Na5 O70 2.808929 1_555
Na5 O65 2.820488 1_555
In0 O5 2.071253 1_455
In0 O40 2.117387 1_545
In0 O3 2.160765 1_555
In0 O4 2.175458 1_445
In0 O39 2.223358 1_555
In0 O41 2.246465 1_445
In1 O11 2.063941 1_555
In1 O45 2.122802 1_455
In1 O9 2.202478 1_455
In1 O47 2.238551 1_565
In1 O46 2.247526 1_465
In1 O10 2.294699 1_565
In2 O15 2.064817 1_555
In2 O53 2.109466 1_555
In2 O16 2.163683 1_555
In2 O17 2.174683 1_555
In2 O51 2.225711 1_555
In2 O52 2.228878 1_555
In3 O19 2.080941 1_556
In3 O56 2.121165 1_555
In3 O18 2.202245 1_556
In3 O20 2.222223 1_556
In3 O54 2.243620 1_555
In3 O55 2.292673 1_555
In4 O31 2.053256 1_555
In4 O66 2.111007 1_555
In4 O30 2.165156 1_555
In4 O32 2.226905 1_555
In4 O67 2.251950 1_555
In4 O68 2.289065 1_555
In5 O34 2.086694 1_555
In5 O71 2.096414 1_555
In5 O35 2.171950 1_555
In5 O70 2.220502 1_555
In5 O33 2.236282 1_555
In5 O69 2.288155 1_555
O0 P0 1.532910 1_555
O0 Y0 2.197033 1_555
O1 S0 1.478584 1_555
O1 Y0 2.241414 1_665
O2 S1 1.480262 1_655
O2 Y0 2.230768 1_655
O3 S2 1.479466 1_555
O4 S3 1.476944 1_655
O5 P1 1.541797 1_545
O6 P1 1.542872 1_555
O6 Y1 2.127135 1_555
O7 S2 1.480866 1_555
O7 Y1 2.320636 1_445
O8 S3 1.482552 1_555
O8 Y1 2.256983 1_455
O9 S0 1.485250 1_555
O10 S1 1.481617 1_555
O11 P0 1.543144 1_565
O12 S4 1.481289 1_555
O12 Y2 2.258829 1_555
O13 S5 1.480733 1_555
O13 Y2 2.232406 1_555
O14 P2 1.539996 1_555
O14 Y2 2.158940 1_555
O15 P3 1.536853 1_555
O16 S6 1.476499 1_555
O17 S7 1.476411 1_555
O18 S7 1.485296 1_555
O19 P3 1.550391 1_555
O20 S6 1.482720 1_555
O21 S5 1.478104 1_555
O21 Y3 2.247292 1_555
O22 P2 1.539678 1_555
O22 Y3 2.160049 1_555
O23 S4 1.478516 1_555
O23 Y3 2.242386 1_555
O24 S8 1.479631 1_555
O24 Y4 2.341350 1_556
O25 S9 1.481647 1_555
O25 Y4 2.247299 1_556
O26 P4 1.538457 1_555
O26 Y4 2.151883 1_556
O27 P5 1.541123 1_555
O27 Y5 2.122589 1_555
O28 S10 1.478786 1_555
O28 Y5 2.228044 1_555
O29 S11 1.474289 1_555
O29 Y5 2.290440 1_555
O30 S11 1.482461 1_555
O31 P5 1.543894 1_555
O32 S10 1.479238 1_555
O33 S9 1.485534 1_555
O34 P4 1.542082 1_555
O35 S8 1.486502 1_555
O36 S11 1.482892 1_555
O36 Y0 2.284833 1_565
O37 P5 1.547038 1_555
O37 Y0 2.214387 1_665
O38 S10 1.481549 1_555
O38 Y0 2.264024 1_555
O39 S9 1.485944 1_555
O40 P4 1.558138 1_555
O41 S8 1.489172 1_555
O42 S4 1.481885 1_555
O42 Y1 2.291858 1_545
O43 S5 1.472243 1_555
O43 Y1 2.330238 1_445
O44 P2 1.551610 1_555
O44 Y1 2.187449 1_555
O45 P3 1.562593 1_555
O46 S6 1.489023 1_555
O47 S7 1.493496 1_555
O48 P1 1.546249 1_545
O48 Y2 2.238681 1_555
O49 S2 1.487659 1_555
O49 Y2 2.296294 1_555
O50 S3 1.480777 1_655
O50 Y2 2.281032 1_555
O51 S0 1.484398 1_555
O52 S1 1.490017 1_655
O53 P0 1.562673 1_555
O54 S8 1.489531 1_555
O55 S9 1.491227 1_655
O56 P4 1.565596 1_545
O57 P5 1.546118 1_545
O57 Y3 2.213823 1_555
O58 S10 1.481199 1_555
O58 Y3 2.302051 1_555
O59 S11 1.479850 1_655
O59 Y3 2.286015 1_555
O60 S7 1.482473 1_555
O60 Y4 2.345742 1_555
O61 P3 1.553684 1_455
O61 Y4 2.196379 1_555
O62 S6 1.488733 1_565
O62 Y4 2.301165 1_555
O63 S5 1.480054 1_565
O63 Y5 2.282145 1_555
O64 P2 1.549876 1_555
O64 Y5 2.177563 1_555
O65 S4 1.473650 1_455
O65 Y5 2.322068 1_555
O66 P0 1.562122 1_565
O67 S0 1.487219 1_555
O68 S1 1.493558 1_555
O69 S2 1.485275 1_555
O70 S3 1.483563 1_555
O71 P1 1.559134 1_555
