# generated using pymatgen
data_MgSb2PbO6
_symmetry_space_group_name_H-M   'P 1'
_cell_length_a   5.73221110
_cell_length_b   5.71796610
_cell_length_c   5.42916005
_cell_angle_alpha   89.99036458
_cell_angle_beta   90.01886114
_cell_angle_gamma   120.08000372
_symmetry_Int_Tables_number   1
_chemical_formula_structural   MgSb2PbO6
_chemical_formula_sum   'Mg1 Sb2 Pb1 O6'
_cell_volume   153.98425823
_cell_formula_units_Z   1
loop_
 _symmetry_equiv_pos_site_id
 _symmetry_equiv_pos_as_xyz
  1  'x, y, z'
loop_
 _atom_site_type_symbol
 _atom_site_label
 _atom_site_symmetry_multiplicity
 _atom_site_fract_x
 _atom_site_fract_y
 _atom_site_fract_z
 _atom_site_occupancy
  Mg  Mg0  1  0.66455300  0.32911200  0.99999900  1
  Sb  Sb0  1  0.66697400  0.33396300  0.49999500  1
  Sb  Sb1  1  0.33307000  0.66614200  0.50000100  1
  Pb  Pb0  1  0.99856500  0.99709600  0.00000700  1
  O  O0  1  0.40411200  0.35893800  0.73220800  1
  O  O1  1  0.64011600  0.04380900  0.73227100  1
  O  O2  1  0.95563300  0.59660100  0.73315900  1
  O  O3  1  0.40369400  0.04381300  0.26772800  1
  O  O4  1  0.95481700  0.35892600  0.26779200  1
  O  O5  1  0.64096800  0.59660200  0.26684000  1
loop_
_geom_bond_atom_site_label_1
_geom_bond_atom_site_label_2
_geom_bond_distance
_geom_bond_site_symmetry_2
Mg0 O1 2.136657 1_555
Mg0 O3 2.136669 1_556
Mg0 O0 2.150656 1_555
Mg0 O4 2.150682 1_556
Mg0 O5 2.159767 1_556
Mg0 O2 2.159814 1_555
O0 Sb0 2.024156 1_555
O0 Sb1 2.357271 1_555
O0 Pb0 2.641707 1_446
O1 Sb0 2.027300 1_555
O1 Sb1 2.353895 1_545
O1 Pb0 2.637064 1_546
O2 Sb0 2.025828 1_555
O2 Sb1 2.362349 1_655
O2 Pb0 2.615264 1_556
O3 Sb0 2.027276 1_555
O3 Sb1 2.353865 1_545
O3 Pb0 2.636872 1_445
O4 Sb0 2.024180 1_555
O4 Sb1 2.357395 1_655
O4 Pb0 2.641662 1_545
O5 Sb0 2.025709 1_555
O5 Sb1 2.362341 1_555
O5 Pb0 2.615333 1_555
