# generated using pymatgen
data_KMgMn2Cr2O10
_symmetry_space_group_name_H-M   'P 1'
_cell_length_a   5.74043880
_cell_length_b   5.74043662
_cell_length_c   8.54857461
_cell_angle_alpha   70.17475038
_cell_angle_beta   70.17534517
_cell_angle_gamma   65.39516301
_symmetry_Int_Tables_number   1
_chemical_formula_structural   KMgMn2Cr2O10
_chemical_formula_sum   'K1 Mg1 Mn2 Cr2 O10'
_cell_volume   234.39979450
_cell_formula_units_Z   1
loop_
 _symmetry_equiv_pos_site_id
 _symmetry_equiv_pos_as_xyz
  1  'x, y, z'
loop_
 _atom_site_type_symbol
 _atom_site_label
 _atom_site_symmetry_multiplicity
 _atom_site_fract_x
 _atom_site_fract_y
 _atom_site_fract_z
 _atom_site_occupancy
  K  K0  1  0.51953100  0.51955700  0.47895600  1
  Mg  Mg0  1  0.81233100  0.81233600  0.70009100  1
  Mn  Mn0  1  0.01282800  0.50197100  0.00090600  1
  Mn  Mn1  1  0.50197200  0.01282500  0.00090500  1
  Cr  Cr0  1  0.93335900  0.93335200  0.26079500  1
  Cr  Cr1  1  0.08098000  0.08099000  0.73650100  1
  O  O0  1  0.82590400  0.82589900  0.14504800  1
  O  O1  1  0.16521500  0.16521800  0.87873900  1
  O  O2  1  0.81852800  0.81851400  0.47155100  1
  O  O3  1  0.19816100  0.19815400  0.53556400  1
  O  O4  1  0.25880000  0.83060600  0.21487200  1
  O  O5  1  0.83061200  0.25879500  0.21487200  1
  O  O6  1  0.72981600  0.15720200  0.76458200  1
  O  O7  1  0.15719700  0.72982000  0.76458400  1
  O  O8  1  0.32283800  0.32283300  0.07340300  1
  O  O9  1  0.67716700  0.67716700  0.93831900  1
loop_
_geom_bond_atom_site_label_1
_geom_bond_atom_site_label_2
_geom_bond_distance
_geom_bond_site_symmetry_2
K0 O4 2.803047 1_555
K0 O5 2.803195 1_555
K0 O2 2.863653 1_555
K0 O7 2.865097 1_555
K0 O6 2.865139 1_555
K0 O3 2.943573 1_555
K0 O0 3.177862 1_555
Mg0 O9 1.925919 1_555
Mg0 O2 1.930374 1_555
Mg0 O6 2.056641 1_565
Mg0 O7 2.056642 1_655
Mn0 O8 1.844022 1_555
Mn0 O9 1.931586 1_454
Mn0 O7 2.110337 1_554
Mn0 O5 2.138835 1_455
Mn0 O1 2.221351 1_554
Mn0 O0 2.263467 1_455
Mn1 O8 1.844024 1_555
Mn1 O9 1.931575 1_544
Mn1 O6 2.110349 1_554
Mn1 O4 2.138837 1_545
Mn1 O1 2.221349 1_554
Mn1 O0 2.263475 1_545
Cr0 O4 1.653520 1_655
Cr0 O5 1.653524 1_565
Cr0 O2 1.692858 1_555
Cr0 O0 1.698480 1_555
Cr1 O3 1.632415 1_555
Cr1 O1 1.714164 1_555
Cr1 O6 1.822429 1_455
Cr1 O7 1.822450 1_545
