# generated using pymatgen
data_Tm2MgCr2O8
_symmetry_space_group_name_H-M   'P 1'
_cell_length_a   6.14898889
_cell_length_b   6.13755892
_cell_length_c   6.00614379
_cell_angle_alpha   105.74234456
_cell_angle_beta   105.83024819
_cell_angle_gamma   117.90363192
_symmetry_Int_Tables_number   1
_chemical_formula_structural   Tm2MgCr2O8
_chemical_formula_sum   'Tm2 Mg1 Cr2 O8'
_cell_volume   170.18322797
_cell_formula_units_Z   1
loop_
 _symmetry_equiv_pos_site_id
 _symmetry_equiv_pos_as_xyz
  1  'x, y, z'
loop_
 _atom_site_type_symbol
 _atom_site_label
 _atom_site_symmetry_multiplicity
 _atom_site_fract_x
 _atom_site_fract_y
 _atom_site_fract_z
 _atom_site_occupancy
  Tm  Tm0  1  0.15454800  0.90456500  0.30906600  1
  Tm  Tm1  1  0.87393100  0.12391600  0.74787600  1
  Mg  Mg0  1  0.86644900  0.61644400  0.73299400  1
  Cr  Cr0  1  0.37691800  0.62692800  0.75385700  1
  Cr  Cr1  1  0.59923700  0.34924800  0.19843500  1
  O  O0  1  0.81476300  0.72382100  0.44838100  1
  O  O1  1  0.39066900  0.81719900  0.57357700  1
  O  O2  1  0.74798500  0.80209900  0.93836100  1
  O  O3  1  0.80189300  0.38422000  0.03312800  1
  O  O4  1  0.63361800  0.22454300  0.44836700  1
  O  O5  1  0.18292400  0.25639700  0.57358500  1
  O  O6  1  0.19038200  0.63627900  0.93837500  1
  O  O7  1  0.23126700  0.14892600  0.03316300  1
loop_
_geom_bond_atom_site_label_1
_geom_bond_atom_site_label_2
_geom_bond_distance
_geom_bond_site_symmetry_2
Mg0 O2 1.963381 1_555
Mg0 O6 1.963418 1_655
Mg0 O4 1.991990 1_555
Mg0 O0 1.992087 1_555
Mg0 O3 2.587193 1_556
Mg0 O7 2.588006 1_666
Cr0 O1 1.785217 1_555
Cr0 O5 1.785276 1_555
Cr0 O6 1.807688 1_555
Cr0 O2 1.807765 1_555
Cr1 O3 1.767759 1_555
Cr1 O7 1.767812 1_555
Cr1 O0 1.866921 1_555
Cr1 O4 1.866987 1_555
O0 Tm0 2.363089 1_655
O0 Tm1 2.409973 1_565
O1 Tm0 2.202722 1_555
O1 Tm1 2.338291 1_565
O2 Tm1 2.467358 1_565
O2 Tm0 2.516843 1_656
O3 Tm1 2.296755 1_554
O3 Tm0 2.516680 1_655
O4 Tm0 2.362951 1_545
O4 Tm1 2.409937 1_555
O5 Tm0 2.202731 1_545
O5 Tm1 2.338366 1_455
O6 Tm1 2.467805 1_455
O6 Tm0 2.516905 1_556
O7 Tm1 2.296741 1_454
O7 Tm0 2.516103 1_545
