# generated using pymatgen
data_MgMn2V2O8
_symmetry_space_group_name_H-M   'P 1'
_cell_length_a   5.31878009
_cell_length_b   5.31878019
_cell_length_c   6.52530500
_cell_angle_alpha   90.00000000
_cell_angle_beta   90.00000000
_cell_angle_gamma   66.45340473
_symmetry_Int_Tables_number   1
_chemical_formula_structural   MgMn2V2O8
_chemical_formula_sum   'Mg1 Mn2 V2 O8'
_cell_volume   169.22672074
_cell_formula_units_Z   1
loop_
 _symmetry_equiv_pos_site_id
 _symmetry_equiv_pos_as_xyz
  1  'x, y, z'
loop_
 _atom_site_type_symbol
 _atom_site_label
 _atom_site_symmetry_multiplicity
 _atom_site_fract_x
 _atom_site_fract_y
 _atom_site_fract_z
 _atom_site_occupancy
  Mg  Mg0  1  0.66109900  0.66109900  0.25000000  1
  Mn  Mn0  1  0.00211100  0.00211100  0.50765200  1
  Mn  Mn1  1  0.00211100  0.00211100  0.99234800  1
  V  V0  1  0.64416500  0.64416400  0.75000000  1
  V  V1  1  0.35081100  0.35081100  0.25000100  1
  O  O0  1  0.23760100  0.23759800  0.45657700  1
  O  O1  1  0.72206500  0.24537900  0.25000100  1
  O  O2  1  0.24537800  0.72206700  0.25000100  1
  O  O3  1  0.28674300  0.77543600  0.75000000  1
  O  O4  1  0.23760100  0.23759800  0.04342400  1
  O  O5  1  0.75494000  0.75493900  0.97567800  1
  O  O6  1  0.77543500  0.28674300  0.75000000  1
  O  O7  1  0.75494000  0.75493900  0.52432300  1
loop_
_geom_bond_atom_site_label_1
_geom_bond_atom_site_label_2
_geom_bond_distance
_geom_bond_site_symmetry_2
Mg0 O5 1.975222 1_554
Mg0 O7 1.975228 1_555
Mg0 O1 2.102700 1_555
Mg0 O2 2.102702 1_555
Mn0 O0 2.121813 1_555
Mn0 O3 2.188132 1_545
Mn0 O6 2.188134 1_455
Mn0 O7 2.202123 1_445
Mn0 O2 2.275850 1_545
Mn0 O1 2.275856 1_455
Mn1 O4 2.121814 1_556
Mn1 O3 2.188132 1_545
Mn1 O6 2.188134 1_455
Mn1 O5 2.202123 1_445
Mn1 O2 2.275859 1_546
Mn1 O1 2.275866 1_456
O0 V1 1.682821 1_555
O1 V1 1.824515 1_555
O2 V1 1.824524 1_555
O3 V0 1.743835 1_555
O4 V1 1.682827 1_555
O5 V0 1.772075 1_555
O6 V0 1.743831 1_555
O7 V0 1.772070 1_555
