# generated using pymatgen
data_Ti6Sn5
_symmetry_space_group_name_H-M   'P 1'
_cell_length_a   9.28031217
_cell_length_b   9.28065590
_cell_length_c   5.69119478
_cell_angle_alpha   89.99992231
_cell_angle_beta   90.00010162
_cell_angle_gamma   120.00109127
_symmetry_Int_Tables_number   1
_chemical_formula_structural   Ti6Sn5
_chemical_formula_sum   'Ti12 Sn10'
_cell_volume   424.49302763
_cell_formula_units_Z   2
loop_
 _symmetry_equiv_pos_site_id
 _symmetry_equiv_pos_as_xyz
  1  'x, y, z'
loop_
 _atom_site_type_symbol
 _atom_site_label
 _atom_site_symmetry_multiplicity
 _atom_site_fract_x
 _atom_site_fract_y
 _atom_site_fract_z
 _atom_site_occupancy
  Ti  Ti0  1  0.84381085  0.68758701  0.75000693  1
  Ti  Ti1  1  0.15620455  0.84378541  0.24999203  1
  Ti  Ti2  1  0.68758535  0.84379626  0.25001269  1
  Ti  Ti3  1  0.31241117  0.15619760  0.74998726  1
  Ti  Ti4  1  0.84380301  0.15621935  0.75000786  1
  Ti  Ti5  1  0.15619863  0.31241882  0.24999355  1
  Ti  Ti6  1  0.50000807  -0.00000111  0.49999773  1
  Ti  Ti7  1  0.50000503  0.50000638  0.00000237  1
  Ti  Ti8  1  0.00000444  0.49999932  -0.00000049  1
  Ti  Ti9  1  0.00000440  0.49999931  0.50000046  1
  Ti  Ti10  1  0.50000801  -0.00000111  0.00000228  1
  Ti  Ti11  1  0.50000493  0.50000631  0.49999756  1
  Sn  Sn0  1  0.20463102  0.40931109  0.75000897  1
  Sn  Sn1  1  0.79536986  0.20466015  0.24999251  1
  Sn  Sn2  1  0.40929207  0.20467097  0.24999918  1
  Sn  Sn3  1  0.59073753  0.79535772  0.75000081  1
  Sn  Sn4  1  0.20461605  0.79529846  0.75000750  1
  Sn  Sn5  1  0.79534584  0.59069801  0.24999089  1
  Sn  Sn6  1  0.66670407  0.33335817  0.75000030  1
  Sn  Sn7  1  0.33333772  0.66664849  0.24999966  1
  Sn  Sn8  1  -0.00004028  -0.00000727  0.50001320  1
  Sn  Sn9  1  -0.00004031  -0.00000732  -0.00001325  1
loop_
_geom_bond_atom_site_label_1
_geom_bond_atom_site_label_2
_geom_bond_distance
_geom_bond_site_symmetry_2
Ti0 Ti8 3.111241 1_656
Ti0 Ti9 3.111282 1_655
Ti0 Ti7 3.111328 1_556
Ti0 Ti11 3.111362 1_555
Ti1 Ti8 3.111281 1_555
Ti1 Ti10 3.111301 1_565
Ti1 Ti9 3.111321 1_555
Ti1 Ti6 3.111339 1_565
Ti2 Ti6 3.111201 1_565
Ti2 Ti7 3.111341 1_555
Ti3 Ti6 3.111330 1_555
Ti3 Ti7 3.111490 1_556
Ti4 Ti8 3.111233 1_656
Ti4 Ti9 3.111273 1_655
Ti4 Ti6 3.111285 1_555
Ti5 Ti8 3.111196 1_555
Ti5 Ti9 3.111234 1_555
Ti5 Ti7 3.111324 1_555
Ti8 Ti9 2.845592 1_554
Ti8 Ti9 2.845603 1_555
Ti10 Ti6 2.845571 1_555
Ti10 Ti6 2.845623 1_554
Ti10 Ti4 3.111248 1_554
Ti10 Ti2 3.111263 1_545
Ti10 Ti3 3.111391 1_554
Ti11 Ti7 2.845570 1_555
Ti11 Ti7 2.845625 1_556
Ti11 Ti2 3.111274 1_555
Ti11 Ti5 3.111354 1_555
Ti11 Ti3 3.111422 1_555
Sn0 Ti8 2.817289 1_556
Sn0 Ti9 2.817336 1_555
Sn0 Ti7 2.817685 1_556
Sn0 Ti11 2.817740 1_555
Sn0 Ti5 2.950146 1_556
Sn0 Ti5 2.950316 1_555
Sn0 Ti4 2.977347 1_455
Sn0 Ti3 2.977958 1_555
Sn1 Ti8 2.817456 1_655
Sn1 Ti9 2.817499 1_655
Sn1 Ti10 2.817576 1_555
Sn1 Ti6 2.817621 1_555
Sn1 Ti4 2.950109 1_554
Sn1 Ti4 2.950275 1_555
Sn1 Ti5 2.977304 1_655
Sn1 Ti2 2.977688 1_545
Sn2 Ti7 2.817459 1_555
Sn2 Ti11 2.817465 1_555
Sn2 Ti10 2.817856 1_555
Sn2 Ti6 2.817857 1_555
Sn2 Ti3 2.950135 1_555
Sn2 Ti3 2.950264 1_554
Sn2 Ti5 2.977504 1_555
Sn2 Ti1 2.977799 1_545
Sn3 Ti7 2.817560 1_556
Sn3 Ti11 2.817568 1_555
Sn3 Ti10 2.817713 1_566
Sn3 Ti6 2.817714 1_565
Sn3 Ti2 2.950065 1_555
Sn3 Ti2 2.950194 1_556
Sn3 Ti0 2.977481 1_555
Sn3 Ti4 2.977590 1_565
Sn4 Ti8 2.817177 1_556
Sn4 Ti9 2.817221 1_555
Sn4 Ti10 2.817835 1_566
Sn4 Ti6 2.817881 1_565
Sn4 Ti1 2.950160 1_556
Sn4 Ti1 2.950327 1_555
Sn4 Ti0 2.977194 1_455
Sn4 Ti3 2.977979 1_565
Sn5 Ti7 2.817423 1_555
Sn5 Ti11 2.817480 1_555
Sn5 Ti8 2.817598 1_655
Sn5 Ti9 2.817645 1_655
Sn5 Ti0 2.950136 1_554
Sn5 Ti0 2.950313 1_555
Sn5 Ti1 2.977546 1_655
Sn5 Ti2 2.977689 1_555
Sn6 Ti0 2.847006 1_555
Sn6 Ti4 2.847072 1_555
Sn6 Ti3 2.847416 1_555
Sn6 Ti8 3.033113 1_656
Sn6 Ti9 3.033117 1_655
Sn6 Ti11 3.033537 1_555
Sn6 Ti7 3.033540 1_556
Sn6 Ti10 3.033627 1_556
Sn6 Ti6 3.033630 1_555
Sn7 Ti5 2.847013 1_555
Sn7 Ti2 2.847052 1_555
Sn7 Ti1 2.847332 1_555
Sn7 Ti11 3.033255 1_555
Sn7 Ti7 3.033259 1_555
Sn7 Ti8 3.033349 1_555
Sn7 Ti9 3.033354 1_555
Sn7 Ti10 3.033551 1_565
Sn7 Ti6 3.033555 1_565
Sn8 Sn9 2.845447 1_556
Sn8 Sn9 2.845748 1_555
Sn8 Ti2 2.885666 1_445
Sn8 Ti4 2.885793 1_455
Sn8 Ti0 2.885948 1_445
Sn8 Ti3 2.886131 1_555
Sn8 Ti5 2.886164 1_555
Sn8 Ti1 2.886348 1_545
Sn9 Ti2 2.885741 1_445
Sn9 Ti4 2.885744 1_454
Sn9 Ti0 2.885910 1_444
Sn9 Ti5 2.886129 1_555
Sn9 Ti3 2.886206 1_554
Sn9 Ti1 2.886299 1_545
