# generated using pymatgen
data_Na8La2Hf2Si5SO24
_symmetry_space_group_name_H-M   'P 1'
_cell_length_a   9.52958715
_cell_length_b   9.52056020
_cell_length_c   23.10788095
_cell_angle_alpha   90.13494851
_cell_angle_beta   89.73586855
_cell_angle_gamma   120.06236436
_symmetry_Int_Tables_number   1
_chemical_formula_structural   Na8La2Hf2Si5SO24
_chemical_formula_sum   'Na24 La6 Hf6 Si15 S3 O72'
_cell_volume   1814.46862586
_cell_formula_units_Z   3
loop_
 _symmetry_equiv_pos_site_id
 _symmetry_equiv_pos_as_xyz
  1  'x, y, z'
loop_
 _atom_site_type_symbol
 _atom_site_label
 _atom_site_symmetry_multiplicity
 _atom_site_fract_x
 _atom_site_fract_y
 _atom_site_fract_z
 _atom_site_occupancy
  Na  Na0  1  0.64992938  0.00548203  0.25373200  1
  Na  Na1  1  0.34885050  0.35844511  0.24693786  1
  Na  Na2  1  0.00112045  0.64427622  0.24939967  1
  Na  Na3  1  0.63837854  0.63540904  0.74208297  1
  Na  Na4  1  0.98854503  0.35370971  0.74568979  1
  Na  Na5  1  0.36841161  0.01360849  0.74610664  1
  Na  Na6  1  0.30086311  0.33839811  0.59297396  1
  Na  Na7  1  0.03822724  0.70287802  0.58450998  1
  Na  Na8  1  0.66558786  0.95909910  0.58522626  1
  Na  Na9  1  0.27936243  0.96529927  0.08186047  1
  Na  Na10  1  0.67114708  0.68296671  0.09501466  1
  Na  Na11  1  0.05146449  0.33943311  0.09288528  1
  Na  Na12  1  0.98511715  0.67266369  0.91127909  1
  Na  Na13  1  0.70905702  0.05246501  0.89939591  1
  Na  Na14  1  0.31298081  0.27627595  0.91553545  1
  Na  Na15  1  0.95171180  0.29776506  0.40801472  1
  Na  Na16  1  0.32867772  0.01469932  0.41494765  1
  Na  Na17  1  0.71271506  0.67993522  0.41961972  1
  Na  Na18  1  0.98313305  0.98105415  0.50460243  1
  Na  Na19  1  0.03605264  0.01544751  0.99854184  1
  Na  Na20  1  0.66890196  0.32071320  0.82805940  1
  Na  Na21  1  0.67541957  0.32971688  0.33259849  1
  Na  Na22  1  0.31924479  0.64887177  0.17065820  1
  Na  Na23  1  0.33696608  0.66666187  0.66633069  1
  La  La0  1  0.99562745  0.99474670  0.34214863  1
  La  La1  1  0.00793618  0.00524343  0.83650955  1
  La  La2  1  0.00511167  0.99918588  0.16063083  1
  La  La3  1  0.66772401  0.33487592  0.97995352  1
  La  La4  1  0.31566140  0.65674695  0.01742249  1
  La  La5  1  0.33523428  0.67537745  0.52071094  1
  Hf  Hf0  1  -0.00031719  0.99933334  0.64994008  1
  Hf  Hf1  1  0.66795024  0.33366081  0.68304579  1
  Hf  Hf2  1  0.66474141  0.34292240  0.18499510  1
  Hf  Hf3  1  0.67699949  0.33039368  0.48664364  1
  Hf  Hf4  1  0.33064989  0.67903031  0.31870325  1
  Hf  Hf5  1  0.31991785  0.66659177  0.80900658  1
  Si  Si0  1  0.32506167  0.00367986  0.25093624  1
  Si  Si1  1  0.67198265  0.67905353  0.25106691  1
  Si  Si2  1  0.00111773  0.32548922  0.25055229  1
  Si  Si3  1  0.30944560  0.31003784  0.74768397  1
  Si  Si4  1  0.99543929  0.69209658  0.74868593  1
  Si  Si5  1  0.69149132  0.99799540  0.74821053  1
  Si  Si6  1  0.95386981  0.31702540  0.58624080  1
  Si  Si7  1  0.36971396  0.05253419  0.58492559  1
  Si  Si8  1  0.68107751  0.62886967  0.58449185  1
  Si  Si9  1  0.96335606  0.63595032  0.08400659  1
  Si  Si10  1  0.36633534  0.33164536  0.08410103  1
  Si  Si11  1  0.03430959  0.36416228  0.91141348  1
  Si  Si12  1  0.33360158  0.96383709  0.91375912  1
  Si  Si13  1  0.63583924  0.97611765  0.41945375  1
  Si  Si14  1  0.02306306  0.65922835  0.42030265  1
  S  S0  1  0.67056709  0.03807428  0.08729743  1
  S  S1  1  0.62507137  0.66887150  0.91085516  1
  S  S2  1  0.34481184  0.37052016  0.41681698  1
  O  O0  1  0.25461839  0.05793607  0.30585065  1
  O  O1  1  0.80044152  0.75137560  0.30448999  1
  O  O2  1  0.95235806  0.20155319  0.30559360  1
  O  O3  1  0.25691764  0.20713415  0.80768428  1
  O  O4  1  0.94889860  0.74610642  0.80906109  1
  O  O5  1  0.79485946  0.04479098  0.80777744  1
  O  O6  1  0.79999878  0.97132778  0.69659164  1
  O  O7  1  0.17188814  0.20110922  0.69664014  1
  O  O8  1  0.02512174  0.82783608  0.69733463  1
  O  O9  1  0.73995256  0.80109740  0.19544233  1
  O  O10  1  0.04990216  0.25389017  0.19426222  1
  O  O11  1  0.20100634  0.94931052  0.19624329  1
  O  O12  1  0.85487456  0.33211730  0.64093791  1
  O  O13  1  0.48080273  0.15181480  0.64011280  1
  O  O14  1  0.67292638  0.52054642  0.64005651  1
  O  O15  1  0.84278094  0.51863860  0.13680129  1
  O  O16  1  0.67206572  0.14005347  0.13690414  1
  O  O17  1  0.47718777  0.31831406  0.13702399  1
  O  O18  1  0.44170950  0.31852069  0.02174297  1
  O  O19  1  0.87951471  0.55669372  0.02184629  1
  O  O20  1  0.67786236  0.11869275  0.03192419  1
  O  O21  1  0.46518999  0.16019880  0.52581483  1
  O  O22  1  0.69512876  0.53404658  0.52534068  1
  O  O23  1  0.84409104  0.30300909  0.52725588  1
  O  O24  1  0.55189548  0.67553803  0.96720455  1
  O  O25  1  0.12523276  0.43806759  0.97343523  1
  O  O26  1  0.33199457  0.88131741  0.97638247  1
  O  O27  1  0.56886604  0.87199086  0.47885617  1
  O  O28  1  0.32368285  0.43945341  0.47128619  1
  O  O29  1  0.12176694  0.68317441  0.47997932  1
  O  O30  1  0.13233064  0.64668729  0.36587935  1
  O  O31  1  0.51234311  0.86597671  0.36574432  1
  O  O32  1  0.34940874  0.47137643  0.36664537  1
  O  O33  1  0.15449381  0.48151220  0.85785068  1
  O  O34  1  0.33257709  0.84494959  0.85990562  1
  O  O35  1  0.52526260  0.66950119  0.86158650  1
  O  O36  1  0.00140844  0.81955980  0.41429922  1
  O  O37  1  0.82224885  0.01204783  0.41169604  1
  O  O38  1  0.20500389  0.20228000  0.41197664  1
  O  O39  1  0.00509974  0.17907622  0.91035706  1
  O  O40  1  0.16726906  0.97610506  0.91329562  1
  O  O41  1  0.78983992  0.81195778  0.90913067  1
  O  O42  1  0.96074983  0.14691842  0.58971885  1
  O  O43  1  0.18916321  0.03907514  0.58956244  1
  O  O44  1  0.84845733  0.81025472  0.58880919  1
  O  O45  1  0.97816789  0.81575727  0.08676009  1
  O  O46  1  0.81455910  0.01856438  0.08953031  1
  O  O47  1  0.18023980  0.17583393  0.08693785  1
  O  O48  1  0.65882069  0.15088038  0.73773546  1
  O  O49  1  0.49410056  0.34259489  0.73623720  1
  O  O50  1  0.84721340  0.50601582  0.73774788  1
  O  O51  1  0.64460812  0.49491196  0.23992148  1
  O  O52  1  0.84416249  0.35135123  0.24024172  1
  O  O53  1  0.51096584  0.15170947  0.23916239  1
  O  O54  1  0.63177360  0.51581375  0.90705338  1
  O  O55  1  0.86280321  0.36612674  0.90565283  1
  O  O56  1  0.50006330  0.14136189  0.90582325  1
  O  O57  1  0.63310612  0.15082247  0.42127988  1
  O  O58  1  0.50046681  0.36826577  0.41705584  1
  O  O59  1  0.84352440  0.48711468  0.42065442  1
  O  O60  1  0.37192442  0.50676557  0.09263949  1
  O  O61  1  0.14094463  0.64830231  0.09320507  1
  O  O62  1  0.51925465  0.87735211  0.09153823  1
  O  O63  1  0.34891117  0.87039690  0.58707378  1
  O  O64  1  0.51789799  0.64562786  0.58619426  1
  O  O65  1  0.13707329  0.47432524  0.58615835  1
  O  O66  1  0.34230747  0.84146410  0.26293260  1
  O  O67  1  0.49101539  0.65047362  0.26647939  1
  O  O68  1  0.16112610  0.50536340  0.26283969  1
  O  O69  1  0.31907356  0.48865465  0.75143125  1
  O  O70  1  0.16733400  0.68530478  0.75198109  1
  O  O71  1  0.51411245  0.82733906  0.75288471  1
loop_
_geom_bond_atom_site_label_1
_geom_bond_atom_site_label_2
_geom_bond_distance
_geom_bond_site_symmetry_2
Na0 O53 2.378770 1_555
Na0 O66 2.546935 1_545
Na0 O2 2.803231 1_555
Na0 O9 2.825962 1_545
Na0 O52 2.873895 1_555
Na0 O31 2.902236 1_545
Na0 O67 2.945540 1_545
Na0 O16 2.952000 1_555
Na1 O51 2.446630 1_555
Na1 O67 2.448517 1_555
Na1 O10 2.788113 1_555
Na1 O68 2.791111 1_555
Na1 O0 2.877174 1_555
Na1 O17 2.920210 1_555
Na1 O32 2.964490 1_555
Na2 O52 2.424959 1_455
Na2 O68 2.489415 1_555
Na2 O11 2.832658 1_555
Na2 O66 2.843376 1_555
Na2 O1 2.870986 1_455
Na2 O15 2.948010 1_455
Na2 O51 2.962707 1_455
Na2 O30 2.968276 1_555
Na3 O49 2.416610 1_555
Na3 O71 2.639447 1_555
Na3 O69 2.644546 1_555
Na3 O14 2.684029 1_555
Na3 O50 2.818147 1_555
Na3 O6 2.961618 1_555
Na3 O4 3.028635 1_555
Na3 O35 3.035115 1_555
Na4 O50 2.431136 1_555
Na4 O12 2.699610 1_555
Na4 O70 2.738917 1_655
Na4 O69 2.745568 1_655
Na4 O48 2.749610 1_555
Na4 O5 2.944805 1_555
Na4 O33 2.965455 1_655
Na4 O7 2.994199 1_655
Na5 O48 2.403532 1_555
Na5 O13 2.730670 1_555
Na5 O70 2.731081 1_545
Na5 O49 2.745749 1_555
Na5 O71 2.750916 1_545
Na5 O3 2.912616 1_555
Na5 O34 3.012024 1_545
Na5 O8 3.054200 1_545
Na6 O65 2.482476 1_555
Na6 O43 2.494152 1_555
Na6 O64 2.606907 1_555
Na6 O7 2.708430 1_555
Na6 O42 2.813510 1_455
Na6 O28 2.945754 1_555
Na7 O44 2.485042 1_455
Na7 O63 2.565767 1_555
Na7 O29 2.575514 1_555
Na7 O65 2.770875 1_555
Na7 O43 2.777547 1_565
Na7 O8 2.891251 1_555
Na8 O42 2.466297 1_565
Na8 O64 2.584546 1_555
Na8 O27 2.612371 1_555
Na8 O63 2.695879 1_555
Na8 O44 2.743706 1_555
Na8 O6 2.855917 1_555
Na9 O45 2.486323 1_455
Na9 O47 2.611222 1_565
Na9 O61 2.632304 1_555
Na9 O26 2.685697 1_554
Na9 O11 2.727044 1_555
Na9 O62 2.810796 1_555
Na10 O60 2.481242 1_555
Na10 O9 2.518578 1_555
Na10 O45 2.546569 1_555
Na10 O46 2.778100 1_565
Na10 O62 2.865687 1_555
Na10 O15 2.939491 1_555
Na11 O47 2.421417 1_555
Na11 O10 2.479479 1_555
Na11 O61 2.619559 1_555
Na11 O60 2.643791 1_555
Na11 O46 2.743312 1_455
Na11 O25 2.885803 1_554
Na12 O40 2.517374 1_655
Na12 O4 2.538573 1_555
Na12 O55 2.546392 1_555
Na12 O19 2.763339 1_556
Na12 O41 2.774496 1_555
Na12 O54 2.922711 1_555
Na13 O5 2.280180 1_555
Na13 O39 2.464593 1_655
Na13 O56 2.527923 1_555
Na13 O55 2.588738 1_555
Na13 O41 2.767006 1_545
Na14 O40 2.474275 1_545
Na14 O3 2.565555 1_555
Na14 O39 2.600273 1_555
Na14 O56 2.677287 1_555
Na14 O18 2.686759 1_556
Na14 O54 2.742965 1_555
Na15 O37 2.359358 1_555
Na15 O59 2.500964 1_555
Na15 O2 2.536891 1_555
Na15 O57 2.647145 1_555
Na15 O23 2.944689 1_555
Na15 O38 2.976899 1_655
Na15 O30 3.035966 1_655
Na16 O57 2.520600 1_555
Na16 O38 2.587105 1_555
Na16 O0 2.708382 1_555
Na16 O36 2.715437 1_545
Na16 O21 2.895367 1_555
Na16 O58 2.914154 1_555
Na16 O31 2.969500 1_545
Na17 O36 2.384229 1_655
Na17 O58 2.624216 1_555
Na17 O59 2.686572 1_555
Na17 O1 2.767235 1_555
Na17 O22 2.775685 1_555
Na17 O37 2.795530 1_565
Na18 O44 2.445125 1_555
Na18 O42 2.593574 1_565
Na18 O43 2.637834 1_665
Na18 O36 2.645464 1_655
Na18 O37 2.744683 1_565
Na18 O38 3.000940 1_665
Na19 O40 2.455057 1_545
Na19 O47 2.510206 1_556
Na19 O45 2.651704 1_446
Na19 O39 2.673428 1_555
Na19 O46 2.983014 1_456
Na19 O41 2.999815 1_445
Na20 O56 2.443099 1_555
Na20 O55 2.458188 1_555
Na20 O48 2.609657 1_555
Na20 O50 2.708535 1_555
Na20 O54 2.746618 1_555
Na20 O49 2.775373 1_555
Na21 O59 2.561796 1_555
Na21 O57 2.565840 1_555
Na21 O52 2.611804 1_555
Na21 O58 2.702382 1_555
Na21 O53 2.709783 1_555
Na21 O51 2.762318 1_555
Na22 O60 2.448129 1_555
Na22 O61 2.471665 1_555
Na22 O68 2.568289 1_555
Na22 O66 2.745735 1_555
Na22 O62 2.745910 1_555
Na22 O67 2.755126 1_555
Na23 O69 2.547817 1_555
Na23 O71 2.572869 1_555
Na23 O64 2.599392 1_555
Na23 O70 2.611166 1_555
Na23 O63 2.631183 1_555
Na23 O65 2.633581 1_555
La0 O1 2.296340 1_555
La0 O2 2.363179 1_565
La0 O37 2.363613 1_565
La0 O0 2.377511 1_665
La0 O36 2.381295 1_655
La0 O38 2.559994 1_665
La1 O3 2.278188 1_555
La1 O4 2.326122 1_445
La1 O5 2.342054 1_455
La1 O39 2.383863 1_555
La1 O40 2.445396 1_545
La1 O41 2.583135 1_445
La2 O11 2.300373 1_555
La2 O45 2.360135 1_455
La2 O10 2.371415 1_565
La2 O47 2.385106 1_565
La2 O9 2.408891 1_455
La2 O46 2.528925 1_465
La3 O19 2.282211 1_556
La3 O18 2.289376 1_556
La3 O20 2.428916 1_556
La3 O55 2.431291 1_555
La3 O56 2.437749 1_555
La3 O54 2.555945 1_555
La4 O25 2.209670 1_554
La4 O26 2.273669 1_554
La4 O61 2.384303 1_555
La4 O24 2.453559 1_554
La4 O60 2.476836 1_555
La4 O62 2.653250 1_555
La5 O29 2.280105 1_555
La5 O27 2.282434 1_555
La5 O63 2.358372 1_555
La5 O65 2.425487 1_555
La5 O64 2.433160 1_555
La5 O28 2.470418 1_555
Hf0 O6 2.080477 1_455
Hf0 O8 2.081228 1_555
Hf0 O7 2.096671 1_565
Hf0 O42 2.141194 1_465
Hf0 O43 2.155216 1_565
Hf0 O44 2.172660 1_455
Hf1 O13 2.019156 1_555
Hf1 O14 2.019452 1_555
Hf1 O12 2.032299 1_555
Hf1 O49 2.093954 1_555
Hf1 O50 2.100095 1_555
Hf1 O48 2.119086 1_555
Hf2 O51 2.002224 1_555
Hf2 O15 2.016220 1_555
Hf2 O17 2.018829 1_555
Hf2 O53 2.085498 1_555
Hf2 O52 2.107570 1_555
Hf2 O16 2.257091 1_555
Hf3 O23 1.978637 1_555
Hf3 O21 2.057260 1_555
Hf3 O22 2.060680 1_555
Hf3 O57 2.157852 1_555
Hf3 O59 2.164708 1_555
Hf3 O58 2.486206 1_555
Hf4 O66 1.975014 1_555
Hf4 O30 2.062641 1_555
Hf4 O67 2.064802 1_555
Hf4 O31 2.065937 1_555
Hf4 O68 2.083995 1_555
Hf4 O32 2.352434 1_555
Hf5 O34 2.016933 1_555
Hf5 O33 2.018383 1_555
Hf5 O70 2.039799 1_555
Hf5 O71 2.144389 1_555
Hf5 O69 2.148445 1_555
Hf5 O35 2.296462 1_555
O0 Si0 1.632231 1_555
O1 Si1 1.631591 1_555
O2 Si2 1.636516 1_655
O3 Si3 1.625231 1_555
O4 Si4 1.620782 1_555
O5 Si5 1.622776 1_545
O6 Si5 1.675317 1_555
O7 Si3 1.682737 1_555
O8 Si4 1.672140 1_455
O9 Si1 1.633131 1_555
O10 Si2 1.637216 1_555
O11 Si0 1.631078 1_565
O12 Si6 1.622376 1_555
O13 Si7 1.626241 1_555
O14 Si8 1.625816 1_555
O15 Si9 1.662458 1_555
O16 S0 1.495955 1_555
O17 Si10 1.665710 1_555
O18 Si10 1.639345 1_555
O19 Si9 1.634752 1_555
O20 S0 1.477009 1_555
O21 Si7 1.674817 1_555
O22 Si8 1.677747 1_555
O23 Si6 1.685962 1_555
O24 S1 1.490433 1_555
O25 Si11 1.641878 1_555
O26 Si12 1.644576 1_555
O27 Si13 1.624421 1_555
O28 S2 1.477044 1_555
O29 Si14 1.622959 1_555
O30 Si14 1.670887 1_555
O31 Si13 1.672090 1_555
O32 S2 1.493542 1_555
O33 Si11 1.674323 1_555
O34 Si12 1.676984 1_555
O35 S1 1.488823 1_555
O36 Si14 1.645818 1_555
O37 Si13 1.641132 1_545
O38 S2 1.488499 1_555
O39 Si11 1.640607 1_555
O40 Si12 1.646779 1_555
O41 S1 1.476298 1_555
O42 Si6 1.655484 1_555
O43 Si7 1.663056 1_555
O44 Si8 1.666519 1_555
O45 Si9 1.646794 1_555
O46 S0 1.475164 1_555
O47 Si10 1.647279 1_555
O48 Si5 1.652430 1_545
O49 Si3 1.646866 1_555
O50 Si4 1.640642 1_555
O51 Si1 1.657753 1_555
O52 Si2 1.651393 1_655
O53 Si0 1.641542 1_555
O54 S1 1.492584 1_555
O55 Si11 1.649826 1_655
O56 Si12 1.649004 1_545
O57 Si13 1.676916 1_545
O58 S2 1.494230 1_555
O59 Si14 1.674367 1_655
O60 Si10 1.652587 1_555
O61 Si9 1.651318 1_455
O62 S0 1.489646 1_565
O63 Si7 1.644565 1_565
O64 Si8 1.641069 1_555
O65 Si6 1.634398 1_455
O66 Si0 1.657018 1_565
O67 Si1 1.643045 1_555
O68 Si2 1.650417 1_555
O69 Si3 1.658550 1_555
O70 Si4 1.673499 1_455
O71 Si5 1.660217 1_555
