# generated using pymatgen
data_Lu4CoB13
_symmetry_space_group_name_H-M   'P 1'
_cell_length_a   7.20317700
_cell_length_b   7.20317700
_cell_length_c   6.74949500
_cell_angle_alpha   90.00000000
_cell_angle_beta   90.00000000
_cell_angle_gamma   90.00000000
_symmetry_Int_Tables_number   1
_chemical_formula_structural   Lu4CoB13
_chemical_formula_sum   'Lu8 Co2 B26'
_cell_volume   350.20267022
_cell_formula_units_Z   2
loop_
 _symmetry_equiv_pos_site_id
 _symmetry_equiv_pos_as_xyz
  1  'x, y, z'
loop_
 _atom_site_type_symbol
 _atom_site_label
 _atom_site_symmetry_multiplicity
 _atom_site_fract_x
 _atom_site_fract_y
 _atom_site_fract_z
 _atom_site_occupancy
  Lu  Lu0  1  0.18512700  0.31838400  0.00000000  1
  Lu  Lu1  1  0.31487300  0.81838400  0.50000000  1
  Lu  Lu2  1  0.68512700  0.18161600  0.50000000  1
  Lu  Lu3  1  0.81487300  0.68161600  0.00000000  1
  Lu  Lu4  1  0.31838400  0.81487300  0.00000000  1
  Lu  Lu5  1  0.68161600  0.18512700  0.00000000  1
  Lu  Lu6  1  0.18161600  0.31487300  0.50000000  1
  Lu  Lu7  1  0.81838400  0.68512700  0.50000000  1
  Co  Co0  1  0.00000000  0.00000000  0.00000000  1
  Co  Co1  1  0.50000000  0.50000000  0.50000000  1
  B  B0  1  0.67120700  0.46105200  0.24553000  1
  B  B1  1  0.41004700  0.08995300  0.25000000  1
  B  B2  1  0.82879300  0.96105200  0.74553000  1
  B  B3  1  0.46105200  0.32879300  0.75447000  1
  B  B4  1  0.53894800  0.67120700  0.24553000  1
  B  B5  1  0.91004700  0.41004700  0.75000000  1
  B  B6  1  0.82879300  0.96105200  0.25447000  1
  B  B7  1  0.96105200  0.17120700  0.25447000  1
  B  B8  1  0.58995300  0.91004700  0.25000000  1
  B  B9  1  0.03894800  0.82879300  0.25447000  1
  B  B10  1  0.03894800  0.82879300  0.74553000  1
  B  B11  1  0.32879300  0.53894800  0.24553000  1
  B  B12  1  0.08995300  0.58995300  0.75000000  1
  B  B13  1  0.96105200  0.17120700  0.74553000  1
  B  B14  1  0.08995300  0.58995300  0.25000000  1
  B  B15  1  0.50000000  0.50000000  0.00000000  1
  B  B16  1  0.41004700  0.08995300  0.75000000  1
  B  B17  1  0.58995300  0.91004700  0.75000000  1
  B  B18  1  0.91004700  0.41004700  0.25000000  1
  B  B19  1  0.32879300  0.53894800  0.75447000  1
  B  B20  1  0.67120700  0.46105200  0.75447000  1
  B  B21  1  0.46105200  0.32879300  0.24553000  1
  B  B22  1  0.17120700  0.03894800  0.25447000  1
  B  B23  1  0.17120700  0.03894800  0.74553000  1
  B  B24  1  0.53894800  0.67120700  0.75447000  1
  B  B25  1  0.00000000  0.00000000  0.50000000  1
loop_
_geom_bond_atom_site_label_1
_geom_bond_atom_site_label_2
_geom_bond_distance
_geom_bond_site_symmetry_2
Co0 Lu5 2.652886 1_455
Co0 Lu4 2.652886 1_545
Co0 Lu3 2.652886 1_445
Co0 Lu0 2.652886 1_555
Co1 Lu6 2.652886 1_555
Co1 Lu1 2.652886 1_555
Co1 Lu2 2.652886 1_555
Co1 Lu7 2.652886 1_555
B0 B18 1.759458 1_555
B0 B4 1.788617 1_555
B0 B21 1.788617 1_555
B0 B15 2.084682 1_555
B0 Co1 2.132963 1_555
B0 Lu3 2.518215 1_555
B0 Lu7 2.584380 1_555
B0 Lu5 2.588870 1_555
B0 Lu2 2.647921 1_555
B1 B22 1.759458 1_555
B1 B21 1.759458 1_555
B1 B8 1.832672 1_545
B1 Lu5 2.672784 1_555
B1 Lu1 2.672784 1_545
B1 Lu4 2.685018 1_545
B1 Lu2 2.685018 1_555
B1 Lu6 2.859985 1_555
B1 Lu0 2.859985 1_555
B2 B25 2.084682 1_665
B2 Co0 2.132963 1_666
B2 Lu2 2.518215 1_565
B2 Lu5 2.584380 1_566
B2 Lu7 2.588870 1_555
B2 Lu3 2.647921 1_556
B3 Co1 2.132963 1_555
B3 Lu5 2.518215 1_556
B3 Lu2 2.584380 1_555
B3 Lu0 2.588870 1_556
B3 Lu6 2.647921 1_555
B4 B8 1.759458 1_555
B4 Co1 2.132963 1_555
B4 Lu4 2.518215 1_555
B4 Lu1 2.584380 1_555
B4 Lu3 2.588870 1_555
B4 Lu7 2.647921 1_555
B5 Lu6 2.672784 1_655
B5 Lu3 2.672784 1_556
B5 Lu0 2.685018 1_656
B5 Lu7 2.685018 1_555
B5 Lu2 2.859985 1_555
B5 Lu5 2.859985 1_556
B6 B8 1.759458 1_555
B6 B7 1.788617 1_565
B6 B9 1.788617 1_655
B6 Co0 2.132963 1_665
B6 Lu2 2.518215 1_565
B6 Lu5 2.584380 1_565
B6 Lu7 2.588870 1_555
B6 Lu3 2.647921 1_555
B7 Co0 2.132963 1_655
B7 Lu6 2.518215 1_655
B7 Lu0 2.584380 1_655
B7 Lu2 2.588870 1_555
B7 Lu5 2.647921 1_555
B8 Lu4 2.672784 1_555
B8 Lu2 2.672784 1_565
B8 Lu1 2.685018 1_555
B8 Lu5 2.685018 1_565
B8 Lu3 2.859985 1_555
B8 Lu7 2.859985 1_555
B9 Co0 2.132963 1_565
B9 Lu7 2.518215 1_455
B9 Lu3 2.584380 1_455
B9 Lu1 2.588870 1_555
B9 Lu4 2.647921 1_555
B10 B12 1.759458 1_555
B10 B23 1.788617 1_565
B10 B2 1.788617 1_455
B10 B25 2.084682 1_565
B10 Co0 2.132963 1_566
B10 Lu7 2.518215 1_455
B10 Lu3 2.584380 1_456
B10 Lu1 2.588870 1_555
B10 Lu4 2.647921 1_556
B11 B14 1.759458 1_555
B11 B4 1.788617 1_555
B11 B21 1.788617 1_555
B11 B15 2.084682 1_555
B11 Co1 2.132963 1_555
B11 Lu0 2.518215 1_555
B11 Lu6 2.584380 1_555
B11 Lu4 2.588870 1_555
B11 Lu1 2.647921 1_555
B12 B19 1.759458 1_555
B12 B5 1.832672 1_455
B12 Lu0 2.672784 1_556
B12 Lu7 2.672784 1_455
B12 Lu6 2.685018 1_555
B12 Lu3 2.685018 1_456
B12 Lu4 2.859985 1_556
B12 Lu1 2.859985 1_555
B13 B5 1.759458 1_555
B13 B23 1.788617 1_655
B13 B2 1.788617 1_545
B13 B25 2.084682 1_655
B13 Co0 2.132963 1_656
B13 Lu6 2.518215 1_655
B13 Lu0 2.584380 1_656
B13 Lu2 2.588870 1_555
B13 Lu5 2.647921 1_556
B14 B9 1.759458 1_555
B14 B18 1.832672 1_455
B14 Lu0 2.672784 1_555
B14 Lu7 2.672784 1_455
B14 Lu6 2.685018 1_555
B14 Lu3 2.685018 1_455
B14 Lu4 2.859985 1_555
B14 Lu1 2.859985 1_555
B15 B21 2.084682 1_555
B15 B3 2.084682 1_554
B15 B19 2.084682 1_554
B15 B20 2.084682 1_554
B15 B24 2.084682 1_554
B15 B4 2.084682 1_555
B15 Lu5 2.618326 1_555
B15 Lu3 2.618326 1_555
B15 Lu0 2.618326 1_555
B15 Lu4 2.618326 1_555
B16 B23 1.759458 1_555
B16 B3 1.759458 1_555
B16 B17 1.832672 1_545
B16 Lu1 2.672784 1_545
B16 Lu5 2.672784 1_556
B16 Lu2 2.685018 1_555
B16 Lu4 2.685018 1_546
B16 Lu6 2.859985 1_555
B16 Lu0 2.859985 1_556
B17 B2 1.759458 1_555
B17 B24 1.759458 1_555
B17 Lu4 2.672784 1_556
B17 Lu2 2.672784 1_565
B17 Lu1 2.685018 1_555
B17 Lu5 2.685018 1_566
B17 Lu7 2.859985 1_555
B17 Lu3 2.859985 1_556
B18 B7 1.759458 1_555
B18 Lu6 2.672784 1_655
B18 Lu3 2.672784 1_555
B18 Lu0 2.685018 1_655
B18 Lu7 2.685018 1_555
B18 Lu2 2.859985 1_555
B18 Lu5 2.859985 1_555
B19 B3 1.788617 1_555
B19 B24 1.788617 1_555
B19 Co1 2.132963 1_555
B19 Lu0 2.518215 1_556
B19 Lu6 2.584380 1_555
B19 Lu4 2.588870 1_556
B19 Lu1 2.647921 1_555
B20 B5 1.759458 1_555
B20 B3 1.788617 1_555
B20 B24 1.788617 1_555
B20 Co1 2.132963 1_555
B20 Lu3 2.518215 1_556
B20 Lu7 2.584380 1_555
B20 Lu5 2.588870 1_556
B20 Lu2 2.647921 1_555
B21 Co1 2.132963 1_555
B21 Lu5 2.518215 1_555
B21 Lu2 2.584380 1_555
B21 Lu0 2.588870 1_555
B21 Lu6 2.647921 1_555
B22 B7 1.788617 1_455
B22 B9 1.788617 1_545
B22 B25 2.084682 1_555
B22 Co0 2.132963 1_555
B22 Lu1 2.518215 1_545
B22 Lu4 2.584380 1_545
B22 Lu6 2.588870 1_555
B22 Lu0 2.647921 1_555
B23 B25 2.084682 1_555
B23 Co0 2.132963 1_556
B23 Lu1 2.518215 1_545
B23 Lu4 2.584380 1_546
B23 Lu6 2.588870 1_555
B23 Lu0 2.647921 1_556
B24 Co1 2.132963 1_555
B24 Lu4 2.518215 1_556
B24 Lu1 2.584380 1_555
B24 Lu3 2.588870 1_556
B24 Lu7 2.647921 1_555
B25 B6 2.084682 1_445
B25 B7 2.084682 1_455
B25 B9 2.084682 1_545
B25 Lu7 2.618326 1_445
B25 Lu2 2.618326 1_455
B25 Lu6 2.618326 1_555
B25 Lu1 2.618326 1_545
