# generated using pymatgen
data_Na6Mg4Nb20Si21(S5O48)3
_symmetry_space_group_name_H-M   'P 1'
_cell_length_a   17.76413445
_cell_length_b   8.88719218
_cell_length_c   22.96413267
_cell_angle_alpha   90.00434329
_cell_angle_beta   89.97524379
_cell_angle_gamma   119.97189516
_symmetry_Int_Tables_number   1
_chemical_formula_structural   Na6Mg4Nb20Si21(S5O48)3
_chemical_formula_sum   'Na6 Mg4 Nb20 Si21 S15 O144'
_cell_volume   3140.59677008
_cell_formula_units_Z   1
loop_
 _symmetry_equiv_pos_site_id
 _symmetry_equiv_pos_as_xyz
  1  'x, y, z'
loop_
 _atom_site_type_symbol
 _atom_site_label
 _atom_site_symmetry_multiplicity
 _atom_site_fract_x
 _atom_site_fract_y
 _atom_site_fract_z
 _atom_site_occupancy
  Na  Na0  1  0.99904838  0.99829877  0.49944181  1
  Na  Na1  1  0.49988038  0.00036122  0.00100431  1
  Na  Na2  1  0.33436690  0.32727756  0.83520887  1
  Na  Na3  1  0.83323517  0.33315806  0.83391886  1
  Na  Na4  1  0.33445838  0.33421113  0.33293203  1
  Na  Na5  1  0.83237120  0.33933491  0.33360523  1
  Mg  Mg0  1  0.99732282  0.98435606  0.35346872  1
  Mg  Mg1  1  0.49770957  0.01160886  0.85371481  1
  Mg  Mg2  1  0.99496571  0.00408998  0.64659984  1
  Mg  Mg3  1  0.49762600  0.98210085  0.14909586  1
  Nb  Nb0  1  0.50272991  0.99048296  0.35835959  1
  Nb  Nb1  1  0.99455830  0.00261530  0.86076533  1
  Nb  Nb2  1  0.49300623  0.99369272  0.63926606  1
  Nb  Nb3  1  0.99236061  0.99144404  0.13969602  1
  Nb  Nb4  1  0.33635259  0.33679121  0.68655120  1
  Nb  Nb5  1  0.83642333  0.31906733  0.68448058  1
  Nb  Nb6  1  0.33765519  0.35562268  0.18616152  1
  Nb  Nb7  1  0.83214207  0.32732309  0.19079728  1
  Nb  Nb8  1  0.33512899  0.33571756  0.97992999  1
  Nb  Nb9  1  0.84087884  0.34174157  0.97958076  1
  Nb  Nb10  1  0.34102779  0.34064287  0.47723680  1
  Nb  Nb11  1  0.83399505  0.33158228  0.47786217  1
  Nb  Nb12  1  0.15971781  0.65971073  0.02443436  1
  Nb  Nb13  1  0.66458304  0.65702447  0.02479919  1
  Nb  Nb14  1  0.16489806  0.67148110  0.52296237  1
  Nb  Nb15  1  0.66003624  0.65983692  0.52241957  1
  Nb  Nb16  1  0.16842515  0.67959873  0.31186032  1
  Nb  Nb17  1  0.66589241  0.65920596  0.30690847  1
  Nb  Nb18  1  0.16727642  0.67966870  0.81096071  1
  Nb  Nb19  1  0.66795251  0.65825985  0.81256837  1
  Si  Si0  1  0.64087153  0.99735065  0.24859489  1
  Si  Si1  1  0.35745912  0.72086728  0.24928892  1
  Si  Si2  1  0.85880519  0.71548852  0.25180451  1
  Si  Si3  1  0.35828331  0.00144119  0.75138025  1
  Si  Si4  1  0.85641854  0.99581487  0.74858333  1
  Si  Si5  1  0.47787048  0.33456185  0.58315735  1
  Si  Si6  1  0.98001587  0.32500017  0.58146238  1
  Si  Si7  1  0.68870922  0.04282876  0.58181336  1
  Si  Si8  1  0.32919298  0.61525929  0.58256875  1
  Si  Si9  1  0.47975512  0.63684652  0.08251308  1
  Si  Si10  1  0.97579374  0.61872509  0.08589187  1
  Si  Si11  1  0.82964011  0.04402929  0.08344714  1
  Si  Si12  1  0.18885403  0.33247318  0.08282394  1
  Si  Si13  1  0.80768777  0.65999853  0.91859814  1
  Si  Si14  1  0.02493850  0.38500143  0.91591005  1
  Si  Si15  1  0.52216671  0.37047942  0.91674480  1
  Si  Si16  1  0.16743550  0.95793297  0.91791526  1
  Si  Si17  1  0.31126422  0.95526082  0.41770697  1
  Si  Si18  1  0.66671590  0.38000013  0.41607786  1
  Si  Si19  1  0.02230749  0.67468634  0.41603140  1
  Si  Si20  1  0.52582766  0.66751284  0.41500456  1
  S  S0  1  0.14393149  0.00313466  0.25042324  1
  S  S1  1  0.00133529  0.28659034  0.25147385  1
  S  S2  1  0.49867517  0.28280665  0.24858172  1
  S  S3  1  0.14325803  0.28745188  0.74973021  1
  S  S4  1  0.64403044  0.28539617  0.75040327  1
  S  S5  1  0.99925774  0.71476442  0.74895873  1
  S  S6  1  0.50058199  0.71493527  0.75125538  1
  S  S7  1  0.18752924  0.04707816  0.58327365  1
  S  S8  1  0.83506351  0.62381896  0.58331161  1
  S  S9  1  0.33515452  0.04542884  0.08370226  1
  S  S10  1  0.68765442  0.32759714  0.08346218  1
  S  S11  1  0.31194222  0.67014192  0.91659416  1
  S  S12  1  0.66444995  0.95257896  0.91679003  1
  S  S13  1  0.81193070  0.95303657  0.41643397  1
  S  S14  1  0.16436152  0.37627490  0.41663738  1
  O  O0  1  0.10838786  0.03482971  0.30268598  1
  O  O1  1  0.59960615  0.03368338  0.30803247  1
  O  O2  1  0.41620599  0.80146711  0.30813110  1
  O  O3  1  0.91594308  0.79428910  0.30733229  1
  O  O4  1  0.48377794  0.18113333  0.30252548  1
  O  O5  1  0.98585323  0.18161755  0.30315048  1
  O  O6  1  0.10572811  0.17913290  0.80294584  1
  O  O7  1  0.60813439  0.18163341  0.80264221  1
  O  O8  1  0.48457440  0.78772276  0.80307083  1
  O  O9  1  0.98628192  0.79179927  0.80262536  1
  O  O10  1  0.41439990  0.03641958  0.80738779  1
  O  O11  1  0.91752403  0.03020425  0.80755469  1
  O  O12  1  0.40329565  0.97270279  0.69248227  1
  O  O13  1  0.89684436  0.96344251  0.69318340  1
  O  O14  1  0.09315391  0.21248419  0.69772475  1
  O  O15  1  0.59108527  0.20949258  0.69762918  1
  O  O16  1  0.01599071  0.81767567  0.69712380  1
  O  O17  1  0.51384132  0.81750334  0.69760221  1
  O  O18  1  0.39259356  0.82711926  0.19162487  1
  O  O19  1  0.90441422  0.83646216  0.19260485  1
  O  O20  1  0.01464719  0.21025045  0.19760374  1
  O  O21  1  0.51392939  0.21346263  0.19638759  1
  O  O22  1  0.09127313  0.97317821  0.19747044  1
  O  O23  1  0.58762544  0.96971704  0.19150694  1
  O  O24  1  0.42957852  0.36244426  0.63988049  1
  O  O25  1  0.93213630  0.36478557  0.63921325  1
  O  O26  1  0.24455301  0.12812322  0.63617448  1
  O  O27  1  0.75115618  0.13996282  0.64002680  1
  O  O28  1  0.31767006  0.49594831  0.64042423  1
  O  O29  1  0.81849570  0.51126168  0.63605637  1
  O  O30  1  0.43230057  0.49916517  0.13896965  1
  O  O31  1  0.92942767  0.49446418  0.14032293  1
  O  O32  1  0.31756070  0.12335512  0.13556338  1
  O  O33  1  0.81769980  0.13912115  0.13988694  1
  O  O34  1  0.25181354  0.36204469  0.14000069  1
  O  O35  1  0.74375578  0.36252272  0.13545263  1
  O  O36  1  0.23541152  0.30164051  0.02642851  1
  O  O37  1  0.73068328  0.30568933  0.03028211  1
  O  O38  1  0.41516610  0.51968078  0.02775185  1
  O  O39  1  0.91665985  0.53220819  0.02643531  1
  O  O40  1  0.34648802  0.15515855  0.03002358  1
  O  O41  1  0.84610751  0.16980382  0.02639380  1
  O  O42  1  0.22925362  0.15500891  0.53097868  1
  O  O43  1  0.73528445  0.17000804  0.52685277  1
  O  O44  1  0.34607928  0.52105226  0.52705502  1
  O  O45  1  0.84723913  0.53865461  0.53043090  1
  O  O46  1  0.41538192  0.29973774  0.52677267  1
  O  O47  1  0.91468856  0.30810686  0.52766437  1
  O  O48  1  0.27073201  0.69447849  0.96898187  1
  O  O49  1  0.76457876  0.69747079  0.97387373  1
  O  O50  1  0.08363928  0.47137548  0.97386882  1
  O  O51  1  0.58500844  0.48046854  0.97235980  1
  O  O52  1  0.15412177  0.83183663  0.97296083  1
  O  O53  1  0.65284683  0.84724306  0.96960502  1
  O  O54  1  0.26360083  0.83266747  0.47371435  1
  O  O55  1  0.77085490  0.84780057  0.46969343  1
  O  O56  1  0.15289538  0.45844413  0.46992643  1
  O  O57  1  0.65560952  0.47843713  0.47380216  1
  O  O58  1  0.08446773  0.68913796  0.47251618  1
  O  O59  1  0.58289178  0.69464263  0.47431085  1
  O  O60  1  0.06848430  0.63306258  0.35985926  1
  O  O61  1  0.56899692  0.63189480  0.35953335  1
  O  O62  1  0.24747011  0.86158304  0.36018017  1
  O  O63  1  0.75690639  0.87740829  0.36430171  1
  O  O64  1  0.18236123  0.48829174  0.36404628  1
  O  O65  1  0.68329023  0.50478909  0.35986387  1
  O  O66  1  0.07036644  0.50292295  0.85875309  1
  O  O67  1  0.56899342  0.50370244  0.85979345  1
  O  O68  1  0.18213289  0.86174475  0.85961166  1
  O  O69  1  0.68208863  0.87517642  0.86372450  1
  O  O70  1  0.25564131  0.63746727  0.86368029  1
  O  O71  1  0.74869106  0.63504394  0.85968215  1
  O  O72  1  0.01473059  0.84441370  0.41353080  1
  O  O73  1  0.51206403  0.83291808  0.40991213  1
  O  O74  1  0.40553167  0.98183659  0.40466194  1
  O  O75  1  0.89938773  0.98014382  0.41067462  1
  O  O76  1  0.08824269  0.20537284  0.40913964  1
  O  O77  1  0.58116794  0.19285294  0.40594741  1
  O  O78  1  0.01429127  0.19329736  0.90742108  1
  O  O79  1  0.51444255  0.18565884  0.91308326  1
  O  O80  1  0.08259043  0.97362451  0.90213120  1
  O  O81  1  0.58804567  0.97058803  0.90851065  1
  O  O82  1  0.39869866  0.81838878  0.90952545  1
  O  O83  1  0.90393107  0.82753099  0.90540603  1
  O  O84  1  0.48868075  0.16656962  0.59380675  1
  O  O85  1  0.99016718  0.15972919  0.58759239  1
  O  O86  1  0.10170469  0.02435787  0.59172441  1
  O  O87  1  0.59524872  0.02323354  0.59837267  1
  O  O88  1  0.41742798  0.80286580  0.59347530  1
  O  O89  1  0.91292586  0.79274066  0.58949736  1
  O  O90  1  0.48716427  0.82012331  0.08452150  1
  O  O91  1  0.98966872  0.81230986  0.09310202  1
  O  O92  1  0.41270530  0.03223100  0.08871820  1
  O  O93  1  0.91752892  0.03099860  0.09250442  1
  O  O94  1  0.09512254  0.16738843  0.09768538  1
  O  O95  1  0.60109732  0.18055204  0.08905452  1
  O  O96  1  0.33966021  0.16623422  0.73809914  1
  O  O97  1  0.84453688  0.17464329  0.74361700  1
  O  O98  1  0.23371108  0.30953566  0.74362799  1
  O  O99  1  0.73482031  0.31698182  0.74204244  1
  O  O100  1  0.42056745  0.53293126  0.74277905  1
  O  O101  1  0.92081229  0.53576221  0.74384571  1
  O  O102  1  0.34400848  0.51506108  0.24329806  1
  O  O103  1  0.84324525  0.51860465  0.23754898  1
  O  O104  1  0.41937577  0.30606033  0.24308424  1
  O  O105  1  0.92246842  0.30905085  0.24340024  1
  O  O106  1  0.23484930  0.15279460  0.24197218  1
  O  O107  1  0.74182777  0.17051328  0.24243453  1
  O  O108  1  0.31765844  0.50656877  0.92224042  1
  O  O109  1  0.81750325  0.48758302  0.92428865  1
  O  O110  1  0.42674966  0.36093824  0.92547682  1
  O  O111  1  0.92654066  0.35657309  0.92366099  1
  O  O112  1  0.25299236  0.14841928  0.92437813  1
  O  O113  1  0.74436171  0.12921499  0.92347553  1
  O  O114  1  0.31615005  0.14484283  0.42559730  1
  O  O115  1  0.81835968  0.12967596  0.42333453  1
  O  O116  1  0.24443188  0.35938366  0.42416043  1
  O  O117  1  0.75230701  0.35789406  0.42615916  1
  O  O118  1  0.42700886  0.49648912  0.42437501  1
  O  O119  1  0.92721389  0.49369365  0.42608234  1
  O  O120  1  0.18300230  0.50753104  0.07171467  1
  O  O121  1  0.68294076  0.49111913  0.07577928  1
  O  O122  1  0.07162066  0.64196560  0.07410252  1
  O  O123  1  0.57136010  0.63786533  0.07181574  1
  O  O124  1  0.25615412  0.87227830  0.07362461  1
  O  O125  1  0.74798986  0.85454740  0.07110979  1
  O  O126  1  0.18256112  0.87494232  0.57688604  1
  O  O127  1  0.68279795  0.85699084  0.57227106  1
  O  O128  1  0.24744972  0.64132368  0.57223829  1
  O  O129  1  0.75661033  0.64041685  0.57469607  1
  O  O130  1  0.07217709  0.50600998  0.57199168  1
  O  O131  1  0.57239092  0.50371230  0.57519247  1
  O  O132  1  0.15323707  0.84291131  0.25699170  1
  O  O133  1  0.65766427  0.83539129  0.26493261  1
  O  O134  1  0.25680778  0.67804825  0.26481375  1
  O  O135  1  0.76061752  0.68913653  0.25915114  1
  O  O136  1  0.07803339  0.46393092  0.25799120  1
  O  O137  1  0.57525942  0.46285392  0.25733260  1
  O  O138  1  0.15571666  0.46475306  0.76010597  1
  O  O139  1  0.65320819  0.46397823  0.75732677  1
  O  O140  1  0.07683610  0.68860211  0.75863387  1
  O  O141  1  0.57678667  0.68967356  0.75761149  1
  O  O142  1  0.25944779  0.82716527  0.75979764  1
  O  O143  1  0.75736834  0.83564513  0.76458833  1
loop_
_geom_bond_atom_site_label_1
_geom_bond_atom_site_label_2
_geom_bond_distance
_geom_bond_site_symmetry_2
Na0 O72 2.493984 1_655
Na0 O85 2.531083 1_565
Na0 O75 2.652035 1_555
Na0 O89 2.675830 1_555
Na0 O76 2.698489 1_665
Na0 O86 2.729727 1_665
Na1 O90 2.435924 1_545
Na1 O79 2.535684 1_554
Na1 O92 2.640285 1_555
Na1 O95 2.647940 1_555
Na1 O82 2.712484 1_544
Na1 O81 2.728656 1_544
Na2 O112 2.551753 1_555
Na2 O110 2.567498 1_555
Na2 O108 2.663262 1_555
Na2 O96 2.676588 1_555
Na2 O98 2.714123 1_555
Na2 O100 2.718826 1_555
Na3 O97 2.570393 1_555
Na3 O109 2.578874 1_555
Na3 O111 2.587653 1_555
Na3 O101 2.672046 1_555
Na3 O113 2.673174 1_555
Na3 O99 2.698260 1_555
Na4 O102 2.564501 1_555
Na4 O118 2.612661 1_555
Na4 O114 2.630485 1_555
Na4 O104 2.639987 1_555
Na4 O106 2.691811 1_555
Na4 O116 2.711286 1_555
Na5 O117 2.607527 1_555
Na5 O107 2.610127 1_555
Na5 O119 2.631297 1_555
Na5 O103 2.670965 1_555
Na5 O115 2.704886 1_555
Na5 O105 2.711550 1_555
Mg0 O3 1.904430 1_555
Mg0 O72 1.982345 1_655
Mg0 O0 2.137206 1_665
Mg0 O75 2.164901 1_555
Mg0 O5 2.192598 1_565
Mg0 O76 2.220992 1_665
Mg1 O10 1.923027 1_555
Mg1 O79 1.969858 1_555
Mg1 O7 2.131528 1_555
Mg1 O82 2.159989 1_545
Mg1 O81 2.208588 1_545
Mg1 O8 2.214044 1_545
Mg2 O13 1.918952 1_545
Mg2 O85 1.968466 1_555
Mg2 O14 2.150478 1_655
Mg2 O89 2.153531 1_545
Mg2 O16 2.202091 1_645
Mg2 O86 2.207369 1_655
Mg3 O23 1.921944 1_555
Mg3 O18 1.939874 1_555
Mg3 O90 2.009568 1_555
Mg3 O21 2.212697 1_565
Mg3 O92 2.251674 1_565
Mg3 O95 2.269212 1_565
Nb0 O73 1.903233 1_555
Nb0 O1 1.944957 1_565
Nb0 O77 1.966598 1_565
Nb0 O2 1.983986 1_555
Nb0 O74 1.995909 1_555
Nb0 O4 2.280085 1_565
Nb1 O78 1.883900 1_655
Nb1 O83 1.886741 1_545
Nb1 O11 1.939749 1_555
Nb1 O80 1.954011 1_645
Nb1 O6 2.242006 1_655
Nb1 O9 2.244772 1_545
Nb2 O88 1.873601 1_555
Nb2 O84 1.890625 1_565
Nb2 O12 1.941449 1_555
Nb2 O87 1.942086 1_565
Nb2 O17 2.227832 1_555
Nb2 O15 2.274432 1_565
Nb3 O93 1.879708 1_565
Nb3 O91 1.898777 1_555
Nb3 O19 1.913821 1_555
Nb3 O94 1.963368 1_665
Nb3 O20 2.222011 1_665
Nb3 O22 2.271786 1_655
Nb4 O24 1.887986 1_555
Nb4 O28 1.924174 1_555
Nb4 O96 1.947206 1_555
Nb4 O100 2.083174 1_555
Nb4 O26 2.101526 1_555
Nb4 O98 2.158221 1_555
Nb5 O25 1.856037 1_555
Nb5 O27 1.860696 1_555
Nb5 O97 1.922937 1_555
Nb5 O29 2.190800 1_555
Nb5 O101 2.220671 1_555
Nb5 O99 2.229304 1_555
Nb6 O30 1.866609 1_555
Nb6 O34 1.881659 1_555
Nb6 O102 1.892659 1_555
Nb6 O104 2.156564 1_555
Nb6 O106 2.221769 1_555
Nb6 O32 2.236573 1_555
Nb7 O107 1.920126 1_555
Nb7 O103 1.935534 1_555
Nb7 O33 1.949720 1_555
Nb7 O31 1.992549 1_555
Nb7 O105 2.079009 1_555
Nb7 O35 2.161232 1_555
Nb8 O38 1.891824 1_556
Nb8 O36 1.957589 1_556
Nb8 O110 1.973996 1_555
Nb8 O112 2.025268 1_555
Nb8 O40 2.064698 1_556
Nb8 O108 2.151367 1_555
Nb9 O39 1.886642 1_556
Nb9 O41 1.908234 1_556
Nb9 O111 1.944206 1_555
Nb9 O109 2.000761 1_555
Nb9 O37 2.159079 1_556
Nb9 O113 2.221038 1_555
Nb10 O118 1.899948 1_555
Nb10 O46 1.910995 1_555
Nb10 O44 1.934837 1_555
Nb10 O114 1.965028 1_555
Nb10 O116 2.178346 1_555
Nb10 O42 2.216429 1_555
Nb11 O47 1.925236 1_555
Nb11 O119 1.961269 1_555
Nb11 O43 1.971078 1_555
Nb11 O117 1.977551 1_555
Nb11 O115 2.089712 1_555
Nb11 O45 2.113447 1_555
Nb12 O122 1.877985 1_555
Nb12 O50 1.928026 1_554
Nb12 O120 1.933550 1_555
Nb12 O52 1.974704 1_554
Nb12 O124 2.132460 1_555
Nb12 O48 2.234993 1_554
Nb13 O123 1.911518 1_555
Nb13 O51 1.922350 1_554
Nb13 O125 1.951963 1_555
Nb13 O49 2.003126 1_554
Nb13 O121 2.032702 1_555
Nb13 O53 2.204655 1_554
Nb14 O58 1.906176 1_555
Nb14 O130 1.929184 1_555
Nb14 O54 1.973408 1_555
Nb14 O128 1.974078 1_555
Nb14 O126 2.081963 1_555
Nb14 O56 2.170235 1_555
Nb15 O59 1.902398 1_555
Nb15 O131 1.912617 1_555
Nb15 O57 1.929968 1_555
Nb15 O127 1.958646 1_555
Nb15 O129 2.170651 1_555
Nb15 O55 2.201014 1_555
Nb16 O62 1.884332 1_555
Nb16 O134 1.911176 1_555
Nb16 O60 1.950045 1_555
Nb16 O132 2.039309 1_555
Nb16 O136 2.169942 1_555
Nb16 O64 2.192987 1_555
Nb17 O133 1.905590 1_555
Nb17 O135 1.912135 1_555
Nb17 O65 1.970278 1_555
Nb17 O61 2.015668 1_555
Nb17 O137 2.031628 1_555
Nb17 O63 2.231690 1_555
Nb18 O68 1.873375 1_555
Nb18 O142 1.906230 1_555
Nb18 O66 1.983003 1_555
Nb18 O140 2.039734 1_555
Nb18 O70 2.158782 1_555
Nb18 O138 2.159185 1_555
Nb19 O71 1.888718 1_555
Nb19 O143 1.928488 1_555
Nb19 O67 1.933676 1_555
Nb19 O139 2.051146 1_555
Nb19 O69 2.162330 1_555
Nb19 O141 2.178753 1_555
O0 S0 1.447554 1_555
O1 Si0 1.655361 1_545
O2 Si1 1.637758 1_555
O3 Si2 1.561231 1_555
O4 S2 1.477170 1_555
O5 S1 1.448369 1_655
O6 S3 1.490909 1_555
O7 S4 1.451917 1_555
O8 S6 1.448636 1_555
O9 S5 1.482556 1_555
O10 Si3 1.560774 1_555
O11 Si4 1.665939 1_545
O12 Si3 1.654397 1_565
O13 Si4 1.556466 1_555
O14 S3 1.438975 1_555
O15 S4 1.474894 1_555
O16 S5 1.438744 1_455
O17 S6 1.479815 1_555
O18 Si1 1.563761 1_555
O19 Si2 1.670152 1_555
O20 S1 1.485428 1_555
O21 S2 1.433984 1_555
O22 S0 1.475367 1_565
O23 Si0 1.562872 1_555
O24 Si5 1.644833 1_555
O25 Si6 1.704896 1_555
O26 S7 1.514145 1_555
O27 Si7 1.675463 1_555
O28 Si8 1.647579 1_555
O29 S8 1.503354 1_555
O30 Si9 1.690376 1_555
O31 Si10 1.597142 1_555
O32 S9 1.487101 1_555
O33 Si11 1.617941 1_555
O34 Si12 1.658758 1_555
O35 S10 1.485555 1_555
O36 Si12 1.631493 1_555
O37 S10 1.503807 1_555
O38 Si9 1.670168 1_555
O39 Si10 1.659208 1_555
O40 S9 1.521459 1_555
O41 Si11 1.650687 1_555
O42 S7 1.483467 1_555
O43 Si7 1.618628 1_555
O44 Si8 1.632962 1_555
O45 S8 1.502499 1_555
O46 Si5 1.631718 1_555
O47 Si6 1.650050 1_555
O48 S11 1.478985 1_555
O49 Si13 1.600786 1_555
O50 Si14 1.627689 1_555
O51 Si15 1.656370 1_555
O52 Si16 1.626284 1_555
O53 S12 1.482233 1_555
O54 Si17 1.623487 1_555
O55 S13 1.490149 1_555
O56 S14 1.490153 1_555
O57 Si18 1.653326 1_555
O58 Si19 1.666687 1_555
O59 Si20 1.642398 1_555
O60 Si19 1.666094 1_555
O61 Si20 1.597688 1_555
O62 Si17 1.667634 1_555
O63 S13 1.478131 1_555
O64 S14 1.494542 1_555
O65 Si18 1.629937 1_555
O66 Si14 1.620686 1_555
O67 Si15 1.679123 1_555
O68 Si16 1.677521 1_555
O69 S12 1.507073 1_555
O70 S11 1.507294 1_555
O71 Si13 1.657401 1_555
O72 Si19 1.580999 1_555
O73 Si20 1.610427 1_555
O74 Si17 1.598169 1_555
O75 S13 1.454328 1_555
O76 S14 1.453643 1_555
O77 Si18 1.613901 1_555
O78 Si14 1.629240 1_555
O79 Si15 1.580704 1_555
O80 Si16 1.622641 1_555
O81 S12 1.456427 1_555
O82 S11 1.452026 1_555
O83 Si13 1.639462 1_555
O84 Si5 1.616239 1_555
O85 Si6 1.573019 1_555
O86 S7 1.447411 1_555
O87 Si7 1.625401 1_555
O88 Si8 1.639680 1_555
O89 S8 1.453435 1_555
O90 Si9 1.567893 1_555
O91 Si10 1.619980 1_555
O92 S9 1.444457 1_555
O93 Si11 1.635594 1_555
O94 Si12 1.612507 1_555
O95 S10 1.442463 1_555
O96 Si3 1.682739 1_555
O97 Si4 1.708386 1_545
O98 S3 1.524712 1_555
O99 S4 1.504724 1_555
O100 S6 1.541946 1_555
O101 S5 1.507169 1_555
O102 Si1 1.727639 1_555
O103 Si2 1.661907 1_555
O104 S2 1.527766 1_555
O105 S1 1.522062 1_655
O106 S0 1.506199 1_555
O107 Si0 1.687259 1_545
O108 S11 1.512585 1_555
O109 Si13 1.631683 1_555
O110 Si15 1.666293 1_555
O111 Si14 1.646009 1_655
O112 Si16 1.620876 1_545
O113 S12 1.508845 1_545
O114 Si17 1.653163 1_545
O115 S13 1.524258 1_545
O116 S14 1.512979 1_555
O117 Si18 1.643999 1_555
O118 Si20 1.664895 1_555
O119 Si19 1.667038 1_655
O120 Si12 1.630334 1_555
O121 S10 1.507221 1_555
O122 Si10 1.631575 1_455
O123 Si9 1.641162 1_555
O124 S9 1.494492 1_565
O125 Si11 1.606130 1_565
O126 S7 1.494887 1_565
O127 Si7 1.616612 1_565
O128 Si8 1.598408 1_555
O129 S8 1.486208 1_555
O130 Si6 1.638216 1_455
O131 Si5 1.609468 1_555
O132 S0 1.520825 1_565
O133 Si0 1.652485 1_555
O134 Si1 1.669864 1_555
O135 Si2 1.648400 1_555
O136 S1 1.489069 1_555
O137 S2 1.508887 1_555
O138 S3 1.496719 1_555
O139 S4 1.520584 1_555
O140 S5 1.524153 1_455
O141 S6 1.485958 1_555
O142 Si3 1.673783 1_565
O143 Si4 1.659615 1_555
