# generated using pymatgen
data_LiSn2(PO4)3
_symmetry_space_group_name_H-M   'P 1'
_cell_length_a   8.80473200
_cell_length_b   8.61477200
_cell_length_c   14.92948044
_cell_angle_alpha   55.53335828
_cell_angle_beta   90.00000000
_cell_angle_gamma   90.00000000
_symmetry_Int_Tables_number   1
_chemical_formula_structural   LiSn2(PO4)3
_chemical_formula_sum   'Li4 Sn8 P12 O48'
_cell_volume   933.62400607
_cell_formula_units_Z   4
loop_
 _symmetry_equiv_pos_site_id
 _symmetry_equiv_pos_as_xyz
  1  'x, y, z'
loop_
 _atom_site_type_symbol
 _atom_site_label
 _atom_site_symmetry_multiplicity
 _atom_site_fract_x
 _atom_site_fract_y
 _atom_site_fract_z
 _atom_site_occupancy
  Li  Li0  1  0.09603200  0.22868900  0.69675200  1
  Li  Li1  1  0.59603200  0.77131100  0.80324800  1
  Li  Li2  1  0.40396800  0.22868900  0.19675200  1
  Li  Li3  1  0.90396800  0.77131100  0.30324800  1
  Sn  Sn0  1  0.53244100  0.15001900  0.60584300  1
  Sn  Sn1  1  0.46967600  0.64244300  0.11556300  1
  Sn  Sn2  1  0.03244100  0.84998100  0.89415700  1
  Sn  Sn3  1  0.96967600  0.35755700  0.38443700  1
  Sn  Sn4  1  0.03032400  0.64244300  0.61556300  1
  Sn  Sn5  1  0.96755900  0.15001900  0.10584300  1
  Sn  Sn6  1  0.53032400  0.35755700  0.88443700  1
  Sn  Sn7  1  0.46755900  0.84998100  0.39415700  1
  P  P0  1  0.24740600  0.46553700  0.49538700  1
  P  P1  1  0.11218700  0.74480400  0.14768900  1
  P  P2  1  0.38608800  0.03794700  0.84911800  1
  P  P3  1  0.88608800  0.96205300  0.65088200  1
  P  P4  1  0.61218700  0.25519600  0.35231100  1
  P  P5  1  0.74740600  0.53446300  0.00461300  1
  P  P6  1  0.25259400  0.46553700  0.99538700  1
  P  P7  1  0.38781300  0.74480400  0.64768900  1
  P  P8  1  0.11391200  0.03794700  0.34911800  1
  P  P9  1  0.61391200  0.96205300  0.15088200  1
  P  P10  1  0.88781300  0.25519600  0.85231100  1
  P  P11  1  0.75259400  0.53446300  0.50461300  1
  O  O0  1  0.87420400  0.51806300  0.43427600  1
  O  O1  1  0.57828500  0.76343700  0.18075700  1
  O  O2  1  0.88962300  0.04827300  0.88741300  1
  O  O3  1  0.68754300  0.34186200  0.59447100  1
  O  O4  1  0.36428000  0.32864100  0.58206800  1
  O  O5  1  0.00504000  0.63122800  0.24819700  1
  O  O6  1  0.21247600  0.04140500  0.82497200  1
  O  O7  1  0.41638700  0.88526400  0.96843300  1
  O  O8  1  0.27344300  0.66160600  0.18190400  1
  O  O9  1  0.17515300  0.36932200  0.44500200  1
  O  O10  1  0.05332500  0.72644000  0.05685300  1
  O  O11  1  0.48317700  0.99904900  0.77615200  1
  O  O12  1  0.98317700  0.00095100  0.72384800  1
  O  O13  1  0.55332500  0.27356000  0.44314700  1
  O  O14  1  0.67515300  0.63067800  0.05499800  1
  O  O15  1  0.77344300  0.33839400  0.31809600  1
  O  O16  1  0.91638700  0.11473600  0.53156700  1
  O  O17  1  0.71247600  0.95859500  0.67502800  1
  O  O18  1  0.50504000  0.36877200  0.25180300  1
  O  O19  1  0.86428000  0.67135900  0.91793200  1
  O  O20  1  0.18754300  0.65813800  0.90552900  1
  O  O21  1  0.38962300  0.95172700  0.61258700  1
  O  O22  1  0.07828500  0.23656300  0.31924300  1
  O  O23  1  0.37420400  0.48193700  0.06572400  1
  O  O24  1  0.62579600  0.51806300  0.93427600  1
  O  O25  1  0.92171500  0.76343700  0.68075700  1
  O  O26  1  0.61037700  0.04827300  0.38741300  1
  O  O27  1  0.81245700  0.34186200  0.09447100  1
  O  O28  1  0.13572000  0.32864100  0.08206800  1
  O  O29  1  0.49496000  0.63122800  0.74819700  1
  O  O30  1  0.28752400  0.04140500  0.32497200  1
  O  O31  1  0.08361300  0.88526400  0.46843300  1
  O  O32  1  0.22655700  0.66160600  0.68190400  1
  O  O33  1  0.32484700  0.36932200  0.94500200  1
  O  O34  1  0.44667500  0.72644000  0.55685300  1
  O  O35  1  0.01682300  0.99904900  0.27615200  1
  O  O36  1  0.51682300  0.00095100  0.22384800  1
  O  O37  1  0.94667500  0.27356000  0.94314700  1
  O  O38  1  0.82484700  0.63067800  0.55499800  1
  O  O39  1  0.72655700  0.33839400  0.81809600  1
  O  O40  1  0.58361300  0.11473600  0.03156700  1
  O  O41  1  0.78752400  0.95859500  0.17502800  1
  O  O42  1  0.99496000  0.36877200  0.75180300  1
  O  O43  1  0.63572000  0.67135900  0.41793200  1
  O  O44  1  0.31245700  0.65813800  0.40552900  1
  O  O45  1  0.11037700  0.95172700  0.11258700  1
  O  O46  1  0.42171500  0.23656300  0.81924300  1
  O  O47  1  0.12579600  0.48193700  0.56572400  1
loop_
_geom_bond_atom_site_label_1
_geom_bond_atom_site_label_2
_geom_bond_distance
_geom_bond_site_symmetry_2
Li0 O6 1.955229 1_555
Li0 O47 1.955648 1_555
Li0 O42 2.011559 1_455
Li0 O12 2.025290 1_455
Li1 O17 1.955229 1_555
Li1 O24 1.955648 1_555
Li1 O29 2.011559 1_555
Li1 O11 2.025290 1_555
Li2 O30 1.955229 1_555
Li2 O23 1.955648 1_555
Li2 O18 2.011559 1_555
Li2 O36 2.025290 1_555
Li3 O41 1.955229 1_555
Li3 O0 1.955648 1_555
Li3 O5 2.011559 1_655
Li3 O35 2.025290 1_655
O0 P11 1.561113 1_555
O0 Sn3 2.082469 1_555
O1 P9 1.536615 1_555
O1 Sn1 2.023992 1_555
O2 P10 1.547637 1_555
O2 Sn2 2.077208 1_645
O3 P11 1.536676 1_555
O3 Sn0 2.075464 1_555
O4 P0 1.548240 1_555
O4 Sn0 2.016894 1_555
O5 P1 1.561147 1_555
O5 Sn3 2.089203 1_455
O6 P2 1.566947 1_555
O6 Sn2 2.090728 1_545
O7 P2 1.523938 1_565
O7 Sn1 2.054303 1_556
O8 P1 1.541467 1_555
O8 Sn1 2.044139 1_555
O9 P0 1.537296 1_555
O9 Sn3 2.050532 1_455
O10 P1 1.541284 1_555
O10 Sn2 2.034805 1_554
O11 P2 1.562973 1_565
O11 Sn0 2.145154 1_565
O12 P3 1.562973 1_545
O12 Sn2 2.145154 1_645
O13 P4 1.541284 1_555
O13 Sn0 2.034805 1_555
O14 P5 1.537296 1_555
O14 Sn1 2.050532 1_555
O15 P4 1.541467 1_555
O15 Sn3 2.044139 1_555
O16 P3 1.523938 1_545
O16 Sn3 2.054303 1_555
O17 P3 1.566947 1_555
O17 Sn0 2.090728 1_565
O18 P4 1.561147 1_555
O18 Sn1 2.089203 1_555
O19 P5 1.548240 1_556
O19 Sn2 2.016894 1_655
O20 P6 1.536676 1_555
O20 Sn2 2.075464 1_555
O21 P7 1.547637 1_555
O21 Sn0 2.077208 1_565
O22 P8 1.536615 1_555
O22 Sn3 2.023992 1_455
O23 P6 1.561113 1_554
O23 Sn1 2.082469 1_555
O24 P5 1.561113 1_556
O24 Sn6 2.082469 1_555
O25 P3 1.536615 1_555
O25 Sn4 2.023992 1_655
O26 P4 1.547637 1_555
O26 Sn7 2.077208 1_545
O27 P5 1.536676 1_555
O27 Sn5 2.075464 1_555
O28 P6 1.548240 1_554
O28 Sn5 2.016894 1_455
O29 P7 1.561147 1_555
O29 Sn6 2.089203 1_555
O30 P8 1.566947 1_555
O30 Sn7 2.090728 1_545
O31 P8 1.523938 1_565
O31 Sn4 2.054303 1_555
O32 P7 1.541467 1_555
O32 Sn4 2.044139 1_555
O33 P6 1.537296 1_555
O33 Sn6 2.050532 1_555
O34 P7 1.541284 1_555
O34 Sn7 2.034805 1_555
O35 P8 1.562973 1_565
O35 Sn5 2.145154 1_465
O36 P9 1.562973 1_545
O36 Sn7 2.145154 1_545
O37 P10 1.541284 1_555
O37 Sn5 2.034805 1_556
O38 P11 1.537296 1_555
O38 Sn4 2.050532 1_655
O39 P10 1.541467 1_555
O39 Sn6 2.044139 1_555
O40 P9 1.523938 1_545
O40 Sn6 2.054303 1_554
O41 P9 1.566947 1_555
O41 Sn5 2.090728 1_565
O42 P10 1.561147 1_555
O42 Sn4 2.089203 1_655
O43 P11 1.548240 1_555
O43 Sn7 2.016894 1_555
O44 P0 1.536676 1_555
O44 Sn7 2.075464 1_555
O45 P1 1.547637 1_555
O45 Sn5 2.077208 1_465
O46 P2 1.536615 1_555
O46 Sn6 2.023992 1_555
O47 P0 1.561113 1_555
O47 Sn4 2.082469 1_555
