# generated using pymatgen
data_Te5(O2F11)2
_symmetry_space_group_name_H-M   'P 1'
_cell_length_a   12.57513677
_cell_length_b   12.57513677
_cell_length_c   12.57513677
_cell_angle_alpha   132.91858677
_cell_angle_beta   132.91858677
_cell_angle_gamma   68.78203134
_symmetry_Int_Tables_number   1
_chemical_formula_structural   Te5(O2F11)2
_chemical_formula_sum   'Te10 O8 F44'
_cell_volume   1047.06991078
_cell_formula_units_Z   2
loop_
 _symmetry_equiv_pos_site_id
 _symmetry_equiv_pos_as_xyz
  1  'x, y, z'
loop_
 _atom_site_type_symbol
 _atom_site_label
 _atom_site_symmetry_multiplicity
 _atom_site_fract_x
 _atom_site_fract_y
 _atom_site_fract_z
 _atom_site_occupancy
  Te  Te0  1  0.68371700  0.17742600  0.91839500  1
  Te  Te1  1  0.51532200  0.93371700  0.00629200  1
  Te  Te2  1  0.92742600  0.50903000  0.99370800  1
  Te  Te3  1  0.25903000  0.76532200  0.08160500  1
  Te  Te4  1  0.06628300  0.07257400  0.58160500  1
  Te  Te5  1  0.23467800  0.31628300  0.49370800  1
  Te  Te6  1  0.82257400  0.74097000  0.50629200  1
  Te  Te7  1  0.49097000  0.48467800  0.41839500  1
  Te  Te8  1  0.00000000  0.00000000  0.00000000  1
  Te  Te9  1  0.75000000  0.25000000  0.50000000  1
  O  O0  1  0.81720400  0.05784200  0.87206000  1
  O  O1  1  0.69514300  0.06720400  0.25936200  1
  O  O2  1  0.80784200  0.43578200  0.74063800  1
  O  O3  1  0.18578200  0.94514300  0.12794000  1
  O  O4  1  0.93279600  0.19215800  0.62794000  1
  O  O5  1  0.05485700  0.18279600  0.24063800  1
  O  O6  1  0.94215800  0.81421800  0.75936200  1
  O  O7  1  0.56421800  0.30485700  0.37206000  1
  F  F0  1  0.54738300  0.29027900  0.94764700  1
  F  F1  1  0.34973600  0.79738300  0.75710400  1
  F  F2  1  0.84062100  0.34062100  0.50000000  1
  F  F3  1  0.09062100  0.09062100  0.00000000  1
  F  F4  1  0.90937900  0.90937900  0.00000000  1
  F  F5  1  0.65937900  0.15937900  0.50000000  1
  F  F6  1  0.30225300  0.37173300  0.23392800  1
  F  F7  1  0.81832500  0.55225300  0.43052100  1
  F  F8  1  0.12173300  0.38780400  0.56947900  1
  F  F9  1  0.13780400  0.06832500  0.76607200  1
  F  F10  1  0.44774700  0.87826700  0.26607200  1
  F  F11  1  0.93167500  0.69774700  0.06947900  1
  F  F12  1  0.62826700  0.86219600  0.93052100  1
  F  F13  1  0.61219600  0.18167500  0.73392800  1
  F  F14  1  0.47826600  0.43893900  0.23380000  1
  F  F15  1  0.99446600  0.72826600  0.53932700  1
  F  F16  1  0.18893900  0.45513900  0.46067300  1
  F  F17  1  0.20513900  0.24446600  0.76620000  1
  F  F18  1  0.27173400  0.81106100  0.26620000  1
  F  F19  1  0.75553400  0.52173400  0.96067300  1
  F  F20  1  0.56106100  0.79486100  0.03932700  1
  F  F21  1  0.54486100  0.00553400  0.73380000  1
  F  F22  1  0.50190300  0.53386500  0.60386400  1
  F  F23  1  0.64803900  0.75190300  0.46803800  1
  F  F24  1  0.28386500  0.18000100  0.53196200  1
  F  F25  1  0.93000100  0.89803900  0.39613600  1
  F  F26  1  0.24809700  0.71613500  0.89613600  1
  F  F27  1  0.10196100  0.49809700  0.03196200  1
  F  F28  1  0.46613500  0.06999900  0.96803800  1
  F  F29  1  0.81999900  0.35196100  0.10386400  1
  F  F30  1  0.67899600  0.60010300  0.60363300  1
  F  F31  1  0.82536300  0.92899600  0.57889300  1
  F  F32  1  0.35010300  0.24647000  0.42110700  1
  F  F33  1  0.99647000  0.07536300  0.39636700  1
  F  F34  1  0.07100400  0.64989700  0.89636700  1
  F  F35  1  0.92463700  0.32100400  0.92110700  1
  F  F36  1  0.39989700  0.00353000  0.07889300  1
  F  F37  1  0.75353000  0.17463700  0.10363300  1
  F  F38  1  0.40736800  0.65026400  0.44764700  1
  F  F39  1  0.70972100  0.65736800  0.25710400  1
  F  F40  1  0.40026400  0.45261700  0.74289600  1
  F  F41  1  0.20261700  0.95972100  0.55235300  1
  F  F42  1  0.34263200  0.59973600  0.05235300  1
  F  F43  1  0.04027900  0.59263200  0.24289600  1
loop_
_geom_bond_atom_site_label_1
_geom_bond_atom_site_label_2
_geom_bond_distance
_geom_bond_site_symmetry_2
O0 Te0 1.931374 1_555
O0 Te8 1.936039 1_656
O1 Te1 1.931367 1_545
O1 Te9 1.936036 1_555
O2 Te2 1.931369 1_555
O2 Te9 1.936039 1_555
O3 Te3 1.931361 1_555
O3 Te8 1.936045 1_565
O4 Te4 1.931374 1_655
O4 Te9 1.936039 1_555
O5 Te5 1.931367 1_555
O5 Te8 1.936036 1_555
O6 Te6 1.931369 1_555
O6 Te8 1.936039 1_666
O7 Te7 1.931361 1_555
O7 Te9 1.936045 1_555
F0 Te0 1.864228 1_555
F1 Te1 1.864231 1_556
F2 Te9 1.880753 1_555
F3 Te8 1.880753 1_555
F4 Te8 1.880753 1_665
F5 Te9 1.880753 1_555
F6 Te7 1.866925 1_555
F7 Te6 1.866928 1_555
F8 Te5 1.866918 1_555
F9 Te4 1.866921 1_555
F10 Te3 1.866925 1_555
F11 Te2 1.866928 1_554
F12 Te1 1.866918 1_556
F13 Te0 1.866921 1_555
F14 Te7 1.867592 1_555
F15 Te6 1.867605 1_555
F16 Te5 1.867592 1_555
F17 Te4 1.867601 1_555
F18 Te3 1.867592 1_555
F19 Te2 1.867605 1_555
F20 Te1 1.867592 1_555
F21 Te0 1.867601 1_555
F22 Te7 1.871161 1_555
F23 Te6 1.871149 1_555
F24 Te5 1.871161 1_555
F25 Te4 1.871153 1_665
F26 Te3 1.871161 1_556
F27 Te2 1.871149 1_454
F28 Te1 1.871161 1_546
F29 Te0 1.871153 1_554
F30 Te7 1.871325 1_555
F31 Te6 1.871327 1_555
F32 Te5 1.871325 1_555
F33 Te4 1.871334 1_655
F34 Te3 1.871325 1_556
F35 Te2 1.871327 1_555
F36 Te1 1.871325 1_545
F37 Te0 1.871334 1_554
F38 Te7 1.864231 1_555
F39 Te6 1.864233 1_555
F40 Te5 1.864231 1_555
F41 Te4 1.864228 1_565
F42 Te3 1.864231 1_555
F43 Te2 1.864233 1_454
