# generated using pymatgen
data_Na4ScAlSi2SO12
_symmetry_space_group_name_H-M   'P 1'
_cell_length_a   8.98347304
_cell_length_b   8.96911075
_cell_length_c   21.98543639
_cell_angle_alpha   89.67982933
_cell_angle_beta   90.17084592
_cell_angle_gamma   119.50411374
_symmetry_Int_Tables_number   1
_chemical_formula_structural   Na4ScAlSi2SO12
_chemical_formula_sum   'Na24 Sc6 Al6 Si12 S6 O72'
_cell_volume   1541.70429677
_cell_formula_units_Z   6
loop_
 _symmetry_equiv_pos_site_id
 _symmetry_equiv_pos_as_xyz
  1  'x, y, z'
loop_
 _atom_site_type_symbol
 _atom_site_label
 _atom_site_symmetry_multiplicity
 _atom_site_fract_x
 _atom_site_fract_y
 _atom_site_fract_z
 _atom_site_occupancy
  Na  Na0  1  0.64487540  0.99862546  0.25401556  1
  Na  Na1  1  0.36234335  0.37317202  0.24371032  1
  Na  Na2  1  0.99460225  0.62589529  0.25424254  1
  Na  Na3  1  0.62413405  0.63230187  0.74005894  1
  Na  Na4  1  0.00036321  0.35302622  0.75338849  1
  Na  Na5  1  0.37986542  0.00981967  0.75223082  1
  Na  Na6  1  0.31105164  0.33374471  0.58828433  1
  Na  Na7  1  0.03786242  0.71257885  0.57643841  1
  Na  Na8  1  0.65982509  0.95249812  0.58784252  1
  Na  Na9  1  0.28808203  0.96651652  0.07607602  1
  Na  Na10  1  0.67073049  0.68818650  0.08888162  1
  Na  Na11  1  0.04727427  0.34109316  0.08782858  1
  Na  Na12  1  0.98313211  0.66515550  0.92198737  1
  Na  Na13  1  0.69792829  0.04348749  0.90791205  1
  Na  Na14  1  0.32247138  0.28718071  0.92052890  1
  Na  Na15  1  0.95854044  0.30153924  0.41006245  1
  Na  Na16  1  0.33160660  0.01984835  0.42099489  1
  Na  Na17  1  0.70806226  0.67316994  0.42114717  1
  Na  Na18  1  0.99237395  0.98039558  0.49987632  1
  Na  Na19  1  0.02241641  0.00844364  0.00070344  1
  Na  Na20  1  0.65926763  0.31193229  0.83145902  1
  Na  Na21  1  0.68232800  0.33967260  0.33418730  1
  Na  Na22  1  0.32508366  0.64690501  0.16948179  1
  Na  Na23  1  0.35357247  0.67479521  0.66556992  1
  Sc  Sc0  1  0.01044169  0.01865124  0.84833693  1
  Sc  Sc1  1  0.99721715  0.00321601  0.15276614  1
  Sc  Sc2  1  0.66439844  0.33465582  0.98291228  1
  Sc  Sc3  1  0.31683256  0.65426165  0.02078932  1
  Sc  Sc4  1  0.34544958  0.68625869  0.51808962  1
  Sc  Sc5  1  0.33257358  0.66941819  0.81205797  1
  Al  Al0  1  0.96242142  0.97799866  0.35068953  1
  Al  Al1  1  0.99937586  0.99773016  0.64654873  1
  Al  Al2  1  0.63767700  0.31331582  0.68385196  1
  Al  Al3  1  0.68776366  0.36788931  0.18839601  1
  Al  Al4  1  0.66766647  0.33591372  0.48259836  1
  Al  Al5  1  0.32834005  0.66743880  0.31725274  1
  Si  Si0  1  0.69284353  0.70087195  0.25237162  1
  Si  Si1  1  0.00001103  0.29755588  0.25333164  1
  Si  Si2  1  0.29484252  0.29105026  0.74404345  1
  Si  Si3  1  0.71219412  0.00982965  0.74314190  1
  Si  Si4  1  0.37318859  0.04914048  0.58282413  1
  Si  Si5  1  0.67385757  0.61783846  0.58507238  1
  Si  Si6  1  0.95992957  0.62976319  0.08557246  1
  Si  Si7  1  0.37981669  0.33217773  0.08826898  1
  Si  Si8  1  0.03317757  0.36771835  0.91551149  1
  Si  Si9  1  0.33241227  0.96308261  0.91623428  1
  Si  Si10  1  0.62754010  0.96657173  0.41469623  1
  Si  Si11  1  0.03675291  0.67016575  0.41424872  1
  S  S0  1  0.29480031  0.99843869  0.25294973  1
  S  S1  1  0.99563553  0.70764184  0.74660615  1
  S  S2  1  0.94985324  0.32883658  0.58333374  1
  S  S3  1  0.66684818  0.04399456  0.08648374  1
  S  S4  1  0.62831392  0.66809542  0.91644237  1
  S  S5  1  0.33294562  0.37305564  0.41535477  1
  O  O0  1  0.21161696  0.02774269  0.30564783  1
  O  O1  1  0.82601825  0.79062424  0.30863844  1
  O  O2  1  0.97061168  0.16363859  0.30978672  1
  O  O3  1  0.22245932  0.17822114  0.80687723  1
  O  O4  1  0.96738795  0.78030825  0.80288965  1
  O  O5  1  0.81900347  0.03938779  0.80685904  1
  O  O6  1  0.81089011  0.97518550  0.68728665  1
  O  O7  1  0.16405280  0.18925357  0.68807118  1
  O  O8  1  0.02072093  0.81832710  0.69346653  1
  O  O9  1  0.77112670  0.82020230  0.19144025  1
  O  O10  1  0.04408257  0.22417741  0.19209036  1
  O  O11  1  0.19045949  0.96998363  0.19697137  1
  O  O12  1  0.87250324  0.35757059  0.63795818  1
  O  O13  1  0.49537881  0.13013697  0.64202524  1
  O  O14  1  0.65281728  0.49803795  0.64442643  1
  O  O15  1  0.86859662  0.50454640  0.14402992  1
  O  O16  1  0.64314612  0.12659501  0.14019377  1
  O  O17  1  0.50323078  0.34831302  0.14622224  1
  O  O18  1  0.45397330  0.29882405  0.02498705  1
  O  O19  1  0.84854104  0.54787942  0.02369065  1
  O  O20  1  0.69031547  0.14373591  0.02967952  1
  O  O21  1  0.46709664  0.17149840  0.52299722  1
  O  O22  1  0.70370929  0.53015598  0.52384594  1
  O  O23  1  0.84482750  0.30605167  0.52772037  1
  O  O24  1  0.55119494  0.69377925  0.97157512  1
  O  O25  1  0.15405897  0.45095123  0.97573770  1
  O  O26  1  0.31309552  0.84995195  0.97748859  1
  O  O27  1  0.55572920  0.84492963  0.47555579  1
  O  O28  1  0.30128586  0.44666229  0.47099110  1
  O  O29  1  0.15386831  0.70606327  0.47568395  1
  O  O30  1  0.13375578  0.63486675  0.35759680  1
  O  O31  1  0.49696392  0.86907482  0.35763125  1
  O  O32  1  0.35895259  0.48534500  0.36192425  1
  O  O33  1  0.12452993  0.48685721  0.85557723  1
  O  O34  1  0.36596642  0.87691051  0.85595921  1
  O  O35  1  0.52298446  0.64472412  0.86161598  1
  O  O36  1  0.02249260  0.84781251  0.40468746  1
  O  O37  1  0.82130425  0.98941385  0.40811705  1
  O  O38  1  0.18351711  0.19878965  0.40813947  1
  O  O39  1  0.00846713  0.17432664  0.91445059  1
  O  O40  1  0.15220208  0.96719452  0.91330681  1
  O  O41  1  0.80126114  0.81795452  0.91036009  1
  O  O42  1  0.96564690  0.17086177  0.58659164  1
  O  O43  1  0.17923819  0.02846438  0.58972065  1
  O  O44  1  0.84353353  0.81372789  0.59097943  1
  O  O45  1  0.97772976  0.81999931  0.08989845  1
  O  O46  1  0.82430540  0.02810675  0.08929927  1
  O  O47  1  0.18499700  0.16743464  0.09087630  1
  O  O48  1  0.69982697  0.18837062  0.73677084  1
  O  O49  1  0.48990403  0.31666418  0.74096475  1
  O  O50  1  0.84622438  0.53214226  0.74110923  1
  O  O51  1  0.67683069  0.50918180  0.24684718  1
  O  O52  1  0.81956879  0.30770104  0.24508311  1
  O  O53  1  0.46901887  0.14932926  0.24688115  1
  O  O54  1  0.64277747  0.51008294  0.91967832  1
  O  O55  1  0.84512269  0.35331449  0.91889386  1
  O  O56  1  0.49868360  0.15603339  0.91799717  1
  O  O57  1  0.64506257  0.15846271  0.42440811  1
  O  O58  1  0.49241707  0.36017134  0.41992242  1
  O  O59  1  0.84449122  0.49703741  0.42189359  1
  O  O60  1  0.37401007  0.51301233  0.08622523  1
  O  O61  1  0.15238684  0.65027692  0.08525610  1
  O  O62  1  0.51595304  0.86991840  0.08154542  1
  O  O63  1  0.34828377  0.85351180  0.58054375  1
  O  O64  1  0.49650160  0.63197400  0.58190356  1
  O  O65  1  0.12496500  0.47982933  0.57769450  1
  O  O66  1  0.31021780  0.83977136  0.25763055  1
  O  O67  1  0.50197580  0.68074491  0.26306759  1
  O  O68  1  0.16829938  0.49009812  0.26211433  1
  O  O69  1  0.31122294  0.48196751  0.74782066  1
  O  O70  1  0.15395299  0.69319751  0.74962587  1
  O  O71  1  0.51974157  0.84004555  0.74687064  1
loop_
_geom_bond_atom_site_label_1
_geom_bond_atom_site_label_2
_geom_bond_distance
_geom_bond_site_symmetry_2
Na0 O52 2.428340 1_565
Na0 O67 2.491286 1_555
Na0 O53 2.539067 1_565
Na0 O31 2.602480 1_555
Na0 O66 2.618353 1_555
Na0 O9 2.749842 1_555
Na0 O16 2.750449 1_565
Na0 O2 2.826638 1_565
Na1 O67 2.442601 1_555
Na1 O51 2.465711 1_555
Na1 O68 2.472214 1_555
Na1 O17 2.558298 1_555
Na1 O53 2.616692 1_555
Na1 O10 2.735408 1_555
Na1 O32 2.797812 1_555
Na2 O68 2.411700 1_655
Na2 O52 2.498464 1_555
Na2 O51 2.515399 1_555
Na2 O66 2.523397 1_655
Na2 O30 2.572645 1_655
Na2 O15 2.671486 1_555
Na2 O1 2.853291 1_555
Na2 O11 2.971017 1_655
Na3 O69 2.452763 1_555
Na3 O71 2.469574 1_555
Na3 O49 2.471040 1_555
Na3 O14 2.504860 1_555
Na3 O50 2.559888 1_555
Na3 O35 2.845665 1_555
Na3 O6 2.916913 1_555
Na3 O4 3.023606 1_555
Na4 O48 2.382556 1_455
Na4 O69 2.443450 1_555
Na4 O33 2.535536 1_555
Na4 O50 2.599076 1_455
Na4 O70 2.659100 1_555
Na4 O5 2.722110 1_455
Na4 O12 2.790866 1_455
Na4 O7 2.923342 1_555
Na5 O71 2.408132 1_545
Na5 O49 2.434521 1_555
Na5 O48 2.531386 1_555
Na5 O34 2.542064 1_545
Na5 O70 2.551670 1_545
Na5 O13 2.644746 1_555
Na5 O3 2.803289 1_555
Na6 O64 2.357525 1_555
Na6 O43 2.388731 1_555
Na6 O7 2.556604 1_555
Na6 O65 2.591767 1_555
Na6 O42 2.701625 1_455
Na6 O28 2.782138 1_555
Na6 O21 2.861406 1_555
Na6 O14 2.943266 1_555
Na7 O44 2.353598 1_455
Na7 O63 2.431120 1_555
Na7 O29 2.464035 1_555
Na7 O43 2.487606 1_565
Na7 O65 2.564974 1_555
Na7 O8 2.777893 1_555
Na7 O22 2.861443 1_455
Na8 O42 2.466666 1_565
Na8 O63 2.489642 1_555
Na8 O64 2.506552 1_555
Na8 O44 2.509801 1_555
Na8 O6 2.525546 1_555
Na8 O27 2.650255 1_555
Na8 O13 2.913758 1_565
Na9 O47 2.421356 1_565
Na9 O45 2.446275 1_455
Na9 O26 2.470051 1_554
Na9 O61 2.482188 1_555
Na9 O62 2.588419 1_555
Na9 O11 2.806491 1_555
Na9 O18 2.821963 1_565
Na10 O60 2.335006 1_555
Na10 O45 2.406806 1_555
Na10 O9 2.503077 1_555
Na10 O62 2.616141 1_555
Na10 O46 2.656274 1_565
Na10 O24 2.800388 1_554
Na10 O19 2.864117 1_555
Na10 O17 2.931948 1_555
Na11 O47 2.420261 1_555
Na11 O61 2.450367 1_555
Na11 O10 2.509727 1_555
Na11 O46 2.520824 1_455
Na11 O60 2.556647 1_555
Na11 O25 2.649561 1_554
Na12 O40 2.371773 1_655
Na12 O55 2.439401 1_555
Na12 O19 2.511002 1_556
Na12 O41 2.609984 1_555
Na12 O54 2.664002 1_555
Na12 O4 2.838004 1_555
Na12 O26 2.860854 1_655
Na12 O33 2.888013 1_655
Na13 O55 2.432121 1_555
Na13 O39 2.440337 1_655
Na13 O56 2.460979 1_555
Na13 O5 2.484962 1_555
Na13 O41 2.608542 1_545
Na13 O34 2.835554 1_545
Na13 O20 2.840530 1_556
Na14 O56 2.393307 1_555
Na14 O39 2.487268 1_555
Na14 O40 2.506276 1_545
Na14 O18 2.558446 1_556
Na14 O54 2.571129 1_555
Na14 O3 2.674837 1_555
Na14 O25 2.853002 1_555
Na15 O37 2.441397 1_545
Na15 O59 2.442978 1_555
Na15 O57 2.473465 1_555
Na15 O2 2.562390 1_555
Na15 O38 2.602179 1_655
Na15 O23 2.791802 1_555
Na15 O30 2.843116 1_655
Na15 O28 3.002744 1_655
Na16 O36 2.449595 1_545
Na16 O57 2.456058 1_555
Na16 O38 2.553690 1_555
Na16 O21 2.597652 1_555
Na16 O58 2.657199 1_555
Na16 O29 2.731900 1_545
Na16 O0 2.766744 1_555
Na16 O31 2.826320 1_545
Na17 O59 2.429947 1_555
Na17 O36 2.490991 1_655
Na17 O58 2.505689 1_555
Na17 O37 2.512529 1_555
Na17 O22 2.581401 1_555
Na17 O1 2.690371 1_555
Na17 O27 2.789933 1_555
Na18 O44 2.459267 1_555
Na18 O43 2.486450 1_665
Na18 O36 2.493005 1_655
Na18 O37 2.557380 1_555
Na18 O42 2.655891 1_565
Na18 O38 2.741669 1_665
Na19 O40 2.373693 1_544
Na19 O39 2.444584 1_554
Na19 O47 2.461671 1_555
Na19 O45 2.482476 1_445
Na19 O46 2.706693 1_455
Na19 O41 2.735386 1_444
Na20 O56 2.378209 1_555
Na20 O55 2.449298 1_555
Na20 O48 2.474414 1_555
Na20 O49 2.513886 1_555
Na20 O54 2.691075 1_555
Na20 O50 2.715909 1_555
Na21 O52 2.410153 1_555
Na21 O59 2.412666 1_555
Na21 O51 2.458020 1_555
Na21 O57 2.473883 1_555
Na21 O58 2.613310 1_555
Na21 O53 2.657696 1_555
Na22 O60 2.352676 1_555
Na22 O61 2.421818 1_555
Na22 O68 2.478582 1_555
Na22 O67 2.522538 1_555
Na22 O66 2.651893 1_555
Na22 O62 2.697610 1_555
Na23 O71 2.335484 1_555
Na23 O64 2.384832 1_555
Na23 O69 2.393107 1_555
Na23 O63 2.471246 1_555
Na23 O70 2.640629 1_555
Na23 O65 2.735849 1_555
Al0 O1 1.778436 1_555
Al0 O37 1.830442 1_555
Al0 O2 1.857255 1_565
Al0 O36 1.914509 1_655
Al0 O0 2.283789 1_665
Al0 O38 2.366590 1_665
Al1 O6 1.838466 1_555
Al1 O7 1.865242 1_665
Al1 O43 1.953769 1_665
Al1 O44 1.978077 1_555
Al1 O8 1.993519 1_655
Al1 O42 2.163077 1_565
Al2 O13 1.766422 1_555
Al2 O14 1.810381 1_555
Al2 O49 1.841055 1_555
Al2 O48 1.875903 1_555
Al2 O12 2.193013 1_555
Al2 O50 2.310507 1_555
Al3 O15 1.768511 1_555
Al3 O17 1.828831 1_555
Al3 O51 1.846234 1_555
Al3 O52 1.964677 1_555
Al3 O16 2.266306 1_555
Al3 O53 2.355905 1_555
Al4 O22 1.850050 1_555
Al4 O21 1.894150 1_555
Al4 O57 1.978367 1_555
Al4 O23 1.999067 1_555
Al4 O59 2.030505 1_555
Al4 O58 2.178479 1_555
Al5 O30 1.852319 1_555
Al5 O31 1.914412 1_555
Al5 O67 1.921632 1_555
Al5 O68 1.955823 1_555
Al5 O32 2.032353 1_555
Al5 O66 2.087531 1_555
O0 S0 1.473721 1_545
O1 Si0 1.631968 1_555
O2 Si1 1.651008 1_655
O3 Si2 1.642209 1_555
O3 Sc0 1.953891 1_555
O4 S1 1.481273 1_555
O4 Sc0 2.219233 1_665
O5 Si3 1.642838 1_555
O5 Sc0 2.031654 1_655
O6 Si3 1.634863 1_565
O7 Si2 1.635765 1_555
O8 S1 1.472923 1_455
O9 Si0 1.637937 1_555
O9 Sc1 2.062403 1_565
O10 Si1 1.634768 1_555
O10 Sc1 2.011839 1_455
O11 S0 1.489762 1_555
O11 Sc1 2.131523 1_465
O12 S2 1.475247 1_555
O13 Si4 1.625835 1_555
O14 Si5 1.636725 1_555
O15 Si6 1.633651 1_555
O16 S3 1.468071 1_555
O17 Si7 1.645944 1_555
O18 Si7 1.635674 1_555
O18 Sc2 1.985221 1_554
O19 Si6 1.634269 1_555
O19 Sc2 2.022844 1_554
O20 S3 1.485842 1_555
O20 Sc2 2.101247 1_554
O21 Si4 1.650671 1_555
O22 Si5 1.650475 1_555
O23 S2 1.494290 1_555
O24 S4 1.472272 1_555
O24 Sc3 2.236802 1_556
O25 Si8 1.641271 1_555
O25 Sc3 1.956946 1_556
O26 Si9 1.638899 1_555
O26 Sc3 2.006786 1_556
O27 Si10 1.640849 1_555
O27 Sc4 1.953446 1_555
O28 S5 1.486262 1_555
O28 Sc4 2.242839 1_555
O29 Si11 1.642454 1_555
O29 Sc4 2.037771 1_555
O30 Si11 1.641205 1_555
O31 Si10 1.645547 1_555
O32 S5 1.485080 1_555
O33 Si8 1.636633 1_555
O33 Sc5 2.017040 1_555
O34 Si9 1.639391 1_555
O34 Sc5 1.988326 1_555
O35 S4 1.480838 1_555
O35 Sc5 2.126387 1_555
O36 Si11 1.672261 1_555
O37 Si10 1.656127 1_555
O38 S5 1.484937 1_555
O39 Si8 1.636965 1_555
O39 Sc0 2.027286 1_555
O40 Si9 1.638458 1_555
O40 Sc0 2.106135 1_565
O41 S4 1.476719 1_555
O41 Sc0 2.299347 1_665
O42 S2 1.493206 1_555
O43 Si4 1.666182 1_555
O44 Si5 1.670541 1_555
O45 Si6 1.636729 1_555
O45 Sc1 2.093332 1_565
O46 S3 1.490940 1_555
O46 Sc1 2.175979 1_555
O47 Si7 1.643812 1_555
O47 Sc1 2.100124 1_455
O48 Si3 1.664011 1_555
O49 Si2 1.652886 1_555
O50 S1 1.487965 1_555
O51 Si0 1.658321 1_555
O52 Si1 1.676946 1_655
O53 S0 1.487215 1_545
O54 S4 1.486837 1_555
O54 Sc2 2.172805 1_555
O55 Si8 1.631538 1_655
O55 Sc2 2.094807 1_555
O56 Si9 1.637638 1_545
O56 Sc2 2.117418 1_555
O57 Si10 1.664206 1_545
O58 S5 1.495955 1_555
O59 Si11 1.667257 1_655
O60 Si7 1.648602 1_555
O60 Sc3 2.134171 1_555
O61 Si6 1.646161 1_455
O61 Sc3 2.037748 1_555
O62 S3 1.484383 1_565
O62 Sc3 2.309108 1_555
O63 Si4 1.656954 1_565
O63 Sc4 2.030154 1_555
O64 Si5 1.660617 1_555
O64 Sc4 2.162995 1_555
O65 S2 1.491638 1_455
O65 Sc4 2.333388 1_555
O66 S0 1.499140 1_555
O67 Si0 1.650751 1_555
O68 Si1 1.653959 1_555
O69 Si2 1.647436 1_555
O69 Sc5 2.136654 1_555
O70 S1 1.491572 1_455
O70 Sc5 2.196598 1_555
O71 Si3 1.649540 1_565
O71 Sc5 2.162990 1_555
