# generated using pymatgen
data_CaTi4(FeO4)3
_symmetry_space_group_name_H-M   'P 1'
_cell_length_a   7.54909617
_cell_length_b   7.54909573
_cell_length_c   7.54909515
_cell_angle_alpha   89.99998762
_cell_angle_beta   90.00000359
_cell_angle_gamma   89.99999921
_symmetry_Int_Tables_number   1
_chemical_formula_structural   CaTi4(FeO4)3
_chemical_formula_sum   'Ca2 Ti8 Fe6 O24'
_cell_volume   430.21424826
_cell_formula_units_Z   2
loop_
 _symmetry_equiv_pos_site_id
 _symmetry_equiv_pos_as_xyz
  1  'x, y, z'
loop_
 _atom_site_type_symbol
 _atom_site_label
 _atom_site_symmetry_multiplicity
 _atom_site_fract_x
 _atom_site_fract_y
 _atom_site_fract_z
 _atom_site_occupancy
  Ca  Ca0  1  0.00000000  0.00000000  0.00000000  1
  Ca  Ca1  1  0.50000000  0.50000000  0.50000000  1
  Ti  Ti0  1  0.25000100  0.25000100  0.25000100  1
  Ti  Ti1  1  0.75000100  0.75000100  0.75000100  1
  Ti  Ti2  1  0.75000000  0.25000000  0.75000000  1
  Ti  Ti3  1  0.25000000  0.75000000  0.25000000  1
  Ti  Ti4  1  0.25000000  0.25000000  0.75000000  1
  Ti  Ti5  1  0.75000000  0.75000000  0.25000000  1
  Ti  Ti6  1  0.25000000  0.75000000  0.75000000  1
  Ti  Ti7  1  0.75000000  0.25000000  0.25000000  1
  Fe  Fe0  1  0.50000000  0.50000000  0.00000000  1
  Fe  Fe1  1  0.50000000  0.00000000  0.50000000  1
  Fe  Fe2  1  0.00000000  0.50000000  0.50000000  1
  Fe  Fe3  1  0.00000000  0.00000000  0.50000000  1
  Fe  Fe4  1  0.00000000  0.50000000  0.00000000  1
  Fe  Fe5  1  0.50000000  0.00000000  0.00000000  1
  O  O0  1  0.20199800  0.50000000  0.68880100  1
  O  O1  1  0.70199800  0.00000000  0.18880100  1
  O  O2  1  0.79800200  0.50000000  0.68880100  1
  O  O3  1  0.29800200  0.00000000  0.18880100  1
  O  O4  1  0.70199800  0.00000100  0.81119800  1
  O  O5  1  0.20199800  0.50000100  0.31119800  1
  O  O6  1  0.18880200  0.29800100  0.00000100  1
  O  O7  1  0.68880200  0.79800100  0.50000100  1
  O  O8  1  0.00000000  0.18880200  0.70199800  1
  O  O9  1  0.50000000  0.68880200  0.20199800  1
  O  O10  1  0.50000000  0.31119800  0.79800100  1
  O  O11  1  0.00000000  0.81119800  0.29800100  1
  O  O12  1  0.31119900  0.79800100  0.50000100  1
  O  O13  1  0.81119900  0.29800100  0.00000100  1
  O  O14  1  0.99999900  0.18880200  0.29800200  1
  O  O15  1  0.50000000  0.68880200  0.79800200  1
  O  O16  1  0.29800200  0.00000000  0.81119800  1
  O  O17  1  0.79800200  0.50000000  0.31119800  1
  O  O18  1  0.18880200  0.70199900  0.00000100  1
  O  O19  1  0.68880200  0.20199900  0.50000100  1
  O  O20  1  0.31119900  0.20199900  0.50000000  1
  O  O21  1  0.81119900  0.70199900  0.00000000  1
  O  O22  1  0.50000100  0.31119900  0.20199900  1
  O  O23  1  0.00000100  0.81119900  0.70199900  1
loop_
_geom_bond_atom_site_label_1
_geom_bond_atom_site_label_2
_geom_bond_distance
_geom_bond_site_symmetry_2
Ca0 O13 2.663135 1_455
Ca0 O21 2.663135 1_445
Ca0 O23 2.663135 1_544
Ca0 O11 2.663138 1_545
Ca0 O18 2.663139 1_545
Ca0 O6 2.663139 1_555
Ca0 O3 2.663141 1_555
Ca0 O1 2.663141 1_455
Ca0 O8 2.663145 1_554
Ca0 O4 2.663145 1_454
Ca0 O14 2.663145 1_455
Ca0 O16 2.663145 1_554
Ca1 O12 2.663135 1_555
Ca1 O20 2.663135 1_555
Ca1 O22 2.663135 1_555
Ca1 O10 2.663138 1_555
Ca1 O19 2.663139 1_555
Ca1 O7 2.663139 1_555
Ca1 O2 2.663141 1_555
Ca1 O0 2.663141 1_555
Ca1 O9 2.663145 1_555
Ca1 O5 2.663145 1_555
Ca1 O15 2.663145 1_555
Ca1 O17 2.663145 1_555
Fe0 O15 2.087286 1_554
Fe0 O22 2.087286 1_555
Fe0 O9 2.087286 1_555
Fe0 O10 2.087292 1_554
Fe1 O20 2.087286 1_555
Fe1 O12 2.087286 1_545
Fe1 O7 2.087291 1_545
Fe1 O19 2.087291 1_555
Fe2 O0 2.087281 1_555
Fe2 O2 2.087281 1_455
Fe2 O17 2.087286 1_455
Fe2 O5 2.087286 1_555
Fe3 O14 2.087286 1_455
Fe3 O23 2.087286 1_545
Fe3 O8 2.087286 1_555
Fe3 O11 2.087292 1_545
Fe4 O21 2.087286 1_455
Fe4 O13 2.087286 1_455
Fe4 O6 2.087291 1_555
Fe4 O18 2.087291 1_555
Fe5 O1 2.087281 1_555
Fe5 O3 2.087281 1_555
Fe5 O16 2.087286 1_554
Fe5 O4 2.087286 1_554
O0 Ti4 1.976501 1_555
O0 Ti6 1.976501 1_555
O1 Ti5 1.976501 1_545
O1 Ti7 1.976501 1_555
O2 Ti2 1.976501 1_555
O2 Ti1 1.976509 1_555
O3 Ti3 1.976501 1_545
O3 Ti0 1.976509 1_555
O4 Ti2 1.976492 1_555
O4 Ti1 1.976499 1_545
O5 Ti3 1.976492 1_555
O5 Ti0 1.976499 1_555
O6 Ti0 1.976498 1_555
O6 Ti4 1.976505 1_554
O7 Ti1 1.976498 1_555
O7 Ti5 1.976505 1_555
O8 Ti4 1.976500 1_555
O8 Ti2 1.976500 1_455
O9 Ti5 1.976500 1_555
O9 Ti3 1.976500 1_555
O10 Ti4 1.976498 1_555
O10 Ti2 1.976498 1_555
O11 Ti5 1.976498 1_455
O11 Ti3 1.976498 1_555
O12 Ti6 1.976493 1_555
O12 Ti3 1.976507 1_555
O13 Ti7 1.976493 1_555
O13 Ti2 1.976507 1_554
O14 Ti7 1.976492 1_555
O14 Ti0 1.976514 1_655
O15 Ti6 1.976500 1_555
O15 Ti1 1.976507 1_555
O16 Ti4 1.976499 1_555
O16 Ti6 1.976500 1_545
O17 Ti5 1.976499 1_555
O17 Ti7 1.976500 1_555
O18 Ti3 1.976491 1_555
O18 Ti6 1.976505 1_554
O19 Ti2 1.976491 1_555
O19 Ti7 1.976505 1_555
O20 Ti0 1.976492 1_555
O20 Ti4 1.976500 1_555
O21 Ti1 1.976492 1_554
O21 Ti5 1.976500 1_555
O22 Ti7 1.976493 1_555
O22 Ti0 1.976500 1_555
O23 Ti6 1.976493 1_555
O23 Ti1 1.976500 1_455
