# generated using pymatgen
data_Na4MgTi3O8
_symmetry_space_group_name_H-M   'P 1'
_cell_length_a   6.30698865
_cell_length_b   6.17390995
_cell_length_c   6.11138995
_cell_angle_alpha   60.33441618
_cell_angle_beta   118.97930162
_cell_angle_gamma   90.01035880
_symmetry_Int_Tables_number   1
_chemical_formula_structural   Na4MgTi3O8
_chemical_formula_sum   'Na4 Mg1 Ti3 O8'
_cell_volume   171.66702040
_cell_formula_units_Z   1
loop_
 _symmetry_equiv_pos_site_id
 _symmetry_equiv_pos_as_xyz
  1  'x, y, z'
loop_
 _atom_site_type_symbol
 _atom_site_label
 _atom_site_symmetry_multiplicity
 _atom_site_fract_x
 _atom_site_fract_y
 _atom_site_fract_z
 _atom_site_occupancy
  Na  Na0  1  0.12500000  0.62500000  0.75000000  1
  Na  Na1  1  0.12500000  0.12500000  0.25000000  1
  Na  Na2  1  0.12500000  0.12500000  0.75000000  1
  Na  Na3  1  0.62500000  0.12500000  0.75000000  1
  Mg  Mg0  1  0.12500000  0.62500000  0.25000000  1
  Ti  Ti0  1  0.62500000  0.62500000  0.75000000  1
  Ti  Ti1  1  0.62500000  0.62500000  0.25000000  1
  Ti  Ti2  1  0.62500000  0.12500000  0.25000000  1
  O  O0  1  0.39374100  0.84765700  0.27304200  1
  O  O1  1  0.42353000  0.82698400  0.79827300  1
  O  O2  1  0.84565500  0.86569100  0.24923100  1
  O  O3  1  0.84565500  0.86569100  0.73073300  1
  O  O4  1  0.40434500  0.38430800  0.25076900  1
  O  O5  1  0.40434500  0.38430800  0.76926700  1
  O  O6  1  0.82647000  0.42301600  0.70172700  1
  O  O7  1  0.85625900  0.40234300  0.22695800  1
loop_
_geom_bond_atom_site_label_1
_geom_bond_atom_site_label_2
_geom_bond_distance
_geom_bond_site_symmetry_2
Na0 O4 2.225495 1_556
Na0 O2 2.225495 1_455
Na0 O3 2.225496 1_455
Na0 O5 2.225499 1_555
Na0 O1 2.238802 1_555
Na0 O6 2.238802 1_455
Na1 O7 2.314239 1_455
Na1 O0 2.314239 1_545
Na1 O4 2.380227 1_555
Na1 O2 2.380231 1_445
Na1 O6 2.437846 1_454
Na1 O1 2.437846 1_545
Na2 O7 2.314239 1_455
Na2 O0 2.314239 1_546
Na2 O5 2.380227 1_555
Na2 O3 2.380231 1_445
Na2 O6 2.437846 1_455
Na2 O1 2.437846 1_545
Na3 O5 2.204499 1_555
Na3 O4 2.204503 1_555
Na3 O2 2.204504 1_546
Na3 O3 2.204504 1_545
Na3 O6 2.216312 1_555
Na3 O1 2.216312 1_545
Mg0 O0 2.177584 1_555
Mg0 O7 2.177584 1_455
Mg0 O5 2.301797 1_555
Mg0 O3 2.301797 1_454
Mg0 O2 2.301798 1_455
Mg0 O4 2.301802 1_555
O0 Ti0 2.104342 1_555
O0 Ti1 2.104343 1_555
O0 Ti2 2.244676 1_565
O1 Ti1 1.996171 1_556
O1 Ti0 1.996172 1_555
O2 Ti1 2.035596 1_555
O2 Ti2 2.124711 1_565
O3 Ti0 2.035596 1_555
O3 Ti2 2.124711 1_565
O4 Ti1 2.035600 1_555
O4 Ti2 2.124706 1_555
O5 Ti0 2.035600 1_555
O5 Ti2 2.124710 1_556
O6 Ti1 1.996171 1_555
O6 Ti0 1.996172 1_555
O7 Ti0 2.104342 1_554
O7 Ti1 2.104343 1_555
O7 Ti2 2.244676 1_555
