# generated using pymatgen
data_NpPd3
_symmetry_space_group_name_H-M   'P 1'
_cell_length_a   4.14004214
_cell_length_b   4.13997253
_cell_length_c   4.14024859
_cell_angle_alpha   90.00000000
_cell_angle_beta   90.00000000
_cell_angle_gamma   90.00000000
_symmetry_Int_Tables_number   1
_chemical_formula_structural   NpPd3
_chemical_formula_sum   'Np1 Pd3'
_cell_volume   70.96245618
_cell_formula_units_Z   1
loop_
 _symmetry_equiv_pos_site_id
 _symmetry_equiv_pos_as_xyz
  1  'x, y, z'
loop_
 _atom_site_type_symbol
 _atom_site_label
 _atom_site_symmetry_multiplicity
 _atom_site_fract_x
 _atom_site_fract_y
 _atom_site_fract_z
 _atom_site_occupancy
  Np  Np0  1  0.00000000  0.00000000  0.00000000  1
  Pd  Pd0  1  0.50000000  -0.00000000  0.50000000  1
  Pd  Pd1  1  0.00000000  0.50000000  0.50000000  1
  Pd  Pd2  1  0.50000000  0.50000000  0.00000000  1
loop_
_geom_bond_atom_site_label_1
_geom_bond_atom_site_label_2
_geom_bond_distance
_geom_bond_site_symmetry_2
Np0 Pd2 2.927427 1_445
Np0 Pd2 2.927427 1_455
Np0 Pd2 2.927427 1_555
Np0 Pd2 2.927427 1_545
Np0 Pd1 2.927500 1_554
Np0 Pd1 2.927500 1_555
Np0 Pd1 2.927500 1_545
Np0 Pd1 2.927500 1_544
Np0 Pd0 2.927525 1_554
Np0 Pd0 2.927525 1_455
Np0 Pd0 2.927525 1_454
Np0 Pd0 2.927525 1_555
Pd0 Pd1 2.927427 1_545
Pd0 Pd1 2.927427 1_655
Pd0 Pd1 2.927427 1_555
Pd0 Pd1 2.927427 1_645
Pd0 Pd2 2.927500 1_546
Pd0 Pd2 2.927500 1_555
Pd0 Pd2 2.927500 1_545
Pd0 Pd2 2.927500 1_556
Pd1 Pd2 2.927525 1_456
Pd1 Pd2 2.927525 1_455
Pd1 Pd2 2.927525 1_556
Pd1 Pd2 2.927525 1_555
