# generated using pymatgen
data_Ba2Mg(MoO4)2
_symmetry_space_group_name_H-M   'P 1'
_cell_length_a   6.06720343
_cell_length_b   5.59862507
_cell_length_c   7.59344361
_cell_angle_alpha   110.96776730
_cell_angle_beta   111.92592408
_cell_angle_gamma   91.45228453
_symmetry_Int_Tables_number   1
_chemical_formula_structural   Ba2Mg(MoO4)2
_chemical_formula_sum   'Ba2 Mg1 Mo2 O8'
_cell_volume   219.63808807
_cell_formula_units_Z   1
loop_
 _symmetry_equiv_pos_site_id
 _symmetry_equiv_pos_as_xyz
  1  'x, y, z'
loop_
 _atom_site_type_symbol
 _atom_site_label
 _atom_site_symmetry_multiplicity
 _atom_site_fract_x
 _atom_site_fract_y
 _atom_site_fract_z
 _atom_site_occupancy
  Ba  Ba0  1  0.13781900  0.38411300  0.27148700  1
  Ba  Ba1  1  0.88344200  0.63719600  0.76957000  1
  Mg  Mg0  1  0.57628400  0.31593700  0.14254000  1
  Mo  Mo0  1  0.63669300  0.88649600  0.28014200  1
  Mo  Mo1  1  0.35820400  0.10939900  0.71090000  1
  O  O0  1  0.77011000  0.98339800  0.12358400  1
  O  O1  1  0.35197400  0.64024400  0.12082600  1
  O  O2  1  0.45292200  0.81333800  0.57718500  1
  O  O3  1  0.12899200  0.27187200  0.58422600  1
  O  O4  1  0.25972700  0.07378000  0.91483200  1
  O  O5  1  0.65885300  0.34006300  0.90997300  1
  O  O6  1  0.55592500  0.21688800  0.38831000  1
  O  O7  1  0.82429600  0.66061100  0.38142500  1
loop_
_geom_bond_atom_site_label_1
_geom_bond_atom_site_label_2
_geom_bond_distance
_geom_bond_site_symmetry_2
Ba0 O7 2.668697 1_455
Ba0 O6 2.670709 1_555
Ba0 O3 2.683011 1_555
Ba0 O1 2.691307 1_555
Ba0 O2 2.697914 1_555
Ba0 O0 2.709884 1_445
Ba0 O4 3.015599 1_554
Ba0 O5 3.092395 1_454
Ba1 O5 2.828448 1_555
Ba1 O3 2.836154 1_655
Ba1 O2 2.870769 1_555
Ba1 O4 2.882731 1_665
Ba1 O7 2.884771 1_555
Ba1 O6 2.908336 1_555
Ba1 O0 3.029020 1_556
Ba1 O1 3.081854 1_656
Mg0 O5 2.053265 1_554
Mg0 O4 2.055906 1_554
Mg0 O7 2.141870 1_555
Mg0 O6 2.171399 1_555
Mg0 O0 2.217072 1_545
Mg0 O1 2.312559 1_555
Mo0 O1 1.863667 1_555
Mo0 O0 1.876388 1_555
Mo0 O6 1.896182 1_565
Mo0 O7 1.897809 1_555
Mo1 O3 1.837921 1_555
Mo1 O2 1.840701 1_545
Mo1 O4 1.923717 1_555
Mo1 O5 1.924667 1_555
