# generated using pymatgen
data_UO3
_symmetry_space_group_name_H-M   'P 1'
_cell_length_a   11.24380452
_cell_length_b   11.24380452
_cell_length_c   11.24380452
_cell_angle_alpha   143.84134246
_cell_angle_beta   143.84134246
_cell_angle_gamma   52.06460685
_symmetry_Int_Tables_number   1
_chemical_formula_structural   UO3
_chemical_formula_sum   'U8 O24'
_cell_volume   492.03703750
_cell_formula_units_Z   8
loop_
 _symmetry_equiv_pos_site_id
 _symmetry_equiv_pos_as_xyz
  1  'x, y, z'
loop_
 _atom_site_type_symbol
 _atom_site_label
 _atom_site_symmetry_multiplicity
 _atom_site_fract_x
 _atom_site_fract_y
 _atom_site_fract_z
 _atom_site_occupancy
  U  U0  1  0.37500000  0.62500000  0.25000000  1
  U  U1  1  0.37500000  0.62500000  0.75000000  1
  U  U2  1  0.87500000  0.62500000  0.25000000  1
  U  U3  1  0.37500000  0.12500000  0.75000000  1
  U  U4  1  0.56100500  0.06100500  0.50000000  1
  U  U5  1  0.81100500  0.81100500  0.00000000  1
  U  U6  1  0.18899500  0.18899500  0.00000000  1
  U  U7  1  0.93899500  0.43899500  0.50000000  1
  O  O0  1  0.94137400  0.70121900  0.75984500  1
  O  O1  1  0.81847200  0.05862600  0.75984500  1
  O  O2  1  0.29878100  0.05862600  0.24015500  1
  O  O3  1  0.80862600  0.06847200  0.25984500  1
  O  O4  1  0.80862600  0.54878100  0.74015500  1
  O  O5  1  0.45121900  0.19137400  0.25984500  1
  O  O6  1  0.93152800  0.19137400  0.74015500  1
  O  O7  1  0.94137400  0.18152800  0.24015500  1
  O  O8  1  0.28234900  0.08301200  0.80066300  1
  O  O9  1  0.83301200  0.53234900  0.30066300  1
  O  O10  1  0.23168600  0.53234900  0.69933700  1
  O  O11  1  0.46765100  0.76831400  0.30066300  1
  O  O12  1  0.46765100  0.16698800  0.69933700  1
  O  O13  1  0.51831400  0.71765100  0.80066300  1
  O  O14  1  0.91698800  0.71765100  0.19933700  1
  O  O15  1  0.28234900  0.48168600  0.19933700  1
  O  O16  1  0.14078300  0.83348000  0.69269700  1
  O  O17  1  0.58348000  0.39078300  0.19269700  1
  O  O18  1  0.19808500  0.39078300  0.80730300  1
  O  O19  1  0.60921700  0.80191500  0.19269700  1
  O  O20  1  0.60921700  0.41652000  0.80730300  1
  O  O21  1  0.55191500  0.85921700  0.69269700  1
  O  O22  1  0.16652000  0.85921700  0.30730300  1
  O  O23  1  0.14078300  0.44808500  0.30730300  1
loop_
_geom_bond_atom_site_label_1
_geom_bond_atom_site_label_2
_geom_bond_distance
_geom_bond_site_symmetry_2
O0 U7 1.814006 1_555
O1 U4 1.814010 1_555
O2 U4 1.814006 1_555
O3 U5 1.814010 1_545
O4 U5 1.814006 1_556
O5 U6 1.814006 1_555
O6 U6 1.814010 1_656
O7 U7 1.814010 1_555
O8 U3 1.905215 1_555
O8 U6 2.343800 1_556
O9 U2 1.905215 1_555
O9 U7 2.343800 1_555
O10 U1 1.905215 1_555
O10 U7 2.343800 1_455
O11 U0 1.905215 1_555
O11 U4 2.343800 1_565
O12 U3 1.905215 1_555
O12 U4 2.343800 1_555
O13 U1 1.905215 1_555
O13 U5 2.343800 1_556
O14 U2 1.905215 1_555
O14 U5 2.343800 1_555
O15 U0 1.905215 1_555
O15 U6 2.343800 1_555
O16 U2 2.225749 1_455
O16 U1 2.225749 1_555
O16 U6 2.355456 1_566
O17 U0 2.225749 1_555
O17 U3 2.225749 1_554
O17 U7 2.355456 1_555
O18 U0 2.225747 1_556
O18 U3 2.225752 1_555
O18 U7 2.355457 1_455
O19 U1 2.225747 1_554
O19 U2 2.225752 1_555
O19 U4 2.355457 1_565
O20 U2 2.225749 1_556
O20 U1 2.225749 1_555
O20 U4 2.355456 1_555
O21 U0 2.225747 1_555
O21 U3 2.225752 1_565
O21 U5 2.355457 1_556
O22 U0 2.225749 1_555
O22 U3 2.225749 1_565
O22 U5 2.355456 1_455
O23 U1 2.225747 1_555
O23 U2 2.225752 1_455
O23 U6 2.355457 1_555
