# generated using pymatgen
data_UGaNi
_symmetry_space_group_name_H-M   'P 1'
_cell_length_a   6.61492773
_cell_length_b   6.61509479
_cell_length_c   4.07830738
_cell_angle_alpha   89.99997329
_cell_angle_beta   89.99999654
_cell_angle_gamma   119.99536601
_symmetry_Int_Tables_number   1
_chemical_formula_structural   UGaNi
_chemical_formula_sum   'U3 Ga3 Ni3'
_cell_volume   154.55819602
_cell_formula_units_Z   3
loop_
 _symmetry_equiv_pos_site_id
 _symmetry_equiv_pos_as_xyz
  1  'x, y, z'
loop_
 _atom_site_type_symbol
 _atom_site_label
 _atom_site_symmetry_multiplicity
 _atom_site_fract_x
 _atom_site_fract_y
 _atom_site_fract_z
 _atom_site_occupancy
  U  U0  1  0.57198343  -0.00002784  0.49999999  1
  U  U1  1  0.42807792  0.42803515  0.50000000  1
  U  U2  1  0.00000275  0.57197558  0.49999978  1
  Ga  Ga0  1  0.23677327  0.99999106  -0.00000021  1
  Ga  Ga1  1  0.76320620  0.76321050  -0.00000016  1
  Ga  Ga2  1  -0.00000610  0.23678950  -0.00000015  1
  Ni  Ni0  1  0.33334783  0.66670041  0.00000057  1
  Ni  Ni1  1  0.66665162  0.33333163  0.00000080  1
  Ni  Ni2  1  -0.00003691  -0.00000600  0.49999938  1
loop_
_geom_bond_atom_site_label_1
_geom_bond_atom_site_label_2
_geom_bond_distance
_geom_bond_site_symmetry_2
Ga0 Ni2 2.571388 1_565
Ga0 Ni2 2.571391 1_564
Ga0 Ni0 2.584047 1_555
Ga0 Ni1 2.584376 1_565
Ga0 Ga2 2.712954 1_565
Ga0 Ga1 2.713048 1_455
Ga0 U0 3.012515 1_564
Ga0 U0 3.012516 1_565
Ga0 U2 3.192787 1_555
Ga0 U2 3.192789 1_554
Ga0 U1 3.192883 1_564
Ga0 U1 3.192886 1_565
Ga1 Ni2 2.571301 1_665
Ga1 Ni2 2.571302 1_664
Ga1 Ni0 2.584160 1_555
Ga1 Ni1 2.584278 1_555
Ga1 Ga2 2.713185 1_665
Ga1 U1 3.012320 1_555
Ga1 U1 3.012320 1_554
Ga1 U0 3.192493 1_564
Ga1 U0 3.192495 1_565
Ga1 U2 3.192697 1_655
Ga1 U2 3.192698 1_654
Ga2 Ni2 2.571285 1_555
Ga2 Ni2 2.571289 1_554
Ga2 Ni1 2.584193 1_455
Ga2 Ni0 2.584580 1_555
Ga2 U2 3.012371 1_554
Ga2 U2 3.012372 1_555
Ga2 U0 3.192737 1_455
Ga2 U0 3.192737 1_454
Ga2 U1 3.193033 1_554
Ga2 U1 3.193034 1_555
Ni0 U0 2.833852 1_565
Ni0 U0 2.833854 1_564
Ni0 U2 2.833993 1_555
Ni0 U2 2.833998 1_554
Ni0 U1 2.834180 1_555
Ni0 U1 2.834185 1_554
Ni1 U1 2.833669 1_555
Ni1 U1 2.833674 1_554
Ni1 U2 2.834101 1_655
Ni1 U2 2.834105 1_654
Ni1 U0 2.834159 1_555
Ni1 U0 2.834165 1_554
Ni2 U0 2.830982 1_455
Ni2 U2 2.831514 1_545
Ni2 U1 2.831939 1_555
