# generated using pymatgen
data_Na3NbAl3P5SO24
_symmetry_space_group_name_H-M   'P 1'
_cell_length_a   8.52990019
_cell_length_b   8.51400604
_cell_length_c   21.89634202
_cell_angle_alpha   89.74289221
_cell_angle_beta   90.10290221
_cell_angle_gamma   119.96926468
_symmetry_Int_Tables_number   1
_chemical_formula_structural   Na3NbAl3P5SO24
_chemical_formula_sum   'Na9 Nb3 Al9 P15 S3 O72'
_cell_volume   1377.55864017
_cell_formula_units_Z   3
loop_
 _symmetry_equiv_pos_site_id
 _symmetry_equiv_pos_as_xyz
  1  'x, y, z'
loop_
 _atom_site_type_symbol
 _atom_site_label
 _atom_site_symmetry_multiplicity
 _atom_site_fract_x
 _atom_site_fract_y
 _atom_site_fract_z
 _atom_site_occupancy
  Na  Na0  1  0.63641088  0.63665279  0.74664496  1
  Na  Na1  1  0.30336866  0.96890157  0.08620142  1
  Na  Na2  1  0.33421999  0.03167089  0.41166925  1
  Na  Na3  1  0.98493428  0.00029515  0.50076450  1
  Na  Na4  1  0.98909517  0.00023893  0.99953569  1
  Na  Na5  1  0.66650558  0.32123556  0.83003990  1
  Na  Na6  1  0.67081503  0.33735429  0.32702405  1
  Na  Na7  1  0.33361660  0.65995872  0.16804208  1
  Na  Na8  1  0.32222167  0.66222836  0.66059048  1
  Nb  Nb0  1  0.66842765  0.33434105  0.98021492  1
  Nb  Nb1  1  0.67835938  0.34291914  0.47836222  1
  Nb  Nb2  1  0.32786335  0.66610370  0.80975213  1
  Al  Al0  1  0.00166748  0.00146599  0.35254867  1
  Al  Al1  1  0.00085702  0.00190014  0.85312040  1
  Al  Al2  1  0.99504469  0.00140943  0.64706483  1
  Al  Al3  1  0.00170254  0.99875120  0.14802474  1
  Al  Al4  1  0.67412952  0.33746186  0.68670046  1
  Al  Al5  1  0.65840523  0.32644022  0.18488926  1
  Al  Al6  1  0.33404733  0.66248397  0.02095637  1
  Al  Al7  1  0.33417171  0.65758686  0.51809842  1
  Al  Al8  1  0.33413373  0.67265985  0.31349151  1
  P  P0  1  0.29001272  0.00003153  0.25012534  1
  P  P1  1  0.28380587  0.27081993  0.74802970  1
  P  P2  1  0.99386244  0.71890236  0.74762352  1
  P  P3  1  0.72638760  0.01552273  0.74884239  1
  P  P4  1  0.96441018  0.33647413  0.58712508  1
  P  P5  1  0.66550283  0.62961543  0.58746645  1
  P  P6  1  0.95781002  0.62220558  0.08879565  1
  P  P7  1  0.66983971  0.03770619  0.08764946  1
  P  P8  1  0.37384793  0.33940435  0.08763493  1
  P  P9  1  0.62626102  0.67917416  0.91807122  1
  P  P10  1  0.05160229  0.37257540  0.91944795  1
  P  P11  1  0.32088964  0.94879457  0.91959663  1
  P  P12  1  0.62195112  0.94034815  0.41576245  1
  P  P13  1  0.32303762  0.38296474  0.41408166  1
  P  P14  1  0.05875425  0.67448733  0.41437920  1
  S  S0  1  0.71311431  0.71276206  0.25023680  1
  S  S1  1  -0.00006752  0.28744439  0.24970160  1
  S  S2  1  0.37399252  0.04043319  0.58524822  1
  O  O0  1  0.20170268  0.02888835  0.30784121  1
  O  O1  1  0.82420349  0.79682335  0.30521161  1
  O  O2  1  0.96905472  0.17448390  0.30500841  1
  O  O3  1  0.20138474  0.16577520  0.80698547  1
  O  O4  1  0.96189487  0.79915029  0.80558147  1
  O  O5  1  0.83235778  0.03708365  0.80738041  1
  O  O6  1  0.79789869  0.96451715  0.69320153  1
  O  O7  1  0.16923241  0.19588321  0.69136738  1
  O  O8  1  0.02842086  0.83255483  0.69086017  1
  O  O9  1  0.79541531  0.82592960  0.19545524  1
  O  O10  1  0.02662269  0.20239707  0.19523567  1
  O  O11  1  0.17241955  0.97163999  0.19261723  1
  O  O12  1  0.86727599  0.36450927  0.64075090  1
  O  O13  1  0.49171673  0.13093065  0.63762243  1
  O  O14  1  0.63509385  0.50800987  0.64348604  1
  O  O15  1  0.86241183  0.49725119  0.14234576  1
  O  O16  1  0.62760124  0.12808438  0.14042663  1
  O  O17  1  0.49703481  0.36776694  0.14179914  1
  O  O18  1  0.45996433  0.29709562  0.02981612  1
  O  O19  1  0.83906404  0.53707329  0.02945446  1
  O  O20  1  0.70239736  0.15936613  0.02865903  1
  O  O21  1  0.45327731  0.14843030  0.52751160  1
  O  O22  1  0.69304714  0.53193000  0.52995973  1
  O  O23  1  0.84135186  0.30464994  0.52822141  1
  O  O24  1  0.53078175  0.69930539  0.97293306  1
  O  O25  1  0.16496102  0.46713529  0.97478601  1
  O  O26  1  0.30188617  0.83912115  0.97711279  1
  O  O27  1  0.53649295  0.83280780  0.47414268  1
  O  O28  1  0.29742764  0.46260452  0.47290865  1
  O  O29  1  0.17178637  0.70590488  0.47232064  1
  O  O30  1  0.13470604  0.63591368  0.35769454  1
  O  O31  1  0.49918030  0.86886643  0.35964765  1
  O  O32  1  0.36289372  0.50023064  0.35740909  1
  O  O33  1  0.13237495  0.49040625  0.86051195  1
  O  O34  1  0.35684535  0.86379572  0.86203905  1
  O  O35  1  0.51283034  0.64123941  0.85806827  1
  O  O36  1  0.02906095  0.83821335  0.40745912  1
  O  O37  1  0.81213311  0.96967423  0.40650743  1
  O  O38  1  0.16243287  0.18818590  0.40714707  1
  O  O39  1  0.03013319  0.18720382  0.90985239  1
  O  O40  1  0.15650775  0.96861506  0.90949956  1
  O  O41  1  0.81277640  0.84240503  0.90913408  1
  O  O42  1  0.97982249  0.16542660  0.59136226  1
  O  O43  1  0.19467227  0.02398431  0.59021197  1
  O  O44  1  0.83859479  0.81393692  0.59068244  1
  O  O45  1  0.97847880  0.81253595  0.09343902  1
  O  O46  1  0.83865324  0.02211716  0.09507111  1
  O  O47  1  0.18834697  0.16520844  0.09320697  1
  O  O48  1  0.69558528  0.17591965  0.74049133  1
  O  O49  1  0.47918219  0.30600377  0.74157682  1
  O  O50  1  0.82861077  0.52556980  0.74203929  1
  O  O51  1  0.69679393  0.53177852  0.24396755  1
  O  O52  1  0.83781426  0.30795392  0.24338481  1
  O  O53  1  0.48054616  0.17187337  0.24298708  1
  O  O54  1  0.64270310  0.50429257  0.92354064  1
  O  O55  1  0.86152230  0.35740968  0.92286428  1
  O  O56  1  0.49566684  0.13895730  0.92309500  1
  O  O57  1  0.63981111  0.13527219  0.42423668  1
  O  O58  1  0.49371331  0.35454425  0.42261081  1
  O  O59  1  0.86430875  0.50379617  0.42160651  1
  O  O60  1  0.35790637  0.50628329  0.07633289  1
  O  O61  1  0.14609511  0.64496593  0.07822081  1
  O  O62  1  0.49796561  0.85467077  0.07647845  1
  O  O63  1  0.35800137  0.86105207  0.57795621  1
  O  O64  1  0.49616351  0.64466480  0.57651186  1
  O  O65  1  0.14673009  0.50740068  0.57540687  1
  O  O66  1  0.30968443  0.82854733  0.25662835  1
  O  O67  1  0.53024852  0.69192733  0.25631596  1
  O  O68  1  0.16420831  0.46836593  0.25578717  1
  O  O69  1  0.31176106  0.47141767  0.75458975  1
  O  O70  1  0.16459385  0.69545416  0.75395286  1
  O  O71  1  0.53014802  0.83979087  0.75591667  1
loop_
_geom_bond_atom_site_label_1
_geom_bond_atom_site_label_2
_geom_bond_distance
_geom_bond_site_symmetry_2
Na0 O50 2.267807 1_555
Na0 O71 2.328958 1_555
Na0 O69 2.405283 1_555
Na0 O49 2.442601 1_555
Na0 O14 2.512319 1_555
Na0 O35 2.667654 1_555
Na0 O6 2.682142 1_555
Na0 O4 2.730054 1_555
Na1 O62 2.315690 1_555
Na1 O47 2.328239 1_565
Na1 O61 2.396611 1_555
Na1 O45 2.406484 1_455
Na1 O11 2.591041 1_555
Na1 O26 2.633687 1_554
Na1 O16 2.674576 1_565
Na1 O18 2.713369 1_565
Na2 O36 2.283428 1_545
Na2 O57 2.313211 1_555
Na2 O58 2.394439 1_555
Na2 O38 2.425255 1_555
Na2 O0 2.532068 1_555
Na2 O31 2.677175 1_545
Na2 O21 2.730984 1_555
Na2 O29 2.740503 1_545
Na3 O44 2.440116 1_545
Na3 O42 2.449578 1_555
Na3 O37 2.471878 1_545
Na3 O38 2.572029 1_655
Na3 O43 2.589947 1_655
Na3 O36 2.601348 1_645
Na4 O39 2.435242 1_655
Na4 O41 2.445413 1_545
Na4 O46 2.511839 1_556
Na4 O40 2.529304 1_645
Na4 O45 2.572244 1_546
Na4 O47 2.587782 1_656
Na5 O48 2.401468 1_555
Na5 O49 2.471051 1_555
Na5 O50 2.495518 1_555
Na5 O56 2.531115 1_555
Na5 O55 2.544550 1_555
Na5 O54 2.647282 1_555
Na6 O51 2.388431 1_555
Na6 O53 2.394386 1_555
Na6 O52 2.411544 1_555
Na6 O59 2.588178 1_555
Na6 O58 2.630429 1_555
Na6 O57 2.660012 1_555
Na7 O68 2.463180 1_555
Na7 O60 2.466410 1_555
Na7 O67 2.481984 1_555
Na7 O66 2.486683 1_555
Na7 O61 2.495981 1_555
Na7 O62 2.528157 1_555
Na8 O65 2.344797 1_555
Na8 O63 2.385560 1_555
Na8 O64 2.418062 1_555
Na8 O70 2.542054 1_555
Na8 O69 2.590241 1_555
Na8 O71 2.669105 1_555
Nb0 O19 1.939419 1_556
Nb0 O20 1.960725 1_556
Nb0 O18 1.970413 1_556
Nb0 O54 1.995486 1_555
Nb0 O55 2.002603 1_555
Nb0 O56 2.016447 1_555
Nb1 O23 1.917012 1_555
Nb1 O22 1.922543 1_555
Nb1 O59 1.938454 1_555
Nb1 O57 2.018621 1_555
Nb1 O58 2.031859 1_555
Nb1 O21 2.097966 1_555
Nb2 O33 1.937324 1_555
Nb2 O34 1.950758 1_555
Nb2 O70 1.957962 1_555
Nb2 O35 1.994755 1_555
Nb2 O71 1.999009 1_555
Nb2 O69 2.003795 1_555
Al0 O0 1.878870 1_555
Al0 O37 1.910432 1_445
Al0 O38 1.915766 1_555
Al0 O2 1.930164 1_455
Al0 O36 1.934063 1_545
Al0 O1 1.943469 1_445
Al1 O3 1.871404 1_555
Al1 O5 1.892318 1_455
Al1 O4 1.901452 1_445
Al1 O39 1.928057 1_555
Al1 O40 1.932334 1_545
Al1 O41 1.933311 1_445
Al2 O6 1.850042 1_545
Al2 O7 1.855142 1_655
Al2 O8 1.860909 1_645
Al2 O42 1.902586 1_555
Al2 O44 1.932981 1_545
Al2 O43 2.040752 1_655
Al3 O11 1.858995 1_555
Al3 O46 1.893902 1_465
Al3 O45 1.919324 1_455
Al3 O47 1.929067 1_565
Al3 O9 1.935461 1_455
Al3 O10 1.940904 1_565
Al4 O12 1.845123 1_555
Al4 O48 1.883767 1_555
Al4 O14 1.893212 1_555
Al4 O50 1.916468 1_555
Al4 O49 1.959606 1_555
Al4 O13 1.986284 1_555
Al5 O17 1.839818 1_555
Al5 O16 1.854573 1_555
Al5 O15 1.864457 1_555
Al5 O53 1.910245 1_555
Al5 O52 2.058896 1_555
Al5 O51 2.069745 1_555
Al6 O25 1.865943 1_554
Al6 O24 1.870265 1_554
Al6 O60 1.880250 1_555
Al6 O26 1.912289 1_554
Al6 O62 1.958675 1_555
Al6 O61 1.982777 1_555
Al7 O28 1.824006 1_555
Al7 O27 1.884443 1_555
Al7 O29 1.911323 1_555
Al7 O64 1.923959 1_555
Al7 O65 1.927768 1_555
Al7 O63 2.104203 1_555
Al8 O30 1.843883 1_555
Al8 O31 1.858609 1_555
Al8 O32 1.867197 1_555
Al8 O66 1.901594 1_555
Al8 O67 2.030803 1_555
Al8 O68 2.053561 1_555
O0 P0 1.554348 1_555
O1 S0 1.478250 1_555
O2 S1 1.482737 1_655
O3 P1 1.524898 1_555
O4 P2 1.531942 1_555
O5 P3 1.525078 1_555
O6 P3 1.522188 1_565
O7 P1 1.510399 1_555
O8 P2 1.507843 1_455
O9 S0 1.475431 1_555
O10 S1 1.473727 1_555
O11 P0 1.551174 1_565
O12 P4 1.525064 1_555
O13 S2 1.465603 1_555
O14 P5 1.537946 1_555
O15 P6 1.515315 1_555
O16 P7 1.530960 1_555
O17 P8 1.521057 1_555
O18 P8 1.594973 1_555
O19 P6 1.584260 1_555
O20 P7 1.587560 1_555
O21 S2 1.507467 1_555
O22 P5 1.593159 1_555
O23 P4 1.597773 1_555
O24 P9 1.510150 1_555
O25 P10 1.509355 1_555
O26 P11 1.524210 1_555
O27 P12 1.526372 1_555
O28 P13 1.524303 1_555
O29 P14 1.533540 1_555
O30 P14 1.512363 1_555
O31 P12 1.530404 1_555
O32 P13 1.517748 1_555
O33 P10 1.564449 1_555
O34 P11 1.561235 1_555
O35 P9 1.566428 1_555
O36 P14 1.543033 1_555
O37 P12 1.526797 1_555
O38 P13 1.543276 1_555
O39 P10 1.510845 1_555
O40 P11 1.509424 1_555
O41 P9 1.513454 1_555
O42 P4 1.528633 1_555
O43 S2 1.468843 1_555
O44 P5 1.527540 1_555
O45 P6 1.543808 1_555
O46 P7 1.519021 1_555
O47 P8 1.540357 1_555
O48 P3 1.524285 1_555
O49 P1 1.545563 1_555
O50 P2 1.547392 1_555
O51 S0 1.483274 1_555
O52 S1 1.483997 1_655
O53 P0 1.558722 1_555
O54 P9 1.567779 1_555
O55 P10 1.562779 1_655
O56 P11 1.561723 1_545
O57 P12 1.600603 1_545
O58 P13 1.601088 1_555
O59 P14 1.574393 1_655
O60 P8 1.512672 1_555
O61 P6 1.536415 1_455
O62 P7 1.535342 1_565
O63 S2 1.473289 1_565
O64 P5 1.530937 1_555
O65 P4 1.529443 1_455
O66 P0 1.556564 1_565
O67 S0 1.485376 1_555
O68 S1 1.482813 1_555
O69 P1 1.609219 1_555
O70 P2 1.571442 1_455
O71 P3 1.600382 1_565
