# generated using pymatgen
data_Na3Ca8Ta4P3(S5O24)3
_symmetry_space_group_name_H-M   'P 1'
_cell_length_a   9.07350133
_cell_length_b   9.06701482
_cell_length_c   23.66863175
_cell_angle_alpha   90.01470471
_cell_angle_beta   89.92386322
_cell_angle_gamma   120.01137889
_symmetry_Int_Tables_number   1
_chemical_formula_structural   Na3Ca8Ta4P3(S5O24)3
_chemical_formula_sum   'Na3 Ca8 Ta4 P3 S15 O72'
_cell_volume   1686.13668552
_cell_formula_units_Z   1
loop_
 _symmetry_equiv_pos_site_id
 _symmetry_equiv_pos_as_xyz
  1  'x, y, z'
loop_
 _atom_site_type_symbol
 _atom_site_label
 _atom_site_symmetry_multiplicity
 _atom_site_fract_x
 _atom_site_fract_y
 _atom_site_fract_z
 _atom_site_occupancy
  Na  Na0  1  0.98843873  0.99139911  0.00418949  1
  Na  Na1  1  0.66898438  0.33313486  0.83363813  1
  Na  Na2  1  0.66149211  0.33428217  0.33678518  1
  Ca  Ca0  1  0.00253009  0.99948997  0.35626460  1
  Ca  Ca1  1  0.99801059  0.99977558  0.85956098  1
  Ca  Ca2  1  0.99767404  0.99632573  0.14890962  1
  Ca  Ca3  1  0.66069332  0.32422346  0.67669158  1
  Ca  Ca4  1  0.66913236  0.33476113  0.98040712  1
  Ca  Ca5  1  0.65761543  0.32792466  0.48978721  1
  Ca  Ca6  1  0.33457941  0.66807349  0.30820180  1
  Ca  Ca7  1  0.33423996  0.66734533  0.80457848  1
  Ta  Ta0  1  0.00422999  0.99953287  0.64775838  1
  Ta  Ta1  1  0.67414034  0.33228500  0.17881519  1
  Ta  Ta2  1  0.33264898  0.67054022  0.02454598  1
  Ta  Ta3  1  0.33319427  0.67099422  0.51796975  1
  P  P0  1  0.35650953  0.02254535  0.58322244  1
  P  P1  1  0.96403982  0.62314021  0.08061661  1
  P  P2  1  0.65981175  0.03668072  0.08066013  1
  S  S0  1  0.31369139  0.01871645  0.24680678  1
  S  S1  1  0.70416190  0.68552311  0.24706591  1
  S  S2  1  0.98546977  0.29516173  0.24722065  1
  S  S3  1  0.28560898  0.28102598  0.74804115  1
  S  S4  1  0.99343104  0.71253030  0.74794337  1
  S  S5  1  0.72062827  0.00575982  0.74780058  1
  S  S6  1  0.98116303  0.33370472  0.58324592  1
  S  S7  1  0.66633528  0.64772712  0.58344371  1
  S  S8  1  0.37981687  0.34517370  0.08191945  1
  S  S9  1  0.61315905  0.66754945  0.92011533  1
  S  S10  1  0.05476239  0.38567479  0.91973535  1
  S  S11  1  0.33027623  0.94627264  0.92002799  1
  S  S12  1  0.61826060  0.95403505  0.41833927  1
  S  S13  1  0.33670457  0.38449129  0.41862411  1
  S  S14  1  0.04541680  0.66185704  0.41868544  1
  O  O0  1  0.24981057  0.05920346  0.29854484  1
  O  O1  1  0.80876178  0.74782857  0.29871648  1
  O  O2  1  0.94400138  0.19054901  0.29862244  1
  O  O3  1  0.20655846  0.18286069  0.79917692  1
  O  O4  1  0.97566535  0.79195147  0.79921396  1
  O  O5  1  0.81665951  0.02241602  0.79935157  1
  O  O6  1  0.82465302  0.00261206  0.69631673  1
  O  O7  1  0.17734189  0.17598322  0.69627409  1
  O  O8  1  0.99662442  0.82191650  0.69641538  1
  O  O9  1  0.78504019  0.79218992  0.19808649  1
  O  O10  1  0.00948851  0.21535851  0.19773617  1
  O  O11  1  0.20819696  0.99403513  0.19766640  1
  O  O12  1  0.91788536  0.38215505  0.63223338  1
  O  O13  1  0.47080462  0.08452909  0.63429835  1
  O  O14  1  0.61963743  0.53603512  0.63239565  1
  O  O15  1  0.86510294  0.49842542  0.13363612  1
  O  O16  1  0.63423951  0.13518880  0.13384766  1
  O  O17  1  0.49433009  0.37259169  0.13256804  1
  O  O18  1  0.45163708  0.31646756  0.03138829  1
  O  O19  1  0.85762848  0.54540945  0.02933494  1
  O  O20  1  0.68130518  0.14018739  0.02914940  1
  O  O21  1  0.41816791  0.13797825  0.53248104  1
  O  O22  1  0.71651315  0.58538742  0.53457539  1
  O  O23  1  0.86913140  0.28613463  0.53438838  1
  O  O24  1  0.51120982  0.67014258  0.97182239  1
  O  O25  1  0.15881379  0.48770296  0.97127189  1
  O  O26  1  0.32770043  0.84099008  0.97202951  1
  O  O27  1  0.51247465  0.84460711  0.47057090  1
  O  O28  1  0.33339011  0.48893024  0.47058070  1
  O  O29  1  0.15560603  0.66540580  0.47051886  1
  O  O30  1  0.12490949  0.64316063  0.36794129  1
  O  O31  1  0.51877718  0.87496678  0.36784770  1
  O  O32  1  0.35482682  0.48241705  0.36773778  1
  O  O33  1  0.13749184  0.47602246  0.86774349  1
  O  O34  1  0.34041263  0.86385228  0.86846253  1
  O  O35  1  0.52391002  0.66070393  0.86807457  1
  O  O36  1  0.04550119  0.82273902  0.42042654  1
  O  O37  1  0.77851145  0.95328668  0.41990959  1
  O  O38  1  0.17716705  0.22195118  0.42009726  1
  O  O39  1  0.04736021  0.21886550  0.92432639  1
  O  O40  1  0.17060006  0.95167553  0.92456087  1
  O  O41  1  0.78027751  0.82631516  0.92453238  1
  O  O42  1  0.00945721  0.18641340  0.59799234  1
  O  O43  1  0.17152829  0.98935110  0.60076521  1
  O  O44  1  0.81187671  0.82419004  0.59835200  1
  O  O45  1  0.00533240  0.80286084  0.09225508  1
  O  O46  1  0.80243743  0.00127723  0.09172722  1
  O  O47  1  0.20734861  0.20673600  0.09188088  1
  O  O48  1  0.70374158  0.15823499  0.74144845  1
  O  O49  1  0.45523115  0.30089958  0.74066947  1
  O  O50  1  0.84292887  0.54386204  0.73988033  1
  O  O51  1  0.68585294  0.50830882  0.23413397  1
  O  O52  1  0.82291969  0.31177550  0.23534978  1
  O  O53  1  0.49008974  0.17899039  0.23425966  1
  O  O54  1  0.63039001  0.51532378  0.92328567  1
  O  O55  1  0.88411680  0.36604465  0.92243623  1
  O  O56  1  0.48056189  0.11660016  0.92379071  1
  O  O57  1  0.63723692  0.12343131  0.42631944  1
  O  O58  1  0.48956666  0.36832684  0.42557882  1
  O  O59  1  0.87739333  0.51087054  0.42764398  1
  O  O60  1  0.37256580  0.50873991  0.07454553  1
  O  O61  1  0.14115508  0.62590260  0.07205013  1
  O  O62  1  0.48762905  0.85687597  0.07260865  1
  O  O63  1  0.32269140  0.83750832  0.56598116  1
  O  O64  1  0.51999131  0.67635180  0.56881972  1
  O  O65  1  0.15720185  0.47853712  0.56847963  1
  O  O66  1  0.34705540  0.87868901  0.25429704  1
  O  O67  1  0.53102209  0.65241718  0.25452860  1
  O  O68  1  0.12324439  0.46923977  0.25445843  1
  O  O69  1  0.28551820  0.44148699  0.74546674  1
  O  O70  1  0.15381434  0.71233463  0.74548665  1
  O  O71  1  0.55845811  0.84629885  0.74568404  1
loop_
_geom_bond_atom_site_label_1
_geom_bond_atom_site_label_2
_geom_bond_distance
_geom_bond_site_symmetry_2
Na0 O41 2.557814 1_554
Na0 O40 2.645863 1_654
Na0 O39 2.647421 1_664
Na0 O46 2.700163 1_565
Na0 O45 2.748693 1_655
Na0 O47 2.862633 1_665
Na1 O55 2.782902 1_555
Na1 O48 2.805728 1_555
Na1 O54 2.815763 1_555
Na1 O56 2.822286 1_555
Na1 O50 2.835908 1_555
Na1 O49 2.851830 1_555
Na2 O58 2.723648 1_555
Na2 O57 2.788213 1_555
Na2 O59 2.810276 1_555
Na2 O51 2.844873 1_555
Na2 O53 2.847378 1_555
Na2 O52 2.870619 1_555
Ca0 O36 2.377913 1_555
Ca0 O38 2.381077 1_565
Ca0 O37 2.390958 1_455
Ca0 O0 2.443504 1_565
Ca0 O2 2.463287 1_465
Ca0 O1 2.478846 1_455
Ca1 O5 2.263824 1_565
Ca1 O3 2.287079 1_665
Ca1 O4 2.291113 1_555
Ca1 O39 2.367893 1_665
Ca1 O41 2.371986 1_555
Ca1 O40 2.387328 1_655
Ca2 O9 2.219425 1_555
Ca2 O45 2.236170 1_655
Ca2 O11 2.241987 1_655
Ca2 O46 2.248975 1_565
Ca2 O10 2.253289 1_665
Ca2 O47 2.333401 1_665
Ca3 O13 2.226279 1_555
Ca3 O48 2.314666 1_555
Ca3 O49 2.326259 1_555
Ca3 O12 2.365706 1_555
Ca3 O14 2.375716 1_555
Ca3 O50 2.376517 1_555
Ca4 O19 2.156519 1_556
Ca4 O20 2.156816 1_556
Ca4 O18 2.245960 1_556
Ca4 O55 2.282053 1_555
Ca4 O54 2.282511 1_555
Ca4 O56 2.292390 1_555
Ca5 O21 2.227001 1_555
Ca5 O58 2.309536 1_555
Ca5 O57 2.320556 1_555
Ca5 O59 2.361363 1_555
Ca5 O22 2.368783 1_555
Ca5 O23 2.382079 1_555
Ca6 O67 2.249006 1_555
Ca6 O66 2.252112 1_555
Ca6 O68 2.256624 1_555
Ca6 O32 2.272520 1_555
Ca6 O31 2.274626 1_555
Ca6 O30 2.287509 1_555
Ca7 O33 2.308172 1_555
Ca7 O35 2.309667 1_555
Ca7 O34 2.315817 1_555
Ca7 O71 2.325137 1_555
Ca7 O69 2.332634 1_555
Ca7 O70 2.340304 1_555
O0 S0 1.476829 1_555
O1 S1 1.476750 1_555
O2 S2 1.470976 1_555
O3 S3 1.459849 1_555
O4 S4 1.460237 1_555
O5 S5 1.463516 1_555
O6 S5 1.549337 1_555
O6 Ta0 2.004276 1_645
O7 S3 1.562066 1_555
O7 Ta0 1.958420 1_545
O8 S4 1.563239 1_555
O8 Ta0 1.952989 1_655
O9 S1 1.451262 1_555
O10 S2 1.448955 1_455
O11 S0 1.451768 1_565
O12 S6 1.455086 1_555
O13 P0 1.507554 1_555
O14 S7 1.455192 1_555
O15 P1 1.625301 1_555
O15 Ta1 1.949310 1_555
O16 P2 1.625524 1_555
O16 Ta1 1.952003 1_555
O17 S8 1.524219 1_555
O17 Ta1 2.143585 1_555
O18 S8 1.445777 1_555
O19 P1 1.491356 1_555
O20 P2 1.490670 1_555
O21 P0 1.504624 1_555
O22 S7 1.456128 1_555
O23 S6 1.456318 1_555
O24 S9 1.540374 1_555
O24 Ta2 2.045160 1_556
O25 S10 1.537479 1_555
O25 Ta2 2.052935 1_556
O26 S11 1.550772 1_555
O26 Ta2 2.001520 1_556
O27 S12 1.574439 1_555
O27 Ta3 1.953764 1_555
O28 S13 1.561305 1_555
O28 Ta3 1.996274 1_555
O29 S14 1.573785 1_555
O29 Ta3 1.945112 1_555
O30 S14 1.453063 1_555
O31 S12 1.453280 1_555
O32 S13 1.456012 1_555
O33 S10 1.460063 1_555
O34 S11 1.457565 1_555
O35 S9 1.459154 1_555
O36 S14 1.458908 1_555
O37 S12 1.457965 1_555
O38 S13 1.460963 1_555
O39 S10 1.484018 1_555
O40 S11 1.477694 1_555
O41 S9 1.482989 1_555
O42 S6 1.521421 1_455
O42 Ta0 2.044828 1_545
O43 P0 1.604052 1_565
O43 Ta0 1.919783 1_555
O44 S7 1.521746 1_555
O44 Ta0 2.042036 1_655
O45 P1 1.503638 1_455
O46 P2 1.504291 1_555
O47 S8 1.454050 1_555
O48 S5 1.472902 1_555
O49 S3 1.467486 1_555
O50 S4 1.466786 1_555
O51 S1 1.560757 1_555
O51 Ta1 2.025460 1_555
O52 S2 1.581244 1_555
O52 Ta1 1.975727 1_555
O53 S0 1.560126 1_555
O53 Ta1 2.028796 1_555
O54 S9 1.466652 1_555
O55 S10 1.468749 1_655
O56 S11 1.464939 1_545
O57 S12 1.469611 1_545
O58 S13 1.475229 1_555
O59 S14 1.467941 1_655
O60 S8 1.527095 1_555
O60 Ta2 2.053641 1_555
O61 P1 1.607245 1_455
O61 Ta2 1.933530 1_555
O62 P2 1.608633 1_565
O62 Ta2 1.937162 1_555
O63 P0 1.600146 1_565
O63 Ta3 1.929409 1_555
O64 S7 1.515380 1_555
O64 Ta3 2.060732 1_555
O65 S6 1.516061 1_455
O65 Ta3 2.057366 1_555
O66 S0 1.455947 1_565
O67 S1 1.454942 1_555
O68 S2 1.452575 1_455
O69 S3 1.456605 1_555
O70 S4 1.457210 1_455
O71 S5 1.459475 1_565
