# generated using pymatgen
data_Na2W4O13
_symmetry_space_group_name_H-M   'P 1'
_cell_length_a   3.85190130
_cell_length_b   8.33069492
_cell_length_c   8.41984169
_cell_angle_alpha   95.66027587
_cell_angle_beta   103.08681250
_cell_angle_gamma   90.40659326
_symmetry_Int_Tables_number   1
_chemical_formula_structural   Na2W4O13
_chemical_formula_sum   'Na2 W4 O13'
_cell_volume   261.76333624
_cell_formula_units_Z   1
loop_
 _symmetry_equiv_pos_site_id
 _symmetry_equiv_pos_as_xyz
  1  'x, y, z'
loop_
 _atom_site_type_symbol
 _atom_site_label
 _atom_site_symmetry_multiplicity
 _atom_site_fract_x
 _atom_site_fract_y
 _atom_site_fract_z
 _atom_site_occupancy
  Na  Na0  1  0.71137674  0.68816141  0.42260427  1
  Na  Na1  1  0.28862477  0.31183943  0.57739676  1
  W  W0  1  0.95998455  0.63214745  0.82487673  1
  W  W1  1  0.04001615  0.36785394  0.17512193  1
  W  W2  1  0.85208775  0.02409976  0.80306800  1
  W  W3  1  0.14791634  0.97590036  0.19693321  1
  O  O0  1  0.99802429  0.84487493  0.99563723  1
  O  O1  1  0.60922441  0.98944300  0.18701848  1
  O  O2  1  0.43480624  0.64320869  0.84197722  1
  O  O3  1  0.56519738  0.35679137  0.15802493  1
  O  O4  1  -0.00000100  0.49999931  0.00000089  1
  O  O5  1  0.83677412  0.48910366  0.65274083  1
  O  O6  1  0.16322350  0.51089567  0.34726169  1
  O  O7  1  0.81672412  0.15416002  0.64999445  1
  O  O8  1  0.15507257  0.18959412  0.31010019  1
  O  O9  1  0.39077393  0.01055632  0.81297834  1
  O  O10  1  0.00197669  0.15512524  0.00436316  1
  O  O11  1  0.18327699  0.84583861  0.35000531  1
  O  O12  1  0.84492646  0.81040571  0.68989939  1
loop_
_geom_bond_atom_site_label_1
_geom_bond_atom_site_label_2
_geom_bond_distance
_geom_bond_site_symmetry_2
Na0 O12 2.320132 1_555
Na0 O11 2.422856 1_555
Na0 O6 2.442156 1_655
Na0 O11 2.455779 1_655
Na0 O6 2.491132 1_555
Na0 O5 2.638055 1_555
Na1 O8 2.320146 1_555
Na1 O7 2.422864 1_555
Na1 O5 2.442165 1_455
Na1 O7 2.455785 1_455
Na1 O5 2.491113 1_555
Na1 O6 2.638037 1_555
O0 W3 1.892192 1_656
O0 W0 2.151173 1_555
O0 W2 2.291482 1_565
O1 W3 1.800918 1_555
O1 W3 2.062040 1_655
O2 W0 1.802797 1_455
O2 W0 2.062382 1_555
O3 W1 1.802790 1_655
O3 W1 2.062385 1_555
O4 W1 1.905114 1_555
O4 W0 1.905152 1_454
O5 W0 1.756615 1_555
O6 W1 1.756626 1_555
O7 W2 1.746916 1_555
O8 W3 1.931491 1_545
O8 W1 1.951285 1_555
O9 W2 1.800930 1_555
O9 W2 2.062025 1_455
O10 W2 1.892186 1_454
O10 W1 2.151173 1_555
O10 W3 2.291488 1_545
O11 W3 1.746916 1_555
O12 W2 1.931496 1_565
O12 W0 1.951270 1_555
