# generated using pymatgen
data_KMgAl(MoO4)2
_symmetry_space_group_name_H-M   'P 1'
_cell_length_a   5.55122300
_cell_length_b   5.55122313
_cell_length_c   6.90583300
_cell_angle_alpha   90.00000000
_cell_angle_beta   90.00000000
_cell_angle_gamma   120.00000519
_symmetry_Int_Tables_number   1
_chemical_formula_structural   KMgAl(MoO4)2
_chemical_formula_sum   'K1 Mg1 Al1 Mo2 O8'
_cell_volume   184.29944976
_cell_formula_units_Z   1
loop_
 _symmetry_equiv_pos_site_id
 _symmetry_equiv_pos_as_xyz
  1  'x, y, z'
loop_
 _atom_site_type_symbol
 _atom_site_label
 _atom_site_symmetry_multiplicity
 _atom_site_fract_x
 _atom_site_fract_y
 _atom_site_fract_z
 _atom_site_occupancy
  K  K0  1  0.00000000  0.00000000  0.49853500  1
  Mg  Mg0  1  0.66666700  0.33333300  0.16204800  1
  Al  Al0  1  0.00000000  0.00000000  0.01542600  1
  Mo  Mo0  1  0.33333300  0.66666700  0.29941400  1
  Mo  Mo1  1  0.66666700  0.33333300  0.71896800  1
  O  O0  1  0.33075100  0.16537600  0.83382500  1
  O  O1  1  0.83462400  0.16537600  0.83382500  1
  O  O2  1  0.83462400  0.66924900  0.83382500  1
  O  O3  1  0.15727000  0.84273000  0.15897900  1
  O  O4  1  0.33333300  0.66666700  0.56190600  1
  O  O5  1  0.66666700  0.33333300  0.45047700  1
  O  O6  1  0.15727000  0.31454000  0.15897900  1
  O  O7  1  0.68546000  0.84273000  0.15897900  1
loop_
_geom_bond_atom_site_label_1
_geom_bond_atom_site_label_2
_geom_bond_distance
_geom_bond_site_symmetry_2
K0 O7 2.790204 1_445
K0 O6 2.790204 1_555
K0 O3 2.790204 1_545
K0 O0 2.808863 1_555
K0 O2 2.808863 1_445
K0 O1 2.808866 1_455
K0 O5 3.222134 1_455
K0 O5 3.222139 1_555
K0 O5 3.222139 1_445
K0 O4 3.234737 1_545
K0 O4 3.234742 1_445
K0 O4 3.234742 1_555
Mg0 O5 1.991843 1_555
Al0 O7 1.808143 1_445
Al0 O6 1.808143 1_555
Al0 O3 1.808143 1_545
Al0 O0 2.025131 1_554
Al0 O2 2.025131 1_444
Al0 O1 2.025134 1_454
Mo0 O4 1.812726 1_555
Mo0 O3 1.950969 1_555
Mo0 O7 1.950973 1_555
Mo0 O6 1.950973 1_555
Mo1 O1 1.799184 1_555
Mo1 O0 1.799193 1_555
Mo1 O2 1.799193 1_555
Mo1 O5 1.854154 1_555
