# generated using pymatgen
data_BaYMgFeCuO5
_symmetry_space_group_name_H-M   'P 1'
_cell_length_a   4.50879139
_cell_length_b   4.50879139
_cell_length_c   8.29055463
_cell_angle_alpha   86.50386217
_cell_angle_beta   86.50386217
_cell_angle_gamma   82.73665573
_symmetry_Int_Tables_number   1
_chemical_formula_structural   BaYMgFeCuO5
_chemical_formula_sum   'Ba1 Y1 Mg1 Fe1 Cu1 O5'
_cell_volume   166.63503886
_cell_formula_units_Z   1
loop_
 _symmetry_equiv_pos_site_id
 _symmetry_equiv_pos_as_xyz
  1  'x, y, z'
loop_
 _atom_site_type_symbol
 _atom_site_label
 _atom_site_symmetry_multiplicity
 _atom_site_fract_x
 _atom_site_fract_y
 _atom_site_fract_z
 _atom_site_occupancy
  Ba  Ba0  1  0.88138185  0.88138185  0.07891393  1
  Y  Y0  1  0.13817477  0.13817477  0.50582279  1
  Mg  Mg0  1  0.58442229  0.58442229  0.41899793  1
  Fe  Fe0  1  0.46055580  0.46055580  0.75730563  1
  Cu  Cu0  1  0.33479226  0.33479226  0.16061450  1
  O  O0  1  0.20535098  0.64646563  0.58928319  1
  O  O1  1  0.64646563  0.20535098  0.58928319  1
  O  O2  1  0.94781243  0.42113319  0.29390169  1
  O  O3  1  0.42113319  0.94781243  0.29390169  1
  O  O4  1  0.51323880  0.51323880  0.97489346  1
loop_
_geom_bond_atom_site_label_1
_geom_bond_atom_site_label_2
_geom_bond_distance
_geom_bond_site_symmetry_2
Ba0 O2 2.651358 1_555
Ba0 O3 2.651358 1_555
Ba0 O4 2.701845 1_554
Ba0 O4 3.208490 1_564
Ba0 O4 3.208490 1_654
Mg0 O3 1.970541 1_555
Mg0 O2 1.970541 1_555
Mg0 O1 2.150700 1_555
Mg0 O0 2.150700 1_555
Fe0 O4 1.867024 1_555
Fe0 O0 1.943270 1_555
Fe0 O1 1.943270 1_555
Cu0 O4 1.878022 1_554
Cu0 O3 2.015578 1_545
Cu0 O2 2.015578 1_455
O0 Y0 2.270316 1_565
O0 Y0 2.493439 1_555
O1 Y0 2.270316 1_655
O1 Y0 2.493439 1_555
O2 Y0 2.254962 1_655
O3 Y0 2.254962 1_565
