# generated using pymatgen
data_GeO2
_symmetry_space_group_name_H-M   'P 1'
_cell_length_a   4.76617600
_cell_length_b   4.76617600
_cell_length_c   4.76617600
_cell_angle_alpha   90.00000000
_cell_angle_beta   90.00000000
_cell_angle_gamma   90.00000000
_symmetry_Int_Tables_number   1
_chemical_formula_structural   GeO2
_chemical_formula_sum   'Ge4 O8'
_cell_volume   108.27052093
_cell_formula_units_Z   4
loop_
 _symmetry_equiv_pos_site_id
 _symmetry_equiv_pos_as_xyz
  1  'x, y, z'
loop_
 _atom_site_type_symbol
 _atom_site_label
 _atom_site_symmetry_multiplicity
 _atom_site_fract_x
 _atom_site_fract_y
 _atom_site_fract_z
 _atom_site_occupancy
  Ge  Ge0  1  0.00000000  0.50000000  0.50000000  1
  Ge  Ge1  1  0.50000000  0.50000000  0.00000000  1
  Ge  Ge2  1  0.50000000  0.00000000  0.50000000  1
  Ge  Ge3  1  0.00000000  0.00000000  0.00000000  1
  O  O0  1  0.34314800  0.15685200  0.84314800  1
  O  O1  1  0.15685200  0.84314800  0.34314800  1
  O  O2  1  0.84314800  0.34314800  0.15685200  1
  O  O3  1  0.65685200  0.65685200  0.65685200  1
  O  O4  1  0.34314800  0.34314800  0.34314800  1
  O  O5  1  0.15685200  0.65685200  0.84314800  1
  O  O6  1  0.84314800  0.15685200  0.65685200  1
  O  O7  1  0.65685200  0.84314800  0.15685200  1
loop_
_geom_bond_atom_site_label_1
_geom_bond_atom_site_label_2
_geom_bond_distance
_geom_bond_site_symmetry_2
Ge0 O5 1.947469 1_555
Ge0 O6 1.947469 1_455
Ge0 O3 1.947469 1_455
Ge0 O4 1.947469 1_555
Ge0 O2 1.947469 1_455
Ge0 O1 1.947469 1_555
Ge1 O5 1.947469 1_554
Ge1 O0 1.947469 1_554
Ge1 O3 1.947469 1_554
Ge1 O2 1.947469 1_555
Ge1 O7 1.947469 1_555
Ge1 O4 1.947469 1_555
Ge2 O3 1.947469 1_545
Ge2 O7 1.947469 1_545
Ge2 O1 1.947469 1_545
Ge2 O0 1.947469 1_555
Ge2 O6 1.947469 1_555
Ge2 O4 1.947469 1_555
Ge3 O7 1.947469 1_445
Ge3 O6 1.947469 1_454
Ge3 O1 1.947469 1_545
Ge3 O0 1.947469 1_554
Ge3 O5 1.947469 1_544
Ge3 O2 1.947469 1_455
