# generated using pymatgen
data_LiFePO4
_symmetry_space_group_name_H-M   'P 1'
_cell_length_a   7.43721155
_cell_length_b   7.43721155
_cell_length_c   9.61615200
_cell_angle_alpha   90.00000000
_cell_angle_beta   90.00000000
_cell_angle_gamma   119.99999595
_symmetry_Int_Tables_number   1
_chemical_formula_structural   LiFePO4
_chemical_formula_sum   'Li6 Fe6 P6 O24'
_cell_volume   460.63002028
_cell_formula_units_Z   6
loop_
 _symmetry_equiv_pos_site_id
 _symmetry_equiv_pos_as_xyz
  1  'x, y, z'
loop_
 _atom_site_type_symbol
 _atom_site_label
 _atom_site_symmetry_multiplicity
 _atom_site_fract_x
 _atom_site_fract_y
 _atom_site_fract_z
 _atom_site_occupancy
  Li  Li0  1  0.20641000  0.94879200  0.25876100  1
  Li  Li1  1  0.94879200  0.20641000  0.75876100  1
  Li  Li2  1  0.79359000  0.74238200  0.75876100  1
  Li  Li3  1  0.74238200  0.79359000  0.25876100  1
  Li  Li4  1  0.25761800  0.05120800  0.75876100  1
  Li  Li5  1  0.05120800  0.25761800  0.25876100  1
  Fe  Fe0  1  0.92707500  0.52332400  0.98550100  1
  Fe  Fe1  1  0.59624900  0.07292500  0.98550100  1
  Fe  Fe2  1  0.47667600  0.40375100  0.98550100  1
  Fe  Fe3  1  0.40375100  0.47667600  0.48550100  1
  Fe  Fe4  1  0.52332400  0.92707500  0.48550100  1
  Fe  Fe5  1  0.07292500  0.59624900  0.48550100  1
  P  P0  1  0.33333300  0.66666700  0.17744100  1
  P  P1  1  0.00000000  0.00000000  0.50713900  1
  P  P2  1  0.33333300  0.66666700  0.78693300  1
  P  P3  1  0.00000000  0.00000000  0.00713900  1
  P  P4  1  0.66666700  0.33333300  0.28693300  1
  P  P5  1  0.66666700  0.33333300  0.67744100  1
  O  O0  1  0.54964300  0.83885700  0.12943600  1
  O  O1  1  0.66666700  0.33333300  0.11855700  1
  O  O2  1  0.89799900  0.77449300  0.94905000  1
  O  O3  1  0.83885700  0.54964300  0.62943600  1
  O  O4  1  0.71078600  0.16114300  0.62943600  1
  O  O5  1  0.88590100  0.38528900  0.33249900  1
  O  O6  1  0.10200100  0.87649300  0.44905000  1
  O  O7  1  0.16114300  0.71078600  0.12943600  1
  O  O8  1  0.11409900  0.49938700  0.83249900  1
  O  O9  1  0.38528900  0.88590100  0.83249900  1
  O  O10  1  0.33333300  0.66666700  0.34378700  1
  O  O11  1  0.66666700  0.33333300  0.84378700  1
  O  O12  1  0.33333300  0.66666700  0.61855700  1
  O  O13  1  0.12350700  0.22550700  0.44905000  1
  O  O14  1  0.28921400  0.45035700  0.12943600  1
  O  O15  1  0.00000000  0.00000000  0.66752300  1
  O  O16  1  0.22550700  0.12350700  0.94905000  1
  O  O17  1  0.50061300  0.61471100  0.83249900  1
  O  O18  1  0.45035700  0.28921400  0.62943600  1
  O  O19  1  0.77449300  0.89799900  0.44905000  1
  O  O20  1  0.61471100  0.50061300  0.33249900  1
  O  O21  1  0.49938700  0.11409900  0.33249900  1
  O  O22  1  0.00000000  0.00000000  0.16752300  1
  O  O23  1  0.87649300  0.10200100  0.94905000  1
loop_
_geom_bond_atom_site_label_1
_geom_bond_atom_site_label_2
_geom_bond_distance
_geom_bond_site_symmetry_2
Li0 O6 1.955225 1_555
Li0 O22 1.963675 1_565
Li0 O21 2.020689 1_565
Li0 O7 2.048716 1_555
Li1 O23 1.955225 1_555
Li1 O15 1.963675 1_655
Li1 O8 2.020689 1_655
Li1 O4 2.048716 1_555
Li2 O2 1.955225 1_555
Li2 O15 1.963675 1_665
Li2 O17 2.020689 1_555
Li2 O3 2.048716 1_555
Li3 O19 1.955225 1_555
Li3 O22 1.963675 1_665
Li3 O20 2.020689 1_555
Li3 O0 2.048716 1_555
Li4 O16 1.955227 1_555
Li4 O15 1.963675 1_555
Li4 O9 2.020695 1_545
Li4 O18 2.048716 1_555
Li5 O13 1.955227 1_555
Li5 O22 1.963675 1_555
Li5 O5 2.020695 1_455
Li5 O14 2.048716 1_555
Fe0 O2 2.015684 1_555
Fe0 O8 2.092538 1_655
Fe0 O7 2.112561 1_656
Fe0 O1 2.155906 1_556
Fe0 O11 2.206335 1_555
Fe1 O23 2.015677 1_555
Fe1 O9 2.092535 1_545
Fe1 O0 2.112561 1_546
Fe1 O1 2.155905 1_556
Fe1 O11 2.206334 1_555
Fe2 O16 2.015680 1_555
Fe2 O17 2.092533 1_555
Fe2 O14 2.112561 1_556
Fe2 O1 2.155910 1_556
Fe2 O11 2.206339 1_555
Fe3 O13 2.015680 1_555
Fe3 O20 2.092533 1_555
Fe3 O18 2.112561 1_555
Fe3 O12 2.155910 1_555
Fe3 O10 2.206339 1_555
Fe4 O19 2.015684 1_555
Fe4 O21 2.092538 1_565
Fe4 O4 2.112561 1_565
Fe4 O12 2.155906 1_555
Fe4 O10 2.206335 1_555
Fe5 O6 2.015677 1_555
Fe5 O5 2.092535 1_455
Fe5 O3 2.112561 1_455
Fe5 O12 2.155905 1_555
Fe5 O10 2.206334 1_555
O0 P0 1.543031 1_555
O1 P4 1.619129 1_555
O2 P3 1.558213 1_666
O3 P5 1.543031 1_555
O4 P5 1.543026 1_555
O5 P4 1.539405 1_555
O6 P1 1.558219 1_565
O7 P0 1.543026 1_555
O8 P2 1.539409 1_555
O9 P2 1.539405 1_555
O10 P0 1.599608 1_555
O11 P5 1.599608 1_555
O12 P2 1.619129 1_555
O13 P1 1.558213 1_555
O14 P0 1.543033 1_555
O15 P1 1.542277 1_555
O16 P3 1.558213 1_556
O17 P2 1.539418 1_555
O18 P5 1.543033 1_555
O19 P1 1.558213 1_665
O20 P4 1.539418 1_555
O21 P4 1.539409 1_555
O22 P3 1.542277 1_555
O23 P3 1.558219 1_656
