# generated using pymatgen
data_Na10LaTa7(SiO4)12
_symmetry_space_group_name_H-M   'P 1'
_cell_length_a   18.19425295
_cell_length_b   9.11085301
_cell_length_c   22.65296056
_cell_angle_alpha   89.98130817
_cell_angle_beta   90.00361212
_cell_angle_gamma   120.15822510
_symmetry_Int_Tables_number   1
_chemical_formula_structural   Na10LaTa7(SiO4)12
_chemical_formula_sum   'Na30 La3 Ta21 Si36 O144'
_cell_volume   3246.79001478
_cell_formula_units_Z   3
loop_
 _symmetry_equiv_pos_site_id
 _symmetry_equiv_pos_as_xyz
  1  'x, y, z'
loop_
 _atom_site_type_symbol
 _atom_site_label
 _atom_site_symmetry_multiplicity
 _atom_site_fract_x
 _atom_site_fract_y
 _atom_site_fract_z
 _atom_site_occupancy
  Na  Na0  1  0.81361873  0.00768387  0.24925426  1
  Na  Na1  1  0.18645952  0.36903260  0.24833740  1
  Na  Na2  1  0.68581042  0.36566994  0.24847096  1
  Na  Na3  1  0.99709903  0.62349521  0.24917968  1
  Na  Na4  1  0.31465462  0.62034318  0.75059288  1
  Na  Na5  1  0.81499010  0.62089192  0.74971885  1
  Na  Na6  1  0.99495123  0.36844385  0.74960826  1
  Na  Na7  1  0.49485481  0.36755447  0.74977154  1
  Na  Na8  1  0.19027134  0.01121205  0.75065475  1
  Na  Na9  1  0.69035921  0.01180946  0.74966011  1
  Na  Na10  1  0.15563501  0.34001159  0.58292232  1
  Na  Na11  1  0.65711649  0.33995963  0.58198932  1
  Na  Na12  1  0.33109667  0.97260147  0.58195415  1
  Na  Na13  1  0.83159764  0.97430168  0.58151751  1
  Na  Na14  1  0.65070313  0.96521884  0.08401217  1
  Na  Na15  1  0.82940696  0.68676644  0.08173204  1
  Na  Na16  1  0.01898204  0.34229933  0.08091213  1
  Na  Na17  1  0.48474953  0.30127694  0.41614551  1
  Na  Na18  1  0.99971457  0.98942125  0.49731046  1
  Na  Na19  1  0.50177391  0.98135334  0.49822177  1
  Na  Na20  1  0.00744646  0.00102970  0.99824374  1
  Na  Na21  1  0.49255801  0.99930592  0.00009715  1
  Na  Na22  1  0.33268583  0.33272793  0.83636917  1
  Na  Na23  1  0.83371921  0.33337262  0.83475243  1
  Na  Na24  1  0.33345318  0.33315192  0.33139020  1
  Na  Na25  1  0.83263849  0.33197610  0.33375998  1
  Na  Na26  1  0.17696403  0.69121029  0.16310620  1
  Na  Na27  1  0.65535300  0.65087035  0.16530048  1
  Na  Na28  1  0.15901064  0.66584559  0.66469513  1
  Na  Na29  1  0.65973710  0.66683839  0.66420042  1
  La  La0  1  0.33512047  0.33611071  0.67826998  1
  La  La1  1  0.83545332  0.33678635  0.67710224  1
  La  La2  1  0.83185499  0.33254474  0.17850574  1
  Ta  Ta0  1  0.00312330  0.00317103  0.35745419  1
  Ta  Ta1  1  0.49592946  0.99308964  0.35481986  1
  Ta  Ta2  1  0.00008222  0.00085117  0.86035207  1
  Ta  Ta3  1  0.50010629  0.00000528  0.85978789  1
  Ta  Ta4  1  0.99968401  0.99664041  0.64572651  1
  Ta  Ta5  1  0.50017845  0.99744695  0.64577678  1
  Ta  Ta6  1  0.00372183  0.00174503  0.14520639  1
  Ta  Ta7  1  0.49571016  0.99640709  0.14442018  1
  Ta  Ta8  1  0.33686930  0.33403370  0.18702971  1
  Ta  Ta9  1  0.33272871  0.33269171  0.97761130  1
  Ta  Ta10  1  0.83384474  0.33493418  0.97933446  1
  Ta  Ta11  1  0.33091556  0.33525208  0.48001112  1
  Ta  Ta12  1  0.83419033  0.33351886  0.47896266  1
  Ta  Ta13  1  0.17353766  0.67612141  0.01971427  1
  Ta  Ta14  1  0.66060741  0.65888302  0.01651989  1
  Ta  Ta15  1  0.16461168  0.66611793  0.51388412  1
  Ta  Ta16  1  0.66573762  0.66838753  0.51363650  1
  Ta  Ta17  1  0.16996309  0.67139035  0.31189090  1
  Ta  Ta18  1  0.66368717  0.66554768  0.31186078  1
  Ta  Ta19  1  0.16686634  0.66660928  0.81521330  1
  Ta  Ta20  1  0.66670874  0.66663292  0.81470803  1
  Si  Si0  1  0.14588285  0.99952029  0.25115601  1
  Si  Si1  1  0.63816933  0.98935336  0.25058586  1
  Si  Si2  1  0.35559435  0.71002560  0.25010889  1
  Si  Si3  1  0.85596109  0.71996948  0.25188942  1
  Si  Si4  1  0.00420048  0.29062117  0.25236204  1
  Si  Si5  1  0.49819961  0.28412571  0.25078086  1
  Si  Si6  1  0.13969199  0.28928897  0.75275391  1
  Si  Si7  1  0.64033034  0.28991575  0.75256751  1
  Si  Si8  1  0.00468307  0.72055266  0.75417001  1
  Si  Si9  1  0.50489624  0.72054681  0.75387741  1
  Si  Si10  1  0.35517686  0.99068526  0.75275654  1
  Si  Si11  1  0.85542524  0.99135500  0.75306973  1
  Si  Si12  1  0.48642633  0.33721665  0.58247108  1
  Si  Si13  1  0.98594528  0.33703471  0.58350756  1
  Si  Si14  1  0.18136975  0.02638180  0.58296846  1
  Si  Si15  1  0.68232246  0.02829241  0.58266458  1
  Si  Si16  1  0.33260337  0.63628751  0.58228637  1
  Si  Si17  1  0.83287345  0.63458937  0.58150291  1
  Si  Si18  1  0.47613383  0.62122485  0.08206516  1
  Si  Si19  1  0.98636163  0.63630293  0.08278771  1
  Si  Si20  1  0.33359598  0.04873027  0.08258918  1
  Si  Si21  1  0.83227223  0.02948212  0.08237987  1
  Si  Si22  1  0.19251604  0.33898661  0.08415363  1
  Si  Si23  1  0.68015649  0.33137302  0.08227919  1
  Si  Si24  1  0.31238066  0.66219139  0.91626066  1
  Si  Si25  1  0.81073501  0.66329363  0.91710345  1
  Si  Si26  1  0.02260800  0.37964427  0.91938700  1
  Si  Si27  1  0.51699441  0.37365264  0.91421245  1
  Si  Si28  1  0.16870661  0.95903062  0.91644085  1
  Si  Si29  1  0.66815527  0.96066910  0.91734296  1
  Si  Si30  1  0.31155698  0.96122336  0.41603768  1
  Si  Si31  1  0.81303533  0.96067868  0.41413134  1
  Si  Si32  1  0.16862284  0.37673018  0.41484610  1
  Si  Si33  1  0.66918768  0.37482336  0.41361094  1
  Si  Si34  1  0.01970731  0.66150551  0.41266758  1
  Si  Si35  1  0.51888954  0.66732702  0.41505638  1
  O  O0  1  0.09982249  0.02615436  0.30860735  1
  O  O1  1  0.58504876  0.00931035  0.30579622  1
  O  O2  1  0.41068867  0.80513141  0.30928418  1
  O  O3  1  0.91870915  0.82693002  0.30650906  1
  O  O4  1  0.48502402  0.17200573  0.31087932  1
  O  O5  1  0.00026850  0.17496108  0.30832525  1
  O  O6  1  0.08780181  0.17099496  0.80874278  1
  O  O7  1  0.58828912  0.17118345  0.80824483  1
  O  O8  1  0.49775073  0.82199638  0.81005968  1
  O  O9  1  0.99749417  0.82264394  0.81029388  1
  O  O10  1  0.41440253  0.00379339  0.80827935  1
  O  O11  1  0.91410415  0.00385796  0.80896788  1
  O  O12  1  0.40194159  0.97457333  0.69109578  1
  O  O13  1  0.90201792  0.97468447  0.69154136  1
  O  O14  1  0.08495847  0.19656457  0.69113031  1
  O  O15  1  0.58510072  0.19730644  0.69094724  1
  O  O16  1  0.01274128  0.83528230  0.69398875  1
  O  O17  1  0.51285136  0.83540979  0.69385817  1
  O  O18  1  0.40393000  0.82980279  0.19300155  1
  O  O19  1  0.90189410  0.83084387  0.19069937  1
  O  O20  1  0.01311704  0.19598340  0.19180545  1
  O  O21  1  0.51449397  0.18863052  0.19497224  1
  O  O22  1  0.08206176  0.96983924  0.19410684  1
  O  O23  1  0.58725438  0.97759962  0.18918899  1
  O  O24  1  0.46339075  0.37867513  0.64652064  1
  O  O25  1  0.96495822  0.37932805  0.64821306  1
  O  O26  1  0.23236148  0.07102401  0.64484603  1
  O  O27  1  0.73211070  0.07021771  0.64519113  1
  O  O28  1  0.30226000  0.53382536  0.64393934  1
  O  O29  1  0.80207806  0.53506369  0.64390722  1
  O  O30  1  0.42980857  0.50216807  0.14061341  1
  O  O31  1  0.96297636  0.53846754  0.14570594  1
  O  O32  1  0.32049478  0.14246828  0.14080173  1
  O  O33  1  0.80425379  0.07143018  0.14509131  1
  O  O34  1  0.24816466  0.36046282  0.14422095  1
  O  O35  1  0.73057096  0.39271838  0.14470552  1
  O  O36  1  0.23823178  0.30944084  0.02713649  1
  O  O37  1  0.73864068  0.30454153  0.03217076  1
  O  O38  1  0.41724277  0.52575072  0.02496995  1
  O  O39  1  0.91370263  0.52571955  0.03216812  1
  O  O40  1  0.34687595  0.16796362  0.02540772  1
  O  O41  1  0.84841704  0.17341168  0.03206162  1
  O  O42  1  0.23876070  0.16999052  0.53152484  1
  O  O43  1  0.73814789  0.17128859  0.53177588  1
  O  O44  1  0.34455379  0.52199716  0.53035124  1
  O  O45  1  0.84478989  0.52078946  0.53024468  1
  O  O46  1  0.41693622  0.30712817  0.52949612  1
  O  O47  1  0.91365383  0.30503418  0.53313151  1
  O  O48  1  0.26435379  0.68849084  0.97261974  1
  O  O49  1  0.76022955  0.68508576  0.97269555  1
  O  O50  1  0.08318909  0.47129711  0.97649594  1
  O  O51  1  0.57887789  0.47818177  0.96930550  1
  O  O52  1  0.15955518  0.83450476  0.97109266  1
  O  O53  1  0.65385154  0.84141875  0.97505151  1
  O  O54  1  0.26591522  0.84562150  0.47368763  1
  O  O55  1  0.76486815  0.83994424  0.47099236  1
  O  O56  1  0.15908335  0.47320383  0.47216200  1
  O  O57  1  0.65294040  0.46936290  0.46949549  1
  O  O58  1  0.08200365  0.68447439  0.46795081  1
  O  O59  1  0.57967733  0.68813903  0.47087049  1
  O  O60  1  0.06650463  0.63746355  0.35380698  1
  O  O61  1  0.56678313  0.63375713  0.35892428  1
  O  O62  1  0.25109142  0.86132671  0.35875020  1
  O  O63  1  0.75136296  0.86328974  0.35640357  1
  O  O64  1  0.18036206  0.49536570  0.35649328  1
  O  O65  1  0.67994841  0.49331363  0.35521432  1
  O  O66  1  0.06886872  0.49799408  0.85952242  1
  O  O67  1  0.56627406  0.49320660  0.85535683  1
  O  O68  1  0.18004552  0.86511899  0.85651888  1
  O  O69  1  0.68015613  0.86304986  0.85880113  1
  O  O70  1  0.25273235  0.64027351  0.85706342  1
  O  O71  1  0.75173857  0.63835832  0.85743308  1
  O  O72  1  0.01135256  0.83153583  0.40839606  1
  O  O73  1  0.50784127  0.83338614  0.41038739  1
  O  O74  1  0.40760531  0.98797676  0.41143121  1
  O  O75  1  0.90772645  0.98161499  0.40877766  1
  O  O76  1  0.08506447  0.18710066  0.41168727  1
  O  O77  1  0.58090984  0.18926359  0.40822324  1
  O  O78  1  0.01049062  0.18932580  0.91190162  1
  O  O79  1  0.50982872  0.18796383  0.91089263  1
  O  O80  1  0.08355691  0.97710656  0.91193913  1
  O  O81  1  0.58484323  0.98264683  0.91096318  1
  O  O82  1  0.40620525  0.83261535  0.91112179  1
  O  O83  1  0.90528812  0.83206825  0.91205956  1
  O  O84  1  0.48868337  0.15730245  0.58577380  1
  O  O85  1  0.98863156  0.15755603  0.58645058  1
  O  O86  1  0.09259449  0.03084257  0.58768028  1
  O  O87  1  0.59242760  0.02926505  0.58796272  1
  O  O88  1  0.41937429  0.82225473  0.58727636  1
  O  O89  1  0.91891351  0.82234941  0.58750202  1
  O  O90  1  0.48802111  0.81184387  0.09042674  1
  O  O91  1  0.98712479  0.81828441  0.08736534  1
  O  O92  1  0.41782087  0.02821624  0.09232254  1
  O  O93  1  0.92185554  0.02462517  0.08697575  1
  O  O94  1  0.09524961  0.17048627  0.09236662  1
  O  O95  1  0.59063298  0.15019265  0.08647410  1
  O  O96  1  0.34470676  0.15617715  0.75340740  1
  O  O97  1  0.84472431  0.15657825  0.75359783  1
  O  O98  1  0.23319227  0.31063533  0.75295342  1
  O  O99  1  0.73380729  0.31095593  0.75261026  1
  O  O100  1  0.42188271  0.53402288  0.75333091  1
  O  O101  1  0.92131746  0.53415469  0.75351005  1
  O  O102  1  0.34226675  0.51815025  0.24471390  1
  O  O103  1  0.84553294  0.53363342  0.25379276  1
  O  O104  1  0.41580544  0.30977453  0.24300991  1
  O  O105  1  0.92014633  0.30696927  0.25401779  1
  O  O106  1  0.23803013  0.17293274  0.24332755  1
  O  O107  1  0.73191627  0.15620962  0.25453184  1
  O  O108  1  0.31938299  0.49199336  0.92237502  1
  O  O109  1  0.81927549  0.49338214  0.92585325  1
  O  O110  1  0.42469543  0.35796394  0.92126669  1
  O  O111  1  0.92877903  0.36381886  0.92705314  1
  O  O112  1  0.25267172  0.14609148  0.92307640  1
  O  O113  1  0.75432039  0.14666229  0.92556306  1
  O  O114  1  0.32399006  0.15222685  0.42392920  1
  O  O115  1  0.82087437  0.14631554  0.42535543  1
  O  O116  1  0.25409701  0.35940860  0.42405567  1
  O  O117  1  0.75251390  0.35522184  0.42448847  1
  O  O118  1  0.42757273  0.49064022  0.42432106  1
  O  O119  1  0.92666472  0.49255451  0.42486178  1
  O  O120  1  0.17644332  0.50140272  0.07783276  1
  O  O121  1  0.66792237  0.49297051  0.06724026  1
  O  O122  1  0.07815716  0.65463726  0.06872349  1
  O  O123  1  0.57419593  0.65406664  0.07646261  1
  O  O124  1  0.25070475  0.85733598  0.07620981  1
  O  O125  1  0.75189828  0.83900596  0.06887972  1
  O  O126  1  0.16838999  0.84097404  0.56746548  1
  O  O127  1  0.67000947  0.84240367  0.56730794  1
  O  O128  1  0.25358632  0.66805665  0.56795555  1
  O  O129  1  0.75363661  0.66637976  0.56649223  1
  O  O130  1  0.08240826  0.49071260  0.56929921  1
  O  O131  1  0.58328945  0.49056754  0.56906512  1
  O  O132  1  0.15109067  0.82446249  0.25563018  1
  O  O133  1  0.64764354  0.81841318  0.25679908  1
  O  O134  1  0.26004919  0.68883571  0.25582555  1
  O  O135  1  0.76131573  0.70590012  0.25565526  1
  O  O136  1  0.09153696  0.47967258  0.25462161  1
  O  O137  1  0.58737429  0.47042805  0.25667840  1
  O  O138  1  0.14471906  0.47611835  0.75571206  1
  O  O139  1  0.64593948  0.47736476  0.75529039  1
  O  O140  1  0.09243178  0.70848458  0.75554342  1
  O  O141  1  0.59332359  0.71064687  0.75535113  1
  O  O142  1  0.26133917  0.81392203  0.75522792  1
  O  O143  1  0.76151071  0.81448041  0.75562817  1
loop_
_geom_bond_atom_site_label_1
_geom_bond_atom_site_label_2
_geom_bond_distance
_geom_bond_site_symmetry_2
Na0 O135 2.420159 1_545
Na0 O105 2.427616 1_555
Na0 O33 2.456122 1_555
Na0 O107 2.465045 1_555
Na0 O133 2.624802 1_545
Na0 O63 2.721441 1_545
Na1 O136 2.401752 1_555
Na1 O106 2.402057 1_555
Na1 O102 2.453324 1_555
Na1 O134 2.528137 1_555
Na1 O34 2.630166 1_555
Na1 O64 2.733137 1_555
Na2 O137 2.422971 1_555
Na2 O107 2.443911 1_555
Na2 O35 2.459158 1_555
Na2 O103 2.516564 1_555
Na2 O135 2.691462 1_555
Na2 O65 2.708743 1_555
Na2 O21 2.955520 1_555
Na3 O31 2.448997 1_555
Na3 O103 2.453002 1_555
Na3 O132 2.463605 1_655
Na3 O105 2.496316 1_555
Na3 O136 2.635643 1_655
Na3 O60 2.658312 1_655
Na4 O142 2.404506 1_555
Na4 O98 2.441182 1_555
Na4 O100 2.443379 1_555
Na4 O28 2.516328 1_555
Na4 O138 2.686525 1_555
Na4 O70 2.706581 1_555
Na5 O143 2.408331 1_555
Na5 O101 2.431123 1_555
Na5 O99 2.443113 1_555
Na5 O29 2.495714 1_555
Na5 O139 2.672981 1_555
Na5 O71 2.736446 1_555
Na6 O25 2.374330 1_555
Na6 O138 2.391810 1_655
Na6 O97 2.429737 1_555
Na6 O101 2.472743 1_555
Na6 O140 2.690905 1_655
Na6 O66 2.794256 1_655
Na7 O139 2.410312 1_555
Na7 O24 2.422100 1_555
Na7 O96 2.427394 1_555
Na7 O100 2.468372 1_555
Na7 O67 2.688227 1_555
Na7 O141 2.714771 1_555
Na8 O140 2.419677 1_545
Na8 O98 2.431893 1_555
Na8 O96 2.432006 1_555
Na8 O26 2.491689 1_555
Na8 O142 2.692349 1_545
Na8 O68 2.703048 1_545
Na9 O141 2.407216 1_545
Na9 O99 2.427532 1_555
Na9 O97 2.431784 1_555
Na9 O27 2.460475 1_555
Na9 O143 2.695306 1_545
Na9 O69 2.780115 1_545
Na10 O130 2.364981 1_555
Na10 O86 2.452566 1_555
Na10 O128 2.621312 1_555
Na10 O85 2.631927 1_455
Na10 O28 2.722739 1_555
Na10 O14 2.771252 1_555
Na10 O56 2.773692 1_555
Na10 O42 2.897910 1_555
Na11 O131 2.371592 1_555
Na11 O87 2.463453 1_555
Na11 O129 2.608344 1_555
Na11 O84 2.654007 1_555
Na11 O29 2.715476 1_555
Na11 O15 2.790223 1_555
Na11 O57 2.824483 1_555
Na11 O43 2.847245 1_555
Na12 O128 2.420117 1_555
Na12 O84 2.492408 1_565
Na12 O88 2.584766 1_555
Na12 O126 2.596624 1_555
Na12 O54 2.717131 1_555
Na12 O26 2.771399 1_565
Na12 O12 2.784025 1_555
Na12 O46 2.890606 1_565
Na13 O129 2.449587 1_555
Na13 O85 2.483989 1_565
Na13 O127 2.577097 1_555
Na13 O89 2.582342 1_555
Na13 O27 2.776887 1_565
Na13 O55 2.783778 1_555
Na13 O13 2.801535 1_555
Na13 O47 2.826291 1_565
Na14 O95 2.426623 1_565
Na14 O123 2.457367 1_555
Na14 O90 2.564906 1_555
Na14 O125 2.637675 1_555
Na14 O23 2.674575 1_555
Na14 O53 2.726658 1_554
Na14 O33 2.817769 1_565
Na14 O37 2.919659 1_565
Na15 O125 2.441795 1_555
Na15 O91 2.496323 1_555
Na15 O121 2.577885 1_555
Na15 O93 2.667660 1_565
Na15 O35 2.757379 1_555
Na15 O49 2.768673 1_554
Na15 O19 2.796040 1_555
Na15 O39 2.833396 1_555
Na16 O120 2.478098 1_555
Na16 O122 2.500864 1_555
Na16 O93 2.525718 1_455
Na16 O94 2.573991 1_555
Na16 O50 2.638143 1_554
Na16 O20 2.820251 1_555
Na16 O31 2.866839 1_455
Na16 O41 2.902666 1_455
Na17 O118 2.428293 1_555
Na17 O77 2.434927 1_555
Na17 O74 2.470593 1_545
Na17 O114 2.537559 1_555
Na17 O4 2.661050 1_555
Na17 O46 2.860932 1_555
Na17 O57 2.908968 1_555
Na17 O61 2.922108 1_555
Na18 O89 2.530298 1_555
Na18 O72 2.545372 1_655
Na18 O86 2.558945 1_665
Na18 O76 2.570060 1_665
Na18 O75 2.590058 1_555
Na18 O85 2.603304 1_565
Na19 O73 2.437176 1_555
Na19 O88 2.496674 1_555
Na19 O87 2.514040 1_565
Na19 O74 2.628292 1_555
Na19 O84 2.635484 1_565
Na19 O77 2.659908 1_565
Na20 O80 2.468042 1_545
Na20 O91 2.522698 1_446
Na20 O78 2.583419 1_555
Na20 O83 2.600502 1_445
Na20 O93 2.616983 1_456
Na20 O94 2.646755 1_556
Na21 O95 2.537542 1_565
Na21 O82 2.538004 1_554
Na21 O79 2.567426 1_564
Na21 O92 2.577529 1_565
Na21 O90 2.639512 1_555
Na21 O81 2.678793 1_554
Na22 O110 2.483356 1_555
Na22 O108 2.512910 1_555
Na22 O112 2.525794 1_555
Na22 O98 2.553768 1_555
Na22 O96 2.553936 1_555
Na22 O100 2.557960 1_555
Na23 O97 2.518000 1_555
Na23 O101 2.518374 1_555
Na23 O99 2.536812 1_555
Na23 O113 2.596404 1_555
Na23 O109 2.615368 1_555
Na23 O111 2.637789 1_555
Na24 O102 2.539319 1_555
Na24 O106 2.565077 1_555
Na24 O104 2.572935 1_555
Na24 O114 2.617982 1_555
Na24 O116 2.626030 1_555
Na24 O118 2.637349 1_555
Na25 O107 2.489308 1_555
Na25 O105 2.492989 1_555
Na25 O103 2.505375 1_555
Na25 O117 2.589415 1_555
Na25 O119 2.610118 1_555
Na25 O115 2.616543 1_555
Na26 O124 2.433871 1_555
Na26 O132 2.581568 1_555
Na26 O120 2.589935 1_555
Na26 O134 2.594147 1_555
Na26 O122 2.704101 1_555
Na26 O136 2.723213 1_555
Na27 O123 2.504772 1_555
Na27 O137 2.544071 1_555
Na27 O133 2.619758 1_555
Na27 O135 2.680780 1_555
Na27 O121 2.718273 1_555
Na27 O125 2.786960 1_555
Na28 O140 2.515403 1_555
Na28 O138 2.617775 1_555
Na28 O130 2.631684 1_555
Na28 O142 2.640046 1_555
Na28 O126 2.674007 1_555
Na28 O128 2.780171 1_555
Na29 O141 2.523566 1_555
Na29 O139 2.619768 1_555
Na29 O131 2.629765 1_555
Na29 O143 2.650719 1_555
Na29 O127 2.666170 1_555
Na29 O129 2.797403 1_555
La0 O24 2.281417 1_555
La0 O28 2.299622 1_555
La0 O26 2.316415 1_555
La0 O100 2.403351 1_555
La0 O96 2.429077 1_555
La0 O98 2.433702 1_555
La1 O25 2.283154 1_555
La1 O29 2.301913 1_555
La1 O27 2.317102 1_555
La1 O101 2.418476 1_555
La1 O99 2.442159 1_555
La1 O97 2.450158 1_555
La2 O31 2.294648 1_555
La2 O33 2.299001 1_555
La2 O35 2.301594 1_555
La2 O103 2.423014 1_555
La2 O107 2.432432 1_555
La2 O105 2.436463 1_555
O0 Si0 1.630831 1_545
O0 Ta0 1.998388 1_555
O1 Si1 1.645670 1_545
O1 Ta1 1.908821 1_545
O2 Si2 1.637196 1_555
O2 Ta1 1.932416 1_555
O3 Si3 1.632997 1_555
O3 Ta0 1.947320 1_665
O4 Si5 1.645438 1_555
O4 Ta1 2.002800 1_545
O5 Si4 1.626675 1_555
O5 Ta0 1.942042 1_555
O6 Si6 1.624314 1_555
O6 Ta2 1.957081 1_555
O7 Si7 1.620984 1_555
O7 Ta3 1.963318 1_555
O8 Si9 1.616322 1_555
O8 Ta3 1.957663 1_565
O9 Si8 1.619162 1_655
O9 Ta2 1.961789 1_665
O10 Si10 1.621106 1_545
O10 Ta3 1.961618 1_555
O11 Si11 1.622937 1_545
O11 Ta2 1.961000 1_655
O12 Si10 1.679976 1_555
O12 Ta5 1.979342 1_555
O13 Si11 1.677507 1_555
O13 Ta4 1.979309 1_555
O14 Si6 1.676115 1_555
O14 Ta4 1.986029 1_445
O15 Si7 1.678938 1_555
O15 Ta5 1.980938 1_545
O16 Si8 1.678621 1_555
O16 Ta4 1.939785 1_455
O17 Si9 1.676772 1_555
O17 Ta5 1.939042 1_555
O18 Si2 1.634852 1_555
O18 Ta7 1.938029 1_555
O19 Si3 1.670691 1_555
O19 Ta6 2.004884 1_665
O20 Si4 1.671199 1_555
O20 Ta6 1.993120 1_555
O21 Si5 1.644104 1_555
O21 Ta7 1.973618 1_545
O22 Si0 1.666168 1_555
O22 Ta6 1.938833 1_565
O23 Si1 1.644461 1_555
O23 Ta7 2.029395 1_555
O24 Si12 1.607164 1_555
O25 Si13 1.609672 1_555
O26 Si14 1.616172 1_555
O27 Si15 1.620256 1_555
O28 Si16 1.614995 1_555
O29 Si17 1.619666 1_555
O30 Si18 1.651250 1_555
O30 Ta8 1.925613 1_555
O31 Si19 1.620239 1_555
O32 Si20 1.652406 1_555
O32 Ta8 1.926199 1_555
O33 Si21 1.618716 1_555
O34 Si22 1.647989 1_555
O34 Ta8 1.998307 1_555
O35 Si23 1.624429 1_555
O36 Si22 1.630299 1_555
O36 Ta9 1.973234 1_554
O37 Si23 1.655952 1_555
O37 Ta10 2.006926 1_554
O38 Si18 1.625302 1_555
O38 Ta9 1.972978 1_554
O39 Si19 1.655256 1_555
O39 Ta10 2.007092 1_554
O40 Si20 1.628415 1_555
O40 Ta9 1.969279 1_554
O41 Si21 1.648380 1_555
O41 Ta10 2.013312 1_554
O42 Si14 1.669338 1_555
O42 Ta11 1.975493 1_555
O43 Si15 1.651500 1_555
O43 Ta12 2.018272 1_555
O44 Si16 1.656496 1_555
O44 Ta11 1.958007 1_555
O45 Si17 1.642238 1_555
O45 Ta12 1.992101 1_555
O46 Si12 1.662987 1_555
O46 Ta11 2.043103 1_555
O47 Si13 1.652867 1_555
O47 Ta12 2.009959 1_555
O48 Si24 1.631454 1_555
O48 Ta13 1.921996 1_556
O49 Si25 1.628908 1_555
O49 Ta14 1.973114 1_556
O50 Si26 1.631423 1_555
O50 Ta13 2.015394 1_556
O51 Si27 1.629549 1_555
O51 Ta14 1.899128 1_556
O52 Si28 1.630002 1_555
O52 Ta13 1.930779 1_556
O53 Si29 1.634662 1_555
O53 Ta14 1.966638 1_556
O54 Si30 1.620127 1_555
O54 Ta15 1.967599 1_555
O55 Si31 1.633323 1_555
O55 Ta16 1.948310 1_555
O56 Si32 1.625584 1_555
O56 Ta15 1.953465 1_555
O57 Si33 1.639667 1_555
O57 Ta16 1.979646 1_555
O58 Si34 1.630480 1_555
O58 Ta15 1.903130 1_555
O59 Si35 1.626967 1_555
O59 Ta16 1.924958 1_555
O60 Si34 1.654850 1_555
O60 Ta17 1.988917 1_555
O61 Si35 1.654661 1_555
O61 Ta18 1.953449 1_555
O62 Si30 1.648416 1_555
O62 Ta17 1.932516 1_555
O63 Si31 1.660316 1_555
O63 Ta18 1.980375 1_555
O64 Si32 1.651777 1_555
O64 Ta17 1.983033 1_555
O65 Si33 1.655426 1_555
O65 Ta18 1.994957 1_555
O66 Si26 1.672548 1_555
O66 Ta19 1.947713 1_555
O67 Si27 1.669080 1_555
O67 Ta20 1.944687 1_555
O68 Si28 1.671931 1_555
O68 Ta19 1.941483 1_555
O69 Si29 1.671314 1_555
O69 Ta20 1.954777 1_555
O70 Si24 1.672770 1_555
O70 Ta19 1.942504 1_555
O71 Si25 1.669104 1_555
O71 Ta20 1.948474 1_555
O72 Si34 1.633631 1_555
O72 Ta0 2.008343 1_565
O73 Si35 1.626669 1_555
O73 Ta1 2.015991 1_555
O74 Si30 1.642002 1_555
O74 Ta1 2.038182 1_555
O75 Si31 1.639837 1_555
O75 Ta0 2.015054 1_665
O76 Si32 1.631632 1_555
O76 Ta0 2.007731 1_555
O77 Si33 1.650615 1_555
O77 Ta1 2.067140 1_545
O78 Si26 1.643188 1_555
O78 Ta2 2.005666 1_555
O79 Si27 1.631946 1_555
O79 Ta3 2.000232 1_555
O80 Si28 1.641334 1_555
O80 Ta2 2.012162 1_565
O81 Si29 1.632040 1_555
O81 Ta3 1.997620 1_565
O82 Si24 1.635603 1_555
O82 Ta3 1.994503 1_565
O83 Si25 1.636762 1_555
O83 Ta2 2.011354 1_665
O84 Si12 1.661843 1_555
O84 Ta5 2.077782 1_545
O85 Si13 1.661612 1_555
O85 Ta4 2.070694 1_545
O86 Si14 1.639480 1_555
O86 Ta4 2.038241 1_445
O87 Si15 1.644433 1_555
O87 Ta5 2.031609 1_545
O88 Si16 1.639614 1_555
O88 Ta5 2.026963 1_555
O89 Si17 1.644628 1_555
O89 Ta4 2.019208 1_555
O90 Si18 1.649724 1_555
O90 Ta7 2.026836 1_555
O91 Si19 1.654361 1_555
O91 Ta6 2.023877 1_665
O92 Si20 1.649100 1_555
O92 Ta7 1.974155 1_545
O93 Si21 1.655844 1_555
O93 Ta6 2.076926 1_655
O94 Si22 1.671309 1_555
O94 Ta6 1.999022 1_555
O95 Si23 1.638680 1_555
O95 Ta7 2.058301 1_545
O96 Si10 1.611985 1_545
O97 Si11 1.612000 1_545
O98 Si6 1.612261 1_555
O99 Si7 1.612977 1_555
O100 Si9 1.609452 1_555
O101 Si8 1.611432 1_655
O102 Si2 1.644374 1_555
O102 Ta8 2.089717 1_555
O103 Si3 1.611299 1_555
O104 Si5 1.638544 1_555
O104 Ta8 2.009510 1_555
O105 Si4 1.609733 1_655
O106 Si0 1.636099 1_545
O106 Ta8 2.088450 1_555
O107 Si1 1.619569 1_545
O108 Si24 1.624280 1_555
O108 Ta9 2.020888 1_555
O109 Si25 1.643578 1_555
O109 Ta10 2.001324 1_555
O110 Si27 1.620151 1_555
O110 Ta9 2.023592 1_555
O111 Si26 1.648637 1_655
O111 Ta10 1.999659 1_555
O112 Si28 1.626371 1_545
O112 Ta9 2.012727 1_555
O113 Si29 1.641588 1_545
O113 Ta10 2.006720 1_555
O114 Si30 1.648061 1_545
O114 Ta11 2.049561 1_555
O115 Si31 1.644208 1_545
O115 Ta12 2.007113 1_555
O116 Si32 1.653306 1_555
O116 Ta11 1.979205 1_555
O117 Si33 1.631873 1_555
O117 Ta12 2.016192 1_555
O118 Si35 1.645689 1_555
O118 Ta11 2.045965 1_555
O119 Si34 1.641030 1_655
O119 Ta12 1.995450 1_555
O120 Si22 1.652370 1_555
O120 Ta13 2.086441 1_555
O121 Si23 1.631624 1_555
O121 Ta14 1.955447 1_555
O122 Si19 1.624354 1_455
O122 Ta13 1.985245 1_555
O123 Si18 1.659062 1_555
O123 Ta14 2.061180 1_555
O124 Si20 1.641286 1_565
O124 Ta13 2.001746 1_555
O125 Si21 1.641340 1_565
O125 Ta14 2.030027 1_555
O126 Si14 1.622383 1_565
O126 Ta15 1.976644 1_555
O127 Si15 1.630537 1_565
O127 Ta16 1.968575 1_555
O128 Si16 1.635240 1_555
O128 Ta15 2.022937 1_555
O129 Si17 1.642349 1_555
O129 Ta16 2.005172 1_555
O130 Si13 1.635526 1_455
O130 Ta15 1.990973 1_555
O131 Si12 1.635817 1_555
O131 Ta16 2.002138 1_555
O132 Si0 1.647658 1_555
O132 Ta17 2.041343 1_555
O133 Si1 1.656698 1_555
O133 Ta18 1.996999 1_555
O134 Si2 1.654927 1_555
O134 Ta17 2.015722 1_555
O135 Si3 1.663497 1_555
O135 Ta18 2.062823 1_555
O136 Si4 1.656606 1_555
O136 Ta17 2.065681 1_555
O137 Si5 1.662633 1_555
O137 Ta18 2.042505 1_555
O138 Si6 1.659487 1_555
O138 Ta19 2.071233 1_555
O139 Si7 1.660065 1_555
O139 Ta20 2.067541 1_555
O140 Si8 1.654784 1_555
O140 Ta19 2.079739 1_555
O141 Si9 1.656355 1_555
O141 Ta20 2.070967 1_555
O142 Si10 1.657975 1_555
O142 Ta19 2.069643 1_555
O143 Si11 1.659260 1_555
O143 Ta20 2.060415 1_555
