# generated using pymatgen
data_MgCo3NiO8
_symmetry_space_group_name_H-M   'P 1'
_cell_length_a   5.66797784
_cell_length_b   5.65812536
_cell_length_c   6.15881068
_cell_angle_alpha   62.63479771
_cell_angle_beta   62.59438297
_cell_angle_gamma   60.05843541
_symmetry_Int_Tables_number   1
_chemical_formula_structural   MgCo3NiO8
_chemical_formula_sum   'Mg1 Co3 Ni1 O8'
_cell_volume   144.99895600
_cell_formula_units_Z   1
loop_
 _symmetry_equiv_pos_site_id
 _symmetry_equiv_pos_as_xyz
  1  'x, y, z'
loop_
 _atom_site_type_symbol
 _atom_site_label
 _atom_site_symmetry_multiplicity
 _atom_site_fract_x
 _atom_site_fract_y
 _atom_site_fract_z
 _atom_site_occupancy
  Mg  Mg0  1  0.85632600  0.85090800  0.44138300  1
  Co  Co0  1  0.49460800  0.00542700  0.00483000  1
  Co  Co1  1  0.00479000  0.49508800  0.00493900  1
  Co  Co2  1  0.49460100  0.49503900  0.00486800  1
  Ni  Ni0  1  0.01189200  0.01255300  0.96292000  1
  O  O0  1  0.24141800  0.24223200  0.81161700  1
  O  O1  1  0.70335800  0.24251800  0.81172900  1
  O  O2  1  0.24145600  0.70475800  0.81160900  1
  O  O3  1  0.72910700  0.72882600  0.81323900  1
  O  O4  1  0.26743300  0.26909100  0.19416100  1
  O  O5  1  0.77152400  0.26804100  0.18845500  1
  O  O6  1  0.26911600  0.77089200  0.18888700  1
  O  O7  1  0.77151600  0.77177000  0.18844400  1
loop_
_geom_bond_atom_site_label_1
_geom_bond_atom_site_label_2
_geom_bond_distance
_geom_bond_site_symmetry_2
Mg0 O3 1.940285 1_555
Mg0 O6 2.082739 1_655
Mg0 O7 2.098527 1_555
Mg0 O5 2.098802 1_565
Co0 O1 1.853722 1_554
Co0 O0 1.859456 1_554
Co0 O4 1.882221 1_555
Co0 O6 1.912041 1_545
Co0 O7 1.917854 1_545
Co0 O3 1.945703 1_544
Co1 O0 1.855749 1_554
Co1 O2 1.855844 1_554
Co1 O4 1.880482 1_555
Co1 O5 1.913345 1_455
Co1 O7 1.913365 1_455
Co1 O3 1.945397 1_454
Co2 O1 1.853532 1_554
Co2 O2 1.859464 1_554
Co2 O4 1.882170 1_555
Co2 O6 1.911942 1_555
Co2 O5 1.917807 1_555
Co2 O3 1.945554 1_554
Ni0 O0 1.925623 1_555
Ni0 O2 1.925658 1_545
Ni0 O1 1.931851 1_455
Ni0 O7 2.003182 1_446
Ni0 O5 2.003275 1_456
Ni0 O6 2.015064 1_546
