# generated using pymatgen
data_Na4Nb3InSi5SO24
_symmetry_space_group_name_H-M   'P 1'
_cell_length_a   9.03943697
_cell_length_b   9.02289696
_cell_length_c   22.91241974
_cell_angle_alpha   90.08233584
_cell_angle_beta   90.26914519
_cell_angle_gamma   119.87643802
_symmetry_Int_Tables_number   1
_chemical_formula_structural   Na4Nb3InSi5SO24
_chemical_formula_sum   'Na12 Nb9 In3 Si15 S3 O72'
_cell_volume   1620.38959826
_cell_formula_units_Z   3
loop_
 _symmetry_equiv_pos_site_id
 _symmetry_equiv_pos_as_xyz
  1  'x, y, z'
loop_
 _atom_site_type_symbol
 _atom_site_label
 _atom_site_symmetry_multiplicity
 _atom_site_fract_x
 _atom_site_fract_y
 _atom_site_fract_z
 _atom_site_occupancy
  Na  Na0  1  0.63348700  0.62582478  0.74678735  1
  Na  Na1  1  0.99344482  0.36420003  0.74965889  1
  Na  Na2  1  0.37527225  0.00748963  0.74707770  1
  Na  Na3  1  0.66153316  0.68933720  0.08370185  1
  Na  Na4  1  0.02706857  0.34173924  0.08345365  1
  Na  Na5  1  0.32623290  0.02926895  0.41734286  1
  Na  Na6  1  0.99152968  0.99743369  0.49618309  1
  Na  Na7  1  0.00605090  0.99681233  0.99503765  1
  Na  Na8  1  0.66611015  0.33289763  0.83401685  1
  Na  Na9  1  0.68479559  0.33731040  0.33029555  1
  Na  Na10  1  0.33103267  0.67256295  0.16758438  1
  Na  Na11  1  0.33972059  0.67132985  0.66271189  1
  Nb  Nb0  1  0.99870431  0.00090743  0.85599821  1
  Nb  Nb1  1  0.00209960  0.99057809  0.64542183  1
  Nb  Nb2  1  0.00780524  0.01389098  0.14361921  1
  Nb  Nb3  1  0.66722435  0.33464201  0.97777072  1
  Nb  Nb4  1  0.66001810  0.34084659  0.47747238  1
  Nb  Nb5  1  0.33268355  0.67040212  0.01783688  1
  Nb  Nb6  1  0.34521118  0.67888544  0.51848836  1
  Nb  Nb7  1  0.32177352  0.65404270  0.31645666  1
  Nb  Nb8  1  0.33459693  0.66664898  0.81521048  1
  In  In0  1  0.99083591  0.00417568  0.35644574  1
  In  In1  1  0.65752669  0.32988199  0.68402724  1
  In  In2  1  0.67479844  0.33299029  0.18206051  1
  Si  Si0  1  0.99659077  0.29586109  0.25153503  1
  Si  Si1  1  0.28424554  0.28653246  0.75073391  1
  Si  Si2  1  0.00119119  0.71069694  0.75152811  1
  Si  Si3  1  0.71325865  0.99905710  0.74962333  1
  Si  Si4  1  0.37472968  0.04179989  0.58357530  1
  Si  Si5  1  0.66489413  0.62626374  0.58477841  1
  Si  Si6  1  0.96016565  0.62666029  0.08293618  1
  Si  Si7  1  0.65932060  0.04136602  0.08301923  1
  Si  Si8  1  0.38293295  0.33527988  0.08333668  1
  Si  Si9  1  0.62498642  0.66659438  0.91722617  1
  Si  Si10  1  0.04199080  0.37672716  0.91676225  1
  Si  Si11  1  0.33403237  0.95937777  0.91612454  1
  Si  Si12  1  0.62459757  0.95812312  0.41526020  1
  Si  Si13  1  0.33028136  0.37825119  0.41872273  1
  Si  Si14  1  0.04013779  0.66214146  0.41810629  1
  S  S0  1  0.29029989  0.99826039  0.25056717  1
  S  S1  1  0.70713023  0.70992844  0.24958739  1
  S  S2  1  0.96060614  0.33422204  0.58269362  1
  O  O0  1  0.21270857  0.01717002  0.30439919  1
  O  O1  1  0.81247819  0.78661424  0.30200770  1
  O  O2  1  0.97619227  0.17895975  0.30607719  1
  O  O3  1  0.18749234  0.16335629  0.80660477  1
  O  O4  1  0.97135263  0.80725197  0.80636841  1
  O  O5  1  0.83460321  0.02571767  0.80662444  1
  O  O6  1  0.80495022  0.96400453  0.69334648  1
  O  O7  1  0.15863752  0.19603139  0.69370727  1
  O  O8  1  0.03683707  0.83648927  0.69374436  1
  O  O9  1  0.79268831  0.81511744  0.19577909  1
  O  O10  1  0.02445421  0.19570457  0.19180650  1
  O  O11  1  0.17825993  0.97557575  0.19786782  1
  O  O12  1  0.89298191  0.36391877  0.63807211  1
  O  O13  1  0.48047161  0.10425387  0.64417966  1
  O  O14  1  0.63312688  0.52424743  0.64530482  1
  O  O15  1  0.89490206  0.50767602  0.13942773  1
  O  O16  1  0.62080595  0.10730727  0.14216347  1
  O  O17  1  0.49793527  0.38452192  0.14118440  1
  O  O18  1  0.47173649  0.30221328  0.02644459  1
  O  O19  1  0.83065234  0.53563741  0.02671971  1
  O  O20  1  0.70708743  0.17095892  0.02729717  1
  O  O21  1  0.47300194  0.16426227  0.52638014  1
  O  O22  1  0.69319239  0.52605609  0.52847584  1
  O  O23  1  0.84811722  0.30926738  0.53199101  1
  O  O24  1  0.53166370  0.69190651  0.97420332  1
  O  O25  1  0.16153212  0.46763586  0.97420691  1
  O  O26  1  0.30787202  0.83453020  0.97172202  1
  O  O27  1  0.52290900  0.83843691  0.47237029  1
  O  O28  1  0.30983872  0.47750498  0.47391954  1
  O  O29  1  0.16705032  0.69173136  0.47295482  1
  O  O30  1  0.13485415  0.63071387  0.35987049  1
  O  O31  1  0.49241093  0.86295525  0.35934888  1
  O  O32  1  0.36319019  0.50089732  0.36046441  1
  O  O33  1  0.13681391  0.49728695  0.85873604  1
  O  O34  1  0.36028451  0.86481949  0.85807824  1
  O  O35  1  0.50372917  0.63976183  0.85888210  1
  O  O36  1  0.03627350  0.83651000  0.40996869  1
  O  O37  1  0.80555374  0.96868747  0.41670247  1
  O  O38  1  0.17969304  0.18401203  0.41473087  1
  O  O39  1  0.02561680  0.18933844  0.90937915  1
  O  O40  1  0.16301788  0.97444971  0.90951687  1
  O  O41  1  0.81135059  0.83673812  0.90954699  1
  O  O42  1  0.97479639  0.17658242  0.58737270  1
  O  O43  1  0.18480247  0.02791203  0.58967824  1
  O  O44  1  0.83718801  0.81874721  0.58933715  1
  O  O45  1  0.97163429  0.81397846  0.09258727  1
  O  O46  1  0.83581430  0.01976998  0.09191608  1
  O  O47  1  0.18630264  0.16462219  0.09089820  1
  O  O48  1  0.69649953  0.16935761  0.74693798  1
  O  O49  1  0.47281596  0.30770694  0.74981206  1
  O  O50  1  0.83645430  0.52222225  0.74620265  1
  O  O51  1  0.68193541  0.53544226  0.24427371  1
  O  O52  1  0.83314605  0.32201095  0.24713117  1
  O  O53  1  0.45974773  0.15242396  0.24453793  1
  O  O54  1  0.63997506  0.49473653  0.92367002  1
  O  O55  1  0.85552119  0.36074703  0.92399956  1
  O  O56  1  0.50530371  0.14437604  0.92427645  1
  O  O57  1  0.62847264  0.14106884  0.42531603  1
  O  O58  1  0.50786673  0.36555513  0.42398336  1
  O  O59  1  0.85587010  0.48821334  0.42615550  1
  O  O60  1  0.34690991  0.49563757  0.07320638  1
  O  O61  1  0.14937728  0.64775017  0.07181004  1
  O  O62  1  0.50678910  0.84352800  0.07304276  1
  O  O63  1  0.34284289  0.84714755  0.57352628  1
  O  O64  1  0.49685916  0.64748654  0.57393189  1
  O  O65  1  0.13290096  0.48596638  0.57543088  1
  O  O66  1  0.30488100  0.84008281  0.25293771  1
  O  O67  1  0.53766709  0.70172096  0.25387770  1
  O  O68  1  0.17978883  0.48645469  0.25538372  1
  O  O69  1  0.29957378  0.47663915  0.75709256  1
  O  O70  1  0.17713749  0.69943112  0.75668760  1
  O  O71  1  0.52382498  0.82514276  0.75696696  1
loop_
_geom_bond_atom_site_label_1
_geom_bond_atom_site_label_2
_geom_bond_distance
_geom_bond_site_symmetry_2
Na0 O50 2.439066 1_555
Na0 O71 2.459355 1_555
Na0 O49 2.490252 1_555
Na0 O14 2.497490 1_555
Na0 O69 2.634036 1_555
Na0 O35 2.856992 1_555
Na0 O6 2.920486 1_555
Na0 O4 2.973974 1_555
Na1 O48 2.365673 1_555
Na1 O69 2.431870 1_655
Na1 O50 2.463368 1_555
Na1 O70 2.631461 1_655
Na1 O12 2.708765 1_555
Na1 O33 2.788937 1_655
Na1 O7 2.906101 1_655
Na1 O5 2.958543 1_555
Na2 O49 2.395535 1_555
Na2 O70 2.455218 1_545
Na2 O48 2.517877 1_555
Na2 O13 2.534736 1_555
Na2 O71 2.600165 1_545
Na2 O34 2.825370 1_545
Na2 O8 2.913738 1_545
Na2 O3 3.018922 1_555
Na3 O62 2.426608 1_555
Na3 O45 2.452978 1_555
Na3 O60 2.498238 1_555
Na3 O46 2.592794 1_565
Na3 O17 2.731758 1_555
Na3 O24 2.769974 1_554
Na3 O9 2.812569 1_555
Na3 O19 2.844400 1_555
Na4 O61 2.425045 1_555
Na4 O60 2.519903 1_555
Na4 O46 2.543060 1_455
Na4 O47 2.635347 1_555
Na4 O15 2.665481 1_455
Na4 O25 2.773897 1_554
Na4 O10 2.806980 1_555
Na4 O20 2.813398 1_455
Na5 O36 2.318809 1_545
Na5 O38 2.355799 1_555
Na5 O57 2.400893 1_555
Na5 O58 2.637949 1_555
Na5 O0 2.761232 1_555
Na5 O21 2.799193 1_555
Na5 O31 2.921097 1_545
Na5 O29 2.938026 1_545
Na6 O37 2.396932 1_555
Na6 O38 2.529075 1_665
Na6 O36 2.599683 1_655
Na6 O44 2.626478 1_555
Na6 O43 2.683546 1_665
Na6 O42 2.690371 1_565
Na7 O40 2.490738 1_555
Na7 O41 2.539193 1_455
Na7 O39 2.570581 1_565
Na7 O47 2.696399 1_566
Na7 O45 2.705503 1_456
Na7 O46 2.772443 1_466
Na8 O49 2.529499 1_555
Na8 O48 2.575688 1_555
Na8 O54 2.597577 1_555
Na8 O50 2.599207 1_555
Na8 O55 2.604243 1_555
Na8 O56 2.618834 1_555
Na9 O52 2.378224 1_555
Na9 O59 2.632718 1_555
Na9 O51 2.671523 1_555
Na9 O57 2.694034 1_555
Na9 O53 2.711877 1_555
Na9 O58 2.769030 1_555
Na10 O68 2.546413 1_555
Na10 O66 2.552834 1_555
Na10 O67 2.634695 1_555
Na10 O61 2.675903 1_555
Na10 O62 2.682599 1_555
Na10 O60 2.732467 1_555
Na11 O64 2.555798 1_555
Na11 O63 2.580385 1_555
Na11 O71 2.648809 1_555
Na11 O65 2.670555 1_555
Na11 O70 2.694423 1_555
Na11 O69 2.697616 1_555
Nb0 O5 1.961148 1_555
Nb0 O3 1.967843 1_655
Nb0 O4 1.992143 1_545
Nb0 O39 2.006226 1_655
Nb0 O41 2.023168 1_545
Nb0 O40 2.025775 1_645
Nb1 O8 1.921867 1_555
Nb1 O43 1.984722 1_565
Nb1 O44 1.987714 1_455
Nb1 O7 2.007195 1_565
Nb1 O6 2.008142 1_455
Nb1 O42 2.250026 1_465
Nb2 O10 1.918363 1_555
Nb2 O47 1.936260 1_555
Nb2 O46 1.971885 1_455
Nb2 O45 2.032368 1_445
Nb2 O11 2.133665 1_545
Nb2 O9 2.231518 1_445
Nb3 O18 1.989055 1_556
Nb3 O19 2.009650 1_556
Nb3 O54 2.010127 1_555
Nb3 O56 2.016332 1_555
Nb3 O55 2.022776 1_555
Nb3 O20 2.032226 1_556
Nb4 O58 1.932294 1_555
Nb4 O22 1.933929 1_555
Nb4 O59 1.990883 1_555
Nb4 O21 1.997922 1_555
Nb4 O57 2.058445 1_555
Nb4 O23 2.235255 1_555
Nb5 O26 1.921713 1_554
Nb5 O25 1.974942 1_554
Nb5 O24 1.985476 1_554
Nb5 O61 1.999818 1_555
Nb5 O62 2.010813 1_555
Nb5 O60 2.078175 1_555
Nb6 O27 1.867015 1_555
Nb6 O28 1.964546 1_555
Nb6 O29 1.966223 1_555
Nb6 O63 1.980608 1_555
Nb6 O64 1.986140 1_555
Nb6 O65 2.262140 1_555
Nb7 O30 1.884339 1_555
Nb7 O32 1.892656 1_555
Nb7 O68 1.983802 1_555
Nb7 O31 1.995494 1_555
Nb7 O66 2.284621 1_555
Nb7 O67 2.289361 1_555
Nb8 O35 1.937358 1_555
Nb8 O34 1.948079 1_555
Nb8 O33 1.955869 1_555
Nb8 O69 2.064336 1_555
Nb8 O70 2.077032 1_555
Nb8 O71 2.083692 1_555
In0 O2 2.012032 1_555
In0 O37 2.074242 1_545
In0 O38 2.131526 1_655
In0 O36 2.140305 1_645
In0 O1 2.197642 1_545
In0 O0 2.290607 1_655
In1 O13 2.067484 1_555
In1 O14 2.073502 1_555
In1 O49 2.188944 1_555
In1 O48 2.193007 1_555
In1 O50 2.198200 1_555
In1 O12 2.259159 1_555
In2 O16 2.054448 1_555
In2 O15 2.072556 1_555
In2 O17 2.092153 1_555
In2 O52 2.098368 1_555
In2 O51 2.290671 1_555
In2 O53 2.315182 1_555
O0 S0 1.472794 1_545
O1 S1 1.469222 1_555
O2 Si0 1.587608 1_555
O3 Si1 1.638627 1_555
O4 Si2 1.626268 1_655
O5 Si3 1.639973 1_545
O6 Si3 1.649148 1_555
O7 Si1 1.650013 1_555
O8 Si2 1.670010 1_555
O9 S1 1.516564 1_555
O10 Si0 1.726101 1_455
O11 S0 1.518840 1_555
O12 S2 1.491627 1_555
O13 Si4 1.614944 1_555
O14 Si5 1.611538 1_555
O15 Si6 1.598799 1_555
O16 Si7 1.587480 1_555
O17 Si8 1.600019 1_555
O18 Si8 1.637047 1_555
O19 Si6 1.651995 1_555
O20 Si7 1.640186 1_555
O21 Si4 1.662716 1_555
O22 Si5 1.666519 1_555
O23 S2 1.481317 1_555
O24 Si9 1.633867 1_555
O25 Si10 1.635039 1_555
O26 Si11 1.639881 1_555
O27 Si12 1.658258 1_555
O28 Si13 1.612274 1_555
O29 Si14 1.626979 1_555
O30 Si14 1.686832 1_555
O31 Si12 1.663277 1_555
O32 Si13 1.665807 1_555
O33 Si10 1.664806 1_555
O34 Si11 1.659671 1_555
O35 Si9 1.663734 1_555
O36 Si14 1.602130 1_555
O37 Si12 1.590589 1_555
O38 Si13 1.598286 1_555
O39 Si10 1.630618 1_555
O40 Si11 1.624329 1_555
O41 Si9 1.628723 1_555
O42 S2 1.494373 1_555
O43 Si4 1.664558 1_555
O44 Si5 1.660127 1_555
O45 Si6 1.655418 1_555
O46 Si7 1.712195 1_555
O47 Si8 1.684426 1_555
O48 Si3 1.618637 1_545
O49 Si1 1.618150 1_555
O50 Si2 1.612191 1_655
O51 S1 1.478954 1_555
O52 Si0 1.610798 1_555
O53 S0 1.476483 1_545
O54 Si9 1.629255 1_555
O55 Si10 1.627892 1_655
O56 Si11 1.624765 1_545
O57 Si12 1.649348 1_545
O58 Si13 1.669124 1_555
O59 Si14 1.634254 1_655
O60 Si8 1.650165 1_555
O61 Si6 1.645155 1_455
O62 Si7 1.638179 1_565
O63 Si4 1.647619 1_565
O64 Si5 1.640726 1_555
O65 S2 1.485468 1_455
O66 S0 1.498281 1_555
O67 S1 1.500045 1_555
O68 Si0 1.693670 1_455
O69 Si1 1.656814 1_555
O70 Si2 1.647177 1_555
O71 Si3 1.658129 1_555
