# generated using pymatgen
data_Na2MgMn4O8
_symmetry_space_group_name_H-M   'P 1'
_cell_length_a   3.02095350
_cell_length_b   6.36613570
_cell_length_c   8.72567156
_cell_angle_alpha   85.29117795
_cell_angle_beta   89.78542876
_cell_angle_gamma   91.77395573
_symmetry_Int_Tables_number   1
_chemical_formula_structural   Na2MgMn4O8
_chemical_formula_sum   'Na2 Mg1 Mn4 O8'
_cell_volume   167.16048689
_cell_formula_units_Z   1
loop_
 _symmetry_equiv_pos_site_id
 _symmetry_equiv_pos_as_xyz
  1  'x, y, z'
loop_
 _atom_site_type_symbol
 _atom_site_label
 _atom_site_symmetry_multiplicity
 _atom_site_fract_x
 _atom_site_fract_y
 _atom_site_fract_z
 _atom_site_occupancy
  Na  Na0  1  0.73056664  0.69608070  0.88479446  1
  Na  Na1  1  0.21228931  0.97098062  0.61636652  1
  Mg  Mg0  1  0.70814628  0.73300339  0.36141407  1
  Mn  Mn0  1  0.21572391  0.99042991  0.11257751  1
  Mn  Mn1  1  0.72946604  0.22506456  0.85997417  1
  Mn  Mn2  1  0.70918895  0.25962087  0.34305903  1
  Mn  Mn3  1  0.21114428  0.47792691  0.61038775  1
  O  O0  1  0.70525056  0.79702985  0.12759289  1
  O  O1  1  0.23488794  0.42670154  0.84005194  1
  O  O2  1  0.21152739  0.99053366  0.33630960  1
  O  O3  1  0.67151516  0.69775361  0.59947757  1
  O  O4  1  0.72795389  0.19599131  0.09677732  1
  O  O5  1  0.22095248  0.01336994  0.88686649  1
  O  O6  1  0.75421708  0.24775822  0.62141730  1
  O  O7  1  0.20727610  0.49649891  0.37658838  1
loop_
_geom_bond_atom_site_label_1
_geom_bond_atom_site_label_2
_geom_bond_distance
_geom_bond_site_symmetry_2
Na0 O0 2.265525 1_556
Na0 O1 2.300196 1_555
Na0 O1 2.383630 1_655
Na0 O5 2.468992 1_665
Na0 O3 2.495805 1_555
Na0 O5 2.578525 1_565
Na1 O3 2.271956 1_555
Na1 O6 2.277015 1_465
Na1 O3 2.363052 1_455
Na1 O6 2.370974 1_565
Na1 O5 2.397727 1_565
Na1 O2 2.436640 1_555
Mg0 O0 2.047594 1_555
Mg0 O3 2.073122 1_555
Mg0 O7 2.097291 1_555
Mg0 O7 2.160405 1_655
Mg0 O2 2.198304 1_655
Mg0 O2 2.254423 1_555
Mn0 O0 1.940520 1_455
Mn0 O0 1.951333 1_555
Mn0 O2 1.952261 1_555
Mn0 O5 1.962863 1_564
Mn0 O4 1.992348 1_565
Mn0 O4 1.998525 1_465
Mn1 O1 1.961961 1_655
Mn1 O1 1.998587 1_555
Mn1 O5 2.012062 1_555
Mn1 O5 2.037247 1_655
Mn1 O4 2.059326 1_556
Mn1 O6 2.075616 1_555
Mn2 O7 2.135185 1_655
Mn2 O7 2.206663 1_555
Mn2 O4 2.220094 1_555
Mn2 O2 2.248559 1_545
Mn2 O2 2.327610 1_645
Mn2 O6 2.428287 1_555
Mn3 O3 1.938649 1_555
Mn3 O6 1.977961 1_455
Mn3 O1 2.005650 1_555
Mn3 O7 2.033866 1_555
Mn3 O3 2.178436 1_455
Mn3 O6 2.230414 1_555
