# generated using pymatgen
data_Ca(Cu2P)2
_symmetry_space_group_name_H-M   'P 1'
_cell_length_a   3.77684940
_cell_length_b   7.24900050
_cell_length_c   7.24900050
_cell_angle_alpha   90.00000000
_cell_angle_beta   90.00000000
_cell_angle_gamma   90.00000000
_symmetry_Int_Tables_number   1
_chemical_formula_structural   Ca(Cu2P)2
_chemical_formula_sum   'Ca2 Cu8 P4'
_cell_volume   198.46591343
_cell_formula_units_Z   2
loop_
 _symmetry_equiv_pos_site_id
 _symmetry_equiv_pos_as_xyz
  1  'x, y, z'
loop_
 _atom_site_type_symbol
 _atom_site_label
 _atom_site_symmetry_multiplicity
 _atom_site_fract_x
 _atom_site_fract_y
 _atom_site_fract_z
 _atom_site_occupancy
  Ca  Ca0  1  0.50000000  0.50000000  0.50000000  1
  Ca  Ca1  1  -0.00000000  -0.00000000  -0.00000000  1
  Cu  Cu0  1  0.00000000  0.41638563  0.83578040  1
  Cu  Cu1  1  0.50000000  0.08361437  0.33578040  1
  Cu  Cu2  1  0.00000000  0.16421960  0.58361437  1
  Cu  Cu3  1  0.00000000  0.83578040  0.41638563  1
  Cu  Cu4  1  0.50000000  0.66421960  0.91638563  1
  Cu  Cu5  1  0.50000000  0.33578040  0.08361437  1
  Cu  Cu6  1  -0.00000000  0.58361437  0.16421960  1
  Cu  Cu7  1  0.50000000  0.91638563  0.66421960  1
  P  P0  1  -0.00000000  0.71927011  0.71927011  1
  P  P1  1  -0.00000000  0.28072989  0.28072989  1
  P  P2  1  0.50000000  0.21927011  0.78072989  1
  P  P3  1  0.50000000  0.78072989  0.21927011  1
loop_
_geom_bond_atom_site_label_1
_geom_bond_atom_site_label_2
_geom_bond_distance
_geom_bond_site_symmetry_2
Ca0 P3 2.877940 1_555
Ca0 P2 2.877940 1_555
Ca0 P1 2.935830 1_555
Ca0 P0 2.935830 1_655
Ca0 P1 2.935830 1_655
Ca0 P0 2.935830 1_555
Ca0 Cu0 3.139783 1_655
Ca0 Cu0 3.139783 1_555
Ca0 Cu6 3.139783 1_555
Ca0 Cu3 3.139783 1_555
Ca0 Cu6 3.139783 1_655
Ca0 Cu2 3.139783 1_555
Ca0 Cu3 3.139783 1_655
Ca0 Cu2 3.139783 1_655
Ca0 Cu7 3.244647 1_555
Ca0 Cu4 3.244647 1_555
Ca0 Cu5 3.244647 1_555
Ca0 Cu1 3.244647 1_555
Ca1 P1 2.877940 1_555
Ca1 P0 2.877940 1_544
Ca1 P2 2.935830 1_554
Ca1 P2 2.935830 1_454
Ca1 P3 2.935830 1_445
Ca1 P3 2.935830 1_545
Ca1 Cu1 3.139783 1_455
Ca1 Cu1 3.139783 1_555
Ca1 Cu5 3.139783 1_455
Ca1 Cu4 3.139783 1_544
Ca1 Cu7 3.139783 1_444
Ca1 Cu5 3.139783 1_555
Ca1 Cu4 3.139783 1_444
Ca1 Cu7 3.139783 1_544
Ca1 Cu6 3.244647 1_545
Ca1 Cu2 3.244647 1_554
Ca1 Cu0 3.244647 1_554
Ca1 Cu3 3.244647 1_545
Cu0 P0 2.352450 1_555
Cu0 P2 2.401484 1_555
Cu0 P2 2.401484 1_455
Cu1 P3 2.352450 1_545
Cu1 P1 2.401484 1_655
Cu1 P1 2.401484 1_555
Cu2 P1 2.352450 1_555
Cu2 P2 2.401484 1_555
Cu2 P2 2.401484 1_455
Cu3 P0 2.352450 1_555
Cu3 P3 2.401484 1_555
Cu3 P3 2.401484 1_455
Cu4 P3 2.352450 1_556
Cu4 P0 2.401484 1_555
Cu4 P0 2.401484 1_655
Cu5 P2 2.352450 1_554
Cu5 P1 2.401484 1_655
Cu5 P1 2.401484 1_555
Cu6 P1 2.352450 1_555
Cu6 P3 2.401484 1_555
Cu6 P3 2.401484 1_455
Cu7 P2 2.352450 1_565
Cu7 P0 2.401484 1_555
Cu7 P0 2.401484 1_655
