# generated using pymatgen
data_Mo3O8
_symmetry_space_group_name_H-M   'P 1'
_cell_length_a   6.01467026
_cell_length_b   6.01467026
_cell_length_c   6.01466994
_cell_angle_alpha   61.65257577
_cell_angle_beta   61.65257577
_cell_angle_gamma   61.65257477
_symmetry_Int_Tables_number   1
_chemical_formula_structural   Mo3O8
_chemical_formula_sum   'Mo3 O8'
_cell_volume   159.55953182
_cell_formula_units_Z   1
loop_
 _symmetry_equiv_pos_site_id
 _symmetry_equiv_pos_as_xyz
  1  'x, y, z'
loop_
 _atom_site_type_symbol
 _atom_site_label
 _atom_site_symmetry_multiplicity
 _atom_site_fract_x
 _atom_site_fract_y
 _atom_site_fract_z
 _atom_site_occupancy
  Mo  Mo0  1  0.50000000  0.00000000  0.00000000  1
  Mo  Mo1  1  0.00000000  0.00000000  0.50000000  1
  Mo  Mo2  1  0.00000000  0.50000000  0.00000000  1
  O  O0  1  0.19507900  0.75393200  0.75393200  1
  O  O1  1  0.24606800  0.24606800  0.80492100  1
  O  O2  1  0.75393200  0.75393200  0.19507900  1
  O  O3  1  0.80492100  0.24606800  0.24606800  1
  O  O4  1  0.24606800  0.80492100  0.24606800  1
  O  O5  1  0.75393200  0.19507900  0.75393200  1
  O  O6  1  0.24212900  0.24212900  0.24212900  1
  O  O7  1  0.75787100  0.75787100  0.75787100  1
loop_
_geom_bond_atom_site_label_1
_geom_bond_atom_site_label_2
_geom_bond_distance
_geom_bond_site_symmetry_2
Mo0 O1 1.950888 1_554
Mo0 O2 1.950888 1_545
Mo0 O4 1.950888 1_545
Mo0 O5 1.950888 1_554
Mo0 O6 2.090801 1_555
Mo0 O7 2.090801 1_544
Mo1 O4 1.950888 1_545
Mo1 O3 1.950888 1_455
Mo1 O0 1.950888 1_545
Mo1 O5 1.950888 1_455
Mo1 O6 2.090801 1_555
Mo1 O7 2.090801 1_445
Mo2 O1 1.950888 1_554
Mo2 O2 1.950888 1_455
Mo2 O3 1.950888 1_455
Mo2 O0 1.950888 1_554
Mo2 O6 2.090801 1_555
Mo2 O7 2.090801 1_454
