# generated using pymatgen
data_CaYb2O4
_symmetry_space_group_name_H-M   'P 1'
_cell_length_a   3.43504600
_cell_length_b   9.16650200
_cell_length_c   11.88381400
_cell_angle_alpha   90.00000000
_cell_angle_beta   90.00000000
_cell_angle_gamma   90.00000000
_symmetry_Int_Tables_number   1
_chemical_formula_structural   CaYb2O4
_chemical_formula_sum   'Ca4 Yb8 O16'
_cell_volume   374.18988240
_cell_formula_units_Z   4
loop_
 _symmetry_equiv_pos_site_id
 _symmetry_equiv_pos_as_xyz
  1  'x, y, z'
loop_
 _atom_site_type_symbol
 _atom_site_label
 _atom_site_symmetry_multiplicity
 _atom_site_fract_x
 _atom_site_fract_y
 _atom_site_fract_z
 _atom_site_occupancy
  Ca  Ca0  1  0.75000000  0.24107300  0.15976700  1
  Ca  Ca1  1  0.25000000  0.75892700  0.84023300  1
  Ca  Ca2  1  0.75000000  0.74107300  0.34023300  1
  Ca  Ca3  1  0.25000000  0.25892700  0.65976700  1
  Yb  Yb0  1  0.25000000  0.09962900  0.89684300  1
  Yb  Yb1  1  0.75000000  0.90037100  0.10315700  1
  Yb  Yb2  1  0.25000000  0.59962900  0.60315700  1
  Yb  Yb3  1  0.75000000  0.40037100  0.39684300  1
  Yb  Yb4  1  0.75000000  0.43213000  0.88891700  1
  Yb  Yb5  1  0.25000000  0.56787000  0.11108300  1
  Yb  Yb6  1  0.75000000  0.93213000  0.61108300  1
  Yb  Yb7  1  0.25000000  0.06787000  0.38891700  1
  O  O0  1  0.25000000  0.08170500  0.08943800  1
  O  O1  1  0.75000000  0.91829500  0.91056200  1
  O  O2  1  0.25000000  0.58170500  0.41056200  1
  O  O3  1  0.75000000  0.41829500  0.58943800  1
  O  O4  1  0.25000000  0.50260700  0.78113500  1
  O  O5  1  0.75000000  0.49739300  0.21886500  1
  O  O6  1  0.25000000  0.00260700  0.71886500  1
  O  O7  1  0.75000000  0.99739300  0.28113500  1
  O  O8  1  0.25000000  0.34274800  0.01189200  1
  O  O9  1  0.75000000  0.65725200  0.98810800  1
  O  O10  1  0.25000000  0.84274800  0.48810800  1
  O  O11  1  0.75000000  0.15725200  0.51189200  1
  O  O12  1  0.75000000  0.21610800  0.80212900  1
  O  O13  1  0.25000000  0.78389200  0.19787100  1
  O  O14  1  0.75000000  0.71610800  0.69787100  1
  O  O15  1  0.25000000  0.28389200  0.30212900  1
loop_
_geom_bond_atom_site_label_1
_geom_bond_atom_site_label_2
_geom_bond_distance
_geom_bond_site_symmetry_2
Ca0 O0 2.404679 1_555
Ca0 O0 2.404679 1_655
Ca0 O15 2.442569 1_555
Ca0 O15 2.442569 1_655
Ca0 O5 2.452277 1_555
Ca0 O8 2.628058 1_555
Ca0 O8 2.628058 1_655
Ca0 O7 2.658883 1_545
Ca1 O1 2.404679 1_555
Ca1 O1 2.404679 1_455
Ca1 O14 2.442569 1_455
Ca1 O14 2.442569 1_555
Ca1 O4 2.452277 1_555
Ca1 O9 2.628058 1_455
Ca1 O9 2.628058 1_555
Ca1 O6 2.658883 1_565
Ca2 O2 2.404679 1_655
Ca2 O2 2.404679 1_555
Ca2 O13 2.442569 1_655
Ca2 O13 2.442569 1_555
Ca2 O7 2.452277 1_555
Ca2 O10 2.628058 1_555
Ca2 O10 2.628058 1_655
Ca2 O5 2.658883 1_555
Ca3 O3 2.404679 1_555
Ca3 O3 2.404679 1_455
Ca3 O12 2.442569 1_455
Ca3 O12 2.442569 1_555
Ca3 O6 2.452277 1_555
Ca3 O11 2.628058 1_555
Ca3 O11 2.628058 1_455
Ca3 O4 2.658883 1_555
O0 Yb0 2.294653 1_554
O0 Yb1 2.395698 1_445
O0 Yb1 2.395698 1_545
O1 Yb1 2.294653 1_556
O1 Yb0 2.395698 1_665
O1 Yb0 2.395698 1_565
O2 Yb2 2.294653 1_555
O2 Yb3 2.395698 1_555
O2 Yb3 2.395698 1_455
O3 Yb3 2.294653 1_555
O3 Yb2 2.395698 1_555
O3 Yb2 2.395698 1_655
O4 Yb4 2.237821 1_455
O4 Yb4 2.237821 1_555
O4 Yb2 2.294431 1_555
O5 Yb5 2.237821 1_555
O5 Yb5 2.237821 1_655
O5 Yb3 2.294431 1_555
O6 Yb6 2.237821 1_545
O6 Yb6 2.237821 1_445
O6 Yb0 2.294431 1_555
O7 Yb7 2.237821 1_565
O7 Yb7 2.237821 1_665
O7 Yb1 2.294431 1_555
O8 Yb5 2.376523 1_555
O8 Yb4 2.399353 1_554
O8 Yb4 2.399353 1_454
O8 Yb0 2.614523 1_554
O9 Yb4 2.376523 1_555
O9 Yb5 2.399353 1_556
O9 Yb5 2.399353 1_656
O9 Yb1 2.614523 1_556
O10 Yb7 2.376523 1_565
O10 Yb6 2.399353 1_455
O10 Yb6 2.399353 1_555
O10 Yb2 2.614523 1_555
O11 Yb6 2.376523 1_545
O11 Yb7 2.399353 1_555
O11 Yb7 2.399353 1_655
O11 Yb3 2.614523 1_555
O12 Yb4 2.232664 1_555
O12 Yb0 2.314470 1_555
O12 Yb0 2.314470 1_655
O13 Yb5 2.232664 1_555
O13 Yb1 2.314470 1_555
O13 Yb1 2.314470 1_455
O14 Yb6 2.232664 1_555
O14 Yb2 2.314470 1_555
O14 Yb2 2.314470 1_655
O15 Yb7 2.232664 1_555
O15 Yb3 2.314470 1_455
O15 Yb3 2.314470 1_555
