# generated using pymatgen
data_Cu7PSe6
_symmetry_space_group_name_H-M   'P 1'
_cell_length_a   7.11845600
_cell_length_b   10.06321483
_cell_length_c   14.34055297
_cell_angle_alpha   90.00000000
_cell_angle_beta   90.00000000
_cell_angle_gamma   90.00000000
_symmetry_Int_Tables_number   1
_chemical_formula_structural   Cu7PSe6
_chemical_formula_sum   'Cu28 P4 Se24'
_cell_volume   1027.27908724
_cell_formula_units_Z   4
loop_
 _symmetry_equiv_pos_site_id
 _symmetry_equiv_pos_as_xyz
  1  'x, y, z'
loop_
 _atom_site_type_symbol
 _atom_site_label
 _atom_site_symmetry_multiplicity
 _atom_site_fract_x
 _atom_site_fract_y
 _atom_site_fract_z
 _atom_site_occupancy
  Cu  Cu0  1  0.45736947  0.00701615  0.23396268  1
  Cu  Cu1  1  0.54263053  0.50701615  0.76603732  1
  Cu  Cu2  1  0.04263053  0.00701615  0.73396268  1
  Cu  Cu3  1  0.95736947  0.50701615  0.26603732  1
  Cu  Cu4  1  0.41491594  0.04634242  0.76611193  1
  Cu  Cu5  1  0.58508406  0.54634242  0.23388807  1
  Cu  Cu6  1  0.08508406  0.04634242  0.26611193  1
  Cu  Cu7  1  0.91491594  0.54634242  0.73388807  1
  Cu  Cu8  1  0.77877503  0.74483713  0.28718307  1
  Cu  Cu9  1  0.22122497  0.24483713  0.71281693  1
  Cu  Cu10  1  0.72122497  0.74483713  0.78718307  1
  Cu  Cu11  1  0.27877503  0.24483713  0.21281693  1
  Cu  Cu12  1  0.07482232  0.08382945  0.96047063  1
  Cu  Cu13  1  0.92517768  0.58382945  0.03952937  1
  Cu  Cu14  1  0.42517768  0.08382945  0.46047063  1
  Cu  Cu15  1  0.57482232  0.58382945  0.53952937  1
  Cu  Cu16  1  0.94170486  0.92339140  0.55573367  1
  Cu  Cu17  1  0.05829514  0.42339140  0.44426633  1
  Cu  Cu18  1  0.55829514  0.92339140  0.05573367  1
  Cu  Cu19  1  0.44170486  0.42339140  0.94426633  1
  Cu  Cu20  1  0.02023781  0.36208104  0.85059972  1
  Cu  Cu21  1  0.97976219  0.86208104  0.14940028  1
  Cu  Cu22  1  0.47976219  0.36208104  0.35059972  1
  Cu  Cu23  1  0.52023781  0.86208104  0.64940028  1
  Cu  Cu24  1  0.80903108  0.27189368  0.37995085  1
  Cu  Cu25  1  0.19096892  0.77189368  0.62004915  1
  Cu  Cu26  1  0.69096892  0.27189368  0.87995085  1
  Cu  Cu27  1  0.30903108  0.77189368  0.12004915  1
  P  P0  1  0.75227998  0.25262438  0.12573555  1
  P  P1  1  0.24772002  0.75262438  0.87426445  1
  P  P2  1  0.74772002  0.25262438  0.62573555  1
  P  P3  1  0.25227998  0.75262438  0.37426445  1
  Se  Se0  1  0.75064248  0.11583858  0.00434304  1
  Se  Se1  1  0.24935752  0.61583858  0.99565696  1
  Se  Se2  1  0.74935752  0.11583858  0.50434304  1
  Se  Se3  1  0.25064248  0.61583858  0.49565696  1
  Se  Se4  1  0.25341295  0.62461963  0.24821506  1
  Se  Se5  1  0.74658705  0.12461963  0.75178494  1
  Se  Se6  1  0.24658705  0.62461963  0.74821506  1
  Se  Se7  1  0.75341295  0.12461963  0.25178494  1
  Se  Se8  1  0.50591740  0.87812860  0.37223281  1
  Se  Se9  1  0.49408260  0.37812860  0.62776719  1
  Se  Se10  1  0.99408260  0.87812860  0.87223281  1
  Se  Se11  1  0.00591740  0.37812860  0.12776719  1
  Se  Se12  1  0.50696524  0.87571248  0.87965367  1
  Se  Se13  1  0.49303476  0.37571248  0.12034633  1
  Se  Se14  1  0.99303476  0.87571248  0.37965367  1
  Se  Se15  1  0.00696524  0.37571248  0.62034633  1
  Se  Se16  1  0.71738417  0.73081675  0.12234814  1
  Se  Se17  1  0.28261583  0.23081675  0.87765186  1
  Se  Se18  1  0.78261583  0.73081675  0.62234814  1
  Se  Se19  1  0.21738417  0.23081675  0.37765186  1
  Se  Se20  1  0.73420853  0.50686830  0.38909019  1
  Se  Se21  1  0.26579147  0.00686830  0.61090981  1
  Se  Se22  1  0.76579147  0.50686830  0.88909019  1
  Se  Se23  1  0.23420853  0.00686830  0.11090981  1
loop_
_geom_bond_atom_site_label_1
_geom_bond_atom_site_label_2
_geom_bond_distance
_geom_bond_site_symmetry_2
Cu0 Se23 2.374343 1_555
Cu0 Se8 2.394467 1_545
Cu0 Se7 2.430420 1_555
Cu0 Cu11 2.726869 1_555
Cu1 Se22 2.374343 1_555
Cu1 Se9 2.394467 1_555
Cu1 Se6 2.430420 1_555
Cu1 Cu10 2.726869 1_555
Cu2 Se21 2.374343 1_555
Cu2 Se10 2.394467 1_445
Cu2 Se5 2.430420 1_455
Cu2 Cu9 2.726869 1_555
Cu3 Se20 2.374343 1_555
Cu3 Se11 2.394467 1_655
Cu3 Se4 2.430420 1_655
Cu3 Cu8 2.726869 1_555
Cu4 Se12 2.455389 1_545
Cu4 Se5 2.497393 1_555
Cu4 Se21 2.497664 1_555
Cu4 Cu9 2.544631 1_555
Cu4 Se17 2.625208 1_555
Cu5 Se13 2.455389 1_555
Cu5 Se4 2.497393 1_555
Cu5 Se20 2.497664 1_555
Cu5 Cu8 2.544631 1_555
Cu5 Se16 2.625208 1_555
Cu6 Se14 2.455389 1_445
Cu6 Se7 2.497393 1_455
Cu6 Se23 2.497664 1_555
Cu6 Se19 2.625208 1_555
Cu7 Se15 2.455389 1_655
Cu7 Se6 2.497393 1_655
Cu7 Se22 2.497664 1_555
Cu7 Se18 2.625208 1_555
Cu8 Se16 2.408017 1_555
Cu8 Se14 2.412318 1_555
Cu8 Se8 2.656952 1_555
Cu8 Se20 2.823311 1_555
Cu9 Se17 2.408017 1_555
Cu9 Se15 2.412318 1_555
Cu9 Se9 2.656952 1_555
Cu9 Se21 2.823311 1_555
Cu10 Se18 2.408017 1_555
Cu10 Se12 2.412318 1_555
Cu10 Cu7 2.544631 1_555
Cu10 Se10 2.656952 1_555
Cu10 Cu23 2.709817 1_555
Cu10 Se22 2.823311 1_555
Cu11 Se19 2.408017 1_555
Cu11 Se13 2.412318 1_555
Cu11 Cu6 2.544631 1_555
Cu11 Se11 2.656952 1_555
Cu11 Cu22 2.709817 1_555
Cu11 Se23 2.823311 1_555
Cu12 Se17 2.405498 1_555
Cu12 Se0 2.413480 1_456
Cu12 Se10 2.493283 1_445
Cu12 Se23 2.557614 1_556
Cu13 Se16 2.405498 1_555
Cu13 Se1 2.413480 1_654
Cu13 Se11 2.493283 1_655
Cu13 Se22 2.557614 1_554
Cu14 Se19 2.405498 1_555
Cu14 Se2 2.413480 1_555
Cu14 Se8 2.493283 1_545
Cu14 Se21 2.557614 1_555
Cu15 Se18 2.405498 1_555
Cu15 Se3 2.413480 1_555
Cu15 Se9 2.493283 1_555
Cu15 Se20 2.557614 1_555
Cu16 Se18 2.439384 1_555
Cu16 Se2 2.483635 1_565
Cu16 Se21 2.579534 1_665
Cu16 Se14 2.596107 1_555
Cu17 Se19 2.439384 1_555
Cu17 Se3 2.483635 1_555
Cu17 Se20 2.579534 1_455
Cu17 Se15 2.596107 1_555
Cu18 Se16 2.439384 1_555
Cu18 Se0 2.483635 1_565
Cu18 Se23 2.579534 1_565
Cu18 Se12 2.596107 1_554
Cu19 Se17 2.439384 1_555
Cu19 Se1 2.483635 1_555
Cu19 Se22 2.579534 1_555
Cu19 Se13 2.596107 1_556
Cu20 Se17 2.320299 1_555
Cu20 Se22 2.389201 1_455
Cu20 Cu9 2.709817 1_555
Cu21 Se16 2.320299 1_555
Cu21 Se23 2.389201 1_665
Cu21 Cu8 2.709817 1_555
Cu22 Se19 2.320299 1_555
Cu22 Se20 2.389201 1_555
Cu23 Se18 2.320299 1_555
Cu23 Se21 2.389201 1_565
Cu24 Se7 2.394025 1_555
Cu24 Se2 2.414286 1_555
Cu24 Se20 2.427385 1_555
Cu24 Se19 2.936273 1_655
Cu25 Se6 2.394025 1_555
Cu25 Se3 2.414286 1_555
Cu25 Se21 2.427385 1_565
Cu25 Se18 2.936273 1_455
Cu26 Se5 2.394025 1_555
Cu26 Se0 2.414286 1_556
Cu26 Se22 2.427385 1_555
Cu26 Se17 2.936273 1_555
Cu27 Se4 2.394025 1_555
Cu27 Se1 2.414286 1_554
Cu27 Se23 2.427385 1_565
Cu27 Se16 2.936273 1_555
P0 Se11 2.203591 1_655
P0 Se0 2.219327 1_555
P0 Se7 2.219651 1_555
P0 Se13 2.223927 1_555
P1 Se10 2.203591 1_455
P1 Se1 2.219327 1_555
P1 Se6 2.219651 1_555
P1 Se12 2.223927 1_555
P2 Se9 2.203591 1_555
P2 Se2 2.219327 1_555
P2 Se5 2.219651 1_555
P2 Se15 2.223927 1_655
P3 Se8 2.203591 1_555
P3 Se3 2.219327 1_555
P3 Se4 2.219651 1_555
P3 Se14 2.223927 1_455
