# generated using pymatgen
data_Na2Mg5Ti3(SO4)12
_symmetry_space_group_name_H-M   'P 1'
_cell_length_a   17.22376739
_cell_length_b   8.61228438
_cell_length_c   22.42115828
_cell_angle_alpha   90.05536847
_cell_angle_beta   89.92293726
_cell_angle_gamma   120.02030365
_symmetry_Int_Tables_number   1
_chemical_formula_structural   Na2Mg5Ti3(SO4)12
_chemical_formula_sum   'Na6 Mg15 Ti9 S36 O144'
_cell_volume   2879.69095395
_cell_formula_units_Z   3
loop_
 _symmetry_equiv_pos_site_id
 _symmetry_equiv_pos_as_xyz
  1  'x, y, z'
loop_
 _atom_site_type_symbol
 _atom_site_label
 _atom_site_symmetry_multiplicity
 _atom_site_fract_x
 _atom_site_fract_y
 _atom_site_fract_z
 _atom_site_occupancy
  Na  Na0  1  0.00069373  0.00079646  0.50036893  1
  Na  Na1  1  0.50206225  0.00310082  0.99880133  1
  Na  Na2  1  0.33466819  0.33508096  0.83129743  1
  Na  Na3  1  0.83177816  0.33138932  0.83201863  1
  Na  Na4  1  0.33212037  0.33303831  0.33720962  1
  Na  Na5  1  0.83455187  0.33290995  0.33359349  1
  Mg  Mg0  1  0.00055575  0.00161260  0.35425636  1
  Mg  Mg1  1  0.50052612  0.00023467  0.85223503  1
  Mg  Mg2  1  0.00060955  0.00061147  0.64758893  1
  Mg  Mg3  1  0.50232180  0.00243129  0.14808383  1
  Mg  Mg4  1  0.33252276  0.33186264  0.68478843  1
  Mg  Mg5  1  0.83402797  0.33482548  0.68543750  1
  Mg  Mg6  1  0.83199008  0.33257308  0.18496708  1
  Mg  Mg7  1  0.33320450  0.33351650  0.98018937  1
  Mg  Mg8  1  0.83332799  0.33332542  0.98194601  1
  Mg  Mg9  1  0.33312990  0.33384281  0.48262565  1
  Mg  Mg10  1  0.83363298  0.33257831  0.48179933  1
  Mg  Mg11  1  0.16477183  0.66244941  0.31215652  1
  Mg  Mg12  1  0.66874333  0.67028022  0.31150187  1
  Mg  Mg13  1  0.16880360  0.66904781  0.81015283  1
  Mg  Mg14  1  0.66456229  0.66454047  0.80984162  1
  Ti  Ti0  1  0.50271990  0.99957912  0.35715716  1
  Ti  Ti1  1  0.99919982  0.99921817  0.85025938  1
  Ti  Ti2  1  0.49924605  0.99918060  0.64934612  1
  Ti  Ti3  1  0.99452557  0.99825875  0.14791231  1
  Ti  Ti4  1  0.33442725  0.33421240  0.18688413  1
  Ti  Ti5  1  0.16482420  0.66691507  0.01907277  1
  Ti  Ti6  1  0.66768498  0.66403167  0.01967291  1
  Ti  Ti7  1  0.16451989  0.66408087  0.52342375  1
  Ti  Ti8  1  0.66920634  0.67026970  0.52453824  1
  S  S0  1  0.14411207  0.99892758  0.24919859  1
  S  S1  1  0.64468772  0.99920402  0.25013323  1
  S  S2  1  0.35542698  0.71294930  0.24952373  1
  S  S3  1  0.85486299  0.70770385  0.25157413  1
  S  S4  1  0.99894470  0.28966908  0.25105176  1
  S  S5  1  0.50103447  0.28941064  0.24982150  1
  S  S6  1  0.14525105  0.29100603  0.74952165  1
  S  S7  1  0.64584316  0.28967094  0.75083947  1
  S  S8  1  0.00049348  0.70930742  0.74933954  1
  S  S9  1  0.49872730  0.70820000  0.75095325  1
  S  S10  1  0.35521678  0.00224465  0.75114056  1
  S  S11  1  0.85420817  0.99931289  0.74923221  1
  S  S12  1  0.47857412  0.33168298  0.58313903  1
  S  S13  1  0.97773837  0.33028086  0.58277989  1
  S  S14  1  0.18735056  0.04321579  0.58231737  1
  S  S15  1  0.68735151  0.04432532  0.58359726  1
  S  S16  1  0.33397017  0.62526555  0.58357361  1
  S  S17  1  0.83501087  0.62498846  0.58240485  1
  S  S18  1  0.47820646  0.62382972  0.08209446  1
  S  S19  1  0.97883078  0.62550008  0.08341168  1
  S  S20  1  0.33370136  0.04351904  0.08202260  1
  S  S21  1  0.83239632  0.04222670  0.08331690  1
  S  S22  1  0.18801553  0.33229076  0.08308572  1
  S  S23  1  0.68731561  0.33194754  0.08221465  1
  S  S24  1  0.31100164  0.66596966  0.91636222  1
  S  S25  1  0.81147169  0.66607979  0.91483467  1
  S  S26  1  0.02182779  0.37734082  0.91512090  1
  S  S27  1  0.52153488  0.37735839  0.91598845  1
  S  S28  1  0.16673907  0.95652424  0.91496840  1
  S  S29  1  0.66716835  0.95600782  0.91637734  1
  S  S30  1  0.31072998  0.95599109  0.41521500  1
  S  S31  1  0.81076336  0.95629428  0.41667574  1
  S  S32  1  0.16753776  0.37827257  0.41665854  1
  S  S33  1  0.66794838  0.38076164  0.41558426  1
  S  S34  1  0.02158284  0.66555986  0.41635243  1
  S  S35  1  0.52229547  0.66353478  0.41585279  1
  O  O0  1  0.10924710  0.04055897  0.30240750  1
  O  O1  1  0.59772094  0.02744769  0.30477342  1
  O  O2  1  0.41320799  0.79072815  0.30367354  1
  O  O3  1  0.91243527  0.79192271  0.30329095  1
  O  O4  1  0.48147568  0.17259108  0.30374386  1
  O  O5  1  0.98390847  0.17601019  0.30312354  1
  O  O6  1  0.09902979  0.16980417  0.80481238  1
  O  O7  1  0.60520154  0.17712174  0.80353102  1
  O  O8  1  0.48319060  0.78967701  0.80366009  1
  O  O9  1  0.98589461  0.80147370  0.80476355  1
  O  O10  1  0.41149180  0.03298660  0.80372370  1
  O  O11  1  0.91478434  0.02817849  0.80469082  1
  O  O12  1  0.40117007  0.97746616  0.69610219  1
  O  O13  1  0.89640494  0.97327603  0.69700132  1
  O  O14  1  0.09034007  0.20731206  0.69714737  1
  O  O15  1  0.58756515  0.19720992  0.69593998  1
  O  O16  1  0.01332061  0.81907732  0.69703161  1
  O  O17  1  0.51104037  0.82501909  0.69605047  1
  O  O18  1  0.39623080  0.81749686  0.19604655  1
  O  O19  1  0.90149742  0.82524621  0.19604097  1
  O  O20  1  0.01091324  0.19595039  0.19569663  1
  O  O21  1  0.51204570  0.20830643  0.19611857  1
  O  O22  1  0.08932207  0.97692953  0.19507457  1
  O  O23  1  0.59021191  0.97285541  0.19728355  1
  O  O24  1  0.44263469  0.37040272  0.63621429  1
  O  O25  1  0.94207371  0.36854581  0.63628132  1
  O  O26  1  0.24175072  0.11502336  0.63582301  1
  O  O27  1  0.74299423  0.11533547  0.63656012  1
  O  O28  1  0.31494746  0.51438952  0.63660968  1
  O  O29  1  0.81539703  0.51584443  0.63581161  1
  O  O30  1  0.43496835  0.50752340  0.13700846  1
  O  O31  1  0.94265401  0.51523365  0.13654795  1
  O  O32  1  0.31850848  0.12888946  0.13685498  1
  O  O33  1  0.81545673  0.11593619  0.13690282  1
  O  O34  1  0.24665404  0.36469328  0.13728522  1
  O  O35  1  0.74134670  0.36825753  0.13598861  1
  O  O36  1  0.22694367  0.29962146  0.03076068  1
  O  O37  1  0.72770448  0.30388806  0.02873582  1
  O  O38  1  0.42246206  0.54123786  0.03005821  1
  O  O39  1  0.92497205  0.55130608  0.02969903  1
  O  O40  1  0.34785646  0.15393953  0.02975311  1
  O  O41  1  0.85163104  0.15217597  0.02997263  1
  O  O42  1  0.22751579  0.15110893  0.52855636  1
  O  O43  1  0.72485172  0.15052225  0.52959925  1
  O  O44  1  0.35151442  0.55141288  0.52985892  1
  O  O45  1  0.84745348  0.54458783  0.52834416  1
  O  O46  1  0.42484157  0.29896592  0.52928499  1
  O  O47  1  0.92430199  0.30366211  0.52899559  1
  O  O48  1  0.26491961  0.69061868  0.97186491  1
  O  O49  1  0.76944653  0.69570525  0.97031888  1
  O  O50  1  0.07919340  0.46366673  0.97085645  1
  O  O51  1  0.57925406  0.46800167  0.97140209  1
  O  O52  1  0.15239062  0.84158264  0.97050470  1
  O  O53  1  0.65498017  0.84061607  0.97178761  1
  O  O54  1  0.27204731  0.84514648  0.46950482  1
  O  O55  1  0.76533487  0.84031538  0.47139926  1
  O  O56  1  0.15511594  0.46760929  0.47122304  1
  O  O57  1  0.65045553  0.45823976  0.46980066  1
  O  O58  1  0.07907107  0.69112206  0.47093342  1
  O  O59  1  0.57776628  0.69808159  0.47007708  1
  O  O60  1  0.06218447  0.63877696  0.36292646  1
  O  O61  1  0.56226252  0.63739925  0.36247662  1
  O  O62  1  0.25670693  0.87588586  0.36191888  1
  O  O63  1  0.75680606  0.87472036  0.36362967  1
  O  O64  1  0.18109709  0.48588990  0.36323674  1
  O  O65  1  0.68088563  0.48666634  0.36216109  1
  O  O66  1  0.06339893  0.48946175  0.86354972  1
  O  O67  1  0.56263810  0.48657313  0.86354189  1
  O  O68  1  0.18162138  0.87425387  0.86316483  1
  O  O69  1  0.68038146  0.87366583  0.86378611  1
  O  O70  1  0.25645388  0.63905247  0.86399687  1
  O  O71  1  0.75565919  0.63696502  0.86298421  1
  O  O72  1  0.01483681  0.82992925  0.41296514  1
  O  O73  1  0.51365983  0.83035682  0.40758500  1
  O  O74  1  0.40210594  0.97215027  0.40612098  1
  O  O75  1  0.89970636  0.97016212  0.41366662  1
  O  O76  1  0.08551221  0.19991175  0.41324666  1
  O  O77  1  0.58418252  0.19750961  0.40740809  1
  O  O78  1  0.01513265  0.19871416  0.90957912  1
  O  O79  1  0.51485288  0.19975935  0.91374306  1
  O  O80  1  0.08432799  0.97022468  0.90944161  1
  O  O81  1  0.58502400  0.96967039  0.91405385  1
  O  O82  1  0.39979619  0.83009395  0.91415486  1
  O  O83  1  0.90117836  0.83163943  0.90877390  1
  O  O84  1  0.49204373  0.17540840  0.59314793  1
  O  O85  1  0.99220069  0.17666101  0.58902235  1
  O  O86  1  0.09601076  0.01458373  0.58876110  1
  O  O87  1  0.59585236  0.01689044  0.59326434  1
  O  O88  1  0.41284725  0.80858720  0.59371368  1
  O  O89  1  0.91142306  0.80786971  0.58874083  1
  O  O90  1  0.48878909  0.80205320  0.09115492  1
  O  O91  1  0.99239392  0.80941177  0.09381919  1
  O  O92  1  0.41154728  0.02036079  0.09117070  1
  O  O93  1  0.91267414  0.01754738  0.09334952  1
  O  O94  1  0.09851320  0.17478724  0.09489507  1
  O  O95  1  0.59582954  0.17692890  0.08857435  1
  O  O96  1  0.34717694  0.16281231  0.74190337  1
  O  O97  1  0.84907556  0.16516619  0.74672163  1
  O  O98  1  0.23353173  0.30229881  0.74690510  1
  O  O99  1  0.73440826  0.30590586  0.74165960  1
  O  O100  1  0.41840396  0.53119423  0.74179226  1
  O  O101  1  0.91761536  0.53284862  0.74678598  1
  O  O102  1  0.34755494  0.52729161  0.24221488  1
  O  O103  1  0.84730921  0.53201239  0.24177803  1
  O  O104  1  0.41607775  0.30546027  0.24240956  1
  O  O105  1  0.91869757  0.30539661  0.24157425  1
  O  O106  1  0.23687213  0.16630963  0.23851570  1
  O  O107  1  0.73300490  0.16447989  0.24705843  1
  O  O108  1  0.31951286  0.50581432  0.92516107  1
  O  O109  1  0.82288939  0.50944345  0.92413873  1
  O  O110  1  0.43262305  0.35948973  0.92465988  1
  O  O111  1  0.93246142  0.35597395  0.92479746  1
  O  O112  1  0.24542903  0.13472267  0.92461154  1
  O  O113  1  0.74731604  0.13457380  0.92483592  1
  O  O114  1  0.32471401  0.13814987  0.42310632  1
  O  O115  1  0.81961482  0.13435527  0.42467267  1
  O  O116  1  0.24764323  0.35909333  0.42416775  1
  O  O117  1  0.74465127  0.35266609  0.42352341  1
  O  O118  1  0.43120548  0.50997821  0.42357553  1
  O  O119  1  0.93207856  0.50558373  0.42404413  1
  O  O120  1  0.17905237  0.49465788  0.07590949  1
  O  O121  1  0.67823628  0.49731472  0.07160175  1
  O  O122  1  0.07099812  0.64844678  0.07210233  1
  O  O123  1  0.56758737  0.63784513  0.07588866  1
  O  O124  1  0.25081895  0.86407271  0.07515665  1
  O  O125  1  0.75379179  0.85847289  0.07324924  1
  O  O126  1  0.17846016  0.85948562  0.57162342  1
  O  O127  1  0.67546830  0.85860198  0.57295935  1
  O  O128  1  0.25394961  0.64909929  0.57280724  1
  O  O129  1  0.75150167  0.64361633  0.57203222  1
  O  O130  1  0.07018154  0.49650474  0.57263058  1
  O  O131  1  0.57076427  0.49337483  0.57182849  1
  O  O132  1  0.15648087  0.84505298  0.25498382  1
  O  O133  1  0.65232484  0.84125243  0.26031389  1
  O  O134  1  0.26640436  0.68628333  0.25889694  1
  O  O135  1  0.76803774  0.69686804  0.25496596  1
  O  O136  1  0.08059869  0.46367668  0.25452077  1
  O  O137  1  0.57668704  0.46721629  0.25925031  1
  O  O138  1  0.15249935  0.46353674  0.76040756  1
  O  O139  1  0.65159941  0.46381683  0.75500345  1
  O  O140  1  0.07927726  0.69433472  0.76036204  1
  O  O141  1  0.58027047  0.69731425  0.75486707  1
  O  O142  1  0.26818501  0.83935424  0.75504350  1
  O  O143  1  0.76786111  0.84156578  0.76027524  1
loop_
_geom_bond_atom_site_label_1
_geom_bond_atom_site_label_2
_geom_bond_distance
_geom_bond_site_symmetry_2
Na0 O76 2.526390 1_555
Na0 O72 2.533190 1_545
Na0 O75 2.534361 1_445
Na0 O86 2.539749 1_555
Na0 O85 2.545877 1_455
Na0 O89 2.548070 1_445
Na1 O81 2.477600 1_545
Na1 O79 2.487146 1_555
Na1 O82 2.510373 1_545
Na1 O95 2.546481 1_556
Na1 O90 2.635821 1_546
Na1 O92 2.639009 1_556
Na2 O98 2.492018 1_555
Na2 O100 2.553696 1_555
Na2 O96 2.564720 1_555
Na2 O110 2.631790 1_555
Na2 O108 2.652523 1_555
Na2 O112 2.657404 1_555
Na3 O97 2.493102 1_555
Na3 O101 2.506028 1_555
Na3 O99 2.570064 1_555
Na3 O113 2.617557 1_555
Na3 O109 2.620858 1_555
Na3 O111 2.649682 1_555
Na4 O116 2.507384 1_555
Na4 O114 2.516717 1_555
Na4 O118 2.526929 1_555
Na4 O102 2.639369 1_555
Na4 O104 2.645712 1_555
Na4 O106 2.701174 1_555
Na5 O107 2.528383 1_555
Na5 O119 2.578713 1_555
Na5 O115 2.593381 1_555
Na5 O117 2.597447 1_555
Na5 O105 2.597687 1_555
Na5 O103 2.618213 1_555
Mg0 O5 2.021781 1_455
Mg0 O3 2.031930 1_445
Mg0 O76 2.075438 1_555
Mg0 O0 2.082112 1_555
Mg0 O72 2.085177 1_545
Mg0 O75 2.094899 1_445
Mg1 O7 2.003340 1_555
Mg1 O8 2.004730 1_545
Mg1 O10 2.012996 1_555
Mg1 O79 2.118391 1_555
Mg1 O81 2.120847 1_545
Mg1 O82 2.130315 1_545
Mg2 O14 2.009997 1_555
Mg2 O16 2.016837 1_545
Mg2 O13 2.019031 1_445
Mg2 O86 2.061756 1_555
Mg2 O85 2.065963 1_455
Mg2 O89 2.075043 1_445
Mg3 O23 1.991027 1_545
Mg3 O21 2.007822 1_555
Mg3 O18 2.029296 1_545
Mg3 O95 2.051555 1_555
Mg3 O90 2.062935 1_545
Mg3 O92 2.084216 1_555
Mg4 O96 2.048278 1_555
Mg4 O28 2.051811 1_555
Mg4 O26 2.053362 1_555
Mg4 O100 2.056344 1_555
Mg4 O24 2.063593 1_555
Mg4 O98 2.114582 1_555
Mg5 O99 2.040170 1_555
Mg5 O25 2.053419 1_555
Mg5 O27 2.065815 1_555
Mg5 O29 2.067931 1_555
Mg5 O101 2.101716 1_555
Mg5 O97 2.115172 1_555
Mg6 O103 2.045860 1_555
Mg6 O33 2.046638 1_555
Mg6 O35 2.055033 1_555
Mg6 O105 2.061893 1_555
Mg6 O31 2.069721 1_555
Mg6 O107 2.113858 1_555
Mg7 O38 2.015642 1_556
Mg7 O40 2.021164 1_556
Mg7 O108 2.033281 1_555
Mg7 O110 2.035649 1_555
Mg7 O112 2.044655 1_555
Mg7 O36 2.044752 1_556
Mg8 O37 2.002084 1_556
Mg8 O41 2.046737 1_556
Mg8 O39 2.048844 1_556
Mg8 O113 2.056149 1_555
Mg8 O111 2.063154 1_555
Mg8 O109 2.071263 1_555
Mg9 O42 1.994949 1_555
Mg9 O44 2.033766 1_555
Mg9 O46 2.039529 1_555
Mg9 O116 2.063810 1_555
Mg9 O118 2.083585 1_555
Mg9 O114 2.096200 1_555
Mg10 O47 2.003668 1_555
Mg10 O45 2.010394 1_555
Mg10 O43 2.043475 1_555
Mg10 O115 2.048756 1_555
Mg10 O119 2.059569 1_555
Mg10 O117 2.087381 1_555
Mg11 O60 2.023364 1_555
Mg11 O64 2.033457 1_555
Mg11 O134 2.041484 1_555
Mg11 O62 2.054124 1_555
Mg11 O136 2.054200 1_555
Mg11 O132 2.089469 1_555
Mg12 O133 1.996522 1_555
Mg12 O63 2.023670 1_555
Mg12 O65 2.041939 1_555
Mg12 O137 2.042400 1_555
Mg12 O135 2.046213 1_555
Mg12 O61 2.055557 1_555
Mg13 O138 1.988760 1_555
Mg13 O140 2.003129 1_555
Mg13 O142 2.023282 1_555
Mg13 O68 2.047206 1_555
Mg13 O70 2.049148 1_555
Mg13 O66 2.075931 1_555
Mg14 O143 2.002181 1_555
Mg14 O141 2.030337 1_555
Mg14 O139 2.039706 1_555
Mg14 O67 2.046030 1_555
Mg14 O69 2.070397 1_555
Mg14 O71 2.077597 1_555
O0 S0 1.457774 1_545
O1 S1 1.551795 1_545
O1 Ti0 1.927919 1_545
O2 S2 1.499270 1_555
O2 Ti0 2.067900 1_555
O3 S3 1.461414 1_555
O4 S5 1.499832 1_555
O4 Ti0 2.082897 1_545
O5 S4 1.461525 1_555
O6 S6 1.558367 1_555
O6 Ti1 1.903601 1_445
O7 S7 1.465036 1_555
O8 S9 1.464911 1_555
O9 S8 1.560282 1_655
O9 Ti1 1.897401 1_555
O10 S10 1.464667 1_555
O11 S11 1.562017 1_545
O11 Ti1 1.894044 1_545
O12 S10 1.536450 1_565
O12 Ti2 1.914941 1_555
O13 S11 1.452652 1_555
O14 S6 1.453348 1_555
O15 S7 1.535715 1_555
O15 Ti2 1.928456 1_545
O16 S8 1.452742 1_555
O17 S9 1.536453 1_555
O17 Ti2 1.922525 1_555
O18 S2 1.452212 1_555
O19 S3 1.551254 1_555
O19 Ti3 1.887200 1_555
O20 S4 1.548617 1_455
O20 Ti3 1.908591 1_445
O21 S5 1.450513 1_555
O22 S0 1.490914 1_555
O22 Ti3 2.030497 1_455
O23 S1 1.457873 1_555
O24 S12 1.454061 1_555
O25 S13 1.457638 1_555
O26 S14 1.456482 1_555
O27 S15 1.455271 1_555
O28 S16 1.456467 1_555
O29 S17 1.454269 1_555
O30 S18 1.525575 1_555
O30 Ti4 1.972019 1_555
O31 S19 1.455184 1_555
O32 S20 1.519995 1_555
O32 Ti4 1.993027 1_555
O33 S21 1.454138 1_555
O34 S22 1.515026 1_555
O34 Ti4 1.998320 1_555
O35 S23 1.458968 1_555
O36 S22 1.446062 1_555
O37 S23 1.464742 1_555
O38 S18 1.451574 1_555
O39 S19 1.458620 1_555
O40 S20 1.451424 1_555
O41 S21 1.457442 1_555
O42 S14 1.466855 1_555
O43 S15 1.458903 1_555
O44 S16 1.461562 1_555
O45 S17 1.463130 1_555
O46 S12 1.461268 1_555
O47 S13 1.464645 1_555
O48 S24 1.545665 1_555
O48 Ti5 1.943603 1_556
O49 S25 1.522621 1_555
O49 Ti6 1.971775 1_556
O50 S26 1.535291 1_555
O50 Ti5 1.955854 1_556
O51 S27 1.538271 1_555
O51 Ti6 1.941486 1_556
O52 S28 1.532401 1_555
O52 Ti5 1.954660 1_556
O53 S29 1.538857 1_555
O53 Ti6 1.962191 1_556
O54 S30 1.483419 1_555
O54 Ti7 2.104998 1_555
O55 S31 1.527455 1_555
O55 Ti8 1.969111 1_555
O56 S32 1.515466 1_555
O56 Ti7 1.995399 1_555
O57 S33 1.487380 1_555
O57 Ti8 2.086061 1_555
O58 S34 1.520238 1_555
O58 Ti7 1.988345 1_555
O59 S35 1.482374 1_555
O59 Ti8 2.100491 1_555
O60 S34 1.461423 1_555
O61 S35 1.452261 1_555
O62 S30 1.459023 1_555
O63 S31 1.455976 1_555
O64 S32 1.460492 1_555
O65 S33 1.454071 1_555
O66 S26 1.445752 1_555
O67 S27 1.449921 1_555
O68 S28 1.447805 1_555
O69 S29 1.450603 1_555
O70 S24 1.448943 1_555
O71 S25 1.449049 1_555
O72 S34 1.479187 1_555
O73 S35 1.528091 1_555
O73 Ti0 1.927797 1_555
O74 S30 1.522478 1_555
O74 Ti0 1.962119 1_555
O75 S31 1.477260 1_555
O76 S32 1.479853 1_555
O77 S33 1.525682 1_555
O77 Ti0 1.936795 1_545
O78 S26 1.489134 1_555
O78 Ti1 2.078692 1_445
O79 S27 1.476136 1_555
O80 S28 1.487327 1_555
O80 Ti1 2.084501 1_455
O81 S29 1.478211 1_555
O82 S24 1.475207 1_555
O83 S25 1.494724 1_555
O83 Ti1 2.052833 1_555
O84 S12 1.492895 1_555
O84 Ti2 2.024612 1_545
O85 S13 1.470451 1_555
O86 S14 1.472403 1_555
O87 S15 1.487631 1_555
O87 Ti2 2.028253 1_545
O88 S16 1.497980 1_555
O88 Ti2 2.005385 1_555
O89 S17 1.469326 1_555
O90 S18 1.466287 1_555
O91 S19 1.498985 1_555
O91 Ti3 2.013468 1_555
O92 S20 1.465603 1_555
O93 S21 1.517429 1_555
O93 Ti3 1.936772 1_545
O94 S22 1.481137 1_555
O94 Ti3 2.050706 1_445
O95 S23 1.476630 1_555
O96 S10 1.471936 1_555
O97 S11 1.475723 1_545
O98 S6 1.475364 1_555
O99 S7 1.474662 1_555
O100 S9 1.473064 1_555
O101 S8 1.476434 1_655
O102 S2 1.544171 1_555
O102 Ti4 1.993939 1_555
O103 S3 1.468709 1_555
O104 S5 1.546279 1_555
O104 Ti4 1.985629 1_555
O105 S4 1.470386 1_555
O106 S0 1.543727 1_545
O106 Ti4 1.954794 1_555
O107 S1 1.475840 1_545
O108 S24 1.471671 1_555
O109 S25 1.472443 1_555
O110 S27 1.473127 1_555
O111 S26 1.471703 1_655
O112 S28 1.468951 1_545
O113 S29 1.477335 1_545
O114 S30 1.473753 1_545
O115 S31 1.473993 1_545
O116 S32 1.479178 1_555
O117 S33 1.468384 1_555
O118 S35 1.471053 1_555
O119 S34 1.476137 1_655
O120 S22 1.490510 1_555
O120 Ti5 2.062314 1_555
O121 S23 1.527416 1_555
O121 Ti6 1.927457 1_555
O122 S19 1.519378 1_455
O122 Ti5 1.946423 1_555
O123 S18 1.489106 1_555
O123 Ti6 2.053667 1_555
O124 S20 1.497521 1_565
O124 Ti5 2.035323 1_555
O125 S21 1.498202 1_565
O125 Ti6 1.990624 1_555
O126 S14 1.530244 1_565
O126 Ti7 1.910629 1_555
O127 S15 1.526108 1_565
O127 Ti8 1.908649 1_555
O128 S16 1.511311 1_555
O128 Ti7 1.954205 1_555
O129 S17 1.542893 1_555
O129 Ti8 1.877728 1_555
O130 S13 1.534672 1_455
O130 Ti7 1.895270 1_555
O131 S12 1.520480 1_555
O131 Ti8 1.932268 1_555
O132 S0 1.449585 1_555
O133 S1 1.449005 1_555
O134 S2 1.447346 1_555
O135 S3 1.452911 1_555
O136 S4 1.456347 1_455
O137 S5 1.446041 1_555
O138 S6 1.448024 1_555
O139 S7 1.455642 1_555
O140 S8 1.447438 1_555
O141 S9 1.456419 1_555
O142 S10 1.455474 1_565
O143 S11 1.448020 1_555
