# generated using pymatgen
data_NaTaSn3(PO4)6
_symmetry_space_group_name_H-M   'P 1'
_cell_length_a   8.72775806
_cell_length_b   8.72775778
_cell_length_c   22.79941376
_cell_angle_alpha   90.00000000
_cell_angle_beta   90.00000000
_cell_angle_gamma   120.00000108
_symmetry_Int_Tables_number   1
_chemical_formula_structural   NaTaSn3(PO4)6
_chemical_formula_sum   'Na3 Ta3 Sn9 P18 O72'
_cell_volume   1504.04105306
_cell_formula_units_Z   3
loop_
 _symmetry_equiv_pos_site_id
 _symmetry_equiv_pos_as_xyz
  1  'x, y, z'
loop_
 _atom_site_type_symbol
 _atom_site_label
 _atom_site_symmetry_multiplicity
 _atom_site_fract_x
 _atom_site_fract_y
 _atom_site_fract_z
 _atom_site_occupancy
  Na  Na0  1  0.00000000  -0.00000000  0.99812698  1
  Na  Na1  1  0.66666700  0.33333300  0.83385273  1
  Na  Na2  1  0.66666700  0.33333300  0.33313606  1
  Ta  Ta0  1  0.00000000  -0.00000000  0.64518365  1
  Ta  Ta1  1  0.00000000  -0.00000000  0.14664367  1
  Ta  Ta2  1  0.33333300  0.66666700  0.52122602  1
  Sn  Sn0  1  0.00000000  -0.00000000  0.35551152  1
  Sn  Sn1  1  0.00000000  -0.00000000  0.85291250  1
  Sn  Sn2  1  0.66666700  0.33333300  0.68597646  1
  Sn  Sn3  1  0.66666700  0.33333300  0.18558341  1
  Sn  Sn4  1  0.66666700  0.33333300  0.98049661  1
  Sn  Sn5  1  0.66666700  0.33333300  0.48051852  1
  Sn  Sn6  1  0.33333300  0.66666700  0.02056857  1
  Sn  Sn7  1  0.33333300  0.66666700  0.31107617  1
  Sn  Sn8  1  0.33333300  0.66666700  0.81167620  1
  P  P0  1  0.28992881  0.00063138  0.25080090  1
  P  P1  1  0.71070257  0.71007119  0.25080090  1
  P  P2  1  0.99936862  0.28929743  0.25080090  1
  P  P3  1  0.28989188  0.28978593  0.75023008  1
  P  P4  1  -0.00010595  0.71010812  0.75023008  1
  P  P5  1  0.71021407  0.00010595  0.75023008  1
  P  P6  1  0.95494388  0.33343008  0.58336292  1
  P  P7  1  0.37848719  0.04505612  0.58336292  1
  P  P8  1  0.66656992  0.62151281  0.58336292  1
  P  P9  1  0.95723285  0.62226674  0.08318740  1
  P  P10  1  0.66503489  0.04276715  0.08318740  1
  P  P11  1  0.37773326  0.33496511  0.08318740  1
  P  P12  1  0.62328650  0.66661478  0.91650054  1
  P  P13  1  0.04332728  0.37671350  0.91650054  1
  P  P14  1  0.33338522  0.95667272  0.91650054  1
  P  P15  1  0.62239470  0.95574123  0.41603755  1
  P  P16  1  0.33334553  0.37760530  0.41603755  1
  P  P17  1  0.04425877  0.66665447  0.41603755  1
  O  O0  1  0.21116743  0.03758982  0.30544129  1
  O  O1  1  0.82642239  0.78883257  0.30544129  1
  O  O2  1  0.96241018  0.17357761  0.30544129  1
  O  O3  1  0.21268696  0.17480538  0.80509297  1
  O  O4  1  0.96211842  0.78731304  0.80509297  1
  O  O5  1  0.82519462  0.03788158  0.80509297  1
  O  O6  1  0.80351865  0.97548003  0.69536682  1
  O  O7  1  0.17196138  0.19648135  0.69536682  1
  O  O8  1  0.02451997  0.82803862  0.69536682  1
  O  O9  1  0.80326426  0.82789764  0.19573181  1
  O  O10  1  0.02463339  0.19673574  0.19573181  1
  O  O11  1  0.17210236  0.97536661  0.19573181  1
  O  O12  1  0.88110947  0.37321635  0.63816131  1
  O  O13  1  0.49210787  0.11889053  0.63816131  1
  O  O14  1  0.62678365  0.50789213  0.63816131  1
  O  O15  1  0.87804889  0.51119966  0.13855970  1
  O  O16  1  0.63315177  0.12195111  0.13855970  1
  O  O17  1  0.48880034  0.36684823  0.13855970  1
  O  O18  1  0.45015317  0.29091074  0.02819058  1
  O  O19  1  0.84075857  0.54984683  0.02819058  1
  O  O20  1  0.70908926  0.15924143  0.02819058  1
  O  O21  1  0.45238692  0.15900679  0.52844763  1
  O  O22  1  0.70662087  0.54761308  0.52844763  1
  O  O23  1  0.84099321  0.29337913  0.52844763  1
  O  O24  1  0.54567635  0.70097486  0.97223068  1
  O  O25  1  0.15529752  0.45432365  0.97223068  1
  O  O26  1  0.29902514  0.84470248  0.97223068  1
  O  O27  1  0.52972867  0.83868108  0.47121945  1
  O  O28  1  0.30895141  0.47027133  0.47121945  1
  O  O29  1  0.16131892  0.69104859  0.47121945  1
  O  O30  1  0.12224775  0.62907189  0.36130578  1
  O  O31  1  0.50682313  0.87775225  0.36130578  1
  O  O32  1  0.37092811  0.49317687  0.36130578  1
  O  O33  1  0.12129499  0.48913542  0.86084770  1
  O  O34  1  0.36783943  0.87870501  0.86084770  1
  O  O35  1  0.51086458  0.63216057  0.86084770  1
  O  O36  1  0.02961842  0.83238119  0.41100537  1
  O  O37  1  0.80276278  0.97038158  0.41100537  1
  O  O38  1  0.16761881  0.19723722  0.41100537  1
  O  O39  1  0.02413815  0.19098181  0.91118315  1
  O  O40  1  0.16684366  0.97586185  0.91118315  1
  O  O41  1  0.80901819  0.83315634  0.91118315  1
  O  O42  1  0.97842022  0.17126569  0.59447912  1
  O  O43  1  0.19284547  0.02157978  0.59447912  1
  O  O44  1  0.82873431  0.80715453  0.59447912  1
  O  O45  1  0.97569876  0.80908477  0.09275880  1
  O  O46  1  0.83338601  0.02430124  0.09275880  1
  O  O47  1  0.19091523  0.16661399  0.09275880  1
  O  O48  1  0.69289857  0.16670680  0.74301209  1
  O  O49  1  0.47380924  0.30710143  0.74301209  1
  O  O50  1  0.83329320  0.52619076  0.74301209  1
  O  O51  1  0.69278522  0.52599822  0.24336627  1
  O  O52  1  0.83321400  0.30721478  0.24336627  1
  O  O53  1  0.47400178  0.16678600  0.24336627  1
  O  O54  1  0.64227522  0.49998242  0.92212980  1
  O  O55  1  0.85770820  0.35772478  0.92212980  1
  O  O56  1  0.50001758  0.14229180  0.92212980  1
  O  O57  1  0.64018197  0.14023408  0.42346790  1
  O  O58  1  0.50005310  0.35981803  0.42346790  1
  O  O59  1  0.85976592  0.49994690  0.42346790  1
  O  O60  1  0.35412079  0.49502752  0.07561924  1
  O  O61  1  0.14090573  0.64587921  0.07561924  1
  O  O62  1  0.50497248  0.85909427  0.07561924  1
  O  O63  1  0.35482919  0.85933107  0.57219633  1
  O  O64  1  0.50450087  0.64517081  0.57219633  1
  O  O65  1  0.14066893  0.49549913  0.57219633  1
  O  O66  1  0.30374953  0.83394515  0.25587204  1
  O  O67  1  0.53019463  0.69625047  0.25587204  1
  O  O68  1  0.16605485  0.46980537  0.25587204  1
  O  O69  1  0.30398131  0.47028746  0.75558709  1
  O  O70  1  0.16630515  0.69601869  0.75558709  1
  O  O71  1  0.52971254  0.83369485  0.75558709  1
loop_
_geom_bond_atom_site_label_1
_geom_bond_atom_site_label_2
_geom_bond_distance
_geom_bond_site_symmetry_2
Na0 O39 2.530016 1_555
Na0 O41 2.530016 1_445
Na0 O40 2.530016 1_545
Na0 O45 2.668900 1_446
Na0 O47 2.668900 1_556
Na0 O46 2.668900 1_456
Na1 O56 2.553680 1_555
Na1 O54 2.553680 1_555
Na1 O55 2.553680 1_555
Na1 O50 2.605721 1_555
Na1 O49 2.605721 1_555
Na1 O48 2.605721 1_555
Na2 O51 2.585573 1_555
Na2 O53 2.585573 1_555
Na2 O52 2.585573 1_555
Na2 O57 2.597260 1_555
Na2 O59 2.597260 1_555
Na2 O58 2.597261 1_555
O0 P0 1.533054 1_555
O0 Sn0 2.050095 1_555
O1 P1 1.533054 1_555
O1 Sn0 2.050095 1_665
O2 P2 1.533054 1_555
O2 Sn0 2.050095 1_655
O3 P3 1.532809 1_555
O3 Sn1 2.032246 1_555
O4 P4 1.532809 1_655
O4 Sn1 2.032246 1_665
O5 P5 1.532809 1_555
O5 Sn1 2.032246 1_655
O6 P5 1.564927 1_565
O6 Ta0 1.982062 1_665
O7 P3 1.564927 1_555
O7 Ta0 1.982062 1_555
O8 P4 1.564927 1_555
O8 Ta0 1.982062 1_565
O9 P1 1.567092 1_555
O9 Ta1 1.969246 1_665
O10 P2 1.567092 1_455
O10 Ta1 1.969246 1_555
O11 P0 1.567092 1_565
O11 Ta1 1.969246 1_565
O12 P6 1.523331 1_555
O12 Sn2 2.039857 1_555
O13 P7 1.523331 1_555
O13 Sn2 2.039857 1_555
O14 P8 1.523331 1_555
O14 Sn2 2.039857 1_555
O15 P9 1.530084 1_555
O15 Sn3 2.024588 1_555
O16 P10 1.530084 1_555
O16 Sn3 2.024588 1_555
O17 P11 1.530084 1_555
O17 Sn3 2.024588 1_555
O18 P11 1.537082 1_555
O18 Sn4 2.047132 1_554
O19 P9 1.537082 1_555
O19 Sn4 2.047132 1_554
O20 P10 1.537082 1_555
O20 Sn4 2.047132 1_554
O21 P7 1.526839 1_555
O21 Sn5 2.039891 1_555
O22 P8 1.526839 1_555
O22 Sn5 2.039891 1_555
O23 P6 1.526839 1_555
O23 Sn5 2.039891 1_555
O24 P12 1.538293 1_555
O24 Sn6 2.045471 1_556
O25 P13 1.538293 1_555
O25 Sn6 2.045471 1_556
O26 P14 1.538293 1_555
O26 Sn6 2.045471 1_556
O27 P15 1.566677 1_555
O27 Ta2 1.979526 1_555
O28 P16 1.566677 1_555
O28 Ta2 1.979526 1_555
O29 P17 1.566677 1_555
O29 Ta2 1.979526 1_555
O30 P17 1.533396 1_555
O30 Sn7 2.051520 1_555
O31 P15 1.533396 1_555
O31 Sn7 2.051520 1_555
O32 P16 1.533396 1_555
O32 Sn7 2.051520 1_555
O33 P13 1.538862 1_555
O33 Sn8 2.053038 1_555
O34 P14 1.538862 1_555
O34 Sn8 2.053038 1_555
O35 P12 1.538862 1_555
O35 Sn8 2.053038 1_555
O36 P17 1.518700 1_555
O36 Sn0 2.045966 1_565
O37 P15 1.518709 1_555
O37 Sn0 2.045966 1_665
O38 P16 1.518705 1_555
O38 Sn0 2.045966 1_555
O39 P13 1.548861 1_555
O39 Sn1 2.058300 1_555
O40 P14 1.548852 1_555
O40 Sn1 2.058301 1_565
O41 P12 1.548857 1_555
O41 Sn1 2.058300 1_665
O42 P6 1.548991 1_555
O42 Ta0 1.971735 1_655
O43 P7 1.549000 1_555
O43 Ta0 1.971735 1_555
O44 P8 1.548996 1_555
O44 Ta0 1.971735 1_665
O45 P9 1.571417 1_555
O45 Ta1 1.994323 1_665
O46 P10 1.571409 1_555
O46 Ta1 1.994323 1_655
O47 P11 1.571414 1_555
O47 Ta1 1.994323 1_555
O48 P5 1.543999 1_555
O48 Sn2 2.047256 1_555
O49 P3 1.544007 1_555
O49 Sn2 2.047256 1_555
O50 P4 1.544004 1_655
O50 Sn2 2.047256 1_555
O51 P1 1.543678 1_555
O51 Sn3 2.057133 1_555
O52 P2 1.543670 1_555
O52 Sn3 2.057133 1_555
O53 P0 1.543674 1_555
O53 Sn3 2.057133 1_555
O54 P12 1.549203 1_555
O54 Sn4 2.059441 1_555
O55 P13 1.549185 1_655
O55 Sn4 2.059441 1_555
O56 P14 1.549193 1_545
O56 Sn4 2.059441 1_555
O57 P15 1.547772 1_545
O57 Sn5 2.048424 1_555
O58 P16 1.547789 1_555
O58 Sn5 2.048424 1_555
O59 P17 1.547779 1_655
O59 Sn5 2.048424 1_555
O60 P11 1.520431 1_555
O60 Sn6 2.030795 1_555
O61 P9 1.520414 1_455
O61 Sn6 2.030795 1_555
O62 P10 1.520420 1_565
O62 Sn6 2.030795 1_555
O63 P7 1.549282 1_565
O63 Ta2 1.974262 1_555
O64 P8 1.549299 1_555
O64 Ta2 1.974262 1_555
O65 P6 1.549289 1_455
O65 Ta2 1.974262 1_555
O66 P0 1.523101 1_565
O66 Sn7 2.039423 1_555
O67 P1 1.523109 1_555
O67 Sn7 2.039423 1_555
O68 P2 1.523105 1_455
O68 Sn7 2.039423 1_555
O69 P3 1.522537 1_555
O69 Sn8 2.049272 1_555
O70 P4 1.522528 1_555
O70 Sn8 2.049272 1_555
O71 P5 1.522533 1_565
O71 Sn8 2.049272 1_555
