# generated using pymatgen
data_Na4Mg3TiSiS5O24
_symmetry_space_group_name_H-M   'P 1'
_cell_length_a   8.80650780
_cell_length_b   8.82843952
_cell_length_c   22.39155764
_cell_angle_alpha   90.34390074
_cell_angle_beta   89.86602410
_cell_angle_gamma   120.20645004
_symmetry_Int_Tables_number   1
_chemical_formula_structural   Na4Mg3TiSiS5O24
_chemical_formula_sum   'Na12 Mg9 Ti3 Si3 S15 O72'
_cell_volume   1504.48343667
_cell_formula_units_Z   3
loop_
 _symmetry_equiv_pos_site_id
 _symmetry_equiv_pos_as_xyz
  1  'x, y, z'
loop_
 _atom_site_type_symbol
 _atom_site_label
 _atom_site_symmetry_multiplicity
 _atom_site_fract_x
 _atom_site_fract_y
 _atom_site_fract_z
 _atom_site_occupancy
  Na  Na0  1  0.36143096  0.36161256  0.25059343  1
  Na  Na1  1  0.31420003  0.34322027  0.58740441  1
  Na  Na2  1  0.02809907  0.69857393  0.58321293  1
  Na  Na3  1  0.98428470  0.67842194  0.91965251  1
  Na  Na4  1  0.69894896  0.02722293  0.91209083  1
  Na  Na5  1  0.31288413  0.29163354  0.91871077  1
  Na  Na6  1  0.97178168  0.98712773  0.49775559  1
  Na  Na7  1  0.01470453  0.01193176  0.00224664  1
  Na  Na8  1  0.66443948  0.32742344  0.82528940  1
  Na  Na9  1  0.67953954  0.32591543  0.33170334  1
  Na  Na10  1  0.32893324  0.67750151  0.16696110  1
  Na  Na11  1  0.36552426  0.67878025  0.66499526  1
  Mg  Mg0  1  0.99420579  0.99701860  0.35026692  1
  Mg  Mg1  1  0.00380662  0.00631917  0.84868129  1
  Mg  Mg2  1  0.98448128  0.99292760  0.64821954  1
  Mg  Mg3  1  0.99886247  0.99583123  0.14944416  1
  Mg  Mg4  1  0.66114114  0.33420099  0.68445817  1
  Mg  Mg5  1  0.67326174  0.33388023  0.18551632  1
  Mg  Mg6  1  0.32306645  0.66113473  0.01945411  1
  Mg  Mg7  1  0.34857052  0.67535993  0.51559398  1
  Mg  Mg8  1  0.33608938  0.67782082  0.31665284  1
  Ti  Ti0  1  0.66861170  0.32282343  0.98178046  1
  Ti  Ti1  1  0.66988241  0.34679129  0.48138797  1
  Ti  Ti2  1  0.32000286  0.67242649  0.81741672  1
  Si  Si0  1  0.66391091  0.63280824  0.58647313  1
  Si  Si1  1  0.04234956  0.37276315  0.91957102  1
  Si  Si2  1  0.32976988  0.95777421  0.91988355  1
  S  S0  1  0.29228975  0.99861598  0.24954797  1
  S  S1  1  0.70477683  0.70549189  0.24977209  1
  S  S2  1  0.00036204  0.29336248  0.25038843  1
  S  S3  1  0.29799835  0.30037220  0.75033579  1
  S  S4  1  0.00027419  0.70358803  0.75043417  1
  S  S5  1  0.69933831  0.99655994  0.75134621  1
  S  S6  1  0.95442860  0.33236661  0.58261143  1
  S  S7  1  0.37995901  0.04312355  0.58321301  1
  S  S8  1  0.95625028  0.62479103  0.08418236  1
  S  S9  1  0.66753247  0.03900289  0.08416024  1
  S  S10  1  0.37731977  0.33538845  0.08450613  1
  S  S11  1  0.62116427  0.66412419  0.91685347  1
  S  S12  1  0.63061820  0.96677433  0.41654378  1
  S  S13  1  0.33224479  0.36751500  0.41668748  1
  S  S14  1  0.03920334  0.66629978  0.41838034  1
  O  O0  1  0.20984869  0.02806356  0.30283446  1
  O  O1  1  0.80924635  0.78711198  0.30348532  1
  O  O2  1  0.97751753  0.18845830  0.30394011  1
  O  O3  1  0.21071613  0.19802349  0.80441809  1
  O  O4  1  0.98133279  0.78711259  0.80494951  1
  O  O5  1  0.79781361  0.01579187  0.80713372  1
  O  O6  1  0.78672655  0.97541653  0.69871673  1
  O  O7  1  0.19350034  0.21776174  0.69546998  1
  O  O8  1  0.02353560  0.80758105  0.69632697  1
  O  O9  1  0.78568282  0.80876682  0.19569914  1
  O  O10  1  0.02953247  0.21160781  0.19650812  1
  O  O11  1  0.18777691  0.97579726  0.19525040  1
  O  O12  1  0.87268179  0.35475076  0.63639090  1
  O  O13  1  0.48620714  0.11534383  0.63717567  1
  O  O14  1  0.62914846  0.49967346  0.63965742  1
  O  O15  1  0.86452436  0.51838957  0.13582330  1
  O  O16  1  0.64671445  0.12883093  0.13553543  1
  O  O17  1  0.47852501  0.34943006  0.13843685  1
  O  O18  1  0.47120024  0.31705584  0.02919815  1
  O  O19  1  0.85114720  0.53397583  0.02746114  1
  O  O20  1  0.68608411  0.14832055  0.02694459  1
  O  O21  1  0.47030665  0.15480225  0.52964712  1
  O  O22  1  0.68862731  0.51867804  0.52580798  1
  O  O23  1  0.84248488  0.30400468  0.52835572  1
  O  O24  1  0.54968280  0.70013979  0.97082976  1
  O  O25  1  0.17552125  0.45000857  0.97356114  1
  O  O26  1  0.29948384  0.83557260  0.97478959  1
  O  O27  1  0.54908063  0.86226817  0.47018396  1
  O  O28  1  0.31093160  0.45145985  0.47074333  1
  O  O29  1  0.13758688  0.68594287  0.47409030  1
  O  O30  1  0.12335186  0.64022664  0.36600808  1
  O  O31  1  0.52362752  0.88698074  0.36277888  1
  O  O32  1  0.36253183  0.47346958  0.36254337  1
  O  O33  1  0.13576019  0.51095087  0.86086601  1
  O  O34  1  0.37695559  0.87116737  0.85963655  1
  O  O35  1  0.50521068  0.62924416  0.86370877  1
  O  O36  1  0.01164466  0.81692123  0.41243213  1
  O  O37  1  0.80876449  0.98874973  0.41068356  1
  O  O38  1  0.17884129  0.18945356  0.41092338  1
  O  O39  1  0.99508709  0.17470176  0.90690313  1
  O  O40  1  0.16500570  0.98478577  0.90805603  1
  O  O41  1  0.79922111  0.81367468  0.90695012  1
  O  O42  1  0.98507815  0.18241258  0.58651225  1
  O  O43  1  0.20868126  0.04045404  0.58790987  1
  O  O44  1  0.84971641  0.81508682  0.58484904  1
  O  O45  1  0.96812420  0.79858073  0.08549444  1
  O  O46  1  0.83074811  0.03133819  0.08564138  1
  O  O47  1  0.20193190  0.17480226  0.08507742  1
  O  O48  1  0.67720880  0.15174270  0.74626540  1
  O  O49  1  0.47328567  0.31628471  0.74723792  1
  O  O50  1  0.84940103  0.52399212  0.74610959  1
  O  O51  1  0.67923979  0.52354815  0.24454922  1
  O  O52  1  0.84485394  0.31489067  0.24403987  1
  O  O53  1  0.47014549  0.16220958  0.24427642  1
  O  O54  1  0.63571285  0.50192121  0.92264838  1
  O  O55  1  0.85067620  0.36939931  0.92688335  1
  O  O56  1  0.51000257  0.15704128  0.92619843  1
  O  O57  1  0.64975351  0.14618190  0.42349814  1
  O  O58  1  0.49543991  0.34894848  0.42393221  1
  O  O59  1  0.85825057  0.49871738  0.42326472  1
  O  O60  1  0.36626237  0.49568213  0.07930096  1
  O  O61  1  0.13108212  0.64187004  0.08038506  1
  O  O62  1  0.51190993  0.86445438  0.07754427  1
  O  O63  1  0.34169932  0.86196281  0.57417612  1
  O  O64  1  0.48835901  0.64323976  0.57666355  1
  O  O65  1  0.12771092  0.49617716  0.57488436  1
  O  O66  1  0.31390956  0.84396361  0.25573036  1
  O  O67  1  0.52241697  0.67963061  0.25521843  1
  O  O68  1  0.16366479  0.47077867  0.25637005  1
  O  O69  1  0.31849429  0.48036524  0.75606752  1
  O  O70  1  0.16804391  0.69245933  0.75531457  1
  O  O71  1  0.52111558  0.83204264  0.75538941  1
loop_
_geom_bond_atom_site_label_1
_geom_bond_atom_site_label_2
_geom_bond_distance
_geom_bond_site_symmetry_2
Na0 O68 2.380186 1_555
Na0 O53 2.393320 1_555
Na0 O51 2.422754 1_555
Na0 O67 2.428019 1_555
Na0 O32 2.686963 1_555
Na0 O17 2.734611 1_555
Na0 O10 2.804637 1_555
Na0 O0 2.810745 1_555
Na1 O64 2.311710 1_555
Na1 O43 2.347189 1_555
Na1 O42 2.505225 1_455
Na1 O65 2.614873 1_555
Na1 O7 2.654682 1_555
Na1 O14 2.666554 1_555
Na1 O28 2.792074 1_555
Na1 O21 2.931974 1_555
Na2 O44 2.269908 1_455
Na2 O65 2.360006 1_555
Na2 O63 2.396066 1_555
Na2 O43 2.610967 1_565
Na2 O29 2.646953 1_555
Na2 O8 2.711459 1_555
Na2 O22 2.885812 1_455
Na2 O12 2.891413 1_455
Na3 O40 2.364508 1_655
Na3 O55 2.372344 1_555
Na3 O41 2.475331 1_555
Na3 O54 2.653830 1_555
Na3 O26 2.697132 1_655
Na3 O19 2.710636 1_556
Na3 O4 2.751911 1_555
Na3 O33 2.766075 1_655
Na4 O39 2.256934 1_555
Na4 O41 2.453462 1_545
Na4 O56 2.468645 1_555
Na4 O5 2.523378 1_555
Na4 O55 2.636147 1_555
Na4 O34 2.717270 1_545
Na4 O20 2.803078 1_556
Na4 O24 2.830951 1_545
Na5 O40 2.352722 1_545
Na5 O39 2.461959 1_455
Na5 O54 2.495050 1_555
Na5 O56 2.555928 1_555
Na5 O25 2.569266 1_555
Na5 O3 2.697991 1_555
Na5 O18 2.794530 1_556
Na5 O35 2.867732 1_555
Na6 O44 2.376645 1_555
Na6 O37 2.428280 1_555
Na6 O36 2.554316 1_655
Na6 O42 2.587020 1_565
Na6 O38 2.653988 1_665
Na6 O43 2.769336 1_665
Na7 O47 2.413042 1_555
Na7 O46 2.530227 1_455
Na7 O45 2.540046 1_445
Na7 O40 2.560799 1_544
Na7 O39 2.634567 1_454
Na7 O41 2.801757 1_444
Na8 O48 2.385552 1_555
Na8 O49 2.396467 1_555
Na8 O50 2.446888 1_555
Na8 O56 2.680605 1_555
Na8 O55 2.719912 1_555
Na8 O54 2.745728 1_555
Na9 O52 2.471626 1_555
Na9 O57 2.535593 1_555
Na9 O59 2.563046 1_555
Na9 O53 2.573466 1_555
Na9 O51 2.626451 1_555
Na9 O58 2.691794 1_555
Na10 O66 2.507482 1_555
Na10 O61 2.519892 1_555
Na10 O62 2.584155 1_555
Na10 O67 2.606185 1_555
Na10 O68 2.610467 1_555
Na10 O60 2.650959 1_555
Na11 O64 2.346215 1_555
Na11 O71 2.433037 1_555
Na11 O69 2.589869 1_555
Na11 O63 2.679136 1_555
Na11 O70 2.705755 1_555
Na11 O65 2.763987 1_555
Mg0 O1 2.032719 1_555
Mg0 O2 2.055683 1_565
Mg0 O0 2.068793 1_665
Mg0 O37 2.091252 1_555
Mg0 O38 2.139582 1_665
Mg0 O36 2.182312 1_655
Mg1 O39 2.001612 1_455
Mg1 O3 2.018789 1_555
Mg1 O40 2.025433 1_545
Mg1 O5 2.079626 1_455
Mg1 O4 2.082307 1_445
Mg1 O41 2.184780 1_445
Mg2 O44 1.998302 1_555
Mg2 O6 2.014276 1_555
Mg2 O8 2.131990 1_655
Mg2 O42 2.174051 1_565
Mg2 O7 2.180602 1_665
Mg2 O43 2.249170 1_665
Mg3 O11 2.038959 1_655
Mg3 O9 2.053363 1_555
Mg3 O10 2.066866 1_665
Mg3 O45 2.157262 1_555
Mg3 O46 2.193952 1_565
Mg3 O47 2.223499 1_665
Mg4 O14 1.911256 1_555
Mg4 O13 2.053142 1_555
Mg4 O12 2.077196 1_555
Mg4 O49 2.113404 1_555
Mg4 O50 2.156284 1_555
Mg4 O48 2.187955 1_555
Mg5 O15 1.995186 1_555
Mg5 O16 2.033534 1_555
Mg5 O52 2.072599 1_555
Mg5 O17 2.078050 1_555
Mg5 O51 2.106878 1_555
Mg5 O53 2.124332 1_555
Mg6 O26 1.938112 1_554
Mg6 O25 1.940299 1_554
Mg6 O61 2.109859 1_555
Mg6 O24 2.142347 1_554
Mg6 O62 2.158229 1_555
Mg6 O60 2.158492 1_555
Mg7 O64 1.956933 1_555
Mg7 O27 1.988617 1_555
Mg7 O28 2.084268 1_555
Mg7 O29 2.123313 1_555
Mg7 O63 2.124218 1_555
Mg7 O65 2.228257 1_555
Mg8 O31 2.029909 1_555
Mg8 O30 2.051936 1_555
Mg8 O66 2.089033 1_555
Mg8 O67 2.132704 1_555
Mg8 O68 2.157765 1_555
Mg8 O32 2.193399 1_555
O0 S0 1.483404 1_545
O1 S1 1.462838 1_555
O2 S2 1.469960 1_655
O3 S3 1.477730 1_555
O4 S4 1.474331 1_655
O5 S5 1.481785 1_545
O6 S5 1.467491 1_555
O7 S3 1.485685 1_555
O8 S4 1.475009 1_555
O9 S1 1.469857 1_555
O10 S2 1.489014 1_555
O11 S0 1.477029 1_555
O12 S6 1.464127 1_555
O13 S7 1.462108 1_555
O14 Si0 1.595758 1_555
O15 S8 1.455036 1_555
O16 S9 1.456104 1_555
O17 S10 1.469715 1_555
O18 S10 1.539769 1_555
O18 Ti0 2.013768 1_554
O19 S8 1.535961 1_555
O19 Ti0 2.018625 1_554
O20 S9 1.566737 1_555
O20 Ti0 1.917750 1_554
O21 S7 1.504706 1_555
O21 Ti1 2.035965 1_555
O22 Ti1 1.746400 1_555
O22 Si0 1.763720 1_555
O23 S6 1.504672 1_555
O23 Ti1 2.036957 1_555
O24 S11 1.466749 1_555
O25 Si1 1.579218 1_555
O26 Si2 1.572070 1_555
O27 S12 1.467003 1_555
O28 S13 1.475688 1_555
O29 S14 1.479225 1_555
O30 S14 1.463456 1_555
O31 S12 1.469894 1_555
O32 S13 1.475477 1_555
O33 Si1 1.702151 1_555
O33 Ti2 1.814722 1_555
O34 Si2 1.697604 1_555
O34 Ti2 1.822253 1_555
O35 S11 1.496169 1_555
O35 Ti2 2.125648 1_555
O36 S14 1.473736 1_555
O37 S12 1.486342 1_555
O38 S13 1.474572 1_555
O39 Si1 1.604206 1_655
O40 Si2 1.607212 1_555
O41 S11 1.473039 1_555
O42 S6 1.481265 1_555
O43 S7 1.500093 1_555
O44 Si0 1.618410 1_555
O45 S8 1.484549 1_555
O46 S9 1.473024 1_555
O47 S10 1.480702 1_555
O48 S5 1.482739 1_545
O49 S3 1.479482 1_555
O50 S4 1.472297 1_655
O51 S1 1.509557 1_555
O52 S2 1.481539 1_655
O53 S0 1.509321 1_545
O54 S11 1.506916 1_555
O54 Ti0 2.196588 1_555
O55 Si1 1.680853 1_655
O55 Ti0 1.893220 1_555
O56 Si2 1.680029 1_545
O56 Ti0 1.889781 1_555
O57 S12 1.513254 1_545
O57 Ti1 2.122725 1_555
O58 S13 1.535291 1_555
O58 Ti1 2.013575 1_555
O59 S14 1.539176 1_655
O59 Ti1 2.004162 1_555
O60 S10 1.471867 1_555
O61 S8 1.471888 1_455
O62 S9 1.465596 1_565
O63 S7 1.471950 1_565
O64 Si0 1.609950 1_555
O65 S6 1.493728 1_455
O66 S0 1.477678 1_555
O67 S1 1.508826 1_555
O68 S2 1.507070 1_555
O69 S3 1.511028 1_555
O69 Ti2 2.170659 1_555
O70 S4 1.533443 1_555
O70 Ti2 2.001402 1_555
O71 S5 1.512689 1_555
O71 Ti2 2.133590 1_555
