# generated using pymatgen
data_Hg2Os2O7
_symmetry_space_group_name_H-M   'P 1'
_cell_length_a   7.35438853
_cell_length_b   7.35438853
_cell_length_c   7.35438853
_cell_angle_alpha   60.00000000
_cell_angle_beta   60.00000000
_cell_angle_gamma   60.00000000
_symmetry_Int_Tables_number   1
_chemical_formula_structural   Hg2Os2O7
_chemical_formula_sum   'Hg4 Os4 O14'
_cell_volume   281.27084068
_cell_formula_units_Z   2
loop_
 _symmetry_equiv_pos_site_id
 _symmetry_equiv_pos_as_xyz
  1  'x, y, z'
loop_
 _atom_site_type_symbol
 _atom_site_label
 _atom_site_symmetry_multiplicity
 _atom_site_fract_x
 _atom_site_fract_y
 _atom_site_fract_z
 _atom_site_occupancy
  Hg  Hg0  1  0.12500000  0.12500000  0.12500000  1
  Hg  Hg1  1  0.62500000  0.12500000  0.12500000  1
  Hg  Hg2  1  0.12500000  0.12500000  0.62500000  1
  Hg  Hg3  1  0.12500000  0.62500000  0.12500000  1
  Os  Os0  1  0.62500000  0.62500000  0.62500000  1
  Os  Os1  1  0.12500000  0.62500000  0.62500000  1
  Os  Os2  1  0.62500000  0.62500000  0.12500000  1
  Os  Os3  1  0.62500000  0.12500000  0.62500000  1
  O  O0  1  0.00000000  0.00000000  0.00000000  1
  O  O1  1  0.25000000  0.25000000  0.25000000  1
  O  O2  1  0.31158800  0.31158800  0.68841200  1
  O  O3  1  0.56158800  0.56158800  0.93841200  1
  O  O4  1  0.68841200  0.31158800  0.68841200  1
  O  O5  1  0.68841200  0.31158800  0.31158800  1
  O  O6  1  0.31158800  0.68841200  0.68841200  1
  O  O7  1  0.31158800  0.68841200  0.31158800  1
  O  O8  1  0.68841200  0.68841200  0.31158800  1
  O  O9  1  0.93841200  0.56158800  0.56158800  1
  O  O10  1  0.56158800  0.93841200  0.93841200  1
  O  O11  1  0.93841200  0.93841200  0.56158800  1
  O  O12  1  0.93841200  0.56158800  0.93841200  1
  O  O13  1  0.56158800  0.93841200  0.56158800  1
loop_
_geom_bond_atom_site_label_1
_geom_bond_atom_site_label_2
_geom_bond_distance
_geom_bond_site_symmetry_2
Hg0 O1 2.251812 1_555
Hg0 O0 2.251812 1_555
Hg1 O1 2.251812 1_555
Hg1 O0 2.251812 1_655
Hg2 O1 2.251812 1_555
Hg2 O0 2.251812 1_556
Hg3 O1 2.251812 1_555
Hg3 O0 2.251812 1_565
O2 Os1 1.953309 1_555
O2 Os3 1.953309 1_555
O3 Os0 1.953309 1_555
O3 Os2 1.953309 1_556
O4 Os0 1.953309 1_555
O4 Os3 1.953309 1_555
O5 Os2 1.953309 1_555
O5 Os3 1.953309 1_555
O6 Os1 1.953309 1_555
O6 Os0 1.953309 1_555
O7 Os1 1.953309 1_555
O7 Os2 1.953309 1_555
O8 Os2 1.953309 1_555
O8 Os0 1.953309 1_555
O9 Os0 1.953309 1_555
O9 Os1 1.953309 1_655
O10 Os2 1.953309 1_556
O10 Os3 1.953309 1_565
O11 Os1 1.953309 1_655
O11 Os3 1.953309 1_565
O12 Os1 1.953309 1_655
O12 Os2 1.953309 1_556
O13 Os0 1.953309 1_555
O13 Os3 1.953309 1_565
