# generated using pymatgen
data_Na6MgNb5Si6(PO12)3
_symmetry_space_group_name_H-M   'P 1'
_cell_length_a   8.96932701
_cell_length_b   8.96932670
_cell_length_c   22.67297454
_cell_angle_alpha   89.94402275
_cell_angle_beta   90.05597726
_cell_angle_gamma   120.04382580
_symmetry_Int_Tables_number   1
_chemical_formula_structural   Na6MgNb5Si6(PO12)3
_chemical_formula_sum   'Na12 Mg2 Nb10 Si12 P6 O72'
_cell_volume   1578.94352118
_cell_formula_units_Z   2
loop_
 _symmetry_equiv_pos_site_id
 _symmetry_equiv_pos_as_xyz
  1  'x, y, z'
loop_
 _atom_site_type_symbol
 _atom_site_label
 _atom_site_symmetry_multiplicity
 _atom_site_fract_x
 _atom_site_fract_y
 _atom_site_fract_z
 _atom_site_occupancy
  Na  Na0  1  0.37816994  0.36996978  0.24011292  1
  Na  Na1  1  0.98510627  0.61767696  0.24140914  1
  Na  Na2  1  0.63003022  0.62183006  0.74011292  1
  Na  Na3  1  0.38232304  0.01489373  0.74140914  1
  Na  Na4  1  0.65979725  0.97522006  0.58626450  1
  Na  Na5  1  0.02477994  0.34020275  0.08626450  1
  Na  Na6  1  0.01283627  0.99835695  0.49868126  1
  Na  Na7  1  0.00164305  0.98716373  0.99868126  1
  Na  Na8  1  0.68122187  0.32907105  0.83087855  1
  Na  Na9  1  0.67092895  0.31877813  0.33087855  1
  Na  Na10  1  0.35454557  0.68873046  0.16364126  1
  Na  Na11  1  0.31126954  0.64545443  0.66364126  1
  Mg  Mg0  1  0.67281536  0.33153897  0.68516739  1
  Mg  Mg1  1  0.66846103  0.32718464  0.18516739  1
  Nb  Nb0  1  0.99715273  0.00430613  0.35768888  1
  Nb  Nb1  1  0.99569387  0.00284727  0.85768888  1
  Nb  Nb2  1  0.99910675  0.99817958  0.64316275  1
  Nb  Nb3  1  0.00182042  0.00089325  0.14316275  1
  Nb  Nb4  1  0.66320355  0.33750782  0.97851410  1
  Nb  Nb5  1  0.66249218  0.33679645  0.47851410  1
  Nb  Nb6  1  0.33348062  0.66770392  0.02055178  1
  Nb  Nb7  1  0.33229608  0.66651938  0.52055178  1
  Nb  Nb8  1  0.33225694  0.66614005  0.31388404  1
  Nb  Nb9  1  0.33385995  0.66774306  0.81388404  1
  Si  Si0  1  0.99326623  0.28911593  0.24977574  1
  Si  Si1  1  0.71088407  0.00673377  0.74977574  1
  Si  Si2  1  0.37880877  0.04636168  0.58638537  1
  Si  Si3  1  0.66197038  0.61551023  0.58770285  1
  Si  Si4  1  0.95363832  0.62119123  0.08638537  1
  Si  Si5  1  0.38448977  0.33802962  0.08770285  1
  Si  Si6  1  0.62086863  0.66456410  0.91651398  1
  Si  Si7  1  0.04190392  0.37935213  0.91760012  1
  Si  Si8  1  0.33524401  0.95739269  0.91622276  1
  Si  Si9  1  0.62064787  0.95809608  0.41760012  1
  Si  Si10  1  0.33543590  0.37913137  0.41651398  1
  Si  Si11  1  0.04260731  0.66475599  0.41622276  1
  P  P0  1  0.28677078  -0.00073729  0.25075128  1
  P  P1  1  0.71182888  0.71628110  0.25067884  1
  P  P2  1  0.28371890  0.28817112  0.75067884  1
  P  P3  1  0.00073729  0.71322922  0.75075128  1
  P  P4  1  0.95473596  0.33710842  0.58473199  1
  P  P5  1  0.66289158  0.04526404  0.08473199  1
  O  O0  1  0.19055299  0.01367830  0.30489924  1
  O  O1  1  0.82411250  0.80808166  0.30521252  1
  O  O2  1  0.98723416  0.16973105  0.30626673  1
  O  O3  1  0.19191834  0.17588750  0.80521252  1
  O  O4  1  0.98632170  0.80944701  0.80489924  1
  O  O5  1  0.83026895  0.01276584  0.80626673  1
  O  O6  1  0.80261511  0.97357581  0.69133561  1
  O  O7  1  0.17276873  0.19696296  0.69528853  1
  O  O8  1  0.02962289  0.83092943  0.69515340  1
  O  O9  1  0.80303704  0.82723127  0.19528853  1
  O  O10  1  0.02642419  0.19738489  0.19133561  1
  O  O11  1  0.16907057  0.97037711  0.19515340  1
  O  O12  1  0.88084514  0.36492015  0.64002446  1
  O  O13  1  0.49203280  0.11127229  0.64501023  1
  O  O14  1  0.63538923  0.51594505  0.64785776  1
  O  O15  1  0.88872771  0.50796720  0.14501023  1
  O  O16  1  0.63507985  0.11915486  0.14002446  1
  O  O17  1  0.48405495  0.36461077  0.14785776  1
  O  O18  1  0.47433181  0.30639108  0.02897305  1
  O  O19  1  0.83352465  0.52338106  0.02806857  1
  O  O20  1  0.69981779  0.15974306  0.02915027  1
  O  O21  1  0.47661894  0.16647535  0.52806857  1
  O  O22  1  0.69360892  0.52566819  0.52897305  1
  O  O23  1  0.84025694  0.30018221  0.52915027  1
  O  O24  1  0.52665149  0.69213302  0.97262459  1
  O  O25  1  0.15971482  0.46557347  0.97602680  1
  O  O26  1  0.30573256  0.83187486  0.97207882  1
  O  O27  1  0.53442653  0.84028518  0.47602680  1
  O  O28  1  0.30786698  0.47334851  0.47262459  1
  O  O29  1  0.16812514  0.69426744  0.47207882  1
  O  O30  1  0.13413862  0.63800802  0.35649424  1
  O  O31  1  0.49878959  0.85885124  0.35980640  1
  O  O32  1  0.35982632  0.49426032  0.35661123  1
  O  O33  1  0.14114876  0.50121041  0.85980640  1
  O  O34  1  0.36199198  0.86586138  0.85649424  1
  O  O35  1  0.50573968  0.64017368  0.85661123  1
  O  O36  1  0.02413668  0.83491808  0.40776921  1
  O  O37  1  0.80926598  0.97299652  0.40931654  1
  O  O38  1  0.16636657  0.18781517  0.40973085  1
  O  O39  1  0.02700348  0.19073402  0.90931654  1
  O  O40  1  0.16508192  0.97586332  0.90776921  1
  O  O41  1  0.81218483  0.83363343  0.90973085  1
  O  O42  1  0.97123507  0.16867643  0.59012766  1
  O  O43  1  0.18626799  0.02807678  0.59070058  1
  O  O44  1  0.83478303  0.81725358  0.59034707  1
  O  O45  1  0.97192322  0.81373201  0.09070058  1
  O  O46  1  0.83132357  0.02876493  0.09012766  1
  O  O47  1  0.18274642  0.16521697  0.09034707  1
  O  O48  1  0.68190388  0.16713336  0.74981301  1
  O  O49  1  0.46358018  0.30985513  0.74829725  1
  O  O50  1  0.83973691  0.53842833  0.74691859  1
  O  O51  1  0.69014487  0.53641982  0.24829725  1
  O  O52  1  0.83286664  0.31809612  0.24981301  1
  O  O53  1  0.46157167  0.16026309  0.24691859  1
  O  O54  1  0.63868044  0.49389610  0.92272158  1
  O  O55  1  0.85280955  0.35708773  0.92375676  1
  O  O56  1  0.50640430  0.14395719  0.92429803  1
  O  O57  1  0.64291227  0.14719045  0.42375676  1
  O  O58  1  0.50610390  0.36131956  0.42272158  1
  O  O59  1  0.85604281  0.49359570  0.42429803  1
  O  O60  1  0.34614052  0.49842755  0.07620742  1
  O  O61  1  0.14887431  0.64982644  0.07419213  1
  O  O62  1  0.50936301  0.86007642  0.07509727  1
  O  O63  1  0.35017356  0.85112569  0.57419213  1
  O  O64  1  0.50157245  0.65385948  0.57620742  1
  O  O65  1  0.13992358  0.49063699  0.57509727  1
  O  O66  1  0.29530792  0.82921343  0.25410147  1
  O  O67  1  0.52981561  0.70022609  0.25440060  1
  O  O68  1  0.17848852  0.47949044  0.25433503  1
  O  O69  1  0.29977391  0.47018439  0.75440060  1
  O  O70  1  0.17078657  0.70469208  0.75410147  1
  O  O71  1  0.52050956  0.82151148  0.75433503  1
loop_
_geom_bond_atom_site_label_1
_geom_bond_atom_site_label_2
_geom_bond_distance
_geom_bond_site_symmetry_2
Na0 O17 2.308520 1_555
Na0 O53 2.351468 1_555
Na0 O51 2.430987 1_555
Na0 O68 2.457659 1_555
Na0 O67 2.587684 1_555
Na0 O32 2.904637 1_555
Na0 O10 2.946041 1_555
Na1 O52 2.333788 1_555
Na1 O51 2.371635 1_555
Na1 O15 2.375160 1_555
Na1 O66 2.477387 1_655
Na1 O68 2.604148 1_655
Na1 O30 2.894592 1_655
Na1 O11 2.932619 1_655
Na2 O14 2.308520 1_555
Na2 O50 2.351468 1_555
Na2 O49 2.430987 1_555
Na2 O71 2.457659 1_555
Na2 O69 2.587684 1_555
Na2 O35 2.904637 1_555
Na2 O6 2.946040 1_555
Na3 O48 2.333788 1_555
Na3 O49 2.371635 1_555
Na3 O13 2.375160 1_555
Na3 O70 2.477387 1_545
Na3 O71 2.604148 1_545
Na3 O34 2.894592 1_545
Na3 O8 2.932619 1_545
Na4 O63 2.435185 1_555
Na4 O42 2.442929 1_565
Na4 O64 2.505760 1_555
Na4 O44 2.589507 1_555
Na4 O6 2.707258 1_555
Na4 O13 2.715357 1_565
Na4 O27 2.759348 1_555
Na4 O23 2.839884 1_565
Na5 O61 2.435185 1_555
Na5 O46 2.442928 1_455
Na5 O60 2.505760 1_555
Na5 O47 2.589507 1_555
Na5 O10 2.707258 1_555
Na5 O15 2.715357 1_455
Na5 O25 2.759348 1_554
Na5 O20 2.839884 1_455
Na6 O43 2.534411 1_565
Na6 O38 2.550862 1_565
Na6 O36 2.561850 1_555
Na6 O44 2.628848 1_455
Na6 O37 2.658711 1_455
Na6 O42 2.711135 1_465
Na7 O45 2.534411 1_456
Na7 O41 2.550862 1_455
Na7 O40 2.561850 1_555
Na7 O47 2.628848 1_566
Na7 O39 2.658711 1_565
Na7 O46 2.711135 1_466
Na8 O48 2.345651 1_555
Na8 O55 2.544346 1_555
Na8 O50 2.548783 1_555
Na8 O49 2.646268 1_555
Na8 O56 2.663541 1_555
Na8 O54 2.690685 1_555
Na9 O52 2.345651 1_555
Na9 O57 2.544346 1_555
Na9 O53 2.548783 1_555
Na9 O51 2.646268 1_555
Na9 O59 2.663541 1_555
Na9 O58 2.690685 1_555
Na10 O62 2.486552 1_555
Na10 O67 2.558955 1_555
Na10 O60 2.593545 1_555
Na10 O66 2.598876 1_555
Na10 O61 2.643372 1_555
Na10 O68 2.697297 1_555
Na11 O65 2.486552 1_555
Na11 O69 2.558955 1_555
Na11 O64 2.593545 1_555
Na11 O70 2.598876 1_555
Na11 O63 2.643372 1_555
Na11 O71 2.697297 1_555
Mg0 O12 2.015568 1_555
Mg0 O14 2.028953 1_555
Mg0 O13 2.038207 1_555
Mg0 O48 2.108394 1_555
Mg0 O50 2.205513 1_555
Mg0 O49 2.290805 1_555
Mg1 O16 2.015568 1_555
Mg1 O17 2.028953 1_555
Mg1 O15 2.038207 1_555
Mg1 O52 2.108394 1_555
Mg1 O53 2.205513 1_555
Mg1 O51 2.290805 1_555
Nb0 O2 1.922843 1_555
Nb0 O37 1.954059 1_545
Nb0 O38 1.975808 1_655
Nb0 O36 2.005099 1_645
Nb0 O1 2.046299 1_545
Nb0 O0 2.075225 1_655
Nb1 O5 1.922843 1_555
Nb1 O39 1.954059 1_655
Nb1 O41 1.975808 1_545
Nb1 O40 2.005099 1_645
Nb1 O3 2.046299 1_655
Nb1 O4 2.075225 1_545
Nb2 O44 1.960896 1_555
Nb2 O43 1.964013 1_665
Nb2 O6 1.990363 1_555
Nb2 O8 2.030237 1_655
Nb2 O7 2.054643 1_665
Nb2 O42 2.055630 1_565
Nb3 O47 1.960896 1_555
Nb3 O45 1.964013 1_445
Nb3 O10 1.990363 1_555
Nb3 O11 2.030238 1_545
Nb3 O9 2.054643 1_445
Nb3 O46 2.055630 1_455
Nb4 O18 1.945842 1_556
Nb4 O19 1.955916 1_556
Nb4 O54 1.980164 1_555
Nb4 O56 2.014635 1_555
Nb4 O55 2.041814 1_555
Nb4 O20 2.118520 1_556
Nb5 O22 1.945842 1_555
Nb5 O21 1.955916 1_555
Nb5 O58 1.980164 1_555
Nb5 O59 2.014635 1_555
Nb5 O57 2.041814 1_555
Nb5 O23 2.118520 1_555
Nb6 O26 1.949701 1_554
Nb6 O24 1.963121 1_554
Nb6 O25 1.976420 1_554
Nb6 O61 1.996039 1_555
Nb6 O60 2.019668 1_555
Nb6 O62 2.066412 1_555
Nb7 O29 1.949701 1_555
Nb7 O28 1.963121 1_555
Nb7 O27 1.976420 1_555
Nb7 O63 1.996039 1_555
Nb7 O64 2.019668 1_555
Nb7 O65 2.066412 1_555
Nb8 O30 1.925775 1_555
Nb8 O31 1.928238 1_555
Nb8 O32 1.937688 1_555
Nb8 O68 2.053426 1_555
Nb8 O67 2.124535 1_555
Nb8 O66 2.137070 1_555
Nb9 O34 1.925775 1_555
Nb9 O33 1.928238 1_555
Nb9 O35 1.937688 1_555
Nb9 O71 2.053426 1_555
Nb9 O69 2.124535 1_555
Nb9 O70 2.137070 1_555
O0 P0 1.543649 1_555
O1 P1 1.546040 1_555
O2 Si0 1.652115 1_555
O3 P2 1.546040 1_555
O4 P3 1.543649 1_655
O5 Si1 1.652115 1_555
O6 Si1 1.664021 1_565
O7 P2 1.556002 1_555
O8 P3 1.579496 1_555
O9 P1 1.556002 1_555
O10 Si0 1.664021 1_455
O11 P0 1.579496 1_565
O12 P4 1.496953 1_555
O13 Si2 1.594961 1_555
O14 Si3 1.581015 1_555
O15 Si4 1.594961 1_555
O16 P5 1.496953 1_555
O17 Si5 1.581015 1_555
O18 Si5 1.653721 1_555
O19 Si4 1.652768 1_555
O20 P5 1.552379 1_555
O21 Si2 1.652768 1_555
O22 Si3 1.653721 1_555
O23 P4 1.552379 1_555
O24 Si6 1.614222 1_555
O25 Si7 1.628034 1_555
O26 Si8 1.625059 1_555
O27 Si9 1.628034 1_555
O28 Si10 1.614222 1_555
O29 Si11 1.625059 1_555
O30 Si11 1.662981 1_555
O31 Si9 1.652058 1_555
O32 Si10 1.652409 1_555
O33 Si7 1.652058 1_555
O34 Si8 1.662981 1_555
O35 Si6 1.652409 1_555
O36 Si11 1.626696 1_555
O37 Si9 1.639945 1_555
O38 Si10 1.631642 1_555
O39 Si7 1.639944 1_555
O40 Si8 1.626696 1_555
O41 Si6 1.631642 1_555
O42 P4 1.594557 1_555
O43 Si2 1.653953 1_555
O44 Si3 1.694696 1_555
O45 Si4 1.653953 1_555
O46 P5 1.594557 1_555
O47 Si5 1.694696 1_555
O48 Si1 1.584870 1_555
O49 P2 1.526186 1_555
O50 P3 1.511280 1_655
O51 P1 1.526186 1_555
O52 Si0 1.584870 1_555
O53 P0 1.511280 1_555
O54 Si6 1.622660 1_555
O55 Si7 1.611587 1_655
O56 Si8 1.618081 1_545
O57 Si9 1.611586 1_545
O58 Si10 1.622660 1_555
O59 Si11 1.618081 1_655
O60 Si5 1.658490 1_555
O61 Si4 1.661121 1_455
O62 P5 1.553297 1_565
O63 Si2 1.661121 1_565
O64 Si3 1.658490 1_555
O65 P4 1.553297 1_455
O66 P0 1.566735 1_565
O67 P1 1.567762 1_555
O68 Si0 1.686958 1_455
O69 P2 1.567762 1_555
O70 P3 1.566735 1_555
O71 Si1 1.686958 1_565
