# generated using pymatgen
data_Na2Pr2MgTi2O8
_symmetry_space_group_name_H-M   'P 1'
_cell_length_a   3.68759871
_cell_length_b   3.68759871
_cell_length_c   16.45860761
_cell_angle_alpha   94.93467002
_cell_angle_beta   85.06532998
_cell_angle_gamma   90.09158326
_symmetry_Int_Tables_number   1
_chemical_formula_structural   Na2Pr2MgTi2O8
_chemical_formula_sum   'Na2 Pr2 Mg1 Ti2 O8'
_cell_volume   222.15061203
_cell_formula_units_Z   1
loop_
 _symmetry_equiv_pos_site_id
 _symmetry_equiv_pos_as_xyz
  1  'x, y, z'
loop_
 _atom_site_type_symbol
 _atom_site_label
 _atom_site_symmetry_multiplicity
 _atom_site_fract_x
 _atom_site_fract_y
 _atom_site_fract_z
 _atom_site_occupancy
  Na  Na0  1  0.71953941  0.78046059  0.41503380  1
  Na  Na1  1  0.16983191  0.33016809  0.54324507  1
  Pr  Pr0  1  0.82030016  0.67969984  0.15433714  1
  Pr  Pr1  1  0.39727757  0.10272243  0.97832062  1
  Mg  Mg0  1  0.08175383  0.41824617  0.77216445  1
  Ti  Ti0  1  0.62259622  0.87740378  0.66748430  1
  Ti  Ti1  1  0.26763296  0.23236704  0.29263331  1
  O  O0  1  0.60835767  0.39197399  0.70526672  1
  O  O1  1  0.10802601  0.89164233  0.70526672  1
  O  O2  1  0.28159003  0.71907092  0.25780991  1
  O  O3  1  0.78092908  0.21840997  0.25780991  1
  O  O4  1  0.86835215  0.63164785  0.00788755  1
  O  O5  1  0.32939586  0.17060414  0.11933093  1
  O  O6  1  0.66420696  0.83579304  0.55854092  1
  O  O7  1  0.22663919  0.27336081  0.40160364  1
loop_
_geom_bond_atom_site_label_1
_geom_bond_atom_site_label_2
_geom_bond_distance
_geom_bond_site_symmetry_2
Na0 O6 2.344414 1_555
Na0 O7 2.608665 1_565
Na0 O7 2.614683 1_555
Na0 O7 2.614683 1_665
Na0 O7 2.628967 1_655
Na1 O7 2.313972 1_555
Na1 O6 2.617397 1_445
Na1 O6 2.617397 1_555
Na1 O6 2.620308 1_455
Na1 O6 2.622783 1_545
Mg0 O1 2.140308 1_555
Mg0 O0 2.140308 1_455
Mg0 O0 2.146411 1_555
Mg0 O1 2.146411 1_545
O0 Ti0 1.944065 1_555
O0 Ti0 1.944676 1_545
O1 Ti0 1.944065 1_455
O1 Ti0 1.944676 1_555
O2 Ti1 1.929390 1_565
O2 Ti1 1.929751 1_555
O2 Pr0 2.498814 1_555
O2 Pr0 2.503994 1_455
O3 Ti1 1.929390 1_555
O3 Ti1 1.929751 1_655
O3 Pr0 2.498814 1_545
O3 Pr0 2.503994 1_555
O4 Pr0 2.392855 1_555
O4 Pr1 2.563706 1_564
O4 Pr1 2.651427 1_554
O4 Pr1 2.651427 1_664
O4 Pr1 2.744269 1_654
O5 Pr1 2.304755 1_554
O5 Pr0 2.649503 1_455
O5 Pr0 2.667561 1_445
O5 Pr0 2.667561 1_555
O5 Pr0 2.693579 1_545
O6 Ti0 1.779761 1_555
O7 Ti1 1.780206 1_555
