# generated using pymatgen
data_Sr3MgFe2Br2O5
_symmetry_space_group_name_H-M   'P 1'
_cell_length_a   4.05236820
_cell_length_b   4.05259498
_cell_length_c   15.73934056
_cell_angle_alpha   97.60425032
_cell_angle_beta   97.59130725
_cell_angle_gamma   89.88804703
_symmetry_Int_Tables_number   1
_chemical_formula_structural   Sr3MgFe2Br2O5
_chemical_formula_sum   'Sr3 Mg1 Fe2 Br2 O5'
_cell_volume   253.93062579
_cell_formula_units_Z   1
loop_
 _symmetry_equiv_pos_site_id
 _symmetry_equiv_pos_as_xyz
  1  'x, y, z'
loop_
 _atom_site_type_symbol
 _atom_site_label
 _atom_site_symmetry_multiplicity
 _atom_site_fract_x
 _atom_site_fract_y
 _atom_site_fract_z
 _atom_site_occupancy
  Sr  Sr0  1  0.87509900  0.87509300  0.75104500  1
  Sr  Sr1  1  0.11517800  0.11513200  0.22940200  1
  Sr  Sr2  1  0.99816600  0.99818500  0.99746500  1
  Mg  Mg0  1  0.22946900  0.22944400  0.46085500  1
  Fe  Fe0  1  0.43386600  0.43393900  0.86626700  1
  Fe  Fe1  1  0.56303000  0.56280400  0.12669800  1
  Br  Br0  1  0.31420800  0.31418600  0.63102000  1
  Br  Br1  1  0.70581100  0.70579900  0.41671600  1
  O  O0  1  0.07264800  0.57160700  0.14371900  1
  O  O1  1  0.92012800  0.42054800  0.83994600  1
  O  O2  1  0.42053000  0.92011300  0.83995500  1
  O  O3  1  0.49690800  0.49706600  0.98839000  1
  O  O4  1  0.57162400  0.07274800  0.14370500  1
loop_
_geom_bond_atom_site_label_1
_geom_bond_atom_site_label_2
_geom_bond_distance
_geom_bond_site_symmetry_2
Fe0 O3 1.888303 1_555
Fe0 O2 2.065429 1_555
Fe0 O1 2.065625 1_555
Fe0 O1 2.067682 1_455
Fe0 O2 2.068046 1_545
Fe1 O4 2.038386 1_555
Fe1 O0 2.039581 1_555
Fe1 O0 2.046829 1_655
Fe1 O4 2.048194 1_565
Fe1 O3 2.138748 1_554
Br0 Mg0 2.631179 1_555
Br0 Sr0 3.411465 1_455
Br0 Sr0 3.411875 1_545
Br0 Sr0 3.413402 1_555
Br0 Sr0 3.419335 1_445
Br1 Mg0 2.942668 1_555
Br1 Mg0 2.942833 1_565
Br1 Mg0 2.943112 1_655
Br1 Mg0 2.954159 1_665
O0 Sr1 2.419531 1_565
O0 Sr1 2.422433 1_555
O0 Sr2 3.032113 1_444
O0 Sr2 3.040757 1_454
O1 Sr0 2.448068 1_545
O1 Sr0 2.449052 1_555
O1 Sr2 3.160117 1_555
O1 Sr2 3.176526 1_545
O2 Sr0 2.448208 1_455
O2 Sr0 2.448882 1_555
O2 Sr2 3.160291 1_555
O2 Sr2 3.175993 1_455
O3 Sr2 2.851926 1_555
O3 Sr2 2.865822 1_455
O3 Sr2 2.866662 1_545
O3 Sr2 2.891606 1_445
O4 Sr1 2.419875 1_655
O4 Sr1 2.422141 1_555
O4 Sr2 3.032325 1_444
O4 Sr2 3.040069 1_544
