# generated using pymatgen
data_Ho2MgV2O7
_symmetry_space_group_name_H-M   'P 1'
_cell_length_a   5.88370340
_cell_length_b   5.88370707
_cell_length_c   5.51756865
_cell_angle_alpha   85.74269292
_cell_angle_beta   94.25598197
_cell_angle_gamma   68.91951675
_symmetry_Int_Tables_number   1
_chemical_formula_structural   Ho2MgV2O7
_chemical_formula_sum   'Ho2 Mg1 V2 O7'
_cell_volume   176.68411393
_cell_formula_units_Z   1
loop_
 _symmetry_equiv_pos_site_id
 _symmetry_equiv_pos_as_xyz
  1  'x, y, z'
loop_
 _atom_site_type_symbol
 _atom_site_label
 _atom_site_symmetry_multiplicity
 _atom_site_fract_x
 _atom_site_fract_y
 _atom_site_fract_z
 _atom_site_occupancy
  Ho  Ho0  1  0.32690500  0.31409100  0.50247800  1
  Ho  Ho1  1  0.68591500  0.67309200  0.50247400  1
  Mg  Mg0  1  0.05629800  0.94370300  0.41105100  1
  V  V0  1  0.25878500  0.74122300  0.90547000  1
  V  V1  1  0.72658700  0.27341500  0.09981600  1
  O  O0  1  0.05706800  0.65705500  0.64079800  1
  O  O1  1  0.34294800  0.94292600  0.64080700  1
  O  O2  1  0.43357300  0.56642300  0.23217200  1
  O  O3  1  0.56228300  0.43771700  0.77707300  1
  O  O4  1  0.01793600  0.98206000  0.04414100  1
  O  O5  1  0.65354200  0.04892300  0.33436000  1
  O  O6  1  0.95107800  0.34645600  0.33435900  1
loop_
_geom_bond_atom_site_label_1
_geom_bond_atom_site_label_2
_geom_bond_distance
_geom_bond_site_symmetry_2
Ho0 O1 2.225779 1_545
Ho0 O6 2.269975 1_455
Ho0 O0 2.297579 1_555
Ho0 O2 2.302800 1_555
Ho0 O5 2.304470 1_555
Ho0 O3 2.306374 1_555
Ho1 O0 2.225733 1_655
Ho1 O5 2.269955 1_565
Ho1 O1 2.297612 1_555
Ho1 O2 2.302861 1_555
Ho1 O6 2.304449 1_555
Ho1 O3 2.306365 1_555
Mg0 O4 2.006983 1_555
Mg0 O0 2.031657 1_555
Mg0 O1 2.031704 1_555
Mg0 O6 2.221403 1_465
Mg0 O5 2.221425 1_465
O0 V0 2.014789 1_555
O1 V0 2.014660 1_555
O2 V0 2.013325 1_554
O2 V1 2.171027 1_555
O3 V1 1.963871 1_556
O3 V0 2.227369 1_555
O4 V0 1.865177 1_554
O4 V1 2.003492 1_465
O5 V1 1.959895 1_555
O6 V1 1.959901 1_555
