# generated using pymatgen
data_Bi2TeO5
_symmetry_space_group_name_H-M   'P 1'
_cell_length_a   8.71491571
_cell_length_b   8.71491571
_cell_length_c   11.58876211
_cell_angle_alpha   90.00000000
_cell_angle_beta   90.00000000
_cell_angle_gamma   143.05573060
_symmetry_Int_Tables_number   1
_chemical_formula_structural   Bi2TeO5
_chemical_formula_sum   'Bi8 Te4 O20'
_cell_volume   529.01173032
_cell_formula_units_Z   4
loop_
 _symmetry_equiv_pos_site_id
 _symmetry_equiv_pos_as_xyz
  1  'x, y, z'
loop_
 _atom_site_type_symbol
 _atom_site_label
 _atom_site_symmetry_multiplicity
 _atom_site_fract_x
 _atom_site_fract_y
 _atom_site_fract_z
 _atom_site_occupancy
  Bi  Bi0  1  0.74142655  0.24142655  0.61818915  1
  Bi  Bi1  1  0.24142655  0.74142655  0.38181085  1
  Bi  Bi2  1  0.25749661  0.75749661  0.87399754  1
  Bi  Bi3  1  0.75749661  0.25749661  0.12600246  1
  Bi  Bi4  1  0.93834158  0.10779471  0.39154634  1
  Bi  Bi5  1  0.10779471  0.93834158  0.60845366  1
  Bi  Bi6  1  0.43834158  0.60779471  0.60845366  1
  Bi  Bi7  1  0.60779471  0.43834158  0.39154634  1
  Te  Te0  1  0.44594480  0.60872191  0.13260182  1
  Te  Te1  1  0.60872191  0.44594480  0.86739818  1
  Te  Te2  1  0.94594480  0.10872191  0.86739818  1
  Te  Te3  1  0.10872191  0.94594480  0.13260182  1
  O  O0  1  0.56169708  0.87933426  0.20665075  1
  O  O1  1  0.87933426  0.56169708  0.79334925  1
  O  O2  1  0.06169708  0.37933426  0.79334925  1
  O  O3  1  0.37933426  0.06169708  0.20665075  1
  O  O4  1  0.13697316  0.45890955  0.48399759  1
  O  O5  1  0.45890955  0.13697316  0.51600241  1
  O  O6  1  0.63697316  0.95890955  0.51600241  1
  O  O7  1  0.95890955  0.63697316  0.48399759  1
  O  O8  1  0.38980591  0.88980591  0.70672739  1
  O  O9  1  0.88980591  0.38980591  0.29327261  1
  O  O10  1  0.13774813  0.43342705  0.06839103  1
  O  O11  1  0.43342705  0.13774813  0.93160897  1
  O  O12  1  0.91000090  0.81966899  0.26382196  1
  O  O13  1  0.81966899  0.91000090  0.73617804  1
  O  O14  1  0.41000090  0.31966899  0.73617804  1
  O  O15  1  0.31966899  0.41000090  0.26382196  1
  O  O16  1  0.72980980  0.72980980  0.50000000  1
  O  O17  1  0.22980980  0.22980980  0.50000000  1
  O  O18  1  0.93342705  0.63774813  0.06839103  1
  O  O19  1  0.63774813  0.93342705  0.93160897  1
loop_
_geom_bond_atom_site_label_1
_geom_bond_atom_site_label_2
_geom_bond_distance
_geom_bond_site_symmetry_2
Bi0 O6 2.170365 1_545
Bi0 O5 2.170365 1_555
Bi0 O8 2.196246 1_545
Bi0 O4 2.729487 1_655
Bi0 O7 2.729487 1_555
Bi0 O1 2.827241 1_555
Bi0 O2 2.827241 1_655
Bi1 O4 2.170365 1_555
Bi1 O7 2.170365 1_455
Bi1 O9 2.196246 1_455
Bi1 O5 2.729487 1_565
Bi1 O6 2.729487 1_555
Bi1 O0 2.827241 1_555
Bi1 O3 2.827241 1_565
Bi2 O8 2.071593 1_555
Bi2 O19 2.378382 1_555
Bi2 O11 2.378382 1_565
Bi2 O2 2.378554 1_555
Bi2 O1 2.378554 1_455
Bi3 O9 2.071593 1_555
Bi3 O18 2.378382 1_555
Bi3 O10 2.378382 1_655
Bi3 O0 2.378554 1_545
Bi3 O3 2.378554 1_555
Bi4 O17 2.201166 1_655
Bi4 O4 2.245180 1_655
Bi4 O6 2.283541 1_545
Bi4 O16 2.482829 1_545
Bi4 O15 2.486154 1_655
Bi4 O12 2.750573 1_545
Bi5 O17 2.201166 1_565
Bi5 O5 2.245180 1_565
Bi5 O7 2.283541 1_455
Bi5 O16 2.482829 1_455
Bi5 O14 2.486154 1_565
Bi5 O13 2.750573 1_455
Bi6 O16 2.201166 1_555
Bi6 O6 2.245180 1_555
Bi6 O4 2.283541 1_555
Bi6 O17 2.482829 1_555
Bi6 O13 2.486154 1_555
Bi6 O14 2.750573 1_555
Bi7 O16 2.201166 1_555
Bi7 O7 2.245180 1_555
Bi7 O5 2.283541 1_555
Bi7 O17 2.482829 1_555
Bi7 O12 2.486154 1_555
Bi7 O15 2.750573 1_555
O0 Te0 1.874333 1_555
O1 Te1 1.874333 1_555
O2 Te2 1.874333 1_455
O3 Te3 1.874333 1_545
O10 Te0 1.882257 1_555
O11 Te1 1.882257 1_555
O12 Te3 1.864507 1_655
O13 Te2 1.864507 1_565
O14 Te1 1.864507 1_555
O15 Te0 1.864507 1_555
O18 Te3 1.882257 1_655
O19 Te2 1.882257 1_565
