# generated using pymatgen
data_Y2Ge5Rh3
_symmetry_space_group_name_H-M   'P 1'
_cell_length_a   8.31576386
_cell_length_b   8.31576386
_cell_length_c   5.96031765
_cell_angle_alpha   69.08191064
_cell_angle_beta   69.08191064
_cell_angle_gamma   90.74749030
_symmetry_Int_Tables_number   1
_chemical_formula_structural   Y2Ge5Rh3
_chemical_formula_sum   'Y4 Ge10 Rh6'
_cell_volume   354.93310265
_cell_formula_units_Z   2
loop_
 _symmetry_equiv_pos_site_id
 _symmetry_equiv_pos_as_xyz
  1  'x, y, z'
loop_
 _atom_site_type_symbol
 _atom_site_label
 _atom_site_symmetry_multiplicity
 _atom_site_fract_x
 _atom_site_fract_y
 _atom_site_fract_z
 _atom_site_occupancy
  Y  Y0  1  0.86276828  0.59459317  0.77141986  1
  Y  Y1  1  0.40540683  0.13723172  0.72858014  1
  Y  Y2  1  0.13723172  0.40540683  0.22858014  1
  Y  Y3  1  0.59459317  0.86276828  0.27141986  1
  Ge  Ge0  1  0.06402507  0.26053828  0.83747123  1
  Ge  Ge1  1  0.73946172  0.93597493  0.66252877  1
  Ge  Ge2  1  0.93597493  0.73946172  0.16252877  1
  Ge  Ge3  1  0.26053828  0.06402507  0.33747123  1
  Ge  Ge4  1  0.22096015  0.77903985  0.75000000  1
  Ge  Ge5  1  0.77903985  0.22096015  0.25000000  1
  Ge  Ge6  1  0.50037070  0.49962930  0.75000000  1
  Ge  Ge7  1  0.49962930  0.50037070  0.25000000  1
  Ge  Ge8  1  0.77862529  0.22137471  0.75000000  1
  Ge  Ge9  1  0.22137471  0.77862529  0.25000000  1
  Rh  Rh0  1  0.25066341  0.53427452  0.60814110  1
  Rh  Rh1  1  0.46572548  0.74933659  0.89185890  1
  Rh  Rh2  1  0.74933659  0.46572548  0.39185890  1
  Rh  Rh3  1  0.53427452  0.25066341  0.10814110  1
  Rh  Rh4  1  0.00030100  0.99969900  0.75000000  1
  Rh  Rh5  1  0.99969900  0.00030100  0.25000000  1
loop_
_geom_bond_atom_site_label_1
_geom_bond_atom_site_label_2
_geom_bond_distance
_geom_bond_site_symmetry_2
Ge0 Rh0 2.372767 1_555
Ge0 Rh4 2.496461 1_545
Ge0 Rh5 2.499221 1_456
Ge0 Ge8 2.644831 1_455
Ge0 Ge5 2.647870 1_456
Ge0 Y1 2.960951 1_555
Ge0 Y2 3.202435 1_556
Ge0 Y2 3.205337 1_555
Ge0 Y0 3.237846 1_455
Ge1 Rh1 2.372767 1_555
Ge1 Rh4 2.496461 1_655
Ge1 Rh5 2.499221 1_565
Ge1 Ge8 2.644831 1_565
Ge1 Ge5 2.647870 1_565
Ge1 Y0 2.960951 1_555
Ge1 Y3 3.202435 1_555
Ge1 Y3 3.205337 1_556
Ge1 Y1 3.237846 1_565
Ge2 Rh2 2.372767 1_555
Ge2 Rh5 2.496461 1_565
Ge2 Rh4 2.499221 1_654
Ge2 Ge9 2.644831 1_655
Ge2 Ge4 2.647870 1_654
Ge2 Y3 2.960951 1_555
Ge2 Y0 3.202435 1_554
Ge2 Y0 3.205337 1_555
Ge2 Y2 3.237846 1_655
Ge3 Rh3 2.372767 1_555
Ge3 Rh5 2.496461 1_455
Ge3 Rh4 2.499221 1_545
Ge3 Ge9 2.644831 1_545
Ge3 Ge4 2.647870 1_545
Ge3 Y2 2.960951 1_555
Ge3 Y1 3.202435 1_555
Ge3 Y1 3.205337 1_554
Ge3 Y3 3.237846 1_545
Ge4 Rh1 2.451878 1_555
Ge4 Rh0 2.451878 1_555
Ge4 Rh4 2.611882 1_555
Ge4 Y3 3.236036 1_555
Ge4 Y2 3.236036 1_556
Ge4 Y0 3.272705 1_455
Ge4 Y1 3.272705 1_565
Ge5 Rh2 2.451878 1_555
Ge5 Rh3 2.451878 1_555
Ge5 Rh5 2.611882 1_555
Ge5 Y0 3.236036 1_554
Ge5 Y1 3.236036 1_555
Ge5 Y2 3.272705 1_655
Ge5 Y3 3.272705 1_545
Ge6 Rh0 2.491018 1_555
Ge6 Rh1 2.491018 1_555
Ge6 Rh3 2.492325 1_556
Ge6 Rh2 2.492325 1_555
Ge6 Y1 3.163292 1_555
Ge6 Y0 3.163292 1_555
Ge6 Y3 3.171926 1_555
Ge6 Y2 3.171926 1_556
Ge7 Rh2 2.491018 1_555
Ge7 Rh3 2.491018 1_555
Ge7 Rh1 2.492325 1_554
Ge7 Rh0 2.492325 1_555
Ge7 Y2 3.163292 1_555
Ge7 Y3 3.163292 1_555
Ge7 Y1 3.171926 1_555
Ge7 Y0 3.171926 1_554
Ge8 Rh3 2.455964 1_556
Ge8 Rh2 2.455964 1_555
Ge8 Rh4 2.623915 1_645
Ge8 Y1 3.229284 1_555
Ge8 Y0 3.229284 1_555
Ge8 Y3 3.280301 1_546
Ge8 Y2 3.280301 1_655
Ge9 Rh1 2.455964 1_554
Ge9 Rh0 2.455964 1_555
Ge9 Rh5 2.623915 1_465
Ge9 Y2 3.229284 1_555
Ge9 Y3 3.229284 1_555
Ge9 Y1 3.280301 1_564
Ge9 Y0 3.280301 1_455
Rh0 Y0 3.122930 1_455
Rh0 Y2 3.219702 1_556
Rh0 Y2 3.222537 1_555
Rh0 Y3 3.384143 1_555
Rh0 Y1 3.485762 1_555
Rh1 Y1 3.122930 1_565
Rh1 Y3 3.219702 1_555
Rh1 Y3 3.222537 1_556
Rh1 Y2 3.384143 1_556
Rh1 Y0 3.485762 1_555
Rh2 Y2 3.122930 1_655
Rh2 Y0 3.219702 1_554
Rh2 Y0 3.222537 1_555
Rh2 Y1 3.384143 1_555
Rh2 Y3 3.485762 1_555
Rh3 Y3 3.122930 1_545
Rh3 Y1 3.219702 1_555
Rh3 Y1 3.222537 1_554
Rh3 Y0 3.384143 1_554
Rh3 Y2 3.485762 1_555
Rh4 Y0 3.487262 1_455
Rh4 Y1 3.487262 1_565
Rh4 Y2 3.496180 1_565
Rh4 Y3 3.496180 1_456
Rh5 Y3 3.487262 1_545
Rh5 Y2 3.487262 1_655
Rh5 Y1 3.496180 1_654
Rh5 Y0 3.496180 1_545
