# generated using pymatgen
data_NaMgFe(SeO4)2
_symmetry_space_group_name_H-M   'P 1'
_cell_length_a   5.20764957
_cell_length_b   5.20764887
_cell_length_c   7.31596276
_cell_angle_alpha   89.84704944
_cell_angle_beta   89.84703384
_cell_angle_gamma   73.99825172
_symmetry_Int_Tables_number   1
_chemical_formula_structural   NaMgFe(SeO4)2
_chemical_formula_sum   'Na1 Mg1 Fe1 Se2 O8'
_cell_volume   190.71741112
_cell_formula_units_Z   1
loop_
 _symmetry_equiv_pos_site_id
 _symmetry_equiv_pos_as_xyz
  1  'x, y, z'
loop_
 _atom_site_type_symbol
 _atom_site_label
 _atom_site_symmetry_multiplicity
 _atom_site_fract_x
 _atom_site_fract_y
 _atom_site_fract_z
 _atom_site_occupancy
  Na  Na0  1  0.17532366  0.82467634  0.50000000  1
  Mg  Mg0  1  0.68809861  0.31190139  0.50000000  1
  Fe  Fe0  1  0.98263331  0.01736669  0.00000000  1
  Se  Se0  1  0.35978452  0.40067814  0.80217837  1
  Se  Se1  1  0.59932186  0.64021548  0.19782163  1
  O  O0  1  0.74999473  0.27569223  0.22573737  1
  O  O1  1  0.29507016  0.32423587  0.57691866  1
  O  O2  1  0.21221621  0.74228050  0.80081359  1
  O  O3  1  0.25771950  0.78778379  0.19918541  1
  O  O4  1  0.74713707  0.76737153  0.03038028  1
  O  O5  1  0.72430777  0.25000527  0.77426363  1
  O  O6  1  0.23262847  0.25286293  0.96961972  1
  O  O7  1  0.67576413  0.70492984  0.42308134  1
loop_
_geom_bond_atom_site_label_1
_geom_bond_atom_site_label_2
_geom_bond_distance
_geom_bond_site_symmetry_2
Na0 O2 2.239655 1_555
Na0 O3 2.239662 1_555
Na0 O1 2.568157 1_555
Na0 O7 2.568157 1_555
Na0 O1 2.894413 1_565
Na0 O7 2.894414 1_455
Mg0 O0 2.032372 1_555
Mg0 O5 2.032379 1_555
Mg0 O7 2.105127 1_555
Mg0 O1 2.105127 1_555
Fe0 O4 2.031154 1_545
Fe0 O6 2.031154 1_654
Fe0 O3 2.159332 1_645
Fe0 O2 2.159337 1_644
Fe0 O5 2.259974 1_554
Fe0 O0 2.259979 1_555
O0 Se1 1.854328 1_555
O1 Se0 1.751673 1_555
O2 Se0 1.732494 1_555
O3 Se1 1.732494 1_555
O4 Se1 1.674309 1_555
O5 Se0 1.854328 1_555
O6 Se0 1.674309 1_555
O7 Se1 1.751673 1_555
