# generated using pymatgen
data_MgCu4(OF2)2
_symmetry_space_group_name_H-M   'P 1'
_cell_length_a   6.28403610
_cell_length_b   6.63831736
_cell_length_c   6.31557884
_cell_angle_alpha   60.22407753
_cell_angle_beta   78.64153854
_cell_angle_gamma   119.32697433
_symmetry_Int_Tables_number   1
_chemical_formula_structural   MgCu4(OF2)2
_chemical_formula_sum   'Mg1 Cu4 O2 F4'
_cell_volume   162.16744993
_cell_formula_units_Z   1
loop_
 _symmetry_equiv_pos_site_id
 _symmetry_equiv_pos_as_xyz
  1  'x, y, z'
loop_
 _atom_site_type_symbol
 _atom_site_label
 _atom_site_symmetry_multiplicity
 _atom_site_fract_x
 _atom_site_fract_y
 _atom_site_fract_z
 _atom_site_occupancy
  Mg  Mg0  1  0.77898946  0.75153656  0.77475872  1
  Cu  Cu0  1  0.50253971  0.00212750  0.00273260  1
  Cu  Cu1  1  0.51461958  0.00887709  0.49446934  1
  Cu  Cu2  1  0.49758356  0.49455708  0.51078964  1
  Cu  Cu3  1  0.00489935  0.50090524  0.50064189  1
  O  O0  1  0.61412595  0.25069238  0.61176382  1
  O  O1  1  0.39430269  0.75220206  0.39200986  1
  F  F0  1  0.68483572  0.39096555  0.09356869  1
  F  F1  1  0.87420715  0.83716335  0.41886724  1
  F  F2  1  0.09779431  0.11301877  0.67769378  1
  F  F3  1  0.42090951  0.66549542  0.87208941  1
loop_
_geom_bond_atom_site_label_1
_geom_bond_atom_site_label_2
_geom_bond_distance
_geom_bond_site_symmetry_2
Cu0 O1 1.855846 1_545
Cu0 O0 1.857204 1_554
Cu1 F0 1.971112 1_555
Cu1 O0 1.974041 1_555
Cu1 O1 1.979761 1_545
Cu1 F3 1.990713 1_545
Cu2 O0 1.970705 1_555
Cu2 F2 1.977298 1_555
Cu2 O1 1.978390 1_555
Cu2 F1 1.996383 1_555
Cu3 O1 1.855988 1_555
Cu3 O0 1.857265 1_455
F0 Mg0 1.868184 1_554
F1 Mg0 1.897694 1_555
F2 Mg0 1.869100 1_445
F3 Mg0 1.901286 1_555
