# generated using pymatgen
data_Na14Zr6Zn2Si9(SO16)3
_symmetry_space_group_name_H-M   'P 1'
_cell_length_a   18.48523762
_cell_length_b   9.26099927
_cell_length_c   22.92035141
_cell_angle_alpha   90.11768238
_cell_angle_beta   90.12978012
_cell_angle_gamma   120.03742329
_symmetry_Int_Tables_number   1
_chemical_formula_structural   Na14Zr6Zn2Si9(SO16)3
_chemical_formula_sum   'Na42 Zr18 Zn6 Si27 S9 O144'
_cell_volume   3396.77543316
_cell_formula_units_Z   3
loop_
 _symmetry_equiv_pos_site_id
 _symmetry_equiv_pos_as_xyz
  1  'x, y, z'
loop_
 _atom_site_type_symbol
 _atom_site_label
 _atom_site_symmetry_multiplicity
 _atom_site_fract_x
 _atom_site_fract_y
 _atom_site_fract_z
 _atom_site_occupancy
  Na  Na0  1  0.31296177  0.00422155  0.24510681  1
  Na  Na1  1  0.81750787  0.01836783  0.24675190  1
  Na  Na2  1  0.18790465  0.36458666  0.25027164  1
  Na  Na3  1  0.69543588  0.36627142  0.24865111  1
  Na  Na4  1  0.99061394  0.61796027  0.25159488  1
  Na  Na5  1  0.49445392  0.63381900  0.24756401  1
  Na  Na6  1  0.31802473  0.61558778  0.74096824  1
  Na  Na7  1  0.81335886  0.62234259  0.74157080  1
  Na  Na8  1  0.99175121  0.34875682  0.74274476  1
  Na  Na9  1  0.49163505  0.36721917  0.74843841  1
  Na  Na10  1  0.19613278  0.02892743  0.74463104  1
  Na  Na11  1  0.69013425  0.01178377  0.74693382  1
  Na  Na12  1  0.15485826  0.33782278  0.58639509  1
  Na  Na13  1  0.65774251  0.35709376  0.57859040  1
  Na  Na14  1  0.01063968  0.69236738  0.57999408  1
  Na  Na15  1  0.51701541  0.69315425  0.57420999  1
  Na  Na16  1  0.32976358  0.96600438  0.58443539  1
  Na  Na17  1  0.82736977  0.94983825  0.57459621  1
  Na  Na18  1  0.15714428  0.96135507  0.08395698  1
  Na  Na19  1  0.65633203  0.97307592  0.08889100  1
  Na  Na20  1  0.33094463  0.70387365  0.08405616  1
  Na  Na21  1  0.82958200  0.69362256  0.08716693  1
  Na  Na22  1  0.01420127  0.33470395  0.07899250  1
  Na  Na23  1  0.51335567  0.33138779  0.08358150  1
  Na  Na24  1  0.98466826  0.67035664  0.91861809  1
  Na  Na25  1  0.34965892  0.03796076  0.91469221  1
  Na  Na26  1  0.16328446  0.29277621  0.91608199  1
  Na  Na27  1  0.48753256  0.30390080  0.41865467  1
  Na  Na28  1  0.66904642  0.03247933  0.41569197  1
  Na  Na29  1  0.84811371  0.66967482  0.41946203  1
  Na  Na30  1  0.99824361  0.99615801  0.49628090  1
  Na  Na31  1  0.49329619  0.98503535  0.49359911  1
  Na  Na32  1  0.99060521  0.99946490  0.99525584  1
  Na  Na33  1  0.50654754  0.01314740  0.00238841  1
  Na  Na34  1  0.33754398  0.33673034  0.82320790  1
  Na  Na35  1  0.82840406  0.32244357  0.82923750  1
  Na  Na36  1  0.32885837  0.33469838  0.33038890  1
  Na  Na37  1  0.83631672  0.33019309  0.32812757  1
  Na  Na38  1  0.17124870  0.67634227  0.16890588  1
  Na  Na39  1  0.67086717  0.67812468  0.16770975  1
  Na  Na40  1  0.16984664  0.66240975  0.66184182  1
  Na  Na41  1  0.67322226  0.66719230  0.66338050  1
  Zr  Zr0  1  0.99794131  0.99616958  0.34994623  1
  Zr  Zr1  1  0.49736954  0.97904807  0.35583400  1
  Zr  Zr2  1  0.99629792  0.01468790  0.85576321  1
  Zr  Zr3  1  0.50449957  0.01026384  0.84750572  1
  Zr  Zr4  1  0.99675345  0.00832948  0.64465334  1
  Zr  Zr5  1  0.49660805  0.98979877  0.65302071  1
  Zr  Zr6  1  0.99621486  0.00262342  0.15433860  1
  Zr  Zr7  1  0.49779478  0.98699047  0.14639022  1
  Zr  Zr8  1  0.34223908  0.33046038  0.98121834  1
  Zr  Zr9  1  0.82945367  0.32307882  0.98013283  1
  Zr  Zr10  1  0.32970143  0.33564984  0.48009170  1
  Zr  Zr11  1  0.84283207  0.34723437  0.47746659  1
  Zr  Zr12  1  0.66828641  0.65652910  0.01942379  1
  Zr  Zr13  1  0.16827939  0.67941872  0.51879431  1
  Zr  Zr14  1  0.16631269  0.67949620  0.31315129  1
  Zr  Zr15  1  0.67108672  0.67666435  0.31972227  1
  Zr  Zr16  1  0.16596097  0.66876691  0.81613755  1
  Zr  Zr17  1  0.66624881  0.65339916  0.81290712  1
  Zn  Zn0  1  0.32301986  0.33199711  0.68562853  1
  Zn  Zn1  1  0.83384650  0.33566753  0.67875244  1
  Zn  Zn2  1  0.33363625  0.33006445  0.18182829  1
  Zn  Zn3  1  0.82279044  0.31413789  0.18771256  1
  Zn  Zn4  1  0.16485248  0.68102954  0.01039423  1
  Zn  Zn5  1  0.67429140  0.66328032  0.50275427  1
  Si  Si0  1  0.14934109  0.00752640  0.24786551  1
  Si  Si1  1  0.64607281  0.99606464  0.25114290  1
  Si  Si2  1  0.35124491  0.69875464  0.24816194  1
  Si  Si3  1  0.84915504  0.69740001  0.25005177  1
  Si  Si4  1  0.00021582  0.29913888  0.25041077  1
  Si  Si5  1  0.14621640  0.29368576  0.75198198  1
  Si  Si6  1  0.65097361  0.29502704  0.74640393  1
  Si  Si7  1  0.49987066  0.70246883  0.75139846  1
  Si  Si8  1  0.35074109  0.00052988  0.75107385  1
  Si  Si9  1  0.85110886  0.00332532  0.74867366  1
  Si  Si10  1  0.97920723  0.33758044  0.58643082  1
  Si  Si11  1  0.18894732  0.04442517  0.58733660  1
  Si  Si12  1  0.33519367  0.62783367  0.58565916  1
  Si  Si13  1  0.82878697  0.62298871  0.58665113  1
  Si  Si14  1  0.47868390  0.62170807  0.08587232  1
  Si  Si15  1  0.32881524  0.02942613  0.08569663  1
  Si  Si16  1  0.83567152  0.04276775  0.08510218  1
  Si  Si17  1  0.68872172  0.33272448  0.08682758  1
  Si  Si18  1  0.81437721  0.66334678  0.91665719  1
  Si  Si19  1  0.02245855  0.38245101  0.92158070  1
  Si  Si20  1  0.52037787  0.36754997  0.91615308  1
  Si  Si21  1  0.16579241  0.96415656  0.91832189  1
  Si  Si22  1  0.31467329  0.96529832  0.41680643  1
  Si  Si23  1  0.81777284  0.96743932  0.42022578  1
  Si  Si24  1  0.66460174  0.36892369  0.41825872  1
  Si  Si25  1  0.02166481  0.67424126  0.41588155  1
  Si  Si26  1  0.52150464  0.66118300  0.42104745  1
  S  S0  1  0.50061865  0.29149482  0.25059680  1
  S  S1  1  0.00107449  0.71031036  0.75154271  1
  S  S2  1  0.47984197  0.33305530  0.58505770  1
  S  S3  1  0.68489223  0.03874588  0.58445025  1
  S  S4  1  0.98036324  0.62708034  0.08406256  1
  S  S5  1  0.18603266  0.33346699  0.08266369  1
  S  S6  1  0.31384146  0.66671137  0.91815716  1
  S  S7  1  0.66496361  0.95663897  0.91662173  1
  S  S8  1  0.16605668  0.37503345  0.41648590  1
  O  O0  1  0.09962917  0.03228401  0.30231559  1
  O  O1  1  0.59860521  0.02206610  0.30701004  1
  O  O2  1  0.41420378  0.80085586  0.30244898  1
  O  O3  1  0.90988576  0.79551968  0.30619112  1
  O  O4  1  0.49080734  0.18862490  0.30270613  1
  O  O5  1  0.98649607  0.17035109  0.30336900  1
  O  O6  1  0.09964318  0.17496012  0.80862310  1
  O  O7  1  0.60115292  0.17253230  0.80244199  1
  O  O8  1  0.48612526  0.80328066  0.80559470  1
  O  O9  1  0.99217488  0.79394996  0.80408146  1
  O  O10  1  0.40982598  0.02119846  0.80850959  1
  O  O11  1  0.91388906  0.02810754  0.80361301  1
  O  O12  1  0.39488002  0.96459063  0.69388136  1
  O  O13  1  0.89396395  0.96396821  0.69199263  1
  O  O14  1  0.08649038  0.20574471  0.69412899  1
  O  O15  1  0.58877615  0.20744229  0.68950213  1
  O  O16  1  0.01431422  0.81231066  0.69837297  1
  O  O17  1  0.51733499  0.82464680  0.69315498  1
  O  O18  1  0.39293106  0.82135875  0.19023658  1
  O  O19  1  0.89400643  0.82303471  0.19243379  1
  O  O20  1  0.01844093  0.21433036  0.19087645  1
  O  O21  1  0.51169318  0.21148644  0.19689381  1
  O  O22  1  0.08976255  0.97133123  0.18835343  1
  O  O23  1  0.58709095  0.97030143  0.19263992  1
  O  O24  1  0.43952919  0.35119192  0.63769652  1
  O  O25  1  0.94412159  0.37534257  0.64588629  1
  O  O26  1  0.24662301  0.11431848  0.64521014  1
  O  O27  1  0.73510628  0.11553423  0.63792817  1
  O  O28  1  0.31788337  0.51983065  0.64460857  1
  O  O29  1  0.81441300  0.51042078  0.64476734  1
  O  O30  1  0.44128816  0.50819045  0.14352469  1
  O  O31  1  0.94079061  0.52893876  0.13632714  1
  O  O32  1  0.31132494  0.11392678  0.14186259  1
  O  O33  1  0.81806394  0.11817078  0.14328512  1
  O  O34  1  0.23648963  0.35701614  0.13554082  1
  O  O35  1  0.74703330  0.37793222  0.14391108  1
  O  O36  1  0.22653543  0.31093761  0.02918766  1
  O  O37  1  0.73371715  0.30092365  0.02967595  1
  O  O38  1  0.41505997  0.53345777  0.02948625  1
  O  O39  1  0.92819052  0.54826834  0.03016502  1
  O  O40  1  0.34560435  0.15182765  0.02690935  1
  O  O41  1  0.85250164  0.16719448  0.02865195  1
  O  O42  1  0.23429749  0.16744461  0.53095387  1
  O  O43  1  0.72471942  0.14202182  0.53175547  1
  O  O44  1  0.35213449  0.53653694  0.52975467  1
  O  O45  1  0.84523715  0.53434130  0.52867747  1
  O  O46  1  0.42689864  0.30577840  0.53144276  1
  O  O47  1  0.91609651  0.30032035  0.53100452  1
  O  O48  1  0.27644946  0.69373095  0.97084069  1
  O  O49  1  0.77061403  0.69225523  0.97437053  1
  O  O50  1  0.08209861  0.46127612  0.97857249  1
  O  O51  1  0.57519111  0.46074330  0.97441727  1
  O  O52  1  0.14855698  0.85318704  0.97632896  1
  O  O53  1  0.65600032  0.85876646  0.96996513  1
  O  O54  1  0.27101573  0.84936179  0.47463891  1
  O  O55  1  0.77975036  0.85308490  0.47787800  1
  O  O56  1  0.15760407  0.45632106  0.47006597  1
  O  O57  1  0.64225674  0.43874690  0.47640600  1
  O  O58  1  0.07616507  0.68812457  0.47438540  1
  O  O59  1  0.57849880  0.69751008  0.47910883  1
  O  O60  1  0.06510985  0.64467166  0.35825186  1
  O  O61  1  0.56363400  0.63237971  0.36119396  1
  O  O62  1  0.25755060  0.87315269  0.35885040  1
  O  O63  1  0.75676967  0.87711974  0.36153456  1
  O  O64  1  0.17695181  0.47652957  0.36363277  1
  O  O65  1  0.68200970  0.49181427  0.36081531  1
  O  O66  1  0.06749077  0.49772559  0.86255699  1
  O  O67  1  0.56377370  0.48039709  0.85816423  1
  O  O68  1  0.18507014  0.87576744  0.86150466  1
  O  O69  1  0.67551913  0.87720339  0.86364141  1
  O  O70  1  0.26074880  0.64313566  0.86489809  1
  O  O71  1  0.75703621  0.64146555  0.85898478  1
  O  O72  1  0.00945507  0.83729851  0.41269970  1
  O  O73  1  0.51418885  0.83146863  0.41297126  1
  O  O74  1  0.40991026  0.99575874  0.41031806  1
  O  O75  1  0.90882558  0.98070701  0.41078316  1
  O  O76  1  0.09160727  0.20711350  0.41219550  1
  O  O77  1  0.58186805  0.18316855  0.40822540  1
  O  O78  1  0.01490916  0.19763718  0.91362626  1
  O  O79  1  0.50371439  0.17404019  0.91349676  1
  O  O80  1  0.08204645  0.97971730  0.90894936  1
  O  O81  1  0.58971600  0.97571373  0.91236276  1
  O  O82  1  0.39772723  0.81670822  0.91073922  1
  O  O83  1  0.90987328  0.82376450  0.91033107  1
  O  O84  1  0.48800146  0.17754441  0.58747507  1
  O  O85  1  0.98869259  0.16715442  0.58804088  1
  O  O86  1  0.09413699  0.02012062  0.59152332  1
  O  O87  1  0.59986272  0.02762843  0.58808156  1
  O  O88  1  0.42023555  0.82034202  0.58725265  1
  O  O89  1  0.91785123  0.80801142  0.59035203  1
  O  O90  1  0.48753614  0.81014993  0.08758933  1
  O  O91  1  0.98946208  0.79939068  0.08618429  1
  O  O92  1  0.41751210  0.02434462  0.08830400  1
  O  O93  1  0.92084343  0.02013120  0.08650409  1
  O  O94  1  0.10131481  0.17559617  0.08564778  1
  O  O95  1  0.59346312  0.16750674  0.08996968  1
  O  O96  1  0.34555340  0.16863066  0.74814537  1
  O  O97  1  0.84381916  0.17083278  0.74494720  1
  O  O98  1  0.23881060  0.31565000  0.75040671  1
  O  O99  1  0.74274546  0.31402222  0.74586969  1
  O  O100  1  0.41851062  0.51917821  0.74584520  1
  O  O101  1  0.92725843  0.54213806  0.74814538  1
  O  O102  1  0.34410398  0.51667137  0.24408557  1
  O  O103  1  0.84517203  0.51990996  0.24610522  1
  O  O104  1  0.42543694  0.30885534  0.24673150  1
  O  O105  1  0.91893063  0.31978736  0.24451031  1
  O  O106  1  0.24242944  0.17074767  0.24516497  1
  O  O107  1  0.73812421  0.16011609  0.24985960  1
  O  O108  1  0.31763484  0.50987707  0.92177099  1
  O  O109  1  0.82686604  0.49985655  0.92402489  1
  O  O110  1  0.42504544  0.34462841  0.92074847  1
  O  O111  1  0.93081749  0.37063520  0.92438617  1
  O  O112  1  0.24842729  0.15504924  0.92356743  1
  O  O113  1  0.74140298  0.12656774  0.92083474  1
  O  O114  1  0.32624457  0.15284938  0.42437693  1
  O  O115  1  0.81665835  0.14333337  0.42367008  1
  O  O116  1  0.24316541  0.35985764  0.42090614  1
  O  O117  1  0.74840608  0.35047610  0.42437593  1
  O  O118  1  0.42881936  0.49030115  0.42437193  1
  O  O119  1  0.92667743  0.50958672  0.41990331  1
  O  O120  1  0.17458446  0.48045702  0.07741043  1
  O  O121  1  0.67576525  0.49744403  0.07759783  1
  O  O122  1  0.06497392  0.64522457  0.07855157  1
  O  O123  1  0.57390868  0.65297356  0.07490748  1
  O  O124  1  0.24819385  0.83883529  0.07680708  1
  O  O125  1  0.75209961  0.85564015  0.07518255  1
  O  O126  1  0.17657617  0.85445286  0.57807736  1
  O  O127  1  0.67188497  0.86774632  0.57995880  1
  O  O128  1  0.25181792  0.64835493  0.57638086  1
  O  O129  1  0.74747322  0.64978310  0.58113626  1
  O  O130  1  0.07493778  0.49706540  0.57626296  1
  O  O131  1  0.56376954  0.48250579  0.57958887  1
  O  O132  1  0.15451104  0.83330597  0.25305168  1
  O  O133  1  0.64954259  0.82029993  0.25438414  1
  O  O134  1  0.25887711  0.68328336  0.25526314  1
  O  O135  1  0.75653206  0.68388196  0.25397572  1
  O  O136  1  0.08798423  0.47929443  0.25589293  1
  O  O137  1  0.57759511  0.45996615  0.25432130  1
  O  O138  1  0.15300345  0.48001100  0.75818138  1
  O  O139  1  0.65460874  0.47693096  0.75301872  1
  O  O140  1  0.07904751  0.69544817  0.75619797  1
  O  O141  1  0.58721993  0.69726483  0.75737612  1
  O  O142  1  0.25859672  0.82746927  0.75642417  1
  O  O143  1  0.75866869  0.83464757  0.75658008  1
loop_
_geom_bond_atom_site_label_1
_geom_bond_atom_site_label_2
_geom_bond_distance
_geom_bond_site_symmetry_2
Na0 O106 2.468054 1_555
Na0 O104 2.531862 1_555
Na0 O132 2.545545 1_545
Na0 O32 2.583269 1_555
Na0 O134 2.629974 1_545
Na0 O62 2.845980 1_545
Na1 O107 2.410452 1_555
Na1 O105 2.464023 1_555
Na1 O33 2.545188 1_555
Na1 O133 2.708798 1_545
Na1 O135 2.720463 1_545
Na1 O63 2.906941 1_545
Na2 O106 2.462348 1_555
Na2 O102 2.504426 1_555
Na2 O136 2.553738 1_555
Na2 O134 2.562569 1_555
Na2 O34 2.792786 1_555
Na2 O64 2.840465 1_555
Na2 O0 2.924526 1_555
Na2 O20 3.035060 1_555
Na3 O103 2.397399 1_555
Na3 O107 2.403518 1_555
Na3 O35 2.567675 1_555
Na3 O135 2.571842 1_555
Na3 O137 2.721756 1_555
Na3 O65 2.881333 1_555
Na4 O103 2.371180 1_555
Na4 O105 2.396125 1_555
Na4 O132 2.666018 1_655
Na4 O136 2.685567 1_655
Na4 O60 2.752254 1_655
Na4 O31 2.779898 1_555
Na5 O102 2.426445 1_555
Na5 O133 2.503200 1_555
Na5 O30 2.615176 1_555
Na5 O104 2.615503 1_555
Na5 O137 2.730471 1_555
Na5 O61 2.901853 1_555
Na5 O2 2.911004 1_555
Na5 O23 2.985180 1_555
Na6 O28 2.377802 1_555
Na6 O98 2.416320 1_555
Na6 O100 2.433068 1_555
Na6 O138 2.685236 1_555
Na6 O142 2.709168 1_555
Na7 O29 2.451252 1_555
Na7 O99 2.477296 1_555
Na7 O139 2.557827 1_555
Na7 O101 2.563603 1_555
Na7 O143 2.644790 1_555
Na7 O71 2.924560 1_555
Na7 O13 2.970528 1_555
Na8 O97 2.384417 1_555
Na8 O25 2.444330 1_555
Na8 O101 2.604062 1_555
Na8 O138 2.617995 1_655
Na8 O140 2.795435 1_655
Na8 O14 2.896134 1_655
Na8 O11 2.929728 1_555
Na9 O96 2.387949 1_555
Na9 O100 2.390724 1_555
Na9 O139 2.655729 1_555
Na9 O141 2.663734 1_555
Na9 O24 2.690110 1_555
Na9 O67 2.788641 1_555
Na10 O98 2.364659 1_555
Na10 O96 2.393829 1_555
Na10 O26 2.442816 1_555
Na10 O142 2.654149 1_545
Na10 O140 2.758032 1_545
Na11 O97 2.460488 1_555
Na11 O99 2.460924 1_555
Na11 O143 2.534914 1_545
Na11 O141 2.572547 1_545
Na11 O27 2.660102 1_555
Na11 O69 2.908910 1_545
Na11 O7 2.998916 1_555
Na11 O17 3.026110 1_545
Na12 O128 2.525839 1_555
Na12 O130 2.567567 1_555
Na12 O86 2.574151 1_555
Na12 O85 2.659850 1_455
Na12 O14 2.769427 1_555
Na12 O56 2.876271 1_555
Na12 O42 2.929277 1_555
Na12 O28 2.930905 1_555
Na13 O129 2.366385 1_555
Na13 O57 2.521935 1_555
Na13 O131 2.527239 1_555
Na13 O87 2.690225 1_555
Na13 O84 2.726274 1_555
Na13 O15 2.875552 1_555
Na13 O29 2.925504 1_555
Na13 O43 3.019670 1_555
Na14 O89 2.446460 1_455
Na14 O130 2.615984 1_555
Na14 O86 2.640065 1_565
Na14 O126 2.656174 1_555
Na14 O58 2.718172 1_555
Na14 O45 2.893186 1_455
Na14 O16 2.917473 1_555
Na14 O25 2.970727 1_455
Na15 O59 2.451600 1_555
Na15 O127 2.488106 1_555
Na15 O131 2.501250 1_555
Na15 O88 2.605359 1_555
Na15 O87 2.699250 1_565
Na15 O44 2.825878 1_555
Na15 O17 2.982372 1_555
Na16 O126 2.485131 1_555
Na16 O128 2.552877 1_555
Na16 O84 2.580783 1_565
Na16 O88 2.622836 1_555
Na16 O54 2.735214 1_555
Na16 O12 2.782814 1_555
Na16 O26 2.881692 1_565
Na16 O46 2.994979 1_565
Na17 O55 2.384400 1_555
Na17 O129 2.412372 1_555
Na17 O127 2.582320 1_555
Na17 O89 2.617562 1_555
Na17 O85 2.650112 1_565
Na17 O13 2.931726 1_555
Na17 O47 2.985763 1_565
Na18 O124 2.461582 1_555
Na18 O122 2.548203 1_555
Na18 O52 2.634962 1_554
Na18 O94 2.655743 1_565
Na18 O91 2.684533 1_455
Na18 O22 2.722734 1_555
Na18 O32 2.797215 1_565
Na19 O125 2.518742 1_555
Na19 O123 2.585395 1_555
Na19 O95 2.586183 1_565
Na19 O23 2.697168 1_555
Na19 O90 2.701754 1_555
Na19 O33 2.872696 1_565
Na19 O53 2.921026 1_554
Na19 O37 2.963854 1_565
Na20 O124 2.417324 1_555
Na20 O90 2.549621 1_555
Na20 O92 2.573320 1_565
Na20 O120 2.582246 1_555
Na20 O18 2.673571 1_555
Na20 O48 2.765813 1_554
Na21 O121 2.501473 1_555
Na21 O125 2.555311 1_555
Na21 O91 2.607049 1_555
Na21 O93 2.623534 1_565
Na21 O19 2.687416 1_555
Na21 O49 2.800994 1_554
Na21 O35 2.850586 1_555
Na22 O122 2.539470 1_555
Na22 O93 2.542654 1_455
Na22 O120 2.570452 1_555
Na22 O50 2.607343 1_554
Na22 O94 2.676353 1_555
Na22 O20 2.814857 1_555
Na22 O41 2.829691 1_455
Na23 O92 2.488942 1_555
Na23 O95 2.601449 1_555
Na23 O121 2.603360 1_555
Na23 O123 2.613083 1_555
Na23 O51 2.767033 1_554
Na23 O21 2.820855 1_555
Na23 O30 2.919956 1_555
Na23 O40 2.979722 1_555
Na24 O83 2.435673 1_555
Na24 O111 2.439039 1_555
Na24 O80 2.517721 1_655
Na24 O109 2.531566 1_555
Na24 O39 2.783387 1_556
Na24 O9 2.841852 1_555
Na24 O52 2.938003 1_655
Na24 O66 3.000311 1_655
Na25 O110 2.462195 1_555
Na25 O79 2.471080 1_555
Na25 O112 2.598307 1_555
Na25 O82 2.611234 1_545
Na25 O10 2.714361 1_555
Na25 O40 2.793199 1_556
Na25 O68 2.898182 1_545
Na26 O78 2.425271 1_555
Na26 O112 2.478476 1_555
Na26 O80 2.515083 1_545
Na26 O108 2.540541 1_555
Na26 O6 2.707693 1_555
Na26 O36 2.811333 1_556
Na27 O118 2.459765 1_555
Na27 O74 2.477131 1_545
Na27 O77 2.510166 1_555
Na27 O114 2.586544 1_555
Na27 O57 2.809303 1_555
Na27 O46 2.823470 1_555
Na27 O4 2.874001 1_555
Na27 O61 2.950954 1_555
Na28 O115 2.392780 1_555
Na28 O73 2.515448 1_545
Na28 O117 2.556493 1_555
Na28 O77 2.612464 1_555
Na28 O1 2.787229 1_555
Na28 O43 2.845403 1_555
Na28 O63 2.928825 1_545
Na29 O75 2.522539 1_555
Na29 O119 2.542194 1_555
Na29 O117 2.587663 1_555
Na29 O72 2.587816 1_655
Na29 O45 2.790468 1_555
Na29 O3 2.845348 1_555
Na29 O55 2.902071 1_555
Na29 O65 2.976029 1_555
Na30 O72 2.484509 1_655
Na30 O75 2.517969 1_555
Na30 O76 2.676695 1_665
Na30 O85 2.688901 1_565
Na30 O89 2.707593 1_555
Na30 O86 2.746544 1_665
Na31 O73 2.475730 1_555
Na31 O74 2.483976 1_555
Na31 O88 2.592763 1_555
Na31 O77 2.626447 1_565
Na31 O87 2.815151 1_565
Na31 O84 2.824468 1_565
Na32 O83 2.491271 1_555
Na32 O78 2.502616 1_665
Na32 O93 2.516227 1_566
Na32 O80 2.669629 1_655
Na32 O91 2.784605 1_556
Na32 O94 2.786790 1_666
Na33 O95 2.515702 1_555
Na33 O79 2.542469 1_554
Na33 O92 2.604239 1_555
Na33 O90 2.613060 1_545
Na33 O81 2.699343 1_544
Na33 O82 2.840803 1_544
Na34 O96 2.371991 1_555
Na34 O100 2.394107 1_555
Na34 O98 2.404499 1_555
Na34 O110 2.735746 1_555
Na34 O112 2.845026 1_555
Na34 O108 2.896535 1_555
Na35 O99 2.454910 1_555
Na35 O97 2.485353 1_555
Na35 O101 2.691131 1_555
Na35 O113 2.719372 1_555
Na35 O109 2.729968 1_555
Na35 O111 2.769594 1_555
Na36 O106 2.493722 1_555
Na36 O102 2.524506 1_555
Na36 O116 2.692629 1_555
Na36 O104 2.713396 1_555
Na36 O114 2.722718 1_555
Na36 O118 2.726658 1_555
Na37 O107 2.470861 1_555
Na37 O105 2.484831 1_555
Na37 O103 2.524895 1_555
Na37 O119 2.677043 1_555
Na37 O115 2.704042 1_555
Na37 O117 2.804076 1_555
Na38 O132 2.523875 1_555
Na38 O134 2.535050 1_555
Na38 O124 2.574395 1_555
Na38 O136 2.625107 1_555
Na38 O122 2.764697 1_555
Na38 O120 2.790975 1_555
Na39 O135 2.514118 1_555
Na39 O133 2.519537 1_555
Na39 O125 2.648097 1_555
Na39 O121 2.685566 1_555
Na39 O123 2.711777 1_555
Na39 O137 2.745924 1_555
Na40 O128 2.521841 1_555
Na40 O130 2.559835 1_555
Na40 O126 2.580359 1_555
Na40 O142 2.680930 1_555
Na40 O138 2.705198 1_555
Na40 O140 2.848827 1_555
Na41 O129 2.386497 1_555
Na41 O139 2.618267 1_555
Na41 O143 2.642321 1_555
Na41 O127 2.677047 1_555
Na41 O131 2.685494 1_555
Na41 O141 2.775382 1_555
O0 Si0 1.633863 1_555
O0 Zr0 2.053888 1_445
O1 Si1 1.637962 1_545
O1 Zr1 2.044007 1_545
O2 Si2 1.638192 1_555
O2 Zr1 2.006799 1_555
O3 Si3 1.645923 1_555
O3 Zr0 2.016210 1_555
O4 S0 1.483129 1_555
O4 Zr1 2.347197 1_545
O5 Si4 1.632403 1_655
O5 Zr0 2.033286 1_545
O6 Si5 1.642800 1_555
O6 Zr2 2.048707 1_455
O7 Si6 1.658371 1_555
O7 Zr3 1.960628 1_555
O8 Si7 1.647243 1_555
O8 Zr3 2.012881 1_565
O9 S1 1.483846 1_655
O9 Zr2 2.328441 1_565
O10 Si8 1.657023 1_555
O10 Zr3 2.010615 1_555
O11 Si9 1.646406 1_555
O11 Zr2 1.986623 1_555
O12 Si8 1.664275 1_565
O12 Zr5 2.009264 1_555
O13 Si9 1.655289 1_565
O13 Zr4 2.045993 1_565
O14 Si5 1.652049 1_555
O14 Zr4 2.080129 1_455
O15 Si6 1.654087 1_555
O15 Zr5 2.052616 1_545
O16 S1 1.487279 1_555
O16 Zr4 2.348223 1_465
O17 Si7 1.676029 1_555
O17 Zr5 1.980691 1_555
O18 Si2 1.667516 1_555
O18 Zr7 2.039311 1_555
O19 Si3 1.682471 1_555
O19 Zr6 1.991418 1_565
O20 Si4 1.689657 1_555
O20 Zr6 1.974695 1_455
O21 S0 1.501756 1_555
O21 Zr7 2.276499 1_545
O22 Si0 1.675591 1_565
O22 Zr6 2.044172 1_465
O23 Si1 1.665934 1_555
O23 Zr7 2.029890 1_555
O24 S2 1.472315 1_555
O24 Zn0 2.346324 1_555
O25 Si10 1.621455 1_555
O25 Zn1 2.028805 1_555
O26 Si11 1.616907 1_555
O26 Zn0 2.013152 1_555
O27 S3 1.483292 1_555
O27 Zn1 2.149962 1_555
O28 Si12 1.617250 1_555
O28 Zn0 2.022522 1_555
O29 Si13 1.631480 1_555
O29 Zn1 1.985181 1_555
O30 Si14 1.616010 1_555
O30 Zn2 2.044372 1_555
O31 S4 1.462543 1_555
O31 Zn3 2.404055 1_555
O32 Si15 1.620256 1_555
O32 Zn2 2.044528 1_555
O33 Si16 1.611730 1_555
O33 Zn3 2.042425 1_555
O34 S5 1.475301 1_555
O34 Zn2 2.203150 1_555
O35 Si17 1.608903 1_555
O35 Zn3 2.035286 1_555
O36 S5 1.505291 1_555
O36 Zr8 2.332460 1_554
O37 Si17 1.656219 1_555
O37 Zr9 2.027310 1_554
O38 Si14 1.657685 1_555
O38 Zr8 2.005346 1_554
O39 S4 1.508350 1_555
O39 Zr9 2.272787 1_554
O40 Si15 1.689024 1_555
O40 Zr8 1.986763 1_554
O41 Si16 1.657631 1_555
O41 Zr9 2.030405 1_554
O42 Si11 1.650940 1_555
O42 Zr10 2.040161 1_555
O43 S3 1.489751 1_555
O43 Zr11 2.407292 1_555
O44 Si12 1.648403 1_555
O44 Zr10 2.036081 1_555
O45 Si13 1.667145 1_555
O45 Zr11 2.072821 1_555
O46 S2 1.509142 1_555
O46 Zr10 2.275821 1_555
O47 Si10 1.637812 1_555
O47 Zr11 2.027918 1_555
O48 S6 1.474511 1_555
O48 Zn4 2.203917 1_556
O49 Si18 1.641997 1_555
O49 Zr12 2.034079 1_556
O50 Si19 1.624351 1_555
O50 Zn4 1.971279 1_556
O51 Si20 1.633577 1_555
O51 Zr12 2.042953 1_556
O52 Si21 1.614024 1_555
O52 Zn4 1.930589 1_556
O53 S7 1.482903 1_555
O53 Zr12 2.297363 1_556
O54 Si22 1.644497 1_555
O54 Zr13 2.032442 1_555
O55 Si23 1.620633 1_555
O55 Zn5 1.947763 1_555
O56 S8 1.487993 1_555
O56 Zr13 2.266381 1_555
O57 Si24 1.622139 1_555
O57 Zn5 1.949298 1_555
O58 Si25 1.641058 1_555
O58 Zr13 2.017884 1_555
O59 Si26 1.622071 1_555
O59 Zn5 2.021902 1_555
O60 Si25 1.639572 1_555
O60 Zr14 2.019514 1_555
O61 Si26 1.664618 1_555
O61 Zr15 2.052242 1_555
O62 Si22 1.641543 1_555
O62 Zr14 2.028342 1_555
O63 Si23 1.680802 1_555
O63 Zr15 1.978771 1_555
O64 S8 1.485887 1_555
O64 Zr14 2.299699 1_555
O65 Si24 1.665451 1_555
O65 Zr15 2.051897 1_555
O66 Si19 1.668583 1_555
O66 Zr16 2.020773 1_555
O67 Si20 1.635084 1_555
O67 Zr17 2.051484 1_555
O68 Si21 1.668146 1_555
O68 Zr16 2.047742 1_555
O69 S7 1.481539 1_555
O69 Zr17 2.304578 1_555
O70 S6 1.509960 1_555
O70 Zr16 2.187263 1_555
O71 Si18 1.639953 1_555
O71 Zr17 2.030313 1_555
O72 Si25 1.636510 1_555
O72 Zr0 2.144677 1_455
O73 Si26 1.659555 1_555
O73 Zr1 2.027464 1_555
O74 Si22 1.644735 1_555
O74 Zr1 2.110925 1_555
O75 Si23 1.639996 1_555
O75 Zr0 2.110359 1_555
O76 S8 1.475863 1_555
O76 Zr0 2.332597 1_445
O77 Si24 1.647439 1_555
O77 Zr1 2.116922 1_545
O78 Si19 1.655789 1_555
O78 Zr2 2.037904 1_455
O79 Si20 1.660426 1_555
O79 Zr3 2.145035 1_555
O80 Si21 1.638713 1_555
O80 Zr2 2.147147 1_465
O81 S7 1.490296 1_555
O81 Zr3 2.299901 1_565
O82 S6 1.486191 1_555
O82 Zr3 2.385570 1_565
O83 Si18 1.649494 1_555
O83 Zr2 2.105485 1_565
O84 S2 1.522404 1_555
O84 Zr5 2.364742 1_545
O85 Si10 1.673454 1_555
O85 Zr4 2.023802 1_555
O86 Si11 1.654500 1_555
O86 Zr4 2.132864 1_455
O87 S3 1.525342 1_555
O87 Zr5 2.307988 1_545
O88 Si12 1.686624 1_555
O88 Zr5 2.119160 1_555
O89 Si13 1.681765 1_555
O89 Zr4 2.095557 1_565
O90 Si14 1.669642 1_555
O90 Zr7 2.052642 1_555
O91 S4 1.519232 1_555
O91 Zr6 2.397932 1_565
O92 Si15 1.664581 1_555
O92 Zr7 2.145106 1_545
O93 Si16 1.689384 1_555
O93 Zr6 2.145277 1_555
O94 S5 1.517695 1_555
O94 Zr6 2.393296 1_455
O95 Si17 1.658529 1_555
O95 Zr7 2.157310 1_545
O96 Si8 1.608455 1_555
O96 Zn0 2.269981 1_555
O97 Si9 1.625334 1_555
O97 Zn1 2.226249 1_555
O98 Si5 1.619906 1_555
O98 Zn0 2.103789 1_555
O99 Si6 1.615640 1_555
O99 Zn1 2.217587 1_555
O100 Si7 1.613041 1_555
O100 Zn0 2.222946 1_555
O101 S1 1.471410 1_655
O101 Zn1 2.416022 1_555
O102 Si2 1.626691 1_555
O102 Zn2 2.171188 1_555
O103 Si3 1.610487 1_555
O103 Zn3 2.188984 1_555
O104 S0 1.479290 1_555
O104 Zn2 2.335522 1_555
O105 Si4 1.612276 1_655
O105 Zn3 2.179905 1_555
O106 Si0 1.626836 1_555
O106 Zn2 2.157865 1_555
O107 Si1 1.617648 1_545
O107 Zn3 2.072818 1_555
O108 S6 1.491240 1_555
O108 Zr8 2.363749 1_555
O109 Si18 1.650778 1_555
O109 Zr9 2.103119 1_555
O110 Si20 1.669755 1_555
O110 Zr8 2.022499 1_555
O111 Si19 1.643384 1_655
O111 Zr9 2.127075 1_555
O112 Si21 1.663701 1_545
O112 Zr8 2.133717 1_555
O113 S7 1.501681 1_545
O113 Zr9 2.196085 1_555
O114 Si22 1.649051 1_545
O114 Zr10 2.093616 1_555
O115 Si23 1.641105 1_545
O115 Zr11 2.096024 1_555
O116 S8 1.503883 1_555
O116 Zr10 2.190842 1_555
O117 Si24 1.647047 1_555
O117 Zr11 2.138073 1_555
O118 Si26 1.652968 1_555
O118 Zr10 2.104832 1_555
O119 Si25 1.654568 1_655
O119 Zr11 2.021883 1_555
O120 S5 1.483681 1_555
O120 Zn4 2.487386 1_555
O121 Si17 1.672134 1_555
O121 Zr12 2.044188 1_555
O122 S4 1.492753 1_455
O122 Zn4 2.315476 1_555
O123 Si14 1.654550 1_555
O123 Zr12 2.148172 1_555
O124 Si15 1.655795 1_565
O124 Zn4 2.133667 1_555
O125 Si16 1.660739 1_565
O125 Zr12 2.134274 1_555
O126 Si11 1.669746 1_565
O126 Zr13 2.058776 1_555
O127 S3 1.481317 1_565
O128 Si12 1.657897 1_555
O128 Zr13 2.155604 1_555
O129 Si13 1.646071 1_555
O129 Zn5 2.287447 1_555
O130 Si10 1.659501 1_455
O130 Zr13 2.160181 1_555
O131 S2 1.479915 1_555
O132 Si0 1.667815 1_565
O132 Zr14 2.071694 1_555
O133 Si1 1.662595 1_555
O133 Zr15 2.169474 1_555
O134 Si2 1.648882 1_555
O134 Zr14 2.154030 1_555
O135 Si3 1.655718 1_555
O135 Zr15 2.162306 1_555
O136 Si4 1.649223 1_555
O136 Zr14 2.133121 1_555
O137 S0 1.497530 1_555
O137 Zr15 2.401023 1_555
O138 Si5 1.672022 1_555
O138 Zr16 2.108919 1_555
O139 Si6 1.658613 1_555
O139 Zr17 2.058823 1_555
O140 S1 1.518484 1_555
O140 Zr16 2.217776 1_555
O141 Si7 1.644746 1_555
O141 Zr17 2.122968 1_555
O142 Si8 1.659441 1_565
O142 Zr16 2.113031 1_555
O143 Si9 1.650218 1_565
O143 Zr17 2.133293 1_555
