# generated using pymatgen
data_CsBr3
_symmetry_space_group_name_H-M   'P 1'
_cell_length_a   6.63864061
_cell_length_b   9.68422586
_cell_length_c   10.05640030
_cell_angle_alpha   90.00000000
_cell_angle_beta   90.00000000
_cell_angle_gamma   90.00000000
_symmetry_Int_Tables_number   1
_chemical_formula_structural   CsBr3
_chemical_formula_sum   'Cs4 Br12'
_cell_volume   646.52693136
_cell_formula_units_Z   4
loop_
 _symmetry_equiv_pos_site_id
 _symmetry_equiv_pos_as_xyz
  1  'x, y, z'
loop_
 _atom_site_type_symbol
 _atom_site_label
 _atom_site_symmetry_multiplicity
 _atom_site_fract_x
 _atom_site_fract_y
 _atom_site_fract_z
 _atom_site_occupancy
  Cs  Cs0  1  0.25000000  0.45841663  0.18474431  1
  Cs  Cs1  1  0.75000000  0.54158337  0.81525569  1
  Cs  Cs2  1  0.75000000  0.95841663  0.31525569  1
  Cs  Cs3  1  0.25000000  0.04158337  0.68474431  1
  Br  Br0  1  0.25000000  0.38332789  0.82374583  1
  Br  Br1  1  0.75000000  0.61667211  0.17625417  1
  Br  Br2  1  0.75000000  0.88332789  0.67625417  1
  Br  Br3  1  0.25000000  0.11667111  0.32374583  1
  Br  Br4  1  0.25000000  0.56311040  0.62486648  1
  Br  Br5  1  0.75000000  0.43688960  0.37513352  1
  Br  Br6  1  0.75000000  0.06311040  0.87513352  1
  Br  Br7  1  0.25000000  0.93688960  0.12486648  1
  Br  Br8  1  0.25000000  0.73859377  0.44199540  1
  Br  Br9  1  0.75000000  0.26140623  0.55800460  1
  Br  Br10  1  0.75000000  0.23859377  0.05800460  1
  Br  Br11  1  0.25000000  0.76140623  0.94199540  1
loop_
_geom_bond_atom_site_label_1
_geom_bond_atom_site_label_2
_geom_bond_distance
_geom_bond_site_symmetry_2
Br0 Br4 2.651662 1_555
Br0 Cs3 3.592631 1_555
Br0 Cs1 3.657046 1_555
Br0 Cs1 3.657046 1_455
Br0 Cs0 3.702458 1_556
Br1 Br5 2.651662 1_555
Br1 Cs2 3.592631 1_555
Br1 Cs0 3.657046 1_555
Br1 Cs0 3.657046 1_655
Br1 Cs1 3.702458 1_554
Br2 Br6 2.651662 1_565
Br2 Cs1 3.592631 1_555
Br2 Cs3 3.657046 1_565
Br2 Cs3 3.657046 1_665
Br2 Cs2 3.702458 1_555
Br3 Br7 2.651656 1_545
Br3 Cs0 3.592640 1_555
Br3 Cs2 3.657042 1_545
Br3 Cs2 3.657042 1_445
Br3 Cs3 3.702456 1_555
Br4 Br8 2.504005 1_555
Br4 Cs1 3.837598 1_455
Br4 Cs1 3.837598 1_555
Br5 Br9 2.504005 1_555
Br5 Cs0 3.837598 1_555
Br5 Cs0 3.837598 1_655
Br6 Cs3 3.837598 1_555
Br6 Cs3 3.837598 1_655
Br7 Cs2 3.837598 1_455
Br7 Cs2 3.837598 1_555
Br8 Cs0 3.748955 1_555
Br8 Cs3 3.816937 1_565
Br8 Cs2 4.144177 1_455
Br8 Cs2 4.144177 1_555
Br9 Cs1 3.748955 1_555
Br9 Cs2 3.816937 1_545
Br9 Cs3 4.144177 1_655
Br9 Cs3 4.144177 1_555
Br10 Br6 2.504005 1_554
Br10 Cs2 3.748955 1_545
Br10 Cs1 3.816937 1_554
Br10 Cs0 4.144177 1_555
Br10 Cs0 4.144177 1_655
Br11 Br7 2.504005 1_556
Br11 Cs3 3.748955 1_565
Br11 Cs0 3.816937 1_556
Br11 Cs1 4.144177 1_555
Br11 Cs1 4.144177 1_455
