# generated using pymatgen
data_Zn2PHO5
_symmetry_space_group_name_H-M   'P 1'
_cell_length_a   6.06249200
_cell_length_b   8.21356200
_cell_length_c   8.39598500
_cell_angle_alpha   90.00000000
_cell_angle_beta   90.00000000
_cell_angle_gamma   90.00000000
_symmetry_Int_Tables_number   1
_chemical_formula_structural   Zn2PHO5
_chemical_formula_sum   'Zn8 P4 H4 O20'
_cell_volume   418.07516736
_cell_formula_units_Z   4
loop_
 _symmetry_equiv_pos_site_id
 _symmetry_equiv_pos_as_xyz
  1  'x, y, z'
loop_
 _atom_site_type_symbol
 _atom_site_label
 _atom_site_symmetry_multiplicity
 _atom_site_fract_x
 _atom_site_fract_y
 _atom_site_fract_z
 _atom_site_occupancy
  Zn  Zn0  1  0.75278200  0.00000000  0.50000000  1
  Zn  Zn1  1  0.74721800  0.50000000  0.00000000  1
  Zn  Zn2  1  0.24721800  0.00000000  0.50000000  1
  Zn  Zn3  1  0.25278200  0.50000000  0.00000000  1
  Zn  Zn4  1  0.00000000  0.13559700  0.86319600  1
  Zn  Zn5  1  0.00000000  0.86440300  0.13680400  1
  Zn  Zn6  1  0.50000000  0.63559700  0.63680400  1
  Zn  Zn7  1  0.50000000  0.36440300  0.36319600  1
  P  P0  1  0.50000000  0.24967600  0.73918800  1
  P  P1  1  0.50000000  0.75032400  0.26081200  1
  P  P2  1  0.00000000  0.74967600  0.76081200  1
  P  P3  1  0.00000000  0.25032400  0.23918800  1
  H  H0  1  0.00000000  0.22453500  0.57863300  1
  H  H1  1  0.00000000  0.77546500  0.42136700  1
  H  H2  1  0.50000000  0.72453500  0.92136700  1
  H  H3  1  0.50000000  0.27546500  0.07863300  1
  O  O0  1  0.00000000  0.11492200  0.62366600  1
  O  O1  1  0.00000000  0.88507800  0.37633400  1
  O  O2  1  0.50000000  0.61492200  0.87633400  1
  O  O3  1  0.50000000  0.38507800  0.12366600  1
  O  O4  1  0.70768300  0.73369600  0.15303200  1
  O  O5  1  0.70768300  0.26630400  0.84696800  1
  O  O6  1  0.79231700  0.23369600  0.34696800  1
  O  O7  1  0.79231700  0.76630400  0.65303200  1
  O  O8  1  0.00000000  0.11375400  0.10907700  1
  O  O9  1  0.00000000  0.88624600  0.89092300  1
  O  O10  1  0.50000000  0.61375400  0.39092300  1
  O  O11  1  0.50000000  0.38624600  0.60907700  1
  O  O12  1  0.00000000  0.41635400  0.14698900  1
  O  O13  1  0.00000000  0.58364600  0.85301100  1
  O  O14  1  0.50000000  0.91635400  0.35301100  1
  O  O15  1  0.50000000  0.08364600  0.64698900  1
  O  O16  1  0.20768300  0.23369600  0.34696800  1
  O  O17  1  0.20768300  0.76630400  0.65303200  1
  O  O18  1  0.29231700  0.73369600  0.15303200  1
  O  O19  1  0.29231700  0.26630400  0.84696800  1
loop_
_geom_bond_atom_site_label_1
_geom_bond_atom_site_label_2
_geom_bond_distance
_geom_bond_site_symmetry_2
H0 O0 0.976484 1_555
H1 O1 0.976484 1_555
H2 O2 0.976484 1_555
H3 O3 0.976484 1_555
O0 Zn4 2.018247 1_555
O0 Zn2 2.053124 1_555
O0 Zn0 2.053124 1_455
O1 Zn5 2.018247 1_555
O1 Zn2 2.053124 1_565
O1 Zn0 2.053124 1_465
O2 Zn6 2.018247 1_555
O2 Zn3 2.053124 1_556
O2 Zn1 2.053124 1_556
O3 Zn7 2.018247 1_555
O3 Zn3 2.053124 1_555
O3 Zn1 2.053124 1_555
O4 P1 1.556536 1_555
O4 Zn5 2.076464 1_655
O4 Zn1 2.322216 1_555
O5 P0 1.556536 1_555
O5 Zn4 2.076464 1_655
O5 Zn1 2.322216 1_556
O6 P3 1.556536 1_655
O6 Zn7 2.076464 1_555
O6 Zn0 2.322216 1_555
O7 P2 1.556536 1_655
O7 Zn6 2.076464 1_555
O7 Zn0 2.322216 1_565
O8 P3 1.565768 1_555
O8 Zn5 2.061248 1_545
O8 Zn4 2.072194 1_554
O9 P2 1.565768 1_555
O9 Zn4 2.061248 1_565
O9 Zn5 2.072194 1_556
O10 P1 1.565768 1_555
O10 Zn7 2.061248 1_555
O10 Zn6 2.072194 1_555
O11 P0 1.565768 1_555
O11 Zn6 2.061248 1_555
O11 Zn7 2.072194 1_555
O12 P3 1.568089 1_555
O12 Zn3 2.084126 1_555
O12 Zn1 2.084126 1_455
O13 P2 1.568089 1_555
O13 Zn3 2.084126 1_556
O13 Zn1 2.084126 1_456
O14 P1 1.568089 1_555
O14 Zn0 2.084126 1_565
O14 Zn2 2.084126 1_565
O15 P0 1.568089 1_555
O15 Zn0 2.084126 1_555
O15 Zn2 2.084126 1_555
O16 P3 1.556536 1_555
O16 Zn7 2.076464 1_555
O16 Zn2 2.322216 1_555
O17 P2 1.556536 1_555
O17 Zn6 2.076464 1_555
O17 Zn2 2.322216 1_565
O18 P1 1.556536 1_555
O18 Zn5 2.076464 1_555
O18 Zn3 2.322216 1_555
O19 P0 1.556536 1_555
O19 Zn4 2.076464 1_555
O19 Zn3 2.322216 1_556
