# generated using pymatgen
data_MgTe2Mo2W2(Se2S)2
_symmetry_space_group_name_H-M   'P 1'
_cell_length_a   3.34109100
_cell_length_b   3.34125796
_cell_length_c   45.58404619
_cell_angle_alpha   89.99060255
_cell_angle_beta   89.99950445
_cell_angle_gamma   119.99947725
_symmetry_Int_Tables_number   1
_chemical_formula_structural   MgTe2Mo2W2(Se2S)2
_chemical_formula_sum   'Mg1 Te2 Mo2 W2 Se4 S2'
_cell_volume   440.70105874
_cell_formula_units_Z   1
loop_
 _symmetry_equiv_pos_site_id
 _symmetry_equiv_pos_as_xyz
  1  'x, y, z'
loop_
 _atom_site_type_symbol
 _atom_site_label
 _atom_site_symmetry_multiplicity
 _atom_site_fract_x
 _atom_site_fract_y
 _atom_site_fract_z
 _atom_site_occupancy
  Mg  Mg0  1  0.99986500  0.99984600  0.19778600  1
  Te  Te0  1  0.66667200  0.33332800  0.04556600  1
  Te  Te1  1  0.66657100  0.33312800  0.12910700  1
  Mo  Mo0  1  0.33331300  0.66658500  0.08709700  1
  Mo  Mo1  1  0.66677200  0.33349600  0.28939800  1
  W  W0  1  0.33328000  0.66656600  0.46957800  1
  W  W1  1  0.66668900  0.33341700  0.65754200  1
  Se  Se0  1  0.33332100  0.66662500  0.69427800  1
  Se  Se1  1  0.66663700  0.33329900  0.43283900  1
  Se  Se2  1  0.66656600  0.33314100  0.50631300  1
  Se  Se3  1  0.33341800  0.66688600  0.62080500  1
  S  S0  1  0.33334600  0.66669500  0.32246400  1
  S  S1  1  0.33355000  0.66698700  0.25562900  1
loop_
_geom_bond_atom_site_label_1
_geom_bond_atom_site_label_2
_geom_bond_distance
_geom_bond_site_symmetry_2
Mo0 Te0 2.702744 1_565
Mo0 Te0 2.702821 1_555
Mo0 Te0 2.702869 1_455
Mo0 Te1 2.718120 1_555
Mo0 Te1 2.718132 1_455
Mo0 Te1 2.718198 1_565
Mo1 S0 2.447953 1_655
Mo1 S0 2.448078 1_555
Mo1 S0 2.448192 1_545
Mo1 S1 2.467853 1_545
Mo1 S1 2.467923 1_555
Mo1 S1 2.468026 1_655
Se0 W1 2.554388 1_555
Se0 W1 2.554505 1_455
Se0 W1 2.554549 1_565
Se1 W0 2.554510 1_545
Se1 W0 2.554583 1_555
Se1 W0 2.554618 1_655
Se2 W0 2.554389 1_655
Se2 W0 2.554427 1_555
Se2 W0 2.554537 1_545
Se3 W1 2.554482 1_455
Se3 W1 2.554500 1_565
Se3 W1 2.554550 1_555
