# generated using pymatgen
data_Mg(MoO3)2
_symmetry_space_group_name_H-M   'P 1'
_cell_length_a   3.85109700
_cell_length_b   3.98388678
_cell_length_c   8.04832563
_cell_angle_alpha   103.83894430
_cell_angle_beta   90.00000000
_cell_angle_gamma   90.00000000
_symmetry_Int_Tables_number   1
_chemical_formula_structural   Mg(MoO3)2
_chemical_formula_sum   'Mg1 Mo2 O6'
_cell_volume   119.89571344
_cell_formula_units_Z   1
loop_
 _symmetry_equiv_pos_site_id
 _symmetry_equiv_pos_as_xyz
  1  'x, y, z'
loop_
 _atom_site_type_symbol
 _atom_site_label
 _atom_site_symmetry_multiplicity
 _atom_site_fract_x
 _atom_site_fract_y
 _atom_site_fract_z
 _atom_site_occupancy
  Mg  Mg0  1  0.75000000  0.24896700  0.97219700  1
  Mo  Mo0  1  0.25000000  0.34259300  0.32273100  1
  Mo  Mo1  1  0.75000000  0.60327900  0.66789300  1
  O  O0  1  0.25000000  0.90787800  0.34068100  1
  O  O1  1  0.75000000  0.11303100  0.69910200  1
  O  O2  1  0.75000000  0.44978700  0.37481300  1
  O  O3  1  0.25000000  0.56131900  0.60818700  1
  O  O4  1  0.25000000  0.29022600  0.08163400  1
  O  O5  1  0.75000000  0.71625300  0.90776200  1
loop_
_geom_bond_atom_site_label_1
_geom_bond_atom_site_label_2
_geom_bond_distance
_geom_bond_site_symmetry_2
Mg0 O5 2.048510 1_555
Mg0 O5 2.060696 1_545
Mg0 O4 2.107434 1_656
Mg0 O4 2.107434 1_556
Mg0 O1 2.134214 1_555
Mo0 O0 1.771972 1_545
Mo0 O4 1.901347 1_555
Mo0 O2 1.995039 1_455
Mo0 O2 1.995039 1_555
Mo0 O0 2.221908 1_555
Mo0 O3 2.253850 1_555
Mo1 O5 1.874540 1_555
Mo1 O3 1.981960 1_555
Mo1 O3 1.981960 1_655
Mo1 O1 1.985748 1_565
Mo1 O1 2.027893 1_555
Mo1 O2 2.290820 1_555
