# generated using pymatgen
data_Na2Mn3Cl8
_symmetry_space_group_name_H-M   'P 1'
_cell_length_a   7.80678312
_cell_length_b   7.80683917
_cell_length_c   7.81197587
_cell_angle_alpha   56.64622596
_cell_angle_beta   56.64584141
_cell_angle_gamma   56.67726411
_symmetry_Int_Tables_number   1
_chemical_formula_structural   Na2Mn3Cl8
_chemical_formula_sum   'Na2 Mn3 Cl8'
_cell_volume   310.66295942
_cell_formula_units_Z   1
loop_
 _symmetry_equiv_pos_site_id
 _symmetry_equiv_pos_as_xyz
  1  'x, y, z'
loop_
 _atom_site_type_symbol
 _atom_site_label
 _atom_site_symmetry_multiplicity
 _atom_site_fract_x
 _atom_site_fract_y
 _atom_site_fract_z
 _atom_site_occupancy
  Na  Na0  1  0.15851934  0.15852695  0.15895809  1
  Na  Na1  1  0.84148066  0.84147305  0.84104191  1
  Mn  Mn0  1  0.50000000  0.50000000  0.00000000  1
  Mn  Mn1  1  -0.00000000  0.50000000  0.50000000  1
  Mn  Mn2  1  0.50000000  -0.00000000  0.50000000  1
  Cl  Cl0  1  0.40491758  0.40493223  0.40483745  1
  Cl  Cl1  1  0.59508242  0.59506777  0.59516255  1
  Cl  Cl2  1  0.89824428  0.42161162  0.89879702  1
  Cl  Cl3  1  0.89855183  0.89853528  0.42152657  1
  Cl  Cl4  1  0.42160899  0.89823361  0.89880681  1
  Cl  Cl5  1  0.57839101  0.10176639  0.10119319  1
  Cl  Cl6  1  0.10175572  0.57838838  0.10120298  1
  Cl  Cl7  1  0.10144817  0.10146472  0.57847343  1
loop_
_geom_bond_atom_site_label_1
_geom_bond_atom_site_label_2
_geom_bond_distance
_geom_bond_site_symmetry_2
Cl0 Mn1 2.557532 1_555
Cl0 Mn2 2.557639 1_555
Cl0 Mn0 2.558631 1_555
Cl1 Mn1 2.557532 1_655
Cl1 Mn2 2.557639 1_565
Cl1 Mn0 2.558631 1_556
Cl2 Mn0 2.530657 1_556
Cl2 Mn1 2.535259 1_655
Cl2 Na0 2.800595 1_656
Cl2 Na1 2.853351 1_555
Cl3 Mn1 2.532285 1_655
Cl3 Mn2 2.532348 1_565
Cl3 Na0 2.795760 1_665
Cl3 Na1 2.853835 1_555
Cl4 Mn0 2.530621 1_556
Cl4 Mn2 2.535306 1_565
Cl4 Na0 2.800636 1_566
Cl4 Na1 2.853381 1_555
Cl5 Mn0 2.530621 1_555
Cl5 Mn2 2.535306 1_555
Cl5 Na1 2.800636 1_544
Cl5 Na0 2.853381 1_555
Cl6 Mn0 2.530657 1_555
Cl6 Mn1 2.535259 1_555
Cl6 Na1 2.800595 1_454
Cl6 Na0 2.853351 1_555
Cl7 Mn1 2.532285 1_555
Cl7 Mn2 2.532348 1_555
Cl7 Na1 2.795760 1_445
Cl7 Na0 2.853835 1_555
