# generated using pymatgen
data_MoP2O7
_symmetry_space_group_name_H-M   'P 1'
_cell_length_a   8.25485300
_cell_length_b   6.99672300
_cell_length_c   9.77255101
_cell_angle_alpha   71.17810475
_cell_angle_beta   90.00000000
_cell_angle_gamma   90.00000000
_symmetry_Int_Tables_number   1
_chemical_formula_structural   MoP2O7
_chemical_formula_sum   'Mo4 P8 O28'
_cell_volume   534.25000690
_cell_formula_units_Z   4
loop_
 _symmetry_equiv_pos_site_id
 _symmetry_equiv_pos_as_xyz
  1  'x, y, z'
loop_
 _atom_site_type_symbol
 _atom_site_label
 _atom_site_symmetry_multiplicity
 _atom_site_fract_x
 _atom_site_fract_y
 _atom_site_fract_z
 _atom_site_occupancy
  Mo  Mo0  1  0.72641100  0.72057900  0.49063000  1
  Mo  Mo1  1  0.77358900  0.72057900  0.99063000  1
  Mo  Mo2  1  0.27358900  0.27942100  0.50937000  1
  Mo  Mo3  1  0.22641100  0.27942100  0.00937000  1
  P  P0  1  0.59055000  0.45676400  0.29407500  1
  P  P1  1  0.96361400  0.93551000  0.20448700  1
  P  P2  1  0.90945000  0.45676400  0.79407500  1
  P  P3  1  0.03638600  0.06449000  0.79551300  1
  P  P4  1  0.53638600  0.93551000  0.70448700  1
  P  P5  1  0.40945000  0.54323600  0.70592500  1
  P  P6  1  0.46361400  0.06449000  0.29551300  1
  P  P7  1  0.09055000  0.54323600  0.20592500  1
  O  O0  1  0.92744500  0.53336100  0.13187300  1
  O  O1  1  0.44728100  0.13930100  0.65511500  1
  O  O2  1  0.09347200  0.41135600  0.36494400  1
  O  O3  1  0.10521800  0.77371400  0.20671700  1
  O  O4  1  0.10120000  0.10281100  0.64159600  1
  O  O5  1  0.59347200  0.58864400  0.13505600  1
  O  O6  1  0.67234600  0.92548300  0.60112700  1
  O  O7  1  0.60120000  0.89718900  0.85840400  1
  O  O8  1  0.89880000  0.89718900  0.35840400  1
  O  O9  1  0.76922300  0.50053400  0.88146900  1
  O  O10  1  0.23077700  0.49946600  0.11853100  1
  O  O11  1  0.17234600  0.07451700  0.89887300  1
  O  O12  1  0.39478200  0.77371400  0.70671700  1
  O  O13  1  0.05271900  0.13930100  0.15511500  1
  O  O14  1  0.40652800  0.41135600  0.86494400  1
  O  O15  1  0.39880000  0.10281100  0.14159600  1
  O  O16  1  0.73077700  0.50053400  0.38146900  1
  O  O17  1  0.32765400  0.07451700  0.39887300  1
  O  O18  1  0.82765400  0.92548300  0.10112700  1
  O  O19  1  0.57255500  0.53336100  0.63187300  1
  O  O20  1  0.07255500  0.46663900  0.86812700  1
  O  O21  1  0.55271900  0.86069900  0.34488500  1
  O  O22  1  0.94728100  0.86069900  0.84488500  1
  O  O23  1  0.89478200  0.22628600  0.79328300  1
  O  O24  1  0.60521800  0.22628600  0.29328300  1
  O  O25  1  0.26922300  0.49946600  0.61853100  1
  O  O26  1  0.42744500  0.46663900  0.36812700  1
  O  O27  1  0.90652800  0.58864400  0.63505600  1
loop_
_geom_bond_atom_site_label_1
_geom_bond_atom_site_label_2
_geom_bond_distance
_geom_bond_site_symmetry_2
Mo0 O19 2.016802 1_555
Mo0 O21 2.035819 1_555
Mo0 O8 2.047298 1_555
Mo0 O27 2.052854 1_555
Mo0 O6 2.102268 1_555
Mo0 O16 2.137626 1_555
Mo1 O0 2.016802 1_556
Mo1 O22 2.035819 1_555
Mo1 O7 2.047298 1_555
Mo1 O5 2.052854 1_556
Mo1 O18 2.102268 1_556
Mo1 O9 2.137626 1_555
Mo2 O26 2.016802 1_555
Mo2 O1 2.035819 1_555
Mo2 O4 2.047298 1_555
Mo2 O2 2.052854 1_555
Mo2 O17 2.102268 1_555
Mo2 O25 2.137626 1_555
Mo3 O20 2.016802 1_554
Mo3 O13 2.035819 1_555
Mo3 O15 2.047298 1_555
Mo3 O14 2.052854 1_554
Mo3 O11 2.102268 1_554
Mo3 O10 2.137626 1_555
O0 P7 1.540636 1_655
O1 P4 1.537211 1_545
O2 P7 1.530273 1_555
O3 P7 1.619637 1_555
O3 P1 1.622482 1_455
O4 P3 1.536365 1_555
O5 P0 1.530273 1_555
O6 P4 1.526616 1_555
O7 P4 1.536365 1_555
O8 P1 1.536365 1_555
O9 P2 1.527059 1_555
O10 P7 1.527059 1_555
O11 P3 1.526616 1_555
O12 P5 1.619637 1_555
O12 P4 1.622482 1_555
O13 P1 1.537211 1_445
O14 P5 1.530273 1_555
O15 P6 1.536365 1_555
O16 P0 1.527059 1_555
O17 P6 1.526616 1_555
O18 P1 1.526616 1_555
O19 P5 1.540636 1_555
O20 P2 1.540636 1_455
O21 P6 1.537211 1_565
O22 P3 1.537211 1_665
O23 P2 1.619637 1_555
O23 P3 1.622482 1_655
O24 P0 1.619637 1_555
O24 P6 1.622482 1_555
O25 P5 1.527059 1_555
O26 P0 1.540636 1_555
O27 P2 1.530273 1_555
