# generated using pymatgen
data_In6TeO12
_symmetry_space_group_name_H-M   'P 1'
_cell_length_a   6.24899096
_cell_length_b   6.24899096
_cell_length_c   6.24899014
_cell_angle_alpha   98.72083765
_cell_angle_beta   98.72083763
_cell_angle_gamma   98.72083547
_symmetry_Int_Tables_number   1
_chemical_formula_structural   In6TeO12
_chemical_formula_sum   'In6 Te1 O12'
_cell_volume   234.57426427
_cell_formula_units_Z   1
loop_
 _symmetry_equiv_pos_site_id
 _symmetry_equiv_pos_as_xyz
  1  'x, y, z'
loop_
 _atom_site_type_symbol
 _atom_site_label
 _atom_site_symmetry_multiplicity
 _atom_site_fract_x
 _atom_site_fract_y
 _atom_site_fract_z
 _atom_site_occupancy
  In  In0  1  0.85954749  0.39371142  0.68154021  1
  In  In1  1  0.14045251  0.60628858  0.31845979  1
  In  In2  1  0.60628858  0.31845979  0.14045251  1
  In  In3  1  0.39371142  0.68154021  0.85954749  1
  In  In4  1  0.68154021  0.85954749  0.39371142  1
  In  In5  1  0.31845979  0.14045251  0.60628858  1
  Te  Te0  1  0.00000000  0.00000000  -0.00000000  1
  O  O0  1  0.29962142  0.08648538  0.96002254  1
  O  O1  1  0.03997746  0.70037858  0.91351462  1
  O  O2  1  0.08648538  0.96002254  0.29962142  1
  O  O3  1  0.82449455  0.58113810  0.40488938  1
  O  O4  1  0.59511062  0.17550545  0.41886190  1
  O  O5  1  0.58113810  0.40488938  0.82449455  1
  O  O6  1  0.40488938  0.82449455  0.58113810  1
  O  O7  1  0.96002254  0.29962142  0.08648538  1
  O  O8  1  0.91351462  0.03997746  0.70037858  1
  O  O9  1  0.41886190  0.59511062  0.17550545  1
  O  O10  1  0.70037858  0.91351462  0.03997746  1
  O  O11  1  0.17550545  0.41886190  0.59511062  1
loop_
_geom_bond_atom_site_label_1
_geom_bond_atom_site_label_2
_geom_bond_distance
_geom_bond_site_symmetry_2
In0 O5 2.078207 1_555
In0 O11 2.114177 1_655
In0 O3 2.232808 1_555
In0 O1 2.247627 1_655
In0 O4 2.258285 1_555
In0 O8 2.303636 1_555
In0 O7 2.687875 1_556
In1 O9 2.078207 1_555
In1 O3 2.114177 1_455
In1 O11 2.232808 1_555
In1 O7 2.247627 1_455
In1 O6 2.258285 1_555
In1 O2 2.303636 1_555
In1 O1 2.687875 1_554
In2 O4 2.078207 1_555
In2 O5 2.114177 1_554
In2 O9 2.232808 1_555
In2 O0 2.247627 1_554
In2 O3 2.258285 1_555
In2 O7 2.303636 1_555
In2 O10 2.687876 1_545
In3 O6 2.078207 1_555
In3 O9 2.114177 1_556
In3 O5 2.232808 1_555
In3 O10 2.247627 1_556
In3 O11 2.258285 1_555
In3 O1 2.303636 1_555
In3 O0 2.687876 1_565
In4 O3 2.078208 1_555
In4 O4 2.114177 1_565
In4 O6 2.232808 1_555
In4 O8 2.247627 1_565
In4 O9 2.258285 1_555
In4 O10 2.303635 1_555
In4 O2 2.687876 1_655
In5 O11 2.078208 1_555
In5 O6 2.114177 1_545
In5 O4 2.232808 1_555
In5 O2 2.247627 1_545
In5 O5 2.258285 1_555
In5 O0 2.303635 1_555
In5 O8 2.687876 1_455
O0 Te0 1.932886 1_556
O1 Te0 1.932886 1_566
O2 Te0 1.932886 1_565
O7 Te0 1.932886 1_655
O8 Te0 1.932886 1_656
O10 Te0 1.932886 1_665
