# generated using pymatgen
data_MgZn(NiO2)4
_symmetry_space_group_name_H-M   'P 1'
_cell_length_a   5.93678516
_cell_length_b   6.02089795
_cell_length_c   5.93687753
_cell_angle_alpha   58.77605679
_cell_angle_beta   58.33443660
_cell_angle_gamma   58.77556486
_symmetry_Int_Tables_number   1
_chemical_formula_structural   MgZn(NiO2)4
_chemical_formula_sum   'Mg1 Zn1 Ni4 O8'
_cell_volume   145.34696096
_cell_formula_units_Z   1
loop_
 _symmetry_equiv_pos_site_id
 _symmetry_equiv_pos_as_xyz
  1  'x, y, z'
loop_
 _atom_site_type_symbol
 _atom_site_label
 _atom_site_symmetry_multiplicity
 _atom_site_fract_x
 _atom_site_fract_y
 _atom_site_fract_z
 _atom_site_occupancy
  Mg  Mg0  1  0.00000000  0.50000000  0.00000000  1
  Zn  Zn0  1  0.50000000  0.50000100  0.49999900  1
  Ni  Ni0  1  0.50000100  0.99999900  0.50000100  1
  Ni  Ni1  1  0.99999900  0.50000000  0.50000100  1
  Ni  Ni2  1  0.50000000  0.50000000  0.00000000  1
  Ni  Ni3  1  0.00000000  0.00000000  0.00000000  1
  O  O0  1  0.75320100  0.29277900  0.75320100  1
  O  O1  1  0.22421900  0.27323300  0.72724200  1
  O  O2  1  0.24679800  0.70722200  0.24679800  1
  O  O3  1  0.72725700  0.27323700  0.22420100  1
  O  O4  1  0.25167800  0.29264700  0.25167300  1
  O  O5  1  0.74832200  0.70735400  0.74832700  1
  O  O6  1  0.27274300  0.72676400  0.77579900  1
  O  O7  1  0.77578100  0.72676800  0.27275800  1
loop_
_geom_bond_atom_site_label_1
_geom_bond_atom_site_label_2
_geom_bond_distance
_geom_bond_site_symmetry_2
Mg0 O3 2.098269 1_455
Mg0 O6 2.098273 1_554
Mg0 O1 2.098352 1_554
Mg0 O7 2.098356 1_455
Mg0 O5 2.121228 1_454
Mg0 O4 2.121229 1_555
Ni0 O5 2.084965 1_555
Ni0 O4 2.084983 1_565
Ni0 O7 2.096772 1_555
Ni0 O1 2.096778 1_565
Ni0 O6 2.096855 1_555
Ni0 O3 2.096861 1_565
Ni1 O7 1.883521 1_555
Ni1 O1 1.883521 1_655
Ni1 O0 1.897754 1_555
Ni1 O2 1.897763 1_655
Ni1 O5 1.904240 1_555
Ni1 O4 1.904244 1_655
Ni2 O6 1.883508 1_554
Ni2 O3 1.883508 1_555
Ni2 O0 1.897759 1_554
Ni2 O2 1.897759 1_555
Ni2 O4 1.904217 1_555
Ni2 O5 1.904221 1_554
Ni3 O2 2.073491 1_545
Ni3 O0 2.073499 1_454
Ni3 O6 2.084614 1_544
Ni3 O3 2.084619 1_455
Ni3 O7 2.084673 1_445
Ni3 O1 2.084677 1_554
O0 Zn0 2.135292 1_555
O1 Zn0 2.110374 1_555
O2 Zn0 2.135292 1_555
O3 Zn0 2.110434 1_555
O6 Zn0 2.110439 1_555
O7 Zn0 2.110371 1_555
