# generated using pymatgen
data_Pb7(BrF6)2
_symmetry_space_group_name_H-M   'P 1'
_cell_length_a   10.33931960
_cell_length_b   10.33899947
_cell_length_c   4.00567685
_cell_angle_alpha   89.99999708
_cell_angle_beta   89.99999918
_cell_angle_gamma   120.00130934
_symmetry_Int_Tables_number   1
_chemical_formula_structural   Pb7(BrF6)2
_chemical_formula_sum   'Pb7 Br2 F12'
_cell_volume   370.82694682
_cell_formula_units_Z   1
loop_
 _symmetry_equiv_pos_site_id
 _symmetry_equiv_pos_as_xyz
  1  'x, y, z'
loop_
 _atom_site_type_symbol
 _atom_site_label
 _atom_site_symmetry_multiplicity
 _atom_site_fract_x
 _atom_site_fract_y
 _atom_site_fract_z
 _atom_site_occupancy
  Pb  Pb0  1  0.58998036  0.69082146  0.00000001  1
  Pb  Pb1  1  0.71290986  0.10637418  0.50000014  1
  Pb  Pb2  1  0.89361696  0.60654496  0.49999992  1
  Pb  Pb3  1  0.39347608  0.28708631  0.50000005  1
  Pb  Pb4  1  0.10085441  0.41004519  0.00000016  1
  Pb  Pb5  1  0.30917504  0.89913753  -0.00000015  1
  Pb  Pb6  1  0.00002180  0.00004366  -0.00000009  1
  Br  Br0  1  0.66664770  0.33333415  0.00000013  1
  Br  Br1  1  0.33333596  0.66664946  0.50000020  1
  F  F0  1  0.42587397  0.03985364  0.49999976  1
  F  F1  1  0.61397894  0.57411945  0.50000016  1
  F  F2  1  0.96014333  0.38601168  0.49999984  1
  F  F3  1  0.12609434  0.20576700  0.50000031  1
  F  F4  1  0.07967484  0.87389864  0.49999972  1
  F  F5  1  0.79422396  0.92032844  0.50000008  1
  F  F6  1  0.56730095  0.95009300  -0.00000010  1
  F  F7  1  0.04990494  0.61719792  0.00000011  1
  F  F8  1  0.38278946  0.43268925  -0.00000010  1
  F  F9  1  0.27609241  0.11589539  0.00000025  1
  F  F10  1  0.83980659  0.72391305  -0.00000025  1
  F  F11  1  0.88410009  0.16019363  -0.00000016  1
loop_
_geom_bond_atom_site_label_1
_geom_bond_atom_site_label_2
_geom_bond_distance
_geom_bond_site_symmetry_2
Br0 Pb3 3.296470 1_555
Br0 Pb3 3.296471 1_554
Br0 Pb2 3.296727 1_555
Br0 Pb2 3.296727 1_554
Br0 Pb1 3.296792 1_555
Br0 Pb1 3.296792 1_554
Br1 Pb4 3.232703 1_556
Br1 Pb4 3.232703 1_555
Br1 Pb0 3.232932 1_556
Br1 Pb0 3.232933 1_555
Br1 Pb5 3.232954 1_556
Br1 Pb5 3.232955 1_555
F0 Pb5 2.414198 1_545
F0 Pb5 2.414199 1_546
F0 Pb1 2.690615 1_555
F0 Pb3 2.739036 1_555
F1 Pb0 2.414160 1_556
F1 Pb0 2.414161 1_555
F1 Pb3 2.690454 1_555
F1 Pb2 2.739067 1_555
F2 Pb4 2.414164 1_655
F2 Pb4 2.414166 1_656
F2 Pb2 2.690788 1_555
F2 Pb1 2.739048 1_555
F3 Pb3 2.454623 1_555
F3 Pb6 2.731642 1_556
F3 Pb6 2.731644 1_555
F4 Pb2 2.454307 1_455
F4 Pb6 2.732163 1_565
F4 Pb6 2.732165 1_566
F5 Pb1 2.454388 1_565
F5 Pb6 2.732113 1_666
F5 Pb6 2.732114 1_665
F6 Pb5 2.448307 1_555
F6 Pb1 2.540865 1_564
F6 Pb1 2.540867 1_565
F7 Pb4 2.448037 1_555
F7 Pb2 2.540999 1_455
F7 Pb2 2.541000 1_454
F8 Pb0 2.448325 1_555
F8 Pb3 2.540886 1_554
F8 Pb3 2.540887 1_555
F9 Pb5 2.430213 1_545
F9 Pb6 2.482562 1_555
F9 Pb3 2.543391 1_555
F9 Pb3 2.543392 1_554
F10 Pb0 2.430090 1_555
F10 Pb6 2.482979 1_665
F10 Pb2 2.543336 1_554
F10 Pb2 2.543337 1_555
F11 Pb4 2.430235 1_655
F11 Pb6 2.482498 1_655
F11 Pb1 2.543407 1_554
F11 Pb1 2.543408 1_555
