# generated using pymatgen
data_MgTi8(NiO3)8
_symmetry_space_group_name_H-M   'P 1'
_cell_length_a   5.58181747
_cell_length_b   11.18698618
_cell_length_c   11.16794684
_cell_angle_alpha   54.05206347
_cell_angle_beta   54.19643930
_cell_angle_gamma   53.95020817
_symmetry_Int_Tables_number   1
_chemical_formula_structural   MgTi8(NiO3)8
_chemical_formula_sum   'Mg1 Ti8 Ni8 O24'
_cell_volume   424.78098921
_cell_formula_units_Z   1
loop_
 _symmetry_equiv_pos_site_id
 _symmetry_equiv_pos_as_xyz
  1  'x, y, z'
loop_
 _atom_site_type_symbol
 _atom_site_label
 _atom_site_symmetry_multiplicity
 _atom_site_fract_x
 _atom_site_fract_y
 _atom_site_fract_z
 _atom_site_occupancy
  Mg  Mg0  1  0.49452800  0.74864400  0.25062300  1
  Ti  Ti0  1  0.35435100  0.17900600  0.16944900  1
  Ti  Ti1  1  0.15612500  0.06728000  0.57438700  1
  Ti  Ti2  1  0.15461000  0.57161900  0.05665400  1
  Ti  Ti3  1  0.12563800  0.56790500  0.58654000  1
  Ti  Ti4  1  0.85437000  0.41642500  0.43647500  1
  Ti  Ti5  1  0.86094700  0.42059700  0.92604800  1
  Ti  Ti6  1  0.85453500  0.93883500  0.42387500  1
  Ti  Ti7  1  0.83253500  0.94029700  0.91805100  1
  Ni  Ni0  1  0.14402900  0.07497800  0.07102600  1
  Ni  Ni1  1  0.31300800  0.66881200  0.16476600  1
  Ni  Ni2  1  0.36069300  0.17036800  0.67587100  1
  Ni  Ni3  1  0.64116300  0.33200900  0.32374000  1
  Ni  Ni4  1  0.34687900  0.67658600  0.67028600  1
  Ni  Ni5  1  0.65146200  0.32440700  0.82205800  1
  Ni  Ni6  1  0.67943000  0.82913500  0.33468900  1
  Ni  Ni7  1  0.63999100  0.82312200  0.82822000  1
  O  O0  1  0.06070300  0.37672500  0.21316100  1
  O  O1  1  0.45115300  0.03663300  0.37050100  1
  O  O2  1  0.72966600  0.21996600  0.03334200  1
  O  O3  1  0.23213200  0.28260300  0.47291200  1
  O  O4  1  0.54204600  0.46991100  0.11429600  1
  O  O5  1  0.05761900  0.37564300  0.72335500  1
  O  O6  1  0.07654800  0.86766300  0.22738300  1
  O  O7  1  0.95168800  0.11978800  0.28596900  1
  O  O8  1  0.46210400  0.02059300  0.87503900  1
  O  O9  1  0.42850100  0.53559300  0.38022100  1
  O  O10  1  0.77294900  0.22388300  0.52378100  1
  O  O11  1  0.74104800  0.71320500  0.03980600  1
  O  O12  1  0.22986400  0.28203500  0.97705100  1
  O  O13  1  0.24831800  0.78467100  0.46233000  1
  O  O14  1  0.56115000  0.47208100  0.61503300  1
  O  O15  1  0.57488200  0.96184200  0.12385000  1
  O  O16  1  0.05949900  0.88442800  0.71420400  1
  O  O17  1  0.94802700  0.11519800  0.77952600  1
  O  O18  1  0.91367300  0.61852800  0.28292800  1
  O  O19  1  0.43945700  0.52649700  0.87595200  1
  O  O20  1  0.76258000  0.71983800  0.53502200  1
  O  O21  1  0.21947700  0.77623800  0.96577300  1
  O  O22  1  0.56351500  0.97238600  0.61640400  1
  O  O23  1  0.94960900  0.61426700  0.77965400  1
loop_
_geom_bond_atom_site_label_1
_geom_bond_atom_site_label_2
_geom_bond_distance
_geom_bond_site_symmetry_2
Mg0 O6 1.982429 1_555
Mg0 O18 2.021242 1_555
Mg0 O11 2.063279 1_555
Mg0 O9 2.066592 1_555
Mg0 O13 2.075177 1_555
Mg0 O15 2.108445 1_555
Ni0 O8 2.014570 1_554
Ni0 O6 2.018321 1_545
Ni0 O2 2.019768 1_455
Ni0 O12 2.135435 1_554
Ni0 O7 2.220418 1_455
Ni0 O15 2.221368 1_545
Ni1 O21 2.034436 1_554
Ni1 O4 2.045607 1_555
Ni1 O18 2.046709 1_455
Ni1 O6 2.114354 1_555
Ni1 O11 2.141098 1_555
Ni1 O9 2.213639 1_555
Ni2 O8 2.014061 1_555
Ni2 O5 2.055327 1_555
Ni2 O10 2.095976 1_555
Ni2 O22 2.127040 1_545
Ni2 O3 2.174921 1_555
Ni2 O17 2.177459 1_455
Ni3 O3 2.060937 1_555
Ni3 O7 2.072612 1_555
Ni3 O4 2.104772 1_555
Ni3 O0 2.128173 1_655
Ni3 O9 2.150029 1_555
Ni3 O10 2.167477 1_555
Ni4 O19 2.049722 1_555
Ni4 O16 2.061196 1_555
Ni4 O20 2.064536 1_555
Ni4 O23 2.132125 1_455
Ni4 O13 2.138537 1_555
Ni4 O14 2.149123 1_555
Ni5 O14 2.056164 1_555
Ni5 O17 2.066101 1_555
Ni5 O12 2.083848 1_555
Ni5 O19 2.118778 1_555
Ni5 O2 2.119285 1_556
Ni5 O5 2.132373 1_655
Ni6 O6 1.986306 1_655
Ni6 O20 2.012749 1_555
Ni6 O1 2.045583 1_565
Ni6 O15 2.138373 1_555
Ni6 O13 2.152434 1_555
Ni6 O18 2.164195 1_555
Ni7 O22 2.066670 1_555
Ni7 O8 2.075211 1_565
Ni7 O23 2.092509 1_555
Ni7 O21 2.104428 1_555
Ni7 O11 2.178431 1_556
Ni7 O16 2.225121 1_655
O0 Ti0 1.970233 1_555
O0 Ti2 1.970342 1_555
O0 Ti4 2.254171 1_455
O1 Ti1 1.969507 1_555
O1 Ti0 2.019416 1_555
O1 Ti6 2.127739 1_545
O2 Ti0 1.869632 1_555
O2 Ti5 2.182005 1_554
O3 Ti4 1.851021 1_455
O3 Ti1 2.168378 1_555
O4 Ti5 1.928776 1_554
O4 Ti2 2.063642 1_555
O5 Ti3 1.878489 1_555
O5 Ti5 2.088424 1_455
O6 Ti6 2.166432 1_455
O7 Ti6 1.848862 1_545
O7 Ti0 2.121836 1_655
O8 Ti7 1.944829 1_545
O9 Ti3 1.999717 1_555
O9 Ti4 2.203804 1_555
O10 Ti1 1.950589 1_655
O10 Ti4 1.991151 1_555
O11 Ti2 1.930770 1_655
O11 Ti7 2.285253 1_554
O12 Ti5 1.883202 1_455
O12 Ti0 2.079593 1_556
O13 Ti6 1.939920 1_455
O13 Ti3 2.273136 1_555
O14 Ti4 1.866188 1_555
O14 Ti3 2.144144 1_555
O15 Ti7 1.945218 1_554
O15 Ti0 2.208165 1_565
O16 Ti1 1.864511 1_565
O16 Ti7 2.131312 1_455
O17 Ti7 1.844181 1_545
O17 Ti1 2.116761 1_655
O18 Ti4 1.956167 1_555
O18 Ti2 2.284708 1_655
O19 Ti2 1.831018 1_556
O19 Ti5 2.175539 1_555
O20 Ti3 1.867816 1_655
O20 Ti6 2.229446 1_555
O21 Ti7 1.962190 1_455
O21 Ti2 2.053975 1_556
O22 Ti6 1.883116 1_555
O22 Ti1 2.083382 1_565
O23 Ti5 1.941236 1_555
O23 Ti3 2.029750 1_655
