# generated using pymatgen
data_Sm2MgCr2O8
_symmetry_space_group_name_H-M   'P 1'
_cell_length_a   6.17765841
_cell_length_b   6.17765973
_cell_length_c   6.27030398
_cell_angle_alpha   105.44071450
_cell_angle_beta   105.44071501
_cell_angle_gamma   116.80704983
_symmetry_Int_Tables_number   1
_chemical_formula_structural   Sm2MgCr2O8
_chemical_formula_sum   'Sm2 Mg1 Cr2 O8'
_cell_volume   183.94822524
_cell_formula_units_Z   1
loop_
 _symmetry_equiv_pos_site_id
 _symmetry_equiv_pos_as_xyz
  1  'x, y, z'
loop_
 _atom_site_type_symbol
 _atom_site_label
 _atom_site_symmetry_multiplicity
 _atom_site_fract_x
 _atom_site_fract_y
 _atom_site_fract_z
 _atom_site_occupancy
  Sm  Sm0  1  0.40227000  0.59773000  0.75000000  1
  Sm  Sm1  1  0.62664700  0.37335500  0.25000100  1
  Mg  Mg0  1  0.11273700  0.88726300  0.75000000  1
  Cr  Cr0  1  0.85302800  0.14697400  0.75000000  1
  Cr  Cr1  1  0.12604100  0.87395900  0.25000000  1
  O  O0  1  0.31022800  0.23357000  0.42231900  1
  O  O1  1  0.88486500  0.34294500  0.58579300  1
  O  O2  1  0.21691600  0.26769400  0.90599400  1
  O  O3  1  0.28906300  0.86300200  0.04810300  1
  O  O4  1  0.13699900  0.71093700  0.45189600  1
  O  O5  1  0.73230600  0.78308500  0.59400700  1
  O  O6  1  0.76643000  0.68977200  0.07768000  1
  O  O7  1  0.65705500  0.11513500  0.91420800  1
loop_
_geom_bond_atom_site_label_1
_geom_bond_atom_site_label_2
_geom_bond_distance
_geom_bond_site_symmetry_2
Mg0 O3 1.978672 1_556
Mg0 O4 1.978681 1_555
Mg0 O2 1.992669 1_565
Mg0 O5 1.992670 1_455
Mg0 O7 2.732029 1_565
Mg0 O1 2.732031 1_455
Cr0 O1 1.766714 1_555
Cr0 O7 1.766728 1_555
Cr0 O2 1.869470 1_655
Cr0 O5 1.869472 1_545
Cr1 O0 1.784560 1_565
Cr1 O6 1.784560 1_455
Cr1 O4 1.821040 1_555
Cr1 O3 1.821044 1_555
O0 Sm0 2.317055 1_555
O0 Sm1 2.415173 1_555
O1 Sm1 2.388637 1_555
O1 Sm0 2.569242 1_655
O2 Sm0 2.444861 1_555
O2 Sm1 2.517634 1_556
O3 Sm1 2.535798 1_565
O3 Sm0 2.601394 1_554
O4 Sm1 2.535793 1_455
O4 Sm0 2.601395 1_555
O5 Sm0 2.444857 1_555
O5 Sm1 2.517633 1_555
O6 Sm0 2.317051 1_554
O6 Sm1 2.415176 1_555
O7 Sm1 2.388640 1_556
O7 Sm0 2.569242 1_545
