# generated using pymatgen
data_MgCo6(OF)6
_symmetry_space_group_name_H-M   'P 1'
_cell_length_a   5.01816546
_cell_length_b   4.96358789
_cell_length_c   8.71560519
_cell_angle_alpha   90.00712495
_cell_angle_beta   90.00832296
_cell_angle_gamma   80.68364791
_symmetry_Int_Tables_number   1
_chemical_formula_structural   MgCo6(OF)6
_chemical_formula_sum   'Mg1 Co6 O6 F6'
_cell_volume   214.22570497
_cell_formula_units_Z   1
loop_
 _symmetry_equiv_pos_site_id
 _symmetry_equiv_pos_as_xyz
  1  'x, y, z'
loop_
 _atom_site_type_symbol
 _atom_site_label
 _atom_site_symmetry_multiplicity
 _atom_site_fract_x
 _atom_site_fract_y
 _atom_site_fract_z
 _atom_site_occupancy
  Mg  Mg0  1  0.44795642  0.98135864  0.17041435  1
  Co  Co0  1  0.91864052  0.92804527  0.98206804  1
  Co  Co1  1  0.91876239  0.92802437  0.35853759  1
  Co  Co2  1  0.12968209  0.08671146  0.67029811  1
  Co  Co3  1  0.54258049  0.46482679  0.17032968  1
  Co  Co4  1  0.49036882  0.53934047  0.83568585  1
  Co  Co5  1  0.49032568  0.53930848  0.50491542  1
  O  O0  1  0.20732415  0.83451535  0.83667573  1
  O  O1  1  0.20748131  0.83461750  0.50392582  1
  O  O2  1  0.32756309  0.36401853  0.67027025  1
  O  O3  1  0.64778920  0.68417890  0.01396781  1
  O  O4  1  0.64784178  0.68405937  0.32665038  1
  O  O5  1  0.80640519  0.14694698  0.17032625  1
  F  F0  1  0.18819771  0.73328539  0.17025175  1
  F  F1  1  0.35733242  0.27817897  0.32406314  1
  F  F2  1  0.35734534  0.27786428  0.01653402  1
  F  F3  1  0.68237009  0.72207912  0.67030001  1
  F  F4  1  0.80898504  0.23633236  0.82770755  1
  F  F5  1  0.80915927  0.23630878  0.51279725  1
loop_
_geom_bond_atom_site_label_1
_geom_bond_atom_site_label_2
_geom_bond_distance
_geom_bond_site_symmetry_2
Mg0 O5 2.095168 1_565
Mg0 O4 2.135134 1_555
Mg0 O3 2.135797 1_555
Co0 O0 1.924197 1_655
Co0 O3 1.980586 1_556
Co0 O5 1.997909 1_566
Co0 F4 2.044985 1_565
Co0 F0 2.242919 1_656
Co1 O1 1.924026 1_655
Co1 O4 1.981100 1_555
Co1 O5 1.997832 1_565
Co1 F5 2.044214 1_565
Co1 F0 2.243321 1_655
Co2 O2 1.822954 1_555
Co2 O1 1.913713 1_545
Co2 O0 1.914135 1_545
Co2 F5 2.153068 1_455
Co2 F4 2.153372 1_455
Co3 O4 1.872135 1_555
Co3 O3 1.872978 1_555
Co3 O5 1.888374 1_555
Co3 F1 1.948654 1_555
Co3 F2 1.949510 1_555
Co3 F0 2.042279 1_555
Co4 O0 1.868244 1_555
Co4 O2 1.932042 1_555
Co4 O3 1.933527 1_556
Co4 F4 2.011141 1_555
Co4 F3 2.027921 1_555
Co4 F2 2.212639 1_556
Co5 O1 1.868048 1_555
Co5 O2 1.931795 1_555
Co5 O4 1.933772 1_555
Co5 F5 2.011818 1_555
Co5 F3 2.027756 1_555
Co5 F1 2.211143 1_555
F0 Mg0 1.932614 1_555
F1 Mg0 1.988333 1_545
F2 Mg0 1.988745 1_545
