# generated using pymatgen
data_Na6Ca4Ta2Si3(SO6)6
_symmetry_space_group_name_H-M   'P 1'
_cell_length_a   9.17522697
_cell_length_b   9.17522665
_cell_length_c   23.30045834
_cell_angle_alpha   90.00000000
_cell_angle_beta   90.00000000
_cell_angle_gamma   120.00000119
_symmetry_Int_Tables_number   1
_chemical_formula_structural   Na6Ca4Ta2Si3(SO6)6
_chemical_formula_sum   'Na12 Ca8 Ta4 Si6 S12 O72'
_cell_volume   1698.74702073
_cell_formula_units_Z   2
loop_
 _symmetry_equiv_pos_site_id
 _symmetry_equiv_pos_as_xyz
  1  'x, y, z'
loop_
 _atom_site_type_symbol
 _atom_site_label
 _atom_site_symmetry_multiplicity
 _atom_site_fract_x
 _atom_site_fract_y
 _atom_site_fract_z
 _atom_site_occupancy
  Na  Na0  1  0.00239337  0.69908720  0.91987262  1
  Na  Na1  1  0.69669284  0.99760663  0.91987262  1
  Na  Na2  1  0.30091280  0.30330716  0.91987262  1
  Na  Na3  1  0.00239337  0.30330716  0.41987262  1
  Na  Na4  1  0.30091280  0.99760663  0.41987262  1
  Na  Na5  1  0.69669284  0.69908720  0.41987262  1
  Na  Na6  1  0.00000000  0.00000000  0.49510008  1
  Na  Na7  1  0.00000000  0.00000000  0.99510008  1
  Na  Na8  1  0.66666700  0.33333300  0.82405962  1
  Na  Na9  1  0.66666700  0.33333300  0.32405962  1
  Na  Na10  1  0.33333300  0.66666700  0.16653063  1
  Na  Na11  1  0.33333300  0.66666700  0.66653063  1
  Ca  Ca0  1  0.00000000  0.00000000  0.34417687  1
  Ca  Ca1  1  0.00000000  0.00000000  0.84417687  1
  Ca  Ca2  1  0.00000000  0.00000000  0.64742808  1
  Ca  Ca3  1  0.00000000  0.00000000  0.14742808  1
  Ca  Ca4  1  0.66666700  0.33333300  0.68733970  1
  Ca  Ca5  1  0.66666700  0.33333300  0.18733970  1
  Ca  Ca6  1  0.33333300  0.66666700  0.01764754  1
  Ca  Ca7  1  0.33333300  0.66666700  0.51764754  1
  Ta  Ta0  1  0.66666700  0.33333300  0.97586217  1
  Ta  Ta1  1  0.66666700  0.33333300  0.47586217  1
  Ta  Ta2  1  0.33333300  0.66666700  0.32347843  1
  Ta  Ta3  1  0.33333300  0.66666700  0.82347843  1
  Si  Si0  1  0.62934722  0.66418996  0.91888565  1
  Si  Si1  1  0.03484174  0.37065278  0.91888565  1
  Si  Si2  1  0.33581004  0.96515826  0.91888565  1
  Si  Si3  1  0.62934722  0.96515826  0.41888565  1
  Si  Si4  1  0.33581004  0.37065278  0.41888565  1
  Si  Si5  1  0.03484174  0.66418996  0.41888565  1
  S  S0  1  0.30780552  0.98178945  0.25449684  1
  S  S1  1  0.67398393  0.69219448  0.25449684  1
  S  S2  1  0.01821055  0.32601607  0.25449684  1
  S  S3  1  0.30780552  0.32601607  0.75449684  1
  S  S4  1  0.01821055  0.69219448  0.75449684  1
  S  S5  1  0.67398393  0.98178945  0.75449684  1
  S  S6  1  0.94771493  0.32231278  0.58026288  1
  S  S7  1  0.37459884  0.05228507  0.58026288  1
  S  S8  1  0.67768722  0.62540116  0.58026288  1
  S  S9  1  0.94771493  0.62540116  0.08026288  1
  S  S10  1  0.67768722  0.05228507  0.08026288  1
  S  S11  1  0.37459884  0.32231278  0.08026288  1
  O  O0  1  0.23340117  0.99699836  0.30864674  1
  O  O1  1  0.76359719  0.76659883  0.30864674  1
  O  O2  1  0.00300164  0.23640281  0.30864674  1
  O  O3  1  0.23340117  0.23640281  0.80864674  1
  O  O4  1  0.00300164  0.76659883  0.80864674  1
  O  O5  1  0.76359719  0.99699836  0.80864674  1
  O  O6  1  0.76325602  0.96749121  0.70404492  1
  O  O7  1  0.20423519  0.23674398  0.70404492  1
  O  O8  1  0.03250879  0.79576481  0.70404492  1
  O  O9  1  0.76325602  0.79576481  0.20404492  1
  O  O10  1  0.03250879  0.23674398  0.20404492  1
  O  O11  1  0.20423519  0.96749121  0.20404492  1
  O  O12  1  0.85520279  0.31816064  0.63162396  1
  O  O13  1  0.46295884  0.14479721  0.63162396  1
  O  O14  1  0.68183936  0.53704116  0.63162396  1
  O  O15  1  0.85520279  0.53704116  0.13162396  1
  O  O16  1  0.68183936  0.14479721  0.13162396  1
  O  O17  1  0.46295884  0.31816064  0.13162396  1
  O  O18  1  0.47734914  0.32332438  0.02694421  1
  O  O19  1  0.84597624  0.52265086  0.02694421  1
  O  O20  1  0.67667562  0.15402376  0.02694421  1
  O  O21  1  0.47734914  0.15402376  0.52694421  1
  O  O22  1  0.67667562  0.52265086  0.52694421  1
  O  O23  1  0.84597624  0.32332438  0.52694421  1
  O  O24  1  0.56588852  0.72834475  0.97110008  1
  O  O25  1  0.16245523  0.43411148  0.97110008  1
  O  O26  1  0.27165525  0.83754477  0.97110008  1
  O  O27  1  0.56588852  0.83754477  0.47110008  1
  O  O28  1  0.27165525  0.43411148  0.47110008  1
  O  O29  1  0.16245523  0.72834475  0.47110008  1
  O  O30  1  0.13523426  0.62572146  0.36337225  1
  O  O31  1  0.49048620  0.86476574  0.36337225  1
  O  O32  1  0.37427854  0.50951380  0.36337225  1
  O  O33  1  0.13523426  0.50951380  0.86337225  1
  O  O34  1  0.37427854  0.86476574  0.86337225  1
  O  O35  1  0.49048620  0.62572146  0.86337225  1
  O  O36  1  0.97651095  0.79767442  0.40428231  1
  O  O37  1  0.82116348  0.02348905  0.40428231  1
  O  O38  1  0.20232558  0.17883652  0.40428231  1
  O  O39  1  0.97651095  0.17883652  0.90428231  1
  O  O40  1  0.20232558  0.02348905  0.90428231  1
  O  O41  1  0.82116348  0.79767442  0.90428231  1
  O  O42  1  0.95818536  0.16693480  0.57479232  1
  O  O43  1  0.20874944  0.04181464  0.57479232  1
  O  O44  1  0.83306520  0.79125056  0.57479232  1
  O  O45  1  0.95818536  0.79125056  0.07479232  1
  O  O46  1  0.83306520  0.04181464  0.07479232  1
  O  O47  1  0.20874944  0.16693480  0.07479232  1
  O  O48  1  0.64185101  0.12454460  0.75022175  1
  O  O49  1  0.48269459  0.35814899  0.75022175  1
  O  O50  1  0.87545540  0.51730541  0.75022175  1
  O  O51  1  0.64185101  0.51730541  0.25022175  1
  O  O52  1  0.87545540  0.35814899  0.25022175  1
  O  O53  1  0.48269459  0.12454460  0.25022175  1
  O  O54  1  0.61500885  0.47367418  0.92708659  1
  O  O55  1  0.85866633  0.38499115  0.92708659  1
  O  O56  1  0.52632582  0.14133367  0.92708659  1
  O  O57  1  0.61500885  0.14133367  0.42708659  1
  O  O58  1  0.52632582  0.38499115  0.42708659  1
  O  O59  1  0.85866633  0.47367418  0.42708659  1
  O  O60  1  0.36175542  0.47545136  0.08004479  1
  O  O61  1  0.11369493  0.63824458  0.08004479  1
  O  O62  1  0.52454864  0.88630507  0.08004479  1
  O  O63  1  0.36175542  0.88630507  0.58004479  1
  O  O64  1  0.52454864  0.63824458  0.58004479  1
  O  O65  1  0.11369493  0.47545136  0.58004479  1
  O  O66  1  0.31594444  0.82017025  0.25711472  1
  O  O67  1  0.50422482  0.68405556  0.25711472  1
  O  O68  1  0.17982975  0.49577518  0.25711472  1
  O  O69  1  0.31594444  0.49577518  0.75711472  1
  O  O70  1  0.17982975  0.68405556  0.75711472  1
  O  O71  1  0.50422482  0.82017025  0.75711472  1
loop_
_geom_bond_atom_site_label_1
_geom_bond_atom_site_label_2
_geom_bond_distance
_geom_bond_site_symmetry_2
Na0 O41 2.284579 1_455
Na0 O26 2.450233 1_555
Na0 O55 2.504439 1_455
Na0 O40 2.626080 1_565
Na0 O4 2.663970 1_555
Na0 O33 2.892091 1_555
Na0 O19 2.929361 1_456
Na1 O39 2.284586 1_565
Na1 O24 2.450233 1_555
Na1 O56 2.504423 1_565
Na1 O41 2.626087 1_555
Na1 O5 2.663972 1_555
Na1 O34 2.892091 1_555
Na1 O20 2.929355 1_566
Na2 O40 2.284587 1_555
Na2 O25 2.450233 1_555
Na2 O54 2.504438 1_555
Na2 O39 2.626079 1_455
Na2 O3 2.663971 1_555
Na2 O35 2.892091 1_555
Na2 O18 2.929365 1_556
Na3 O37 2.284586 1_455
Na3 O28 2.450233 1_555
Na3 O59 2.504423 1_455
Na3 O38 2.626087 1_555
Na3 O2 2.663972 1_555
Na3 O30 2.892091 1_555
Na3 O23 2.929355 1_455
Na4 O38 2.284579 1_565
Na4 O29 2.450233 1_555
Na4 O57 2.504439 1_565
Na4 O36 2.626080 1_455
Na4 O0 2.663970 1_555
Na4 O31 2.892091 1_555
Na4 O21 2.929361 1_565
Na5 O36 2.284588 1_555
Na5 O27 2.450233 1_555
Na5 O58 2.504438 1_555
Na5 O37 2.626079 1_565
Na5 O1 2.663971 1_555
Na5 O32 2.892091 1_555
Na5 O22 2.929365 1_555
Na6 O44 2.555147 1_445
Na6 O42 2.555147 1_455
Na6 O43 2.555147 1_555
Na6 O37 2.751433 1_455
Na6 O38 2.751433 1_555
Na6 O36 2.751433 1_445
Na7 O45 2.555147 1_446
Na7 O47 2.555147 1_556
Na7 O46 2.555147 1_456
Na7 O39 2.751433 1_455
Na7 O41 2.751433 1_445
Na7 O40 2.751433 1_555
Na8 O48 2.499092 1_555
Na8 O50 2.499092 1_555
Na8 O49 2.499092 1_555
Na8 O56 2.873292 1_555
Na8 O54 2.873292 1_555
Na8 O55 2.873292 1_555
Na9 O53 2.499092 1_555
Na9 O51 2.499092 1_555
Na9 O52 2.499092 1_555
Na9 O57 2.873292 1_555
Na9 O59 2.873292 1_555
Na9 O58 2.873292 1_555
Na10 O66 2.586247 1_555
Na10 O68 2.586247 1_555
Na10 O67 2.586247 1_555
Na10 O60 2.768481 1_555
Na10 O62 2.768481 1_555
Na10 O61 2.768481 1_555
Na11 O70 2.586247 1_555
Na11 O71 2.586247 1_555
Na11 O69 2.586247 1_555
Na11 O65 2.768481 1_555
Na11 O64 2.768481 1_555
Na11 O63 2.768481 1_555
Ca0 O37 2.248083 1_455
Ca0 O38 2.248083 1_555
Ca0 O36 2.248083 1_445
Ca0 O2 2.308931 1_555
Ca0 O1 2.308931 1_445
Ca0 O0 2.308931 1_545
Ca1 O39 2.248083 1_455
Ca1 O41 2.248083 1_445
Ca1 O40 2.248084 1_555
Ca1 O3 2.308931 1_555
Ca1 O4 2.308931 1_545
Ca1 O5 2.308931 1_445
Ca2 O7 2.428932 1_555
Ca2 O8 2.428932 1_545
Ca2 O6 2.428932 1_445
Ca2 O44 2.438279 1_445
Ca2 O42 2.438279 1_455
Ca2 O43 2.438279 1_555
Ca3 O10 2.428932 1_555
Ca3 O9 2.428932 1_445
Ca3 O11 2.428932 1_545
Ca3 O45 2.438279 1_445
Ca3 O47 2.438279 1_555
Ca3 O46 2.438279 1_455
Ca4 O13 2.222146 1_555
Ca4 O12 2.222146 1_555
Ca4 O14 2.222146 1_555
Ca4 O48 2.330718 1_555
Ca4 O50 2.330718 1_555
Ca4 O49 2.330718 1_555
Ca5 O16 2.222146 1_555
Ca5 O15 2.222146 1_555
Ca5 O17 2.222146 1_555
Ca5 O53 2.330718 1_555
Ca5 O51 2.330718 1_555
Ca5 O52 2.330718 1_555
Ca6 O25 2.200441 1_554
Ca6 O26 2.200441 1_554
Ca6 O24 2.200441 1_554
Ca6 O60 2.391108 1_555
Ca6 O62 2.391108 1_555
Ca6 O61 2.391109 1_555
Ca7 O28 2.200441 1_555
Ca7 O27 2.200441 1_555
Ca7 O29 2.200441 1_555
Ca7 O65 2.391109 1_555
Ca7 O64 2.391109 1_555
Ca7 O63 2.391109 1_555
O0 S0 1.474013 1_555
O1 S1 1.474013 1_555
O2 S2 1.474013 1_555
O3 S3 1.474013 1_555
O4 S4 1.474013 1_555
O5 S5 1.474013 1_555
O6 S5 1.475636 1_555
O7 S3 1.475636 1_555
O8 S4 1.475636 1_555
O9 S1 1.475636 1_555
O10 S2 1.475636 1_555
O11 S0 1.475636 1_555
O12 S6 1.456636 1_555
O13 S7 1.456636 1_555
O14 S8 1.456636 1_555
O15 S9 1.456636 1_555
O16 S10 1.456636 1_555
O17 S11 1.456636 1_555
O18 S11 1.556779 1_555
O18 Ta0 2.069509 1_554
O19 S9 1.556778 1_555
O19 Ta0 2.069509 1_554
O20 S10 1.556778 1_555
O20 Ta0 2.069509 1_554
O21 S7 1.556778 1_555
O21 Ta1 2.069509 1_555
O22 S8 1.556778 1_555
O22 Ta1 2.069509 1_555
O23 S6 1.556778 1_555
O23 Ta1 2.069509 1_555
O24 Si0 1.583793 1_555
O25 Si1 1.583793 1_555
O26 Si2 1.583793 1_555
O27 Si3 1.583793 1_555
O28 Si4 1.583793 1_555
O29 Si5 1.583793 1_555
O30 Si5 1.723739 1_555
O30 Ta2 1.904211 1_555
O31 Si3 1.723739 1_555
O31 Ta2 1.904211 1_555
O32 Si4 1.723739 1_555
O32 Ta2 1.904211 1_555
O33 Si1 1.723739 1_555
O33 Ta3 1.904211 1_555
O34 Si2 1.723739 1_555
O34 Ta3 1.904211 1_555
O35 Si0 1.723739 1_555
O35 Ta3 1.904211 1_555
O36 Si5 1.599286 1_655
O37 Si3 1.599294 1_545
O38 Si4 1.599292 1_555
O39 Si1 1.599294 1_655
O40 Si2 1.599286 1_545
O41 Si0 1.599292 1_555
O42 S6 1.481503 1_555
O43 S7 1.481512 1_555
O44 S8 1.481508 1_555
O45 S9 1.481512 1_555
O46 S10 1.481503 1_555
O47 S11 1.481508 1_555
O48 S5 1.482773 1_545
O49 S3 1.482783 1_555
O50 S4 1.482779 1_655
O51 S1 1.482782 1_555
O52 S2 1.482774 1_655
O53 S0 1.482779 1_545
O54 Si0 1.696894 1_555
O54 Ta0 1.945421 1_555
O55 Si1 1.696875 1_655
O55 Ta0 1.945421 1_555
O56 Si2 1.696886 1_545
O56 Ta0 1.945421 1_555
O57 Si3 1.696875 1_545
O57 Ta1 1.945421 1_555
O58 Si4 1.696894 1_555
O58 Ta1 1.945421 1_555
O59 Si5 1.696886 1_655
O59 Ta1 1.945421 1_555
O60 S11 1.467563 1_555
O61 S9 1.467545 1_455
O62 S10 1.467553 1_565
O63 S7 1.467545 1_565
O64 S8 1.467563 1_555
O65 S6 1.467553 1_455
O66 S0 1.522828 1_555
O66 Ta2 2.150555 1_555
O67 S1 1.522837 1_555
O67 Ta2 2.150555 1_555
O68 S2 1.522833 1_555
O68 Ta2 2.150555 1_555
O69 S3 1.522837 1_555
O69 Ta3 2.150555 1_555
O70 S4 1.522828 1_555
O70 Ta3 2.150555 1_555
O71 S5 1.522833 1_555
O71 Ta3 2.150555 1_555
