# generated using pymatgen
data_MgV4O5F7
_symmetry_space_group_name_H-M   'P 1'
_cell_length_a   5.10030376
_cell_length_b   5.57377217
_cell_length_c   9.05296381
_cell_angle_alpha   72.43941010
_cell_angle_beta   90.51863867
_cell_angle_gamma   61.63795676
_symmetry_Int_Tables_number   1
_chemical_formula_structural   MgV4O5F7
_chemical_formula_sum   'Mg1 V4 O5 F7'
_cell_volume   212.31995426
_cell_formula_units_Z   1
loop_
 _symmetry_equiv_pos_site_id
 _symmetry_equiv_pos_as_xyz
  1  'x, y, z'
loop_
 _atom_site_type_symbol
 _atom_site_label
 _atom_site_symmetry_multiplicity
 _atom_site_fract_x
 _atom_site_fract_y
 _atom_site_fract_z
 _atom_site_occupancy
  Mg  Mg0  1  0.55305700  0.88774000  0.85563700  1
  V  V0  1  0.71800700  0.47505200  0.25700700  1
  V  V1  1  0.46329800  0.00450300  0.49348000  1
  V  V2  1  0.27599300  0.51825000  0.74285800  1
  V  V3  1  0.99959200  0.99201500  0.01631900  1
  O  O0  1  0.41730300  0.75885400  0.06170300  1
  O  O1  1  0.44557200  0.75869200  0.69249100  1
  O  O2  1  0.58227000  0.25016800  0.32557800  1
  O  O3  1  0.61470200  0.20545900  0.91816600  1
  O  O4  1  0.09144200  0.23768000  0.41786900  1
  F  F0  1  0.92396100  0.75455400  0.56977200  1
  F  F1  1  0.92454600  0.73829900  0.18551900  1
  F  F2  1  0.96843400  0.26350300  0.11881300  1
  F  F3  1  0.51980400  0.73405200  0.38009300  1
  F  F4  1  0.50177000  0.21503000  0.63428700  1
  F  F5  1  0.00403500  0.72884300  0.88416700  1
  F  F6  1  0.10871300  0.22730400  0.82481100  1
loop_
_geom_bond_atom_site_label_1
_geom_bond_atom_site_label_2
_geom_bond_distance
_geom_bond_site_symmetry_2
Mg0 O1 2.000081 1_555
Mg0 O0 2.040309 1_556
Mg0 O3 2.164724 1_565
O0 V3 1.851490 1_455
O0 V0 1.984641 1_555
O1 V2 1.868603 1_555
O1 V1 1.939680 1_565
O2 V0 1.672864 1_555
O2 V1 2.025765 1_555
O3 V3 1.780502 1_546
O3 V2 1.990446 1_555
O4 V1 1.688930 1_555
O4 V0 1.972774 1_455
F0 V2 1.967410 1_655
F0 V1 2.053849 1_565
F1 V3 1.926237 1_555
F1 V0 2.142253 1_555
F2 V3 1.948711 1_545
F2 V0 2.018687 1_555
F3 V1 1.983788 1_565
F3 V0 1.987999 1_555
F4 V1 2.038917 1_555
F4 V2 2.079018 1_555
F4 Mg0 2.177859 1_545
F5 Mg0 2.014311 1_455
F5 V2 2.080780 1_555
F5 V3 2.147407 1_456
F6 V3 2.091490 1_446
F6 Mg0 2.095406 1_545
F6 V2 2.123232 1_555
