# generated using pymatgen
data_Ca2Ge7O16
_symmetry_space_group_name_H-M   'P 1'
_cell_length_a   11.38482682
_cell_length_b   11.38482682
_cell_length_c   4.65824744
_cell_angle_alpha   90.00000000
_cell_angle_beta   90.00000000
_cell_angle_gamma   90.00000000
_symmetry_Int_Tables_number   1
_chemical_formula_structural   Ca2Ge7O16
_chemical_formula_sum   'Ca4 Ge14 O32'
_cell_volume   603.77539602
_cell_formula_units_Z   2
loop_
 _symmetry_equiv_pos_site_id
 _symmetry_equiv_pos_as_xyz
  1  'x, y, z'
loop_
 _atom_site_type_symbol
 _atom_site_label
 _atom_site_symmetry_multiplicity
 _atom_site_fract_x
 _atom_site_fract_y
 _atom_site_fract_z
 _atom_site_occupancy
  Ca  Ca0  1  0.83502270  0.33502270  0.50000000  1
  Ca  Ca1  1  0.16497730  0.66497730  0.50000000  1
  Ca  Ca2  1  0.33502270  0.16497730  0.50000000  1
  Ca  Ca3  1  0.66497730  0.83502270  0.50000000  1
  Ge  Ge0  1  0.56596172  0.31211796  0.98997954  1
  Ge  Ge1  1  0.43403828  0.68788204  0.98997954  1
  Ge  Ge2  1  0.06596172  0.18788204  0.98997954  1
  Ge  Ge3  1  0.93403828  0.81211796  0.98997954  1
  Ge  Ge4  1  0.81211796  0.06596172  0.01002046  1
  Ge  Ge5  1  0.18788204  0.93403828  0.01002046  1
  Ge  Ge6  1  0.31211796  0.43403828  0.01002046  1
  Ge  Ge7  1  0.68788204  0.56596172  0.01002046  1
  Ge  Ge8  1  0.63350152  0.13350152  0.50000000  1
  Ge  Ge9  1  0.36649848  0.86649848  0.50000000  1
  Ge  Ge10  1  0.13350152  0.36649848  0.50000000  1
  Ge  Ge11  1  0.86649848  0.63350152  0.50000000  1
  Ge  Ge12  1  0.50000000  -0.00000000  -0.00000000  1
  Ge  Ge13  1  -0.00000000  0.50000000  -0.00000000  1
  O  O0  1  0.64003517  0.43163960  0.16148332  1
  O  O1  1  0.35996483  0.56836040  0.16148332  1
  O  O2  1  0.14003517  0.06836040  0.16148332  1
  O  O3  1  0.85996483  0.93163960  0.16148332  1
  O  O4  1  0.93163960  0.14003517  0.83851668  1
  O  O5  1  0.06836040  0.85996483  0.83851668  1
  O  O6  1  0.43163960  0.35996483  0.83851668  1
  O  O7  1  0.56836040  0.64003517  0.83851668  1
  O  O8  1  0.52741703  0.21917828  0.27620879  1
  O  O9  1  0.47258297  0.78082172  0.27620879  1
  O  O10  1  0.02741703  0.28082172  0.27620879  1
  O  O11  1  0.97258297  0.71917828  0.27620879  1
  O  O12  1  0.50112498  0.11682023  0.75226401  1
  O  O13  1  0.49887502  0.88317977  0.75226401  1
  O  O14  1  0.00112498  0.38317977  0.75226401  1
  O  O15  1  0.99887502  0.61682023  0.75226401  1
  O  O16  1  0.66971061  0.26544470  0.73142992  1
  O  O17  1  0.33028939  0.73455530  0.73142992  1
  O  O18  1  0.88317977  0.50112498  0.24773599  1
  O  O19  1  0.11682023  0.49887502  0.24773599  1
  O  O20  1  0.38317977  0.99887502  0.24773599  1
  O  O21  1  0.61682023  0.00112498  0.24773599  1
  O  O22  1  0.78082172  0.52741703  0.72379121  1
  O  O23  1  0.21917828  0.47258297  0.72379121  1
  O  O24  1  0.28082172  0.97258297  0.72379121  1
  O  O25  1  0.71917828  0.02741703  0.72379121  1
  O  O26  1  0.73455530  0.66971061  0.26857008  1
  O  O27  1  0.26544470  0.33028939  0.26857008  1
  O  O28  1  0.23455530  0.83028939  0.26857008  1
  O  O29  1  0.76544470  0.16971061  0.26857008  1
  O  O30  1  0.83028939  0.76544470  0.73142992  1
  O  O31  1  0.16971061  0.23455530  0.73142992  1
loop_
_geom_bond_atom_site_label_1
_geom_bond_atom_site_label_2
_geom_bond_distance
_geom_bond_site_symmetry_2
Ca0 O14 2.292929 1_655
Ca0 O18 2.292929 1_555
Ca0 O29 2.309068 1_555
Ca0 O16 2.309068 1_555
Ca0 O10 2.503053 1_655
Ca0 O22 2.503053 1_555
Ca0 O0 2.936746 1_555
Ca0 O4 2.936746 1_555
Ca1 O15 2.292929 1_455
Ca1 O19 2.292929 1_555
Ca1 O28 2.309068 1_555
Ca1 O17 2.309068 1_555
Ca1 O11 2.503053 1_455
Ca1 O23 2.503053 1_555
Ca1 O1 2.936746 1_555
Ca1 O5 2.936746 1_555
Ca2 O20 2.292929 1_545
Ca2 O12 2.292929 1_555
Ca2 O27 2.309068 1_555
Ca2 O31 2.309068 1_555
Ca2 O24 2.503053 1_545
Ca2 O8 2.503053 1_555
Ca2 O6 2.936746 1_555
Ca2 O2 2.936746 1_555
Ca3 O21 2.292929 1_565
Ca3 O13 2.292929 1_555
Ca3 O26 2.309068 1_555
Ca3 O30 2.309068 1_555
Ca3 O9 2.503053 1_555
Ca3 O25 2.503053 1_565
Ca3 O7 2.936746 1_555
Ca3 O3 2.936746 1_555
Ge0 O8 1.757813 1_556
Ge0 O16 1.768629 1_555
Ge0 O6 1.770053 1_555
Ge0 O0 1.789141 1_556
Ge1 O9 1.757813 1_556
Ge1 O17 1.768629 1_555
Ge1 O7 1.770053 1_555
Ge1 O1 1.789141 1_556
Ge2 O10 1.757813 1_556
Ge2 O31 1.768629 1_555
Ge2 O4 1.770053 1_455
Ge2 O2 1.789141 1_556
Ge3 O11 1.757813 1_556
Ge3 O30 1.768629 1_555
Ge3 O5 1.770053 1_655
Ge3 O3 1.789141 1_556
Ge4 O25 1.757813 1_554
Ge4 O29 1.768629 1_555
Ge4 O3 1.770053 1_545
Ge4 O4 1.789141 1_554
Ge5 O24 1.757813 1_554
Ge5 O28 1.768629 1_555
Ge5 O2 1.770053 1_565
Ge5 O5 1.789141 1_554
Ge6 O23 1.757813 1_554
Ge6 O27 1.768629 1_555
Ge6 O1 1.770053 1_555
Ge6 O6 1.789141 1_554
Ge7 O22 1.757813 1_554
Ge7 O26 1.768629 1_555
Ge7 O0 1.770053 1_555
Ge7 O7 1.789141 1_554
Ge8 O8 1.869988 1_555
Ge8 O25 1.869988 1_555
Ge8 O29 1.894360 1_555
Ge8 O16 1.894360 1_555
Ge8 O12 1.920481 1_555
Ge8 O21 1.920481 1_555
Ge9 O24 1.869988 1_555
Ge9 O9 1.869988 1_555
Ge9 O28 1.894360 1_555
Ge9 O17 1.894360 1_555
Ge9 O13 1.920481 1_555
Ge9 O20 1.920481 1_555
Ge10 O23 1.869988 1_555
Ge10 O10 1.869988 1_555
Ge10 O27 1.894360 1_555
Ge10 O31 1.894360 1_555
Ge10 O19 1.920481 1_555
Ge10 O14 1.920481 1_555
Ge11 O22 1.869988 1_555
Ge11 O11 1.869988 1_555
Ge11 O30 1.894360 1_555
Ge11 O26 1.894360 1_555
Ge11 O18 1.920481 1_555
Ge11 O15 1.920481 1_555
Ge12 O20 1.760897 1_545
Ge12 O13 1.760897 1_544
Ge12 O21 1.760897 1_555
Ge12 O12 1.760897 1_554
Ge13 O14 1.760897 1_554
Ge13 O18 1.760897 1_455
Ge13 O15 1.760897 1_454
Ge13 O19 1.760897 1_555
