# generated using pymatgen
data_Na42Mg16Nb8Si21(S5O48)3
_symmetry_space_group_name_H-M   'P 1'
_cell_length_a   18.19851575
_cell_length_b   9.07740711
_cell_length_c   22.35630613
_cell_angle_alpha   89.92035064
_cell_angle_beta   90.26231740
_cell_angle_gamma   120.02769300
_symmetry_Int_Tables_number   1
_chemical_formula_structural   Na42Mg16Nb8Si21(S5O48)3
_chemical_formula_sum   'Na42 Mg16 Nb8 Si21 S15 O144'
_cell_volume   3197.44009186
_cell_formula_units_Z   1
loop_
 _symmetry_equiv_pos_site_id
 _symmetry_equiv_pos_as_xyz
  1  'x, y, z'
loop_
 _atom_site_type_symbol
 _atom_site_label
 _atom_site_symmetry_multiplicity
 _atom_site_fract_x
 _atom_site_fract_y
 _atom_site_fract_z
 _atom_site_occupancy
  Na  Na0  1  0.32165466  0.02754674  0.24659558  1
  Na  Na1  1  0.82383638  0.01151483  0.24873486  1
  Na  Na2  1  0.99066879  0.63329781  0.25112783  1
  Na  Na3  1  0.32278197  0.63226927  0.74613148  1
  Na  Na4  1  0.82302237  0.61837738  0.74399412  1
  Na  Na5  1  0.49044719  0.34969277  0.74958455  1
  Na  Na6  1  0.15766965  0.35000470  0.58207007  1
  Na  Na7  1  0.65836531  0.34627548  0.58804391  1
  Na  Na8  1  0.01564127  0.67574128  0.58470473  1
  Na  Na9  1  0.50968703  0.68621498  0.57266320  1
  Na  Na10  1  0.32131177  0.95261745  0.58006074  1
  Na  Na11  1  0.83271708  0.97117200  0.57375301  1
  Na  Na12  1  0.15780000  0.96992395  0.08682443  1
  Na  Na13  1  0.65559792  0.95351855  0.08475978  1
  Na  Na14  1  0.33045859  0.68880267  0.07141049  1
  Na  Na15  1  0.82798615  0.70545850  0.07642964  1
  Na  Na16  1  0.01174838  0.33326544  0.07189965  1
  Na  Na17  1  0.50600701  0.34651219  0.08410310  1
  Na  Na18  1  0.47386467  0.66723736  0.91607680  1
  Na  Na19  1  0.97539786  0.65868295  0.90766198  1
  Na  Na20  1  0.35078472  0.02135620  0.91763261  1
  Na  Na21  1  0.85723447  0.03989739  0.92253564  1
  Na  Na22  1  0.16711480  0.31388429  0.91719528  1
  Na  Na23  1  0.67008558  0.30025445  0.90885622  1
  Na  Na24  1  0.47322860  0.29240662  0.41124610  1
  Na  Na25  1  0.97500543  0.28167244  0.41923787  1
  Na  Na26  1  0.17260121  0.04551027  0.41899247  1
  Na  Na27  1  0.66682219  0.01856695  0.42004817  1
  Na  Na28  1  0.35552318  0.67216405  0.42621336  1
  Na  Na29  1  0.85137996  0.68071789  0.42086076  1
  Na  Na30  1  0.99415547  0.00374783  0.49671998  1
  Na  Na31  1  0.49181115  0.97971032  0.49397514  1
  Na  Na32  1  0.99401762  0.00604001  0.99208735  1
  Na  Na33  1  0.48916644  0.97794219  0.99423709  1
  Na  Na34  1  0.33248482  0.33248590  0.82741297  1
  Na  Na35  1  0.83944897  0.34410777  0.82768713  1
  Na  Na36  1  0.33805287  0.33204769  0.33116590  1
  Na  Na37  1  0.83322671  0.33261046  0.33030135  1
  Na  Na38  1  0.17068522  0.66938487  0.16268802  1
  Na  Na39  1  0.66215126  0.66388297  0.16465017  1
  Na  Na40  1  0.16310075  0.67326966  0.65934341  1
  Na  Na41  1  0.67134711  0.67142685  0.66098001  1
  Mg  Mg0  1  0.99438075  0.99589356  0.34664516  1
  Mg  Mg1  1  0.49590094  0.99695869  0.35424220  1
  Mg  Mg2  1  0.99538466  0.99493810  0.85294659  1
  Mg  Mg3  1  0.49423691  0.99135749  0.84602653  1
  Mg  Mg4  1  0.32993968  0.32712258  0.68394539  1
  Mg  Mg5  1  0.84011350  0.35270064  0.68514273  1
  Mg  Mg6  1  0.33985616  0.32809547  0.18562551  1
  Mg  Mg7  1  0.83373651  0.32997150  0.18637980  1
  Mg  Mg8  1  0.33892140  0.34933042  0.98573147  1
  Mg  Mg9  1  0.84103581  0.33354641  0.97748304  1
  Mg  Mg10  1  0.33296382  0.33742343  0.48197908  1
  Mg  Mg11  1  0.83863523  0.32926600  0.48782563  1
  Mg  Mg12  1  0.17238187  0.66743869  0.01190336  1
  Mg  Mg13  1  0.67043281  0.67977821  0.02016834  1
  Mg  Mg14  1  0.17104997  0.67115512  0.52431782  1
  Mg  Mg15  1  0.67188250  0.67735667  0.51361722  1
  Nb  Nb0  1  0.00281407  0.98865004  0.64133733  1
  Nb  Nb1  1  0.49399717  0.98567755  0.65531073  1
  Nb  Nb2  1  0.99532689  0.00420912  0.15525247  1
  Nb  Nb3  1  0.49695381  0.00529582  0.14584596  1
  Nb  Nb4  1  0.16781997  0.67785437  0.31150662  1
  Nb  Nb5  1  0.66392004  0.66652893  0.31395405  1
  Nb  Nb6  1  0.16361628  0.65863034  0.81166740  1
  Nb  Nb7  1  0.67015463  0.66044839  0.80940366  1
  Si  Si0  1  0.14845147  0.01678627  0.25360975  1
  Si  Si1  1  0.84803589  0.69267500  0.25442111  1
  Si  Si2  1  0.99971914  0.29898937  0.25492961  1
  Si  Si3  1  0.50100245  0.29651367  0.25500439  1
  Si  Si4  1  0.64817420  0.27790317  0.75331468  1
  Si  Si5  1  0.99955246  0.70654401  0.75507943  1
  Si  Si6  1  0.49883840  0.69992728  0.75504268  1
  Si  Si7  1  0.34897743  0.00535141  0.75579972  1
  Si  Si8  1  0.97909434  0.33440605  0.58332367  1
  Si  Si9  1  0.19286343  0.04627833  0.58007188  1
  Si  Si10  1  0.33447966  0.62416902  0.58476333  1
  Si  Si11  1  0.82637390  0.61783541  0.58161112  1
  Si  Si12  1  0.48090845  0.62427726  0.08310420  1
  Si  Si13  1  0.32623154  0.03505286  0.08157070  1
  Si  Si14  1  0.83296681  0.04206541  0.08461070  1
  Si  Si15  1  0.31736615  0.66666739  0.91785241  1
  Si  Si16  1  0.81437934  0.66564261  0.92218433  1
  Si  Si17  1  0.01967622  0.36978083  0.91982171  1
  Si  Si18  1  0.31584102  0.96325571  0.42125686  1
  Si  Si19  1  0.81798995  0.96896233  0.41818493  1
  Si  Si20  1  0.51802859  0.66778692  0.42032765  1
  S  S0  1  0.64511683  0.00220020  0.25159505  1
  S  S1  1  0.35437340  0.70489178  0.25067976  1
  S  S2  1  0.14431098  0.28716144  0.75205345  1
  S  S3  1  0.85494569  0.00418836  0.75099734  1
  S  S4  1  0.48155678  0.33231711  0.58332033  1
  S  S5  1  0.68634248  0.04226491  0.58425596  1
  S  S6  1  0.97981334  0.62896984  0.08327839  1
  S  S7  1  0.18648946  0.33031810  0.08443704  1
  S  S8  1  0.68804350  0.33096588  0.08291145  1
  S  S9  1  0.52269760  0.37682763  0.91787284  1
  S  S10  1  0.16743388  0.95920915  0.91779161  1
  S  S11  1  0.66554071  0.95653140  0.91774287  1
  S  S12  1  0.16521496  0.37734360  0.41684434  1
  S  S13  1  0.66728512  0.37529871  0.41750483  1
  S  S14  1  0.02160552  0.66784228  0.41711688  1
  O  O0  1  0.10002566  0.01543710  0.31250687  1
  O  O1  1  0.60331639  0.01689058  0.30500716  1
  O  O2  1  0.40462793  0.78629528  0.30438542  1
  O  O3  1  0.90878658  0.77570144  0.31110893  1
  O  O4  1  0.48969596  0.17400134  0.30960572  1
  O  O5  1  0.98274952  0.17920887  0.31070317  1
  O  O6  1  0.10282943  0.18996859  0.80601381  1
  O  O7  1  0.60097000  0.18593980  0.81336741  1
  O  O8  1  0.48416893  0.78577226  0.81182312  1
  O  O9  1  0.98853070  0.80079131  0.81180964  1
  O  O10  1  0.40860308  0.03732928  0.81275666  1
  O  O11  1  0.90266331  0.02239554  0.80568393  1
  O  O12  1  0.39976091  0.96609073  0.69641326  1
  O  O13  1  0.89173938  0.96779684  0.69787497  1
  O  O14  1  0.09290474  0.20871411  0.69720590  1
  O  O15  1  0.58429275  0.20188050  0.69259133  1
  O  O16  1  0.01181534  0.82989404  0.69426636  1
  O  O17  1  0.51612107  0.82769507  0.69433750  1
  O  O18  1  0.39561979  0.82070763  0.19640008  1
  O  O19  1  0.90000560  0.83397809  0.19507827  1
  O  O20  1  0.01543933  0.20414688  0.19378545  1
  O  O21  1  0.51337957  0.19399658  0.19312884  1
  O  O22  1  0.08394981  0.96733538  0.19210941  1
  O  O23  1  0.59303551  0.97849726  0.19611132  1
  O  O24  1  0.44431660  0.35768055  0.63768894  1
  O  O25  1  0.93245601  0.36501515  0.63805796  1
  O  O26  1  0.25180806  0.13246529  0.63684677  1
  O  O27  1  0.73986712  0.12441289  0.63658735  1
  O  O28  1  0.32519136  0.52134169  0.64555549  1
  O  O29  1  0.81043002  0.50723162  0.64128850  1
  O  O30  1  0.43354941  0.50491479  0.13870006  1
  O  O31  1  0.94016071  0.52796246  0.13730769  1
  O  O32  1  0.31325709  0.11553610  0.14144646  1
  O  O33  1  0.81944584  0.12690864  0.14394421  1
  O  O34  1  0.23959494  0.35454308  0.13671999  1
  O  O35  1  0.74062800  0.35653204  0.13565870  1
  O  O36  1  0.22254675  0.30349877  0.02871467  1
  O  O37  1  0.72275448  0.29921678  0.02823439  1
  O  O38  1  0.42471953  0.57081545  0.02172769  1
  O  O39  1  0.92680149  0.55264216  0.02941893  1
  O  O40  1  0.35366877  0.15547527  0.02257150  1
  O  O41  1  0.85431967  0.15942041  0.02510125  1
  O  O42  1  0.22187264  0.16084918  0.51963301  1
  O  O43  1  0.72223814  0.14095448  0.52831725  1
  O  O44  1  0.36043345  0.55772292  0.52530105  1
  O  O45  1  0.85086585  0.54925773  0.52177840  1
  O  O46  1  0.42903364  0.30275004  0.52927656  1
  O  O47  1  0.92287732  0.27657879  0.52147916  1
  O  O48  1  0.27534230  0.69861147  0.97636477  1
  O  O49  1  0.76669168  0.69287324  0.97757070  1
  O  O50  1  0.07586594  0.45689266  0.97932625  1
  O  O51  1  0.57457752  0.46350340  0.97079829  1
  O  O52  1  0.15217042  0.85451913  0.97228544  1
  O  O53  1  0.65207427  0.85292496  0.97193598  1
  O  O54  1  0.26690343  0.83431013  0.47443081  1
  O  O55  1  0.77375664  0.84930196  0.47526296  1
  O  O56  1  0.15247501  0.45445043  0.47046643  1
  O  O57  1  0.65219979  0.45008124  0.47125620  1
  O  O58  1  0.07348419  0.68250871  0.46908640  1
  O  O59  1  0.57711131  0.69618589  0.47818941  1
  O  O60  1  0.06423331  0.64500299  0.36048274  1
  O  O61  1  0.57378880  0.64286808  0.36174358  1
  O  O62  1  0.25141258  0.85261056  0.35876319  1
  O  O63  1  0.75209953  0.85695566  0.35865010  1
  O  O64  1  0.17285657  0.48806890  0.36289143  1
  O  O65  1  0.68030886  0.48862403  0.36389084  1
  O  O66  1  0.07438647  0.50454281  0.86238171  1
  O  O67  1  0.56512434  0.48491561  0.86224360  1
  O  O68  1  0.18049073  0.87298735  0.86489330  1
  O  O69  1  0.67632150  0.86750627  0.86455542  1
  O  O70  1  0.25153914  0.64568667  0.85959730  1
  O  O71  1  0.75031099  0.64742090  0.86084364  1
  O  O72  1  0.01555651  0.82354091  0.41217140  1
  O  O73  1  0.51522504  0.84228261  0.40879651  1
  O  O74  1  0.40864924  0.98094706  0.41324258  1
  O  O75  1  0.91133161  0.98430176  0.41252903  1
  O  O76  1  0.09080435  0.20446726  0.41027730  1
  O  O77  1  0.59238126  0.20391752  0.40921863  1
  O  O78  1  0.01465622  0.18704387  0.90970627  1
  O  O79  1  0.51615044  0.20809353  0.91358575  1
  O  O80  1  0.09264771  0.98151351  0.91030531  1
  O  O81  1  0.59062616  0.97902264  0.91193600  1
  O  O82  1  0.41128186  0.83772603  0.91265117  1
  O  O83  1  0.90712940  0.83396956  0.91426083  1
  O  O84  1  0.49149081  0.17535739  0.58850517  1
  O  O85  1  0.98984250  0.16072533  0.59773942  1
  O  O86  1  0.09303125  0.02704480  0.59118764  1
  O  O87  1  0.59935545  0.02832463  0.58915941  1
  O  O88  1  0.42541286  0.83192366  0.59065509  1
  O  O89  1  0.91521586  0.81657351  0.59155430  1
  O  O90  1  0.49657862  0.82635323  0.09668472  1
  O  O91  1  0.98994824  0.80576476  0.08793730  1
  O  O92  1  0.41715353  0.01325234  0.09236865  1
  O  O93  1  0.92396489  0.02127905  0.09029720  1
  O  O94  1  0.09898112  0.16971663  0.08905132  1
  O  O95  1  0.59976582  0.16817052  0.08972197  1
  O  O96  1  0.34361955  0.17213301  0.74336517  1
  O  O97  1  0.83844531  0.14461383  0.74319374  1
  O  O98  1  0.23095450  0.31619292  0.74766882  1
  O  O99  1  0.74312262  0.31818018  0.74559554  1
  O  O100  1  0.41977420  0.51305558  0.74376979  1
  O  O101  1  0.91735727  0.52216922  0.74736769  1
  O  O102  1  0.34051996  0.53681103  0.24131464  1
  O  O103  1  0.84034115  0.51425256  0.23842479  1
  O  O104  1  0.41820547  0.31241176  0.24618261  1
  O  O105  1  0.91974717  0.32584935  0.24362214  1
  O  O106  1  0.24306024  0.16766797  0.24460502  1
  O  O107  1  0.73087954  0.14920643  0.24582446  1
  O  O108  1  0.31887717  0.48657933  0.91668409  1
  O  O109  1  0.81602420  0.48780154  0.92135316  1
  O  O110  1  0.43746200  0.36014522  0.91866827  1
  O  O111  1  0.92711803  0.35651711  0.91668806  1
  O  O112  1  0.24551068  0.12861680  0.92213946  1
  O  O113  1  0.74377107  0.12567338  0.92147998  1
  O  O114  1  0.31860795  0.14450498  0.41785170  1
  O  O115  1  0.81837397  0.15052548  0.41565468  1
  O  O116  1  0.24497395  0.37119526  0.41706921  1
  O  O117  1  0.74517455  0.36270895  0.42077027  1
  O  O118  1  0.42591008  0.49584480  0.41742967  1
  O  O119  1  0.93646284  0.51350116  0.41673219  1
  O  O120  1  0.17246706  0.47856408  0.08038892  1
  O  O121  1  0.67143466  0.47445393  0.07772817  1
  O  O122  1  0.06626289  0.65029936  0.07832709  1
  O  O123  1  0.57632471  0.64945738  0.07673407  1
  O  O124  1  0.24638886  0.83944112  0.07785897  1
  O  O125  1  0.75277190  0.84751150  0.08159250  1
  O  O126  1  0.16806889  0.84829789  0.57622130  1
  O  O127  1  0.67245083  0.86604670  0.58021481  1
  O  O128  1  0.25411114  0.65432977  0.58047905  1
  O  O129  1  0.74553985  0.65145374  0.57767197  1
  O  O130  1  0.07544331  0.49253705  0.57584992  1
  O  O131  1  0.56855000  0.48373322  0.57739758  1
  O  O132  1  0.15395011  0.82784581  0.25718126  1
  O  O133  1  0.65340508  0.84345228  0.25352845  1
  O  O134  1  0.26919624  0.70142707  0.25347481  1
  O  O135  1  0.75923825  0.70064758  0.25513861  1
  O  O136  1  0.08783080  0.48909941  0.25678236  1
  O  O137  1  0.59027548  0.48382699  0.25673402  1
  O  O138  1  0.15247487  0.46399394  0.75446896  1
  O  O139  1  0.65454790  0.48041311  0.75764190  1
  O  O140  1  0.08887855  0.69623318  0.75887727  1
  O  O141  1  0.58776014  0.68721583  0.75929335  1
  O  O142  1  0.25932199  0.81980823  0.75688970  1
  O  O143  1  0.76656969  0.83625542  0.75594381  1
loop_
_geom_bond_atom_site_label_1
_geom_bond_atom_site_label_2
_geom_bond_distance
_geom_bond_site_symmetry_2
Na0 O104 2.286203 1_555
Na0 O106 2.342137 1_555
Na0 O32 2.510172 1_555
Na0 O134 2.621094 1_545
Na0 O132 2.669260 1_545
Na0 O62 2.903567 1_545
Na1 O135 2.458807 1_545
Na1 O105 2.493511 1_555
Na1 O107 2.557957 1_555
Na1 O33 2.582095 1_555
Na1 O133 2.688062 1_545
Na1 O63 2.810284 1_545
Na1 O5 2.857143 1_555
Na1 O19 2.866000 1_545
Na2 O103 2.401590 1_555
Na2 O105 2.424253 1_555
Na2 O132 2.590696 1_655
Na2 O136 2.677646 1_655
Na2 O31 2.709215 1_555
Na2 O60 2.758419 1_655
Na2 O3 2.764160 1_555
Na2 O22 2.945263 1_655
Na3 O28 2.474472 1_555
Na3 O100 2.490422 1_555
Na3 O98 2.495477 1_555
Na3 O142 2.502198 1_555
Na3 O138 2.690759 1_555
Na3 O12 2.852470 1_555
Na3 O70 2.884359 1_555
Na3 O8 2.931680 1_555
Na4 O101 2.283591 1_555
Na4 O99 2.361318 1_555
Na4 O29 2.472409 1_555
Na4 O143 2.660065 1_555
Na4 O139 2.688185 1_555
Na5 O96 2.333208 1_555
Na5 O100 2.403509 1_555
Na5 O139 2.609222 1_555
Na5 O24 2.647468 1_555
Na5 O141 2.671769 1_555
Na5 O67 2.829286 1_555
Na5 O10 2.834457 1_555
Na5 O15 2.942556 1_555
Na6 O128 2.420899 1_555
Na6 O130 2.422357 1_555
Na6 O86 2.562983 1_555
Na6 O85 2.675645 1_455
Na6 O56 2.685897 1_555
Na6 O14 2.857503 1_555
Na6 O42 2.879459 1_555
Na7 O129 2.418228 1_555
Na7 O131 2.514349 1_555
Na7 O87 2.526234 1_555
Na7 O84 2.629529 1_555
Na7 O29 2.671684 1_555
Na7 O15 2.692595 1_555
Na7 O57 2.795318 1_555
Na8 O130 2.409049 1_555
Na8 O126 2.416533 1_555
Na8 O89 2.709109 1_455
Na8 O25 2.721000 1_455
Na8 O86 2.770960 1_565
Na8 O58 2.784384 1_555
Na8 O16 2.840957 1_555
Na8 O45 2.968065 1_455
Na9 O59 2.426257 1_555
Na9 O88 2.510115 1_555
Na9 O131 2.550680 1_555
Na9 O127 2.573695 1_555
Na9 O44 2.581789 1_555
Na9 O87 2.714526 1_565
Na9 O24 2.979155 1_555
Na9 O17 2.986433 1_555
Na10 O128 2.348004 1_555
Na10 O126 2.456913 1_555
Na10 O54 2.575223 1_555
Na10 O88 2.630202 1_555
Na10 O84 2.728332 1_565
Na10 O26 2.822048 1_565
Na10 O12 2.934553 1_555
Na10 O46 3.001355 1_565
Na11 O55 2.453673 1_555
Na11 O129 2.517905 1_555
Na11 O89 2.546276 1_555
Na11 O85 2.547341 1_565
Na11 O127 2.579926 1_555
Na11 O47 2.683201 1_565
Na12 O124 2.440695 1_555
Na12 O94 2.526081 1_565
Na12 O122 2.527924 1_555
Na12 O91 2.645177 1_455
Na12 O22 2.710035 1_555
Na12 O32 2.733557 1_565
Na12 O52 2.750014 1_554
Na12 O36 2.945686 1_565
Na13 O123 2.396945 1_555
Na13 O125 2.400573 1_555
Na13 O90 2.537947 1_555
Na13 O95 2.612344 1_565
Na13 O53 2.673266 1_554
Na13 O23 2.798347 1_555
Na13 O33 2.896833 1_565
Na14 O48 2.366099 1_554
Na14 O124 2.515490 1_555
Na14 O120 2.541990 1_555
Na14 O92 2.594080 1_565
Na14 O38 2.680101 1_555
Na14 O90 2.688141 1_555
Na15 O125 2.306078 1_555
Na15 O49 2.447967 1_554
Na15 O93 2.520240 1_565
Na15 O121 2.556599 1_555
Na15 O91 2.624984 1_555
Na16 O50 2.368384 1_554
Na16 O93 2.493269 1_455
Na16 O122 2.535600 1_555
Na16 O120 2.542639 1_555
Na16 O94 2.687540 1_555
Na16 O41 2.691692 1_455
Na17 O123 2.388649 1_555
Na17 O92 2.627874 1_555
Na17 O121 2.633746 1_555
Na17 O30 2.685765 1_555
Na17 O40 2.783065 1_555
Na17 O51 2.792242 1_554
Na17 O21 2.837112 1_555
Na17 O95 2.882698 1_555
Na18 O82 2.336871 1_555
Na18 O108 2.452739 1_555
Na18 O110 2.522813 1_555
Na18 O38 2.524873 1_556
Na18 O8 2.533830 1_555
Na18 O81 2.552633 1_555
Na19 O111 2.433970 1_555
Na19 O9 2.449824 1_555
Na19 O83 2.465327 1_555
Na19 O109 2.532985 1_555
Na19 O80 2.623976 1_655
Na19 O39 2.877659 1_556
Na19 O66 2.961590 1_655
Na20 O82 2.416892 1_545
Na20 O10 2.548421 1_555
Na20 O112 2.549019 1_555
Na20 O79 2.614315 1_555
Na20 O40 2.632820 1_556
Na20 O110 2.662919 1_555
Na20 O48 2.858713 1_545
Na20 O68 2.932925 1_545
Na21 O83 2.460533 1_545
Na21 O111 2.497419 1_555
Na21 O78 2.500073 1_655
Na21 O113 2.545404 1_555
Na21 O41 2.550172 1_556
Na21 O11 2.772293 1_555
Na22 O108 2.398429 1_555
Na22 O78 2.418832 1_555
Na22 O80 2.621108 1_545
Na22 O112 2.697279 1_555
Na22 O36 2.704418 1_556
Na22 O6 2.734275 1_555
Na22 O70 2.909670 1_555
Na22 O50 2.925022 1_555
Na23 O109 2.345053 1_555
Na23 O7 2.427221 1_555
Na23 O79 2.493141 1_555
Na23 O81 2.525626 1_545
Na23 O113 2.551746 1_555
Na23 O37 2.833219 1_556
Na23 O71 2.935130 1_555
Na24 O118 2.400892 1_555
Na24 O114 2.442217 1_555
Na24 O74 2.459908 1_545
Na24 O4 2.596881 1_555
Na24 O77 2.663356 1_555
Na24 O46 2.777455 1_555
Na25 O75 2.349626 1_545
Na25 O47 2.470292 1_555
Na25 O115 2.480061 1_555
Na25 O119 2.529872 1_555
Na25 O76 2.540604 1_655
Na25 O5 2.629284 1_555
Na26 O114 2.340772 1_555
Na26 O42 2.451725 1_555
Na26 O76 2.545998 1_555
Na26 O72 2.546495 1_545
Na26 O116 2.565117 1_555
Na26 O0 2.664298 1_555
Na27 O115 2.397259 1_555
Na27 O73 2.410706 1_545
Na27 O43 2.640811 1_555
Na27 O77 2.646085 1_555
Na27 O117 2.708158 1_555
Na27 O1 2.811729 1_555
Na27 O59 2.854101 1_545
Na27 O63 2.957770 1_545
Na28 O116 2.459675 1_555
Na28 O44 2.465585 1_555
Na28 O74 2.482629 1_555
Na28 O118 2.509201 1_555
Na28 O73 2.549497 1_555
Na28 O54 2.885380 1_555
Na28 O2 2.894456 1_555
Na29 O75 2.410504 1_555
Na29 O117 2.546492 1_555
Na29 O45 2.548690 1_555
Na29 O72 2.602530 1_655
Na29 O3 2.640318 1_555
Na29 O119 2.657810 1_555
Na29 O55 2.828613 1_555
Na29 O65 2.981891 1_555
Na30 O75 2.356769 1_545
Na30 O76 2.638564 1_655
Na30 O89 2.649637 1_545
Na30 O72 2.655817 1_645
Na30 O85 2.694367 1_555
Na30 O86 2.707112 1_655
Na31 O74 2.353744 1_555
Na31 O73 2.431069 1_555
Na31 O88 2.514942 1_555
Na31 O77 2.715747 1_565
Na31 O84 2.764276 1_565
Na31 O87 2.766495 1_565
Na32 O83 2.340467 1_545
Na32 O78 2.369167 1_655
Na32 O93 2.582260 1_556
Na32 O80 2.654295 1_645
Na32 O94 2.772369 1_656
Na32 O91 2.785358 1_546
Na33 O82 2.265624 1_555
Na33 O81 2.609156 1_555
Na33 O79 2.612988 1_565
Na33 O92 2.661189 1_566
Na33 O90 2.707684 1_556
Na33 O95 2.842928 1_566
Na34 O96 2.448821 1_555
Na34 O100 2.473774 1_555
Na34 O98 2.512223 1_555
Na34 O108 2.521895 1_555
Na34 O110 2.713040 1_555
Na34 O112 2.739160 1_555
Na35 O101 2.359819 1_555
Na35 O99 2.460773 1_555
Na35 O111 2.511744 1_555
Na35 O97 2.612261 1_555
Na35 O109 2.615402 1_555
Na35 O113 2.815434 1_555
Na36 O104 2.460824 1_555
Na36 O118 2.467153 1_555
Na36 O114 2.484616 1_555
Na36 O106 2.521039 1_555
Na36 O116 2.705170 1_555
Na36 O102 2.720078 1_555
Na37 O115 2.448467 1_555
Na37 O105 2.522521 1_555
Na37 O107 2.584700 1_555
Na37 O103 2.594956 1_555
Na37 O119 2.616802 1_555
Na37 O117 2.683746 1_555
Na38 O124 2.401007 1_555
Na38 O120 2.540136 1_555
Na38 O122 2.614738 1_555
Na38 O134 2.620023 1_555
Na38 O136 2.631864 1_555
Na38 O132 2.660322 1_555
Na39 O123 2.467335 1_555
Na39 O125 2.492855 1_555
Na39 O137 2.548728 1_555
Na39 O135 2.589321 1_555
Na39 O133 2.627167 1_555
Na39 O121 2.657929 1_555
Na40 O126 2.415641 1_555
Na40 O130 2.466262 1_555
Na40 O128 2.488752 1_555
Na40 O140 2.670224 1_555
Na40 O142 2.689489 1_555
Na40 O138 2.791724 1_555
Na41 O129 2.365085 1_555
Na41 O127 2.517462 1_555
Na41 O131 2.584771 1_555
Na41 O143 2.670038 1_555
Na41 O139 2.689784 1_555
Na41 O141 2.723054 1_555
Mg0 O5 1.951077 1_565
Mg0 O3 1.982338 1_555
Mg0 O0 1.995488 1_665
Mg0 O75 2.079807 1_555
Mg0 O72 2.309566 1_655
Mg0 O76 2.312378 1_665
Mg1 O4 1.940989 1_565
Mg1 O73 2.016939 1_555
Mg1 O74 2.017401 1_555
Mg1 O2 2.113802 1_555
Mg1 O1 2.175023 1_565
Mg1 O77 2.192746 1_565
Mg2 O9 1.936667 1_555
Mg2 O78 2.040613 1_665
Mg2 O83 2.063840 1_555
Mg2 O11 2.104689 1_565
Mg2 O6 2.146513 1_665
Mg2 O80 2.233144 1_655
Mg3 O8 1.939428 1_555
Mg3 O10 1.948180 1_565
Mg3 O7 2.000368 1_565
Mg3 O82 2.085709 1_555
Mg3 O81 2.330917 1_555
Mg3 O79 2.351263 1_565
Mg4 O26 1.931218 1_555
Mg4 O28 1.999962 1_555
Mg4 O96 2.036748 1_555
Mg4 O100 2.129511 1_555
Mg4 O24 2.218109 1_555
Mg4 O98 2.264642 1_555
Mg5 O25 1.942287 1_555
Mg5 O29 1.992593 1_555
Mg5 O101 2.025218 1_555
Mg5 O99 2.123062 1_555
Mg5 O27 2.237247 1_555
Mg5 O97 2.277998 1_555
Mg6 O30 1.963857 1_555
Mg6 O32 1.999724 1_555
Mg6 O104 2.017699 1_555
Mg6 O106 2.100205 1_555
Mg6 O34 2.236435 1_555
Mg6 O102 2.263446 1_555
Mg7 O33 1.971850 1_555
Mg7 O103 1.992335 1_555
Mg7 O105 2.032069 1_555
Mg7 O35 2.146061 1_555
Mg7 O31 2.171388 1_555
Mg7 O107 2.214746 1_555
Mg8 O38 1.994714 1_556
Mg8 O40 2.076901 1_556
Mg8 O108 2.124244 1_555
Mg8 O36 2.171972 1_556
Mg8 O110 2.306817 1_555
Mg8 O112 2.345658 1_555
Mg9 O111 2.009152 1_555
Mg9 O41 2.016302 1_556
Mg9 O109 2.090522 1_555
Mg9 O39 2.150054 1_556
Mg9 O113 2.214664 1_555
Mg9 O37 2.316881 1_556
Mg10 O42 2.033135 1_555
Mg10 O44 2.046303 1_555
Mg10 O118 2.143296 1_555
Mg10 O114 2.176228 1_555
Mg10 O46 2.192416 1_555
Mg10 O116 2.287510 1_555
Mg11 O47 1.966571 1_555
Mg11 O45 2.042389 1_555
Mg11 O43 2.148900 1_555
Mg11 O115 2.185142 1_555
Mg11 O119 2.351848 1_555
Mg11 O117 2.392597 1_555
Mg12 O48 1.924716 1_554
Mg12 O50 1.975011 1_554
Mg12 O124 2.075941 1_555
Mg12 O52 2.102775 1_554
Mg12 O120 2.297617 1_555
Mg12 O122 2.384087 1_555
Mg13 O49 1.948410 1_554
Mg13 O125 2.037863 1_555
Mg13 O123 2.038420 1_555
Mg13 O53 2.064510 1_554
Mg13 O51 2.162475 1_554
Mg13 O121 2.270941 1_555
Mg14 O54 1.976810 1_555
Mg14 O126 2.007020 1_555
Mg14 O128 2.024303 1_555
Mg14 O130 2.042831 1_555
Mg14 O56 2.184166 1_555
Mg14 O58 2.202403 1_555
Mg15 O55 1.929578 1_555
Mg15 O59 1.978195 1_555
Mg15 O129 2.049327 1_555
Mg15 O57 2.131706 1_555
Mg15 O127 2.267117 1_555
Mg15 O131 2.316950 1_555
Nb0 O86 1.875398 1_565
Nb0 O89 1.927775 1_455
Nb0 O16 1.932232 1_555
Nb0 O85 1.951481 1_465
Nb0 O14 2.224597 1_565
Nb0 O13 2.315009 1_455
Nb1 O12 1.877733 1_555
Nb1 O17 1.884433 1_555
Nb1 O88 1.959787 1_555
Nb1 O15 2.002721 1_565
Nb1 O84 2.295240 1_565
Nb1 O87 2.301040 1_565
Nb2 O20 1.872594 1_655
Nb2 O19 1.875438 1_545
Nb2 O22 1.979768 1_645
Nb2 O93 2.000715 1_555
Nb2 O94 2.277916 1_655
Nb2 O91 2.312786 1_545
Nb3 O21 1.905389 1_555
Nb3 O92 1.905893 1_555
Nb3 O90 1.959654 1_545
Nb3 O18 2.099283 1_545
Nb3 O95 2.123376 1_555
Nb3 O23 2.187773 1_545
Nb4 O62 1.876577 1_555
Nb4 O132 1.931082 1_555
Nb4 O136 2.011173 1_555
Nb4 O60 2.072883 1_555
Nb4 O64 2.108923 1_555
Nb4 O134 2.181437 1_555
Nb5 O61 1.881717 1_555
Nb5 O63 1.943072 1_555
Nb5 O137 1.987145 1_555
Nb5 O135 2.077486 1_555
Nb5 O65 2.101726 1_555
Nb5 O133 2.177145 1_555
Nb6 O66 1.902105 1_555
Nb6 O140 1.951437 1_555
Nb6 O70 1.973401 1_555
Nb6 O142 2.034208 1_555
Nb6 O138 2.107899 1_555
Nb6 O68 2.168286 1_555
Nb7 O71 1.902970 1_555
Nb7 O139 1.904801 1_555
Nb7 O141 1.977611 1_555
Nb7 O143 2.065262 1_555
Nb7 O67 2.134266 1_555
Nb7 O69 2.204455 1_555
O0 Si0 1.584404 1_555
O1 S0 1.460346 1_555
O2 S1 1.462899 1_555
O3 Si1 1.597600 1_555
O4 Si3 1.593320 1_555
O5 Si2 1.579878 1_555
O6 S2 1.463678 1_555
O7 Si4 1.589659 1_555
O8 Si6 1.582383 1_555
O9 Si5 1.599302 1_555
O10 Si7 1.598826 1_555
O11 S3 1.457169 1_555
O12 Si7 1.756703 1_565
O13 S3 1.482453 1_565
O14 S2 1.486944 1_555
O15 Si4 1.689941 1_555
O16 Si5 1.703049 1_455
O17 Si6 1.708902 1_555
O18 S1 1.535007 1_555
O19 Si1 1.758535 1_555
O20 Si2 1.716089 1_455
O21 Si3 1.745421 1_555
O22 Si0 1.711541 1_565
O23 S0 1.506360 1_565
O24 S4 1.467715 1_555
O25 Si8 1.594173 1_555
O26 Si9 1.588771 1_555
O27 S5 1.462411 1_555
O28 Si10 1.608604 1_555
O29 Si11 1.606380 1_555
O30 Si12 1.591566 1_555
O31 S6 1.470758 1_555
O32 Si13 1.599877 1_555
O33 Si14 1.615155 1_555
O34 S7 1.458169 1_555
O35 S8 1.458896 1_555
O36 S7 1.486589 1_555
O37 S8 1.471920 1_555
O38 Si12 1.629809 1_555
O39 S6 1.477606 1_555
O40 Si13 1.624733 1_555
O41 Si14 1.625517 1_555
O42 Si9 1.624547 1_555
O43 S5 1.487244 1_555
O44 Si10 1.627015 1_555
O45 Si11 1.631234 1_555
O46 S4 1.476156 1_555
O47 Si8 1.638724 1_555
O48 Si15 1.616260 1_555
O49 Si16 1.604016 1_555
O50 Si17 1.619207 1_555
O51 S9 1.469469 1_555
O52 S10 1.483290 1_555
O53 S11 1.476924 1_555
O54 Si18 1.593395 1_555
O55 Si19 1.608290 1_555
O56 S12 1.465622 1_555
O57 S13 1.473779 1_555
O58 S14 1.457241 1_555
O59 Si20 1.614517 1_555
O60 S14 1.555174 1_555
O61 Si20 1.743269 1_555
O62 Si18 1.773634 1_555
O63 Si19 1.735530 1_555
O64 S12 1.530596 1_555
O65 S13 1.518625 1_555
O66 Si17 1.710303 1_555
O67 S9 1.533860 1_555
O68 S10 1.502957 1_555
O69 S11 1.506298 1_555
O70 Si15 1.710436 1_555
O71 Si16 1.749392 1_555
O72 S14 1.475480 1_555
O73 Si20 1.630228 1_555
O74 Si18 1.625345 1_555
O75 Si19 1.638927 1_555
O76 S12 1.479835 1_555
O77 S13 1.479439 1_555
O78 Si17 1.631017 1_555
O79 S9 1.478866 1_555
O80 S10 1.481527 1_555
O81 S11 1.481247 1_555
O82 Si15 1.640410 1_555
O83 Si16 1.623537 1_555
O84 S4 1.527508 1_555
O85 Si8 1.712994 1_555
O86 Si9 1.754863 1_555
O87 S5 1.528101 1_555
O88 Si10 1.785396 1_555
O89 Si11 1.731066 1_555
O90 Si12 1.736511 1_555
O91 S6 1.524605 1_555
O92 Si13 1.777417 1_555
O93 Si14 1.762083 1_555
O94 S7 1.532831 1_555
O95 S8 1.553526 1_555
O96 Si7 1.589068 1_555
O97 S3 1.458580 1_555
O98 S2 1.466550 1_555
O99 Si4 1.587275 1_555
O100 Si6 1.601987 1_555
O101 Si5 1.600368 1_555
O102 S1 1.432025 1_555
O103 Si1 1.595246 1_555
O104 Si3 1.595289 1_555
O105 Si2 1.610299 1_555
O106 Si0 1.588418 1_555
O107 S0 1.466360 1_555
O108 Si15 1.648910 1_555
O109 Si16 1.629655 1_555
O110 S9 1.481385 1_555
O111 Si17 1.628696 1_655
O112 S10 1.485073 1_545
O113 S11 1.484171 1_545
O114 Si18 1.622352 1_545
O115 Si19 1.645531 1_545
O116 S12 1.480199 1_555
O117 S13 1.479451 1_555
O118 Si20 1.622098 1_555
O119 S14 1.480217 1_655
O120 S7 1.492424 1_555
O121 S8 1.481408 1_555
O122 S6 1.490483 1_455
O123 Si12 1.640937 1_555
O124 Si13 1.639564 1_565
O125 Si14 1.635009 1_565
O126 Si9 1.621492 1_565
O127 S5 1.492069 1_565
O128 Si10 1.619476 1_555
O129 Si11 1.647098 1_555
O130 Si8 1.626598 1_455
O131 S4 1.495545 1_555
O132 Si0 1.768964 1_565
O133 S0 1.522649 1_565
O134 S1 1.536160 1_555
O135 Si1 1.653539 1_555
O136 Si2 1.667662 1_455
O137 Si3 1.663406 1_555
O138 S2 1.537231 1_555
O139 Si4 1.785783 1_555
O140 Si5 1.676169 1_455
O141 Si6 1.681220 1_555
O142 Si7 1.658111 1_565
O143 S3 1.571650 1_565
