# generated using pymatgen
data_NaY2Ti2P3(SO8)3
_symmetry_space_group_name_H-M   'P 1'
_cell_length_a   8.88053388
_cell_length_b   8.88062742
_cell_length_c   23.14277048
_cell_angle_alpha   90.34652448
_cell_angle_beta   90.09054769
_cell_angle_gamma   120.12963167
_symmetry_Int_Tables_number   1
_chemical_formula_structural   NaY2Ti2P3(SO8)3
_chemical_formula_sum   'Na3 Y6 Ti6 P9 S9 O72'
_cell_volume   1578.50438803
_cell_formula_units_Z   3
loop_
 _symmetry_equiv_pos_site_id
 _symmetry_equiv_pos_as_xyz
  1  'x, y, z'
loop_
 _atom_site_type_symbol
 _atom_site_label
 _atom_site_symmetry_multiplicity
 _atom_site_fract_x
 _atom_site_fract_y
 _atom_site_fract_z
 _atom_site_occupancy
  Na  Na0  1  0.68253561  0.33535982  0.83517414  1
  Na  Na1  1  0.66233636  0.34360164  0.33194656  1
  Na  Na2  1  0.34954262  0.68074405  0.16540667  1
  Y  Y0  1  0.67314124  0.33500736  0.68665625  1
  Y  Y1  1  0.65467186  0.32873203  0.18551150  1
  Y  Y2  1  0.66439695  0.32252114  0.98652177  1
  Y  Y3  1  0.66325617  0.33479110  0.48419540  1
  Y  Y4  1  0.33697989  0.66883881  0.30743088  1
  Y  Y5  1  0.32997969  0.66913785  0.80351921  1
  Ti  Ti0  1  0.01096911  0.99108920  0.35631910  1
  Ti  Ti1  1  0.99202636  0.00137369  0.85811696  1
  Ti  Ti2  1  0.99271588  0.99033280  0.64974237  1
  Ti  Ti3  1  0.99646611  0.99814386  0.14580081  1
  Ti  Ti4  1  0.33117359  0.65149959  0.01873403  1
  Ti  Ti5  1  0.32065494  0.65619428  0.51140001  1
  P  P0  1  0.27671816  0.00325415  0.24931066  1
  P  P1  1  0.73173273  0.72570079  0.25043533  1
  P  P2  1  0.98927205  0.72491164  0.75272577  1
  P  P3  1  0.73246200  0.00915847  0.75170490  1
  P  P4  1  0.66084136  0.01830953  0.08417386  1
  P  P5  1  0.35547070  0.33003749  0.08389606  1
  P  P6  1  0.04809049  0.37460746  0.91443131  1
  P  P7  1  0.32084545  0.36838272  0.41396519  1
  P  P8  1  0.04410894  0.67057825  0.41462687  1
  S  S0  1  0.99494210  0.27210076  0.24998486  1
  S  S1  1  0.27722551  0.26675864  0.75089660  1
  S  S2  1  0.97966221  0.33425764  0.58332415  1
  S  S3  1  0.35495676  0.01924052  0.58417502  1
  S  S4  1  0.66159355  0.64263621  0.58397846  1
  S  S5  1  0.97911515  0.64170847  0.08394950  1
  S  S6  1  0.62790298  0.67344544  0.91617200  1
  S  S7  1  0.32159800  0.95257631  0.91564401  1
  S  S8  1  0.63046393  0.95191457  0.41770397  1
  O  O0  1  0.18339950  0.00925989  0.30690010  1
  O  O1  1  0.83164150  0.82481853  0.30703466  1
  O  O2  1  0.99004864  0.17906675  0.30319484  1
  O  O3  1  0.19309777  0.16925944  0.80400615  1
  O  O4  1  0.97921410  0.82194526  0.80716159  1
  O  O5  1  0.84067462  0.02761090  0.80751448  1
  O  O6  1  0.83086951  0.00537298  0.69593389  1
  O  O7  1  0.18004684  0.17866614  0.69692607  1
  O  O8  1  0.99611534  0.82573566  0.69579697  1
  O  O9  1  0.82978547  0.82776591  0.19581878  1
  O  O10  1  -0.00073422  0.18329331  0.19616818  1
  O  O11  1  0.17479378  0.00452407  0.19556952  1
  O  O12  1  0.90558780  0.37785011  0.63368555  1
  O  O13  1  0.47274734  0.09817038  0.63457513  1
  O  O14  1  0.62439004  0.52824458  0.63430092  1
  O  O15  1  0.90399682  0.52714279  0.13418412  1
  O  O16  1  0.61277611  0.09324763  0.13618644  1
  O  O17  1  0.47903916  0.38569575  0.13599954  1
  O  O18  1  0.43230856  0.29113967  0.03102091  1
  O  O19  1  0.86809862  0.56648669  0.03225066  1
  O  O20  1  0.70755267  0.13742877  0.03180825  1
  O  O21  1  0.42800088  0.13694082  0.53418763  1
  O  O22  1  0.70833355  0.57100381  0.53403605  1
  O  O23  1  0.86160842  0.28961391  0.53338701  1
  O  O24  1  0.54093515  0.69452894  0.96838729  1
  O  O25  1  0.16694647  0.47300807  0.96860797  1
  O  O26  1  0.30346911  0.84785115  0.96763000  1
  O  O27  1  0.53380253  0.83949060  0.46904763  1
  O  O28  1  0.30179056  0.47167686  0.46828560  1
  O  O29  1  0.16381379  0.69167455  0.46926782  1
  O  O30  1  0.12365436  0.64044736  0.36146692  1
  O  O31  1  0.52413912  0.88173051  0.36510636  1
  O  O32  1  0.36068232  0.48224448  0.36123850  1
  O  O33  1  0.12990964  0.48354441  0.86097841  1
  O  O34  1  0.35364183  0.87760850  0.86348093  1
  O  O35  1  0.52226551  0.64530164  0.86386134  1
  O  O36  1  0.03745489  0.84195632  0.40900430  1
  O  O37  1  0.79878904  0.95989899  0.41258119  1
  O  O38  1  0.14970154  0.19288049  0.40647021  1
  O  O39  1  0.03959811  0.19458141  0.90639541  1
  O  O40  1  0.16008349  0.96311340  0.90819214  1
  O  O41  1  0.79997211  0.83787442  0.91026773  1
  O  O42  1  0.00746885  0.18688799  0.59638913  1
  O  O43  1  0.18031212  0.99626114  0.59720045  1
  O  O44  1  0.81539458  0.81934387  0.59640391  1
  O  O45  1  0.00366473  0.81669015  0.09470684  1
  O  O46  1  0.81491908  0.98993674  0.09928717  1
  O  O47  1  0.17302045  0.17843911  0.09827619  1
  O  O48  1  0.71597758  0.17246337  0.74892526  1
  O  O49  1  0.45098990  0.28321658  0.74806124  1
  O  O50  1  0.82317165  0.54635290  0.75003061  1
  O  O51  1  0.72039237  0.54758859  0.25018689  1
  O  O52  1  0.83817981  0.29053760  0.24889466  1
  O  O53  1  0.45688412  0.16846181  0.25135380  1
  O  O54  1  0.65778034  0.52572376  0.92297272  1
  O  O55  1  0.86440464  0.34392675  0.92302824  1
  O  O56  1  0.47201722  0.13293777  0.92102996  1
  O  O57  1  0.65539277  0.12803252  0.42671503  1
  O  O58  1  0.47289207  0.33831868  0.42620647  1
  O  O59  1  0.86190221  0.51777820  0.42492416  1
  O  O60  1  0.33134896  0.49188992  0.06958136  1
  O  O61  1  0.15646450  0.66484147  0.07312272  1
  O  O62  1  0.50108910  0.83469320  0.06836283  1
  O  O63  1  0.33565061  0.84698502  0.57050065  1
  O  O64  1  0.51085050  0.66467098  0.57036927  1
  O  O65  1  0.15275091  0.49059454  0.57000967  1
  O  O66  1  0.28632666  0.83562435  0.24742021  1
  O  O67  1  0.55250827  0.71281360  0.24868539  1
  O  O68  1  0.15547085  0.44667603  0.24843165  1
  O  O69  1  0.29076142  0.43865452  0.75165379  1
  O  O70  1  0.15571627  0.71676122  0.75221419  1
  O  O71  1  0.56107359  0.83958849  0.75289717  1
loop_
_geom_bond_atom_site_label_1
_geom_bond_atom_site_label_2
_geom_bond_distance
_geom_bond_site_symmetry_2
Na0 O48 2.561901 1_555
Na0 O55 2.571490 1_555
Na0 O50 2.580030 1_555
Na0 O56 2.712120 1_555
Na0 O54 2.714385 1_555
Na0 O49 2.743480 1_555
Na1 O51 2.496916 1_555
Na1 O53 2.516351 1_555
Na1 O52 2.663116 1_555
Na1 O59 2.712778 1_555
Na1 O58 2.743140 1_555
Na1 O57 2.900266 1_555
Na2 O67 2.551752 1_555
Na2 O66 2.560553 1_555
Na2 O62 2.631311 1_555
Na2 O61 2.694967 1_555
Na2 O60 2.727414 1_555
Na2 O68 2.728611 1_555
O0 P0 1.585221 1_555
O0 Ti0 1.854339 1_545
O1 P1 1.573561 1_555
O1 Ti0 1.905398 1_655
O2 S0 1.475580 1_555
O2 Ti0 2.160616 1_645
O3 S1 1.478146 1_555
O3 Ti1 2.082426 1_455
O4 P2 1.549877 1_555
O4 Ti1 1.933249 1_565
O5 P3 1.566516 1_555
O5 Ti1 1.882820 1_555
O6 P3 1.569484 1_555
O6 Ti2 1.849928 1_545
O7 S1 1.491257 1_555
O7 Ti2 1.983968 1_445
O8 P2 1.581479 1_555
O8 Ti2 1.826635 1_555
O9 P1 1.549973 1_555
O9 Ti3 1.896971 1_555
O10 S0 1.480988 1_455
O10 Ti3 1.999639 1_445
O11 P0 1.540489 1_555
O11 Ti3 1.934197 1_445
O12 S2 1.481086 1_555
O12 Y0 2.265803 1_555
O13 S3 1.481951 1_555
O13 Y0 2.290934 1_555
O14 S4 1.475135 1_555
O14 Y0 2.317275 1_555
O15 S5 1.472108 1_555
O15 Y1 2.352683 1_555
O16 P4 1.533338 1_555
O16 Y1 2.236847 1_555
O17 P5 1.531856 1_555
O17 Y1 2.189758 1_555
O18 P5 1.522003 1_555
O18 Y2 2.195396 1_554
O19 S5 1.474841 1_555
O19 Y2 2.262299 1_554
O20 P4 1.528514 1_555
O20 Y2 2.144564 1_554
O21 S3 1.479168 1_555
O21 Y3 2.266610 1_555
O22 S4 1.473280 1_555
O22 Y3 2.239946 1_555
O23 S2 1.471477 1_555
O23 Y3 2.295308 1_555
O24 S6 1.495716 1_555
O24 Ti4 2.066703 1_556
O25 P6 1.583136 1_555
O25 Ti4 1.907069 1_556
O26 S7 1.483963 1_555
O26 Ti4 2.225888 1_556
O27 S8 1.517479 1_555
O27 Ti5 2.031068 1_555
O28 P7 1.610287 1_555
O28 Ti5 1.847393 1_555
O29 P8 1.599117 1_555
O29 Ti5 1.852027 1_555
O30 P8 1.507546 1_555
O30 Y4 2.179020 1_555
O31 S8 1.469051 1_555
O31 Y4 2.219535 1_555
O32 P7 1.514518 1_555
O32 Y4 2.171443 1_555
O33 P6 1.518480 1_555
O33 Y5 2.176164 1_555
O34 S7 1.470749 1_555
O34 Y5 2.230417 1_555
O35 S6 1.471557 1_555
O35 Y5 2.295604 1_555
O36 P8 1.558652 1_555
O36 Ti0 1.904558 1_555
O37 S8 1.465542 1_555
O37 Ti0 2.193335 1_655
O38 P7 1.544991 1_555
O38 Ti0 1.957086 1_545
O39 P6 1.572123 1_555
O39 Ti1 1.902218 1_455
O40 S7 1.493309 1_555
O40 Ti1 2.047972 1_465
O41 S6 1.499646 1_555
O41 Ti1 2.003834 1_565
O42 S2 1.481276 1_455
O42 Ti2 2.094191 1_445
O43 S3 1.490772 1_565
O43 Ti2 2.043496 1_455
O44 S4 1.500785 1_555
O44 Ti2 1.969746 1_555
O45 S5 1.476246 1_455
O45 Ti3 2.019797 1_455
O46 P4 1.550392 1_565
O46 Ti3 1.907607 1_555
O47 P5 1.538091 1_555
O47 Ti3 1.933420 1_445
O48 P3 1.530695 1_555
O48 Y0 2.209023 1_555
O49 S1 1.476788 1_555
O49 Y0 2.286676 1_555
O50 P2 1.531179 1_555
O50 Y0 2.213368 1_555
O51 P1 1.533646 1_555
O51 Y1 2.276341 1_555
O52 S0 1.481298 1_555
O52 Y1 2.340059 1_555
O53 P0 1.535252 1_555
O53 Y1 2.226601 1_555
O54 S6 1.472396 1_555
O54 Y2 2.358210 1_555
O55 P6 1.526505 1_655
O55 Y2 2.241156 1_555
O56 S7 1.488125 1_545
O56 Y2 2.263600 1_555
O57 S8 1.478857 1_545
O57 Y3 2.233232 1_555
O58 P7 1.528512 1_555
O58 Y3 2.169429 1_555
O59 P8 1.522235 1_655
O59 Y3 2.188832 1_555
O60 P5 1.592563 1_555
O60 Ti4 1.848308 1_555
O61 S5 1.504169 1_455
O61 Ti4 2.048042 1_555
O62 P4 1.572972 1_565
O62 Ti4 1.936552 1_555
O63 S3 1.483345 1_565
O63 Ti5 2.122298 1_555
O64 S4 1.480521 1_555
O64 Ti5 2.141210 1_555
O65 S2 1.499826 1_455
O65 Ti5 2.013695 1_555
O66 P0 1.533637 1_565
O66 Y4 2.239814 1_555
O67 P1 1.537800 1_555
O67 Y4 2.220026 1_555
O68 S0 1.489688 1_455
O68 Y4 2.263377 1_555
O69 S1 1.469878 1_555
O69 Y5 2.237159 1_555
O70 P2 1.515800 1_455
O70 Y5 2.154272 1_555
O71 P3 1.511514 1_565
O71 Y5 2.187665 1_555
