# generated using pymatgen
data_Cs2IrCl6
_symmetry_space_group_name_H-M   'P 1'
_cell_length_a   7.28102304
_cell_length_b   7.28102345
_cell_length_c   7.28103489
_cell_angle_alpha   59.99995278
_cell_angle_beta   59.99995090
_cell_angle_gamma   60.00011189
_symmetry_Int_Tables_number   1
_chemical_formula_structural   Cs2IrCl6
_chemical_formula_sum   'Cs2 Ir1 Cl6'
_cell_volume   272.93736852
_cell_formula_units_Z   1
loop_
 _symmetry_equiv_pos_site_id
 _symmetry_equiv_pos_as_xyz
  1  'x, y, z'
loop_
 _atom_site_type_symbol
 _atom_site_label
 _atom_site_symmetry_multiplicity
 _atom_site_fract_x
 _atom_site_fract_y
 _atom_site_fract_z
 _atom_site_occupancy
  Cs  Cs0  1  0.75000000  0.75000000  0.75000000  1
  Cs  Cs1  1  0.25000000  0.25000000  0.25000000  1
  Ir  Ir0  1  0.00000000  -0.00000000  -0.00000000  1
  Cl  Cl0  1  0.22714920  0.77285080  0.77285080  1
  Cl  Cl1  1  0.22714920  0.77285080  0.22714920  1
  Cl  Cl2  1  0.77285080  0.22714920  0.77285080  1
  Cl  Cl3  1  0.77285080  0.22714920  0.22714920  1
  Cl  Cl4  1  0.77285080  0.77285080  0.22714920  1
  Cl  Cl5  1  0.22714920  0.22714920  0.77285080  1
loop_
_geom_bond_atom_site_label_1
_geom_bond_atom_site_label_2
_geom_bond_distance
_geom_bond_site_symmetry_2
Cl0 Ir0 2.338941 1_566
Cl0 Cs0 3.648107 1_455
Cl0 Cs0 3.648107 1_555
Cl0 Cs1 3.648108 1_565
Cl0 Cs1 3.648108 1_556
Cl1 Ir0 2.338941 1_565
Cl1 Cs1 3.648107 1_565
Cl1 Cs1 3.648108 1_555
Cl1 Cs0 3.648108 1_554
Cl1 Cs0 3.648108 1_455
Cl2 Ir0 2.338941 1_656
Cl2 Cs0 3.648107 1_545
Cl2 Cs0 3.648108 1_555
Cl2 Cs1 3.648108 1_556
Cl2 Cs1 3.648108 1_655
Cl3 Ir0 2.338941 1_655
Cl3 Cs1 3.648107 1_655
Cl3 Cs1 3.648107 1_555
Cl3 Cs0 3.648108 1_545
Cl3 Cs0 3.648108 1_554
Cl4 Ir0 2.338934 1_665
Cl4 Cs0 3.648113 1_554
Cl4 Cs0 3.648113 1_555
Cl4 Cs1 3.648114 1_565
Cl4 Cs1 3.648114 1_655
Cl5 Ir0 2.338934 1_556
Cl5 Cs1 3.648113 1_556
Cl5 Cs1 3.648113 1_555
Cl5 Cs0 3.648114 1_545
Cl5 Cs0 3.648114 1_455
