# generated using pymatgen
data_U(Cr3P2)2
_symmetry_space_group_name_H-M   'P 1'
_cell_length_a   7.00139387
_cell_length_b   7.00168380
_cell_length_c   3.46384942
_cell_angle_alpha   90.00000000
_cell_angle_beta   90.00000000
_cell_angle_gamma   120.00103397
_symmetry_Int_Tables_number   1
_chemical_formula_structural   U(Cr3P2)2
_chemical_formula_sum   'U1 Cr6 P4'
_cell_volume   147.05239926
_cell_formula_units_Z   1
loop_
 _symmetry_equiv_pos_site_id
 _symmetry_equiv_pos_as_xyz
  1  'x, y, z'
loop_
 _atom_site_type_symbol
 _atom_site_label
 _atom_site_symmetry_multiplicity
 _atom_site_fract_x
 _atom_site_fract_y
 _atom_site_fract_z
 _atom_site_occupancy
  U  U0  1  0.00000382  0.00001164  0.00000000  1
  Cr  Cr0  1  0.79715125  0.59434777  0.50000000  1
  Cr  Cr1  1  0.07229215  0.53614412  -0.00000000  1
  Cr  Cr2  1  0.46386295  0.92773489  0.00000000  1
  Cr  Cr3  1  0.79717140  0.20280288  0.50000000  1
  Cr  Cr4  1  0.46386830  0.53612296  0.00000000  1
  Cr  Cr5  1  0.40565853  0.20283916  0.50000000  1
  P  P0  1  0.66665656  0.33332082  0.00000000  1
  P  P1  1  0.18625923  0.81377434  0.50000000  1
  P  P2  1  0.18627135  0.37250456  0.50000000  1
  P  P3  1  0.62746746  0.81373186  0.50000000  1
loop_
_geom_bond_atom_site_label_1
_geom_bond_atom_site_label_2
_geom_bond_distance
_geom_bond_site_symmetry_2
Cr0 P0 2.346205 1_555
Cr0 P0 2.346205 1_556
Cr0 P3 2.365545 1_555
Cr0 P1 2.365707 1_655
Cr0 U0 3.008329 1_665
Cr0 U0 3.008329 1_666
Cr1 P2 2.421465 1_555
Cr1 P2 2.421465 1_554
Cr1 P1 2.421527 1_555
Cr1 P1 2.421527 1_554
Cr1 P0 2.459499 1_455
Cr2 P1 2.421358 1_555
Cr2 P1 2.421358 1_554
Cr2 P3 2.421391 1_555
Cr2 P3 2.421391 1_554
Cr2 P0 2.459300 1_565
Cr3 P0 2.346224 1_555
Cr3 P0 2.346224 1_556
Cr3 P3 2.365565 1_545
Cr3 P2 2.365643 1_655
Cr3 U0 3.008119 1_655
Cr3 U0 3.008119 1_656
Cr4 P2 2.421320 1_555
Cr4 P2 2.421320 1_554
Cr4 P3 2.421400 1_555
Cr4 P3 2.421400 1_554
Cr4 P0 2.459314 1_555
Cr5 P0 2.346043 1_556
Cr5 P0 2.346043 1_555
Cr5 P2 2.365441 1_555
Cr5 P1 2.365531 1_545
Cr5 U0 3.008200 1_555
Cr5 U0 3.008200 1_556
P1 U0 2.846217 1_566
P1 U0 2.846217 1_565
P2 U0 2.846227 1_555
P2 U0 2.846227 1_556
P3 U0 2.846362 1_665
P3 U0 2.846362 1_666
