# generated using pymatgen
data_Na3LaTaSi2PO12
_symmetry_space_group_name_H-M   'P 1'
_cell_length_a   9.43696612
_cell_length_b   9.43696577
_cell_length_c   22.56097807
_cell_angle_alpha   90.56418547
_cell_angle_beta   89.43581454
_cell_angle_gamma   119.89248251
_symmetry_Int_Tables_number   1
_chemical_formula_structural   Na3LaTaSi2PO12
_chemical_formula_sum   'Na18 La6 Ta6 Si12 P6 O72'
_cell_volume   1741.78573743
_cell_formula_units_Z   6
loop_
 _symmetry_equiv_pos_site_id
 _symmetry_equiv_pos_as_xyz
  1  'x, y, z'
loop_
 _atom_site_type_symbol
 _atom_site_label
 _atom_site_symmetry_multiplicity
 _atom_site_fract_x
 _atom_site_fract_y
 _atom_site_fract_z
 _atom_site_occupancy
  Na  Na0  1  0.98779247  0.98731993  0.49948225  1
  Na  Na1  1  0.01268007  0.01220753  0.99948225  1
  Na  Na2  1  0.65445947  0.32065293  0.83281525  1
  Na  Na3  1  0.67934707  0.34554053  0.33281525  1
  Na  Na4  1  0.32112547  0.65398693  0.16614925  1
  Na  Na5  1  0.34601307  0.67887453  0.66614925  1
  Na  Na6  1  0.66714347  0.01690747  0.24919268  1
  Na  Na7  1  0.97660898  0.62834076  0.24485542  1
  Na  Na8  1  0.98309253  0.33285653  0.74919268  1
  Na  Na9  1  0.37165924  0.02339102  0.74485542  1
  Na  Na10  1  0.33381047  0.35024047  0.58252568  1
  Na  Na11  1  0.64327598  0.96167376  0.57818842  1
  Na  Na12  1  0.64975953  0.66618953  0.08252568  1
  Na  Na13  1  0.03832624  0.35672402  0.07818842  1
  Na  Na14  1  0.00047647  0.68357447  0.91585968  1
  Na  Na15  1  0.30994198  0.29500776  0.91152242  1
  Na  Na16  1  0.31642553  0.99952353  0.41585968  1
  Na  Na17  1  0.70499224  0.69005802  0.41152242  1
  La  La0  1  0.00302420  0.01598132  0.34882281  1
  La  La1  1  0.98401868  0.99697580  0.84882281  1
  La  La2  1  0.66969120  0.34931432  0.68215581  1
  La  La3  1  0.65068568  0.33030880  0.18215581  1
  La  La4  1  0.33635720  0.68264832  0.01548981  1
  La  La5  1  0.31735168  0.66364280  0.51548981  1
  Ta  Ta0  1  0.99611831  0.99063967  0.64866046  1
  Ta  Ta1  1  0.00936033  0.00388169  0.14866046  1
  Ta  Ta2  1  0.66278531  0.32397267  0.98199346  1
  Ta  Ta3  1  0.67602733  0.33721469  0.48199346  1
  Ta  Ta4  1  0.32945131  0.65730667  0.31532746  1
  Ta  Ta5  1  0.34269333  0.67054869  0.81532746  1
  Si  Si0  1  0.69232841  0.71191119  0.25211634  1
  Si  Si1  1  0.01487020  0.30992511  0.24751808  1
  Si  Si2  1  0.28808881  0.30767159  0.75211634  1
  Si  Si3  1  0.69007489  0.98512980  0.74751808  1
  Si  Si4  1  0.35899541  0.04524419  0.58544934  1
  Si  Si5  1  0.68153720  0.64325811  0.58085108  1
  Si  Si6  1  0.95475581  0.64100459  0.08544934  1
  Si  Si7  1  0.35674189  0.31846280  0.08085108  1
  Si  Si8  1  0.02566141  0.37857819  0.91878334  1
  Si  Si9  1  0.34820320  0.97659211  0.91418508  1
  Si  Si10  1  0.62142181  0.97433859  0.41878334  1
  Si  Si11  1  0.02340789  0.65179680  0.41418508  1
  P  P0  1  0.28587361  0.96888388  0.25147333  1
  P  P1  1  0.03111612  0.71412639  0.75147333  1
  P  P2  1  0.95254061  0.30221688  0.58480633  1
  P  P3  1  0.69778312  0.04745939  0.08480633  1
  P  P4  1  0.61920661  0.63555088  0.91814033  1
  P  P5  1  0.36444912  0.38079339  0.41814033  1
  O  O0  1  0.22931734  0.99462784  0.31132857  1
  O  O1  1  0.78664062  0.78799477  0.31272750  1
  O  O2  1  0.96110827  0.19537652  0.30404252  1
  O  O3  1  0.21200523  0.21335938  0.81272750  1
  O  O4  1  0.00537216  0.77068266  0.81132857  1
  O  O5  1  0.80462348  0.03889173  0.80404252  1
  O  O6  1  0.80116353  0.96577130  0.69043097  1
  O  O7  1  0.15215478  0.18896823  0.69636634  1
  O  O8  1  0.03185405  0.83557120  0.70098655  1
  O  O9  1  0.81103177  0.84784522  0.19636634  1
  O  O10  1  0.03422870  0.19883647  0.19043097  1
  O  O11  1  0.16442880  0.96814595  0.20098655  1
  O  O12  1  0.89598434  0.32796084  0.64466157  1
  O  O13  1  0.45330762  0.12132777  0.64606050  1
  O  O14  1  0.62777527  0.52870952  0.63737552  1
  O  O15  1  0.87867223  0.54669238  0.14606050  1
  O  O16  1  0.67203916  0.10401566  0.14466157  1
  O  O17  1  0.47129048  0.37222473  0.13737552  1
  O  O18  1  0.46783053  0.29910430  0.02376397  1
  O  O19  1  0.81882178  0.52230123  0.02969934  1
  O  O20  1  0.69852105  0.16890420  0.03431955  1
  O  O21  1  0.47769877  0.18117822  0.52969934  1
  O  O22  1  0.70089570  0.53216947  0.52376397  1
  O  O23  1  0.83109580  0.30147895  0.53431955  1
  O  O24  1  0.56265034  0.66129484  0.97799557  1
  O  O25  1  0.11997362  0.45466177  0.97939450  1
  O  O26  1  0.29444127  0.86204352  0.97070952  1
  O  O27  1  0.54533823  0.88002638  0.47939450  1
  O  O28  1  0.33870516  0.43734966  0.47799557  1
  O  O29  1  0.13795648  0.70555873  0.47070952  1
  O  O30  1  0.13449653  0.63243830  0.35709797  1
  O  O31  1  0.48548778  0.85563523  0.36303334  1
  O  O32  1  0.36518705  0.50223820  0.36765355  1
  O  O33  1  0.14436477  0.51451222  0.86303334  1
  O  O34  1  0.36756170  0.86550347  0.85709797  1
  O  O35  1  0.49776180  0.63481295  0.86765355  1
  O  O36  1  0.98218269  0.79763601  0.40746524  1
  O  O37  1  0.80138936  0.99615718  0.41413302  1
  O  O38  1  0.23598605  0.20196088  0.40820415  1
  O  O39  1  0.00384282  0.19861064  0.91413302  1
  O  O40  1  0.20236399  0.01781731  0.90746524  1
  O  O41  1  0.79803912  0.76401395  0.90820415  1
  O  O42  1  0.93780832  0.12799016  0.58289728  1
  O  O43  1  0.18180611  0.04821241  0.58900828  1
  O  O44  1  0.86048235  0.81547726  0.59028822  1
  O  O45  1  0.95178759  0.81819389  0.08900828  1
  O  O46  1  0.87200984  0.06219168  0.08289728  1
  O  O47  1  0.18452273  0.13951765  0.09028822  1
  O  O48  1  0.64884969  0.13096901  0.74079824  1
  O  O49  1  0.46805636  0.32949018  0.74746602  1
  O  O50  1  0.90265305  0.53529388  0.74153715  1
  O  O51  1  0.67050982  0.53194364  0.24746602  1
  O  O52  1  0.86903099  0.35115031  0.24079824  1
  O  O53  1  0.46470612  0.09734695  0.24153715  1
  O  O54  1  0.60447532  0.46132316  0.91623028  1
  O  O55  1  0.84847311  0.38154541  0.92234128  1
  O  O56  1  0.52714935  0.14881026  0.92362122  1
  O  O57  1  0.61845459  0.15152689  0.42234128  1
  O  O58  1  0.53867684  0.39552468  0.41623028  1
  O  O59  1  0.85118973  0.47285065  0.42362122  1
  O  O60  1  0.31551569  0.46430301  0.07413224  1
  O  O61  1  0.13472236  0.66282418  0.08080002  1
  O  O62  1  0.56931905  0.86862788  0.07487115  1
  O  O63  1  0.33717582  0.86527764  0.58080002  1
  O  O64  1  0.53569699  0.68448431  0.57413224  1
  O  O65  1  0.13137212  0.43068095  0.57487115  1
  O  O66  1  0.27114132  0.79465716  0.24956428  1
  O  O67  1  0.51513911  0.71487941  0.25567528  1
  O  O68  1  0.19381535  0.48214426  0.25695522  1
  O  O69  1  0.28512059  0.48486089  0.75567528  1
  O  O70  1  0.20534284  0.72885868  0.74956428  1
  O  O71  1  0.51785573  0.80618465  0.75695522  1
loop_
_geom_bond_atom_site_label_1
_geom_bond_atom_site_label_2
_geom_bond_distance
_geom_bond_site_symmetry_2
Na0 O42 2.466548 1_565
Na0 O44 2.518982 1_555
Na0 O43 2.600627 1_665
Na0 O37 2.650509 1_555
Na0 O36 2.711333 1_555
Na0 O38 3.014616 1_665
Na1 O46 2.466548 1_456
Na1 O47 2.518982 1_556
Na1 O45 2.600627 1_446
Na1 O39 2.650509 1_555
Na1 O40 2.711333 1_555
Na1 O41 3.014616 1_445
Na2 O54 2.466548 1_555
Na2 O56 2.518982 1_555
Na2 O55 2.600627 1_555
Na2 O49 2.650509 1_555
Na2 O48 2.711333 1_555
Na2 O50 3.014616 1_555
Na3 O58 2.466548 1_555
Na3 O59 2.518982 1_555
Na3 O57 2.600627 1_555
Na3 O51 2.650509 1_555
Na3 O52 2.711333 1_555
Na3 O53 3.014616 1_555
Na4 O66 2.466548 1_555
Na4 O68 2.518982 1_555
Na4 O67 2.600627 1_555
Na4 O61 2.650509 1_555
Na4 O60 2.711333 1_555
Na4 O62 3.014616 1_555
Na5 O70 2.466548 1_555
Na5 O71 2.518982 1_555
Na5 O69 2.600627 1_555
Na5 O63 2.650509 1_555
Na5 O64 2.711333 1_555
Na5 O65 3.014616 1_555
Na6 O53 2.389609 1_555
Na6 O67 2.476228 1_545
Na6 O16 2.497549 1_555
Na6 O2 2.726397 1_555
Na6 O52 2.762177 1_555
Na6 O9 2.810635 1_545
Na7 O52 2.287304 1_555
Na7 O15 2.390159 1_555
Na7 O66 2.419608 1_655
Na7 O51 2.560031 1_555
Na8 O50 2.389609 1_555
Na8 O69 2.476228 1_655
Na8 O12 2.497549 1_555
Na8 O5 2.726397 1_555
Na8 O48 2.762177 1_555
Na8 O7 2.810635 1_655
Na9 O48 2.287304 1_555
Na9 O13 2.390159 1_555
Na9 O70 2.419608 1_545
Na9 O49 2.560031 1_555
Na10 O65 2.389623 1_555
Na10 O43 2.476228 1_555
Na10 O28 2.497532 1_555
Na10 O14 2.726397 1_555
Na10 O64 2.762182 1_555
Na10 O21 2.810635 1_555
Na11 O64 2.287293 1_555
Na11 O27 2.390139 1_555
Na11 O42 2.419608 1_565
Na11 O63 2.560042 1_555
Na12 O62 2.389623 1_555
Na12 O45 2.476228 1_555
Na12 O24 2.497532 1_554
Na12 O17 2.726397 1_555
Na12 O60 2.762182 1_555
Na12 O19 2.810635 1_555
Na13 O60 2.287293 1_555
Na13 O25 2.390139 1_554
Na13 O46 2.419608 1_455
Na13 O61 2.560042 1_555
Na14 O41 2.389609 1_455
Na14 O55 2.476234 1_455
Na14 O4 2.497549 1_555
Na14 O26 2.726397 1_555
Na14 O40 2.762177 1_565
Na14 O33 2.810635 1_555
Na15 O40 2.287304 1_555
Na15 O3 2.390159 1_555
Na15 O54 2.419614 1_555
Na15 O39 2.560031 1_555
Na16 O38 2.389609 1_565
Na16 O57 2.476234 1_565
Na16 O0 2.497549 1_555
Na16 O29 2.726397 1_555
Na16 O36 2.762177 1_455
Na16 O31 2.810635 1_555
Na17 O36 2.287304 1_555
Na17 O1 2.390159 1_555
Na17 O58 2.419614 1_555
Na17 O37 2.560031 1_555
La0 O2 2.179966 1_455
La0 O1 2.254119 1_445
La0 O37 2.328564 1_445
La0 O36 2.383158 1_445
La0 O0 2.388852 1_545
La0 O38 2.423652 1_555
La1 O5 2.179966 1_565
La1 O3 2.254120 1_665
La1 O39 2.328564 1_665
La1 O40 2.383158 1_665
La1 O4 2.388852 1_655
La1 O41 2.423652 1_555
La2 O14 2.179966 1_555
La2 O13 2.254119 1_555
La2 O49 2.328564 1_555
La2 O48 2.383158 1_555
La2 O12 2.388852 1_555
La2 O50 2.423652 1_555
La3 O17 2.179966 1_555
La3 O15 2.254120 1_555
La3 O51 2.328564 1_555
La3 O52 2.383158 1_555
La3 O16 2.388852 1_555
La3 O53 2.423652 1_555
La4 O26 2.179966 1_554
La4 O25 2.254119 1_554
La4 O61 2.328564 1_555
La4 O60 2.383158 1_555
La4 O24 2.388852 1_554
La4 O62 2.423652 1_555
La5 O29 2.179966 1_555
La5 O27 2.254120 1_555
La5 O63 2.328564 1_555
La5 O64 2.383158 1_555
La5 O28 2.388852 1_555
La5 O65 2.423652 1_555
O0 P0 1.508651 1_555
O1 Si0 1.595383 1_555
O2 Si1 1.587435 1_655
O3 Si2 1.595383 1_555
O4 P1 1.508651 1_555
O5 Si3 1.587435 1_545
O6 Si3 1.717804 1_555
O6 Ta0 1.966675 1_555
O7 Si2 1.747609 1_555
O7 Ta0 2.018458 1_445
O8 P1 1.621270 1_555
O8 Ta0 2.045142 1_455
O9 Si0 1.747608 1_555
O9 Ta1 2.018458 1_665
O10 Si1 1.717804 1_555
O10 Ta1 1.966675 1_555
O11 P0 1.621270 1_555
O11 Ta1 2.045142 1_565
O12 P2 1.508651 1_555
O13 Si4 1.595383 1_555
O14 Si5 1.587435 1_555
O15 Si6 1.595383 1_555
O16 P3 1.508651 1_555
O17 Si7 1.587435 1_555
O18 Si7 1.717804 1_555
O18 Ta2 1.966675 1_554
O19 Si6 1.747609 1_555
O19 Ta2 2.018458 1_554
O20 P3 1.621270 1_555
O20 Ta2 2.045142 1_554
O21 Si4 1.747608 1_555
O21 Ta3 2.018458 1_555
O22 Si5 1.717804 1_555
O22 Ta3 1.966675 1_555
O23 P2 1.621270 1_555
O23 Ta3 2.045142 1_555
O24 P4 1.508651 1_555
O25 Si8 1.595383 1_555
O26 Si9 1.587435 1_555
O27 Si10 1.595383 1_555
O28 P5 1.508651 1_555
O29 Si11 1.587435 1_555
O30 Si11 1.717804 1_555
O30 Ta4 1.966675 1_555
O31 Si10 1.747609 1_555
O31 Ta4 2.018458 1_555
O32 P5 1.621270 1_555
O32 Ta4 2.045142 1_555
O33 Si8 1.747608 1_555
O33 Ta5 2.018458 1_555
O34 Si9 1.717804 1_555
O34 Ta5 1.966675 1_555
O35 P4 1.621270 1_555
O35 Ta5 2.045142 1_555
O36 Si11 1.614757 1_655
O37 Si10 1.608151 1_555
O38 P5 1.525344 1_555
O39 Si8 1.608151 1_555
O40 Si9 1.614757 1_545
O41 P4 1.525344 1_555
O42 P2 1.579672 1_555
O42 Ta0 2.224645 1_545
O43 Si4 1.687378 1_555
O43 Ta0 2.048425 1_445
O44 Si5 1.674237 1_555
O44 Ta0 1.996619 1_555
O45 Si6 1.687378 1_555
O45 Ta1 2.048425 1_665
O46 P3 1.579672 1_555
O46 Ta1 2.224645 1_655
O47 Si7 1.674237 1_555
O47 Ta1 1.996619 1_555
O48 Si3 1.614757 1_545
O49 Si2 1.608151 1_555
O50 P1 1.525344 1_655
O51 Si0 1.608151 1_555
O52 Si1 1.614757 1_655
O53 P0 1.525344 1_545
O54 P4 1.579686 1_555
O54 Ta2 2.224645 1_555
O55 Si8 1.687363 1_655
O55 Ta2 2.048425 1_555
O56 Si9 1.674235 1_545
O56 Ta2 1.996619 1_555
O57 Si10 1.687363 1_545
O57 Ta3 2.048425 1_555
O58 P5 1.579686 1_555
O58 Ta3 2.224645 1_555
O59 Si11 1.674235 1_655
O59 Ta3 1.996619 1_555
O60 Si7 1.614770 1_555
O61 Si6 1.608136 1_455
O62 P3 1.525336 1_565
O63 Si4 1.608136 1_565
O64 Si5 1.614770 1_555
O65 P2 1.525336 1_455
O66 P0 1.579672 1_555
O66 Ta4 2.224645 1_555
O67 Si0 1.687378 1_555
O67 Ta4 2.048425 1_555
O68 Si1 1.674237 1_555
O68 Ta4 1.996619 1_555
O69 Si2 1.687378 1_555
O69 Ta5 2.048425 1_555
O70 P1 1.579672 1_555
O70 Ta5 2.224645 1_555
O71 Si3 1.674237 1_555
O71 Ta5 1.996619 1_555
