# generated using pymatgen
data_MgZn2(Ni2S5)2
_symmetry_space_group_name_H-M   'P 1'
_cell_length_a   3.65225694
_cell_length_b   6.43438025
_cell_length_c   13.33959379
_cell_angle_alpha   90.22538723
_cell_angle_beta   89.45827982
_cell_angle_gamma   90.21358753
_symmetry_Int_Tables_number   1
_chemical_formula_structural   MgZn2(Ni2S5)2
_chemical_formula_sum   'Mg1 Zn2 Ni4 S10'
_cell_volume   313.46201453
_cell_formula_units_Z   1
loop_
 _symmetry_equiv_pos_site_id
 _symmetry_equiv_pos_as_xyz
  1  'x, y, z'
loop_
 _atom_site_type_symbol
 _atom_site_label
 _atom_site_symmetry_multiplicity
 _atom_site_fract_x
 _atom_site_fract_y
 _atom_site_fract_z
 _atom_site_occupancy
  Mg  Mg0  1  0.74926700  0.35797600  0.25070000  1
  Zn  Zn0  1  0.75186000  0.92473100  0.24776100  1
  Zn  Zn1  1  0.24937600  0.08718300  0.75136600  1
  Ni  Ni0  1  0.24635200  0.49027300  0.09944000  1
  Ni  Ni1  1  0.75228200  0.51725200  0.89329600  1
  Ni  Ni2  1  0.74828600  0.51608000  0.60625500  1
  Ni  Ni3  1  0.25353200  0.49313800  0.40083500  1
  S  S0  1  0.74978100  0.33633200  0.74970700  1
  S  S1  1  0.25164000  0.66540700  0.25021200  1
  S  S2  1  0.74769900  0.65068300  0.04793500  1
  S  S3  1  0.24959800  0.35508300  0.94606100  1
  S  S4  1  0.75353700  0.65359500  0.45285800  1
  S  S5  1  0.24942900  0.35189500  0.55226400  1
  S  S6  1  0.26476500  0.15458400  0.35732300  1
  S  S7  1  0.74764800  0.83380900  0.67054900  1
  S  S8  1  0.75394200  0.83530400  0.82888200  1
  S  S9  1  0.23099900  0.15167700  0.14455700  1
loop_
_geom_bond_atom_site_label_1
_geom_bond_atom_site_label_2
_geom_bond_distance
_geom_bond_site_symmetry_2
Mg0 S6 2.610875 1_555
Mg0 S9 2.611098 1_655
Mg0 S1 2.691343 1_555
Mg0 S1 2.693014 1_655
Mg0 S6 2.713666 1_655
Mg0 S9 2.714190 1_555
Mg0 Zn0 2.787835 1_545
Mg0 Ni3 2.823984 1_555
Mg0 Ni0 2.832777 1_655
Mg0 Ni3 2.864140 1_655
Mg0 Ni0 2.874878 1_555
Ni0 S2 2.204040 1_555
Ni0 S2 2.213010 1_455
Ni0 S3 2.220043 1_554
Ni0 S9 2.262889 1_555
Ni0 S1 2.301748 1_555
Ni1 S3 2.218542 1_555
Ni1 S3 2.219763 1_655
Ni1 S8 2.222618 1_555
Ni1 S2 2.231173 1_556
Ni1 S0 2.237581 1_555
Ni2 S7 2.213890 1_555
Ni2 S5 2.226825 1_555
Ni2 S5 2.228961 1_655
Ni2 S4 2.232445 1_555
Ni2 S0 2.239903 1_555
Ni3 S4 2.206050 1_455
Ni3 S4 2.210567 1_555
Ni3 S5 2.218183 1_555
Ni3 S6 2.252602 1_555
Ni3 S1 2.298613 1_555
S0 Zn1 2.426582 1_555
S0 Zn1 2.433655 1_655
S1 Zn0 2.469719 1_555
S1 Zn0 2.478172 1_455
S6 Zn0 2.727933 1_545
S6 Zn0 2.801171 1_445
S7 S8 2.112424 1_555
S7 Zn1 2.665155 1_565
S7 Zn1 2.679405 1_665
S8 Zn1 2.631711 1_665
S8 Zn1 2.676426 1_565
S9 Zn0 2.653516 1_445
S9 Zn0 2.780740 1_545
