# generated using pymatgen
data_K2Na2Sm2MgNb2O10
_symmetry_space_group_name_H-M   'P 1'
_cell_length_a   5.73019657
_cell_length_b   5.87393584
_cell_length_c   8.72770058
_cell_angle_alpha   85.00341567
_cell_angle_beta   90.00000000
_cell_angle_gamma   90.00000000
_symmetry_Int_Tables_number   1
_chemical_formula_structural   K2Na2Sm2MgNb2O10
_chemical_formula_sum   'K2 Na2 Sm2 Mg1 Nb2 O10'
_cell_volume   292.64765468
_cell_formula_units_Z   1
loop_
 _symmetry_equiv_pos_site_id
 _symmetry_equiv_pos_as_xyz
  1  'x, y, z'
loop_
 _atom_site_type_symbol
 _atom_site_label
 _atom_site_symmetry_multiplicity
 _atom_site_fract_x
 _atom_site_fract_y
 _atom_site_fract_z
 _atom_site_occupancy
  K  K0  1  0.25000000  0.81877898  0.09625830  1
  K  K1  1  0.75000000  0.24569612  0.00442634  1
  Na  Na0  1  0.75000000  0.76517127  0.24687508  1
  Na  Na1  1  0.25000000  0.11856142  0.74448079  1
  Sm  Sm0  1  0.75000000  0.24526213  0.50636533  1
  Sm  Sm1  1  0.25000000  0.75646396  0.48591033  1
  Mg  Mg0  1  0.25000000  0.53987607  0.82954216  1
  Nb  Nb0  1  0.25000000  0.28753714  0.25871601  1
  Nb  Nb1  1  0.75000000  0.72464846  0.74830607  1
  O  O0  1  0.75000000  0.76059317  0.96023442  1
  O  O1  1  0.52741067  0.94302262  0.62222826  1
  O  O2  1  0.01995983  0.49820540  0.34300428  1
  O  O3  1  0.51628529  0.46271524  0.69143041  1
  O  O4  1  0.98371471  0.46271524  0.69143041  1
  O  O5  1  0.97258933  0.94302262  0.62222826  1
  O  O6  1  0.01997062  0.04518955  0.30991821  1
  O  O7  1  0.48004017  0.49820540  0.34300428  1
  O  O8  1  0.25000000  0.33914567  0.03728487  1
  O  O9  1  0.48002938  0.04518955  0.30991821  1
loop_
_geom_bond_atom_site_label_1
_geom_bond_atom_site_label_2
_geom_bond_distance
_geom_bond_site_symmetry_2
K0 O9 2.723130 1_565
K0 O6 2.723130 1_565
K0 O8 2.907730 1_555
K0 Mg0 2.960899 1_554
K0 O2 3.035568 1_555
K0 O7 3.035568 1_555
K0 O8 3.055107 1_565
K0 O0 3.131400 1_554
K0 O0 3.131400 1_454
K1 O0 2.908547 1_544
K1 O8 2.935943 1_655
K1 O8 2.935943 1_555
K1 O0 3.015459 1_554
K1 O3 3.205359 1_554
K1 O4 3.205359 1_554
K1 O9 3.215918 1_555
K1 O6 3.215918 1_655
Na0 O2 2.307977 1_655
Na0 O7 2.307977 1_555
Na0 O6 2.357742 1_665
Na0 O9 2.357742 1_565
Na0 O0 2.504199 1_554
Na1 O5 2.218142 1_445
Na1 O1 2.218142 1_545
Na1 O4 2.542876 1_455
Na1 O3 2.542876 1_555
Mg0 O4 2.020358 1_455
Mg0 O3 2.020358 1_555
Mg0 O8 2.074903 1_556
Nb0 O8 1.929956 1_555
Nb0 O6 1.962845 1_555
Nb0 O9 1.962845 1_555
Nb0 O7 1.992138 1_555
Nb0 O2 1.992138 1_555
Nb1 O0 1.879841 1_555
Nb1 O5 2.058436 1_555
Nb1 O1 2.058436 1_555
Nb1 O3 2.130777 1_555
Nb1 O4 2.130777 1_555
O1 Sm1 2.317397 1_555
O1 Sm0 2.342756 1_565
O2 Sm1 2.433937 1_555
O2 Sm0 2.502858 1_455
O3 Sm0 2.528492 1_555
O3 Sm1 2.825559 1_555
O4 Sm0 2.528492 1_555
O4 Sm1 2.825559 1_655
O5 Sm1 2.317397 1_655
O5 Sm0 2.342756 1_565
O6 Sm1 2.553279 1_545
O6 Sm0 2.657987 1_455
O7 Sm1 2.433937 1_555
O7 Sm0 2.502858 1_555
O9 Sm1 2.553279 1_545
O9 Sm0 2.657987 1_555
