# generated using pymatgen
data_Ti3V5O16
_symmetry_space_group_name_H-M   'P 1'
_cell_length_a   5.89523092
_cell_length_b   5.95215513
_cell_length_c   9.08389150
_cell_angle_alpha   90.00284831
_cell_angle_beta   90.62774910
_cell_angle_gamma   119.89378535
_symmetry_Int_Tables_number   1
_chemical_formula_structural   Ti3V5O16
_chemical_formula_sum   'Ti3 V5 O16'
_cell_volume   276.31637267
_cell_formula_units_Z   1
loop_
 _symmetry_equiv_pos_site_id
 _symmetry_equiv_pos_as_xyz
  1  'x, y, z'
loop_
 _atom_site_type_symbol
 _atom_site_label
 _atom_site_symmetry_multiplicity
 _atom_site_fract_x
 _atom_site_fract_y
 _atom_site_fract_z
 _atom_site_occupancy
  Ti  Ti0  1  0.14883500  0.82001200  0.20107600  1
  Ti  Ti1  1  0.20738700  0.34469500  0.20762600  1
  Ti  Ti2  1  0.32310000  0.13106900  0.70569900  1
  V  V0  1  0.32704400  0.65904500  0.48691800  1
  V  V1  1  0.66839400  0.85702200  0.21824100  1
  V  V2  1  0.68111300  0.32794100  0.98554400  1
  V  V3  1  0.84247700  0.17817400  0.70276700  1
  V  V4  1  0.80178300  0.65511900  0.72108900  1
  O  O0  1  0.15104300  0.81374400  0.60520600  1
  O  O1  1  0.06036200  0.53772000  0.34235000  1
  O  O2  1  0.33552100  0.67209100  0.10030400  1
  O  O3  1  0.01524100  0.01310300  0.30956700  1
  O  O4  1  0.99731800  0.99993300  0.81075200  1
  O  O5  1  0.15934700  0.33234300  0.60282900  1
  O  O6  1  0.49349400  0.95653000  0.33962500  1
  O  O7  1  0.48540000  0.52729600  0.34148600  1
  O  O8  1  0.34516700  0.16716400  0.10060200  1
  O  O9  1  0.63845900  0.82536500  0.60451600  1
  O  O10  1  0.52564100  0.47661200  0.84303400  1
  O  O11  1  0.53113900  0.04884600  0.83663300  1
  O  O12  1  0.65334300  0.33033100  0.60196200  1
  O  O13  1  0.82381200  0.66453900  0.10443500  1
  O  O14  1  0.95056100  0.47428000  0.83836100  1
  O  O15  1  0.83401700  0.18722100  0.10509800  1
loop_
_geom_bond_atom_site_label_1
_geom_bond_atom_site_label_2
_geom_bond_distance
_geom_bond_site_symmetry_2
O0 Ti2 1.870693 1_565
O0 V0 2.013860 1_555
O0 V4 2.085364 1_455
O1 V0 1.881687 1_555
O1 Ti0 1.970659 1_555
O1 Ti1 2.141193 1_555
O2 Ti0 1.952497 1_555
O2 Ti1 1.966608 1_555
O2 V1 2.002734 1_555
O3 V1 1.949751 1_445
O3 Ti1 1.957225 1_555
O3 Ti0 1.957438 1_545
O4 Ti2 1.937637 1_665
O4 V4 1.955884 1_555
O4 V3 1.966420 1_565
O5 V3 1.866626 1_455
O5 V0 1.993527 1_555
O5 Ti2 2.091297 1_555
O6 V1 1.806464 1_555
O6 V0 2.045846 1_555
O6 Ti0 2.161202 1_555
O7 Ti1 1.877931 1_555
O7 V0 1.997094 1_555
O7 V1 2.045767 1_555
O8 Ti1 1.895848 1_555
O8 Ti0 2.020316 1_545
O8 V2 2.021575 1_554
O9 V0 1.907065 1_555
O9 V4 2.006373 1_555
O9 V3 2.027736 1_565
O10 V4 1.822535 1_555
O10 V2 2.020282 1_555
O10 Ti2 2.175172 1_555
O11 Ti2 1.929950 1_555
O11 V2 1.969939 1_555
O11 V3 2.020069 1_555
O12 Ti2 1.955408 1_555
O12 V3 1.971345 1_555
O12 V4 1.991679 1_555
O13 Ti0 1.869232 1_655
O13 V2 2.046435 1_554
O13 V1 2.070698 1_555
O14 V2 1.933119 1_555
O14 V3 1.972972 1_555
O14 V4 1.995842 1_555
O15 V2 1.850603 1_554
O15 V1 1.995447 1_545
O15 Ti1 2.118803 1_655
