# generated using pymatgen
data_Sm3(SiIr)2
_symmetry_space_group_name_H-M   'P 1'
_cell_length_a   4.12430685
_cell_length_b   5.69514611
_cell_length_c   13.33828209
_cell_angle_alpha   90.00000000
_cell_angle_beta   90.00000000
_cell_angle_gamma   111.22858382
_symmetry_Int_Tables_number   1
_chemical_formula_structural   Sm3(SiIr)2
_chemical_formula_sum   'Sm6 Si4 Ir4'
_cell_volume   292.03735729
_cell_formula_units_Z   2
loop_
 _symmetry_equiv_pos_site_id
 _symmetry_equiv_pos_as_xyz
  1  'x, y, z'
loop_
 _atom_site_type_symbol
 _atom_site_label
 _atom_site_symmetry_multiplicity
 _atom_site_fract_x
 _atom_site_fract_y
 _atom_site_fract_z
 _atom_site_occupancy
  Sm  Sm0  1  0.22855240  0.45710279  0.60442428  1
  Sm  Sm1  1  0.48074961  0.96149822  0.25000000  1
  Sm  Sm2  1  0.77144760  0.54289721  0.39557572  1
  Sm  Sm3  1  0.22855240  0.45710279  0.89557572  1
  Sm  Sm4  1  0.51925039  0.03850178  0.75000000  1
  Sm  Sm5  1  0.77144760  0.54289721  0.10442428  1
  Si  Si0  1  0.94028547  0.88057194  0.58782062  1
  Si  Si1  1  0.94028547  0.88057194  0.91217938  1
  Si  Si2  1  0.05971453  0.11942806  0.41217938  1
  Si  Si3  1  0.05971453  0.11942806  0.08782062  1
  Ir  Ir0  1  0.18172268  0.36344635  0.25000000  1
  Ir  Ir1  1  0.81827732  0.63655365  0.75000000  1
  Ir  Ir2  1  0.50000000  0.00000000  0.00000000  1
  Ir  Ir3  1  0.50000000  0.00000000  0.50000000  1
loop_
_geom_bond_atom_site_label_1
_geom_bond_atom_site_label_2
_geom_bond_distance
_geom_bond_site_symmetry_2
Si0 Si2 2.663897 1_665
Si0 Sm0 3.058644 1_555
Si0 Sm0 3.058653 1_655
Si0 Sm0 3.068627 1_665
Si0 Sm4 3.103998 1_665
Si0 Sm4 3.103998 1_565
Si0 Sm2 3.128684 1_555
Si1 Si3 2.663897 1_666
Si1 Sm3 3.058644 1_555
Si1 Sm3 3.058653 1_655
Si1 Sm3 3.068627 1_665
Si1 Sm4 3.103998 1_665
Si1 Sm4 3.103998 1_565
Si1 Sm5 3.128684 1_556
Si2 Sm2 3.058644 1_555
Si2 Sm2 3.058653 1_455
Si2 Sm2 3.068627 1_445
Si2 Sm1 3.103998 1_445
Si2 Sm1 3.103998 1_545
Si2 Sm0 3.128684 1_555
Si3 Sm5 3.058644 1_555
Si3 Sm5 3.058653 1_455
Si3 Sm5 3.068627 1_445
Si3 Sm1 3.103998 1_445
Si3 Sm1 3.103998 1_545
Si3 Sm3 3.128684 1_554
Ir0 Si2 2.521412 1_555
Ir0 Si3 2.521412 1_555
Ir0 Sm1 2.967430 1_445
Ir0 Sm1 2.967436 1_545
Ir0 Sm5 2.988365 1_555
Ir0 Sm2 2.988365 1_555
Ir0 Sm2 2.988368 1_455
Ir0 Sm5 2.988368 1_455
Ir0 Sm1 3.174873 1_555
Ir1 Si1 2.521412 1_555
Ir1 Si0 2.521412 1_555
Ir1 Sm4 2.967430 1_665
Ir1 Sm4 2.967436 1_565
Ir1 Sm0 2.988365 1_555
Ir1 Sm3 2.988365 1_555
Ir1 Sm3 2.988368 1_655
Ir1 Sm0 2.988368 1_655
Ir1 Sm4 3.174873 1_555
Ir2 Si3 2.454904 1_555
Ir2 Si1 2.454904 1_544
Ir2 Si1 2.454908 1_444
Ir2 Si3 2.454908 1_655
Ir2 Sm5 3.200993 1_555
Ir2 Sm3 3.200993 1_544
Ir2 Sm1 3.340829 1_545
Ir2 Sm4 3.340829 1_554
Ir2 Sm5 3.475765 1_545
Ir2 Sm3 3.475765 1_554
Ir2 Sm5 3.475769 1_445
Ir2 Sm3 3.475769 1_654
Ir3 Si2 2.454904 1_555
Ir3 Si0 2.454904 1_545
Ir3 Si2 2.454908 1_655
Ir3 Si0 2.454908 1_445
Ir3 Sm2 3.200993 1_555
Ir3 Sm0 3.200993 1_545
Ir3 Sm1 3.340829 1_545
Ir3 Sm4 3.340829 1_555
Ir3 Sm2 3.475765 1_545
Ir3 Sm0 3.475765 1_555
Ir3 Sm2 3.475769 1_445
Ir3 Sm0 3.475769 1_655
