# generated using pymatgen
data_KTh6F25
_symmetry_space_group_name_H-M   'P 1'
_cell_length_a   9.70441373
_cell_length_b   9.70876666
_cell_length_c   9.70499247
_cell_angle_alpha   50.60733421
_cell_angle_beta   50.62343512
_cell_angle_gamma   50.60829355
_symmetry_Int_Tables_number   1
_chemical_formula_structural   KTh6F25
_chemical_formula_sum   'K1 Th6 F25'
_cell_volume   503.35971246
_cell_formula_units_Z   1
loop_
 _symmetry_equiv_pos_site_id
 _symmetry_equiv_pos_as_xyz
  1  'x, y, z'
loop_
 _atom_site_type_symbol
 _atom_site_label
 _atom_site_symmetry_multiplicity
 _atom_site_fract_x
 _atom_site_fract_y
 _atom_site_fract_z
 _atom_site_occupancy
  K  K0  1  0.00333497  0.00582866  0.99366306  1
  Th  Th0  1  0.09008079  0.59310137  0.59155762  1
  Th  Th1  1  0.59104661  0.09189595  0.59197174  1
  Th  Th2  1  0.40847798  0.90987168  0.40770038  1
  Th  Th3  1  0.40794564  0.40924534  0.90883787  1
  Th  Th4  1  0.90899350  0.40879089  0.40803776  1
  Th  Th5  1  0.59089539  0.59277787  0.09096458  1
  F  F0  1  0.74785371  0.74855601  0.30947205  1
  F  F1  1  0.31098094  0.74898945  0.74748682  1
  F  F2  1  0.74813400  0.31058205  0.74812511  1
  F  F3  1  0.25155704  0.68834010  0.25208553  1
  F  F4  1  0.25092535  0.25309266  0.68882301  1
  F  F5  1  0.68705277  0.25337130  0.25250887  1
  F  F6  1  0.44949125  0.45148970  0.45093347  1
  F  F7  1  0.50080887  0.50184801  0.99772796  1
  F  F8  1  0.50120737  0.99830355  0.50113367  1
  F  F9  1  0.99729963  0.50201403  0.50099789  1
  F  F10  1  0.44361243  0.87577194  0.87478565  1
  F  F11  1  0.87411907  0.87597422  0.44477283  1
  F  F12  1  0.87350879  0.44619676  0.87424716  1
  F  F13  1  0.12661329  0.55440435  0.12653090  1
  F  F14  1  0.55308997  0.12843258  0.12723400  1
  F  F15  1  0.12721356  0.12765069  0.55375760  1
  F  F16  1  0.82296766  0.17671893  0.50108511  1
  F  F17  1  0.17562577  0.50223637  0.82298132  1
  F  F18  1  0.50037590  0.82458510  0.17553582  1
  F  F19  1  0.17688401  0.82457275  0.49851739  1
  F  F20  1  0.82330761  0.49966992  0.17672732  1
  F  F21  1  0.49861807  0.17758712  0.82405752  1
  F  F22  1  0.78842977  0.79043955  0.78949859  1
  F  F23  1  0.21001087  0.21088174  0.21041625  1
  F  F24  1  0.54956742  0.55019735  0.54961215  1
loop_
_geom_bond_atom_site_label_1
_geom_bond_atom_site_label_2
_geom_bond_distance
_geom_bond_site_symmetry_2
F0 Th2 2.360715 1_555
F0 Th4 2.363786 1_555
F0 K0 3.206433 1_664
F1 Th2 2.364004 1_555
F1 Th3 2.364695 1_555
F1 K0 3.146683 1_565
F2 Th4 2.365795 1_555
F2 Th3 2.366066 1_555
F2 K0 3.131243 1_655
F3 Th5 2.362239 1_555
F3 Th0 2.363615 1_555
F3 K0 3.165893 1_564
F4 Th0 2.366220 1_555
F4 Th1 2.366748 1_555
F4 K0 3.094475 1_555
F5 Th1 2.362877 1_555
F5 Th5 2.362917 1_555
F5 K0 3.166158 1_654
F6 Th0 2.484643 1_555
F6 Th1 2.486444 1_555
F6 Th5 2.488615 1_555
F7 Th5 2.315094 1_556
F7 Th3 2.316003 1_555
F8 Th1 2.315264 1_565
F8 Th2 2.318032 1_555
F9 Th0 2.316552 1_655
F9 Th4 2.317174 1_555
F10 Th5 2.344666 1_556
F10 Th1 2.345450 1_565
F10 K0 3.150840 1_565
F11 Th0 2.341164 1_655
F11 Th1 2.343994 1_565
F11 K0 3.219324 1_664
F12 Th5 2.344551 1_556
F12 Th0 2.345241 1_655
F12 K0 3.152215 1_655
F13 Th3 2.341036 1_554
F13 Th4 2.342854 1_455
F13 K0 3.229835 1_564
F14 Th2 2.341560 1_545
F14 Th3 2.342812 1_554
F14 K0 3.218567 1_654
F15 Th4 2.344957 1_455
F15 Th2 2.345200 1_545
F15 K0 3.155042 1_555
F16 Th1 2.330946 1_555
F16 Th4 2.331822 1_555
F17 Th0 2.330908 1_555
F17 Th3 2.331855 1_555
F18 Th5 2.330413 1_555
F18 Th2 2.332136 1_555
F19 Th2 2.331599 1_555
F19 Th0 2.331809 1_555
F20 Th4 2.330797 1_555
F20 Th5 2.331530 1_555
F21 Th3 2.329830 1_555
F21 Th1 2.331917 1_555
F22 Th1 2.516375 1_565
F22 Th5 2.518710 1_556
F22 Th0 2.519543 1_655
F23 Th4 2.519590 1_455
F23 Th2 2.519684 1_545
F23 Th3 2.524365 1_554
F24 Th3 2.483529 1_555
F24 Th4 2.484832 1_555
F24 Th2 2.487039 1_555
