# generated using pymatgen
data_Zr2InC
_symmetry_space_group_name_H-M   'P 1'
_cell_length_a   3.36336405
_cell_length_b   3.36336405
_cell_length_c   15.03351860
_cell_angle_alpha   90.00000000
_cell_angle_beta   90.00000000
_cell_angle_gamma   119.99998122
_symmetry_Int_Tables_number   1
_chemical_formula_structural   Zr2InC
_chemical_formula_sum   'Zr4 In2 C2'
_cell_volume   147.27841701
_cell_formula_units_Z   2
loop_
 _symmetry_equiv_pos_site_id
 _symmetry_equiv_pos_as_xyz
  1  'x, y, z'
loop_
 _atom_site_type_symbol
 _atom_site_label
 _atom_site_symmetry_multiplicity
 _atom_site_fract_x
 _atom_site_fract_y
 _atom_site_fract_z
 _atom_site_occupancy
  Zr  Zr0  1  0.33333300  0.66666700  0.08232908  1
  Zr  Zr1  1  0.33333300  0.66666700  0.41767092  1
  Zr  Zr2  1  0.66666700  0.33333300  0.58232908  1
  Zr  Zr3  1  0.66666700  0.33333300  0.91767092  1
  In  In0  1  0.33333300  0.66666700  0.75000000  1
  In  In1  1  0.66666700  0.33333300  0.25000000  1
  C  C0  1  0.00000000  0.00000000  0.00000000  1
  C  C1  1  0.00000000  0.00000000  0.50000000  1
loop_
_geom_bond_atom_site_label_1
_geom_bond_atom_site_label_2
_geom_bond_distance
_geom_bond_site_symmetry_2
In0 Zr2 3.181915 1_455
In0 Zr2 3.181915 1_565
In0 Zr3 3.181915 1_565
In0 Zr3 3.181915 1_455
In0 Zr2 3.181918 1_555
In0 Zr3 3.181918 1_555
In1 Zr1 3.181915 1_545
In1 Zr0 3.181915 1_545
In1 Zr1 3.181915 1_655
In1 Zr0 3.181915 1_655
In1 Zr0 3.181918 1_555
In1 Zr1 3.181918 1_555
C0 Zr3 2.302742 1_454
C0 Zr0 2.302742 1_545
C0 Zr3 2.302745 1_554
C0 Zr3 2.302745 1_444
C0 Zr0 2.302745 1_445
C0 Zr0 2.302745 1_555
C1 Zr2 2.302742 1_455
C1 Zr1 2.302742 1_545
C1 Zr1 2.302745 1_445
C1 Zr1 2.302745 1_555
C1 Zr2 2.302745 1_445
C1 Zr2 2.302745 1_555
