# generated using pymatgen
data_Sr2MgCo2O5
_symmetry_space_group_name_H-M   'P 1'
_cell_length_a   8.31413585
_cell_length_b   5.26568480
_cell_length_c   6.25769526
_cell_angle_alpha   66.78716427
_cell_angle_beta   44.89030262
_cell_angle_gamma   51.18415545
_symmetry_Int_Tables_number   1
_chemical_formula_structural   Sr2MgCo2O5
_chemical_formula_sum   'Sr2 Mg1 Co2 O5'
_cell_volume   150.02719930
_cell_formula_units_Z   1
loop_
 _symmetry_equiv_pos_site_id
 _symmetry_equiv_pos_as_xyz
  1  'x, y, z'
loop_
 _atom_site_type_symbol
 _atom_site_label
 _atom_site_symmetry_multiplicity
 _atom_site_fract_x
 _atom_site_fract_y
 _atom_site_fract_z
 _atom_site_occupancy
  Sr  Sr0  1  0.14525842  0.56997701  0.46876861  1
  Sr  Sr1  1  0.68039625  0.43378706  0.64674888  1
  Mg  Mg0  1  0.58438401  0.83161162  0.13765100  1
  Co  Co0  1  0.97265197  0.04265766  0.93717187  1
  Co  Co1  1  0.24071678  0.23740519  0.00479085  1
  O  O0  1  0.62064202  0.17942980  0.11659534  1
  O  O1  1  0.20642998  0.63854583  0.00327332  1
  O  O2  1  0.62651213  0.88979815  0.77036578  1
  O  O3  1  0.17696725  0.03790037  0.44799446  1
  O  O4  1  0.91938219  0.40977830  0.06052387  1
loop_
_geom_bond_atom_site_label_1
_geom_bond_atom_site_label_2
_geom_bond_distance
_geom_bond_site_symmetry_2
Mg0 O0 1.976935 1_565
Mg0 O2 1.984385 1_554
Mg0 O4 2.027039 1_555
Mg0 O3 2.038300 1_565
Co0 O0 1.919301 1_556
Co0 O1 1.933209 1_646
Co0 O4 2.036559 1_556
Co0 O3 2.212669 1_655
Co1 O1 1.943255 1_555
Co1 O2 1.969785 1_544
Co1 O4 1.993081 1_455
Co1 O3 2.322692 1_555
O0 Sr0 2.397612 1_555
O0 Sr1 2.519022 1_554
O1 Sr1 2.404428 1_554
O1 Sr0 2.485188 1_555
O2 Sr1 2.487874 1_555
O2 Sr0 2.620280 1_655
O2 Sr1 2.894013 1_565
O3 Sr0 2.582761 1_545
O3 Sr1 2.629881 1_455
O3 Sr0 2.692355 1_555
O4 Sr1 2.672833 1_555
O4 Sr0 2.760585 1_654
