# generated using pymatgen
data_NaTaZnP2SO12
_symmetry_space_group_name_H-M   'P 1'
_cell_length_a   8.73626641
_cell_length_b   8.73626613
_cell_length_c   22.66771407
_cell_angle_alpha   89.74764752
_cell_angle_beta   90.25235249
_cell_angle_gamma   119.79565743
_symmetry_Int_Tables_number   1
_chemical_formula_structural   NaTaZnP2SO12
_chemical_formula_sum   'Na6 Ta6 Zn6 P12 S6 O72'
_cell_volume   1501.32607857
_cell_formula_units_Z   6
loop_
 _symmetry_equiv_pos_site_id
 _symmetry_equiv_pos_as_xyz
  1  'x, y, z'
loop_
 _atom_site_type_symbol
 _atom_site_label
 _atom_site_symmetry_multiplicity
 _atom_site_fract_x
 _atom_site_fract_y
 _atom_site_fract_z
 _atom_site_occupancy
  Na  Na0  1  0.99115020  0.98525182  0.49044548  1
  Na  Na1  1  0.01474818  0.00884980  0.99044548  1
  Na  Na2  1  0.65781720  0.31858482  0.82377848  1
  Na  Na3  1  0.68141518  0.34218280  0.32377848  1
  Na  Na4  1  0.32448320  0.65191882  0.15711248  1
  Na  Na5  1  0.34808118  0.67551680  0.65711248  1
  Ta  Ta0  1  0.99839643  0.00197131  0.64586802  1
  Ta  Ta1  1  0.99802869  0.00160357  0.14586802  1
  Ta  Ta2  1  0.66506343  0.33530431  0.97920102  1
  Ta  Ta3  1  0.66469569  0.33493657  0.47920102  1
  Ta  Ta4  1  0.33172943  0.66863831  0.31253502  1
  Ta  Ta5  1  0.33136169  0.66827057  0.81253502  1
  Zn  Zn0  1  0.97958873  0.98872828  0.35168442  1
  Zn  Zn1  1  0.01127172  0.02041127  0.85168442  1
  Zn  Zn2  1  0.64625573  0.32206128  0.68501742  1
  Zn  Zn3  1  0.67793872  0.35374427  0.18501742  1
  Zn  Zn4  1  0.31292173  0.65539528  0.01835142  1
  Zn  Zn5  1  0.34460472  0.68707827  0.51835142  1
  P  P0  1  0.70854065  0.70686093  0.25193423  1
  P  P1  1  0.99628400  0.28766677  0.25258713  1
  P  P2  1  0.29313907  0.29145935  0.75193423  1
  P  P3  1  0.71233323  0.00371600  0.75258713  1
  P  P4  1  0.37520765  0.04019393  0.58526723  1
  P  P5  1  0.66295100  0.62099977  0.58592013  1
  P  P6  1  0.95980607  0.62479235  0.08526723  1
  P  P7  1  0.37900023  0.33704900  0.08592013  1
  P  P8  1  0.04187365  0.37352793  0.91860123  1
  P  P9  1  0.32961700  0.95433377  0.91925413  1
  P  P10  1  0.62647207  0.95812635  0.41860123  1
  P  P11  1  0.04566623  0.67038300  0.41925413  1
  S  S0  1  0.29045086  0.00227279  0.25134746  1
  S  S1  1  0.99772721  0.70954914  0.75134746  1
  S  S2  1  0.95711786  0.33560579  0.58468046  1
  S  S3  1  0.66439421  0.04288214  0.08468046  1
  S  S4  1  0.62378386  0.66893979  0.91801446  1
  S  S5  1  0.33106021  0.37621614  0.41801446  1
  O  O0  1  0.21053071  0.02362768  0.30393513  1
  O  O1  1  0.81752672  0.78618028  0.30595134  1
  O  O2  1  0.98385360  0.18540522  0.30705595  1
  O  O3  1  0.21381972  0.18247328  0.80595134  1
  O  O4  1  0.97637232  0.78946929  0.80393513  1
  O  O5  1  0.81459478  0.01614640  0.80705595  1
  O  O6  1  0.80241907  0.97235565  0.69562769  1
  O  O7  1  0.17122388  0.19786446  0.69550553  1
  O  O8  1  0.02840080  0.82439906  0.69695745  1
  O  O9  1  0.80213554  0.82877612  0.19550553  1
  O  O10  1  0.02764435  0.19758093  0.19562769  1
  O  O11  1  0.17560094  0.97159920  0.19695745  1
  O  O12  1  0.87719771  0.35696068  0.63726813  1
  O  O13  1  0.48419372  0.11951328  0.63928434  1
  O  O14  1  0.65052060  0.51873822  0.64038895  1
  O  O15  1  0.88048672  0.51580628  0.13928434  1
  O  O16  1  0.64303932  0.12280229  0.13726813  1
  O  O17  1  0.48126178  0.34947940  0.14038895  1
  O  O18  1  0.46908607  0.30568865  0.02896069  1
  O  O19  1  0.83789088  0.53119746  0.02883853  1
  O  O20  1  0.69506780  0.15773206  0.03029045  1
  O  O21  1  0.46880254  0.16210912  0.52883853  1
  O  O22  1  0.69431135  0.53091393  0.52896069  1
  O  O23  1  0.84226794  0.30493220  0.53029045  1
  O  O24  1  0.54386371  0.69029468  0.97060213  1
  O  O25  1  0.15085972  0.45284728  0.97261834  1
  O  O26  1  0.31718660  0.85207222  0.97372295  1
  O  O27  1  0.54715272  0.84914028  0.47261834  1
  O  O28  1  0.30970532  0.45613629  0.47060213  1
  O  O29  1  0.14792778  0.68281340  0.47372295  1
  O  O30  1  0.13575207  0.63902265  0.36229469  1
  O  O31  1  0.50455688  0.86453146  0.36217253  1
  O  O32  1  0.36173380  0.49106606  0.36362445  1
  O  O33  1  0.13546854  0.49544312  0.86217253  1
  O  O34  1  0.36097735  0.86424793  0.86229469  1
  O  O35  1  0.50893394  0.63826620  0.86362445  1
  O  O36  1  0.02105124  0.82801503  0.41006936  1
  O  O37  1  0.81387810  0.99635605  0.41138149  1
  O  O38  1  0.18742560  0.19859276  0.40900284  1
  O  O39  1  0.00364395  0.18612190  0.91138149  1
  O  O40  1  0.17198497  0.97894876  0.91006936  1
  O  O41  1  0.80140724  0.81257440  0.90900284  1
  O  O42  1  0.96360999  0.16310138  0.58846395  1
  O  O43  1  0.19089071  0.03600399  0.59099931  1
  O  O44  1  0.83902792  0.80959572  0.59118321  1
  O  O45  1  0.96399601  0.80910929  0.09099931  1
  O  O46  1  0.83689862  0.03639001  0.08846395  1
  O  O47  1  0.19040428  0.16097208  0.09118321  1
  O  O48  1  0.68771824  0.16134803  0.74340236  1
  O  O49  1  0.48054510  0.32968905  0.74471449  1
  O  O50  1  0.85409260  0.53192576  0.74233584  1
  O  O51  1  0.67031095  0.51945490  0.24471449  1
  O  O52  1  0.83865197  0.31228176  0.24340236  1
  O  O53  1  0.46807424  0.14590740  0.24233584  1
  O  O54  1  0.63027699  0.49643438  0.92179695  1
  O  O55  1  0.85755771  0.36933699  0.92433231  1
  O  O56  1  0.50569492  0.14292872  0.92451621  1
  O  O57  1  0.63066301  0.14244229  0.42433231  1
  O  O58  1  0.50356562  0.36972301  0.42179695  1
  O  O59  1  0.85707128  0.49430508  0.42451621  1
  O  O60  1  0.35438424  0.49468203  0.07673636  1
  O  O61  1  0.14721110  0.66302305  0.07804849  1
  O  O62  1  0.52075860  0.86525976  0.07566984  1
  O  O63  1  0.33697695  0.85278890  0.57804849  1
  O  O64  1  0.50531797  0.64561576  0.57673636  1
  O  O65  1  0.13474024  0.47924140  0.57566984  1
  O  O66  1  0.29694299  0.82976838  0.25513095  1
  O  O67  1  0.52422371  0.70267099  0.25766631  1
  O  O68  1  0.17236092  0.47626272  0.25785021  1
  O  O69  1  0.29732901  0.47577629  0.75766631  1
  O  O70  1  0.17023162  0.70305701  0.75513095  1
  O  O71  1  0.52373728  0.82763908  0.75785021  1
loop_
_geom_bond_atom_site_label_1
_geom_bond_atom_site_label_2
_geom_bond_distance
_geom_bond_site_symmetry_2
Na0 O36 2.378553 1_655
Na0 O37 2.396493 1_555
Na0 O38 2.577520 1_665
Na0 O44 2.702687 1_555
Na0 O43 2.764388 1_665
Na0 O42 2.795581 1_565
Na1 O40 2.378553 1_545
Na1 O39 2.396493 1_555
Na1 O41 2.577520 1_445
Na1 O47 2.702687 1_556
Na1 O45 2.764388 1_446
Na1 O46 2.795581 1_456
Na2 O48 2.378553 1_555
Na2 O49 2.396493 1_555
Na2 O50 2.577520 1_555
Na2 O56 2.702687 1_555
Na2 O55 2.764388 1_555
Na2 O54 2.795581 1_555
Na3 O52 2.378553 1_555
Na3 O51 2.396493 1_555
Na3 O53 2.577520 1_555
Na3 O59 2.702687 1_555
Na3 O57 2.764388 1_555
Na3 O58 2.795581 1_555
Na4 O60 2.378553 1_555
Na4 O61 2.396493 1_555
Na4 O62 2.577520 1_555
Na4 O68 2.702687 1_555
Na4 O67 2.764388 1_555
Na4 O66 2.795581 1_555
Na5 O64 2.378553 1_555
Na5 O63 2.396493 1_555
Na5 O65 2.577520 1_555
Na5 O71 2.702687 1_555
Na5 O69 2.764388 1_555
Na5 O70 2.795581 1_555
O0 S0 1.442914 1_555
O0 Zn0 2.177169 1_445
O1 P0 1.492483 1_555
O1 Zn0 1.929716 1_555
O2 P1 1.493124 1_555
O2 Zn0 1.974451 1_545
O3 P2 1.492483 1_555
O3 Zn1 1.929716 1_555
O4 S1 1.442914 1_555
O4 Zn1 2.177169 1_665
O5 P3 1.493124 1_555
O5 Zn1 1.974452 1_655
O6 P3 1.608679 1_565
O6 Ta0 1.960794 1_565
O7 P2 1.603377 1_555
O7 Ta0 1.977001 1_455
O8 S1 1.524263 1_455
O8 Ta0 2.049897 1_465
O9 P0 1.603377 1_555
O9 Ta1 1.977001 1_565
O10 P1 1.608679 1_455
O10 Ta1 1.960794 1_455
O11 S0 1.524263 1_565
O11 Ta1 2.049897 1_465
O12 S2 1.442914 1_555
O12 Zn2 2.177169 1_555
O13 P4 1.492483 1_555
O13 Zn2 1.929716 1_555
O14 P5 1.493124 1_555
O14 Zn2 1.974451 1_555
O15 P6 1.492483 1_555
O15 Zn3 1.929716 1_555
O16 S3 1.442914 1_555
O16 Zn3 2.177169 1_555
O17 P7 1.493124 1_555
O17 Zn3 1.974452 1_555
O18 P7 1.608679 1_555
O18 Ta2 1.960794 1_554
O19 P6 1.603377 1_555
O19 Ta2 1.977001 1_554
O20 S3 1.524263 1_555
O20 Ta2 2.049897 1_554
O21 P4 1.603377 1_555
O21 Ta3 1.977001 1_555
O22 P5 1.608679 1_555
O22 Ta3 1.960794 1_555
O23 S2 1.524263 1_555
O23 Ta3 2.049897 1_555
O24 S4 1.442914 1_555
O24 Zn4 2.177169 1_556
O25 P8 1.492483 1_555
O25 Zn4 1.929716 1_556
O26 P9 1.493124 1_555
O26 Zn4 1.974451 1_556
O27 P10 1.492483 1_555
O27 Zn5 1.929716 1_555
O28 S5 1.442914 1_555
O28 Zn5 2.177169 1_555
O29 P11 1.493124 1_555
O29 Zn5 1.974452 1_555
O30 P11 1.608679 1_555
O30 Ta4 1.960794 1_555
O31 P10 1.603377 1_555
O31 Ta4 1.977001 1_555
O32 S5 1.524263 1_555
O32 Ta4 2.049897 1_555
O33 P8 1.603377 1_555
O33 Ta5 1.977001 1_555
O34 P9 1.608679 1_555
O34 Ta5 1.960794 1_555
O35 S4 1.524263 1_555
O35 Ta5 2.049897 1_555
O36 P11 1.509114 1_555
O36 Zn0 2.083001 1_455
O37 P10 1.509072 1_555
O37 Zn0 2.011298 1_555
O38 S5 1.445571 1_555
O38 Zn0 2.244598 1_445
O39 P8 1.509072 1_555
O39 Zn1 2.011298 1_555
O40 P9 1.509114 1_555
O40 Zn1 2.083001 1_565
O41 S4 1.445571 1_555
O41 Zn1 2.244598 1_665
O42 S2 1.538025 1_555
O42 Ta0 2.042697 1_555
O43 P4 1.598226 1_555
O43 Ta0 1.995401 1_455
O44 P5 1.605132 1_555
O44 Ta0 1.994308 1_565
O45 P6 1.598226 1_555
O45 Ta1 1.995401 1_565
O46 S3 1.538025 1_555
O46 Ta1 2.042697 1_555
O47 P7 1.605132 1_555
O47 Ta1 1.994308 1_455
O48 P3 1.509114 1_555
O48 Zn2 2.083001 1_555
O49 P2 1.509072 1_555
O49 Zn2 2.011298 1_555
O50 S1 1.445571 1_555
O50 Zn2 2.244598 1_555
O51 P0 1.509072 1_555
O51 Zn3 2.011298 1_555
O52 P1 1.509114 1_555
O52 Zn3 2.083001 1_555
O53 S0 1.445571 1_555
O53 Zn3 2.244598 1_555
O54 S4 1.538037 1_555
O54 Ta2 2.042697 1_555
O55 P8 1.598211 1_655
O55 Ta2 1.995401 1_555
O56 P9 1.605129 1_545
O56 Ta2 1.994308 1_555
O57 P10 1.598211 1_545
O57 Ta3 1.995401 1_555
O58 S5 1.538037 1_555
O58 Ta3 2.042697 1_555
O59 P11 1.605129 1_655
O59 Ta3 1.994308 1_555
O60 P7 1.509125 1_555
O60 Zn4 2.083001 1_555
O61 P6 1.509058 1_455
O61 Zn4 2.011298 1_555
O62 S3 1.445565 1_565
O62 Zn4 2.244598 1_555
O63 P4 1.509058 1_565
O63 Zn5 2.011298 1_555
O64 P5 1.509125 1_555
O64 Zn5 2.083001 1_555
O65 S2 1.445565 1_455
O65 Zn5 2.244598 1_555
O66 S0 1.538025 1_565
O66 Ta4 2.042697 1_555
O67 P0 1.598226 1_555
O67 Ta4 1.995401 1_555
O68 P1 1.605132 1_455
O68 Ta4 1.994308 1_555
O69 P2 1.598226 1_555
O69 Ta5 1.995401 1_555
O70 S1 1.538025 1_455
O70 Ta5 2.042697 1_555
O71 P3 1.605132 1_565
O71 Ta5 1.994308 1_555
