# generated using pymatgen
data_Pr2Mg(MoO3)4
_symmetry_space_group_name_H-M   'P 1'
_cell_length_a   5.54478793
_cell_length_b   5.68100079
_cell_length_c   8.00872524
_cell_angle_alpha   90.10773078
_cell_angle_beta   89.84382786
_cell_angle_gamma   88.34146559
_symmetry_Int_Tables_number   1
_chemical_formula_structural   Pr2Mg(MoO3)4
_chemical_formula_sum   'Pr2 Mg1 Mo4 O12'
_cell_volume   252.16729434
_cell_formula_units_Z   1
loop_
 _symmetry_equiv_pos_site_id
 _symmetry_equiv_pos_as_xyz
  1  'x, y, z'
loop_
 _atom_site_type_symbol
 _atom_site_label
 _atom_site_symmetry_multiplicity
 _atom_site_fract_x
 _atom_site_fract_y
 _atom_site_fract_z
 _atom_site_occupancy
  Pr  Pr0  1  0.01583000  0.93579800  0.74970100  1
  Pr  Pr1  1  0.50544300  0.55437700  0.24979400  1
  Mg  Mg0  1  0.50601400  0.46700200  0.75353900  1
  Mo  Mo0  1  0.99868100  0.48977400  0.00343400  1
  Mo  Mo1  1  0.99950200  0.48791200  0.50102300  1
  Mo  Mo2  1  0.50826200  0.00981900  0.49577600  1
  Mo  Mo3  1  0.50792000  0.00954800  0.99936600  1
  O  O0  1  0.09665400  0.48073500  0.24249400  1
  O  O1  1  0.20670000  0.20695000  0.93298700  1
  O  O2  1  0.21266300  0.18249900  0.55292000  1
  O  O3  1  0.31826800  0.69011600  0.56783700  1
  O  O4  1  0.31314000  0.69801200  0.93459300  1
  O  O5  1  0.42113700  0.96459600  0.25646000  1
  O  O6  1  0.60379200  0.07288800  0.74559900  1
  O  O7  1  0.68139500  0.30546100  0.04467800  1
  O  O8  1  0.67721100  0.30543600  0.45278200  1
  O  O9  1  0.78985000  0.78799700  0.03818900  1
  O  O10  1  0.78294400  0.80181500  0.47261200  1
  O  O11  1  0.87546400  0.52545300  0.75621500  1
loop_
_geom_bond_atom_site_label_1
_geom_bond_atom_site_label_2
_geom_bond_distance
_geom_bond_site_symmetry_2
Mg0 O11 2.084887 1_555
Mg0 O3 2.200298 1_555
Mg0 O4 2.207194 1_555
Mg0 O6 2.289092 1_555
Mg0 O1 2.671941 1_555
Mg0 O7 2.682016 1_556
Mo0 O0 1.991917 1_655
Mo0 O1 2.028798 1_654
Mo0 O9 2.042426 1_555
Mo0 O7 2.098888 1_555
Mo0 O11 2.104464 1_554
Mo0 O4 2.204594 1_654
Mo1 O2 2.113480 1_655
Mo1 O8 2.127649 1_555
Mo1 O10 2.133724 1_555
Mo1 O0 2.138012 1_655
Mo1 O11 2.162794 1_555
Mo1 O3 2.202335 1_655
Mo2 O10 1.908903 1_545
Mo2 O2 1.938911 1_555
Mo2 O8 1.976866 1_555
Mo2 O5 1.995790 1_545
Mo2 O6 2.103824 1_555
Mo2 O3 2.202944 1_545
Mo3 O7 1.994030 1_556
Mo3 O9 2.003692 1_546
Mo3 O1 2.056325 1_555
Mo3 O5 2.130707 1_546
Mo3 O6 2.133178 1_555
Mo3 O4 2.162891 1_545
O0 Pr1 2.317684 1_555
O1 Pr0 2.396242 1_545
O2 Pr0 2.393013 1_545
O3 Pr0 2.593290 1_555
O3 Pr1 2.844549 1_555
O4 Pr0 2.574294 1_555
O4 Pr1 2.854336 1_556
O5 Pr1 2.364048 1_555
O6 Pr0 2.392659 1_645
O7 Pr1 2.356411 1_555
O8 Pr1 2.342881 1_555
O9 Pr1 2.689852 1_555
O9 Pr0 2.768668 1_654
O10 Pr0 2.690265 1_655
O10 Pr1 2.767429 1_555
O11 Pr0 2.479534 1_655
