# generated using pymatgen
data_Ti3Fe3O
_symmetry_space_group_name_H-M   'P 1'
_cell_length_a   8.15280118
_cell_length_b   8.15280118
_cell_length_c   8.15280118
_cell_angle_alpha   60.00000000
_cell_angle_beta   60.00000000
_cell_angle_gamma   60.00000000
_symmetry_Int_Tables_number   1
_chemical_formula_structural   Ti3Fe3O
_chemical_formula_sum   'Ti12 Fe12 O4'
_cell_volume   383.18240287
_cell_formula_units_Z   4
loop_
 _symmetry_equiv_pos_site_id
 _symmetry_equiv_pos_as_xyz
  1  'x, y, z'
loop_
 _atom_site_type_symbol
 _atom_site_label
 _atom_site_symmetry_multiplicity
 _atom_site_fract_x
 _atom_site_fract_y
 _atom_site_fract_z
 _atom_site_occupancy
  Ti  Ti0  1  0.31767600  0.68232400  0.31767600  1
  Ti  Ti1  1  0.56767600  0.93232400  0.56767600  1
  Ti  Ti2  1  0.31767600  0.31767600  0.68232400  1
  Ti  Ti3  1  0.68232400  0.31767600  0.31767600  1
  Ti  Ti4  1  0.31767600  0.68232400  0.68232400  1
  Ti  Ti5  1  0.68232400  0.68232400  0.31767600  1
  Ti  Ti6  1  0.93232400  0.93232400  0.56767600  1
  Ti  Ti7  1  0.56767600  0.56767600  0.93232400  1
  Ti  Ti8  1  0.68232400  0.31767600  0.68232400  1
  Ti  Ti9  1  0.93232400  0.56767600  0.56767600  1
  Ti  Ti10  1  0.56767600  0.93232400  0.93232400  1
  Ti  Ti11  1  0.93232400  0.56767600  0.93232400  1
  Fe  Fe0  1  0.91545000  0.91545000  0.91545000  1
  Fe  Fe1  1  0.99634900  0.33455000  0.33455000  1
  Fe  Fe2  1  0.33455000  0.33455000  0.99634900  1
  Fe  Fe3  1  0.33455000  0.99634900  0.33455000  1
  Fe  Fe4  1  0.91545000  0.91545000  0.25365100  1
  Fe  Fe5  1  0.91545000  0.25365100  0.91545000  1
  Fe  Fe6  1  0.25365100  0.91545000  0.91545000  1
  Fe  Fe7  1  0.33455000  0.33455000  0.33455000  1
  Fe  Fe8  1  0.12500000  0.12500000  0.62500000  1
  Fe  Fe9  1  0.12500000  0.62500000  0.12500000  1
  Fe  Fe10  1  0.62500000  0.12500000  0.12500000  1
  Fe  Fe11  1  0.12500000  0.12500000  0.12500000  1
  O  O0  1  0.62500000  0.62500000  0.12500000  1
  O  O1  1  0.62500000  0.12500000  0.62500000  1
  O  O2  1  0.12500000  0.62500000  0.62500000  1
  O  O3  1  0.62500000  0.62500000  0.62500000  1
loop_
_geom_bond_atom_site_label_1
_geom_bond_atom_site_label_2
_geom_bond_distance
_geom_bond_site_symmetry_2
Fe0 Fe9 2.504479 1_656
Fe0 Fe8 2.504479 1_665
Fe0 Fe10 2.504479 1_566
Fe0 Ti11 2.704768 1_555
Fe0 Ti10 2.704768 1_555
Fe0 Ti6 2.704768 1_555
Fe0 Fe6 2.757286 1_655
Fe0 Fe5 2.757286 1_565
Fe0 Fe4 2.757286 1_556
Fe0 Ti8 3.020833 1_565
Fe0 Ti4 3.020833 1_655
Fe0 Ti5 3.020833 1_556
Fe1 Fe11 2.504477 1_655
Fe1 Fe9 2.504484 1_655
Fe1 Fe8 2.504484 1_655
Fe1 Ti3 2.704760 1_555
Fe1 Ti8 2.704764 1_555
Fe1 Ti5 2.704764 1_555
Fe1 Fe2 2.757286 1_654
Fe1 Fe3 2.757286 1_645
Fe1 Fe7 2.757286 1_655
Fe1 Ti11 3.020830 1_554
Fe1 Ti6 3.020830 1_545
Fe1 Ti9 3.020837 1_555
Fe2 Fe9 2.504484 1_556
Fe2 Ti2 2.704760 1_555
Fe2 Ti4 2.704764 1_555
Fe2 Ti8 2.704764 1_555
Fe2 Fe3 2.757286 1_546
Fe2 Fe7 2.757286 1_556
Fe2 Ti10 3.020830 1_545
Fe2 Ti11 3.020830 1_455
Fe2 Ti7 3.020837 1_555
Fe3 Fe8 2.504484 1_565
Fe3 Ti0 2.704760 1_555
Fe3 Ti4 2.704764 1_555
Fe3 Ti5 2.704764 1_555
Fe3 Fe7 2.757286 1_565
Fe3 Ti6 3.020830 1_455
Fe3 Ti10 3.020830 1_554
Fe3 Ti1 3.020837 1_555
Fe4 Fe9 2.504484 1_655
Fe4 Ti6 2.704760 1_555
Fe4 Ti1 2.704764 1_555
Fe4 Ti9 2.704764 1_555
Fe4 Fe6 2.757286 1_654
Fe4 Fe5 2.757286 1_564
Fe4 Ti3 3.020830 1_565
Fe4 Ti0 3.020830 1_655
Fe4 Ti5 3.020837 1_555
Fe5 Fe8 2.504484 1_655
Fe5 Ti11 2.704760 1_555
Fe5 Ti7 2.704764 1_555
Fe5 Ti9 2.704764 1_555
Fe5 Fe6 2.757286 1_645
Fe5 Ti2 3.020830 1_655
Fe5 Ti3 3.020830 1_556
Fe5 Ti8 3.020837 1_555
Fe6 Fe9 2.504484 1_556
Fe6 Fe8 2.504484 1_565
Fe6 Ti10 2.704760 1_555
Fe6 Ti7 2.704764 1_555
Fe6 Ti1 2.704764 1_555
Fe6 Ti0 3.020830 1_556
Fe6 Ti2 3.020830 1_565
Fe6 Ti4 3.020837 1_555
Fe7 Fe8 2.504479 1_555
Fe7 Fe9 2.504479 1_555
Fe7 Ti3 2.704768 1_555
Fe7 Ti0 2.704768 1_555
Fe7 Ti2 2.704768 1_555
Fe7 Ti7 3.020833 1_554
Fe7 Ti1 3.020833 1_545
Fe7 Ti9 3.020833 1_455
Fe8 Ti6 3.014862 1_445
Fe8 Ti1 3.014862 1_545
Fe8 Ti8 3.014862 1_455
Fe8 Ti4 3.014862 1_545
Fe8 Ti9 3.014862 1_455
Fe8 Ti2 3.014862 1_555
Fe9 Ti11 3.014862 1_454
Fe9 Ti5 3.014862 1_455
Fe9 Ti9 3.014862 1_455
Fe9 Ti7 3.014862 1_554
Fe9 Ti4 3.014862 1_554
Fe9 Ti0 3.014862 1_555
Fe10 Fe7 2.504479 1_555
Fe10 Fe3 2.504484 1_545
Fe10 Fe2 2.504484 1_554
Fe10 Fe5 2.504484 1_554
Fe10 Fe4 2.504484 1_545
Fe10 Ti8 3.014862 1_554
Fe10 Ti1 3.014862 1_545
Fe10 Ti10 3.014862 1_544
Fe10 Ti7 3.014862 1_554
Fe10 Ti5 3.014862 1_545
Fe10 Ti3 3.014862 1_555
Fe11 Fe4 2.504477 1_445
Fe11 Fe6 2.504477 1_544
Fe11 Fe5 2.504477 1_454
Fe11 Fe3 2.504477 1_545
Fe11 Fe2 2.504477 1_554
Fe11 Ti6 3.014862 1_445
Fe11 Ti11 3.014862 1_454
Fe11 Ti0 3.014862 1_545
Fe11 Ti10 3.014862 1_544
Fe11 Ti2 3.014862 1_554
Fe11 Ti3 3.014862 1_455
O0 Ti3 2.142684 1_555
O0 Ti0 2.142684 1_555
O0 Ti10 2.142684 1_554
O0 Ti7 2.142684 1_554
O0 Ti11 2.142684 1_554
O0 Ti5 2.142684 1_555
O1 Ti2 2.142684 1_555
O1 Ti6 2.142684 1_545
O1 Ti10 2.142684 1_545
O1 Ti3 2.142684 1_555
O1 Ti1 2.142684 1_545
O1 Ti8 2.142684 1_555
O2 Ti2 2.142684 1_555
O2 Ti0 2.142684 1_555
O2 Ti11 2.142684 1_455
O2 Ti9 2.142684 1_455
O2 Ti6 2.142684 1_455
O2 Ti4 2.142684 1_555
O3 Ti5 2.142684 1_555
O3 Ti4 2.142684 1_555
O3 Ti8 2.142684 1_555
O3 Ti7 2.142684 1_555
O3 Ti1 2.142684 1_555
O3 Ti9 2.142684 1_555
