# generated using pymatgen
data_K2AgBi
_symmetry_space_group_name_H-M   'P 1'
_cell_length_a   6.38135701
_cell_length_b   6.80535150
_cell_length_c   6.80535176
_cell_angle_alpha   103.56288899
_cell_angle_beta   90.00000000
_cell_angle_gamma   90.00000000
_symmetry_Int_Tables_number   1
_chemical_formula_structural   K2AgBi
_chemical_formula_sum   'K4 Ag2 Bi2'
_cell_volume   287.29692503
_cell_formula_units_Z   2
loop_
 _symmetry_equiv_pos_site_id
 _symmetry_equiv_pos_as_xyz
  1  'x, y, z'
loop_
 _atom_site_type_symbol
 _atom_site_label
 _atom_site_symmetry_multiplicity
 _atom_site_fract_x
 _atom_site_fract_y
 _atom_site_fract_z
 _atom_site_occupancy
  K  K0  1  0.25093927  0.67367099  0.01901208  1
  K  K1  1  0.75093927  0.32632901  0.98098792  1
  K  K2  1  0.24906073  0.01901208  0.67367099  1
  K  K3  1  0.74906073  0.98098792  0.32632901  1
  Ag  Ag0  1  0.00000000  0.49935659  0.50064341  1
  Ag  Ag1  1  0.50000000  0.50064341  0.49935659  1
  Bi  Bi0  1  0.25000000  0.22874174  0.22874174  1
  Bi  Bi1  1  0.75000000  0.77125826  0.77125826  1
loop_
_geom_bond_atom_site_label_1
_geom_bond_atom_site_label_2
_geom_bond_distance
_geom_bond_site_symmetry_2
K0 K2 3.692869 1_564
K0 K1 3.943092 1_454
K0 K1 3.943092 1_554
K0 K3 4.098840 1_555
K0 K3 4.117461 1_455
K0 K2 4.523406 1_554
K0 K2 4.523406 1_565
K1 K3 3.692869 1_546
K1 K2 4.098840 1_655
K1 K2 4.117461 1_555
K1 K3 4.523406 1_556
K1 K3 4.523406 1_545
K2 K3 3.943092 1_445
K2 K3 3.943092 1_545
Ag0 Bi1 2.786095 1_455
Ag0 Bi0 2.786095 1_555
Ag0 Ag1 3.190708 1_555
Ag0 Ag1 3.190708 1_455
Ag0 K3 3.801746 1_445
Ag0 K0 3.801746 1_556
Ag0 K2 3.803398 1_565
Ag0 K1 3.803398 1_454
Ag0 K2 4.050150 1_555
Ag0 K1 4.050150 1_455
Ag0 K3 4.066730 1_455
Ag0 K0 4.066730 1_555
Ag1 Bi0 2.786095 1_555
Ag1 Bi1 2.786095 1_555
Ag1 K2 3.801746 1_565
Ag1 K1 3.801746 1_554
Ag1 K3 3.803398 1_545
Ag1 K0 3.803398 1_556
Ag1 K3 4.050150 1_555
Ag1 K0 4.050150 1_555
Ag1 K2 4.066730 1_555
Ag1 K1 4.066730 1_555
Bi0 K0 3.637627 1_555
Bi0 K2 3.637627 1_555
Bi0 K0 3.711815 1_545
Bi0 K2 3.711815 1_554
Bi0 K3 3.735133 1_545
Bi0 K1 3.735133 1_454
Bi0 K3 3.745359 1_445
Bi0 K1 3.745359 1_554
Bi1 K1 3.637627 1_555
Bi1 K3 3.637627 1_555
Bi1 K1 3.711815 1_565
Bi1 K3 3.711815 1_556
Bi1 K2 3.735133 1_665
Bi1 K0 3.735133 1_556
Bi1 K2 3.745359 1_565
Bi1 K0 3.745359 1_656
