# generated using pymatgen
data_Cs2FeH12(SO7)2
_symmetry_space_group_name_H-M   'P 1'
_cell_length_a   6.46504857
_cell_length_b   9.40319937
_cell_length_c   13.01446800
_cell_angle_alpha   90.00000000
_cell_angle_beta   90.00000000
_cell_angle_gamma   106.19661320
_symmetry_Int_Tables_number   1
_chemical_formula_structural   Cs2FeH12(SO7)2
_chemical_formula_sum   'Cs4 Fe2 H24 S4 O28'
_cell_volume   759.77567772
_cell_formula_units_Z   2
loop_
 _symmetry_equiv_pos_site_id
 _symmetry_equiv_pos_as_xyz
  1  'x, y, z'
loop_
 _atom_site_type_symbol
 _atom_site_label
 _atom_site_symmetry_multiplicity
 _atom_site_fract_x
 _atom_site_fract_y
 _atom_site_fract_z
 _atom_site_occupancy
  Cs  Cs0  1  0.35239200  0.12732200  0.35678600  1
  Cs  Cs1  1  0.64760900  0.37267800  0.85678600  1
  Cs  Cs2  1  0.64760900  0.87267800  0.64321300  1
  Cs  Cs3  1  0.35239100  0.62732200  0.14321400  1
  Fe  Fe0  1  0.00000000  0.50000000  0.50000000  1
  Fe  Fe1  1  0.00000000  0.00000000  0.00000000  1
  H  H0  1  0.31259500  0.52519100  0.64137000  1
  H  H1  1  0.68740600  0.97480900  0.14137100  1
  H  H2  1  0.68740600  0.47480900  0.35863000  1
  H  H3  1  0.31259500  0.02519100  0.85863000  1
  H  H4  1  0.33396200  0.39922000  0.56557500  1
  H  H5  1  0.66603700  0.10078100  0.06557600  1
  H  H6  1  0.92601600  0.21886700  0.40091500  1
  H  H7  1  0.07398300  0.28113200  0.90091500  1
  H  H8  1  0.07398300  0.78113300  0.59908500  1
  H  H9  1  0.92601700  0.71886700  0.09908500  1
  H  H10  1  0.09329100  0.73848400  0.36954100  1
  H  H11  1  0.90670900  0.76151600  0.86954100  1
  H  H12  1  0.90670800  0.26151600  0.63045900  1
  H  H13  1  0.09329100  0.23848300  0.13045900  1
  H  H14  1  0.32525300  0.71434500  0.39893600  1
  H  H15  1  0.67474700  0.78565500  0.89893600  1
  H  H16  1  0.67474600  0.28565500  0.60106500  1
  H  H17  1  0.32525300  0.21434500  0.10106400  1
  H  H18  1  0.01897200  0.15733900  0.81493100  1
  H  H19  1  0.98102700  0.34266000  0.31493100  1
  H  H20  1  0.33396300  0.89922000  0.93442400  1
  H  H21  1  0.66603700  0.60078000  0.43442400  1
  H  H22  1  0.01897200  0.65734000  0.68506900  1
  H  H23  1  0.98102800  0.84266100  0.18506900  1
  S  S0  1  0.25915900  0.60514700  0.85245800  1
  S  S1  1  0.74084000  0.89485300  0.35245800  1
  S  S2  1  0.25915900  0.10514800  0.64754200  1
  S  S3  1  0.74084000  0.39485300  0.14754200  1
  O  O0  1  0.83013300  0.83611800  0.88695800  1
  O  O1  1  0.83013500  0.33611800  0.61304200  1
  O  O2  1  0.00751500  0.82387300  0.11159800  1
  O  O3  1  0.99248500  0.67612700  0.61159900  1
  O  O4  1  0.99248500  0.17612700  0.88840200  1
  O  O5  1  0.00751400  0.32387300  0.38840200  1
  O  O6  1  0.29406900  0.99389000  0.93204800  1
  O  O7  1  0.16986600  0.16388200  0.11304200  1
  O  O8  1  0.70593100  0.00611000  0.06795200  1
  O  O9  1  0.29406800  0.49389000  0.56795200  1
  O  O10  1  0.94138900  0.85840900  0.31727800  1
  O  O11  1  0.05861200  0.64159100  0.81727800  1
  O  O12  1  0.05861200  0.14159100  0.68272300  1
  O  O13  1  0.94138900  0.35840900  0.18272300  1
  O  O14  1  0.60582100  0.76893000  0.41561600  1
  O  O15  1  0.39417900  0.73107000  0.91561600  1
  O  O16  1  0.39417800  0.23106900  0.58438500  1
  O  O17  1  0.60582200  0.26893000  0.08438500  1
  O  O18  1  0.79721600  0.03074800  0.41702800  1
  O  O19  1  0.20278500  0.46925300  0.91702800  1
  O  O20  1  0.20278500  0.96925200  0.58297100  1
  O  O21  1  0.79721400  0.53074700  0.08297100  1
  O  O22  1  0.61180500  0.91525900  0.26143200  1
  O  O23  1  0.38819500  0.58474100  0.76143200  1
  O  O24  1  0.38819600  0.08474100  0.73856900  1
  O  O25  1  0.61180500  0.41525900  0.23856900  1
  O  O26  1  0.16986700  0.66388300  0.38695800  1
  O  O27  1  0.70593100  0.50611000  0.43204800  1
loop_
_geom_bond_atom_site_label_1
_geom_bond_atom_site_label_2
_geom_bond_distance
_geom_bond_site_symmetry_2
Cs0 O16 3.106699 1_555
Cs0 O10 3.157620 1_445
Cs0 O25 3.158690 1_555
Cs0 H6 3.161189 1_455
Cs0 O22 3.192922 1_545
Cs0 O5 3.294758 1_555
Cs0 O20 3.317832 1_545
Cs0 O18 3.341632 1_555
Cs0 H2 3.379360 1_555
Cs0 O7 3.435089 1_555
Cs0 H17 3.443347 1_555
Cs0 O18 3.536051 1_455
Cs1 O17 3.106702 1_556
Cs1 O11 3.157620 1_655
Cs1 O24 3.158690 1_555
Cs1 H7 3.161182 1_655
Cs1 O23 3.192927 1_555
Cs1 O4 3.294747 1_555
Cs1 O21 3.317827 1_556
Cs1 O19 3.341637 1_555
Cs1 H3 3.379360 1_555
Cs1 O1 3.435089 1_555
Cs1 H16 3.443333 1_555
Cs1 O19 3.536051 1_655
Cs2 O14 3.106677 1_555
Cs2 O12 3.157624 1_665
Cs2 O23 3.158704 1_555
Cs2 H8 3.161174 1_655
Cs2 O24 3.192932 1_565
Cs2 O3 3.294744 1_555
Cs2 O18 3.317832 1_565
Cs2 O20 3.341632 1_555
Cs2 H0 3.379360 1_555
Cs2 O0 3.435096 1_555
Cs2 H15 3.443359 1_555
Cs2 O20 3.536051 1_655
Cs3 O15 3.106689 1_554
Cs3 O13 3.157618 1_455
Cs3 O22 3.158698 1_555
Cs3 H9 3.161177 1_455
Cs3 O25 3.192932 1_555
Cs3 O2 3.294747 1_555
Cs3 O19 3.317839 1_554
Cs3 O21 3.341634 1_555
Cs3 H1 3.379362 1_555
Cs3 O26 3.435086 1_555
Cs3 H14 3.443347 1_555
Cs3 O21 3.536060 1_455
Fe0 O9 2.112049 1_555
Fe0 O27 2.112055 1_455
Fe0 O1 2.191123 1_455
Fe0 O26 2.191133 1_555
Fe0 O5 2.213489 1_555
Fe0 O3 2.213499 1_455
Fe1 O6 2.112055 1_544
Fe1 O8 2.112055 1_455
Fe1 O7 2.191125 1_555
Fe1 O0 2.191127 1_444
Fe1 O2 2.213490 1_545
Fe1 O4 2.213490 1_454
H0 O9 0.997137 1_555
H1 O8 0.997149 1_565
H2 O27 0.997137 1_555
H3 O6 0.997137 1_545
H4 O9 0.993992 1_555
H5 O8 0.994001 1_555
H6 O5 0.994408 1_655
H7 O4 0.994400 1_455
H8 O3 0.994410 1_455
H9 O2 0.994408 1_655
H10 O26 0.991109 1_555
H11 O0 0.991117 1_555
H12 O1 0.991103 1_555
H13 O7 0.991104 1_555
H14 O26 0.996348 1_555
H15 O0 0.996350 1_555
H16 O1 0.996365 1_555
H17 O7 0.996355 1_555
H18 O4 0.995843 1_455
H19 O5 0.995841 1_655
H20 O6 0.993992 1_555
H21 O27 0.993992 1_555
H22 O3 0.995828 1_455
H23 O2 0.995843 1_655
O10 S1 1.501998 1_555
O11 S0 1.501986 1_555
O12 S2 1.501986 1_555
O13 S3 1.502002 1_555
O14 S1 1.504337 1_555
O15 S0 1.504339 1_555
O16 S2 1.504318 1_555
O17 S3 1.504328 1_555
O18 S1 1.487310 1_545
O19 S0 1.487303 1_555
O20 S2 1.487325 1_565
O21 S3 1.487310 1_555
O22 S1 1.491792 1_555
O23 S0 1.491796 1_555
O24 S2 1.491813 1_555
O25 S3 1.491802 1_555
