# generated using pymatgen
data_Na3Ca2Ta4(PO4)9
_symmetry_space_group_name_H-M   'P 1'
_cell_length_a   8.89661948
_cell_length_b   8.89661919
_cell_length_c   23.10415368
_cell_angle_alpha   90.00000000
_cell_angle_beta   90.00000000
_cell_angle_gamma   120.00000109
_symmetry_Int_Tables_number   1
_chemical_formula_structural   Na3Ca2Ta4(PO4)9
_chemical_formula_sum   'Na6 Ca4 Ta8 P18 O72'
_cell_volume   1583.69194782
_cell_formula_units_Z   2
loop_
 _symmetry_equiv_pos_site_id
 _symmetry_equiv_pos_as_xyz
  1  'x, y, z'
loop_
 _atom_site_type_symbol
 _atom_site_label
 _atom_site_symmetry_multiplicity
 _atom_site_fract_x
 _atom_site_fract_y
 _atom_site_fract_z
 _atom_site_occupancy
  Na  Na0  1  -0.00000000  -0.00000000  0.49574437  1
  Na  Na1  1  -0.00000000  -0.00000000  0.99574437  1
  Na  Na2  1  0.66666700  0.33333300  0.82238202  1
  Na  Na3  1  0.66666700  0.33333300  0.32238202  1
  Na  Na4  1  0.33333300  0.66666700  0.16817535  1
  Na  Na5  1  0.33333300  0.66666700  0.66817535  1
  Ca  Ca0  1  -0.00000000  -0.00000000  0.35826382  1
  Ca  Ca1  1  -0.00000000  -0.00000000  0.85826382  1
  Ca  Ca2  1  0.66666700  0.33333300  0.68200250  1
  Ca  Ca3  1  0.66666700  0.33333300  0.18200250  1
  Ta  Ta0  1  -0.00000000  -0.00000000  0.64984408  1
  Ta  Ta1  1  -0.00000000  -0.00000000  0.14984408  1
  Ta  Ta2  1  0.66666700  0.33333300  0.97996998  1
  Ta  Ta3  1  0.66666700  0.33333300  0.47996998  1
  Ta  Ta4  1  0.33333300  0.66666700  0.01972780  1
  Ta  Ta5  1  0.33333300  0.66666700  0.51972780  1
  Ta  Ta6  1  0.33333300  0.66666700  0.31048682  1
  Ta  Ta7  1  0.33333300  0.66666700  0.81048682  1
  P  P0  1  0.29026020  0.99702019  0.25224951  1
  P  P1  1  0.70676000  0.70973980  0.25224951  1
  P  P2  1  0.00297981  0.29324000  0.25224951  1
  P  P3  1  0.29026020  0.29324000  0.75224951  1
  P  P4  1  0.00297981  0.70973980  0.75224951  1
  P  P5  1  0.70676000  0.99702019  0.75224951  1
  P  P6  1  0.96097959  0.32991642  0.58209655  1
  P  P7  1  0.36893782  0.03902041  0.58209655  1
  P  P8  1  0.67008358  0.63106218  0.58209655  1
  P  P9  1  0.96097959  0.63106218  0.08209655  1
  P  P10  1  0.67008358  0.03902041  0.08209655  1
  P  P11  1  0.36893782  0.32991642  0.08209655  1
  P  P12  1  0.61341947  0.65791594  0.91812474  1
  P  P13  1  0.04449548  0.38658053  0.91812474  1
  P  P14  1  0.34208406  0.95550452  0.91812474  1
  P  P15  1  0.61341947  0.95550452  0.41812474  1
  P  P16  1  0.34208406  0.38658053  0.41812474  1
  P  P17  1  0.04449548  0.65791594  0.41812474  1
  O  O0  1  0.20817359  0.01637655  0.30550923  1
  O  O1  1  0.80820296  0.79182641  0.30550923  1
  O  O2  1  0.98362345  0.19179704  0.30550923  1
  O  O3  1  0.20817359  0.19179704  0.80550923  1
  O  O4  1  0.98362345  0.79182641  0.80550923  1
  O  O5  1  0.80820296  0.01637655  0.80550923  1
  O  O6  1  0.80163815  0.97027648  0.69556696  1
  O  O7  1  0.16863833  0.19836185  0.69556696  1
  O  O8  1  0.02972352  0.83136167  0.69556696  1
  O  O9  1  0.80163815  0.83136167  0.19556696  1
  O  O10  1  0.02972352  0.19836185  0.19556696  1
  O  O11  1  0.16863833  0.97027648  0.19556696  1
  O  O12  1  0.90407404  0.37820235  0.63607798  1
  O  O13  1  0.47412932  0.09592596  0.63607798  1
  O  O14  1  0.62179765  0.52587068  0.63607798  1
  O  O15  1  0.90407404  0.52587068  0.13607798  1
  O  O16  1  0.62179765  0.09592596  0.13607798  1
  O  O17  1  0.47412932  0.37820235  0.13607798  1
  O  O18  1  0.46656415  0.30442883  0.02844279  1
  O  O19  1  0.83786568  0.53343585  0.02844279  1
  O  O20  1  0.69557117  0.16213432  0.02844279  1
  O  O21  1  0.46656415  0.16213432  0.52844279  1
  O  O22  1  0.69557117  0.53343585  0.52844279  1
  O  O23  1  0.83786568  0.30442883  0.52844279  1
  O  O24  1  0.51106906  0.66686652  0.97112871  1
  O  O25  1  0.15579645  0.48893094  0.97112871  1
  O  O26  1  0.33313348  0.84420355  0.97112871  1
  O  O27  1  0.51106906  0.84420355  0.47112871  1
  O  O28  1  0.33313348  0.48893094  0.47112871  1
  O  O29  1  0.15579645  0.66686652  0.47112871  1
  O  O30  1  0.13328270  0.63383547  0.36279536  1
  O  O31  1  0.50055177  0.86671730  0.36279536  1
  O  O32  1  0.36616453  0.49944823  0.36279536  1
  O  O33  1  0.13328270  0.49944823  0.86279536  1
  O  O34  1  0.36616453  0.86671730  0.86279536  1
  O  O35  1  0.50055177  0.63383547  0.86279536  1
  O  O36  1  0.02430216  0.81483967  0.41975085  1
  O  O37  1  0.79053751  0.97569784  0.41975085  1
  O  O38  1  0.18516033  0.20946249  0.41975085  1
  O  O39  1  0.02430216  0.20946249  0.91975085  1
  O  O40  1  0.18516033  0.97569784  0.91975085  1
  O  O41  1  0.79053751  0.81483967  0.91975085  1
  O  O42  1  0.97737286  0.16332427  0.58833960  1
  O  O43  1  0.18595141  0.02262714  0.58833960  1
  O  O44  1  0.83667573  0.81404859  0.58833960  1
  O  O45  1  0.97737286  0.81404859  0.08833960  1
  O  O46  1  0.83667573  0.02262714  0.08833960  1
  O  O47  1  0.18595141  0.16332427  0.08833960  1
  O  O48  1  0.67005125  0.14189202  0.74323565  1
  O  O49  1  0.47184177  0.32994875  0.74323565  1
  O  O50  1  0.85810798  0.52815823  0.74323565  1
  O  O51  1  0.67005125  0.52815823  0.24323565  1
  O  O52  1  0.85810798  0.32994875  0.24323565  1
  O  O53  1  0.47184177  0.14189202  0.24323565  1
  O  O54  1  0.62349317  0.48605535  0.92651982  1
  O  O55  1  0.86256318  0.37650683  0.92651982  1
  O  O56  1  0.51394465  0.13743682  0.92651982  1
  O  O57  1  0.62349317  0.13743682  0.42651982  1
  O  O58  1  0.51394465  0.37650683  0.42651982  1
  O  O59  1  0.86256318  0.48605535  0.42651982  1
  O  O60  1  0.33699409  0.48488032  0.06756993  1
  O  O61  1  0.14788523  0.66300591  0.06756993  1
  O  O62  1  0.51511968  0.85211477  0.06756993  1
  O  O63  1  0.33699409  0.85211477  0.56756993  1
  O  O64  1  0.51511968  0.66300591  0.56756993  1
  O  O65  1  0.14788523  0.48488032  0.56756993  1
  O  O66  1  0.29369117  0.81793614  0.25706005  1
  O  O67  1  0.52424397  0.70630883  0.25706005  1
  O  O68  1  0.18206386  0.47575603  0.25706005  1
  O  O69  1  0.29369117  0.47575603  0.75706005  1
  O  O70  1  0.18206386  0.70630883  0.75706005  1
  O  O71  1  0.52424397  0.81793614  0.75706005  1
loop_
_geom_bond_atom_site_label_1
_geom_bond_atom_site_label_2
_geom_bond_distance
_geom_bond_site_symmetry_2
Na0 O38 2.489823 1_555
Na0 O36 2.489823 1_545
Na0 O37 2.489823 1_445
Na0 O44 2.649733 1_445
Na0 O42 2.649733 1_455
Na0 O43 2.649733 1_555
Na1 O39 2.489823 1_555
Na1 O41 2.489823 1_445
Na1 O40 2.489823 1_545
Na1 O45 2.649733 1_446
Na1 O47 2.649733 1_556
Na1 O46 2.649733 1_456
Na2 O50 2.509345 1_555
Na2 O48 2.509345 1_555
Na2 O49 2.509345 1_555
Na2 O56 2.881740 1_555
Na2 O54 2.881741 1_555
Na2 O55 2.881741 1_555
Na3 O51 2.509345 1_555
Na3 O53 2.509345 1_555
Na3 O52 2.509345 1_555
Na3 O57 2.881740 1_555
Na3 O59 2.881741 1_555
Na3 O58 2.881741 1_555
Na4 O68 2.574382 1_555
Na4 O66 2.574382 1_555
Na4 O67 2.574382 1_555
Na4 O62 2.841163 1_555
Na4 O60 2.841163 1_555
Na4 O61 2.841163 1_555
Na5 O69 2.574382 1_555
Na5 O71 2.574382 1_555
Na5 O70 2.574382 1_555
Na5 O63 2.841163 1_555
Na5 O65 2.841163 1_555
Na5 O64 2.841163 1_555
Ca0 O1 2.160334 1_445
Ca0 O2 2.160334 1_455
Ca0 O0 2.160334 1_555
Ca0 O38 2.265971 1_555
Ca0 O36 2.265971 1_545
Ca0 O37 2.265971 1_445
Ca1 O4 2.160334 1_445
Ca1 O3 2.160334 1_555
Ca1 O5 2.160334 1_455
Ca1 O39 2.265971 1_555
Ca1 O41 2.265971 1_445
Ca1 O40 2.265971 1_545
Ca2 O14 2.214293 1_555
Ca2 O13 2.214293 1_555
Ca2 O12 2.214293 1_555
Ca2 O50 2.225868 1_555
Ca2 O48 2.225868 1_555
Ca2 O49 2.225868 1_555
Ca3 O17 2.214293 1_555
Ca3 O15 2.214293 1_555
Ca3 O16 2.214293 1_555
Ca3 O51 2.225868 1_555
Ca3 O53 2.225868 1_555
Ca3 O52 2.225868 1_555
O0 P0 1.484226 1_545
O1 P1 1.484226 1_555
O2 P2 1.484226 1_655
O3 P3 1.484226 1_555
O4 P4 1.484226 1_655
O5 P5 1.484226 1_545
O6 P5 1.638597 1_555
O6 Ta0 1.957947 1_665
O7 P3 1.638597 1_555
O7 Ta0 1.957947 1_555
O8 P4 1.638597 1_555
O8 Ta0 1.957947 1_565
O9 P1 1.638597 1_555
O9 Ta1 1.957947 1_665
O10 P2 1.638597 1_555
O10 Ta1 1.957947 1_555
O11 P0 1.638597 1_555
O11 Ta1 1.957947 1_565
O12 P6 1.487893 1_555
O13 P7 1.487893 1_555
O14 P8 1.487893 1_555
O15 P9 1.487893 1_555
O16 P10 1.487893 1_555
O17 P11 1.487893 1_555
O18 P11 1.593550 1_555
O18 Ta2 2.007939 1_554
O19 P9 1.593550 1_555
O19 Ta2 2.007938 1_554
O20 P10 1.593550 1_555
O20 Ta2 2.007938 1_554
O21 P7 1.593550 1_555
O21 Ta3 2.007938 1_555
O22 P8 1.593550 1_555
O22 Ta3 2.007938 1_555
O23 P6 1.593550 1_555
O23 Ta3 2.007939 1_555
O24 P12 1.551666 1_555
O24 Ta4 1.938639 1_556
O25 P13 1.551666 1_555
O25 Ta4 1.938639 1_556
O26 P14 1.551666 1_555
O26 Ta4 1.938639 1_556
O27 P15 1.551666 1_555
O27 Ta5 1.938639 1_555
O28 P16 1.551666 1_555
O28 Ta5 1.938639 1_555
O29 P17 1.551666 1_555
O29 Ta5 1.938639 1_555
O30 P17 1.572648 1_555
O30 Ta6 2.047835 1_555
O31 P15 1.572648 1_555
O31 Ta6 2.047835 1_555
O32 P16 1.572648 1_555
O32 Ta6 2.047835 1_555
O33 P13 1.572648 1_555
O33 Ta7 2.047835 1_555
O34 P14 1.572648 1_555
O34 Ta7 2.047835 1_555
O35 P12 1.572648 1_555
O35 Ta7 2.047835 1_555
O36 P17 1.494512 1_555
O37 P15 1.494521 1_555
O38 P16 1.494517 1_555
O39 P13 1.494521 1_555
O40 P14 1.494512 1_555
O41 P12 1.494517 1_555
O42 P6 1.566804 1_555
O42 Ta0 2.112723 1_655
O43 P7 1.566813 1_555
O43 Ta0 2.112724 1_555
O44 P8 1.566809 1_555
O44 Ta0 2.112723 1_665
O45 P9 1.566813 1_555
O45 Ta1 2.112723 1_665
O46 P10 1.566804 1_555
O46 Ta1 2.112724 1_655
O47 P11 1.566809 1_555
O47 Ta1 2.112723 1_555
O48 P5 1.494034 1_545
O49 P3 1.494042 1_555
O50 P4 1.494039 1_655
O51 P1 1.494042 1_555
O52 P2 1.494034 1_655
O53 P0 1.494039 1_545
O54 P12 1.587595 1_555
O54 Ta2 2.010111 1_555
O55 P13 1.587577 1_655
O55 Ta2 2.010111 1_555
O56 P14 1.587585 1_545
O56 Ta2 2.010111 1_555
O57 P15 1.587577 1_545
O57 Ta3 2.010111 1_555
O58 P16 1.587595 1_555
O58 Ta3 2.010111 1_555
O59 P17 1.587585 1_655
O59 Ta3 2.010111 1_555
O60 P11 1.576674 1_555
O60 Ta4 1.972602 1_555
O61 P9 1.576657 1_455
O61 Ta4 1.972602 1_555
O62 P10 1.576663 1_565
O62 Ta4 1.972602 1_555
O63 P7 1.576657 1_565
O63 Ta5 1.972602 1_555
O64 P8 1.576674 1_555
O64 Ta5 1.972602 1_555
O65 P6 1.576663 1_455
O65 Ta5 1.972602 1_555
O66 P0 1.612557 1_555
O66 Ta6 1.983391 1_555
O67 P1 1.612566 1_555
O67 Ta6 1.983391 1_555
O68 P2 1.612561 1_555
O68 Ta6 1.983391 1_555
O69 P3 1.612566 1_555
O69 Ta7 1.983391 1_555
O70 P4 1.612557 1_555
O70 Ta7 1.983391 1_555
O71 P5 1.612561 1_555
O71 Ta7 1.983391 1_555
