# generated using pymatgen
data_LiBeH3
_symmetry_space_group_name_H-M   'P 1'
_cell_length_a   6.01214548
_cell_length_b   6.14208300
_cell_length_c   6.78322028
_cell_angle_alpha   104.00830139
_cell_angle_beta   97.22708647
_cell_angle_gamma   90.37219757
_symmetry_Int_Tables_number   1
_chemical_formula_structural   LiBeH3
_chemical_formula_sum   'Li6 Be6 H18'
_cell_volume   240.92685776
_cell_formula_units_Z   6
loop_
 _symmetry_equiv_pos_site_id
 _symmetry_equiv_pos_as_xyz
  1  'x, y, z'
loop_
 _atom_site_type_symbol
 _atom_site_label
 _atom_site_symmetry_multiplicity
 _atom_site_fract_x
 _atom_site_fract_y
 _atom_site_fract_z
 _atom_site_occupancy
  Li  Li0  1  0.01047483  0.75085215  0.00451124  1
  Li  Li1  1  0.98952517  0.24914885  0.99548876  1
  Li  Li2  1  0.74767052  0.07386322  0.29769525  1
  Li  Li3  1  0.25232948  0.92613678  0.70230475  1
  Li  Li4  1  0.76088580  0.56643587  0.31495819  1
  Li  Li5  1  0.23911420  0.43356413  0.68504181  1
  Be  Be0  1  0.22869818  0.04780563  0.32535482  1
  Be  Be1  1  0.77130182  0.95219437  0.67464518  1
  Be  Be2  1  0.22577780  0.61747731  0.31686168  1
  Be  Be3  1  0.77422220  0.38252269  0.68313832  1
  Be  Be4  1  0.43610882  0.28190307  0.12713559  1
  Be  Be5  1  0.56389118  0.71809693  0.87286441  1
  H  H0  1  0.29224086  0.82038235  0.27022612  1
  H  H1  1  0.70775914  0.17961765  0.72977388  1
  H  H2  1  0.42469667  0.50279974  0.26019163  1
  H  H3  1  0.57530333  0.49720026  0.73980837  1
  H  H4  1  0.42350233  0.13606866  0.26412466  1
  H  H5  1  0.57649767  0.86393134  0.73587534  1
  H  H6  1  0.20119290  0.63623376  0.52069956  1
  H  H7  1  0.79880710  0.36376624  0.47930044  1
  H  H8  1  0.22213272  0.13375374  0.53614043  1
  H  H9  1  0.77786728  0.86624626  0.46385957  1
  H  H10  1  0.02646954  0.53683193  0.18476331  1
  H  H11  1  0.97353046  0.46316807  0.81523669  1
  H  H12  1  0.32936262  0.72321137  0.88747965  1
  H  H13  1  0.67063738  0.27678863  0.11252035  1
  H  H14  1  0.29239558  0.22934986  0.93890509  1
  H  H15  1  0.70760442  0.77065014  0.06109491  1
  H  H16  1  0.97137308  0.93729807  0.80445975  1
  H  H17  1  0.02862692  0.06270193  0.19554025  1
loop_
_geom_bond_atom_site_label_1
_geom_bond_atom_site_label_2
_geom_bond_distance
_geom_bond_site_symmetry_2
Be0 H8 1.404861 1_555
Be0 H17 1.415826 1_555
Be0 H0 1.423718 1_545
Be0 H4 1.435700 1_555
Be1 H9 1.404861 1_555
Be1 H16 1.415826 1_555
Be1 H1 1.423718 1_565
Be1 H5 1.435700 1_555
Be2 H6 1.386161 1_555
Be2 H10 1.411161 1_555
Be2 H0 1.424464 1_555
Be2 H2 1.438634 1_555
Be3 H7 1.386161 1_555
Be3 H11 1.411161 1_555
Be3 H1 1.424464 1_555
Be3 H3 1.438634 1_555
Be4 H14 1.414303 1_554
Be4 H13 1.425907 1_555
Be4 H2 1.443631 1_555
Be4 H4 1.446142 1_555
Be5 H15 1.414303 1_556
Be5 H12 1.425907 1_555
Be5 H3 1.443631 1_555
Be5 H5 1.446142 1_555
H0 Li0 2.269463 1_555
H1 Li1 2.269463 1_555
H2 Li4 2.026479 1_555
H3 Li5 2.026479 1_555
H4 Li2 1.984025 1_555
H5 Li3 1.984025 1_555
H6 Li5 1.858979 1_555
H6 Li3 1.902174 1_555
H7 Li4 1.858979 1_555
H7 Li2 1.902174 1_555
H8 Li5 1.868886 1_555
H8 Li3 1.891264 1_545
H9 Li4 1.868886 1_555
H9 Li2 1.891264 1_565
H10 Li4 1.908761 1_455
H10 Li1 1.909128 1_454
H10 Li0 1.995590 1_555
H11 Li5 1.908761 1_655
H11 Li0 1.909133 1_656
H11 Li1 1.995585 1_555
H12 Li5 1.990554 1_555
H12 Li3 1.991173 1_555
H12 Li0 2.157914 1_556
H13 Li4 1.990554 1_555
H13 Li2 1.991173 1_555
H13 Li1 2.157914 1_554
H14 Li1 1.906282 1_455
H14 Li3 2.133551 1_545
H15 Li0 1.906282 1_655
H15 Li2 2.133551 1_565
H16 Li3 1.900290 1_655
H16 Li0 1.970700 1_656
H16 Li1 2.029757 1_565
H17 Li2 1.900290 1_455
H17 Li1 1.970704 1_454
H17 Li0 2.029752 1_545
