# generated using pymatgen
data_Na7TaSi6(SnO8)3
_symmetry_space_group_name_H-M   'P 1'
_cell_length_a   9.09507967
_cell_length_b   9.09487070
_cell_length_c   22.61800137
_cell_angle_alpha   90.06154854
_cell_angle_beta   89.93064053
_cell_angle_gamma   120.05206561
_symmetry_Int_Tables_number   1
_chemical_formula_structural   Na7TaSi6(SnO8)3
_chemical_formula_sum   'Na21 Ta3 Si18 Sn9 O72'
_cell_volume   1619.41971476
_cell_formula_units_Z   3
loop_
 _symmetry_equiv_pos_site_id
 _symmetry_equiv_pos_as_xyz
  1  'x, y, z'
loop_
 _atom_site_type_symbol
 _atom_site_label
 _atom_site_symmetry_multiplicity
 _atom_site_fract_x
 _atom_site_fract_y
 _atom_site_fract_z
 _atom_site_occupancy
  Na  Na0  1  0.36950004  0.36497044  0.24943966  1
  Na  Na1  1  0.63699803  0.63375951  0.74940692  1
  Na  Na2  1  0.99690294  0.36336486  0.74927011  1
  Na  Na3  1  0.36584582  0.00338142  0.74945174  1
  Na  Na4  1  0.29982702  0.33343020  0.58257407  1
  Na  Na5  1  0.03344466  0.70007574  0.58247424  1
  Na  Na6  1  0.66658561  0.96640656  0.58246980  1
  Na  Na7  1  0.30525879  0.96909121  0.08292042  1
  Na  Na8  1  0.66384190  0.69614233  0.08300076  1
  Na  Na9  1  0.03193186  0.33660892  0.08266003  1
  Na  Na10  1  0.96434888  0.66624375  0.91821420  1
  Na  Na11  1  0.70337369  0.03435103  0.91818503  1
  Na  Na12  1  0.96643538  0.29803492  0.41521608  1
  Na  Na13  1  0.33193624  0.03426019  0.41564318  1
  Na  Na14  1  0.70183668  0.66784900  0.41523175  1
  Na  Na15  1  0.00005277  0.00009961  0.49901221  1
  Na  Na16  1  0.00722585  0.00681698  0.99784312  1
  Na  Na17  1  0.66030673  0.33282502  0.83569799  1
  Na  Na18  1  0.67308278  0.33315295  0.32937392  1
  Na  Na19  1  0.33273264  0.67203983  0.16715196  1
  Na  Na20  1  0.33325360  0.66664382  0.66466910  1
  Ta  Ta0  1  0.99937137  0.99922832  0.14851139  1
  Ta  Ta1  1  0.33307508  0.66998974  0.31066239  1
  Ta  Ta2  1  0.33383620  0.66637999  0.81527894  1
  Si  Si0  1  0.29221418  0.99913701  0.25020296  1
  Si  Si1  1  0.70908942  0.70767581  0.25070526  1
  Si  Si2  1  0.99606481  0.29123817  0.25087296  1
  Si  Si3  1  0.29221949  0.29187559  0.74952204  1
  Si  Si4  1  0.99972868  0.70821131  0.75022837  1
  Si  Si5  1  0.70832902  0.00045289  0.75012624  1
  Si  Si6  1  0.95929439  0.33341977  0.58315658  1
  Si  Si7  1  0.37420416  0.04057673  0.58323097  1
  Si  Si8  1  0.66643380  0.62591807  0.58323323  1
  Si  Si9  1  0.95774481  0.62453333  0.08260903  1
  Si  Si10  1  0.66678214  0.04305352  0.08264828  1
  Si  Si11  1  0.37609601  0.33321842  0.08391540  1
  Si  Si12  1  0.62457786  0.66351261  0.91710446  1
  Si  Si13  1  0.04207313  0.37275760  0.91760615  1
  Si  Si14  1  0.33338084  0.96120439  0.91734315  1
  Si  Si15  1  0.62451435  0.95695165  0.41641627  1
  Si  Si16  1  0.33255086  0.37560261  0.41591952  1
  Si  Si17  1  0.04309592  0.66736114  0.41630768  1
  Sn  Sn0  1  0.99910828  0.99938584  0.35033284  1
  Sn  Sn1  1  0.00396635  0.00360015  0.85292012  1
  Sn  Sn2  1  0.00037427  0.00042394  0.64822705  1
  Sn  Sn3  1  0.66676408  0.33351783  0.68464676  1
  Sn  Sn4  1  0.67012848  0.33307786  0.18686526  1
  Sn  Sn5  1  0.66298284  0.33287278  0.98022369  1
  Sn  Sn6  1  0.66662256  0.33339108  0.48029436  1
  Sn  Sn7  1  0.33333190  0.66591703  0.01835765  1
  Sn  Sn8  1  0.33324320  0.66673323  0.51770021  1
  O  O0  1  0.21325725  0.03869185  0.30909519  1
  O  O1  1  0.82046594  0.78731024  0.31032766  1
  O  O2  1  0.96958779  0.18079323  0.31049472  1
  O  O3  1  0.20933155  0.16604888  0.80558758  1
  O  O4  1  0.95927634  0.78811576  0.80819501  1
  O  O5  1  0.82793726  0.03955363  0.80811995  1
  O  O6  1  0.78344669  0.95539634  0.69131740  1
  O  O7  1  0.17315666  0.21891828  0.69031206  1
  O  O8  1  0.04467466  0.82809515  0.69139319  1
  O  O9  1  0.80262502  0.83095977  0.19267375  1
  O  O10  1  0.03218574  0.19853532  0.19329319  1
  O  O11  1  0.16847360  0.97101525  0.19233371  1
  O  O12  1  0.88124348  0.37379770  0.64231088  1
  O  O13  1  0.49269940  0.11884835  0.64228149  1
  O  O14  1  0.62637888  0.50746386  0.64225352  1
  O  O15  1  0.87460131  0.49930093  0.13899383  1
  O  O16  1  0.62294329  0.12497399  0.13903269  1
  O  O17  1  0.49398723  0.37409290  0.14274363  1
  O  O18  1  0.45313724  0.28523733  0.02678077  1
  O  O19  1  0.83939129  0.55159816  0.02313704  1
  O  O20  1  0.71286017  0.16129069  0.02306730  1
  O  O21  1  0.45390859  0.16148983  0.52468466  1
  O  O22  1  0.70774372  0.54619589  0.52465639  1
  O  O23  1  0.83827964  0.29241069  0.52467614  1
  O  O24  1  0.54648266  0.70690242  0.97511518  1
  O  O25  1  0.15486162  0.45551850  0.97660435  1
  O  O26  1  0.29460990  0.84037795  0.97535366  1
  O  O27  1  0.54882162  0.84145219  0.47636472  1
  O  O28  1  0.29275763  0.45195814  0.47573707  1
  O  O29  1  0.15863970  0.70760191  0.47625701  1
  O  O30  1  0.14064436  0.63480082  0.36096740  1
  O  O31  1  0.49463514  0.85890175  0.36110326  1
  O  O32  1  0.36507461  0.50123528  0.35913393  1
  O  O33  1  0.13742850  0.49892391  0.85946427  1
  O  O34  1  0.36184679  0.86301330  0.85920967  1
  O  O35  1  0.50282074  0.64088732  0.85875755  1
  O  O36  1  0.02383421  0.83656810  0.41093416  1
  O  O37  1  0.81326640  0.97683967  0.41132663  1
  O  O38  1  0.16362456  0.18608768  0.41129581  1
  O  O39  1  0.01428239  0.18222798  0.91130868  1
  O  O40  1  0.15761922  0.96642065  0.91067930  1
  O  O41  1  0.81118031  0.83678272  0.91023396  1
  O  O42  1  0.97591863  0.16193860  0.58835326  1
  O  O43  1  0.18585701  0.02358101  0.58841316  1
  O  O44  1  0.83804263  0.81427264  0.58847775  1
  O  O45  1  0.97755875  0.81553795  0.09111920  1
  O  O46  1  0.83775524  0.02305888  0.09153016  1
  O  O47  1  0.18402627  0.16248176  0.09151770  1
  O  O48  1  0.68680525  0.16851387  0.74490059  1
  O  O49  1  0.48218578  0.31409659  0.74460873  1
  O  O50  1  0.83158556  0.51843297  0.74490639  1
  O  O51  1  0.67803581  0.51597902  0.24419989  1
  O  O52  1  0.83097659  0.31228836  0.24463364  1
  O  O53  1  0.47497959  0.17264181  0.24353946  1
  O  O54  1  0.64776405  0.49787980  0.91933990  1
  O  O55  1  0.85663198  0.36310619  0.91957090  1
  O  O56  1  0.51158321  0.14097574  0.91955095  1
  O  O57  1  0.63834144  0.14417732  0.42038294  1
  O  O58  1  0.50580850  0.36128454  0.42044705  1
  O  O59  1  0.85572145  0.49394607  0.42040172  1
  O  O60  1  0.35374665  0.50133070  0.07833412  1
  O  O61  1  0.14897935  0.64841028  0.07819432  1
  O  O62  1  0.49923278  0.85174781  0.07779540  1
  O  O63  1  0.35640236  0.85212985  0.57862085  1
  O  O64  1  0.49569405  0.64353538  0.57860369  1
  O  O65  1  0.14783037  0.50432263  0.57858584  1
  O  O66  1  0.30650575  0.82725122  0.25710010  1
  O  O67  1  0.51824859  0.68831142  0.25716894  1
  O  O68  1  0.17628248  0.47537881  0.25701834  1
  O  O69  1  0.31104864  0.48213536  0.75785311  1
  O  O70  1  0.17108219  0.68883434  0.75792298  1
  O  O71  1  0.51739256  0.82895107  0.75755809  1
loop_
_geom_bond_atom_site_label_1
_geom_bond_atom_site_label_2
_geom_bond_distance
_geom_bond_site_symmetry_2
Na0 O53 2.382810 1_555
Na0 O68 2.427386 1_555
Na0 O51 2.431932 1_555
Na0 O67 2.554126 1_555
Na0 O17 2.648078 1_555
Na0 O32 2.781422 1_555
Na0 O0 2.902793 1_555
Na0 O10 2.944506 1_555
Na1 O50 2.470064 1_555
Na1 O71 2.510344 1_555
Na1 O49 2.519201 1_555
Na1 O69 2.575126 1_555
Na1 O14 2.661954 1_555
Na1 O35 2.771683 1_555
Na1 O6 2.856398 1_555
Na1 O4 2.866094 1_555
Na2 O48 2.469626 1_555
Na2 O69 2.505535 1_655
Na2 O50 2.526661 1_555
Na2 O70 2.571561 1_655
Na2 O12 2.659838 1_555
Na2 O33 2.790760 1_655
Na2 O7 2.859055 1_655
Na2 O5 2.876991 1_555
Na3 O49 2.474456 1_555
Na3 O70 2.506664 1_545
Na3 O48 2.529066 1_555
Na3 O71 2.577098 1_545
Na3 O13 2.663606 1_555
Na3 O34 2.784605 1_545
Na3 O3 2.815690 1_555
Na3 O8 2.852939 1_545
Na4 O64 2.470625 1_555
Na4 O43 2.471445 1_555
Na4 O65 2.547059 1_555
Na4 O42 2.554593 1_455
Na4 O28 2.660974 1_555
Na4 O7 2.673376 1_555
Na4 O21 2.882656 1_555
Na4 O14 2.906040 1_555
Na5 O44 2.470505 1_455
Na5 O65 2.472699 1_555
Na5 O63 2.545410 1_555
Na5 O43 2.551669 1_565
Na5 O29 2.643582 1_555
Na5 O8 2.703773 1_555
Na5 O22 2.880458 1_455
Na5 O12 2.905773 1_455
Na6 O42 2.466738 1_565
Na6 O63 2.471905 1_555
Na6 O64 2.544562 1_555
Na6 O44 2.554736 1_555
Na6 O27 2.641852 1_555
Na6 O6 2.704476 1_555
Na6 O23 2.881724 1_565
Na6 O13 2.905239 1_565
Na7 O62 2.479887 1_555
Na7 O47 2.507654 1_565
Na7 O61 2.526988 1_555
Na7 O45 2.588084 1_455
Na7 O26 2.679528 1_554
Na7 O11 2.772448 1_555
Na7 O18 2.796260 1_565
Na7 O16 2.805593 1_565
Na8 O60 2.469839 1_555
Na8 O45 2.500340 1_555
Na8 O62 2.526059 1_555
Na8 O46 2.582362 1_565
Na8 O24 2.686020 1_554
Na8 O9 2.775051 1_555
Na8 O19 2.864255 1_555
Na8 O17 2.874538 1_555
Na9 O61 2.482327 1_555
Na9 O46 2.499513 1_455
Na9 O60 2.535486 1_555
Na9 O47 2.580151 1_555
Na9 O25 2.638511 1_554
Na9 O10 2.801450 1_555
Na9 O15 2.823583 1_455
Na9 O20 2.855003 1_455
Na10 O40 2.401250 1_655
Na10 O55 2.420045 1_555
Na10 O54 2.494004 1_555
Na10 O41 2.558176 1_555
Na10 O19 2.612002 1_556
Na10 O4 2.735019 1_555
Na10 O26 2.905400 1_655
Na10 O33 2.991544 1_655
Na11 O56 2.382883 1_555
Na11 O41 2.446616 1_545
Na11 O39 2.453452 1_655
Na11 O55 2.590282 1_555
Na11 O20 2.619660 1_556
Na11 O5 2.724489 1_555
Na11 O24 2.882849 1_545
Na11 O34 3.002283 1_545
Na12 O59 2.449231 1_555
Na12 O38 2.467638 1_655
Na12 O37 2.530973 1_545
Na12 O57 2.587192 1_555
Na12 O2 2.602509 1_555
Na12 O23 2.724739 1_555
Na12 O28 2.913156 1_655
Na12 O30 2.922296 1_655
Na13 O57 2.446878 1_555
Na13 O36 2.459784 1_545
Na13 O38 2.525390 1_555
Na13 O58 2.578296 1_555
Na13 O0 2.650364 1_555
Na13 O21 2.714233 1_555
Na13 O29 2.916105 1_545
Na13 O31 2.934294 1_545
Na14 O58 2.447010 1_555
Na14 O37 2.465781 1_555
Na14 O36 2.537603 1_655
Na14 O59 2.586887 1_555
Na14 O1 2.607606 1_555
Na14 O22 2.723647 1_555
Na14 O27 2.921133 1_555
Na14 O32 2.940078 1_555
Na15 O38 2.547604 1_555
Na15 O37 2.551760 1_445
Na15 O36 2.557790 1_545
Na15 O42 2.571791 1_455
Na15 O44 2.574512 1_445
Na15 O43 2.576050 1_555
Na16 O39 2.506762 1_555
Na16 O40 2.527433 1_545
Na16 O41 2.595672 1_445
Na16 O47 2.607826 1_556
Na16 O45 2.662047 1_446
Na16 O46 2.665944 1_456
Na17 O54 2.451595 1_555
Na17 O56 2.471479 1_555
Na17 O55 2.525369 1_555
Na17 O49 2.574704 1_555
Na17 O50 2.619004 1_555
Na17 O48 2.619488 1_555
Na18 O52 2.457098 1_555
Na18 O51 2.531756 1_555
Na18 O53 2.552347 1_555
Na18 O59 2.589520 1_555
Na18 O57 2.598670 1_555
Na18 O58 2.646570 1_555
Na19 O66 2.553130 1_555
Na19 O61 2.556378 1_555
Na19 O62 2.563197 1_555
Na19 O67 2.602252 1_555
Na19 O60 2.602346 1_555
Na19 O68 2.609030 1_555
Na20 O64 2.513845 1_555
Na20 O65 2.514483 1_555
Na20 O63 2.515626 1_555
Na20 O71 2.631287 1_555
Na20 O70 2.637183 1_555
Na20 O69 2.639319 1_555
O0 Si0 1.635483 1_545
O0 Sn0 2.022435 1_445
O1 Si1 1.623463 1_555
O1 Sn0 2.009949 1_555
O2 Si2 1.626453 1_555
O2 Sn0 2.013341 1_545
O3 Si3 1.619478 1_555
O3 Sn1 2.013036 1_555
O4 Si4 1.626967 1_555
O4 Sn1 2.056273 1_665
O5 Si5 1.626475 1_555
O5 Sn1 2.055688 1_655
O6 Si5 1.637372 1_565
O6 Sn2 2.048699 1_665
O7 Si3 1.639618 1_555
O7 Sn2 2.048492 1_555
O8 Si4 1.637731 1_455
O8 Sn2 2.051523 1_565
O9 Si1 1.657956 1_555
O9 Ta0 1.948841 1_555
O10 Si2 1.669998 1_455
O10 Ta0 1.963596 1_445
O11 Si0 1.661248 1_555
O11 Ta0 1.952743 1_455
O12 Si6 1.639100 1_555
O12 Sn3 2.033926 1_555
O13 Si7 1.638635 1_555
O13 Sn3 2.034752 1_555
O14 Si8 1.638348 1_555
O14 Sn3 2.035484 1_555
O15 Si9 1.622854 1_555
O15 Sn4 2.024617 1_555
O16 Si10 1.623189 1_555
O16 Sn4 2.029793 1_555
O17 Si11 1.631402 1_555
O17 Sn4 2.074779 1_555
O18 Si11 1.629177 1_555
O18 Sn5 2.026604 1_554
O19 Si9 1.641508 1_555
O19 Sn5 2.067966 1_554
O20 Si10 1.642687 1_555
O20 Sn5 2.072045 1_554
O21 Si7 1.640334 1_555
O21 Sn6 2.040698 1_555
O22 Si8 1.640669 1_555
O22 Sn6 2.040660 1_555
O23 Si6 1.640545 1_555
O23 Sn6 2.042410 1_555
O24 Si12 1.630695 1_555
O24 Sn7 2.031311 1_556
O25 Si13 1.620911 1_555
O25 Sn7 2.019198 1_556
O26 Si14 1.633204 1_555
O26 Sn7 2.037535 1_556
O27 Si15 1.640850 1_555
O27 Sn8 2.030201 1_555
O28 Si16 1.640807 1_555
O28 Sn8 2.031864 1_555
O29 Si17 1.641348 1_555
O29 Sn8 2.033273 1_555
O30 Si17 1.643538 1_555
O30 Ta1 1.973594 1_555
O31 Si15 1.643748 1_555
O31 Ta1 1.970775 1_555
O32 Si16 1.645113 1_555
O32 Ta1 2.023371 1_555
O33 Si13 1.673902 1_555
O33 Ta2 1.945090 1_555
O34 Si14 1.679771 1_555
O34 Ta2 1.947019 1_555
O35 Si12 1.668821 1_555
O35 Ta2 1.934949 1_555
O36 Si17 1.638352 1_555
O36 Sn0 2.112053 1_455
O37 Si15 1.637571 1_555
O37 Sn0 2.109499 1_555
O38 Si16 1.640115 1_555
O38 Sn0 2.116285 1_445
O39 Si13 1.627204 1_555
O39 Sn1 2.057963 1_555
O40 Si14 1.630011 1_555
O40 Sn1 2.062193 1_565
O41 Si12 1.645919 1_555
O41 Sn1 2.095478 1_665
O42 Si6 1.644884 1_555
O42 Sn2 2.091287 1_655
O43 Si7 1.645131 1_555
O43 Sn2 2.088001 1_555
O44 Si8 1.645235 1_555
O44 Sn2 2.090172 1_665
O45 Si9 1.665256 1_555
O45 Ta0 2.044373 1_555
O46 Si10 1.665999 1_555
O46 Ta0 2.047656 1_545
O47 Si11 1.665960 1_555
O47 Ta0 2.046504 1_445
O48 Si5 1.639730 1_555
O48 Sn3 2.102746 1_555
O49 Si3 1.639574 1_555
O49 Sn3 2.094459 1_555
O50 Si4 1.639690 1_555
O50 Sn3 2.099565 1_555
O51 Si1 1.627091 1_555
O51 Sn4 2.080799 1_555
O52 Si2 1.612304 1_555
O52 Sn4 2.040912 1_555
O53 Si0 1.627469 1_545
O53 Sn4 2.080173 1_555
O54 Si12 1.623162 1_555
O54 Sn5 2.092985 1_555
O55 Si13 1.644948 1_655
O55 Sn5 2.137637 1_555
O56 Si14 1.627419 1_545
O56 Sn5 2.101836 1_555
O57 Si15 1.645780 1_545
O57 Sn6 2.101499 1_555
O58 Si16 1.648183 1_555
O58 Sn6 2.100731 1_555
O59 Si17 1.645669 1_655
O59 Sn6 2.099655 1_555
O60 Si11 1.645214 1_555
O60 Sn7 2.097314 1_555
O61 Si9 1.644263 1_455
O61 Sn7 2.096643 1_555
O62 Si10 1.644971 1_565
O62 Sn7 2.094360 1_555
O63 Si7 1.642031 1_565
O63 Sn8 2.103831 1_555
O64 Si8 1.642482 1_555
O64 Sn8 2.107806 1_555
O65 Si6 1.642390 1_455
O65 Sn8 2.103794 1_555
O66 Si0 1.639867 1_555
O66 Ta1 1.980490 1_555
O67 Si1 1.660831 1_555
O67 Ta1 2.010597 1_555
O68 Si2 1.661737 1_455
O68 Ta1 2.027331 1_555
O69 Si3 1.661823 1_555
O69 Ta2 2.045979 1_555
O70 Si4 1.663127 1_455
O70 Ta2 2.055188 1_555
O71 Si5 1.662469 1_565
O71 Ta2 2.050424 1_555
