# generated using pymatgen
data_LiUF5
_symmetry_space_group_name_H-M   'P 1'
_cell_length_a   10.96780953
_cell_length_b   10.96780953
_cell_length_c   10.96780953
_cell_angle_alpha   95.01922653
_cell_angle_beta   95.01922653
_cell_angle_gamma   145.59051357
_symmetry_Int_Tables_number   1
_chemical_formula_structural   LiUF5
_chemical_formula_sum   'Li8 U8 F40'
_cell_volume   712.20757833
_cell_formula_units_Z   8
loop_
 _symmetry_equiv_pos_site_id
 _symmetry_equiv_pos_as_xyz
  1  'x, y, z'
loop_
 _atom_site_type_symbol
 _atom_site_label
 _atom_site_symmetry_multiplicity
 _atom_site_fract_x
 _atom_site_fract_y
 _atom_site_fract_z
 _atom_site_occupancy
  Li  Li0  1  0.68388566  0.16876887  0.64770006  1
  Li  Li1  1  0.28618560  0.43388566  0.01511680  1
  Li  Li2  1  0.41876887  0.27106880  0.98488320  1
  Li  Li3  1  0.52106880  0.03618560  0.35229994  1
  Li  Li4  1  0.56611434  0.58123113  0.85229994  1
  Li  Li5  1  0.96381440  0.31611434  0.48488320  1
  Li  Li6  1  0.83123113  0.47893120  0.51511680  1
  Li  Li7  1  0.72893120  0.71381440  0.14770006  1
  U  U0  1  0.32024726  0.68752499  0.75487735  1
  U  U1  1  0.81536990  0.07024726  0.13272326  1
  U  U2  1  0.93752499  0.68264764  0.86727674  1
  U  U3  1  0.93264764  0.56536990  0.24512265  1
  U  U4  1  0.92975274  0.06247501  0.74512265  1
  U  U5  1  0.43463010  0.67975274  0.36727674  1
  U  U6  1  0.31247501  0.06735236  0.63272326  1
  U  U7  1  0.31735236  0.18463010  0.25487735  1
  F  F0  1  0.94480631  0.78421959  0.23364604  1
  F  F1  1  0.96116027  0.69480631  0.66058671  1
  F  F2  1  0.03421959  0.30057355  0.33941329  1
  F  F3  1  0.55057355  0.71116027  0.76635396  1
  F  F4  1  0.30519369  0.96578041  0.26635396  1
  F  F5  1  0.28883973  0.05519369  0.83941329  1
  F  F6  1  0.21578041  0.44942645  0.16058671  1
  F  F7  1  0.69942645  0.03883973  0.73364604  1
  F  F8  1  0.70169563  0.83484302  0.27868815  1
  F  F9  1  0.67300748  0.45169563  0.36685261  1
  F  F10  1  0.08484302  0.30615487  0.63314739  1
  F  F11  1  0.55615487  0.42300748  0.72131185  1
  F  F12  1  0.54830437  0.91515698  0.22131185  1
  F  F13  1  0.57699252  0.29830437  0.13314739  1
  F  F14  1  0.16515698  0.44384513  0.86685261  1
  F  F15  1  0.69384513  0.32699252  0.77868815  1
  F  F16  1  0.01611273  0.05707206  0.17274639  1
  F  F17  1  0.09336634  0.76611273  0.45904067  1
  F  F18  1  0.30707206  0.63432567  0.54095933  1
  F  F19  1  0.88432567  0.84336634  0.82725361  1
  F  F20  1  0.23388727  0.69292794  0.32725361  1
  F  F21  1  0.15663366  0.98388727  0.04095933  1
  F  F22  1  0.94292794  0.11567433  0.95904067  1
  F  F23  1  0.36567433  0.90663366  0.67274639  1
  F  F24  1  0.39442998  0.44226045  0.36141223  1
  F  F25  1  0.28301776  0.14442998  0.45216954  1
  F  F26  1  0.69226045  0.83084822  0.54783046  1
  F  F27  1  0.08084822  0.03301776  0.63858777  1
  F  F28  1  0.85557002  0.30773955  0.13858777  1
  F  F29  1  0.96698224  0.60557002  0.04783046  1
  F  F30  1  0.55773955  0.91915178  0.95216954  1
  F  F31  1  0.16915178  0.71698224  0.86141223  1
  F  F32  1  0.43620958  0.40588488  0.12988280  1
  F  F33  1  0.55632678  0.18620958  0.53032470  1
  F  F34  1  0.65588488  0.02600208  0.46967530  1
  F  F35  1  0.27600208  0.30632678  0.87011720  1
  F  F36  1  0.81379042  0.34411512  0.37011720  1
  F  F37  1  0.69367322  0.56379042  0.96967530  1
  F  F38  1  0.59411512  0.72399792  0.03032470  1
  F  F39  1  0.97399792  0.44367322  0.62988280  1
loop_
_geom_bond_atom_site_label_1
_geom_bond_atom_site_label_2
_geom_bond_distance
_geom_bond_site_symmetry_2
F0 Li7 1.885756 1_555
F0 U3 2.307102 1_555
F0 U7 2.466164 1_665
F1 Li6 1.885756 1_555
F1 U2 2.307091 1_555
F1 U6 2.466159 1_665
F2 Li5 1.885756 1_455
F2 U1 2.307093 1_455
F2 U5 2.466166 1_555
F3 Li4 1.885757 1_555
F3 U0 2.307102 1_555
F3 U4 2.466164 1_565
F4 Li3 1.885756 1_565
F4 U7 2.307102 1_565
F4 U3 2.466164 1_455
F5 Li2 1.885756 1_555
F5 U6 2.307091 1_555
F5 U2 2.466159 1_445
F6 Li1 1.885756 1_555
F6 U5 2.307093 1_555
F6 U1 2.466166 1_455
F7 Li0 1.885757 1_555
F7 U4 2.307102 1_555
F7 U0 2.466164 1_545
F8 Li7 2.076274 1_555
F8 U5 2.232304 1_555
F8 U1 2.558216 1_565
F9 Li6 2.076274 1_555
F9 U7 2.232311 1_555
F9 U3 2.558224 1_555
F10 Li5 2.076274 1_455
F10 U4 2.232311 1_455
F10 U0 2.558224 1_555
F11 Li4 2.076274 1_555
F11 U6 2.232309 1_555
F11 U2 2.558220 1_555
F12 Li3 2.076274 1_565
F12 U1 2.232304 1_565
F12 U5 2.558216 1_555
F13 Li2 2.076274 1_554
F13 U3 2.232311 1_555
F13 U7 2.558224 1_555
F14 Li1 2.076274 1_556
F14 U0 2.232311 1_555
F14 U4 2.558224 1_455
F15 Li0 2.076274 1_555
F15 U2 2.232309 1_555
F15 U6 2.558220 1_555
F16 Li7 2.066697 1_445
F16 U7 2.305741 1_555
F16 U1 2.329817 1_455
F17 Li6 2.066697 1_455
F17 U6 2.305748 1_565
F17 U3 2.329818 1_455
F18 Li5 2.066697 1_455
F18 U5 2.305751 1_555
F18 U0 2.329818 1_555
F19 Li4 2.066697 1_555
F19 U4 2.305741 1_565
F19 U2 2.329816 1_555
F20 Li3 2.066697 1_565
F20 U3 2.305741 1_455
F20 U5 2.329817 1_555
F21 Li2 2.066697 1_564
F21 U2 2.305748 1_454
F21 U7 2.329818 1_565
F22 Li1 2.066697 1_656
F22 U1 2.305751 1_556
F22 U4 2.329818 1_555
F23 Li0 2.066697 1_565
F23 U0 2.305741 1_555
F23 U6 2.329816 1_565
F24 U5 2.248127 1_555
F24 U7 2.317788 1_555
F25 U7 2.248127 1_555
F25 U6 2.317798 1_555
F26 U4 2.248127 1_565
F26 U5 2.317795 1_555
F27 U6 2.248125 1_555
F27 U4 2.317788 1_455
F28 U1 2.248127 1_555
F28 U3 2.317788 1_555
F29 U3 2.248127 1_555
F29 U2 2.317798 1_554
F30 U0 2.248127 1_555
F30 U1 2.317795 1_566
F31 U2 2.248125 1_455
F31 U0 2.317788 1_555
F32 Li7 1.906655 1_555
F32 Li2 1.954661 1_554
F32 Li1 2.219281 1_555
F32 U7 2.267734 1_555
F33 Li6 1.906655 1_555
F33 Li0 1.954661 1_555
F33 Li3 2.219281 1_555
F33 U6 2.267741 1_555
F34 Li5 1.906655 1_555
F34 Li3 1.954661 1_555
F34 Li0 2.219282 1_555
F34 U5 2.267737 1_545
F35 Li4 1.906655 1_555
F35 Li1 1.954661 1_556
F35 Li2 2.219282 1_555
F35 U4 2.267734 1_455
F36 Li3 1.906655 1_555
F36 Li6 1.954661 1_555
F36 Li5 2.219281 1_555
F36 U3 2.267734 1_555
F37 Li2 1.906655 1_555
F37 Li4 1.954661 1_555
F37 Li7 2.219281 1_556
F37 U2 2.267741 1_555
F38 Li1 1.906655 1_555
F38 Li7 1.954661 1_555
F38 Li4 2.219282 1_554
F38 U1 2.267737 1_565
F39 Li0 1.906655 1_555
F39 Li5 1.954661 1_555
F39 Li6 2.219282 1_555
F39 U0 2.267734 1_655
