# generated using pymatgen
data_PbBrF
_symmetry_space_group_name_H-M   'P 1'
_cell_length_a   4.18506365
_cell_length_b   4.18506365
_cell_length_c   7.66234349
_cell_angle_alpha   90.00000000
_cell_angle_beta   90.00000000
_cell_angle_gamma   90.00000000
_symmetry_Int_Tables_number   1
_chemical_formula_structural   PbBrF
_chemical_formula_sum   'Pb2 Br2 F2'
_cell_volume   134.20409006
_cell_formula_units_Z   2
loop_
 _symmetry_equiv_pos_site_id
 _symmetry_equiv_pos_as_xyz
  1  'x, y, z'
loop_
 _atom_site_type_symbol
 _atom_site_label
 _atom_site_symmetry_multiplicity
 _atom_site_fract_x
 _atom_site_fract_y
 _atom_site_fract_z
 _atom_site_occupancy
  Pb  Pb0  1  0.75000000  0.75000000  0.80940022  1
  Pb  Pb1  1  0.25000000  0.25000000  0.19059978  1
  Br  Br0  1  0.25000000  0.25000000  0.65273184  1
  Br  Br1  1  0.75000000  0.75000000  0.34726816  1
  F  F0  1  0.25000000  0.75000000  -0.00000000  1
  F  F1  1  0.75000000  0.25000000  -0.00000000  1
loop_
_geom_bond_atom_site_label_1
_geom_bond_atom_site_label_2
_geom_bond_distance
_geom_bond_site_symmetry_2
Br0 Pb0 3.193501 1_455
Br0 Pb0 3.193501 1_445
Br0 Pb0 3.193501 1_555
Br0 Pb0 3.193501 1_545
Br1 Pb1 3.193501 1_565
Br1 Pb1 3.193501 1_655
Br1 Pb1 3.193501 1_665
Br1 Pb1 3.193501 1_555
F0 Pb0 2.551779 1_454
F0 Pb1 2.551779 1_565
F0 Pb1 2.551779 1_555
F0 Pb0 2.551779 1_554
F1 Pb1 2.551779 1_555
F1 Pb1 2.551779 1_655
F1 Pb0 2.551779 1_544
F1 Pb0 2.551779 1_554
