# generated using pymatgen
data_Rb2Mg(FeS2)2
_symmetry_space_group_name_H-M   'P 1'
_cell_length_a   6.11455980
_cell_length_b   7.15904700
_cell_length_c   7.26083713
_cell_angle_alpha   119.53733120
_cell_angle_beta   113.37622418
_cell_angle_gamma   90.00000000
_symmetry_Int_Tables_number   1
_chemical_formula_structural   Rb2Mg(FeS2)2
_chemical_formula_sum   'Rb2 Mg1 Fe2 S4'
_cell_volume   246.10182452
_cell_formula_units_Z   1
loop_
 _symmetry_equiv_pos_site_id
 _symmetry_equiv_pos_as_xyz
  1  'x, y, z'
loop_
 _atom_site_type_symbol
 _atom_site_label
 _atom_site_symmetry_multiplicity
 _atom_site_fract_x
 _atom_site_fract_y
 _atom_site_fract_z
 _atom_site_occupancy
  Rb  Rb0  1  0.24915200  0.26941200  0.53882400  1
  Rb  Rb1  1  0.69539200  0.68641600  0.37283200  1
  Mg  Mg0  1  0.86201600  0.38437600  0.76875300  1
  Fe  Fe0  1  0.72013200  0.99626200  0.99252400  1
  Fe  Fe1  1  0.25916300  0.99629600  0.99259200  1
  S  S0  1  0.65137600  0.16811300  0.33622400  1
  S  S1  1  0.34058600  0.83807900  0.67615900  1
  S  S2  1  0.99859200  0.24185300  0.01289800  1
  S  S3  1  0.99859200  0.77104500  0.01289800  1
loop_
_geom_bond_atom_site_label_1
_geom_bond_atom_site_label_2
_geom_bond_distance
_geom_bond_site_symmetry_2
Rb0 S0 3.249269 1_555
Rb0 S0 3.275872 1_455
Rb0 S3 3.403376 1_445
Rb0 S2 3.403376 1_455
Rb0 S1 3.665490 1_555
Rb0 S1 3.665497 1_545
Rb1 S1 3.488544 1_555
Rb1 S1 3.512918 1_655
Rb1 S0 3.589162 1_555
Rb1 S0 3.589177 1_565
Mg0 S2 2.342982 1_556
Mg0 S3 2.342988 1_556
Mg0 S0 2.432059 1_555
Mg0 Rb0 3.293817 1_655
Mg0 Rb0 3.344881 1_555
Fe0 S1 2.269308 1_555
Fe0 S2 2.357090 1_566
Fe0 S3 2.357090 1_556
Fe0 S0 2.392376 1_566
Fe1 S1 2.269678 1_555
Fe1 S2 2.362525 1_466
Fe1 S3 2.362525 1_456
Fe1 S0 2.390706 1_566
