# generated using pymatgen
data_Na4Hf2In2Si3(SO8)3
_symmetry_space_group_name_H-M   'P 1'
_cell_length_a   9.07261846
_cell_length_b   9.06774942
_cell_length_c   23.13168139
_cell_angle_alpha   90.19779766
_cell_angle_beta   89.23361191
_cell_angle_gamma   119.88780305
_symmetry_Int_Tables_number   1
_chemical_formula_structural   Na4Hf2In2Si3(SO8)3
_chemical_formula_sum   'Na12 Hf6 In6 Si9 S9 O72'
_cell_volume   1649.74966095
_cell_formula_units_Z   3
loop_
 _symmetry_equiv_pos_site_id
 _symmetry_equiv_pos_as_xyz
  1  'x, y, z'
loop_
 _atom_site_type_symbol
 _atom_site_label
 _atom_site_symmetry_multiplicity
 _atom_site_fract_x
 _atom_site_fract_y
 _atom_site_fract_z
 _atom_site_occupancy
  Na  Na0  1  0.99069241  0.64499493  0.25444115  1
  Na  Na1  1  0.99194198  0.35057034  0.73797637  1
  Na  Na2  1  0.65884025  0.97822428  0.59207407  1
  Na  Na3  1  0.66865705  0.69636263  0.08010471  1
  Na  Na4  1  0.33709746  0.31029806  0.90079439  1
  Na  Na5  1  0.31745298  0.01806834  0.42238161  1
  Na  Na6  1  0.01195387  0.99327556  0.50325530  1
  Na  Na7  1  0.98405561  0.97528176  0.99400390  1
  Na  Na8  1  0.65286935  0.32169552  0.81899272  1
  Na  Na9  1  0.65777457  0.34755444  0.33104240  1
  Na  Na10  1  0.33050368  0.67925546  0.16963223  1
  Na  Na11  1  0.32428680  0.66878202  0.65824240  1
  Hf  Hf0  1  0.01167805  0.01444309  0.64692227  1
  Hf  Hf1  1  -0.00031716  0.98489633  0.15060297  1
  Hf  Hf2  1  0.67586143  0.34886069  0.98009560  1
  Hf  Hf3  1  0.67734520  0.33671595  0.48431163  1
  Hf  Hf4  1  0.33225304  0.67071487  0.31288136  1
  Hf  Hf5  1  0.35209199  0.67094143  0.80978061  1
  In  In0  1  0.00256030  0.98717490  0.34905284  1
  In  In1  1  0.98600346  0.99030811  0.84618248  1
  In  In2  1  0.64954931  0.31737117  0.68314793  1
  In  In3  1  0.66924973  0.33673681  0.18678255  1
  In  In4  1  0.33378182  0.67605139  0.01667634  1
  In  In5  1  0.30519038  0.65609022  0.51929023  1
  Si  Si0  1  0.30272088  0.00481000  0.25222433  1
  Si  Si1  1  0.69752107  0.70274313  0.24901596  1
  Si  Si2  1  0.29493222  0.28942685  0.75469626  1
  Si  Si3  1  0.70871355  0.00342077  0.74823540  1
  Si  Si4  1  0.96208320  0.33434111  0.58814658  1
  Si  Si5  1  0.36937210  0.03519237  0.57899852  1
  Si  Si6  1  0.96853191  0.62739615  0.08549461  1
  Si  Si7  1  0.63137316  0.67550769  0.92005990  1
  Si  Si8  1  0.02972339  0.66355542  0.41438278  1
  S  S0  1  0.00599883  0.29086604  0.25086244  1
  S  S1  1  0.00383317  0.70465837  0.75131948  1
  S  S2  1  0.66942036  0.62878257  0.58341106  1
  S  S3  1  0.67273295  0.04459273  0.08292503  1
  S  S4  1  0.36917151  0.32847464  0.08190926  1
  S  S5  1  0.03804750  0.37409157  0.91760089  1
  S  S6  1  0.33490901  0.96588942  0.91748099  1
  S  S7  1  0.62683137  0.95998399  0.41664901  1
  S  S8  1  0.33429454  0.37558997  0.41629403  1
  O  O0  1  0.23456198  0.04121653  0.31264511  1
  O  O1  1  0.82260291  0.79339482  0.30226005  1
  O  O2  1  0.98519633  0.19329578  0.30366545  1
  O  O3  1  0.22094032  0.18684021  0.81567224  1
  O  O4  1  0.98080112  0.77564846  0.80645331  1
  O  O5  1  0.82034567  0.03807232  0.80643200  1
  O  O6  1  0.79424443  0.96864028  0.69065368  1
  O  O7  1  0.16588641  0.19275971  0.70064171  1
  O  O8  1  0.02750549  0.81415630  0.70057080  1
  O  O9  1  0.78622867  0.81803570  0.18806122  1
  O  O10  1  0.02251184  0.20464512  0.19758258  1
  O  O11  1  0.16688933  0.97140781  0.19830345  1
  O  O12  1  0.88432579  0.36588600  0.64710192  1
  O  O13  1  0.48989602  0.11950957  0.63361247  1
  O  O14  1  0.64266555  0.53016258  0.63623507  1
  O  O15  1  0.88510124  0.52120349  0.14381677  1
  O  O16  1  0.64961558  0.12132939  0.13533512  1
  O  O17  1  0.47547610  0.35224354  0.13213905  1
  O  O18  1  0.45023309  0.30381061  0.02813152  1
  O  O19  1  0.83505451  0.52738079  0.03041997  1
  O  O20  1  0.67879640  0.14288413  0.03001892  1
  O  O21  1  0.45543152  0.15169093  0.51878472  1
  O  O22  1  0.68812857  0.53852966  0.53101116  1
  O  O23  1  0.83697876  0.30969115  0.53226536  1
  O  O24  1  0.55166041  0.69393563  0.98182246  1
  O  O25  1  0.14159736  0.45821928  0.96949360  1
  O  O26  1  0.30838620  0.86762166  0.97142681  1
  O  O27  1  0.55708839  0.86030991  0.47002872  1
  O  O28  1  0.32540901  0.45918366  0.46974800  1
  O  O29  1  0.16422121  0.70938195  0.46575391  1
  O  O30  1  0.12126416  0.64049068  0.35413391  1
  O  O31  1  0.51319466  0.86689184  0.36594942  1
  O  O32  1  0.35139102  0.48146955  0.36415960  1
  O  O33  1  0.11196789  0.47776326  0.86483127  1
  O  O34  1  0.35009483  0.87640566  0.86622401  1
  O  O35  1  0.49537447  0.63805571  0.86759424  1
  O  O36  1  0.01768315  0.83966410  0.41464052  1
  O  O37  1  0.80195861  0.99607665  0.40708786  1
  O  O38  1  0.17814617  0.20565102  0.41282755  1
  O  O39  1  0.02715029  0.20571948  0.91483060  1
  O  O40  1  0.18897740  0.99701544  0.91402103  1
  O  O41  1  0.82346899  0.83168814  0.91341225  1
  O  O42  1  0.95911997  0.14885216  0.58927997  1
  O  O43  1  0.17781062  0.00977350  0.58787819  1
  O  O44  1  0.82827723  0.79718658  0.58612183  1
  O  O45  1  0.97116219  0.81471981  0.08732551  1
  O  O46  1  0.83248336  0.03490085  0.08429119  1
  O  O47  1  0.19736733  0.17802899  0.08735958  1
  O  O48  1  0.69456102  0.17554511  0.74651807  1
  O  O49  1  0.49060907  0.33544855  0.74659047  1
  O  O50  1  0.85514713  0.53281603  0.74583406  1
  O  O51  1  0.69377010  0.52116711  0.24572495  1
  O  O52  1  0.85913724  0.31921163  0.24643015  1
  O  O53  1  0.49396480  0.15624743  0.24116970  1
  O  O54  1  0.63179514  0.48832472  0.92524652  1
  O  O55  1  0.86242001  0.34978059  0.92558655  1
  O  O56  1  0.49455952  0.13611288  0.92241536  1
  O  O57  1  0.62506862  0.12604982  0.41950757  1
  O  O58  1  0.48677470  0.35232332  0.41712108  1
  O  O59  1  0.84246225  0.49120450  0.42208091  1
  O  O60  1  0.35902333  0.48618343  0.07688056  1
  O  O61  1  0.15824611  0.65522716  0.07742079  1
  O  O62  1  0.52597494  0.86682221  0.08013103  1
  O  O63  1  0.37107543  0.85548255  0.57592930  1
  O  O64  1  0.52420777  0.65748915  0.57486753  1
  O  O65  1  0.15785912  0.48570085  0.58253449  1
  O  O66  1  0.29698748  0.81786407  0.25511530  1
  O  O67  1  0.50945237  0.68148236  0.25554571  1
  O  O68  1  0.16448509  0.46267907  0.25340323  1
  O  O69  1  0.28865490  0.47148031  0.76043331  1
  O  O70  1  0.15994398  0.68802365  0.75680197  1
  O  O71  1  0.51756307  0.83190206  0.75628111  1
loop_
_geom_bond_atom_site_label_1
_geom_bond_atom_site_label_2
_geom_bond_distance
_geom_bond_site_symmetry_2
Na0 O51 2.357281 1_555
Na0 O66 2.416493 1_655
Na0 O52 2.583398 1_555
Na0 O30 2.616272 1_655
Na0 O1 2.711040 1_555
Na0 O15 2.774874 1_555
Na0 O68 2.795771 1_655
Na0 O11 2.873646 1_655
Na1 O48 2.357468 1_555
Na1 O12 2.362913 1_555
Na1 O69 2.410526 1_655
Na1 O50 2.517972 1_555
Na1 O70 2.690071 1_655
Na1 O7 2.736728 1_655
Na1 O5 2.920488 1_555
Na2 O63 2.306879 1_555
Na2 O42 2.369633 1_565
Na2 O64 2.563882 1_555
Na2 O13 2.612098 1_565
Na2 O6 2.626637 1_555
Na2 O44 2.754028 1_555
Na2 O23 2.947494 1_565
Na2 O27 3.005094 1_555
Na3 O45 2.405744 1_555
Na3 O62 2.461492 1_555
Na3 O60 2.489632 1_555
Na3 O24 2.517265 1_554
Na3 O46 2.663959 1_565
Na3 O9 2.733227 1_555
Na3 O19 2.862630 1_555
Na3 O17 2.962509 1_555
Na4 O3 2.259514 1_555
Na4 O54 2.409799 1_555
Na4 O40 2.481914 1_545
Na4 O39 2.496462 1_555
Na4 O56 2.656888 1_555
Na4 O35 2.686583 1_555
Na5 O36 2.381615 1_545
Na5 O57 2.454431 1_555
Na5 O21 2.559749 1_555
Na5 O38 2.586897 1_555
Na5 O29 2.622615 1_545
Na5 O58 2.630310 1_555
Na5 O0 2.695386 1_555
Na6 O43 2.443519 1_565
Na6 O36 2.488817 1_555
Na6 O44 2.568646 1_455
Na6 O42 2.609337 1_465
Na6 O38 2.721592 1_565
Na6 O37 2.956504 1_455
Na7 O41 2.336382 1_555
Na7 O40 2.542388 1_655
Na7 O45 2.576542 1_556
Na7 O39 2.658237 1_665
Na7 O46 2.683545 1_566
Na7 O47 2.885677 1_666
Na8 O48 2.275340 1_555
Na8 O49 2.288662 1_555
Na8 O50 2.516857 1_555
Na8 O56 2.853971 1_555
Na8 O54 2.934307 1_555
Na9 O51 2.443702 1_555
Na9 O58 2.521319 1_555
Na9 O59 2.615209 1_555
Na9 O53 2.651084 1_555
Na9 O52 2.757371 1_555
Na9 O57 2.779931 1_555
Na10 O66 2.435120 1_555
Na10 O67 2.576642 1_555
Na10 O61 2.605038 1_555
Na10 O68 2.623091 1_555
Na10 O62 2.691482 1_555
Na10 O60 2.854095 1_555
Na11 O65 2.378089 1_555
Na11 O63 2.440508 1_555
Na11 O64 2.666467 1_555
Na11 O70 2.759869 1_555
Na11 O71 2.811391 1_555
Na11 O69 2.885386 1_555
Hf0 O7 1.973344 1_555
Hf0 O42 2.024376 1_455
Hf0 O43 2.036451 1_555
Hf0 O6 2.054335 1_445
Hf0 O8 2.267000 1_545
Hf0 O44 2.324711 1_445
Hf1 O11 1.940193 1_555
Hf1 O9 1.958168 1_455
Hf1 O45 2.046271 1_455
Hf1 O10 2.184989 1_565
Hf1 O47 2.289332 1_565
Hf1 O46 2.368985 1_465
Hf2 O19 1.939958 1_556
Hf2 O54 1.974175 1_555
Hf2 O55 2.093711 1_555
Hf2 O18 2.168135 1_556
Hf2 O20 2.210892 1_556
Hf2 O56 2.255200 1_555
Hf3 O23 1.945920 1_555
Hf3 O21 2.025869 1_555
Hf3 O59 2.035564 1_555
Hf3 O22 2.082336 1_555
Hf3 O57 2.284176 1_555
Hf3 O58 2.396305 1_555
Hf4 O30 2.019909 1_555
Hf4 O66 2.029155 1_555
Hf4 O67 2.034827 1_555
Hf4 O31 2.120074 1_555
Hf4 O32 2.167572 1_555
Hf4 O68 2.223687 1_555
Hf5 O71 1.922133 1_555
Hf5 O69 1.967586 1_555
Hf5 O35 2.000704 1_555
Hf5 O70 2.211883 1_555
Hf5 O34 2.278673 1_555
Hf5 O33 2.360951 1_555
In0 O1 2.024802 1_455
In0 O0 2.075405 1_565
In0 O36 2.076586 1_555
In0 O2 2.220778 1_465
In0 O37 2.280640 1_455
In0 O38 2.352907 1_565
In1 O5 1.995088 1_565
In1 O3 2.097626 1_665
In1 O41 2.121801 1_555
In1 O4 2.129044 1_555
In1 O39 2.396671 1_665
In1 O40 2.412947 1_655
In2 O13 2.017489 1_555
In2 O49 2.106466 1_555
In2 O12 2.108785 1_555
In2 O48 2.126464 1_555
In2 O14 2.245215 1_555
In2 O50 2.412391 1_555
In3 O53 2.038904 1_555
In3 O15 2.077404 1_555
In3 O51 2.080110 1_555
In3 O16 2.214966 1_555
In3 O17 2.239458 1_555
In3 O52 2.287983 1_555
In4 O61 2.046598 1_555
In4 O24 2.054885 1_554
In4 O26 2.141052 1_554
In4 O25 2.176379 1_554
In4 O62 2.287399 1_555
In4 O60 2.318197 1_555
In5 O29 2.016258 1_555
In5 O65 2.054061 1_555
In5 O63 2.066478 1_555
In5 O28 2.200369 1_555
In5 O64 2.375802 1_555
In5 O27 2.382812 1_555
O0 Si0 1.619229 1_555
O1 Si1 1.606595 1_555
O2 S0 1.464631 1_655
O3 Si2 1.633035 1_555
O4 S1 1.485189 1_655
O5 Si3 1.628834 1_555
O6 Si3 1.639847 1_565
O7 Si2 1.646613 1_555
O8 S1 1.482837 1_555
O9 Si1 1.694115 1_555
O10 S0 1.502592 1_555
O11 Si0 1.683047 1_565
O12 Si4 1.616153 1_555
O13 Si5 1.604146 1_555
O14 S2 1.461151 1_555
O15 Si6 1.604829 1_555
O16 S3 1.459704 1_555
O17 S4 1.465514 1_555
O18 S4 1.508601 1_555
O19 Si6 1.688414 1_555
O20 S3 1.500660 1_555
O21 Si5 1.680668 1_555
O22 S2 1.514542 1_555
O23 Si4 1.671389 1_555
O24 Si7 1.638047 1_555
O25 S5 1.488295 1_555
O26 S6 1.481555 1_555
O27 S7 1.469270 1_555
O28 S8 1.470278 1_555
O29 Si8 1.613621 1_555
O30 Si8 1.678068 1_555
O31 S7 1.519555 1_555
O32 S8 1.501579 1_555
O33 S5 1.476887 1_555
O34 S6 1.477691 1_555
O35 Si7 1.652341 1_555
O36 Si8 1.654042 1_555
O37 S7 1.467437 1_555
O38 S8 1.488125 1_555
O39 S5 1.481191 1_555
O40 S6 1.488087 1_555
O41 Si7 1.612826 1_555
O42 Si4 1.669025 1_555
O43 Si5 1.645414 1_555
O44 S2 1.490426 1_555
O45 Si6 1.687232 1_555
O46 S3 1.495840 1_555
O47 S4 1.477592 1_555
O48 Si3 1.629230 1_555
O49 Si2 1.616878 1_555
O50 S1 1.473850 1_655
O51 Si1 1.631328 1_555
O52 S0 1.482250 1_655
O53 Si0 1.605491 1_555
O54 Si7 1.703886 1_555
O55 S5 1.504655 1_655
O56 S6 1.506190 1_545
O57 S7 1.515083 1_545
O58 S8 1.500088 1_555
O59 Si8 1.645677 1_655
O60 S4 1.483154 1_555
O61 Si6 1.618623 1_455
O62 S3 1.496008 1_565
O63 Si5 1.638605 1_565
O64 S2 1.480408 1_555
O65 Si4 1.618947 1_455
O66 Si0 1.671413 1_565
O67 Si1 1.623833 1_555
O68 S0 1.505745 1_555
O69 Si2 1.684645 1_555
O70 S1 1.504223 1_555
O71 Si3 1.663254 1_565
