# generated using pymatgen
data_MgZn2(CoS2)4
_symmetry_space_group_name_H-M   'P 1'
_cell_length_a   8.71648340
_cell_length_b   6.95002440
_cell_length_c   6.95008070
_cell_angle_alpha   71.85708716
_cell_angle_beta   128.82121252
_cell_angle_gamma   128.84336891
_symmetry_Int_Tables_number   1
_chemical_formula_structural   MgZn2(CoS2)4
_chemical_formula_sum   'Mg1 Zn2 Co4 S8'
_cell_volume   253.15917080
_cell_formula_units_Z   1
loop_
 _symmetry_equiv_pos_site_id
 _symmetry_equiv_pos_as_xyz
  1  'x, y, z'
loop_
 _atom_site_type_symbol
 _atom_site_label
 _atom_site_symmetry_multiplicity
 _atom_site_fract_x
 _atom_site_fract_y
 _atom_site_fract_z
 _atom_site_occupancy
  Mg  Mg0  1  0.24825868  0.28937486  0.71056763  1
  Zn  Zn0  1  0.92220982  0.97993926  0.01947182  1
  Zn  Zn1  1  0.57750435  0.98107681  0.01959023  1
  Co  Co0  1  0.49371236  0.02055039  0.46671051  1
  Co  Co1  1  0.60471081  0.56870136  0.43145114  1
  Co  Co2  1  0.00664118  0.53334586  0.97942062  1
  Co  Co3  1  0.89577756  0.56888547  0.43099932  1
  S  S0  1  0.07992937  0.75896477  0.24082798  1
  S  S1  1  0.50225926  0.74825255  0.75688838  1
  S  S2  1  0.42055182  0.75891372  0.24133501  1
  S  S3  1  0.99521077  0.79626559  0.69343028  1
  S  S4  1  0.57465397  0.28804111  0.71205176  1
  S  S5  1  0.50545754  0.30650427  0.20385435  1
  S  S6  1  0.99763099  0.24313305  0.25176705  1
  S  S7  1  0.92554052  0.28764695  0.71204793  1
loop_
_geom_bond_atom_site_label_1
_geom_bond_atom_site_label_2
_geom_bond_distance
_geom_bond_site_symmetry_2
Mg0 S1 2.462753 1_555
Mg0 S6 2.463167 1_455
Mg0 S3 2.658406 1_445
Mg0 S5 2.660223 1_556
Mg0 S7 2.811916 1_455
Mg0 S4 2.844390 1_555
Co0 S5 2.239599 1_555
Co0 S0 2.287231 1_545
Co0 S2 2.287706 1_545
Co0 S1 2.294751 1_545
Co0 S7 2.383453 1_555
Co0 S4 2.383690 1_555
Co1 S3 2.161621 1_555
Co1 S5 2.161734 1_555
Co1 S2 2.232714 1_555
Co1 S4 2.303741 1_555
Co2 S3 2.240056 1_455
Co2 S0 2.286961 1_556
Co2 S2 2.288239 1_556
Co2 S6 2.295047 1_456
Co2 S7 2.384067 1_455
Co2 S4 2.384446 1_455
Co3 S5 2.160798 1_555
Co3 S3 2.161059 1_555
Co3 S0 2.231873 1_655
Co3 S7 2.307863 1_555
S0 Zn0 2.267295 1_455
S1 Zn0 2.320209 1_556
S1 Zn1 2.321493 1_556
S2 Zn1 2.267734 1_555
S4 Zn1 2.506125 1_546
S6 Zn0 2.320496 1_545
S6 Zn1 2.320888 1_545
S7 Zn0 2.508729 1_546
