# generated using pymatgen
data_Ba2DyMg(CuO2)4
_symmetry_space_group_name_H-M   'P 1'
_cell_length_a   4.02232642
_cell_length_b   3.87319786
_cell_length_c   15.77096749
_cell_angle_alpha   90.60790165
_cell_angle_beta   90.00000000
_cell_angle_gamma   90.00000000
_symmetry_Int_Tables_number   1
_chemical_formula_structural   Ba2DyMg(CuO2)4
_chemical_formula_sum   'Ba2 Dy1 Mg1 Cu4 O8'
_cell_volume   245.68626972
_cell_formula_units_Z   1
loop_
 _symmetry_equiv_pos_site_id
 _symmetry_equiv_pos_as_xyz
  1  'x, y, z'
loop_
 _atom_site_type_symbol
 _atom_site_label
 _atom_site_symmetry_multiplicity
 _atom_site_fract_x
 _atom_site_fract_y
 _atom_site_fract_z
 _atom_site_occupancy
  Ba  Ba0  1  0.50000000  0.37402703  0.73359963  1
  Ba  Ba1  1  0.50000000  0.40812238  0.18699190  1
  Dy  Dy0  1  0.50000000  0.41027892  0.96480797  1
  Mg  Mg0  1  0.00000000  0.85349502  0.35656063  1
  Cu  Cu0  1  0.00000000  0.90075593  0.86807826  1
  Cu  Cu1  1  0.00000000  0.91531956  0.06692691  1
  Cu  Cu2  1  0.00000000  0.86179314  0.60538379  1
  Cu  Cu3  1  0.00000000  0.35343851  0.47984336  1
  O  O0  1  0.00000000  0.36143061  0.60492995  1
  O  O1  1  0.00000000  0.85301439  0.47850208  1
  O  O2  1  0.00000000  0.40185267  0.88936819  1
  O  O3  1  0.00000000  0.41613793  0.07054382  1
  O  O4  1  0.50000000  0.90500809  0.88404031  1
  O  O5  1  0.50000000  0.91537758  0.07083200  1
  O  O6  1  0.00000000  0.87019240  0.72489935  1
  O  O7  1  0.00000000  0.34975581  0.31098785  1
loop_
_geom_bond_atom_site_label_1
_geom_bond_atom_site_label_2
_geom_bond_distance
_geom_bond_site_symmetry_2
Ba0 O6 2.786092 1_655
Ba0 O6 2.786092 1_555
Ba0 O6 2.804654 1_645
Ba0 O6 2.804654 1_545
Ba0 O0 2.857078 1_555
Ba0 O0 2.857078 1_655
Ba0 O4 3.003450 1_545
Ba0 O4 3.123340 1_555
Ba0 O2 3.175809 1_655
Ba0 O2 3.175809 1_555
Ba1 O5 2.631393 1_545
Ba1 O5 2.700458 1_555
Ba1 O3 2.723909 1_655
Ba1 O3 2.723909 1_555
Ba1 O7 2.815916 1_555
Ba1 O7 2.815916 1_655
Dy0 O4 2.312159 1_555
Dy0 O4 2.323690 1_545
Dy0 O2 2.336781 1_655
Dy0 O2 2.336781 1_555
Dy0 O5 2.557001 1_546
Dy0 O5 2.560040 1_556
Dy0 O3 2.612515 1_656
Dy0 O3 2.612515 1_556
Mg0 O1 1.923155 1_555
Mg0 O7 2.059226 1_565
Mg0 O7 2.072084 1_555
Cu0 O2 1.964812 1_555
Cu0 O2 1.966163 1_565
Cu0 O4 2.026902 1_555
Cu0 O4 2.026902 1_455
Cu0 O6 2.259916 1_555
Cu1 O3 1.934875 1_555
Cu1 O3 1.940002 1_565
Cu1 O5 2.012106 1_455
Cu1 O5 2.012106 1_555
Cu2 O6 1.884812 1_555
Cu2 O0 1.935284 1_565
Cu2 O0 1.937940 1_555
Cu2 O1 2.000975 1_555
Cu3 O1 1.935296 1_555
Cu3 O1 1.938133 1_545
Cu3 O0 1.972651 1_555
