# generated using pymatgen
data_Na2Ti2Si3Sn2(SO8)3
_symmetry_space_group_name_H-M   'P 1'
_cell_length_a   8.80063498
_cell_length_b   8.78026966
_cell_length_c   22.79094010
_cell_angle_alpha   90.50021792
_cell_angle_beta   90.42105834
_cell_angle_gamma   119.96728617
_symmetry_Int_Tables_number   1
_chemical_formula_structural   Na2Ti2Si3Sn2(SO8)3
_chemical_formula_sum   'Na6 Ti6 Si9 Sn6 S9 O72'
_cell_volume   1525.46262679
_cell_formula_units_Z   3
loop_
 _symmetry_equiv_pos_site_id
 _symmetry_equiv_pos_as_xyz
  1  'x, y, z'
loop_
 _atom_site_type_symbol
 _atom_site_label
 _atom_site_symmetry_multiplicity
 _atom_site_fract_x
 _atom_site_fract_y
 _atom_site_fract_z
 _atom_site_occupancy
  Na  Na0  1  0.99066666  0.98911250  0.49872120  1
  Na  Na1  1  0.00553583  0.98559512  0.00286504  1
  Na  Na2  1  0.65160702  0.31364428  0.82630815  1
  Na  Na3  1  0.66993881  0.32116815  0.33541364  1
  Na  Na4  1  0.31536589  0.65984547  0.17446189  1
  Na  Na5  1  0.34374571  0.66413345  0.66212258  1
  Ti  Ti0  1  0.98391252  0.00583188  0.64539525  1
  Ti  Ti1  1  0.00938645  0.99349881  0.15352277  1
  Ti  Ti2  1  0.64747362  0.32922672  0.68602892  1
  Ti  Ti3  1  0.68348064  0.34967107  0.47544254  1
  Ti  Ti4  1  0.35401371  0.68456564  0.51673383  1
  Ti  Ti5  1  0.31403435  0.67646856  0.31313827  1
  Si  Si0  1  0.29403018  0.00429763  0.25229760  1
  Si  Si1  1  0.00970848  0.28961958  0.25186756  1
  Si  Si2  1  0.28704093  0.28902157  0.74799960  1
  Si  Si3  1  0.71495550  0.01046043  0.74911487  1
  Si  Si4  1  0.66555159  0.62065932  0.58297991  1
  Si  Si5  1  0.95436753  0.62885505  0.08400083  1
  Si  Si6  1  0.33032836  0.96085168  0.91585511  1
  Si  Si7  1  0.62202326  0.95766164  0.41523556  1
  Si  Si8  1  0.05156517  0.67205137  0.41867093  1
  Sn  Sn0  1  0.00391462  0.00471763  0.35614133  1
  Sn  Sn1  1  0.01433899  0.00950947  0.84730726  1
  Sn  Sn2  1  0.68087237  0.33486311  0.19045768  1
  Sn  Sn3  1  0.66397747  0.33275436  0.98176388  1
  Sn  Sn4  1  0.31929415  0.67359452  0.02028164  1
  Sn  Sn5  1  0.34621408  0.68143972  0.80757765  1
  S  S0  1  0.70832003  0.71261119  0.24937935  1
  S  S1  1  0.99408507  0.70662341  0.74727479  1
  S  S2  1  0.95360635  0.33584056  0.58384426  1
  S  S3  1  0.37514556  0.04396229  0.58285110  1
  S  S4  1  0.67064857  0.03819835  0.08290651  1
  S  S5  1  0.37027905  0.33330653  0.08280798  1
  S  S6  1  0.62355609  0.66749294  0.91754823  1
  S  S7  1  0.04182723  0.37447859  0.91593020  1
  S  S8  1  0.33932991  0.38538756  0.41791297  1
  O  O0  1  0.20957570  0.03769847  0.30929733  1
  O  O1  1  0.81589422  0.78400065  0.30300713  1
  O  O2  1  0.96357497  0.16733248  0.30881767  1
  O  O3  1  0.22801657  0.18079776  0.80897639  1
  O  O4  1  0.96331761  0.77501203  0.80429238  1
  O  O5  1  0.82475686  0.03534979  0.81072975  1
  O  O6  1  0.81031099  0.97476156  0.69250176  1
  O  O7  1  0.16271490  0.18631155  0.69172677  1
  O  O8  1  0.02276197  0.82040400  0.69783578  1
  O  O9  1  0.79522504  0.81813422  0.19640892  1
  O  O10  1  0.02360019  0.18576058  0.19198453  1
  O  O11  1  0.16721401  0.96607438  0.19200069  1
  O  O12  1  0.87059864  0.35609687  0.63611196  1
  O  O13  1  0.48499272  0.12383140  0.63730800  1
  O  O14  1  0.64178695  0.49557652  0.64004316  1
  O  O15  1  0.86195165  0.49996007  0.13850161  1
  O  O16  1  0.62997599  0.11461405  0.13390263  1
  O  O17  1  0.48260067  0.36425443  0.13484123  1
  O  O18  1  0.44376583  0.29882501  0.02841959  1
  O  O19  1  0.84116003  0.54525228  0.02248108  1
  O  O20  1  0.69211887  0.13979254  0.02840579  1
  O  O21  1  0.45951155  0.15109506  0.53113290  1
  O  O22  1  0.69252580  0.52001667  0.52578154  1
  O  O23  1  0.84571502  0.30387674  0.52992184  1
  O  O24  1  0.54200165  0.68936666  0.97168926  1
  O  O25  1  0.14952362  0.44920669  0.97075471  1
  O  O26  1  0.30054010  0.84975762  0.97540775  1
  O  O27  1  0.53087297  0.83443408  0.47463387  1
  O  O28  1  0.31683740  0.46899823  0.47116167  1
  O  O29  1  0.17251041  0.68950411  0.47605071  1
  O  O30  1  0.13088480  0.63436727  0.35821190  1
  O  O31  1  0.49614986  0.85618562  0.35854227  1
  O  O32  1  0.36139832  0.48420620  0.36430781  1
  O  O33  1  0.12378333  0.48014298  0.86441645  1
  O  O34  1  0.36518722  0.87261048  0.85861593  1
  O  O35  1  0.51406563  0.63461596  0.86475141  1
  O  O36  1  0.03049305  0.84463611  0.41401425  1
  O  O37  1  0.81612414  0.97883189  0.41308672  1
  O  O38  1  0.17923280  0.20771383  0.41637597  1
  O  O39  1  0.01805393  0.19587277  0.91319898  1
  O  O40  1  0.15117020  0.97564612  0.91195671  1
  O  O41  1  0.79743044  0.82659291  0.91331678  1
  O  O42  1  0.97068688  0.17285431  0.58836086  1
  O  O43  1  0.20088887  0.02481351  0.58987533  1
  O  O44  1  0.84352827  0.81521474  0.59258925  1
  O  O45  1  0.97436157  0.82323098  0.09038782  1
  O  O46  1  0.82803226  0.02542743  0.08920118  1
  O  O47  1  0.19459305  0.18098408  0.08811471  1
  O  O48  1  0.69892672  0.18411694  0.73921846  1
  O  O49  1  0.48610397  0.31806863  0.73922522  1
  O  O50  1  0.84131320  0.52984221  0.74124820  1
  O  O51  1  0.68670328  0.53364336  0.24314544  1
  O  O52  1  0.83828386  0.31672505  0.24677122  1
  O  O53  1  0.48205834  0.18053329  0.24078913  1
  O  O54  1  0.64280153  0.50897507  0.92130000  1
  O  O55  1  0.86797304  0.36174010  0.92147880  1
  O  O56  1  0.50925698  0.15806582  0.92210658  1
  O  O57  1  0.63302483  0.14760975  0.42775878  1
  O  O58  1  0.49465348  0.36184684  0.42410932  1
  O  O59  1  0.85421793  0.49372940  0.42587248  1
  O  O60  1  0.36206448  0.49812592  0.07550337  1
  O  O61  1  0.14850103  0.64041852  0.08124148  1
  O  O62  1  0.51451072  0.85712575  0.07743046  1
  O  O63  1  0.35953149  0.86718716  0.57859082  1
  O  O64  1  0.49082326  0.64058860  0.57585446  1
  O  O65  1  0.13037933  0.49011202  0.57854707  1
  O  O66  1  0.31175827  0.82781927  0.25581565  1
  O  O67  1  0.53661901  0.69857773  0.25309894  1
  O  O68  1  0.19021038  0.48004788  0.25717812  1
  O  O69  1  0.29742634  0.48050193  0.75464251  1
  O  O70  1  0.15412527  0.69036371  0.75330399  1
  O  O71  1  0.52257404  0.83317115  0.75015590  1
loop_
_geom_bond_atom_site_label_1
_geom_bond_atom_site_label_2
_geom_bond_distance
_geom_bond_site_symmetry_2
Na0 O36 2.422899 1_655
Na0 O37 2.447681 1_555
Na0 O44 2.589875 1_555
Na0 O38 2.624246 1_665
Na0 O42 2.653021 1_565
Na0 O43 2.681384 1_665
Na1 O45 2.398647 1_455
Na1 O40 2.467945 1_554
Na1 O47 2.555216 1_565
Na1 O41 2.609500 1_454
Na1 O46 2.648272 1_465
Na1 O39 2.731872 1_564
Na2 O48 2.419168 1_555
Na2 O49 2.465242 1_555
Na2 O56 2.566138 1_555
Na2 O50 2.663583 1_555
Na2 O55 2.762032 1_555
Na2 O54 2.775763 1_555
Na3 O52 2.525517 1_555
Na3 O57 2.535495 1_555
Na3 O59 2.572487 1_555
Na3 O53 2.602105 1_555
Na3 O58 2.679030 1_555
Na3 O51 2.778917 1_555
Na4 O68 2.367420 1_555
Na4 O66 2.369366 1_555
Na4 O67 2.528967 1_555
Na4 O61 2.529240 1_555
Na4 O60 2.795079 1_555
Na4 O62 2.837875 1_555
Na5 O64 2.425170 1_555
Na5 O71 2.504647 1_555
Na5 O65 2.553248 1_555
Na5 O69 2.574383 1_555
Na5 O63 2.576423 1_555
Na5 O70 2.753721 1_555
O0 Si0 1.597288 1_555
O0 Sn0 2.002441 1_555
O1 S0 1.469627 1_555
O1 Sn0 2.164758 1_665
O2 Si1 1.612124 1_655
O2 Sn0 1.963562 1_655
O3 Si2 1.626237 1_555
O3 Sn1 1.945000 1_555
O4 S1 1.508814 1_555
O4 Sn1 2.106341 1_665
O5 Si3 1.648398 1_555
O5 Sn1 1.972602 1_655
O6 Si3 1.654964 1_565
O6 Ti0 1.781591 1_565
O7 Si2 1.621328 1_555
O7 Ti0 1.886144 1_455
O8 S1 1.450272 1_455
O8 Ti0 2.186350 1_465
O9 S0 1.491983 1_555
O9 Ti1 2.008145 1_655
O10 Si1 1.673702 1_555
O10 Ti1 1.842647 1_545
O11 Si0 1.685803 1_565
O11 Ti1 1.753911 1_555
O12 S2 1.457124 1_555
O12 Ti2 2.186438 1_555
O13 S3 1.502208 1_555
O13 Ti2 1.973703 1_555
O14 Si4 1.655522 1_555
O14 Ti2 1.825721 1_555
O15 Si5 1.614008 1_555
O15 Sn2 1.947559 1_555
O16 S4 1.470220 1_555
O16 Sn2 2.164349 1_555
O17 S5 1.471769 1_555
O17 Sn2 2.267394 1_555
O18 S5 1.499092 1_555
O18 Sn3 2.105780 1_554
O19 Si5 1.651725 1_555
O19 Sn3 1.953411 1_554
O20 S4 1.492880 1_555
O20 Sn3 2.123348 1_554
O21 S3 1.469677 1_555
O21 Ti3 2.275565 1_555
O22 Si4 1.652457 1_555
O22 Ti3 1.846452 1_555
O23 S2 1.483660 1_555
O23 Ti3 2.073168 1_555
O24 S6 1.490363 1_555
O24 Sn4 2.202398 1_556
O25 S7 1.495693 1_555
O25 Sn4 2.093730 1_556
O26 Si6 1.623342 1_555
O26 Sn4 1.935416 1_556
O27 Si7 1.679653 1_555
O27 Ti4 1.752906 1_555
O28 S8 1.477859 1_555
O28 Ti4 2.027388 1_555
O29 Si8 1.636978 1_555
O29 Ti4 1.860438 1_555
O30 Si8 1.652982 1_555
O30 Ti5 1.796013 1_555
O31 Si7 1.631975 1_555
O31 Ti5 1.884169 1_555
O32 S8 1.461771 1_555
O32 Ti5 2.261351 1_555
O33 S7 1.456817 1_555
O33 Sn5 2.292315 1_555
O34 Si6 1.619228 1_555
O34 Sn5 1.970143 1_555
O35 S6 1.469266 1_555
O35 Sn5 2.153333 1_555
O36 Si8 1.620237 1_555
O36 Sn0 2.031328 1_565
O37 Si7 1.624535 1_555
O37 Sn0 2.031945 1_665
O38 S8 1.490821 1_555
O38 Sn0 2.149609 1_555
O39 S7 1.475551 1_555
O39 Sn1 2.199260 1_555
O40 Si6 1.647277 1_555
O40 Sn1 2.012148 1_565
O41 S6 1.473533 1_555
O41 Sn1 2.346976 1_665
O42 S2 1.516042 1_555
O42 Ti0 2.013806 1_555
O43 S3 1.467046 1_555
O43 Ti0 2.235275 1_455
O44 Si4 1.653731 1_555
O44 Ti0 1.911339 1_565
O45 Si5 1.631000 1_555
O45 Ti1 1.973837 1_655
O46 S4 1.450555 1_555
O46 Ti1 2.279188 1_645
O47 S5 1.460711 1_555
O47 Ti1 2.233126 1_545
O48 Si3 1.617420 1_555
O48 Ti2 1.973114 1_555
O49 Si2 1.653422 1_555
O49 Ti2 1.839761 1_555
O50 S1 1.464421 1_555
O50 Ti2 2.127089 1_555
O51 S0 1.490868 1_555
O51 Sn2 2.088974 1_555
O52 Si1 1.644002 1_655
O52 Sn2 1.946672 1_555
O53 Si0 1.630001 1_555
O53 Sn2 1.975219 1_555
O54 S6 1.486794 1_555
O54 Sn3 2.156211 1_555
O55 S7 1.483784 1_655
O55 Sn3 2.182085 1_555
O56 Si6 1.663348 1_545
O56 Sn3 1.976163 1_555
O57 Si7 1.643881 1_545
O57 Ti3 1.923033 1_555
O58 S8 1.486990 1_555
O58 Ti3 2.071916 1_555
O59 Si8 1.669393 1_655
O59 Ti3 1.812517 1_555
O60 S5 1.495245 1_555
O60 Sn4 2.169220 1_555
O61 Si5 1.661814 1_455
O61 Sn4 1.968431 1_555
O62 S4 1.497650 1_565
O62 Sn4 2.099888 1_555
O63 S3 1.490479 1_565
O63 Ti4 2.107765 1_555
O64 Si4 1.639272 1_555
O64 Ti4 1.965694 1_555
O65 S2 1.473102 1_455
O65 Ti4 2.345001 1_555
O66 Si0 1.635637 1_565
O66 Ti5 1.878743 1_555
O67 S0 1.456634 1_555
O67 Ti5 2.326253 1_555
O68 Si1 1.635215 1_555
O68 Ti5 1.962677 1_555
O69 Si2 1.643081 1_555
O69 Sn5 1.987716 1_555
O70 S1 1.490432 1_455
O70 Sn5 2.120676 1_555
O71 Si3 1.630505 1_565
O71 Sn5 1.972587 1_555
