# generated using pymatgen
data_Na4Ga2Si3Sn2(SO8)3
_symmetry_space_group_name_H-M   'P 1'
_cell_length_a   8.86461548
_cell_length_b   8.88743672
_cell_length_c   22.59170732
_cell_angle_alpha   89.97968028
_cell_angle_beta   87.87975584
_cell_angle_gamma   119.92673355
_symmetry_Int_Tables_number   1
_chemical_formula_structural   Na4Ga2Si3Sn2(SO8)3
_chemical_formula_sum   'Na12 Ga6 Si9 Sn6 S9 O72'
_cell_volume   1541.11967013
_cell_formula_units_Z   3
loop_
 _symmetry_equiv_pos_site_id
 _symmetry_equiv_pos_as_xyz
  1  'x, y, z'
loop_
 _atom_site_type_symbol
 _atom_site_label
 _atom_site_symmetry_multiplicity
 _atom_site_fract_x
 _atom_site_fract_y
 _atom_site_fract_z
 _atom_site_occupancy
  Na  Na0  1  0.00013486  0.64177185  0.25186773  1
  Na  Na1  1  0.99798127  0.35859393  0.74166884  1
  Na  Na2  1  0.66606789  0.97400353  0.58661750  1
  Na  Na3  1  0.67004896  0.69836625  0.08231656  1
  Na  Na4  1  0.33525046  0.30445883  0.90623488  1
  Na  Na5  1  0.32586569  0.02796004  0.42001888  1
  Na  Na6  1  0.00658782  0.00281192  0.50165793  1
  Na  Na7  1  0.98966492  0.98321976  0.99550745  1
  Na  Na8  1  0.65792912  0.33097397  0.82365498  1
  Na  Na9  1  0.66441727  0.34033588  0.33212515  1
  Na  Na10  1  0.33303407  0.67578534  0.16863496  1
  Na  Na11  1  0.33298568  0.66504773  0.66222793  1
  Ga  Ga0  1  0.99961384  0.96702859  0.34885800  1
  Ga  Ga1  1  0.97887854  0.99078146  0.84251644  1
  Ga  Ga2  1  0.64619849  0.29730028  0.68531516  1
  Ga  Ga3  1  0.67290556  0.34752525  0.19151327  1
  Ga  Ga4  1  0.32983634  0.67278467  0.01597317  1
  Ga  Ga5  1  0.29139052  0.66830714  0.52442425  1
  Si  Si0  1  0.30418198  0.01116658  0.25079996  1
  Si  Si1  1  0.70276594  0.70564548  0.25102636  1
  Si  Si2  1  0.29602495  0.28429821  0.75331067  1
  Si  Si3  1  0.71096746  0.00490112  0.74929640  1
  Si  Si4  1  0.95763942  0.33754027  0.58638257  1
  Si  Si5  1  0.37401329  0.03933442  0.58191248  1
  Si  Si6  1  0.96806305  0.62331824  0.08485447  1
  Si  Si7  1  0.63262976  0.67790547  0.91961236  1
  Si  Si8  1  0.03501947  0.66465173  0.41704416  1
  Sn  Sn0  1  0.01239626  0.01638219  0.64714103  1
  Sn  Sn1  1  0.00147251  0.98584820  0.15258673  1
  Sn  Sn2  1  0.67682719  0.34787132  0.98287931  1
  Sn  Sn3  1  0.67601900  0.33928305  0.48602506  1
  Sn  Sn4  1  0.33526506  0.67136595  0.31575127  1
  Sn  Sn5  1  0.35433751  0.66849260  0.81114221  1
  S  S0  1  0.99843179  0.28391317  0.25107017  1
  S  S1  1  0.99960426  0.70875752  0.75215363  1
  S  S2  1  0.66431621  0.62467641  0.58517955  1
  S  S3  1  0.66730053  0.04575052  0.08432450  1
  S  S4  1  0.36958171  0.33150006  0.08462575  1
  S  S5  1  0.04362013  0.37641228  0.91806326  1
  S  S6  1  0.33366918  0.95824537  0.91882906  1
  S  S7  1  0.63262805  0.95851044  0.41719912  1
  S  S8  1  0.33023060  0.37673243  0.41833970  1
  O  O0  1  0.21761319  0.04442174  0.31057295  1
  O  O1  1  0.83258557  0.79812644  0.30412530  1
  O  O2  1  0.97446478  0.17692397  0.30330969  1
  O  O3  1  0.20543986  0.16818011  0.81555446  1
  O  O4  1  0.97455761  0.78918945  0.80659464  1
  O  O5  1  0.82809199  0.03926227  0.80684567  1
  O  O6  1  0.78789533  0.95778205  0.68977670  1
  O  O7  1  0.16850816  0.20889973  0.69782403  1
  O  O8  1  0.03662969  0.81692223  0.69809249  1
  O  O9  1  0.76901890  0.81858434  0.18727388  1
  O  O10  1  0.03087011  0.21252365  0.19425657  1
  O  O11  1  0.17749315  0.95954338  0.19344167  1
  O  O12  1  0.86873578  0.36998780  0.64557697  1
  O  O13  1  0.49836164  0.12483945  0.63653339  1
  O  O14  1  0.63731252  0.51453346  0.63683361  1
  O  O15  1  0.87163015  0.50180250  0.14344892  1
  O  O16  1  0.64041955  0.12829834  0.13591315  1
  O  O17  1  0.48135875  0.35661568  0.13390273  1
  O  O18  1  0.43950837  0.29389970  0.02772905  1
  O  O19  1  0.83823710  0.54808195  0.02832058  1
  O  O20  1  0.69327420  0.14746426  0.02731123  1
  O  O21  1  0.44721507  0.15468307  0.51881263  1
  O  O22  1  0.70096622  0.55639408  0.52831941  1
  O  O23  1  0.83809540  0.29137184  0.52767994  1
  O  O24  1  0.53589559  0.69685993  0.98117196  1
  O  O25  1  0.14981437  0.46238039  0.96971906  1
  O  O26  1  0.30618874  0.85038653  0.97250881  1
  O  O27  1  0.55169027  0.85145321  0.47091527  1
  O  O28  1  0.31326471  0.46503878  0.47043684  1
  O  O29  1  0.17154792  0.71013434  0.46884415  1
  O  O30  1  0.11236625  0.62598575  0.35457930  1
  O  O31  1  0.52097252  0.88180065  0.36418918  1
  O  O32  1  0.36623292  0.48305123  0.36196328  1
  O  O33  1  0.11641446  0.48480530  0.86313508  1
  O  O34  1  0.36300253  0.88201891  0.86457047  1
  O  O35  1  0.49594702  0.62059059  0.86598680  1
  O  O36  1  0.02596270  0.84562160  0.41231951  1
  O  O37  1  0.80929084  0.98483909  0.40713493  1
  O  O38  1  0.17305579  0.20367530  0.41313455  1
  O  O39  1  0.03258963  0.20617445  0.91431158  1
  O  O40  1  0.18348058  0.98437076  0.91585784  1
  O  O41  1  0.82647695  0.84572167  0.90930343  1
  O  O42  1  0.96541153  0.15505875  0.58717861  1
  O  O43  1  0.17581007  0.00591516  0.58719588  1
  O  O44  1  0.82364000  0.80162701  0.58813445  1
  O  O45  1  0.97717350  0.81692858  0.08689104  1
  O  O46  1  0.82887915  0.03034904  0.08586931  1
  O  O47  1  0.19068112  0.17836754  0.09025159  1
  O  O48  1  0.70246914  0.18300860  0.74576210  1
  O  O49  1  0.49241379  0.31924478  0.74352497  1
  O  O50  1  0.84661129  0.53637906  0.74814455  1
  O  O51  1  0.70182163  0.52194922  0.24479630  1
  O  O52  1  0.84369731  0.30565814  0.24604768  1
  O  O53  1  0.49696247  0.17697415  0.23939545  1
  O  O54  1  0.63498399  0.48821496  0.92316103  1
  O  O55  1  0.86257080  0.35019484  0.92316972  1
  O  O56  1  0.49594341  0.13594501  0.92373770  1
  O  O57  1  0.63879588  0.13118974  0.42012002  1
  O  O58  1  0.48650433  0.35063096  0.41974130  1
  O  O59  1  0.84021453  0.49220117  0.42138031  1
  O  O60  1  0.35995901  0.49181784  0.07772225  1
  O  O61  1  0.16137921  0.64353777  0.07390484  1
  O  O62  1  0.51509659  0.86758157  0.07964136  1
  O  O63  1  0.37435320  0.85522348  0.57502070  1
  O  O64  1  0.51278320  0.64848214  0.57775082  1
  O  O65  1  0.15472127  0.50161513  0.57952490  1
  O  O66  1  0.30585132  0.82554310  0.25546295  1
  O  O67  1  0.50623142  0.67592268  0.25634568  1
  O  O68  1  0.15503088  0.46264084  0.25294781  1
  O  O69  1  0.29200118  0.47113939  0.75777599  1
  O  O70  1  0.15720387  0.68640675  0.75832842  1
  O  O71  1  0.51253141  0.83745317  0.75225769  1
loop_
_geom_bond_atom_site_label_1
_geom_bond_atom_site_label_2
_geom_bond_distance
_geom_bond_site_symmetry_2
Na0 O51 2.318213 1_455
Na0 O66 2.370339 1_555
Na0 O68 2.569842 1_555
Na0 O30 2.589158 1_555
Na0 O52 2.596946 1_455
Na0 O1 2.731574 1_455
Na0 O11 2.757445 1_555
Na0 O15 2.763910 1_455
Na1 O48 2.282360 1_555
Na1 O69 2.322776 1_655
Na1 O12 2.516996 1_555
Na1 O50 2.533696 1_555
Na1 O70 2.561033 1_655
Na1 O7 2.633058 1_655
Na1 O5 2.838832 1_555
Na1 O33 2.988478 1_655
Na2 O63 2.279615 1_555
Na2 O42 2.317951 1_565
Na2 O64 2.520791 1_555
Na2 O44 2.537305 1_555
Na2 O6 2.638154 1_555
Na2 O13 2.672901 1_565
Na2 O23 2.758526 1_565
Na2 O27 2.853607 1_555
Na3 O45 2.385727 1_555
Na3 O60 2.433724 1_555
Na3 O62 2.493859 1_555
Na3 O46 2.560797 1_565
Na3 O9 2.598867 1_555
Na3 O24 2.611701 1_554
Na3 O19 2.710787 1_555
Na3 O17 2.857493 1_555
Na4 O54 2.370458 1_555
Na4 O39 2.370637 1_555
Na4 O3 2.402815 1_555
Na4 O40 2.471659 1_545
Na4 O56 2.568733 1_555
Na4 O35 2.580460 1_555
Na5 O36 2.336635 1_545
Na5 O57 2.449067 1_555
Na5 O58 2.485229 1_555
Na5 O21 2.525402 1_555
Na5 O38 2.534574 1_555
Na5 O29 2.664093 1_545
Na5 O0 2.715008 1_555
Na5 O31 2.889802 1_545
Na6 O42 2.477779 1_455
Na6 O43 2.481661 1_555
Na6 O36 2.504093 1_545
Na6 O44 2.552185 1_445
Na6 O38 2.552373 1_555
Na6 O37 2.764474 1_445
Na7 O41 2.413503 1_555
Na7 O40 2.437947 1_655
Na7 O45 2.505254 1_556
Na7 O39 2.574768 1_665
Na7 O46 2.599106 1_566
Na7 O47 2.822398 1_666
Na8 O48 2.334557 1_555
Na8 O49 2.341961 1_555
Na8 O50 2.404227 1_555
Na8 O54 2.701825 1_555
Na8 O56 2.729863 1_555
Na8 O55 2.892631 1_555
Na9 O51 2.454157 1_555
Na9 O58 2.515323 1_555
Na9 O59 2.540070 1_555
Na9 O52 2.581234 1_555
Na9 O53 2.604223 1_555
Na9 O57 2.646001 1_555
Na10 O66 2.442182 1_555
Na10 O68 2.549314 1_555
Na10 O67 2.550874 1_555
Na10 O62 2.562228 1_555
Na10 O61 2.604596 1_555
Na10 O60 2.702605 1_555
Na11 O65 2.455204 1_555
Na11 O63 2.489669 1_555
Na11 O64 2.492700 1_555
Na11 O71 2.612709 1_555
Na11 O69 2.660086 1_555
Na11 O70 2.687529 1_555
Ga0 O1 1.833310 1_555
Ga0 O0 1.872249 1_665
Ga0 O36 1.883997 1_655
Ga0 O37 2.169591 1_555
Ga0 O2 2.240306 1_565
Ga0 O38 2.415949 1_665
Ga1 O5 1.809930 1_565
Ga1 O3 1.907801 1_665
Ga1 O4 1.950609 1_555
Ga1 O41 1.968182 1_555
Ga1 O39 2.381581 1_665
Ga1 O40 2.522611 1_655
Ga2 O13 1.839868 1_555
Ga2 O48 1.923649 1_555
Ga2 O12 1.926616 1_555
Ga2 O49 1.938727 1_555
Ga2 O14 2.256073 1_555
Ga2 O50 2.471434 1_555
Ga3 O53 1.848083 1_555
Ga3 O51 1.882942 1_555
Ga3 O15 1.899927 1_555
Ga3 O52 2.156000 1_555
Ga3 O17 2.209972 1_555
Ga3 O16 2.219349 1_555
Ga4 O61 1.865013 1_555
Ga4 O24 1.871941 1_554
Ga4 O26 1.960572 1_554
Ga4 O25 2.069443 1_554
Ga4 O60 2.249131 1_555
Ga4 O62 2.258947 1_555
Ga5 O65 1.818885 1_555
Ga5 O29 1.826435 1_555
Ga5 O63 1.857850 1_555
Ga5 O28 2.263259 1_555
Ga5 O27 2.340894 1_555
Ga5 O64 2.419485 1_555
O0 Si0 1.627781 1_555
O1 Si1 1.611832 1_555
O2 S0 1.456426 1_555
O3 Si2 1.666062 1_555
O4 S1 1.487197 1_555
O5 Si3 1.626470 1_555
O6 Si3 1.632783 1_565
O6 Sn0 1.995799 1_665
O7 Si2 1.627211 1_555
O7 Sn0 1.977305 1_555
O8 S1 1.475866 1_455
O8 Sn0 2.215936 1_565
O9 Si1 1.665835 1_555
O9 Sn1 1.973149 1_655
O10 S0 1.512601 1_455
O10 Sn1 2.123268 1_545
O11 Si0 1.656767 1_565
O11 Sn1 1.952344 1_555
O12 Si4 1.625327 1_555
O13 Si5 1.606474 1_555
O14 S2 1.456716 1_555
O15 Si6 1.625881 1_555
O16 S3 1.451836 1_555
O17 S4 1.460161 1_555
O18 S4 1.515316 1_555
O18 Sn2 2.125444 1_554
O19 Si6 1.656608 1_555
O19 Sn2 1.958817 1_554
O20 S3 1.516163 1_555
O20 Sn2 2.114203 1_554
O21 Si5 1.664610 1_555
O21 Sn3 1.980376 1_555
O22 S2 1.513385 1_555
O22 Sn3 2.067913 1_555
O23 Si4 1.649441 1_555
O23 Sn3 1.959927 1_555
O24 Si7 1.659490 1_555
O25 S5 1.481916 1_555
O26 S6 1.480958 1_555
O27 S7 1.465044 1_555
O28 S8 1.459154 1_555
O29 Si8 1.616984 1_555
O30 Si8 1.656352 1_555
O30 Sn4 1.978057 1_555
O31 S7 1.514484 1_555
O31 Sn4 2.113774 1_555
O32 S8 1.511631 1_555
O32 Sn4 2.108260 1_555
O33 S5 1.484571 1_555
O33 Sn5 2.207469 1_555
O34 S6 1.477128 1_555
O34 Sn5 2.219718 1_555
O35 Si7 1.639661 1_555
O35 Sn5 1.984996 1_555
O36 Si8 1.653484 1_555
O37 S7 1.472052 1_555
O38 S8 1.481456 1_555
O39 S5 1.469333 1_555
O40 S6 1.464920 1_555
O41 Si7 1.626175 1_555
O42 Si4 1.657360 1_555
O42 Sn0 2.019980 1_655
O43 Si5 1.628883 1_555
O43 Sn0 1.982552 1_555
O44 S2 1.504403 1_555
O44 Sn0 2.280347 1_665
O45 Si6 1.682593 1_555
O45 Sn1 2.050743 1_655
O46 S3 1.506933 1_555
O46 Sn1 2.354367 1_645
O47 S4 1.488224 1_555
O47 Sn1 2.164256 1_545
O48 Si3 1.623891 1_555
O49 Si2 1.614955 1_555
O50 S1 1.459668 1_555
O51 Si1 1.634577 1_555
O52 S0 1.485825 1_555
O53 Si0 1.616406 1_555
O54 Si7 1.698272 1_555
O54 Sn2 2.002739 1_555
O55 S5 1.502185 1_655
O55 Sn2 2.081560 1_555
O56 S6 1.523448 1_545
O56 Sn2 2.247376 1_555
O57 S7 1.509699 1_545
O57 Sn3 2.274967 1_555
O58 S8 1.515841 1_555
O58 Sn3 2.330231 1_555
O59 Si8 1.639280 1_655
O59 Sn3 1.991483 1_555
O60 S4 1.477766 1_555
O61 Si6 1.640579 1_455
O62 S3 1.489273 1_565
O63 Si5 1.645208 1_565
O64 S2 1.475656 1_555
O65 Si4 1.624948 1_455
O66 Si0 1.660492 1_565
O66 Sn4 2.045011 1_555
O67 Si1 1.626278 1_555
O67 Sn4 1.971780 1_555
O68 S0 1.502076 1_455
O68 Sn4 2.284574 1_555
O69 Si2 1.681604 1_555
O69 Sn5 1.979652 1_555
O70 S1 1.517232 1_455
O70 Sn5 2.221378 1_555
O71 Si3 1.640937 1_565
O71 Sn5 1.936633 1_555
