# generated using pymatgen
data_CuSeO3
_symmetry_space_group_name_H-M   'P 1'
_cell_length_a   5.94944534
_cell_length_b   6.99177858
_cell_length_c   12.25358662
_cell_angle_alpha   90.00000000
_cell_angle_beta   90.00000000
_cell_angle_gamma   90.00000000
_symmetry_Int_Tables_number   1
_chemical_formula_structural   CuSeO3
_chemical_formula_sum   'Cu8 Se8 O24'
_cell_volume   509.71494838
_cell_formula_units_Z   8
loop_
 _symmetry_equiv_pos_site_id
 _symmetry_equiv_pos_as_xyz
  1  'x, y, z'
loop_
 _atom_site_type_symbol
 _atom_site_label
 _atom_site_symmetry_multiplicity
 _atom_site_fract_x
 _atom_site_fract_y
 _atom_site_fract_z
 _atom_site_occupancy
  Cu  Cu0  1  0.84938254  0.42361450  0.59180262  1
  Cu  Cu1  1  0.34938254  0.57638550  0.90819738  1
  Cu  Cu2  1  0.65061746  0.92361450  0.40819738  1
  Cu  Cu3  1  0.15061746  0.07638550  0.09180262  1
  Cu  Cu4  1  0.15061746  0.57638550  0.40819738  1
  Cu  Cu5  1  0.65061746  0.42361450  0.09180262  1
  Cu  Cu6  1  0.34938254  0.07638550  0.59180262  1
  Cu  Cu7  1  0.84938254  0.92361450  0.90819738  1
  Se  Se0  1  0.89145871  0.94668239  0.64639431  1
  Se  Se1  1  0.39145871  0.05331761  0.85360569  1
  Se  Se2  1  0.60854129  0.44668239  0.35360569  1
  Se  Se3  1  0.10854129  0.55331761  0.14639431  1
  Se  Se4  1  0.10854129  0.05331761  0.35360569  1
  Se  Se5  1  0.60854129  0.94668239  0.14639431  1
  Se  Se6  1  0.39145871  0.55331761  0.64639431  1
  Se  Se7  1  0.89145871  0.44668239  0.85360569  1
  O  O0  1  0.02706301  0.64519010  0.90836148  1
  O  O1  1  0.52706301  0.35480990  0.59163852  1
  O  O2  1  0.47293699  0.14519010  0.09163852  1
  O  O3  1  0.97293699  0.85480990  0.40836148  1
  O  O4  1  0.97293699  0.35480990  0.09163852  1
  O  O5  1  0.47293699  0.64519010  0.40836148  1
  O  O6  1  0.52706301  0.85480990  0.90836148  1
  O  O7  1  0.02706301  0.14519010  0.59163852  1
  O  O8  1  0.64483540  0.45337354  0.93005460  1
  O  O9  1  0.14483540  0.54662646  0.56994540  1
  O  O10  1  0.85516460  0.95337354  0.06994540  1
  O  O11  1  0.35516460  0.04662646  0.43005460  1
  O  O12  1  0.35516460  0.54662646  0.06994540  1
  O  O13  1  0.85516460  0.45337354  0.43005460  1
  O  O14  1  0.14483540  0.04662646  0.93005460  1
  O  O15  1  0.64483540  0.95337354  0.56994540  1
  O  O16  1  0.79587132  0.04122267  0.76531182  1
  O  O17  1  0.29587132  0.95877733  0.73468818  1
  O  O18  1  0.70412868  0.54122267  0.23468818  1
  O  O19  1  0.20412868  0.45877733  0.26531182  1
  O  O20  1  0.20412868  0.95877733  0.23468818  1
  O  O21  1  0.70412868  0.04122267  0.26531182  1
  O  O22  1  0.29587132  0.45877733  0.76531182  1
  O  O23  1  0.79587132  0.54122267  0.73468818  1
loop_
_geom_bond_atom_site_label_1
_geom_bond_atom_site_label_2
_geom_bond_distance
_geom_bond_site_symmetry_2
Cu0 O23 1.960364 1_555
Cu0 O9 1.975158 1_655
Cu0 O1 1.977044 1_555
Cu0 O13 1.993182 1_555
Cu0 O7 2.215183 1_655
Cu1 O22 1.960364 1_555
Cu1 O8 1.975158 1_555
Cu1 O0 1.977044 1_555
Cu1 O12 1.993182 1_556
Cu1 O6 2.215183 1_555
Cu2 O21 1.960364 1_565
Cu2 O11 1.975158 1_565
Cu2 O3 1.977044 1_555
Cu2 O15 1.993182 1_555
Cu2 O5 2.215183 1_555
Cu3 O20 1.960364 1_545
Cu3 O10 1.975158 1_445
Cu3 O2 1.977044 1_555
Cu3 O14 1.993182 1_554
Cu3 O4 2.215183 1_455
Cu4 O19 1.960364 1_555
Cu4 O13 1.975158 1_455
Cu4 O5 1.977044 1_555
Cu4 O9 1.993182 1_555
Cu4 O3 2.215183 1_455
Cu5 O18 1.960364 1_555
Cu5 O12 1.975158 1_555
Cu5 O4 1.977044 1_555
Cu5 O8 1.993182 1_554
Cu5 O2 2.215183 1_555
Cu6 O17 1.960364 1_545
Cu6 O15 1.975158 1_545
Cu6 O7 1.977044 1_555
Cu6 O11 1.993182 1_555
Cu6 O1 2.215183 1_555
Cu7 O16 1.960364 1_565
Cu7 O14 1.975158 1_665
Cu7 O6 1.977044 1_555
Cu7 O10 1.993182 1_556
Cu7 O0 2.215183 1_655
O0 Se7 1.739939 1_455
O1 Se6 1.739939 1_555
O2 Se5 1.739939 1_545
O3 Se4 1.739939 1_665
O4 Se3 1.739939 1_655
O5 Se2 1.739939 1_555
O6 Se1 1.739939 1_565
O7 Se0 1.739939 1_445
O8 Se7 1.741442 1_555
O9 Se6 1.741442 1_555
O10 Se5 1.741442 1_555
O11 Se4 1.741442 1_555
O12 Se3 1.741442 1_555
O13 Se2 1.741442 1_555
O14 Se1 1.741442 1_555
O15 Se0 1.741442 1_555
O16 Se0 1.698137 1_545
O17 Se1 1.698137 1_565
O18 Se2 1.698137 1_555
O19 Se3 1.698137 1_555
O20 Se4 1.698137 1_565
O21 Se5 1.698137 1_545
O22 Se6 1.698137 1_555
O23 Se7 1.698137 1_555
