# generated using pymatgen
data_Na42Nb4Zn20Si15(S7O48)3
_symmetry_space_group_name_H-M   'P 1'
_cell_length_a   18.39818574
_cell_length_b   9.10515971
_cell_length_c   22.00949326
_cell_angle_alpha   90.10010689
_cell_angle_beta   90.42806103
_cell_angle_gamma   119.67686209
_symmetry_Int_Tables_number   1
_chemical_formula_structural   Na42Nb4Zn20Si15(S7O48)3
_chemical_formula_sum   'Na42 Nb4 Zn20 Si15 S21 O144'
_cell_volume   3203.22561145
_cell_formula_units_Z   1
loop_
 _symmetry_equiv_pos_site_id
 _symmetry_equiv_pos_as_xyz
  1  'x, y, z'
loop_
 _atom_site_type_symbol
 _atom_site_label
 _atom_site_symmetry_multiplicity
 _atom_site_fract_x
 _atom_site_fract_y
 _atom_site_fract_z
 _atom_site_occupancy
  Na  Na0  1  0.30875774  0.99578339  0.23533119  1
  Na  Na1  1  0.80588766  0.99332734  0.23681766  1
  Na  Na2  1  0.19194570  0.37144532  0.25047919  1
  Na  Na3  1  0.69180706  0.37110630  0.24138341  1
  Na  Na4  1  0.99770620  0.62769958  0.24896961  1
  Na  Na5  1  0.49733167  0.63371990  0.24711467  1
  Na  Na6  1  0.30455218  0.62036546  0.74176882  1
  Na  Na7  1  0.81075203  0.62403754  0.73919269  1
  Na  Na8  1  0.00029327  0.36084120  0.75587439  1
  Na  Na9  1  0.49608757  0.36501471  0.75349103  1
  Na  Na10  1  0.18903947  0.01081720  0.75471679  1
  Na  Na11  1  0.69429256  0.01389446  0.75446407  1
  Na  Na12  1  0.16387387  0.34691976  0.58675507  1
  Na  Na13  1  0.66364762  0.35158350  0.58888000  1
  Na  Na14  1  0.31538695  0.95873900  0.58807681  1
  Na  Na15  1  0.16032099  0.96969599  0.07265955  1
  Na  Na16  1  0.66357869  0.97977703  0.08222437  1
  Na  Na17  1  0.81734548  0.67575857  0.08396971  1
  Na  Na18  1  0.48093948  0.66473014  0.92120500  1
  Na  Na19  1  0.99273377  0.67976691  0.92082621  1
  Na  Na20  1  0.34269343  0.03248702  0.91446446  1
  Na  Na21  1  0.85687146  0.04714180  0.91741637  1
  Na  Na22  1  0.16382252  0.28899957  0.90785485  1
  Na  Na23  1  0.66849667  0.29227072  0.91941449  1
  Na  Na24  1  0.48173045  0.29658258  0.41694593  1
  Na  Na25  1  0.98308774  0.29721668  0.41911960  1
  Na  Na26  1  0.16847116  0.04526411  0.41893385  1
  Na  Na27  1  0.66540982  0.03814807  0.40829935  1
  Na  Na28  1  0.35563714  0.66279415  0.41768990  1
  Na  Na29  1  0.85388106  0.66558823  0.41826086  1
  Na  Na30  1  0.99616354  0.96715879  0.50308678  1
  Na  Na31  1  0.49638193  0.96717577  0.49690371  1
  Na  Na32  1  0.00600333  0.02168131  0.99168312  1
  Na  Na33  1  0.49109067  0.02193662  0.00064982  1
  Na  Na34  1  0.31789222  0.30615128  0.83056133  1
  Na  Na35  1  0.83233944  0.32792247  0.82918534  1
  Na  Na36  1  0.32909073  0.33514614  0.32690445  1
  Na  Na37  1  0.82802140  0.33402401  0.32616249  1
  Na  Na38  1  0.17956633  0.67427580  0.16037747  1
  Na  Na39  1  0.66734514  0.65763056  0.16158829  1
  Na  Na40  1  0.16738918  0.67892375  0.66568429  1
  Na  Na41  1  0.68064160  0.68382227  0.66507268  1
  Nb  Nb0  1  0.99670417  0.00024789  0.64780952  1
  Nb  Nb1  1  0.49575800  0.00177032  0.65033997  1
  Nb  Nb2  1  0.99545176  0.98858143  0.15020958  1
  Nb  Nb3  1  0.49656933  0.99012338  0.14647941  1
  Zn  Zn0  1  0.00256955  0.98046192  0.33622917  1
  Zn  Zn1  1  0.49783393  0.97333591  0.33157693  1
  Zn  Zn2  1  0.00560218  0.01710528  0.84534801  1
  Zn  Zn3  1  0.50093176  0.02333868  0.83925599  1
  Zn  Zn4  1  0.31417483  0.31578275  0.68146386  1
  Zn  Zn5  1  0.82677357  0.32865151  0.68395028  1
  Zn  Zn6  1  0.32445279  0.32348020  0.18115129  1
  Zn  Zn7  1  0.81637699  0.31516728  0.17971546  1
  Zn  Zn8  1  0.32037622  0.29043257  0.98734461  1
  Zn  Zn9  1  0.82427776  0.31052625  0.00370526  1
  Zn  Zn10  1  0.32136180  0.33703322  0.50808766  1
  Zn  Zn11  1  0.83783532  0.35123340  0.50052114  1
  Zn  Zn12  1  0.18083732  0.70182336  0.01073621  1
  Zn  Zn13  1  0.66963054  0.66526733  0.02058091  1
  Zn  Zn14  1  0.17124999  0.67443961  0.52047722  1
  Zn  Zn15  1  0.67820055  0.67709138  0.51750287  1
  Zn  Zn16  1  0.17656506  0.68820681  0.30927046  1
  Zn  Zn17  1  0.67507965  0.68401898  0.30992708  1
  Zn  Zn18  1  0.17671619  0.68201895  0.81302825  1
  Zn  Zn19  1  0.67630662  0.66354755  0.81023892  1
  Si  Si0  1  0.15082901  0.00257585  0.25494810  1
  Si  Si1  1  0.64824606  0.99804768  0.25440916  1
  Si  Si2  1  0.35006523  0.69347030  0.25314490  1
  Si  Si3  1  0.84947576  0.69280652  0.25611869  1
  Si  Si4  1  0.14825055  0.30463067  0.75338883  1
  Si  Si5  1  0.65084297  0.29844683  0.75405076  1
  Si  Si6  1  0.34920193  0.00949439  0.75448637  1
  Si  Si7  1  0.85355068  0.00615340  0.75537330  1
  Si  Si8  1  0.17794012  0.02278435  0.58174277  1
  Si  Si9  1  0.33675108  0.63482310  0.58201051  1
  Si  Si10  1  0.83100127  0.63237479  0.58256518  1
  Si  Si11  1  0.33178754  0.03279805  0.08394287  1
  Si  Si12  1  0.83550576  0.03721543  0.08258123  1
  Si  Si13  1  0.67876923  0.33279212  0.08276059  1
  Si  Si14  1  0.16254299  0.96480248  0.91411949  1
  S  S0  1  0.00084374  0.29042845  0.25312554  1
  S  S1  1  0.50170750  0.29083560  0.25321765  1
  S  S2  1  0.99880222  0.70689513  0.75037378  1
  S  S3  1  0.50129301  0.71145062  0.75244164  1
  S  S4  1  0.48439424  0.33327243  0.58363240  1
  S  S5  1  0.98135147  0.32804244  0.58277837  1
  S  S6  1  0.68049437  0.02948583  0.58195740  1
  S  S7  1  0.48040137  0.62883232  0.08271180  1
  S  S8  1  0.98209177  0.62981780  0.08684223  1
  S  S9  1  0.17817178  0.33289649  0.08423084  1
  S  S10  1  0.32021086  0.66669284  0.91644448  1
  S  S11  1  0.81593665  0.65903652  0.91757731  1
  S  S12  1  0.01982812  0.38359808  0.91809250  1
  S  S13  1  0.52260792  0.38088463  0.91439661  1
  S  S14  1  0.66393788  0.95377793  0.91513915  1
  S  S15  1  0.31920940  0.97222969  0.41654005  1
  S  S16  1  0.81698867  0.97410223  0.41733969  1
  S  S17  1  0.16394524  0.37497380  0.41500485  1
  S  S18  1  0.66456338  0.36972220  0.41666567  1
  S  S19  1  0.02026732  0.65950291  0.41507914  1
  S  S20  1  0.52426638  0.66170306  0.41727468  1
  O  O0  1  0.11353070  0.04082083  0.31620202  1
  O  O1  1  0.61011538  0.03489949  0.31563277  1
  O  O2  1  0.39832876  0.76456613  0.31833289  1
  O  O3  1  0.90001680  0.78165607  0.31842800  1
  O  O4  1  0.49023429  0.19308085  0.31008212  1
  O  O5  1  0.99020476  0.19409883  0.30992166  1
  O  O6  1  0.11017340  0.18985043  0.81288358  1
  O  O7  1  0.61128595  0.18181752  0.81372233  1
  O  O8  1  0.49099481  0.78720639  0.80894166  1
  O  O9  1  0.98708331  0.77892311  0.80699310  1
  O  O10  1  0.40190365  0.02590969  0.81572946  1
  O  O11  1  0.90557813  0.02805884  0.81767762  1
  O  O12  1  0.41068030  0.99735324  0.69617050  1
  O  O13  1  0.90936042  0.98529259  0.69892610  1
  O  O14  1  0.08516208  0.19119228  0.69425466  1
  O  O15  1  0.58951644  0.18360915  0.69337849  1
  O  O16  1  0.00457357  0.81687584  0.69750704  1
  O  O17  1  0.50549721  0.82352384  0.69904315  1
  O  O18  1  0.41061395  0.83327084  0.20093009  1
  O  O19  1  0.90845642  0.82685637  0.19839482  1
  O  O20  1  0.00508320  0.18886807  0.20008124  1
  O  O21  1  0.50747209  0.19464598  0.20022534  1
  O  O22  1  0.08589671  0.99233508  0.19725326  1
  O  O23  1  0.58472499  0.98589521  0.19726051  1
  O  O24  1  0.44520725  0.34466175  0.63928413  1
  O  O25  1  0.93889347  0.34309326  0.63605785  1
  O  O26  1  0.24218370  0.10644750  0.63859417  1
  O  O27  1  0.72852952  0.10542912  0.63829206  1
  O  O28  1  0.32723590  0.52018624  0.64021485  1
  O  O29  1  0.81583220  0.50327045  0.63829129  1
  O  O30  1  0.44122665  0.53651891  0.13850330  1
  O  O31  1  0.93922372  0.54121784  0.14210468  1
  O  O32  1  0.31972750  0.12838575  0.14207433  1
  O  O33  1  0.82495415  0.12916857  0.14203834  1
  O  O34  1  0.22639196  0.35552662  0.14100667  1
  O  O35  1  0.73985773  0.37628288  0.14173225  1
  O  O36  1  0.21808294  0.30324633  0.03070793  1
  O  O37  1  0.71712008  0.28585115  0.02285389  1
  O  O38  1  0.43240866  0.54931373  0.02714335  1
  O  O39  1  0.93060330  0.55661019  0.03114150  1
  O  O40  1  0.35122341  0.13400932  0.01987014  1
  O  O41  1  0.85371443  0.14108768  0.01931638  1
  O  O42  1  0.21526201  0.14336812  0.52055321  1
  O  O43  1  0.72291996  0.13472242  0.52742053  1
  O  O44  1  0.35603603  0.56919854  0.51795694  1
  O  O45  1  0.84655033  0.56358619  0.51749888  1
  O  O46  1  0.43165252  0.30414592  0.52850603  1
  O  O47  1  0.93406451  0.30973652  0.52502530  1
  O  O48  1  0.27528937  0.68529749  0.96854228  1
  O  O49  1  0.77298532  0.67544904  0.97183458  1
  O  O50  1  0.07384179  0.47788189  0.97018607  1
  O  O51  1  0.57507166  0.47748199  0.96653961  1
  O  O52  1  0.14803519  0.85579130  0.97638312  1
  O  O53  1  0.66180697  0.86134634  0.97131422  1
  O  O54  1  0.27723468  0.87062245  0.47096637  1
  O  O55  1  0.77325708  0.86377893  0.46914712  1
  O  O56  1  0.16170038  0.46314585  0.47126831  1
  O  O57  1  0.66137945  0.45818553  0.47253888  1
  O  O58  1  0.07136624  0.66383438  0.46727875  1
  O  O59  1  0.57616300  0.67021908  0.47030419  1
  O  O60  1  0.05858575  0.65122474  0.35664630  1
  O  O61  1  0.56457071  0.65546927  0.35937126  1
  O  O62  1  0.26982506  0.89040305  0.36021586  1
  O  O63  1  0.76975410  0.90003313  0.35946823  1
  O  O64  1  0.16573109  0.47098514  0.35969923  1
  O  O65  1  0.67153715  0.46993205  0.36145061  1
  O  O66  1  0.05828385  0.46576253  0.85943242  1
  O  O67  1  0.56174314  0.46656585  0.85603259  1
  O  O68  1  0.17984467  0.87581333  0.85497462  1
  O  O69  1  0.66591229  0.86153034  0.85969241  1
  O  O70  1  0.27350567  0.64372588  0.85841319  1
  O  O71  1  0.76553076  0.63692689  0.86116301  1
  O  O72  1  0.01164170  0.81537933  0.41830837  1
  O  O73  1  0.51527327  0.81694458  0.41943573  1
  O  O74  1  0.40433324  0.98889233  0.41476980  1
  O  O75  1  0.90270857  0.99537890  0.41633955  1
  O  O76  1  0.08685555  0.20443936  0.41599573  1
  O  O77  1  0.58637969  0.20185013  0.41669240  1
  O  O78  1  0.00738483  0.20791500  0.92051643  1
  O  O79  1  0.51396435  0.20756916  0.91715289  1
  O  O80  1  0.07671572  0.98109084  0.91123055  1
  O  O81  1  0.58688512  0.97007406  0.91614734  1
  O  O82  1  0.40525288  0.82203869  0.91568566  1
  O  O83  1  0.89946321  0.81364447  0.91560936  1
  O  O84  1  0.49253385  0.16974149  0.58610294  1
  O  O85  1  0.98686904  0.16606057  0.58509594  1
  O  O86  1  0.08731666  0.02007740  0.59206810  1
  O  O87  1  0.59731686  0.02899443  0.58461991  1
  O  O88  1  0.42018455  0.83364712  0.59068000  1
  O  O89  1  0.91526225  0.82131439  0.59353723  1
  O  O90  1  0.48668085  0.80559274  0.08587941  1
  O  O91  1  0.99116812  0.81138225  0.08894384  1
  O  O92  1  0.41635479  0.01122809  0.09642288  1
  O  O93  1  0.91849612  0.00503899  0.09274160  1
  O  O94  1  0.09393774  0.16600324  0.08930469  1
  O  O95  1  0.58764640  0.15342647  0.09317202  1
  O  O96  1  0.34657651  0.18250308  0.74565167  1
  O  O97  1  0.84698418  0.17714902  0.74438883  1
  O  O98  1  0.24215005  0.33084940  0.74721192  1
  O  O99  1  0.74454191  0.32548000  0.74843840  1
  O  O100  1  0.42957820  0.54169099  0.74482673  1
  O  O101  1  0.92526904  0.53585163  0.74303182  1
  O  O102  1  0.34448918  0.51119121  0.24178931  1
  O  O103  1  0.84713581  0.51484624  0.24708148  1
  O  O104  1  0.42938906  0.31840995  0.24745139  1
  O  O105  1  0.92869083  0.31661333  0.24640914  1
  O  O106  1  0.24396862  0.16274122  0.24811881  1
  O  O107  1  0.74241861  0.15780319  0.24879692  1
  O  O108  1  0.33073429  0.51495902  0.92318751  1
  O  O109  1  0.82592620  0.50617457  0.92137558  1
  O  O110  1  0.43825616  0.36597525  0.91610962  1
  O  O111  1  0.93585588  0.37334040  0.92014997  1
  O  O112  1  0.24678733  0.15681344  0.91816874  1
  O  O113  1  0.74046364  0.12483242  0.91367979  1
  O  O114  1  0.32803047  0.14415543  0.41973022  1
  O  O115  1  0.82347194  0.14473183  0.42349784  1
  O  O116  1  0.24044299  0.35715680  0.41354421  1
  O  O117  1  0.73927902  0.34472637  0.41767744  1
  O  O118  1  0.43995682  0.50820630  0.41827366  1
  O  O119  1  0.93463909  0.50517139  0.41663867  1
  O  O120  1  0.16158352  0.47254529  0.07671177  1
  O  O121  1  0.66466260  0.49344821  0.07631858  1
  O  O122  1  0.06731329  0.65867498  0.08429365  1
  O  O123  1  0.56871702  0.66909720  0.08016434  1
  O  O124  1  0.24853339  0.84458416  0.08109784  1
  O  O125  1  0.75253952  0.84709905  0.07996487  1
  O  O126  1  0.16378901  0.83356255  0.57531523  1
  O  O127  1  0.66311141  0.85454818  0.57616974  1
  O  O128  1  0.25354759  0.65772711  0.57942615  1
  O  O129  1  0.74644012  0.65138012  0.58088654  1
  O  O130  1  0.06850010  0.46657720  0.57992529  1
  O  O131  1  0.57080153  0.47274630  0.57803911  1
  O  O132  1  0.14782165  0.82030267  0.25014437  1
  O  O133  1  0.64710193  0.81683044  0.25055172  1
  O  O134  1  0.25818632  0.68098494  0.24933782  1
  O  O135  1  0.75882782  0.68303219  0.24960058  1
  O  O136  1  0.08024969  0.45238406  0.25126747  1
  O  O137  1  0.58071689  0.45511606  0.25335779  1
  O  O138  1  0.14877469  0.48551347  0.75214798  1
  O  O139  1  0.64795084  0.47478502  0.74898587  1
  O  O140  1  0.07659866  0.69838778  0.74862933  1
  O  O141  1  0.58122215  0.71032200  0.74979649  1
  O  O142  1  0.26172459  0.83555311  0.74553289  1
  O  O143  1  0.76066554  0.83557731  0.75171256  1
loop_
_geom_bond_atom_site_label_1
_geom_bond_atom_site_label_2
_geom_bond_distance
_geom_bond_site_symmetry_2
Na0 O32 2.341992 1_565
Na0 O106 2.368305 1_565
Na0 O134 2.557919 1_555
Na0 O132 2.599602 1_555
Na0 O104 2.675586 1_565
Na0 O62 2.889094 1_555
Na0 O18 3.006265 1_555
Na1 O107 2.326085 1_565
Na1 O33 2.365326 1_565
Na1 O135 2.528876 1_555
Na1 O133 2.564063 1_555
Na1 O105 2.686831 1_565
Na1 O63 2.815376 1_555
Na2 O102 2.450499 1_555
Na2 O134 2.455361 1_555
Na2 O136 2.503314 1_555
Na2 O106 2.516205 1_555
Na2 O34 2.518050 1_555
Na2 O64 2.697263 1_555
Na3 O35 2.362683 1_555
Na3 O135 2.479233 1_555
Na3 O103 2.487156 1_555
Na3 O137 2.527322 1_555
Na3 O107 2.540722 1_555
Na3 O65 2.875916 1_555
Na4 O132 2.430360 1_655
Na4 O103 2.431287 1_555
Na4 O105 2.464842 1_555
Na4 O31 2.535078 1_555
Na4 O60 2.576414 1_655
Na4 O136 2.693799 1_655
Na5 O133 2.413611 1_555
Na5 O102 2.460483 1_555
Na5 O104 2.500306 1_555
Na5 O30 2.571828 1_555
Na5 O61 2.717356 1_555
Na5 O137 2.735890 1_555
Na6 O98 2.299508 1_555
Na6 O142 2.448633 1_555
Na6 O138 2.509988 1_555
Na6 O28 2.527024 1_555
Na6 O70 2.665101 1_555
Na6 O100 2.727332 1_555
Na7 O99 2.375221 1_555
Na7 O29 2.499221 1_555
Na7 O143 2.528724 1_555
Na7 O101 2.600706 1_555
Na7 O139 2.616258 1_555
Na7 O71 2.835755 1_555
Na8 O138 2.385578 1_555
Na8 O97 2.476606 1_455
Na8 O66 2.488526 1_555
Na8 O101 2.588075 1_455
Na8 O140 2.678574 1_555
Na8 O25 2.833682 1_455
Na9 O96 2.413160 1_555
Na9 O139 2.460596 1_555
Na9 O100 2.463385 1_555
Na9 O67 2.500723 1_555
Na9 O24 2.649611 1_555
Na9 O141 2.733413 1_555
Na10 O68 2.493584 1_545
Na10 O96 2.531283 1_555
Na10 O142 2.547906 1_545
Na10 O140 2.560692 1_545
Na10 O98 2.580268 1_555
Na10 O26 2.729171 1_555
Na10 O6 2.960453 1_555
Na11 O97 2.454811 1_555
Na11 O143 2.468799 1_545
Na11 O141 2.506047 1_545
Na11 O99 2.515360 1_555
Na11 O69 2.621680 1_545
Na11 O27 2.672214 1_555
Na11 O7 2.950590 1_555
Na12 O128 2.477680 1_555
Na12 O130 2.485613 1_555
Na12 O86 2.589767 1_555
Na12 O56 2.762619 1_555
Na12 O14 2.781242 1_555
Na12 O85 2.829502 1_455
Na12 O28 2.855201 1_555
Na12 O42 2.863245 1_555
Na13 O129 2.385547 1_555
Na13 O131 2.460250 1_555
Na13 O87 2.563842 1_555
Na13 O29 2.655147 1_555
Na13 O15 2.735462 1_555
Na13 O84 2.737053 1_555
Na13 O57 2.747322 1_555
Na14 O128 2.397844 1_555
Na14 O126 2.448780 1_555
Na14 O26 2.582570 1_565
Na14 O54 2.681085 1_555
Na14 O88 2.681645 1_555
Na14 O84 2.849088 1_565
Na14 O12 2.860391 1_555
Na15 O52 2.317301 1_554
Na15 O124 2.406885 1_555
Na15 O122 2.494784 1_555
Na15 O94 2.643246 1_565
Na15 O91 2.732737 1_455
Na15 O36 2.834431 1_565
Na15 O32 2.958434 1_565
Na16 O125 2.469740 1_555
Na16 O123 2.481885 1_555
Na16 O95 2.588537 1_565
Na16 O53 2.660361 1_554
Na16 O37 2.785318 1_565
Na16 O90 2.829727 1_555
Na16 O33 2.886987 1_565
Na16 O23 2.941546 1_555
Na17 O125 2.388315 1_555
Na17 O121 2.459554 1_555
Na17 O49 2.593244 1_554
Na17 O93 2.637638 1_565
Na17 O35 2.697006 1_555
Na17 O91 2.801432 1_555
Na17 O19 2.947267 1_555
Na17 O39 3.023420 1_555
Na18 O108 2.401838 1_555
Na18 O110 2.431288 1_555
Na18 O82 2.445078 1_555
Na18 O81 2.485858 1_555
Na18 O38 2.539433 1_556
Na18 O8 2.682375 1_555
Na19 O80 2.401778 1_655
Na19 O111 2.447091 1_555
Na19 O83 2.551985 1_555
Na19 O109 2.667251 1_555
Na19 O9 2.683270 1_555
Na19 O39 2.690895 1_556
Na19 O52 2.763010 1_655
Na20 O10 2.451980 1_555
Na20 O40 2.470744 1_556
Na20 O112 2.526117 1_555
Na20 O110 2.650447 1_555
Na20 O82 2.679697 1_545
Na20 O79 2.738035 1_555
Na20 O68 2.903227 1_545
Na20 O48 3.016803 1_545
Na21 O78 2.408043 1_655
Na21 O41 2.410294 1_556
Na21 O11 2.415440 1_555
Na21 O113 2.567442 1_555
Na21 O111 2.580894 1_555
Na21 O83 2.604896 1_545
Na22 O6 2.288821 1_555
Na22 O112 2.375915 1_555
Na22 O80 2.446891 1_545
Na22 O78 2.610587 1_555
Na22 O108 2.739148 1_555
Na22 O36 2.855676 1_556
Na23 O37 2.451252 1_556
Na23 O113 2.468604 1_555
Na23 O7 2.537264 1_555
Na23 O81 2.549874 1_545
Na23 O79 2.550901 1_555
Na23 O109 2.568315 1_555
Na24 O118 2.402273 1_555
Na24 O74 2.434536 1_545
Na24 O114 2.458264 1_555
Na24 O77 2.468936 1_555
Na24 O4 2.566776 1_555
Na24 O46 2.641695 1_555
Na25 O75 2.391091 1_545
Na25 O76 2.441695 1_655
Na25 O119 2.460407 1_555
Na25 O47 2.528245 1_555
Na25 O115 2.555026 1_555
Na25 O5 2.606440 1_555
Na26 O42 2.396692 1_555
Na26 O0 2.461882 1_555
Na26 O116 2.472255 1_555
Na26 O76 2.552114 1_555
Na26 O72 2.593400 1_545
Na26 O114 2.609710 1_555
Na27 O1 2.265953 1_555
Na27 O117 2.432896 1_555
Na27 O73 2.499897 1_545
Na27 O77 2.553245 1_555
Na27 O115 2.588488 1_555
Na27 O43 2.792090 1_555
Na27 O63 2.972985 1_545
Na28 O2 2.360026 1_555
Na28 O44 2.368314 1_555
Na28 O116 2.529908 1_555
Na28 O73 2.552194 1_555
Na28 O118 2.559286 1_555
Na28 O74 2.643902 1_555
Na29 O45 2.353476 1_555
Na29 O3 2.411029 1_555
Na29 O72 2.522844 1_655
Na29 O119 2.547913 1_555
Na29 O117 2.623129 1_555
Na29 O75 2.674970 1_555
Na30 O72 2.421006 1_655
Na30 O86 2.455118 1_665
Na30 O89 2.457300 1_555
Na30 O85 2.620474 1_565
Na30 O75 2.656650 1_555
Na30 O76 2.760190 1_665
Na31 O73 2.317436 1_555
Na31 O88 2.463270 1_555
Na31 O87 2.529846 1_565
Na31 O74 2.542067 1_555
Na31 O77 2.641492 1_565
Na31 O84 2.716578 1_565
Na32 O78 2.301441 1_555
Na32 O80 2.339410 1_545
Na32 O83 2.548903 1_445
Na32 O94 2.606474 1_556
Na32 O93 2.715761 1_456
Na32 O91 2.798024 1_446
Na33 O79 2.393581 1_554
Na33 O92 2.500945 1_555
Na33 O82 2.530117 1_544
Na33 O95 2.562683 1_555
Na33 O90 2.694932 1_545
Na33 O81 2.767361 1_544
Na34 O112 2.358743 1_555
Na34 O98 2.373042 1_555
Na34 O96 2.373651 1_555
Na34 O108 2.713127 1_555
Na34 O110 2.735966 1_555
Na34 O100 2.844425 1_555
Na35 O99 2.385282 1_555
Na35 O97 2.409405 1_555
Na35 O113 2.588231 1_555
Na35 O109 2.635694 1_555
Na35 O101 2.637955 1_555
Na35 O111 2.639467 1_555
Na36 O106 2.332221 1_555
Na36 O102 2.393276 1_555
Na36 O116 2.589448 1_555
Na36 O104 2.610008 1_555
Na36 O114 2.679173 1_555
Na36 O118 2.726270 1_555
Na37 O103 2.304265 1_555
Na37 O107 2.324316 1_555
Na37 O105 2.622035 1_555
Na37 O117 2.634044 1_555
Na37 O119 2.673105 1_555
Na37 O115 2.727594 1_555
Na38 O124 2.270136 1_555
Na38 O134 2.408198 1_555
Na38 O120 2.500295 1_555
Na38 O122 2.597425 1_555
Na38 O132 2.605654 1_555
Na38 O136 2.799218 1_555
Na39 O121 2.382247 1_555
Na39 O125 2.456753 1_555
Na39 O135 2.490581 1_555
Na39 O133 2.570867 1_555
Na39 O123 2.579705 1_555
Na39 O137 2.677850 1_555
Na40 O142 2.372637 1_555
Na40 O126 2.458268 1_555
Na40 O138 2.502850 1_555
Na40 O140 2.547918 1_555
Na40 O128 2.549686 1_555
Na40 O130 2.657771 1_555
Na41 O129 2.317684 1_555
Na41 O143 2.376460 1_555
Na41 O139 2.508123 1_555
Na41 O127 2.616641 1_555
Na41 O141 2.714330 1_555
Na41 O131 2.744144 1_555
Nb0 O13 1.917678 1_545
Nb0 O89 1.968628 1_545
Nb0 O14 1.970635 1_655
Nb0 O86 2.012525 1_655
Nb0 O16 2.061177 1_645
Nb0 O85 2.119284 1_555
Nb1 O12 1.852185 1_545
Nb1 O15 1.938080 1_555
Nb1 O88 1.964396 1_545
Nb1 O17 2.026407 1_545
Nb1 O84 2.106569 1_555
Nb1 O87 2.286482 1_555
Nb2 O19 1.884641 1_555
Nb2 O22 1.939079 1_655
Nb2 O93 1.952148 1_565
Nb2 O20 2.057186 1_665
Nb2 O91 2.071838 1_555
Nb2 O94 2.198900 1_665
Nb3 O92 1.919887 1_565
Nb3 O18 1.942849 1_555
Nb3 O23 1.978921 1_555
Nb3 O95 1.990871 1_565
Nb3 O90 2.078683 1_555
Nb3 O21 2.127495 1_565
O0 Si0 1.630498 1_555
O0 Zn0 1.888730 1_545
O1 Si1 1.632830 1_545
O1 Zn1 1.889358 1_545
O2 Si2 1.635413 1_555
O2 Zn1 1.895786 1_555
O3 Si3 1.622349 1_555
O3 Zn0 1.895956 1_655
O4 S1 1.491637 1_555
O4 Zn1 2.127428 1_545
O5 S0 1.485844 1_655
O5 Zn0 2.147314 1_645
O6 Si4 1.609708 1_555
O6 Zn2 1.927158 1_555
O7 Si5 1.623603 1_555
O7 Zn3 1.907627 1_555
O8 S3 1.479188 1_555
O8 Zn3 2.169129 1_565
O9 S2 1.473327 1_555
O9 Zn2 2.188504 1_665
O10 Si6 1.617304 1_555
O10 Zn3 1.901659 1_555
O11 Si7 1.620753 1_555
O11 Zn2 1.983081 1_655
O12 Si6 1.756126 1_565
O13 Si7 1.686785 1_565
O14 Si4 1.701062 1_555
O15 Si5 1.718707 1_555
O16 S2 1.506182 1_455
O17 S3 1.534910 1_555
O18 Si2 1.673942 1_555
O19 Si3 1.730859 1_555
O20 S0 1.514335 1_555
O21 S1 1.492952 1_555
O22 Si0 1.707321 1_565
O23 Si1 1.676196 1_555
O24 S4 1.455209 1_555
O24 Zn4 2.479785 1_555
O25 S5 1.457128 1_555
O25 Zn5 2.268905 1_555
O26 Si8 1.620496 1_555
O26 Zn4 1.937197 1_555
O27 S6 1.473780 1_555
O27 Zn5 2.176201 1_555
O28 Si9 1.608821 1_555
O28 Zn4 1.977896 1_555
O29 Si10 1.627677 1_555
O29 Zn5 1.974280 1_555
O30 S7 1.466545 1_555
O30 Zn6 2.273613 1_555
O31 S8 1.462856 1_555
O31 Zn7 2.336099 1_555
O32 Si11 1.623354 1_555
O32 Zn6 1.934779 1_555
O33 Si12 1.616191 1_555
O33 Zn7 1.960192 1_555
O34 S9 1.480729 1_555
O34 Zn6 2.149211 1_555
O35 Si13 1.624912 1_555
O35 Zn7 1.936559 1_555
O36 S9 1.485898 1_555
O36 Zn8 2.170332 1_554
O37 Si13 1.652139 1_555
O37 Zn9 1.920697 1_555
O38 S7 1.465402 1_555
O38 Zn8 2.393069 1_554
O39 S8 1.482954 1_555
O39 Zn9 2.202085 1_555
O40 Si11 1.628364 1_555
O40 Zn8 1.913367 1_554
O41 Si12 1.625854 1_555
O41 Zn9 1.902083 1_555
O42 Si8 1.662273 1_555
O42 Zn10 1.896415 1_555
O43 S6 1.498535 1_555
O43 Zn11 2.145325 1_555
O44 Si9 1.638561 1_555
O44 Zn10 1.893068 1_555
O45 Si10 1.644805 1_555
O45 Zn11 1.895621 1_555
O46 S4 1.486769 1_555
O46 Zn10 2.235529 1_555
O47 S5 1.496513 1_555
O47 Zn11 2.053517 1_555
O48 S10 1.476031 1_555
O48 Zn12 2.046307 1_556
O49 S11 1.484337 1_555
O49 Zn13 2.152161 1_556
O50 S12 1.474407 1_555
O50 Zn12 2.195913 1_556
O51 S13 1.470242 1_555
O51 Zn13 2.093151 1_556
O52 Si14 1.637766 1_555
O52 Zn12 1.932842 1_556
O53 S14 1.486664 1_555
O53 Zn13 2.154717 1_556
O54 S15 1.482387 1_555
O54 Zn14 2.184029 1_555
O55 S16 1.474444 1_555
O55 Zn15 2.042324 1_555
O56 S17 1.486544 1_555
O56 Zn14 2.135489 1_555
O57 S18 1.486209 1_555
O57 Zn15 2.103714 1_555
O58 S19 1.467080 1_555
O58 Zn14 2.132855 1_555
O59 S20 1.479740 1_555
O59 Zn15 2.112262 1_555
O60 S19 1.490809 1_555
O60 Zn16 2.285491 1_555
O61 S20 1.494251 1_555
O61 Zn17 2.212758 1_555
O62 S15 1.492320 1_555
O62 Zn16 2.103988 1_555
O63 S16 1.494162 1_555
O63 Zn17 2.159425 1_555
O64 S17 1.490930 1_555
O64 Zn16 2.191821 1_555
O65 S18 1.488661 1_555
O65 Zn17 2.230022 1_555
O66 S12 1.489981 1_555
O66 Zn18 2.336637 1_555
O67 S13 1.496078 1_555
O67 Zn19 2.229350 1_555
O68 Si14 1.646300 1_555
O68 Zn18 1.965236 1_555
O69 S14 1.491093 1_555
O69 Zn19 2.192830 1_555
O70 S10 1.489357 1_555
O70 Zn18 2.209047 1_555
O71 S11 1.496431 1_555
O71 Zn19 2.092165 1_555
O72 S19 1.505801 1_555
O72 Zn0 2.409173 1_555
O73 S20 1.503025 1_555
O73 Zn1 2.514498 1_555
O74 S15 1.497642 1_555
O75 S16 1.491049 1_555
O75 Zn0 2.607197 1_655
O76 S17 1.497648 1_555
O76 Zn0 2.541883 1_545
O77 S18 1.492748 1_555
O78 S12 1.500635 1_555
O78 Zn2 2.385224 1_555
O79 S13 1.507063 1_555
O79 Zn3 2.322987 1_555
O80 Si14 1.658288 1_555
O80 Zn2 2.078486 1_565
O81 S14 1.496975 1_555
O81 Zn3 2.514423 1_565
O82 S10 1.502674 1_555
O82 Zn3 2.479517 1_565
O83 S11 1.484656 1_555
O83 Zn2 2.471752 1_665
O84 S4 1.569519 1_555
O85 S5 1.528591 1_555
O86 Si8 1.672470 1_555
O87 S6 1.529667 1_555
O88 Si9 1.706663 1_555
O89 Si10 1.665300 1_555
O90 S7 1.556871 1_555
O91 S8 1.577740 1_555
O92 Si11 1.682611 1_555
O93 Si12 1.704482 1_555
O94 S9 1.547447 1_555
O95 Si13 1.681130 1_555
O96 Si6 1.611800 1_555
O96 Zn4 2.129232 1_555
O97 Si7 1.638368 1_555
O97 Zn5 2.077880 1_555
O98 Si4 1.629493 1_555
O98 Zn4 2.019106 1_555
O99 Si5 1.621962 1_555
O99 Zn5 2.072020 1_555
O100 S3 1.460975 1_555
O100 Zn4 2.510981 1_555
O101 S2 1.480319 1_555
O101 Zn5 2.259402 1_555
O102 Si2 1.630060 1_555
O102 Zn6 2.049154 1_555
O103 Si3 1.611410 1_555
O103 Zn7 2.187093 1_555
O104 S1 1.475744 1_555
O104 Zn6 2.430071 1_555
O105 S0 1.466797 1_655
O105 Zn7 2.520406 1_555
O106 Si0 1.617349 1_555
O106 Zn6 2.097920 1_555
O107 Si1 1.625200 1_545
O107 Zn7 2.079474 1_555
O108 S10 1.494449 1_555
O108 Zn8 2.416182 1_555
O109 S11 1.493802 1_555
O110 S13 1.490161 1_555
O110 Zn8 2.492442 1_555
O111 S12 1.501926 1_655
O112 Si14 1.667615 1_545
O112 Zn8 1.990719 1_555
O113 S14 1.496172 1_545
O114 S15 1.493204 1_545
O115 S16 1.503936 1_545
O115 Zn11 2.443176 1_555
O116 S17 1.494967 1_555
O117 S18 1.500420 1_555
O117 Zn11 2.541624 1_555
O118 S20 1.487878 1_555
O119 S19 1.505509 1_655
O119 Zn11 2.476156 1_555
O120 S9 1.456554 1_555
O120 Zn12 2.424496 1_555
O121 Si13 1.613491 1_555
O121 Zn13 1.956413 1_555
O122 S8 1.457391 1_455
O122 Zn12 2.525469 1_555
O123 S7 1.479610 1_555
O123 Zn13 2.295295 1_555
O124 Si11 1.638860 1_565
O124 Zn12 2.000034 1_555
O125 Si12 1.646719 1_565
O125 Zn13 2.058645 1_555
O126 Si8 1.615731 1_565
O126 Zn14 1.941140 1_555
O127 S6 1.466249 1_565
O127 Zn15 2.190273 1_555
O128 Si9 1.644661 1_555
O128 Zn14 2.049039 1_555
O129 Si10 1.648480 1_555
O129 Zn15 1.960408 1_555
O130 S5 1.471374 1_455
O130 Zn14 2.317417 1_555
O131 S4 1.469528 1_555
O131 Zn15 2.355617 1_555
O132 Si0 1.636145 1_565
O132 Zn16 2.011159 1_555
O133 Si1 1.641731 1_555
O133 Zn17 2.011694 1_555
O134 Si2 1.638590 1_555
O134 Zn16 2.031364 1_555
O135 Si3 1.630743 1_555
O135 Zn17 2.044838 1_555
O136 S0 1.475930 1_555
O136 Zn16 2.359928 1_555
O137 S1 1.482335 1_555
O137 Zn17 2.298645 1_555
O138 Si4 1.642490 1_555
O138 Zn18 2.081238 1_555
O139 Si5 1.636552 1_555
O139 Zn19 2.034003 1_555
O140 S2 1.471981 1_455
O140 Zn18 2.378585 1_555
O141 S3 1.477246 1_555
O141 Zn19 2.390898 1_555
O142 Si6 1.614791 1_565
O142 Zn18 2.117584 1_555
O143 Si7 1.645721 1_565
O143 Zn19 2.037468 1_555
