# generated using pymatgen
data_Na6Ti4Zn4Si3(S3O16)3
_symmetry_space_group_name_H-M   'P 1'
_cell_length_a   17.58777782
_cell_length_b   8.73920847
_cell_length_c   22.47257209
_cell_angle_alpha   90.13088267
_cell_angle_beta   90.06623852
_cell_angle_gamma   119.92948753
_symmetry_Int_Tables_number   1
_chemical_formula_structural   Na6Ti4Zn4Si3(S3O16)3
_chemical_formula_sum   'Na18 Ti12 Zn12 Si9 S27 O144'
_cell_volume   2993.44972250
_cell_formula_units_Z   3
loop_
 _symmetry_equiv_pos_site_id
 _symmetry_equiv_pos_as_xyz
  1  'x, y, z'
loop_
 _atom_site_type_symbol
 _atom_site_label
 _atom_site_symmetry_multiplicity
 _atom_site_fract_x
 _atom_site_fract_y
 _atom_site_fract_z
 _atom_site_occupancy
  Na  Na0  1  0.99870095  0.63251186  0.25200275  1
  Na  Na1  1  0.49891405  0.62278940  0.24525699  1
  Na  Na2  1  0.00023767  0.37411113  0.74514792  1
  Na  Na3  1  0.49950872  0.36869412  0.75134676  1
  Na  Na4  1  0.67187014  0.31581456  0.91215906  1
  Na  Na5  1  0.17022022  0.03162644  0.41493967  1
  Na  Na6  1  0.99270592  0.00119991  0.50171280  1
  Na  Na7  1  0.50058281  0.00188446  0.50042526  1
  Na  Na8  1  0.99854195  0.99455369  0.99422729  1
  Na  Na9  1  0.49318279  0.98481667  0.99734816  1
  Na  Na10  1  0.31726265  0.31520159  0.83206782  1
  Na  Na11  1  0.83541461  0.34947316  0.83472981  1
  Na  Na12  1  0.33270660  0.31962544  0.33662753  1
  Na  Na13  1  0.82226073  0.32726870  0.33773066  1
  Na  Na14  1  0.17599918  0.66127223  0.16460280  1
  Na  Na15  1  0.66713386  0.66311835  0.16513629  1
  Na  Na16  1  0.16621569  0.66329629  0.67116925  1
  Na  Na17  1  0.67796259  0.69285467  0.66665715  1
  Ti  Ti0  1  0.50063076  0.01673170  0.36217248  1
  Ti  Ti1  1  0.00952247  0.99450731  0.85865077  1
  Ti  Ti2  1  0.00300280  0.02543010  0.64787592  1
  Ti  Ti3  1  0.50634056  0.99926835  0.64640564  1
  Ti  Ti4  1  0.00667473  0.01369733  0.14518059  1
  Ti  Ti5  1  0.49737636  0.98551317  0.14357113  1
  Ti  Ti6  1  0.32406109  0.33482584  0.98453716  1
  Ti  Ti7  1  0.82401129  0.31406672  0.48643374  1
  Ti  Ti8  1  0.16385706  0.66390095  0.01589767  1
  Ti  Ti9  1  0.66977479  0.67372942  0.01607830  1
  Ti  Ti10  1  0.16965930  0.66571651  0.51870269  1
  Ti  Ti11  1  0.66563312  0.65978801  0.51892148  1
  Zn  Zn0  1  0.99383044  0.99809951  0.35126556  1
  Zn  Zn1  1  0.49411836  0.98960764  0.85069243  1
  Zn  Zn2  1  0.31840453  0.32419920  0.68634822  1
  Zn  Zn3  1  0.83636404  0.32387692  0.67411394  1
  Zn  Zn4  1  0.33438457  0.34637614  0.17299304  1
  Zn  Zn5  1  0.82798272  0.32727302  0.18113284  1
  Zn  Zn6  1  0.83899312  0.34692009  0.98244624  1
  Zn  Zn7  1  0.33871837  0.33233566  0.48378913  1
  Zn  Zn8  1  0.17377891  0.67202485  0.31949409  1
  Zn  Zn9  1  0.67330310  0.66256399  0.32008421  1
  Zn  Zn10  1  0.17149476  0.67380906  0.81315019  1
  Zn  Zn11  1  0.67866671  0.68078705  0.81747425  1
  Si  Si0  1  0.14812351  0.29728589  0.75419338  1
  Si  Si1  1  0.98101594  0.34028719  0.58417522  1
  Si  Si2  1  0.68650387  0.03284726  0.58642884  1
  Si  Si3  1  0.48198430  0.61677462  0.08495739  1
  Si  Si4  1  0.18747099  0.34285526  0.08613863  1
  Si  Si5  1  0.81441149  0.66674309  0.91450026  1
  Si  Si6  1  0.17397211  0.95965716  0.91440415  1
  Si  Si7  1  0.31044167  0.96111038  0.41555568  1
  Si  Si8  1  0.67410886  0.38257683  0.41526965  1
  S  S0  1  0.14703697  0.00411853  0.25031506  1
  S  S1  1  0.64369231  0.00181523  0.25049374  1
  S  S2  1  0.35717708  0.71578676  0.25145608  1
  S  S3  1  0.85468508  0.71039688  0.24733589  1
  S  S4  1  0.99933366  0.29202486  0.24956073  1
  S  S5  1  0.49892351  0.28362342  0.25013479  1
  S  S6  1  0.64718610  0.29052034  0.75058157  1
  S  S7  1  0.99643728  0.71341842  0.74877134  1
  S  S8  1  0.50182935  0.70891886  0.74967999  1
  S  S9  1  0.35753372  0.00089775  0.74708527  1
  S  S10  1  0.85575316  0.99870964  0.75136693  1
  S  S11  1  0.48140076  0.33333424  0.58681916  1
  S  S12  1  0.18321916  0.03364536  0.58218103  1
  S  S13  1  0.33446797  0.62829835  0.58321572  1
  S  S14  1  0.83294482  0.62662408  0.58257557  1
  S  S15  1  0.98242901  0.63142170  0.08663282  1
  S  S16  1  0.33282996  0.03796340  0.08360522  1
  S  S17  1  0.83396682  0.04027719  0.08391998  1
  S  S18  1  0.68350702  0.33196843  0.08360183  1
  S  S19  1  0.31309870  0.66677270  0.91699157  1
  S  S20  1  0.01968872  0.37248307  0.91531467  1
  S  S21  1  0.51782358  0.37443308  0.91594777  1
  S  S22  1  0.66510107  0.95873652  0.91648987  1
  S  S23  1  0.81260419  0.95896668  0.41703043  1
  S  S24  1  0.16518490  0.37188359  0.41641636  1
  S  S25  1  0.01808844  0.66204235  0.41575891  1
  S  S26  1  0.52128117  0.66844483  0.41409995  1
  O  O0  1  0.10622873  0.02061691  0.30593985  1
  O  O1  1  0.60013616  0.01985664  0.30365292  1
  O  O2  1  0.41264829  0.81180921  0.30322135  1
  O  O3  1  0.90726930  0.78509538  0.30238063  1
  O  O4  1  0.49558355  0.18227986  0.30494804  1
  O  O5  1  0.98827062  0.18989654  0.30358946  1
  O  O6  1  0.09055019  0.16511730  0.80944286  1
  O  O7  1  0.60646669  0.19237094  0.80631483  1
  O  O8  1  0.49053386  0.78917509  0.80407802  1
  O  O9  1  0.98975968  0.79965680  0.80488719  1
  O  O10  1  0.40945088  0.02955922  0.80263876  1
  O  O11  1  0.90842186  0.01072652  0.80373620  1
  O  O12  1  0.40738309  0.98573178  0.69509983  1
  O  O13  1  0.89890515  0.98259188  0.69501702  1
  O  O14  1  0.08328188  0.19257231  0.69354105  1
  O  O15  1  0.58745205  0.18534381  0.69852747  1
  O  O16  1  0.00142331  0.81900095  0.69571774  1
  O  O17  1  0.50956817  0.81959697  0.69584187  1
  O  O18  1  0.40322632  0.82004254  0.19570716  1
  O  O19  1  0.90362974  0.82035690  0.19490264  1
  O  O20  1  0.00717246  0.19836142  0.19562171  1
  O  O21  1  0.50588611  0.19079510  0.19680338  1
  O  O22  1  0.08714895  0.98953313  0.19832210  1
  O  O23  1  0.58844404  0.98070101  0.19574305  1
  O  O24  1  0.44389146  0.36198710  0.64080505  1
  O  O25  1  0.95343337  0.38409327  0.64723934  1
  O  O26  1  0.24001377  0.11174718  0.63410706  1
  O  O27  1  0.74105286  0.10488443  0.64599567  1
  O  O28  1  0.32128271  0.52371871  0.63662960  1
  O  O29  1  0.81350881  0.52238985  0.63722645  1
  O  O30  1  0.45273733  0.52216990  0.14881600  1
  O  O31  1  0.94578003  0.52896047  0.14199828  1
  O  O32  1  0.31673839  0.10664223  0.13882907  1
  O  O33  1  0.81941042  0.11616688  0.13857796  1
  O  O34  1  0.24064835  0.37779081  0.14639354  1
  O  O35  1  0.73835738  0.36364841  0.13688229  1
  O  O36  1  0.22997119  0.29980127  0.02736330  1
  O  O37  1  0.71765290  0.29391153  0.02972022  1
  O  O38  1  0.41343990  0.52002237  0.03020215  1
  O  O39  1  0.92752834  0.55284986  0.03435037  1
  O  O40  1  0.34837739  0.15113835  0.03152332  1
  O  O41  1  0.84933762  0.14804740  0.03103996  1
  O  O42  1  0.21792912  0.13856441  0.52738090  1
  O  O43  1  0.72874776  0.15954415  0.52730531  1
  O  O44  1  0.34986337  0.55356999  0.52890920  1
  O  O45  1  0.84404634  0.53761300  0.52990091  1
  O  O46  1  0.42833717  0.30247684  0.53298236  1
  O  O47  1  0.91293523  0.30846807  0.52912364  1
  O  O48  1  0.26670660  0.68429048  0.97037560  1
  O  O49  1  0.76120070  0.69375224  0.97344112  1
  O  O50  1  0.07735031  0.46598238  0.96898446  1
  O  O51  1  0.57981460  0.47206767  0.96678672  1
  O  O52  1  0.15776329  0.83238930  0.97398071  1
  O  O53  1  0.65363305  0.84599767  0.97007189  1
  O  O54  1  0.26194706  0.83033749  0.47337297  1
  O  O55  1  0.76536573  0.84640459  0.46900343  1
  O  O56  1  0.15445617  0.46242561  0.46938127  1
  O  O57  1  0.65541182  0.47696204  0.47321477  1
  O  O58  1  0.08010933  0.68929555  0.46573414  1
  O  O59  1  0.57810971  0.69269531  0.46657051  1
  O  O60  1  0.05161137  0.63423040  0.35828002  1
  O  O61  1  0.55822589  0.64454954  0.35787903  1
  O  O62  1  0.24832199  0.88716959  0.35779284  1
  O  O63  1  0.76342865  0.89207539  0.36085878  1
  O  O64  1  0.17310951  0.46723035  0.36073696  1
  O  O65  1  0.69023314  0.48736368  0.35477947  1
  O  O66  1  0.05642656  0.47220695  0.86070761  1
  O  O67  1  0.55173547  0.46936885  0.85925597  1
  O  O68  1  0.18956046  0.87762792  0.85618631  1
  O  O69  1  0.67209261  0.87725157  0.86134308  1
  O  O70  1  0.26511636  0.63798369  0.86208931  1
  O  O71  1  0.74592032  0.60567671  0.85969176  1
  O  O72  1  0.01512351  0.83103314  0.41424430  1
  O  O73  1  0.51590315  0.83481948  0.41062535  1
  O  O74  1  0.40813168  0.97234051  0.40898297  1
  O  O75  1  0.90005375  0.97247532  0.41529999  1
  O  O76  1  0.08574591  0.19080289  0.41520374  1
  O  O77  1  0.58297165  0.18259705  0.41034204  1
  O  O78  1  0.01513222  0.19775263  0.91441344  1
  O  O79  1  0.51536663  0.19991624  0.91506963  1
  O  O80  1  0.08433051  0.97875591  0.91237401  1
  O  O81  1  0.58587734  0.98107684  0.91580495  1
  O  O82  1  0.40154270  0.82840981  0.91647294  1
  O  O83  1  0.90877158  0.84879235  0.90860183  1
  O  O84  1  0.49293233  0.17364119  0.59295098  1
  O  O85  1  0.98842121  0.15658597  0.58894680  1
  O  O86  1  0.09313247  0.00795944  0.59158408  1
  O  O87  1  0.58669009  0.01245613  0.59326133  1
  O  O88  1  0.41243402  0.81177067  0.59059630  1
  O  O89  1  0.91231801  0.80295168  0.58692747  1
  O  O90  1  0.49045575  0.81984896  0.09307090  1
  O  O91  1  0.99257058  0.81283508  0.09340624  1
  O  O92  1  0.41417255  0.01981123  0.08954073  1
  O  O93  1  0.91222161  0.01499168  0.09215763  1
  O  O94  1  0.08712410  0.16180594  0.09362086  1
  O  O95  1  0.59296886  0.17474927  0.09375052  1
  O  O96  1  0.35302882  0.16552111  0.74072538  1
  O  O97  1  0.85123495  0.16371475  0.74937324  1
  O  O98  1  0.24083001  0.30585619  0.75041069  1
  O  O99  1  0.73448741  0.31388802  0.74388216  1
  O  O100  1  0.42529344  0.53101931  0.74257908  1
  O  O101  1  0.91651843  0.53589936  0.74788104  1
  O  O102  1  0.35227545  0.54209456  0.24983079  1
  O  O103  1  0.84663124  0.53142375  0.24173384  1
  O  O104  1  0.41819632  0.29588674  0.25000412  1
  O  O105  1  0.92117143  0.31491151  0.24307141  1
  O  O106  1  0.23472721  0.15614177  0.24378083  1
  O  O107  1  0.73144472  0.15955281  0.24490587  1
  O  O108  1  0.32408533  0.50790862  0.92546824  1
  O  O109  1  0.82282382  0.49231772  0.92526010  1
  O  O110  1  0.43066483  0.35128944  0.92685250  1
  O  O111  1  0.93202690  0.34936692  0.92476989  1
  O  O112  1  0.25845379  0.15700927  0.92845327  1
  O  O113  1  0.74420549  0.13319261  0.92386867  1
  O  O114  1  0.32291332  0.15542045  0.42487923  1
  O  O115  1  0.82359367  0.13892317  0.42487609  1
  O  O116  1  0.24425621  0.35506043  0.42313572  1
  O  O117  1  0.75754344  0.35474997  0.42776918  1
  O  O118  1  0.43272749  0.51716036  0.42208006  1
  O  O119  1  0.93058040  0.50963332  0.42556792  1
  O  O120  1  0.17022265  0.50510545  0.07092478  1
  O  O121  1  0.67246768  0.48990254  0.07683168  1
  O  O122  1  0.07188857  0.65455427  0.07913623  1
  O  O123  1  0.58089270  0.65657248  0.06920693  1
  O  O124  1  0.25725845  0.85613212  0.07440432  1
  O  O125  1  0.75461480  0.85992596  0.07739159  1
  O  O126  1  0.17252984  0.85244920  0.57477875  1
  O  O127  1  0.66995870  0.83593802  0.56927789  1
  O  O128  1  0.25451327  0.64835702  0.57681109  1
  O  O129  1  0.75531278  0.65492765  0.57286699  1
  O  O130  1  0.07973016  0.50271285  0.56670252  1
  O  O131  1  0.57164344  0.49136232  0.57895634  1
  O  O132  1  0.14569578  0.83225693  0.24752864  1
  O  O133  1  0.64851340  0.83637960  0.25235472  1
  O  O134  1  0.27026501  0.70115898  0.25137708  1
  O  O135  1  0.76854531  0.70015094  0.24867283  1
  O  O136  1  0.07980232  0.46956849  0.25088801  1
  O  O137  1  0.57739995  0.46351404  0.25150486  1
  O  O138  1  0.14743516  0.48186075  0.75459111  1
  O  O139  1  0.64547406  0.45921316  0.74790278  1
  O  O140  1  0.07588058  0.69736912  0.75006285  1
  O  O141  1  0.58326981  0.69659059  0.75103776  1
  O  O142  1  0.27187118  0.84206181  0.74730488  1
  O  O143  1  0.76726679  0.83999337  0.75121010  1
loop_
_geom_bond_atom_site_label_1
_geom_bond_atom_site_label_2
_geom_bond_distance
_geom_bond_site_symmetry_2
Na0 O132 2.288927 1_655
Na0 O103 2.372110 1_555
Na0 O105 2.413220 1_555
Na0 O136 2.467743 1_655
Na0 O60 2.559500 1_655
Na0 O31 2.634467 1_555
Na0 O3 2.789763 1_555
Na0 O22 2.964516 1_655
Na1 O102 2.312017 1_555
Na1 O30 2.324758 1_555
Na1 O133 2.351454 1_555
Na1 O137 2.404260 1_555
Na1 O104 2.478534 1_555
Na1 O61 2.706213 1_555
Na2 O138 2.280181 1_555
Na2 O97 2.334656 1_455
Na2 O25 2.365317 1_455
Na2 O140 2.451681 1_555
Na2 O101 2.499641 1_455
Na2 O66 2.755732 1_555
Na2 O14 2.881493 1_555
Na3 O139 2.279597 1_555
Na3 O96 2.297562 1_555
Na3 O100 2.367148 1_555
Na3 O141 2.483818 1_555
Na3 O67 2.584008 1_555
Na3 O24 2.658537 1_555
Na3 O10 2.820786 1_555
Na3 O15 2.972782 1_555
Na4 O109 2.329012 1_555
Na4 O79 2.413588 1_555
Na4 O71 2.495682 1_555
Na4 O113 2.502428 1_555
Na4 O81 2.537366 1_545
Na4 O7 2.624567 1_555
Na4 O37 2.795685 1_556
Na4 O51 2.862891 1_555
Na5 O114 2.351751 1_555
Na5 O72 2.396316 1_545
Na5 O116 2.458305 1_555
Na5 O76 2.490943 1_555
Na5 O62 2.618587 1_545
Na5 O0 2.675913 1_555
Na5 O42 2.676604 1_555
Na5 O58 2.837870 1_545
Na6 O85 2.404800 1_555
Na6 O75 2.464091 1_545
Na6 O89 2.498986 1_545
Na6 O76 2.553264 1_655
Na6 O72 2.608498 1_645
Na6 O86 2.662567 1_655
Na7 O77 2.535720 1_555
Na7 O74 2.550351 1_545
Na7 O87 2.550833 1_555
Na7 O73 2.580131 1_545
Na7 O88 2.592775 1_545
Na7 O84 2.604330 1_555
Na8 O83 2.406857 1_555
Na8 O80 2.427414 1_655
Na8 O78 2.440162 1_665
Na8 O94 2.693969 1_666
Na8 O91 2.711250 1_556
Na8 O93 2.730675 1_566
Na9 O82 2.356438 1_555
Na9 O81 2.465101 1_555
Na9 O79 2.527923 1_565
Na9 O90 2.579449 1_556
Na9 O92 2.597068 1_566
Na9 O95 2.756167 1_566
Na10 O98 2.250602 1_555
Na10 O112 2.502943 1_555
Na10 O108 2.652887 1_555
Na10 O96 2.670615 1_555
Na10 O100 2.768009 1_555
Na10 O110 2.823832 1_555
Na11 O109 2.451873 1_555
Na11 O101 2.490021 1_555
Na11 O97 2.613417 1_555
Na11 O99 2.617931 1_555
Na11 O111 2.641056 1_555
Na11 O113 2.675399 1_555
Na12 O114 2.406108 1_555
Na12 O104 2.531681 1_555
Na12 O118 2.590194 1_555
Na12 O116 2.603894 1_555
Na12 O106 2.624039 1_555
Na12 O102 2.655970 1_555
Na13 O117 2.392337 1_555
Na13 O115 2.568700 1_555
Na13 O107 2.587116 1_555
Na13 O119 2.648200 1_555
Na13 O103 2.697678 1_555
Na13 O105 2.785327 1_555
Na14 O134 2.466905 1_555
Na14 O120 2.480475 1_555
Na14 O136 2.573548 1_555
Na14 O124 2.577801 1_555
Na14 O132 2.602695 1_555
Na14 O122 2.632351 1_555
Na15 O135 2.494722 1_555
Na15 O121 2.523227 1_555
Na15 O137 2.564418 1_555
Na15 O125 2.568175 1_555
Na15 O133 2.593142 1_555
Na15 O123 2.618512 1_555
Na16 O138 2.372793 1_555
Na16 O142 2.429960 1_555
Na16 O140 2.496486 1_555
Na16 O128 2.670915 1_555
Na16 O126 2.696442 1_555
Na16 O130 2.764263 1_555
Na17 O143 2.386941 1_555
Na17 O141 2.536096 1_555
Na17 O127 2.561205 1_555
Na17 O139 2.585416 1_555
Na17 O129 2.618475 1_555
Na17 O131 2.677973 1_555
O0 S0 1.484255 1_555
O0 Zn0 2.145114 1_445
O1 S1 1.469900 1_555
O1 Ti0 2.179625 1_555
O2 S2 1.478257 1_555
O2 Ti0 2.139124 1_565
O3 S3 1.484203 1_555
O3 Zn0 2.036816 1_555
O4 S5 1.502799 1_555
O4 Ti0 1.972595 1_555
O5 S4 1.463166 1_555
O5 Zn0 2.034325 1_545
O6 Si0 1.656321 1_555
O6 Ti1 1.835135 1_545
O7 S6 1.487046 1_555
O7 Zn1 2.134863 1_545
O8 S8 1.470203 1_555
O8 Zn1 2.012654 1_555
O9 S7 1.502133 1_555
O9 Ti1 1.969581 1_655
O10 S9 1.490903 1_555
O10 Zn1 2.005576 1_545
O11 S10 1.467643 1_545
O11 Ti1 2.225312 1_645
O12 S9 1.506205 1_565
O12 Ti3 2.010008 1_555
O13 S10 1.519049 1_555
O13 Ti2 1.984133 1_665
O14 Si0 1.716134 1_555
O14 Ti2 1.764110 1_555
O15 S6 1.531550 1_555
O15 Ti3 1.929768 1_545
O16 S7 1.484947 1_455
O16 Ti2 2.090481 1_565
O17 S8 1.514017 1_555
O17 Ti3 1.949283 1_555
O18 S2 1.525403 1_555
O18 Ti5 1.956687 1_555
O19 S3 1.494974 1_555
O19 Ti4 2.084617 1_665
O20 S4 1.505586 1_455
O20 Ti4 1.966450 1_555
O21 S5 1.484766 1_555
O21 Ti5 2.096126 1_545
O22 S0 1.534073 1_565
O22 Ti4 1.941525 1_565
O23 S1 1.519663 1_565
O23 Ti5 2.001212 1_555
O24 S11 1.461189 1_555
O24 Zn2 2.303701 1_555
O25 Si1 1.604625 1_555
O25 Zn3 1.950442 1_555
O26 S12 1.462418 1_555
O26 Zn2 2.039182 1_555
O27 Si2 1.580872 1_555
O27 Zn3 1.913824 1_555
O28 S13 1.457418 1_555
O28 Zn2 2.052359 1_555
O29 S14 1.466403 1_555
O29 Zn3 2.135443 1_555
O30 Si3 1.609446 1_555
O30 Zn4 1.950297 1_555
O31 S15 1.481998 1_555
O31 Zn5 2.130692 1_555
O32 S16 1.465395 1_555
O32 Zn4 2.102001 1_555
O33 S17 1.476675 1_555
O33 Zn5 2.013698 1_555
O34 Si4 1.584844 1_555
O34 Zn4 1.897557 1_555
O35 S18 1.473171 1_555
O35 Zn5 2.018053 1_555
O36 Si4 1.650927 1_555
O36 Ti6 1.804989 1_554
O37 S18 1.461713 1_555
O37 Zn6 2.217792 1_554
O38 Si3 1.630042 1_555
O38 Ti6 1.895672 1_554
O39 S15 1.454773 1_555
O39 Zn6 2.052769 1_554
O40 S16 1.469365 1_555
O40 Ti6 2.136943 1_554
O41 S17 1.457423 1_555
O41 Zn6 2.137749 1_554
O42 S12 1.475918 1_555
O42 Zn7 2.182426 1_555
O43 Si2 1.652700 1_555
O43 Ti7 1.796082 1_555
O44 S13 1.470641 1_555
O44 Zn7 2.101676 1_555
O45 S14 1.480657 1_555
O45 Ti7 2.049028 1_555
O46 S11 1.467044 1_555
O46 Zn7 2.045072 1_555
O47 Si1 1.644493 1_555
O47 Ti7 1.855228 1_555
O48 S19 1.501492 1_555
O48 Ti8 2.008445 1_556
O49 Si5 1.705243 1_555
O49 Ti9 1.804953 1_556
O50 S20 1.522036 1_555
O50 Ti8 1.944217 1_556
O51 S21 1.512080 1_555
O51 Ti9 2.010190 1_556
O52 Si6 1.673943 1_555
O52 Ti8 1.797364 1_556
O53 S22 1.506320 1_555
O53 Ti9 1.961869 1_556
O54 Si7 1.660852 1_555
O54 Ti10 1.849964 1_555
O55 S23 1.487964 1_555
O55 Ti11 2.037959 1_555
O56 S24 1.491183 1_555
O56 Ti10 1.993139 1_555
O57 Si8 1.658592 1_555
O57 Ti11 1.829106 1_555
O58 S25 1.498193 1_555
O58 Ti10 2.064119 1_555
O59 S26 1.489646 1_555
O59 Ti11 2.067715 1_555
O60 S25 1.489465 1_555
O60 Zn8 2.187009 1_555
O61 S26 1.482620 1_555
O61 Zn9 2.128189 1_555
O62 Si7 1.607679 1_555
O62 Zn8 1.877488 1_555
O63 S23 1.474044 1_555
O63 Zn9 2.047172 1_555
O64 S24 1.472640 1_555
O64 Zn8 2.012191 1_555
O65 Si8 1.585670 1_555
O65 Zn9 1.871026 1_555
O66 S20 1.458681 1_555
O66 Zn10 2.190350 1_555
O67 S21 1.476475 1_555
O67 Zn11 2.275077 1_555
O68 Si6 1.579049 1_555
O68 Zn10 1.906751 1_555
O69 S22 1.463477 1_555
O69 Zn11 2.030710 1_555
O70 S19 1.442923 1_555
O70 Zn10 2.128531 1_555
O71 Si5 1.614005 1_555
O71 Zn11 1.872191 1_555
O72 S25 1.504003 1_555
O72 Zn0 2.197456 1_455
O73 S26 1.505605 1_555
O73 Ti0 2.053893 1_565
O74 Si7 1.678058 1_555
O74 Ti0 1.811020 1_565
O75 S23 1.483240 1_555
O75 Zn0 2.116505 1_555
O76 S24 1.500176 1_555
O76 Zn0 2.186537 1_445
O77 Si8 1.685002 1_555
O77 Ti0 1.806843 1_555
O78 S20 1.488732 1_555
O78 Ti1 2.132989 1_545
O79 S21 1.504128 1_555
O79 Zn1 2.216273 1_545
O80 Si6 1.666748 1_555
O80 Ti1 1.839951 1_555
O81 S22 1.500418 1_555
O81 Zn1 2.205949 1_555
O82 S19 1.490869 1_555
O82 Zn1 2.132391 1_555
O83 Si5 1.633929 1_555
O83 Ti1 1.944497 1_655
O84 S11 1.513622 1_555
O84 Ti3 2.046256 1_545
O85 Si1 1.677850 1_555
O85 Ti2 1.852770 1_655
O86 S12 1.500510 1_555
O86 Ti2 2.093240 1_555
O87 Si2 1.680982 1_555
O87 Ti3 1.810709 1_545
O88 S13 1.510966 1_555
O88 Ti3 2.066645 1_555
O89 S14 1.478291 1_555
O89 Ti2 2.255760 1_665
O90 Si3 1.714537 1_555
O90 Ti5 1.793077 1_555
O91 S15 1.511674 1_555
O91 Ti4 2.012986 1_665
O92 S16 1.521774 1_555
O92 Ti5 2.034902 1_545
O93 S17 1.510120 1_555
O93 Ti4 2.047886 1_655
O94 Si4 1.691724 1_555
O94 Ti4 1.789703 1_555
O95 S18 1.514764 1_555
O95 Ti5 2.013310 1_545
O96 S9 1.486996 1_555
O96 Zn2 2.153088 1_555
O97 S10 1.484035 1_545
O97 Zn3 2.294130 1_555
O98 Si0 1.596828 1_555
O98 Zn2 1.935749 1_555
O99 S6 1.452487 1_555
O99 Zn3 2.351036 1_555
O100 S8 1.471255 1_555
O100 Zn2 2.234116 1_555
O101 S7 1.485497 1_555
O101 Zn3 2.354302 1_555
O102 S2 1.477174 1_555
O102 Zn4 2.335464 1_555
O103 S3 1.503413 1_555
O103 Zn5 2.132899 1_555
O104 S5 1.476208 1_555
O104 Zn4 2.451381 1_555
O105 S4 1.491680 1_555
O105 Zn5 2.192593 1_555
O106 S0 1.456719 1_555
O106 Zn4 2.340390 1_555
O107 S1 1.475217 1_555
O107 Zn5 2.148718 1_555
O108 S19 1.506636 1_555
O108 Ti6 2.014592 1_555
O109 Si5 1.621919 1_555
O109 Zn6 1.927221 1_555
O110 S21 1.463742 1_555
O110 Ti6 2.225708 1_555
O111 S20 1.467374 1_655
O111 Zn6 2.080356 1_555
O112 Si6 1.649625 1_545
O112 Ti6 1.879675 1_555
O113 S22 1.472838 1_545
O113 Zn6 2.208467 1_555
O114 Si7 1.613132 1_545
O114 Zn7 1.944537 1_555
O115 S23 1.495691 1_545
O115 Ti7 2.058059 1_555
O116 S24 1.477184 1_555
O116 Zn7 2.232204 1_555
O117 Si8 1.626912 1_555
O117 Ti7 1.909025 1_555
O118 S26 1.467244 1_555
O118 Zn7 2.148586 1_555
O119 S25 1.465584 1_655
O119 Ti7 2.263853 1_555
O120 Si4 1.628088 1_555
O120 Ti8 1.905286 1_555
O121 S18 1.494707 1_555
O121 Ti9 2.129058 1_555
O122 S15 1.492712 1_455
O122 Ti8 2.125246 1_555
O123 Si3 1.634207 1_555
O123 Ti9 1.913877 1_555
O124 S16 1.491563 1_565
O124 Ti8 2.116733 1_555
O125 S17 1.502314 1_565
O125 Ti9 2.082061 1_555
O126 S12 1.507375 1_565
O126 Ti10 2.040077 1_555
O127 Si2 1.640585 1_565
O127 Ti11 1.879138 1_555
O128 S13 1.508159 1_555
O128 Ti10 2.043969 1_555
O129 S14 1.519736 1_555
O129 Ti11 2.005467 1_555
O130 Si1 1.651752 1_455
O130 Ti10 1.859331 1_555
O131 S11 1.507346 1_555
O131 Ti11 2.074988 1_555
O132 S0 1.491475 1_565
O132 Zn8 2.349246 1_555
O133 S1 1.490572 1_565
O133 Zn9 2.341802 1_555
O134 S2 1.468991 1_555
O134 Zn8 2.205547 1_555
O135 S3 1.472725 1_555
O135 Zn9 2.224588 1_555
O136 S4 1.489886 1_455
O136 Zn8 2.302789 1_555
O137 S5 1.487255 1_555
O137 Zn9 2.302187 1_555
O138 Si0 1.619117 1_555
O138 Zn10 2.001270 1_555
O139 S6 1.490844 1_555
O139 Zn11 2.321807 1_555
O140 S7 1.472498 1_455
O140 Zn10 2.285084 1_555
O141 S8 1.489326 1_555
O141 Zn11 2.299908 1_555
O142 S9 1.452553 1_565
O142 Zn10 2.212222 1_555
O143 S10 1.480493 1_555
O143 Zn11 2.105448 1_555
