# generated using pymatgen
data_MgV(TeO3)4
_symmetry_space_group_name_H-M   'P 1'
_cell_length_a   5.67159483
_cell_length_b   10.39127947
_cell_length_c   10.36627085
_cell_angle_alpha   28.63069047
_cell_angle_beta   57.13643764
_cell_angle_gamma   58.27418447
_symmetry_Int_Tables_number   1
_chemical_formula_structural   MgV(TeO3)4
_chemical_formula_sum   'Mg1 V1 Te4 O12'
_cell_volume   244.01809714
_cell_formula_units_Z   1
loop_
 _symmetry_equiv_pos_site_id
 _symmetry_equiv_pos_as_xyz
  1  'x, y, z'
loop_
 _atom_site_type_symbol
 _atom_site_label
 _atom_site_symmetry_multiplicity
 _atom_site_fract_x
 _atom_site_fract_y
 _atom_site_fract_z
 _atom_site_occupancy
  Mg  Mg0  1  0.81584641  0.54271340  0.74176541  1
  V  V0  1  0.34575148  0.06083348  0.23087978  1
  Te  Te0  1  0.95383384  0.90514168  0.08133749  1
  Te  Te1  1  0.06472295  0.63112017  0.85842493  1
  Te  Te2  1  0.43680884  0.12522845  0.50128870  1
  Te  Te3  1  0.47845489  0.44603134  0.51330424  1
  O  O0  1  0.43672961  0.40487331  0.96982519  1
  O  O1  1  0.09763035  0.00006984  0.78474132  1
  O  O2  1  0.04919138  0.24363595  0.82282261  1
  O  O3  1  0.99177195  0.27725864  0.10458151  1
  O  O4  1  0.31977491  0.69907350  0.19762952  1
  O  O5  1  0.62562533  0.19063236  0.56889184  1
  O  O6  1  0.16247000  0.72124505  0.57024654  1
  O  O7  1  0.56141708  0.07301085  0.00478280  1
  O  O8  1  0.27300311  0.98166828  0.50254547  1
  O  O9  1  0.86107690  0.58459315  0.28965365  1
  O  O10  1  0.75059352  0.82216875  0.36665089  1
  O  O11  1  0.64709647  0.77958980  0.74754512  1
loop_
_geom_bond_atom_site_label_1
_geom_bond_atom_site_label_2
_geom_bond_distance
_geom_bond_site_symmetry_2
Mg0 O0 2.010443 1_555
Mg0 O10 2.073511 1_555
Mg0 O2 2.100719 1_655
Mg0 O11 2.167338 1_555
Mg0 O6 2.172461 1_655
Mg0 O3 2.390820 1_556
O0 V0 1.952348 1_556
O0 Te1 1.993449 1_555
O1 Te2 1.952993 1_555
O1 Te0 1.972817 1_446
O2 Te0 1.930502 1_446
O2 Te3 2.388896 1_555
O3 V0 1.933332 1_655
O3 Te1 2.046069 1_654
O4 Te0 1.963646 1_455
O4 Te3 2.008712 1_555
O5 Te3 1.892014 1_555
O5 Te2 2.125046 1_555
O6 Te1 1.986466 1_555
O6 V0 2.001381 1_565
O7 V0 1.880504 1_555
O7 Te0 2.007416 1_545
O7 Te3 2.686893 1_554
O8 V0 1.951120 1_565
O8 Te1 2.116554 1_555
O8 Te2 2.121086 1_565
O9 Te0 2.004513 1_555
O9 Te3 2.030613 1_555
O10 Te0 1.920529 1_555
O10 V0 2.189630 1_565
O11 Te2 1.882276 1_565
O11 Te1 2.304379 1_655
