# generated using pymatgen
data_Na12Mg5Nb(PO4)9
_symmetry_space_group_name_H-M   'P 1'
_cell_length_a   9.01654314
_cell_length_b   9.01654283
_cell_length_c   22.10100202
_cell_angle_alpha   90.00000000
_cell_angle_beta   90.00000000
_cell_angle_gamma   120.00000116
_symmetry_Int_Tables_number   1
_chemical_formula_structural   Na12Mg5Nb(PO4)9
_chemical_formula_sum   'Na24 Mg10 Nb2 P18 O72'
_cell_volume   1556.04698207
_cell_formula_units_Z   2
loop_
 _symmetry_equiv_pos_site_id
 _symmetry_equiv_pos_as_xyz
  1  'x, y, z'
loop_
 _atom_site_type_symbol
 _atom_site_label
 _atom_site_symmetry_multiplicity
 _atom_site_fract_x
 _atom_site_fract_y
 _atom_site_fract_z
 _atom_site_occupancy
  Na  Na0  1  0.63492321  0.99946766  0.25033935  1
  Na  Na1  1  0.36454445  0.36507679  0.25033935  1
  Na  Na2  1  0.00053234  0.63545555  0.25033935  1
  Na  Na3  1  0.63492321  0.63545555  0.75033935  1
  Na  Na4  1  0.00053234  0.36507679  0.75033935  1
  Na  Na5  1  0.36454445  0.99946766  0.75033935  1
  Na  Na6  1  0.29562189  0.33375433  0.58780328  1
  Na  Na7  1  0.03813344  0.70437811  0.58780328  1
  Na  Na8  1  0.66624567  0.96186656  0.58780328  1
  Na  Na9  1  0.29562189  0.96186656  0.08780328  1
  Na  Na10  1  0.66624567  0.70437811  0.08780328  1
  Na  Na11  1  0.03813344  0.33375433  0.08780328  1
  Na  Na12  1  0.97865608  0.67873400  0.90834838  1
  Na  Na13  1  0.70007692  0.02134392  0.90834838  1
  Na  Na14  1  0.32126600  0.29992308  0.90834838  1
  Na  Na15  1  0.97865608  0.29992308  0.40834838  1
  Na  Na16  1  0.32126600  0.02134392  0.40834838  1
  Na  Na17  1  0.70007692  0.67873400  0.40834838  1
  Na  Na18  1  0.00000000  0.00000000  0.49974118  1
  Na  Na19  1  0.00000000  0.00000000  0.99974118  1
  Na  Na20  1  0.66666700  0.33333300  0.82383334  1
  Na  Na21  1  0.66666700  0.33333300  0.32383334  1
  Na  Na22  1  0.33333300  0.66666700  0.17100220  1
  Na  Na23  1  0.33333300  0.66666700  0.67100220  1
  Mg  Mg0  1  0.00000000  0.00000000  0.34608440  1
  Mg  Mg1  1  0.00000000  0.00000000  0.84608440  1
  Mg  Mg2  1  0.00000000  0.00000000  0.65314595  1
  Mg  Mg3  1  0.00000000  0.00000000  0.15314595  1
  Mg  Mg4  1  0.66666700  0.33333300  0.68580341  1
  Mg  Mg5  1  0.66666700  0.33333300  0.18580341  1
  Mg  Mg6  1  0.33333300  0.66666700  0.01659591  1
  Mg  Mg7  1  0.33333300  0.66666700  0.51659591  1
  Mg  Mg8  1  0.33333300  0.66666700  0.31512349  1
  Mg  Mg9  1  0.33333300  0.66666700  0.81512349  1
  Nb  Nb0  1  0.66666700  0.33333300  0.98161610  1
  Nb  Nb1  1  0.66666700  0.33333300  0.48161610  1
  P  P0  1  0.29577117  0.99923863  0.24983079  1
  P  P1  1  0.70346746  0.70422883  0.24983079  1
  P  P2  1  0.00076137  0.29653254  0.24983079  1
  P  P3  1  0.29577117  0.29653254  0.74983079  1
  P  P4  1  0.00076137  0.70422883  0.74983079  1
  P  P5  1  0.70346746  0.99923863  0.74983079  1
  P  P6  1  0.96303931  0.33522494  0.58562322  1
  P  P7  1  0.37218663  0.03696069  0.58562322  1
  P  P8  1  0.66477506  0.62781337  0.58562322  1
  P  P9  1  0.96303931  0.62781337  0.08562322  1
  P  P10  1  0.66477506  0.03696069  0.08562322  1
  P  P11  1  0.37218663  0.33522494  0.08562322  1
  P  P12  1  0.62726398  0.66898537  0.91773934  1
  P  P13  1  0.04172038  0.37273602  0.91773934  1
  P  P14  1  0.33101463  0.95827962  0.91773934  1
  P  P15  1  0.62726398  0.95827962  0.41773934  1
  P  P16  1  0.33101463  0.37273602  0.41773934  1
  P  P17  1  0.04172038  0.66898537  0.41773934  1
  O  O0  1  0.21355914  0.02724743  0.30686977  1
  O  O1  1  0.81368830  0.78644086  0.30686977  1
  O  O2  1  0.97275257  0.18631170  0.30686977  1
  O  O3  1  0.21355914  0.18631170  0.80686977  1
  O  O4  1  0.97275257  0.78644086  0.80686977  1
  O  O5  1  0.81368830  0.02724743  0.80686977  1
  O  O6  1  0.78578712  0.97099879  0.69275691  1
  O  O7  1  0.18521167  0.21421288  0.69275691  1
  O  O8  1  0.02900121  0.81478833  0.69275691  1
  O  O9  1  0.78578712  0.81478833  0.19275691  1
  O  O10  1  0.02900121  0.21421288  0.19275691  1
  O  O11  1  0.18521167  0.97099879  0.19275691  1
  O  O12  1  0.87619902  0.36226199  0.63962862  1
  O  O13  1  0.48606397  0.12380098  0.63962862  1
  O  O14  1  0.63773801  0.51393603  0.63962862  1
  O  O15  1  0.87619902  0.51393603  0.13962862  1
  O  O16  1  0.63773801  0.12380098  0.13962862  1
  O  O17  1  0.48606397  0.36226199  0.13962862  1
  O  O18  1  0.47146182  0.31384839  0.02776730  1
  O  O19  1  0.84238758  0.52853818  0.02776730  1
  O  O20  1  0.68615161  0.15761242  0.02776730  1
  O  O21  1  0.47146182  0.15761242  0.52776730  1
  O  O22  1  0.68615161  0.52853818  0.52776730  1
  O  O23  1  0.84238758  0.31384839  0.52776730  1
  O  O24  1  0.54614337  0.69276405  0.97489197  1
  O  O25  1  0.14661968  0.45385663  0.97489197  1
  O  O26  1  0.30723595  0.85338032  0.97489197  1
  O  O27  1  0.54614337  0.85338032  0.47489197  1
  O  O28  1  0.30723595  0.45385663  0.47489197  1
  O  O29  1  0.14661968  0.69276405  0.47489197  1
  O  O30  1  0.11385288  0.62812872  0.36159970  1
  O  O31  1  0.51427484  0.88614712  0.36159970  1
  O  O32  1  0.37187128  0.48572516  0.36159970  1
  O  O33  1  0.11385288  0.48572516  0.86159970  1
  O  O34  1  0.37187128  0.88614712  0.86159970  1
  O  O35  1  0.51427484  0.62812872  0.86159970  1
  O  O36  1  0.01186435  0.82301225  0.41225007  1
  O  O37  1  0.81114790  0.98813565  0.41225007  1
  O  O38  1  0.17698775  0.18885210  0.41225007  1
  O  O39  1  0.01186435  0.18885210  0.91225007  1
  O  O40  1  0.17698775  0.98813565  0.91225007  1
  O  O41  1  0.81114790  0.82301225  0.91225007  1
  O  O42  1  0.97216561  0.16898196  0.58467167  1
  O  O43  1  0.19681635  0.02783439  0.58467167  1
  O  O44  1  0.83101804  0.80318365  0.58467167  1
  O  O45  1  0.97216561  0.80318365  0.08467167  1
  O  O46  1  0.83101804  0.02783439  0.08467167  1
  O  O47  1  0.19681635  0.16898196  0.08467167  1
  O  O48  1  0.68496226  0.16163732  0.74517449  1
  O  O49  1  0.47667605  0.31503774  0.74517449  1
  O  O50  1  0.83836268  0.52332395  0.74517449  1
  O  O51  1  0.68496226  0.52332395  0.24517449  1
  O  O52  1  0.83836268  0.31503774  0.24517449  1
  O  O53  1  0.47667605  0.16163732  0.24517449  1
  O  O54  1  0.64783134  0.50108158  0.92494162  1
  O  O55  1  0.85325124  0.35216866  0.92494162  1
  O  O56  1  0.49891842  0.14674876  0.92494162  1
  O  O57  1  0.64783134  0.14674876  0.42494162  1
  O  O58  1  0.49891842  0.35216866  0.42494162  1
  O  O59  1  0.85325124  0.50108158  0.42494162  1
  O  O60  1  0.35518094  0.49534917  0.07695283  1
  O  O61  1  0.14016722  0.64481906  0.07695283  1
  O  O62  1  0.50465083  0.85983278  0.07695283  1
  O  O63  1  0.35518094  0.85983278  0.57695283  1
  O  O64  1  0.50465083  0.64481906  0.57695283  1
  O  O65  1  0.14016722  0.49534917  0.57695283  1
  O  O66  1  0.31433365  0.83708880  0.25516203  1
  O  O67  1  0.52275415  0.68566635  0.25516203  1
  O  O68  1  0.16291120  0.47724585  0.25516203  1
  O  O69  1  0.31433365  0.47724585  0.75516203  1
  O  O70  1  0.16291120  0.68566635  0.75516203  1
  O  O71  1  0.52275415  0.83708880  0.75516203  1
loop_
_geom_bond_atom_site_label_1
_geom_bond_atom_site_label_2
_geom_bond_distance
_geom_bond_site_symmetry_2
Na0 O67 2.485593 1_555
Na0 O52 2.500900 1_565
Na0 O53 2.504657 1_565
Na0 O66 2.505680 1_555
Na0 O31 2.676262 1_555
Na0 O16 2.686239 1_565
Na0 O9 2.916812 1_555
Na0 O2 2.923339 1_565
Na1 O68 2.485601 1_555
Na1 O53 2.500907 1_555
Na1 O51 2.504665 1_555
Na1 O67 2.505680 1_555
Na1 O32 2.676263 1_555
Na1 O17 2.686243 1_555
Na1 O10 2.916812 1_555
Na1 O0 2.923339 1_555
Na2 O66 2.485594 1_555
Na2 O51 2.500898 1_455
Na2 O52 2.504665 1_455
Na2 O68 2.505672 1_555
Na2 O30 2.676260 1_555
Na2 O15 2.686241 1_455
Na2 O11 2.916812 1_555
Na2 O1 2.923339 1_455
Na3 O71 2.485601 1_555
Na3 O50 2.500907 1_555
Na3 O49 2.504665 1_555
Na3 O69 2.505680 1_555
Na3 O35 2.676263 1_555
Na3 O14 2.686242 1_555
Na3 O6 2.916812 1_555
Na3 O4 2.923339 1_555
Na4 O69 2.485593 1_555
Na4 O48 2.500900 1_455
Na4 O50 2.504657 1_455
Na4 O70 2.505680 1_555
Na4 O33 2.676262 1_555
Na4 O12 2.686239 1_455
Na4 O7 2.916812 1_555
Na4 O5 2.923339 1_455
Na5 O70 2.485594 1_555
Na5 O49 2.500898 1_565
Na5 O48 2.504665 1_565
Na5 O71 2.505672 1_555
Na5 O34 2.676260 1_555
Na5 O13 2.686241 1_565
Na5 O8 2.916812 1_555
Na5 O3 2.923339 1_565
Na6 O43 2.439169 1_555
Na6 O65 2.487440 1_555
Na6 O64 2.487981 1_555
Na6 O42 2.526823 1_455
Na6 O7 2.541703 1_555
Na6 O28 2.701396 1_555
Na6 O14 2.907790 1_555
Na7 O44 2.439177 1_455
Na7 O63 2.487424 1_555
Na7 O65 2.487967 1_555
Na7 O43 2.526823 1_565
Na7 O8 2.541705 1_555
Na7 O29 2.701389 1_555
Na7 O12 2.907790 1_455
Na8 O42 2.439171 1_565
Na8 O64 2.487424 1_555
Na8 O63 2.487984 1_555
Na8 O44 2.526816 1_555
Na8 O6 2.541701 1_555
Na8 O27 2.701393 1_555
Na8 O13 2.907790 1_565
Na9 O47 2.439177 1_565
Na9 O61 2.487424 1_555
Na9 O62 2.487967 1_555
Na9 O45 2.526824 1_455
Na9 O11 2.541705 1_555
Na9 O26 2.701389 1_554
Na9 O16 2.907790 1_565
Na10 O45 2.439169 1_555
Na10 O62 2.487440 1_555
Na10 O60 2.487981 1_555
Na10 O46 2.526823 1_565
Na10 O9 2.541703 1_555
Na10 O24 2.701396 1_554
Na10 O17 2.907790 1_555
Na11 O46 2.439170 1_455
Na11 O60 2.487424 1_555
Na11 O61 2.487984 1_555
Na11 O47 2.526816 1_555
Na11 O10 2.541701 1_555
Na11 O25 2.701393 1_554
Na11 O15 2.907790 1_455
Na12 O41 2.438378 1_555
Na12 O40 2.449318 1_655
Na12 O4 2.455138 1_555
Na12 O55 2.598778 1_555
Na12 O54 2.611497 1_555
Na12 O33 2.775504 1_655
Na12 O19 2.940320 1_556
Na12 O26 2.958819 1_655
Na13 O39 2.438386 1_655
Na13 O41 2.449325 1_545
Na13 O5 2.455142 1_555
Na13 O56 2.598762 1_555
Na13 O55 2.611496 1_555
Na13 O34 2.775504 1_545
Na13 O20 2.940315 1_556
Na13 O24 2.958819 1_545
Na14 O40 2.438386 1_545
Na14 O39 2.449316 1_555
Na14 O3 2.455140 1_555
Na14 O54 2.598776 1_555
Na14 O56 2.611512 1_555
Na14 O35 2.775504 1_555
Na14 O18 2.940323 1_556
Na14 O25 2.958819 1_555
Na15 O37 2.438386 1_545
Na15 O38 2.449325 1_655
Na15 O2 2.455142 1_555
Na15 O59 2.598762 1_555
Na15 O57 2.611497 1_555
Na15 O30 2.775504 1_655
Na15 O23 2.940315 1_555
Na15 O28 2.958819 1_655
Na16 O38 2.438378 1_555
Na16 O36 2.449318 1_545
Na16 O0 2.455138 1_555
Na16 O57 2.598778 1_555
Na16 O58 2.611497 1_555
Na16 O31 2.775504 1_545
Na16 O21 2.940320 1_555
Na16 O29 2.958819 1_545
Na17 O36 2.438386 1_655
Na17 O37 2.449316 1_555
Na17 O1 2.455140 1_555
Na17 O58 2.598776 1_555
Na17 O59 2.611512 1_555
Na17 O32 2.775504 1_555
Na17 O22 2.940323 1_555
Na17 O27 2.958819 1_555
Na18 O44 2.508016 1_445
Na18 O42 2.508016 1_455
Na18 O43 2.508016 1_555
Na18 O38 2.543179 1_555
Na18 O36 2.543179 1_545
Na18 O37 2.543179 1_445
Na19 O45 2.508016 1_446
Na19 O47 2.508016 1_556
Na19 O46 2.508016 1_456
Na19 O39 2.543179 1_555
Na19 O41 2.543179 1_445
Na19 O40 2.543179 1_545
Na20 O48 2.387755 1_555
Na20 O50 2.387756 1_555
Na20 O49 2.387756 1_555
Na20 O56 2.750786 1_555
Na20 O54 2.750786 1_555
Na20 O55 2.750786 1_555
Na21 O52 2.387756 1_555
Na21 O53 2.387756 1_555
Na21 O51 2.387756 1_555
Na21 O57 2.750786 1_555
Na21 O59 2.750786 1_555
Na21 O58 2.750786 1_555
Na22 O68 2.472535 1_555
Na22 O66 2.472535 1_555
Na22 O67 2.472535 1_555
Na22 O60 2.655127 1_555
Na22 O62 2.655127 1_555
Na22 O61 2.655127 1_555
Na23 O69 2.472535 1_555
Na23 O71 2.472535 1_555
Na23 O70 2.472535 1_555
Na23 O64 2.655127 1_555
Na23 O65 2.655127 1_555
Na23 O63 2.655127 1_555
Mg0 O2 2.011524 1_455
Mg0 O1 2.011524 1_445
Mg0 O0 2.011524 1_555
Mg0 O38 2.206172 1_555
Mg0 O36 2.206172 1_545
Mg0 O37 2.206172 1_445
Mg1 O5 2.011524 1_455
Mg1 O3 2.011524 1_555
Mg1 O4 2.011524 1_445
Mg1 O39 2.206172 1_555
Mg1 O41 2.206172 1_445
Mg1 O40 2.206172 1_545
Mg2 O7 2.015007 1_555
Mg2 O8 2.015007 1_545
Mg2 O6 2.015007 1_445
Mg2 O44 2.248790 1_445
Mg2 O42 2.248790 1_455
Mg2 O43 2.248791 1_555
Mg3 O10 2.015007 1_555
Mg3 O9 2.015007 1_445
Mg3 O11 2.015007 1_545
Mg3 O45 2.248790 1_445
Mg3 O47 2.248790 1_555
Mg3 O46 2.248791 1_455
Mg4 O13 2.045963 1_555
Mg4 O14 2.045963 1_555
Mg4 O12 2.045963 1_555
Mg4 O48 2.097849 1_555
Mg4 O50 2.097849 1_555
Mg4 O49 2.097849 1_555
Mg5 O16 2.045963 1_555
Mg5 O15 2.045963 1_555
Mg5 O17 2.045963 1_555
Mg5 O52 2.097849 1_555
Mg5 O53 2.097849 1_555
Mg5 O51 2.097849 1_555
Mg6 O25 2.033528 1_554
Mg6 O26 2.033528 1_554
Mg6 O24 2.033528 1_554
Mg6 O60 2.123346 1_555
Mg6 O62 2.123346 1_555
Mg6 O61 2.123346 1_555
Mg7 O28 2.033528 1_555
Mg7 O27 2.033528 1_555
Mg7 O29 2.033528 1_555
Mg7 O64 2.123346 1_555
Mg7 O65 2.123346 1_555
Mg7 O63 2.123346 1_555
Mg8 O31 2.098672 1_555
Mg8 O32 2.098672 1_555
Mg8 O30 2.098672 1_555
Mg8 O68 2.099987 1_555
Mg8 O66 2.099987 1_555
Mg8 O67 2.099987 1_555
Mg9 O34 2.098672 1_555
Mg9 O33 2.098672 1_555
Mg9 O35 2.098672 1_555
Mg9 O69 2.099987 1_555
Mg9 O71 2.099987 1_555
Mg9 O70 2.099987 1_555
Nb0 O19 1.964660 1_556
Nb0 O18 1.964660 1_556
Nb0 O20 1.964660 1_556
Nb0 O56 2.035270 1_555
Nb0 O54 2.035270 1_555
Nb0 O55 2.035270 1_555
Nb1 O22 1.964660 1_555
Nb1 O21 1.964660 1_555
Nb1 O23 1.964660 1_555
Nb1 O57 2.035270 1_555
Nb1 O59 2.035270 1_555
Nb1 O58 2.035270 1_555
O0 P0 1.545839 1_545
O1 P1 1.545839 1_555
O2 P2 1.545839 1_655
O3 P3 1.545839 1_555
O4 P4 1.545839 1_655
O5 P5 1.545839 1_545
O6 P5 1.547853 1_555
O7 P3 1.547853 1_555
O8 P4 1.547853 1_555
O9 P1 1.547853 1_555
O10 P2 1.547853 1_555
O11 P0 1.547853 1_555
O12 P6 1.512618 1_555
O13 P7 1.512618 1_555
O14 P8 1.512618 1_555
O15 P9 1.512618 1_555
O16 P10 1.512618 1_555
O17 P11 1.512618 1_555
O18 P11 1.626629 1_555
O19 P9 1.626629 1_555
O20 P10 1.626629 1_555
O21 P7 1.626629 1_555
O22 P8 1.626629 1_555
O23 P6 1.626629 1_555
O24 P12 1.527505 1_555
O25 P13 1.527505 1_555
O26 P14 1.527505 1_555
O27 P15 1.527505 1_555
O28 P16 1.527505 1_555
O29 P17 1.527505 1_555
O30 P17 1.528968 1_555
O31 P15 1.528968 1_555
O32 P16 1.528968 1_555
O33 P13 1.528968 1_555
O34 P14 1.528968 1_555
O35 P12 1.528968 1_555
O36 P17 1.545892 1_555
O37 P15 1.545901 1_555
O38 P16 1.545898 1_555
O39 P13 1.545901 1_555
O40 P14 1.545892 1_555
O41 P12 1.545898 1_555
O42 P6 1.541872 1_555
O43 P7 1.541881 1_555
O44 P8 1.541877 1_555
O45 P9 1.541881 1_555
O46 P10 1.541872 1_555
O47 P11 1.541877 1_555
O48 P5 1.557835 1_545
O49 P3 1.557844 1_555
O50 P4 1.557840 1_655
O51 P1 1.557844 1_555
O52 P2 1.557835 1_655
O53 P0 1.557840 1_545
O54 P12 1.622469 1_555
O55 P13 1.622451 1_655
O56 P14 1.622459 1_545
O57 P15 1.622451 1_545
O58 P16 1.622469 1_555
O59 P17 1.622459 1_655
O60 P11 1.538204 1_555
O61 P9 1.538186 1_455
O62 P10 1.538193 1_565
O63 P7 1.538186 1_565
O64 P8 1.538204 1_555
O65 P6 1.538193 1_455
O66 P0 1.556961 1_555
O67 P1 1.556970 1_555
O68 P2 1.556967 1_555
O69 P3 1.556970 1_555
O70 P4 1.556962 1_555
O71 P5 1.556967 1_555
