# generated using pymatgen
data_P4SeO6
_symmetry_space_group_name_H-M   'P 1'
_cell_length_a   6.75631000
_cell_length_b   10.98709200
_cell_length_c   12.37808375
_cell_angle_alpha   70.15596470
_cell_angle_beta   90.00000000
_cell_angle_gamma   90.00000000
_symmetry_Int_Tables_number   1
_chemical_formula_structural   P4SeO6
_chemical_formula_sum   'P16 Se4 O24'
_cell_volume   864.29106678
_cell_formula_units_Z   4
loop_
 _symmetry_equiv_pos_site_id
 _symmetry_equiv_pos_as_xyz
  1  'x, y, z'
loop_
 _atom_site_type_symbol
 _atom_site_label
 _atom_site_symmetry_multiplicity
 _atom_site_fract_x
 _atom_site_fract_y
 _atom_site_fract_z
 _atom_site_occupancy
  P  P0  1  0.46354000  0.66538100  0.21051600  1
  P  P1  1  0.96354000  0.33461900  0.28948400  1
  P  P2  1  0.53646000  0.33461900  0.78948400  1
  P  P3  1  0.03646000  0.66538100  0.71051600  1
  P  P4  1  0.24358200  0.56983800  0.04772500  1
  P  P5  1  0.74358200  0.43016200  0.45227500  1
  P  P6  1  0.75641800  0.43016200  0.95227500  1
  P  P7  1  0.25641800  0.56983800  0.54772500  1
  P  P8  1  0.13559500  0.82248500  0.07143400  1
  P  P9  1  0.63559500  0.17751500  0.42856600  1
  P  P10  1  0.86440500  0.17751500  0.92856600  1
  P  P11  1  0.36440500  0.82248500  0.57143400  1
  P  P12  1  0.51006100  0.79281100  0.96266700  1
  P  P13  1  0.01006100  0.20718900  0.53733300  1
  P  P14  1  0.48993900  0.20718900  0.03733300  1
  P  P15  1  0.98993900  0.79281100  0.46266700  1
  Se  Se0  1  0.70648600  0.88731300  0.83476200  1
  Se  Se1  1  0.20648600  0.11268700  0.66523800  1
  Se  Se2  1  0.29351400  0.11268700  0.16523800  1
  Se  Se3  1  0.79351400  0.88731300  0.33476200  1
  O  O0  1  0.08543900  0.68373000  0.04972700  1
  O  O1  1  0.58543900  0.31627000  0.45027300  1
  O  O2  1  0.91456100  0.31627000  0.95027300  1
  O  O3  1  0.41456100  0.68373000  0.54972700  1
  O  O4  1  0.27404500  0.76560000  0.18947800  1
  O  O5  1  0.77404500  0.23440000  0.31052200  1
  O  O6  1  0.72595500  0.23440000  0.81052200  1
  O  O7  1  0.22595500  0.76560000  0.68947800  1
  O  O8  1  0.36688800  0.54882900  0.16913800  1
  O  O9  1  0.86688800  0.45117100  0.33086200  1
  O  O10  1  0.63311200  0.45117100  0.83086200  1
  O  O11  1  0.13311200  0.54882900  0.66913800  1
  O  O12  1  0.41240800  0.66151800  0.95341600  1
  O  O13  1  0.91240800  0.33848200  0.54658400  1
  O  O14  1  0.58759200  0.33848200  0.04658400  1
  O  O15  1  0.08759200  0.66151800  0.45341600  1
  O  O16  1  0.59860400  0.74343500  0.09243400  1
  O  O17  1  0.09860400  0.25656500  0.40756600  1
  O  O18  1  0.40139600  0.25656500  0.90756600  1
  O  O19  1  0.90139600  0.74343500  0.59243400  1
  O  O20  1  0.18146300  0.87670400  0.47290800  1
  O  O21  1  0.68146300  0.12329600  0.02709200  1
  O  O22  1  0.81853700  0.12329600  0.52709200  1
  O  O23  1  0.31853700  0.87670400  0.97290800  1
loop_
_geom_bond_atom_site_label_1
_geom_bond_atom_site_label_2
_geom_bond_distance
_geom_bond_site_symmetry_2
P12 Se0 2.056652 1_555
P13 Se1 2.056652 1_555
P14 Se2 2.056652 1_555
P15 Se3 2.056652 1_555
O0 P4 1.652010 1_555
O0 P8 1.670111 1_555
O1 P5 1.652010 1_555
O1 P9 1.670111 1_555
O2 P6 1.652010 1_555
O2 P10 1.670111 1_555
O3 P7 1.652010 1_555
O3 P11 1.670111 1_555
O4 P0 1.650675 1_555
O4 P8 1.667512 1_555
O5 P1 1.650675 1_555
O5 P9 1.667512 1_555
O6 P2 1.650675 1_555
O6 P10 1.667512 1_555
O7 P3 1.650675 1_555
O7 P11 1.667512 1_555
O8 P4 1.664451 1_555
O8 P0 1.665502 1_555
O9 P5 1.664451 1_555
O9 P1 1.665502 1_555
O10 P6 1.664451 1_555
O10 P2 1.665502 1_555
O11 P7 1.664451 1_555
O11 P3 1.665502 1_555
O12 P12 1.625253 1_555
O12 P4 1.697090 1_556
O13 P13 1.625253 1_655
O13 P5 1.697090 1_555
O14 P14 1.625253 1_555
O14 P6 1.697090 1_554
O15 P15 1.625253 1_455
O15 P7 1.697090 1_555
O16 P12 1.625010 1_554
O16 P0 1.689237 1_555
O17 P13 1.625010 1_555
O17 P1 1.689237 1_455
O18 P14 1.625010 1_556
O18 P2 1.689237 1_555
O19 P15 1.625010 1_555
O19 P3 1.689237 1_655
O20 P15 1.618464 1_455
O20 P11 1.696081 1_555
O21 P14 1.618464 1_555
O21 P10 1.696081 1_554
O22 P13 1.618464 1_655
O22 P9 1.696081 1_555
O23 P12 1.618464 1_555
O23 P8 1.696081 1_556
