# generated using pymatgen
data_Na6ScNb3(SiO4)6
_symmetry_space_group_name_H-M   'P 1'
_cell_length_a   15.83157985
_cell_length_b   9.08549431
_cell_length_c   9.09755083
_cell_angle_alpha   90.65102981
_cell_angle_beta   125.02520761
_cell_angle_gamma   89.53145830
_symmetry_Int_Tables_number   1
_chemical_formula_structural   Na6ScNb3(SiO4)6
_chemical_formula_sum   'Na12 Sc2 Nb6 Si12 O48'
_cell_volume   1071.51696208
_cell_formula_units_Z   2
loop_
 _symmetry_equiv_pos_site_id
 _symmetry_equiv_pos_as_xyz
  1  'x, y, z'
loop_
 _atom_site_type_symbol
 _atom_site_label
 _atom_site_symmetry_multiplicity
 _atom_site_fract_x
 _atom_site_fract_y
 _atom_site_fract_z
 _atom_site_occupancy
  Na  Na0  1  0.25035229  0.75024936  0.99917828  1
  Na  Na1  1  0.74584032  0.74856224  0.48702088  1
  Na  Na2  1  0.75035229  0.25024936  0.99917828  1
  Na  Na3  1  0.24584032  0.24856224  0.48702088  1
  Na  Na4  1  0.50377496  0.08403236  0.76075201  1
  Na  Na5  1  0.50150238  0.89531981  0.23747313  1
  Na  Na6  1  0.00377496  0.58403236  0.76075201  1
  Na  Na7  1  0.00150238  0.39531981  0.23747313  1
  Na  Na8  1  0.80718359  0.92441385  0.20539122  1
  Na  Na9  1  0.18305086  0.07838789  0.80412304  1
  Na  Na10  1  0.30718359  0.42441385  0.20539122  1
  Na  Na11  1  0.68305086  0.57838789  0.80412304  1
  Sc  Sc0  1  0.10455169  0.24549976  0.06826120  1
  Sc  Sc1  1  0.60455169  0.74549976  0.06826120  1
  Nb  Nb0  1  0.10579347  0.75128970  0.56323832  1
  Nb  Nb1  1  0.89488588  0.75333769  0.92933488  1
  Nb  Nb2  1  0.89319910  0.24923476  0.43581615  1
  Nb  Nb3  1  0.60579347  0.25128970  0.56323832  1
  Nb  Nb4  1  0.39488588  0.25333769  0.92933488  1
  Nb  Nb5  1  0.39319910  0.74923476  0.43581615  1
  Si  Si0  1  0.99716409  0.95921790  0.74828011  1
  Si  Si1  1  0.00204163  0.04310266  0.25386637  1
  Si  Si2  1  0.49716409  0.45921790  0.74828011  1
  Si  Si3  1  0.50204163  0.54310266  0.25386637  1
  Si  Si4  1  0.35495770  0.89257111  0.76010228  1
  Si  Si5  1  0.64741055  0.89612515  0.74952331  1
  Si  Si6  1  0.64688343  0.11106501  0.24522025  1
  Si  Si7  1  0.35519462  0.10203329  0.25208157  1
  Si  Si8  1  0.85495770  0.39257111  0.76010228  1
  Si  Si9  1  0.14741055  0.39612515  0.74952331  1
  Si  Si10  1  0.14688343  0.61106501  0.24522025  1
  Si  Si11  1  0.85519462  0.60203329  0.25208157  1
  O  O0  1  0.15074680  0.57502232  0.73213163  1
  O  O1  1  0.84845900  0.57510312  0.75615723  1
  O  O2  1  0.85542032  0.42132909  0.25962030  1
  O  O3  1  0.15576064  0.43413425  0.25034680  1
  O  O4  1  0.65074680  0.07502232  0.73213163  1
  O  O5  1  0.34845900  0.07510312  0.75615723  1
  O  O6  1  0.35542032  0.92132909  0.25962030  1
  O  O7  1  0.65576064  0.93413425  0.25034680  1
  O  O8  1  0.42906149  0.56357535  0.56687034  1
  O  O9  1  0.57253494  0.56313146  0.91761480  1
  O  O10  1  0.56114391  0.43465737  0.42931432  1
  O  O11  1  0.43447168  0.42723627  0.08002339  1
  O  O12  1  0.92906149  0.06357535  0.56687034  1
  O  O13  1  0.07253494  0.06313146  0.91761480  1
  O  O14  1  0.06114391  0.93465737  0.42931432  1
  O  O15  1  0.93447168  0.92723627  0.08002339  1
  O  O16  1  0.25117774  0.83341704  0.73971421  1
  O  O17  1  0.74287000  0.81264206  0.75858395  1
  O  O18  1  0.74413046  0.18519410  0.25521908  1
  O  O19  1  0.26491962  0.18665599  0.24943709  1
  O  O20  1  0.75117774  0.33341704  0.73971421  1
  O  O21  1  0.24287000  0.31264206  0.75858395  1
  O  O22  1  0.24413046  0.68519410  0.25521908  1
  O  O23  1  0.76491962  0.68665599  0.24943709  1
  O  O24  1  0.36063019  0.85037168  0.58610714  1
  O  O25  1  0.65048373  0.86713617  0.92720598  1
  O  O26  1  0.64329024  0.16275480  0.41584021  1
  O  O27  1  0.35447969  0.14149818  0.07234851  1
  O  O28  1  0.86063019  0.35037168  0.58610714  1
  O  O29  1  0.15048373  0.36713617  0.92720598  1
  O  O30  1  0.14329024  0.66275480  0.41584021  1
  O  O31  1  0.85447969  0.64149818  0.07234851  1
  O  O32  1  0.45854831  0.83680138  0.94115999  1
  O  O33  1  0.53833078  0.82568845  0.57279862  1
  O  O34  1  0.53658463  0.17011749  0.06374811  1
  O  O35  1  0.46734665  0.16061794  0.42680029  1
  O  O36  1  0.95854831  0.33680138  0.94115999  1
  O  O37  1  0.03833078  0.32568845  0.57279862  1
  O  O38  1  0.03658463  0.67011749  0.06374811  1
  O  O39  1  0.96734665  0.66061794  0.42680029  1
  O  O40  1  0.07485169  0.84814701  0.73214792  1
  O  O41  1  0.91788573  0.85066135  0.75764950  1
  O  O42  1  0.91283560  0.13667476  0.25611340  1
  O  O43  1  0.08024960  0.15298980  0.25338418  1
  O  O44  1  0.57485169  0.34814701  0.73214792  1
  O  O45  1  0.41788573  0.35066135  0.75764950  1
  O  O46  1  0.41283560  0.63667476  0.25611340  1
  O  O47  1  0.58024960  0.65298980  0.25338418  1
loop_
_geom_bond_atom_site_label_1
_geom_bond_atom_site_label_2
_geom_bond_distance
_geom_bond_site_symmetry_2
Na0 O22 2.465869 1_556
Na0 O16 2.493820 1_555
Na0 O6 2.496281 1_556
Na0 O46 2.501013 1_556
Na0 O0 2.545410 1_555
Na0 O40 2.583281 1_555
Na1 O47 2.396568 1_555
Na1 O23 2.407982 1_555
Na1 O7 2.455804 1_555
Na1 O17 2.558329 1_555
Na1 O1 2.568628 1_555
Na1 O41 2.575417 1_555
Na2 O18 2.465869 1_556
Na2 O20 2.493820 1_555
Na2 O2 2.496281 1_556
Na2 O42 2.501013 1_556
Na2 O4 2.545410 1_555
Na2 O44 2.583281 1_555
Na3 O43 2.396568 1_555
Na3 O19 2.407982 1_555
Na3 O3 2.455804 1_555
Na3 O21 2.558329 1_555
Na3 O5 2.568628 1_555
Na3 O45 2.575417 1_555
Na4 O5 2.437151 1_555
Na4 O4 2.486022 1_555
Na4 O34 2.606540 1_556
Na4 O44 2.736153 1_555
Na4 O25 2.743489 1_545
Na4 O45 2.760737 1_555
Na4 O24 2.834760 1_545
Na4 O35 2.842060 1_555
Na5 O7 2.405621 1_555
Na5 O32 2.425104 1_554
Na5 O6 2.443343 1_555
Na5 O47 2.485524 1_555
Na5 O46 2.803141 1_555
Na5 O33 2.835967 1_555
Na5 O27 2.941870 1_565
Na6 O1 2.437151 1_455
Na6 O0 2.486022 1_555
Na6 O38 2.606540 1_556
Na6 O40 2.736153 1_555
Na6 O29 2.743489 1_555
Na6 O41 2.760737 1_455
Na6 O28 2.834760 1_455
Na6 O39 2.842060 1_455
Na7 O3 2.405621 1_555
Na7 O36 2.425104 1_454
Na7 O2 2.443343 1_455
Na7 O43 2.485524 1_555
Na7 O42 2.803141 1_455
Na7 O37 2.835967 1_555
Na7 O31 2.941870 1_455
Na8 O25 2.369497 1_554
Na8 O23 2.371831 1_555
Na8 O42 2.424110 1_565
Na8 O7 2.653882 1_555
Na8 O18 2.696656 1_565
Na8 O15 2.828811 1_555
Na8 O12 2.966156 1_565
Na9 O27 2.457791 1_556
Na9 O21 2.470142 1_555
Na9 O13 2.495468 1_555
Na9 O40 2.545353 1_545
Na9 O16 2.667741 1_545
Na9 O5 2.891171 1_555
Na10 O29 2.369497 1_554
Na10 O19 2.371831 1_555
Na10 O46 2.424110 1_555
Na10 O3 2.653882 1_555
Na10 O22 2.696656 1_555
Na10 O11 2.828811 1_555
Na10 O8 2.966156 1_555
Na11 O31 2.457791 1_556
Na11 O17 2.470142 1_555
Na11 O9 2.495468 1_555
Na11 O44 2.545353 1_555
Na11 O20 2.667741 1_555
Na11 O1 2.891171 1_555
Nb0 O30 1.918083 1_555
Nb0 O14 1.948820 1_555
Nb0 O39 1.976575 1_455
Nb0 O16 2.047230 1_555
Nb0 O40 2.049870 1_555
Nb0 O0 2.052843 1_555
Nb1 O15 1.936273 1_556
Nb1 O38 1.985923 1_656
Nb1 O41 2.010851 1_555
Nb1 O31 2.032371 1_556
Nb1 O17 2.049839 1_555
Nb1 O1 2.068080 1_555
Nb2 O28 1.937162 1_555
Nb2 O12 1.960153 1_555
Nb2 O37 2.008591 1_655
Nb2 O18 2.038980 1_555
Nb2 O2 2.076793 1_555
Nb2 O42 2.086968 1_555
Nb3 O26 1.918083 1_555
Nb3 O10 1.948820 1_555
Nb3 O35 1.976575 1_555
Nb3 O20 2.047230 1_555
Nb3 O44 2.049870 1_555
Nb3 O4 2.052843 1_555
Nb4 O11 1.936273 1_556
Nb4 O34 1.985923 1_556
Nb4 O45 2.010851 1_555
Nb4 O27 2.032371 1_556
Nb4 O21 2.049839 1_555
Nb4 O5 2.068080 1_555
Nb5 O24 1.937162 1_555
Nb5 O8 1.960153 1_555
Nb5 O33 2.008591 1_555
Nb5 O22 2.038980 1_555
Nb5 O6 2.076793 1_555
Nb5 O46 2.086968 1_555
O0 Si9 1.639052 1_555
O1 Si8 1.660261 1_555
O2 Si11 1.643886 1_555
O3 Si10 1.611359 1_555
O3 Sc0 2.180651 1_555
O4 Si5 1.639052 1_545
O5 Si4 1.660261 1_545
O6 Si7 1.643886 1_565
O7 Si6 1.611359 1_565
O7 Sc1 2.180651 1_555
O8 Si2 1.661779 1_555
O9 Si2 1.601162 1_555
O9 Sc1 2.011292 1_556
O10 Si3 1.643255 1_555
O11 Si3 1.671040 1_555
O12 Si0 1.661779 1_545
O13 Si0 1.601162 1_445
O13 Sc0 2.011292 1_556
O14 Si1 1.643255 1_565
O15 Si1 1.671040 1_665
O16 Si4 1.638617 1_555
O17 Si5 1.644908 1_555
O18 Si6 1.639199 1_555
O19 Si7 1.605389 1_555
O19 Sc0 2.154708 1_555
O20 Si8 1.638617 1_555
O21 Si9 1.644908 1_555
O22 Si10 1.639199 1_555
O23 Si11 1.605389 1_555
O23 Sc1 2.154708 1_555
O24 Si4 1.676171 1_555
O25 Si5 1.613667 1_555
O25 Sc1 2.124466 1_556
O26 Si6 1.648496 1_555
O27 Si7 1.671633 1_555
O28 Si8 1.676171 1_555
O29 Si9 1.613667 1_555
O29 Sc0 2.124466 1_556
O30 Si10 1.648496 1_555
O31 Si11 1.671633 1_555
O32 Si4 1.601277 1_555
O32 Sc1 2.071343 1_556
O33 Si5 1.668627 1_555
O34 Si6 1.660822 1_555
O35 Si7 1.648958 1_555
O36 Si8 1.601277 1_555
O36 Sc0 2.071343 1_656
O37 Si9 1.668627 1_555
O38 Si10 1.660822 1_555
O39 Si11 1.648958 1_555
O40 Si0 1.654123 1_455
O41 Si0 1.643251 1_555
O42 Si1 1.652511 1_655
O43 Si1 1.598862 1_555
O43 Sc0 2.114738 1_555
O44 Si2 1.654123 1_555
O45 Si2 1.643251 1_555
O46 Si3 1.652511 1_555
O47 Si3 1.598862 1_555
O47 Sc1 2.114738 1_555
