# generated using pymatgen
data_DyInPt
_symmetry_space_group_name_H-M   'P 1'
_cell_length_a   7.62603770
_cell_length_b   7.62603845
_cell_length_c   3.85326739
_cell_angle_alpha   90.00000000
_cell_angle_beta   90.00000000
_cell_angle_gamma   120.00000876
_symmetry_Int_Tables_number   1
_chemical_formula_structural   DyInPt
_chemical_formula_sum   'Dy3 In3 Pt3'
_cell_volume   194.06967519
_cell_formula_units_Z   3
loop_
 _symmetry_equiv_pos_site_id
 _symmetry_equiv_pos_as_xyz
  1  'x, y, z'
loop_
 _atom_site_type_symbol
 _atom_site_label
 _atom_site_symmetry_multiplicity
 _atom_site_fract_x
 _atom_site_fract_y
 _atom_site_fract_z
 _atom_site_occupancy
  Dy  Dy0  1  0.59379225  0.00000000  0.50000000  1
  Dy  Dy1  1  0.40620775  0.40620775  0.50000000  1
  Dy  Dy2  1  0.00000000  0.59379225  0.50000000  1
  In  In0  1  0.73944959  0.73944959  -0.00000000  1
  In  In1  1  0.00000000  0.26055041  0.00000000  1
  In  In2  1  0.26055041  0.00000000  0.00000000  1
  Pt  Pt0  1  0.33333300  0.66666700  -0.00000000  1
  Pt  Pt1  1  0.66666700  0.33333300  0.00000000  1
  Pt  Pt2  1  0.00000000  0.00000000  0.50000000  1
loop_
_geom_bond_atom_site_label_1
_geom_bond_atom_site_label_2
_geom_bond_distance
_geom_bond_site_symmetry_2
Dy0 Pt1 3.011623 1_555
Dy0 Pt1 3.011623 1_556
Dy0 Pt0 3.011625 1_546
Dy0 Pt0 3.011625 1_545
Dy0 Pt2 3.097756 1_655
Dy0 In2 3.189075 1_555
Dy0 In2 3.189075 1_556
Dy0 In1 3.331802 1_656
Dy0 In1 3.331802 1_655
Dy0 In0 3.331803 1_545
Dy0 In0 3.331803 1_546
Dy1 Pt1 3.011629 1_555
Dy1 Pt1 3.011629 1_556
Dy1 Pt0 3.011629 1_556
Dy1 Pt0 3.011629 1_555
Dy1 Pt2 3.097755 1_555
Dy1 In0 3.189075 1_555
Dy1 In0 3.189075 1_556
Dy1 In1 3.331802 1_555
Dy1 In1 3.331802 1_556
Dy1 In2 3.331802 1_556
Dy1 In2 3.331802 1_555
Dy2 Pt0 3.011623 1_555
Dy2 Pt0 3.011623 1_556
Dy2 Pt1 3.011625 1_455
Dy2 Pt1 3.011625 1_456
Dy2 Pt2 3.097756 1_565
Dy2 In1 3.189075 1_555
Dy2 In1 3.189075 1_556
Dy2 In2 3.331802 1_566
Dy2 In2 3.331802 1_565
Dy2 In0 3.331803 1_455
Dy2 In0 3.331803 1_456
In0 Pt2 2.767662 1_665
In0 Pt2 2.767662 1_664
In0 Pt0 2.860219 1_555
In0 Pt1 2.860220 1_555
In1 Pt2 2.767663 1_555
In1 Pt2 2.767663 1_554
In1 Pt1 2.860212 1_455
In1 Pt0 2.860217 1_555
In2 Pt2 2.767663 1_555
In2 Pt2 2.767663 1_554
In2 Pt0 2.860212 1_545
In2 Pt1 2.860216 1_555
