# generated using pymatgen
data_MgFe6O11F
_symmetry_space_group_name_H-M   'P 1'
_cell_length_a   4.79150020
_cell_length_b   4.85316660
_cell_length_c   8.85855025
_cell_angle_alpha   89.94185580
_cell_angle_beta   90.07199713
_cell_angle_gamma   91.65435880
_symmetry_Int_Tables_number   1
_chemical_formula_structural   MgFe6O11F
_chemical_formula_sum   'Mg1 Fe6 O11 F1'
_cell_volume   205.91014781
_cell_formula_units_Z   1
loop_
 _symmetry_equiv_pos_site_id
 _symmetry_equiv_pos_as_xyz
  1  'x, y, z'
loop_
 _atom_site_type_symbol
 _atom_site_label
 _atom_site_symmetry_multiplicity
 _atom_site_fract_x
 _atom_site_fract_y
 _atom_site_fract_z
 _atom_site_occupancy
  Mg  Mg0  1  0.50870400  0.02233200  0.82900200  1
  Fe  Fe0  1  0.00787800  0.98112400  0.01694300  1
  Fe  Fe1  1  0.00615600  0.99443000  0.32890400  1
  Fe  Fe2  1  0.00609900  0.98408200  0.64125600  1
  Fe  Fe3  1  0.51159500  0.49115600  0.16580500  1
  Fe  Fe4  1  0.44524900  0.52783900  0.82890200  1
  Fe  Fe5  1  0.50734700  0.49595000  0.49210300  1
  O  O0  1  0.18791400  0.78864600  0.17035500  1
  O  O1  1  0.18546600  0.78941800  0.48890500  1
  O  O2  1  0.15370300  0.80749600  0.82845400  1
  O  O3  1  0.33922100  0.27931300  0.98522800  1
  O  O4  1  0.31810800  0.28818900  0.32942000  1
  O  O5  1  0.33808900  0.28076700  0.67236800  1
  O  O6  1  0.65188300  0.73191700  0.98258700  1
  O  O7  1  0.69855200  0.69745400  0.32896700  1
  O  O8  1  0.65090800  0.73324100  0.67508100  1
  O  O9  1  0.82560900  0.19348500  0.16506600  1
  O  O10  1  0.82475000  0.19410500  0.49262100  1
  F  F0  1  0.84665700  0.23294600  0.82803200  1
loop_
_geom_bond_atom_site_label_1
_geom_bond_atom_site_label_2
_geom_bond_distance
_geom_bond_site_symmetry_2
Mg0 O2 1.969278 1_545
Mg0 O3 2.048168 1_555
Mg0 O5 2.054145 1_555
Mg0 O8 2.086453 1_545
Mg0 O6 2.087538 1_545
Fe0 O0 1.872072 1_555
Fe0 O9 1.898488 1_465
Fe0 O2 2.006508 1_554
Fe0 O6 2.084535 1_454
Fe0 O3 2.135746 1_564
Fe1 O1 1.944350 1_555
Fe1 O0 1.945422 1_555
Fe1 O9 1.957128 1_465
Fe1 O10 1.962805 1_465
Fe1 O7 2.031490 1_455
Fe1 O4 2.035600 1_565
Fe2 O1 1.872161 1_555
Fe2 O10 1.890287 1_465
Fe2 O2 2.003442 1_555
Fe2 O8 2.085462 1_455
Fe2 O5 2.132378 1_565
Fe3 O7 1.960072 1_555
Fe3 O4 1.969334 1_555
Fe3 O3 2.061320 1_554
Fe3 O6 2.098796 1_554
Fe3 O9 2.115753 1_555
Fe3 O0 2.149652 1_555
Fe4 O5 1.894811 1_555
Fe4 O3 1.895678 1_555
Fe4 O6 1.938407 1_555
Fe4 O8 1.940468 1_555
Fe4 O2 1.975592 1_555
Fe5 O7 1.957774 1_555
Fe5 O4 1.965347 1_555
Fe5 O5 2.061392 1_555
Fe5 O8 2.093325 1_555
Fe5 O1 2.129459 1_555
Fe5 O10 2.141849 1_555
F0 Mg0 1.889826 1_555
F0 Fe2 2.200106 1_645
F0 Fe0 2.222159 1_646
F0 Fe4 2.430340 1_555
