# generated using pymatgen
data_MgV4O7F5
_symmetry_space_group_name_H-M   'P 1'
_cell_length_a   5.16810027
_cell_length_b   5.27099500
_cell_length_c   9.25178919
_cell_angle_alpha   74.88092091
_cell_angle_beta   90.57185140
_cell_angle_gamma   60.58851028
_symmetry_Int_Tables_number   1
_chemical_formula_structural   MgV4O7F5
_chemical_formula_sum   'Mg1 V4 O7 F5'
_cell_volume   209.07039039
_cell_formula_units_Z   1
loop_
 _symmetry_equiv_pos_site_id
 _symmetry_equiv_pos_as_xyz
  1  'x, y, z'
loop_
 _atom_site_type_symbol
 _atom_site_label
 _atom_site_symmetry_multiplicity
 _atom_site_fract_x
 _atom_site_fract_y
 _atom_site_fract_z
 _atom_site_occupancy
  Mg  Mg0  1  0.06585700  0.76984100  0.36420500  1
  V  V0  1  0.69541700  0.50470800  0.24919100  1
  V  V1  1  0.45420800  0.02610800  0.48215600  1
  V  V2  1  0.28830200  0.51692100  0.74995500  1
  V  V3  1  0.99203000  0.99624000  0.97992600  1
  O  O0  1  0.46744900  0.74501300  0.38294700  1
  O  O1  1  0.39729800  0.72028000  0.09911100  1
  O  O2  1  0.37618000  0.77993400  0.65855200  1
  O  O3  1  0.68215100  0.16067300  0.35156900  1
  O  O4  1  0.62185100  0.27945000  0.91419400  1
  O  O5  1  0.03560100  0.76017100  0.87746700  1
  O  O6  1  0.10187000  0.34245000  0.39685800  1
  F  F0  1  0.93296600  0.69501200  0.58327000  1
  F  F1  1  0.87455900  0.79315000  0.16074200  1
  F  F2  1  0.98475300  0.22677300  0.13700600  1
  F  F3  1  0.49995100  0.22779700  0.63518100  1
  F  F4  1  0.14206000  0.21797700  0.84910000  1
loop_
_geom_bond_atom_site_label_1
_geom_bond_atom_site_label_2
_geom_bond_distance
_geom_bond_site_symmetry_2
Mg0 O3 2.011821 1_465
Mg0 O0 2.017169 1_555
Mg0 O6 2.105460 1_555
O0 V1 1.911421 1_565
O0 V0 1.976082 1_555
O1 V0 1.734273 1_555
O1 V3 1.960480 1_454
O2 V2 1.690506 1_555
O2 V1 1.982948 1_565
O3 V0 1.848702 1_555
O3 V1 1.937152 1_555
O4 V3 1.719469 1_545
O4 V2 1.919254 1_555
O5 V3 1.685815 1_455
O5 V2 1.979006 1_555
O6 V1 1.738292 1_555
O6 V0 2.139885 1_455
F0 V2 2.031497 1_655
F0 Mg0 2.147505 1_655
F0 V1 2.214490 1_565
F1 V3 2.009332 1_554
F1 Mg0 2.063697 1_655
F1 V0 2.141711 1_555
F2 V0 2.032749 1_555
F2 V3 2.113617 1_544
F3 V2 1.968916 1_555
F3 V1 2.053223 1_555
F4 V3 1.898178 1_445
F4 V2 2.079681 1_555
