# generated using pymatgen
data_Na18Ca4Ta20Si27(SO16)9
_symmetry_space_group_name_H-M   'P 1'
_cell_length_a   17.99393431
_cell_length_b   8.99835525
_cell_length_c   22.91241289
_cell_angle_alpha   90.07609999
_cell_angle_beta   90.09513453
_cell_angle_gamma   120.06341203
_symmetry_Int_Tables_number   1
_chemical_formula_structural   Na18Ca4Ta20Si27(SO16)9
_chemical_formula_sum   'Na18 Ca4 Ta20 Si27 S9 O144'
_cell_volume   3210.78268093
_cell_formula_units_Z   1
loop_
 _symmetry_equiv_pos_site_id
 _symmetry_equiv_pos_as_xyz
  1  'x, y, z'
loop_
 _atom_site_type_symbol
 _atom_site_label
 _atom_site_symmetry_multiplicity
 _atom_site_fract_x
 _atom_site_fract_y
 _atom_site_fract_z
 _atom_site_occupancy
  Na  Na0  1  0.31538773  0.01777756  0.24189590  1
  Na  Na1  1  0.81550750  0.01384721  0.25252664  1
  Na  Na2  1  0.99359821  0.61758708  0.24184663  1
  Na  Na3  1  0.31641842  0.61699208  0.75483348  1
  Na  Na4  1  0.81517421  0.61280209  0.74586045  1
  Na  Na5  1  0.49305547  0.36962731  0.74380118  1
  Na  Na6  1  0.99397704  0.99462416  0.49498492  1
  Na  Na7  1  0.50100050  0.00305719  0.49877352  1
  Na  Na8  1  0.00099203  0.99959342  0.00091419  1
  Na  Na9  1  0.49283609  0.98748492  0.99814004  1
  Na  Na10  1  0.32533025  0.32024241  0.82867930  1
  Na  Na11  1  0.83286057  0.33258539  0.82702858  1
  Na  Na12  1  0.33478818  0.33612741  0.32350691  1
  Na  Na13  1  0.82617088  0.33005507  0.32317489  1
  Na  Na14  1  0.16453122  0.66712086  0.15905446  1
  Na  Na15  1  0.65167658  0.65058835  0.16950200  1
  Na  Na16  1  0.16180564  0.66623112  0.67483760  1
  Na  Na17  1  0.66151612  0.65874052  0.66164938  1
  Ca  Ca0  1  0.33249903  0.32731001  0.68721637  1
  Ca  Ca1  1  0.83287212  0.33791770  0.68528220  1
  Ca  Ca2  1  0.33769729  0.33448732  0.18385519  1
  Ca  Ca3  1  0.83207343  0.33696976  0.18643990  1
  Ta  Ta0  1  0.99895697  0.00141285  0.35716599  1
  Ta  Ta1  1  0.50594608  0.01072652  0.35836881  1
  Ta  Ta2  1  0.00685226  0.00088325  0.86030700  1
  Ta  Ta3  1  0.49894580  0.99605703  0.85804181  1
  Ta  Ta4  1  0.00204995  0.99066250  0.64812215  1
  Ta  Ta5  1  0.50124452  0.01443543  0.65101849  1
  Ta  Ta6  1  0.00186542  0.98979390  0.15031462  1
  Ta  Ta7  1  0.50284923  0.00505596  0.14317414  1
  Ta  Ta8  1  0.34087808  0.33902554  0.97835749  1
  Ta  Ta9  1  0.83993662  0.34971571  0.97469506  1
  Ta  Ta10  1  0.34081879  0.33246989  0.47408936  1
  Ta  Ta11  1  0.83327541  0.34365278  0.47505057  1
  Ta  Ta12  1  0.16719032  0.67436036  0.01668817  1
  Ta  Ta13  1  0.66347698  0.66900216  0.01480133  1
  Ta  Ta14  1  0.16717153  0.66501180  0.51325141  1
  Ta  Ta15  1  0.66658820  0.65944567  0.51658537  1
  Ta  Ta16  1  0.16258922  0.65917902  0.31421844  1
  Ta  Ta17  1  0.66394914  0.66422966  0.31060515  1
  Ta  Ta18  1  0.16493077  0.66568356  0.81312588  1
  Ta  Ta19  1  0.66186674  0.66481534  0.81551463  1
  Si  Si0  1  0.14504914  0.00015682  0.25576247  1
  Si  Si1  1  0.63989002  0.99166611  0.25125659  1
  Si  Si2  1  0.85364365  0.71443849  0.25360495  1
  Si  Si3  1  0.00582298  0.28709590  0.25045584  1
  Si  Si4  1  0.50251536  0.28845914  0.25206613  1
  Si  Si5  1  0.13971489  0.29013173  0.75185857  1
  Si  Si6  1  0.64473446  0.29066754  0.75610872  1
  Si  Si7  1  0.00321958  0.71193494  0.75482405  1
  Si  Si8  1  0.50658171  0.72494226  0.75015443  1
  Si  Si9  1  0.35336561  0.99315611  0.75430809  1
  Si  Si10  1  0.48238059  0.33203297  0.58510341  1
  Si  Si11  1  0.83324126  0.63330144  0.58465743  1
  Si  Si12  1  0.48370102  0.63097826  0.08419908  1
  Si  Si13  1  0.98254718  0.63197634  0.08532162  1
  Si  Si14  1  0.33185779  0.03602702  0.08513248  1
  Si  Si15  1  0.30928296  0.66079692  0.91580783  1
  Si  Si16  1  0.81052746  0.67095282  0.91541843  1
  Si  Si17  1  0.02483888  0.37995962  0.91660821  1
  Si  Si18  1  0.52092895  0.37256045  0.91645789  1
  Si  Si19  1  0.17225214  0.96048193  0.91600387  1
  Si  Si20  1  0.66875480  0.96259041  0.91621168  1
  Si  Si21  1  0.31175438  0.95306693  0.41398530  1
  Si  Si22  1  0.80947206  0.95499367  0.41595247  1
  Si  Si23  1  0.16830194  0.37425017  0.41629606  1
  Si  Si24  1  0.66813099  0.38371248  0.41447577  1
  Si  Si25  1  0.02146056  0.66890212  0.41625381  1
  Si  Si26  1  0.52595650  0.67215047  0.41622083  1
  S  S0  1  0.35734818  0.72145693  0.25230378  1
  S  S1  1  0.85791648  0.99303978  0.75182036  1
  S  S2  1  0.98434536  0.33549749  0.58097033  1
  S  S3  1  0.18373641  0.03245410  0.58069875  1
  S  S4  1  0.68482494  0.03661861  0.58087568  1
  S  S5  1  0.33220553  0.63044714  0.58106120  1
  S  S6  1  0.83393948  0.03559329  0.08098112  1
  S  S7  1  0.18375146  0.33232502  0.08159474  1
  S  S8  1  0.68593712  0.33703231  0.08035906  1
  O  O0  1  0.08906098  0.00192040  0.31094425  1
  O  O1  1  0.58688453  0.00128751  0.30824208  1
  O  O2  1  0.40772377  0.80810121  0.30537904  1
  O  O3  1  0.91349721  0.82166585  0.30938728  1
  O  O4  1  0.49473427  0.16464791  0.30808235  1
  O  O5  1  0.99812063  0.17252405  0.30783732  1
  O  O6  1  0.08532239  0.16865406  0.80695328  1
  O  O7  1  0.58969396  0.17632840  0.81064967  1
  O  O8  1  0.49824270  0.82443147  0.80690062  1
  O  O9  1  0.99159281  0.82051756  0.80763883  1
  O  O10  1  0.41420613  0.00657731  0.80890163  1
  O  O11  1  0.90786839  0.00909823  0.80446110  1
  O  O12  1  0.40341823  0.97014290  0.69395367  1
  O  O13  1  0.90050069  0.97045010  0.69722516  1
  O  O14  1  0.08073335  0.18974355  0.69164430  1
  O  O15  1  0.58279383  0.20092881  0.69549011  1
  O  O16  1  0.01115930  0.83174788  0.69386987  1
  O  O17  1  0.51723608  0.84145332  0.69045906  1
  O  O18  1  0.39771709  0.82606003  0.19824015  1
  O  O19  1  0.90372725  0.83756075  0.19415014  1
  O  O20  1  0.01656845  0.19274452  0.19134298  1
  O  O21  1  0.51054084  0.18553463  0.19364121  1
  O  O22  1  0.08249511  0.96501381  0.19579570  1
  O  O23  1  0.58205614  0.97483827  0.19244179  1
  O  O24  1  0.45316690  0.36788365  0.64618390  1
  O  O25  1  0.95185283  0.36609698  0.63481167  1
  O  O26  1  0.23126446  0.09646132  0.63490716  1
  O  O27  1  0.73286819  0.10212361  0.63487876  1
  O  O28  1  0.31487001  0.53740183  0.63617944  1
  O  O29  1  0.81558531  0.54031900  0.64609283  1
  O  O30  1  0.45435436  0.52857237  0.14296208  1
  O  O31  1  0.95319912  0.53841977  0.14649586  1
  O  O32  1  0.30805153  0.08233531  0.14658244  1
  O  O33  1  0.81732092  0.09525957  0.13643649  1
  O  O34  1  0.23069832  0.36172848  0.13556807  1
  O  O35  1  0.73259387  0.36574992  0.13426814  1
  O  O36  1  0.22720086  0.30785593  0.03013571  1
  O  O37  1  0.72850295  0.30968420  0.02908347  1
  O  O38  1  0.42008705  0.53045700  0.02685438  1
  O  O39  1  0.91416109  0.51938351  0.03015248  1
  O  O40  1  0.34417247  0.16932323  0.03020899  1
  O  O41  1  0.84182719  0.14937498  0.03121943  1
  O  O42  1  0.22529330  0.14133354  0.52945285  1
  O  O43  1  0.73144528  0.15094288  0.53020586  1
  O  O44  1  0.33956464  0.53317165  0.53104849  1
  O  O45  1  0.84547837  0.52137349  0.53002311  1
  O  O46  1  0.41399815  0.30909955  0.53002529  1
  O  O47  1  0.92925202  0.31315131  0.52957609  1
  O  O48  1  0.26068349  0.68922576  0.97040019  1
  O  O49  1  0.76364536  0.69306812  0.97223619  1
  O  O50  1  0.08309573  0.46675949  0.97342331  1
  O  O51  1  0.58336905  0.47529954  0.97153214  1
  O  O52  1  0.15342756  0.83594744  0.97186246  1
  O  O53  1  0.65552944  0.83678063  0.97153802  1
  O  O54  1  0.26166013  0.83397392  0.47151728  1
  O  O55  1  0.76102435  0.83130016  0.47116908  1
  O  O56  1  0.15552414  0.47519926  0.47293982  1
  O  O57  1  0.65363740  0.46997389  0.47221776  1
  O  O58  1  0.08267696  0.68762790  0.47253812  1
  O  O59  1  0.58340504  0.69825493  0.47365467  1
  O  O60  1  0.06694066  0.63478490  0.35919406  1
  O  O61  1  0.56860647  0.63450546  0.35969592  1
  O  O62  1  0.25115157  0.86380133  0.35703671  1
  O  O63  1  0.75138148  0.87165805  0.35694203  1
  O  O64  1  0.18353016  0.50204666  0.36075724  1
  O  O65  1  0.68440915  0.50349231  0.35833662  1
  O  O66  1  0.06773137  0.50165762  0.85934678  1
  O  O67  1  0.56696899  0.49725895  0.85841855  1
  O  O68  1  0.18315148  0.86466104  0.85874494  1
  O  O69  1  0.68386812  0.86630614  0.85956452  1
  O  O70  1  0.25125227  0.63444874  0.85630180  1
  O  O71  1  0.75158066  0.63980165  0.85656551  1
  O  O72  1  0.01141156  0.83561922  0.41315091  1
  O  O73  1  0.50849349  0.83146011  0.40926213  1
  O  O74  1  0.40557626  0.97291920  0.40984893  1
  O  O75  1  0.90555492  0.97938288  0.41073785  1
  O  O76  1  0.08287292  0.18900414  0.41205729  1
  O  O77  1  0.58429726  0.19029982  0.41053636  1
  O  O78  1  0.00835676  0.18572858  0.90814845  1
  O  O79  1  0.51183385  0.18613299  0.91211062  1
  O  O80  1  0.08488084  0.97770901  0.91015033  1
  O  O81  1  0.58340360  0.97707399  0.91053911  1
  O  O82  1  0.40503049  0.83060516  0.90958453  1
  O  O83  1  0.90562421  0.83760322  0.90802248  1
  O  O84  1  0.48986469  0.15302114  0.58704333  1
  O  O85  1  0.99419690  0.17982597  0.58473422  1
  O  O86  1  0.09552198  0.01605185  0.58601774  1
  O  O87  1  0.59812315  0.02301256  0.58402083  1
  O  O88  1  0.41106832  0.80259890  0.58334069  1
  O  O89  1  0.92245487  0.82961680  0.58923221  1
  O  O90  1  0.49391844  0.82588754  0.08862226  1
  O  O91  1  0.98967651  0.82558643  0.08756574  1
  O  O92  1  0.42156336  0.02352629  0.09040805  1
  O  O93  1  0.91382414  0.02414665  0.08376394  1
  O  O94  1  0.09550724  0.17214194  0.08551668  1
  O  O95  1  0.59780870  0.17804375  0.08429637  1
  O  O96  1  0.34980670  0.16513874  0.75284573  1
  O  O97  1  0.84687750  0.14073761  0.74592774  1
  O  O98  1  0.23467299  0.32059213  0.75074365  1
  O  O99  1  0.73816872  0.31468470  0.75437675  1
  O  O100  1  0.42230094  0.53858447  0.74989945  1
  O  O101  1  0.91830096  0.52959849  0.75296853  1
  O  O102  1  0.34380620  0.55029013  0.24917714  1
  O  O103  1  0.85053408  0.53567145  0.25300260  1
  O  O104  1  0.41736686  0.29973683  0.25525966  1
  O  O105  1  0.92202920  0.30604218  0.25096497  1
  O  O106  1  0.23792630  0.16187450  0.25508382  1
  O  O107  1  0.73563172  0.14962896  0.25173061  1
  O  O108  1  0.31801875  0.49070587  0.92710105  1
  O  O109  1  0.81996809  0.49788333  0.92547599  1
  O  O110  1  0.42809122  0.36069787  0.92387869  1
  O  O111  1  0.92813166  0.36005800  0.92664892  1
  O  O112  1  0.25364155  0.14996538  0.92649271  1
  O  O113  1  0.75387919  0.14882808  0.92945168  1
  O  O114  1  0.31939230  0.14165934  0.42620704  1
  O  O115  1  0.82059560  0.14582553  0.43171046  1
  O  O116  1  0.25338972  0.35942046  0.43077940  1
  O  O117  1  0.75191307  0.35778245  0.42609044  1
  O  O118  1  0.42874329  0.49726881  0.42690326  1
  O  O119  1  0.92842616  0.49380324  0.42692556  1
  O  O120  1  0.17037254  0.48200614  0.07230045  1
  O  O121  1  0.67326414  0.48699397  0.07083195  1
  O  O122  1  0.07682510  0.65637301  0.06966757  1
  O  O123  1  0.58183295  0.66171134  0.06992357  1
  O  O124  1  0.25376722  0.83963302  0.06922849  1
  O  O125  1  0.75914154  0.85808888  0.07097746  1
  O  O126  1  0.16912160  0.85377246  0.57177381  1
  O  O127  1  0.67213870  0.86151511  0.57162462  1
  O  O128  1  0.25586147  0.65720404  0.57129023  1
  O  O129  1  0.75368873  0.66714591  0.57003350  1
  O  O130  1  0.07343582  0.49044258  0.57206624  1
  O  O131  1  0.57699647  0.49676415  0.56967023  1
  O  O132  1  0.14845285  0.81653656  0.25882241  1
  O  O133  1  0.64517575  0.81380524  0.25646273  1
  O  O134  1  0.27205475  0.71835862  0.25628305  1
  O  O135  1  0.76314411  0.71572454  0.25573620  1
  O  O136  1  0.09361760  0.48002967  0.25686525  1
  O  O137  1  0.59217065  0.47287506  0.25750055  1
  O  O138  1  0.14413995  0.47686413  0.75596345  1
  O  O139  1  0.65001050  0.48208264  0.75776948  1
  O  O140  1  0.09334410  0.71282865  0.75647796  1
  O  O141  1  0.59405865  0.70654414  0.75598003  1
  O  O142  1  0.26294932  0.81012868  0.75525122  1
  O  O143  1  0.77332157  0.82794973  0.75375378  1
loop_
_geom_bond_atom_site_label_1
_geom_bond_atom_site_label_2
_geom_bond_distance
_geom_bond_site_symmetry_2
Na0 O32 2.281092 1_555
Na0 O104 2.286845 1_555
Na0 O106 2.350844 1_555
Na0 O134 2.423666 1_545
Na0 O132 2.647327 1_545
Na0 O62 2.937832 1_545
Na0 O18 2.955026 1_545
Na1 O107 2.306156 1_555
Na1 O105 2.353603 1_555
Na1 O135 2.357519 1_545
Na1 O133 2.667563 1_545
Na1 O63 2.688906 1_545
Na1 O33 2.755784 1_555
Na2 O31 2.297966 1_555
Na2 O103 2.310225 1_555
Na2 O105 2.438525 1_555
Na2 O132 2.473275 1_655
Na2 O136 2.668456 1_655
Na2 O22 2.906819 1_655
Na2 O60 2.962646 1_655
Na3 O98 2.313898 1_555
Na3 O100 2.342610 1_555
Na3 O142 2.370943 1_555
Na3 O70 2.645254 1_555
Na3 O138 2.698970 1_555
Na3 O28 2.807015 1_555
Na4 O101 2.328483 1_555
Na4 O99 2.330736 1_555
Na4 O29 2.377352 1_555
Na4 O143 2.410009 1_555
Na4 O139 2.606063 1_555
Na4 O71 2.844103 1_555
Na5 O96 2.307288 1_555
Na5 O24 2.345485 1_555
Na5 O100 2.427183 1_555
Na5 O139 2.497098 1_555
Na5 O141 2.654756 1_555
Na5 O67 2.904238 1_555
Na5 O15 2.931621 1_555
Na6 O75 2.459030 1_555
Na6 O72 2.470988 1_655
Na6 O76 2.538508 1_665
Na6 O89 2.574345 1_555
Na6 O85 2.643901 1_565
Na6 O86 2.712856 1_665
Na7 O84 2.493295 1_555
Na7 O87 2.564139 1_555
Na7 O77 2.581010 1_555
Na7 O74 2.587182 1_545
Na7 O88 2.592670 1_545
Na7 O73 2.609554 1_545
Na8 O91 2.474892 1_455
Na8 O94 2.529049 1_565
Na8 O93 2.543317 1_465
Na8 O80 2.636155 1_554
Na8 O83 2.659504 1_454
Na8 O78 2.669942 1_564
Na9 O82 2.520536 1_555
Na9 O90 2.539504 1_556
Na9 O79 2.568426 1_565
Na9 O92 2.577436 1_566
Na9 O81 2.618503 1_555
Na9 O95 2.671796 1_566
Na10 O96 2.402681 1_555
Na10 O98 2.417700 1_555
Na10 O100 2.597692 1_555
Na10 O112 2.659479 1_555
Na10 O110 2.760348 1_555
Na10 O108 2.765773 1_555
Na11 O99 2.327021 1_555
Na11 O101 2.381554 1_555
Na11 O97 2.631734 1_555
Na11 O109 2.773587 1_555
Na11 O111 2.787624 1_555
Na11 O113 2.815686 1_555
Na12 O106 2.280451 1_555
Na12 O104 2.292208 1_555
Na12 O102 2.517316 1_555
Na12 O118 2.845107 1_555
Na12 O114 2.864155 1_555
Na12 O116 2.923785 1_555
Na13 O107 2.302973 1_555
Na13 O103 2.323383 1_555
Na13 O105 2.478142 1_555
Na13 O117 2.784052 1_555
Na13 O119 2.909883 1_555
Na13 O115 2.964393 1_555
Na14 O122 2.555466 1_555
Na14 O124 2.597309 1_555
Na14 O120 2.627573 1_555
Na14 O136 2.711474 1_555
Na14 O132 2.738718 1_555
Na14 O134 2.829833 1_555
Na15 O137 2.463575 1_555
Na15 O133 2.511139 1_555
Na15 O123 2.629106 1_555
Na15 O135 2.660142 1_555
Na15 O121 2.827716 1_555
Na15 O125 2.954621 1_555
Na16 O140 2.390717 1_555
Na16 O138 2.434627 1_555
Na16 O142 2.450520 1_555
Na16 O130 2.834252 1_555
Na16 O126 2.868909 1_555
Na16 O128 2.941147 1_555
Na17 O131 2.576630 1_555
Na17 O141 2.619004 1_555
Na17 O129 2.655032 1_555
Na17 O139 2.664805 1_555
Na17 O127 2.698588 1_555
Na17 O143 2.779846 1_555
Ca0 O24 2.223763 1_555
Ca0 O96 2.224248 1_555
Ca0 O98 2.263408 1_555
Ca0 O100 2.279308 1_555
Ca0 O26 2.294486 1_555
Ca0 O28 2.376441 1_555
Ca1 O29 2.188859 1_555
Ca1 O101 2.252029 1_555
Ca1 O99 2.259822 1_555
Ca1 O27 2.287988 1_555
Ca1 O25 2.334574 1_555
Ca1 O97 2.365552 1_555
Ca2 O30 2.161510 1_555
Ca2 O32 2.223219 1_555
Ca2 O104 2.296140 1_555
Ca2 O34 2.336141 1_555
Ca2 O106 2.349823 1_555
Ca2 O102 2.408500 1_555
Ca3 O31 2.219571 1_555
Ca3 O103 2.242591 1_555
Ca3 O35 2.271207 1_555
Ca3 O107 2.274973 1_555
Ca3 O105 2.308186 1_555
Ca3 O33 2.351083 1_555
O0 Si0 1.622952 1_555
O0 Ta0 1.936131 1_455
O1 Si1 1.645765 1_545
O1 Ta1 1.891206 1_555
O2 S0 1.481257 1_555
O2 Ta1 2.163455 1_565
O3 Si2 1.635683 1_555
O3 Ta0 1.917530 1_565
O4 Si4 1.660184 1_555
O4 Ta1 1.889442 1_555
O5 Si3 1.634531 1_655
O5 Ta0 1.917338 1_555
O6 Si5 1.637738 1_555
O6 Ta2 1.908435 1_555
O7 Si6 1.608632 1_555
O7 Ta3 1.957944 1_545
O8 Si8 1.626842 1_555
O8 Ta3 1.932299 1_555
O9 Si7 1.632577 1_655
O9 Ta2 1.926906 1_665
O10 Si9 1.624914 1_545
O10 Ta3 1.934135 1_545
O11 S1 1.466058 1_545
O11 Ta2 2.222543 1_655
O12 Si9 1.719476 1_555
O12 Ta5 1.878581 1_565
O13 S1 1.533559 1_555
O13 Ta4 2.076576 1_655
O14 Si5 1.696203 1_555
O14 Ta4 1.912453 1_545
O15 Si6 1.706909 1_555
O15 Ta5 1.879077 1_555
O16 Si7 1.727311 1_555
O16 Ta4 1.846249 1_555
O17 Si8 1.676304 1_555
O17 Ta5 1.942660 1_565
O18 S0 1.506357 1_555
O18 Ta7 2.173782 1_565
O19 Si2 1.703839 1_555
O19 Ta6 1.894607 1_655
O20 Si3 1.659800 1_555
O20 Ta6 1.949185 1_545
O21 Si4 1.673906 1_555
O21 Ta7 1.939828 1_555
O22 Si0 1.700551 1_565
O22 Ta6 1.886884 1_555
O23 Si1 1.660968 1_555
O23 Ta7 1.939920 1_565
O24 Si10 1.584345 1_555
O25 S2 1.449929 1_555
O26 S3 1.451503 1_555
O27 S4 1.452501 1_555
O28 S5 1.461384 1_555
O29 Si11 1.587672 1_555
O30 Si12 1.568090 1_555
O31 Si13 1.585051 1_555
O32 Si14 1.587071 1_555
O33 S6 1.467125 1_555
O34 S7 1.443839 1_555
O35 S8 1.440706 1_555
O36 S7 1.491555 1_555
O36 Ta8 2.259276 1_554
O37 S8 1.489475 1_555
O37 Ta9 2.233622 1_554
O38 Si12 1.676084 1_555
O38 Ta8 1.939896 1_554
O39 Si13 1.697309 1_555
O39 Ta9 1.917162 1_554
O40 Si14 1.676324 1_555
O40 Ta8 1.960127 1_554
O41 S6 1.492119 1_555
O41 Ta9 2.235135 1_554
O42 S3 1.472977 1_555
O42 Ta10 2.306702 1_555
O43 S4 1.500542 1_555
O43 Ta11 2.188949 1_555
O44 S5 1.486877 1_555
O44 Ta10 2.236062 1_555
O45 Si11 1.688090 1_555
O45 Ta11 1.958065 1_555
O46 Si10 1.699693 1_555
O46 Ta10 1.921788 1_555
O47 S2 1.485138 1_555
O47 Ta11 2.255499 1_555
O48 Si15 1.619169 1_555
O48 Ta12 1.937448 1_556
O49 Si16 1.617768 1_555
O49 Ta13 1.965224 1_556
O50 Si17 1.604982 1_555
O50 Ta12 1.979910 1_556
O51 Si18 1.631219 1_555
O51 Ta13 1.890006 1_556
O52 Si19 1.622795 1_555
O52 Ta12 1.895852 1_556
O53 Si20 1.637098 1_555
O53 Ta13 1.871408 1_556
O54 Si21 1.654824 1_555
O54 Ta14 1.880428 1_555
O55 Si22 1.623163 1_555
O55 Ta15 1.933675 1_555
O56 Si23 1.664190 1_555
O56 Ta14 1.857635 1_555
O57 Si24 1.619292 1_555
O57 Ta15 1.895008 1_555
O58 Si25 1.647295 1_555
O58 Ta14 1.878560 1_555
O59 Si26 1.614577 1_555
O59 Ta15 1.962049 1_555
O60 Si25 1.651487 1_555
O60 Ta16 1.923604 1_555
O61 Si26 1.625931 1_555
O61 Ta17 1.956373 1_555
O62 Si21 1.628442 1_555
O62 Ta16 1.985558 1_555
O63 Si22 1.640214 1_555
O63 Ta17 2.033039 1_555
O64 Si23 1.645039 1_555
O64 Ta16 1.953125 1_555
O65 Si24 1.609548 1_555
O65 Ta17 1.989965 1_555
O66 Si17 1.636030 1_555
O66 Ta18 1.944972 1_555
O67 Si18 1.670350 1_555
O67 Ta19 1.893528 1_555
O68 Si19 1.634126 1_555
O68 Ta18 1.952318 1_555
O69 Si20 1.656340 1_555
O69 Ta19 1.933217 1_555
O70 Si15 1.658876 1_555
O70 Ta18 1.975678 1_555
O71 Si16 1.648737 1_555
O71 Ta19 1.975069 1_555
O72 Si25 1.600098 1_555
O72 Ta0 2.064087 1_465
O73 Si26 1.622009 1_555
O73 Ta1 2.010688 1_565
O74 Si21 1.609166 1_555
O74 Ta1 2.039948 1_565
O75 Si22 1.634675 1_555
O75 Ta0 2.011045 1_565
O76 Si23 1.607109 1_555
O76 Ta0 2.036055 1_455
O77 Si24 1.637500 1_555
O77 Ta1 1.932402 1_555
O78 Si17 1.630878 1_555
O78 Ta2 1.979603 1_555
O79 Si18 1.604769 1_555
O79 Ta3 2.027289 1_545
O80 Si19 1.660486 1_555
O80 Ta2 1.899396 1_565
O81 Si20 1.610123 1_555
O81 Ta3 2.010010 1_555
O82 Si15 1.639269 1_555
O82 Ta3 1.989354 1_555
O83 Si16 1.623648 1_555
O83 Ta2 2.000327 1_665
O84 Si10 1.682955 1_555
O84 Ta5 2.001348 1_555
O85 S2 1.500043 1_555
O85 Ta4 2.296426 1_645
O86 S3 1.523876 1_555
O86 Ta4 2.128314 1_545
O87 S4 1.504373 1_555
O87 Ta5 2.296882 1_555
O88 S5 1.487680 1_555
O88 Ta5 2.357082 1_565
O89 Si11 1.693011 1_555
O89 Ta4 1.969986 1_655
O90 Si12 1.672275 1_555
O90 Ta7 1.980346 1_565
O91 Si13 1.682285 1_555
O91 Ta6 1.991751 1_655
O92 Si14 1.677519 1_555
O92 Ta7 1.966438 1_555
O93 S6 1.492970 1_555
O93 Ta6 2.326860 1_645
O94 S7 1.521407 1_555
O94 Ta6 2.231698 1_545
O95 S8 1.515700 1_555
O95 Ta7 2.123892 1_555
O96 Si9 1.581010 1_545
O97 S1 1.445307 1_545
O98 Si5 1.589422 1_555
O99 Si6 1.584641 1_555
O100 Si8 1.601229 1_555
O101 Si7 1.586307 1_655
O102 S0 1.435411 1_555
O103 Si2 1.581361 1_555
O104 Si4 1.587227 1_555
O105 Si3 1.600063 1_655
O106 Si0 1.573008 1_555
O107 Si1 1.592136 1_545
O108 Si15 1.635904 1_555
O108 Ta8 1.994104 1_555
O109 Si16 1.665279 1_555
O109 Ta9 1.913399 1_555
O110 Si18 1.628883 1_555
O110 Ta8 1.938914 1_555
O111 Si17 1.674010 1_655
O111 Ta9 1.896610 1_555
O112 Si19 1.614194 1_545
O112 Ta8 2.020705 1_555
O113 Si20 1.634593 1_545
O113 Ta9 1.981231 1_555
O114 Si21 1.655934 1_545
O114 Ta10 1.905425 1_555
O115 Si22 1.665190 1_545
O115 Ta11 1.947975 1_555
O116 Si23 1.635610 1_555
O116 Ta10 1.973874 1_555
O117 Si24 1.658099 1_555
O117 Ta11 1.897206 1_555
O118 Si26 1.685412 1_555
O118 Ta10 1.878909 1_555
O119 Si25 1.644522 1_655
O119 Ta11 1.914491 1_555
O120 S7 1.497619 1_555
O120 Ta12 2.174334 1_555
O121 S8 1.493143 1_555
O121 Ta13 2.157607 1_555
O122 Si13 1.638235 1_455
O122 Ta12 1.971564 1_555
O123 Si12 1.677600 1_555
O123 Ta13 1.915070 1_555
O124 Si14 1.654972 1_565
O124 Ta12 1.937934 1_555
O125 S6 1.503111 1_565
O125 Ta13 2.137099 1_555
O126 S3 1.507129 1_565
O126 Ta14 2.149027 1_555
O127 S4 1.489387 1_565
O127 Ta15 2.172103 1_555
O128 S5 1.525034 1_555
O128 Ta14 2.103735 1_555
O129 Si11 1.639989 1_555
O129 Ta15 1.960989 1_555
O130 S2 1.522465 1_455
O130 Ta14 2.118254 1_555
O131 Si10 1.641869 1_555
O131 Ta15 1.966722 1_555
O132 Si0 1.685343 1_565
O132 Ta16 2.011274 1_555
O133 Si1 1.654604 1_555
O133 Ta17 1.980696 1_555
O134 S0 1.523874 1_555
O134 Ta16 2.210224 1_555
O135 Si2 1.635080 1_555
O135 Ta17 2.039964 1_555
O136 Si3 1.667908 1_555
O136 Ta16 1.962212 1_555
O137 Si4 1.639630 1_555
O137 Ta17 1.968385 1_555
O138 Si5 1.644399 1_555
O138 Ta18 2.024296 1_555
O139 Si6 1.677252 1_555
O139 Ta19 2.035086 1_555
O140 Si7 1.618061 1_555
O140 Ta18 2.016756 1_555
O141 Si8 1.668329 1_555
O141 Ta19 1.986278 1_555
O142 Si9 1.635675 1_555
O142 Ta18 2.067384 1_555
O143 S1 1.503546 1_555
O143 Ta19 2.290138 1_555
