# generated using pymatgen
data_RbEuO2
_symmetry_space_group_name_H-M   'P 1'
_cell_length_a   6.78133402
_cell_length_b   6.78133402
_cell_length_c   6.78133406
_cell_angle_alpha   30.74545079
_cell_angle_beta   30.74545079
_cell_angle_gamma   30.74545841
_symmetry_Int_Tables_number   1
_chemical_formula_structural   RbEuO2
_chemical_formula_sum   'Rb1 Eu1 O2'
_cell_volume   72.27393855
_cell_formula_units_Z   1
loop_
 _symmetry_equiv_pos_site_id
 _symmetry_equiv_pos_as_xyz
  1  'x, y, z'
loop_
 _atom_site_type_symbol
 _atom_site_label
 _atom_site_symmetry_multiplicity
 _atom_site_fract_x
 _atom_site_fract_y
 _atom_site_fract_z
 _atom_site_occupancy
  Rb  Rb0  1  0.00000000  0.00000000  0.00000000  1
  Eu  Eu0  1  0.50000000  0.50000000  0.50000000  1
  O  O0  1  0.77390285  0.77390285  0.77390285  1
  O  O1  1  0.22609715  0.22609715  0.22609715  1
loop_
_geom_bond_atom_site_label_1
_geom_bond_atom_site_label_2
_geom_bond_distance
_geom_bond_site_symmetry_2
Eu0 O1 2.373576 1_556
Eu0 O0 2.373576 1_554
Eu0 O0 2.373576 1_455
Eu0 O1 2.373576 1_655
Eu0 O0 2.373576 1_545
Eu0 O1 2.373576 1_565
O0 Rb0 2.936408 1_665
O0 Rb0 2.936408 1_566
O0 Rb0 2.936408 1_656
O1 Rb0 2.936408 1_556
O1 Rb0 2.936408 1_565
O1 Rb0 2.936408 1_655
