# generated using pymatgen
data_Na2HfMg3(SO4)6
_symmetry_space_group_name_H-M   'P 1'
_cell_length_a   8.68418192
_cell_length_b   8.68418165
_cell_length_c   22.90044070
_cell_angle_alpha   90.00000000
_cell_angle_beta   90.00000000
_cell_angle_gamma   120.00000104
_symmetry_Int_Tables_number   1
_chemical_formula_structural   Na2HfMg3(SO4)6
_chemical_formula_sum   'Na6 Hf3 Mg9 S18 O72'
_cell_volume   1495.65793348
_cell_formula_units_Z   3
loop_
 _symmetry_equiv_pos_site_id
 _symmetry_equiv_pos_as_xyz
  1  'x, y, z'
loop_
 _atom_site_type_symbol
 _atom_site_label
 _atom_site_symmetry_multiplicity
 _atom_site_fract_x
 _atom_site_fract_y
 _atom_site_fract_z
 _atom_site_occupancy
  Na  Na0  1  0.00000000  0.00000000  0.50942348  1
  Na  Na1  1  0.00000000  0.00000000  0.00675143  1
  Na  Na2  1  0.66666700  0.33333300  0.82668752  1
  Na  Na3  1  0.66666700  0.33333300  0.33749011  1
  Na  Na4  1  0.33333300  0.66666700  0.17804830  1
  Na  Na5  1  0.33333300  0.66666700  0.65750008  1
  Hf  Hf0  1  0.00000000  0.00000000  0.35417219  1
  Hf  Hf1  1  0.00000000  0.00000000  0.84868382  1
  Hf  Hf2  1  0.33333300  0.66666700  0.02167995  1
  Mg  Mg0  1  0.00000000  0.00000000  0.64365889  1
  Mg  Mg1  1  0.00000000  0.00000000  0.15186799  1
  Mg  Mg2  1  0.66666700  0.33333300  0.67727560  1
  Mg  Mg3  1  0.66666700  0.33333300  0.18791976  1
  Mg  Mg4  1  0.66666700  0.33333300  0.98376419  1
  Mg  Mg5  1  0.66666700  0.33333300  0.48651527  1
  Mg  Mg6  1  0.33333300  0.66666700  0.52043206  1
  Mg  Mg7  1  0.33333300  0.66666700  0.31793904  1
  Mg  Mg8  1  0.33333300  0.66666700  0.81131037  1
  S  S0  1  0.29469337  0.99814313  0.24815803  1
  S  S1  1  0.70344976  0.70530663  0.24815803  1
  S  S2  1  0.00185687  0.29655024  0.24815803  1
  S  S3  1  0.29725776  0.29654653  0.74778609  1
  S  S4  1  0.99928877  0.70274224  0.74778609  1
  S  S5  1  0.70345347  0.00071123  0.74778609  1
  S  S6  1  0.96193723  0.33467719  0.58338289  1
  S  S7  1  0.37274096  0.03806277  0.58338289  1
  S  S8  1  0.66532281  0.62725904  0.58338289  1
  S  S9  1  0.95228749  0.62640774  0.08339974  1
  S  S10  1  0.67412124  0.04771251  0.08339974  1
  S  S11  1  0.37359226  0.32587876  0.08339974  1
  S  S12  1  0.62341401  0.66212755  0.91541752  1
  S  S13  1  0.03871254  0.37658599  0.91541752  1
  S  S14  1  0.33787245  0.96128746  0.91541752  1
  S  S15  1  0.61921471  0.95983221  0.41664845  1
  S  S16  1  0.34061650  0.38078529  0.41664845  1
  S  S17  1  0.04016779  0.65938350  0.41664845  1
  O  O0  1  0.20444161  0.02110998  0.30121710  1
  O  O1  1  0.81666837  0.79555839  0.30121710  1
  O  O2  1  0.97889002  0.18333163  0.30121710  1
  O  O3  1  0.20669910  0.18362809  0.80382702  1
  O  O4  1  0.97692899  0.79330090  0.80382702  1
  O  O5  1  0.81637191  0.02307101  0.80382702  1
  O  O6  1  0.79211671  0.97687634  0.69806182  1
  O  O7  1  0.18475963  0.20788329  0.69806182  1
  O  O8  1  0.02312366  0.81524037  0.69806182  1
  O  O9  1  0.78717974  0.81278977  0.19571992  1
  O  O10  1  0.02561003  0.21282026  0.19571992  1
  O  O11  1  0.18721023  0.97438997  0.19571992  1
  O  O12  1  0.88136048  0.35915675  0.63711226  1
  O  O13  1  0.47779727  0.11863952  0.63711226  1
  O  O14  1  0.64084325  0.52220273  0.63711226  1
  O  O15  1  0.87665254  0.51747595  0.13539950  1
  O  O16  1  0.64082441  0.12334746  0.13539950  1
  O  O17  1  0.48252405  0.35917559  0.13539950  1
  O  O18  1  0.45476195  0.30695363  0.02957713  1
  O  O19  1  0.85219268  0.54523805  0.02957713  1
  O  O20  1  0.69304637  0.14780732  0.02957713  1
  O  O21  1  0.45560931  0.14608112  0.53093864  1
  O  O22  1  0.69047281  0.54439069  0.53093864  1
  O  O23  1  0.85391888  0.30952719  0.53093864  1
  O  O24  1  0.53986760  0.69015007  0.96931138  1
  O  O25  1  0.15028147  0.46013240  0.96931138  1
  O  O26  1  0.30984993  0.84971853  0.96931138  1
  O  O27  1  0.54388038  0.85097415  0.46849056  1
  O  O28  1  0.30709277  0.45611962  0.46849056  1
  O  O29  1  0.14902585  0.69290723  0.46849056  1
  O  O30  1  0.12111387  0.64015980  0.36282148  1
  O  O31  1  0.51904493  0.87888613  0.36282148  1
  O  O32  1  0.35984020  0.48095507  0.36282148  1
  O  O33  1  0.12483846  0.48144468  0.86396661  1
  O  O34  1  0.35660522  0.87516154  0.86396661  1
  O  O35  1  0.51855532  0.64339478  0.86396661  1
  O  O36  1  0.02124244  0.82614661  0.40886150  1
  O  O37  1  0.80490417  0.97875756  0.40886150  1
  O  O38  1  0.17385339  0.19509583  0.40886150  1
  O  O39  1  0.02421135  0.19610054  0.91198198  1
  O  O40  1  0.17188919  0.97578865  0.91198198  1
  O  O41  1  0.80389946  0.82811081  0.91198198  1
  O  O42  1  0.97937189  0.17322751  0.58890968  1
  O  O43  1  0.19385561  0.02062811  0.58890968  1
  O  O44  1  0.82677249  0.80614439  0.58890968  1
  O  O45  1  0.97951816  0.80690473  0.08880571  1
  O  O46  1  0.82738657  0.02048184  0.08880571  1
  O  O47  1  0.19309527  0.17261343  0.08880571  1
  O  O48  1  0.69037533  0.16272357  0.74587052  1
  O  O49  1  0.47234924  0.30962467  0.74587052  1
  O  O50  1  0.83727643  0.52765076  0.74587052  1
  O  O51  1  0.69091574  0.52980792  0.24469569  1
  O  O52  1  0.83889319  0.30908426  0.24469569  1
  O  O53  1  0.47019208  0.16110681  0.24469569  1
  O  O54  1  0.64533906  0.50694441  0.92352382  1
  O  O55  1  0.86160634  0.35466094  0.92352382  1
  O  O56  1  0.49305559  0.13839366  0.92352382  1
  O  O57  1  0.64643338  0.14048318  0.42225286  1
  O  O58  1  0.49405080  0.35356662  0.42225286  1
  O  O59  1  0.85951682  0.50594920  0.42225286  1
  O  O60  1  0.35459764  0.49244819  0.07599748  1
  O  O61  1  0.13784955  0.64540236  0.07599748  1
  O  O62  1  0.50755181  0.86215045  0.07599748  1
  O  O63  1  0.35414100  0.85935606  0.57792440  1
  O  O64  1  0.50521406  0.64585900  0.57792440  1
  O  O65  1  0.14064394  0.49478594  0.57792440  1
  O  O66  1  0.31144033  0.83894934  0.25575799  1
  O  O67  1  0.52750801  0.68855967  0.25575799  1
  O  O68  1  0.16105066  0.47249199  0.25575799  1
  O  O69  1  0.31146578  0.47047759  0.75714221  1
  O  O70  1  0.15901081  0.68853422  0.75714221  1
  O  O71  1  0.52952241  0.84098919  0.75714221  1
loop_
_geom_bond_atom_site_label_1
_geom_bond_atom_site_label_2
_geom_bond_distance
_geom_bond_site_symmetry_2
Na0 O44 2.424457 1_445
Na0 O43 2.424457 1_555
Na0 O42 2.424457 1_455
Na0 O38 2.809871 1_555
Na0 O36 2.809871 1_545
Na0 O37 2.809871 1_445
Na1 O45 2.464999 1_445
Na1 O47 2.464999 1_555
Na1 O46 2.464999 1_455
Na1 O39 2.701167 1_554
Na1 O41 2.701167 1_444
Na1 O40 2.701167 1_544
Na2 O50 2.442916 1_555
Na2 O48 2.442916 1_555
Na2 O49 2.442916 1_555
Na2 O56 2.739407 1_555
Na2 O55 2.739407 1_555
Na2 O54 2.739407 1_555
Na3 O57 2.511822 1_555
Na3 O59 2.511822 1_555
Na3 O58 2.511822 1_555
Na3 O51 2.666836 1_555
Na3 O53 2.666836 1_555
Na3 O52 2.666836 1_555
Na4 O68 2.392891 1_555
Na4 O66 2.392891 1_555
Na4 O67 2.392891 1_555
Na4 O62 2.839738 1_555
Na4 O60 2.839738 1_555
Na4 O61 2.839738 1_555
Na5 O63 2.418928 1_555
Na5 O65 2.418928 1_555
Na5 O64 2.418928 1_555
Na5 O69 2.796802 1_555
Na5 O71 2.796802 1_555
Na5 O70 2.796802 1_555
Hf0 O38 2.039728 1_555
Hf0 O36 2.039728 1_545
Hf0 O37 2.039728 1_445
Hf0 O1 2.081066 1_445
Hf0 O2 2.081066 1_455
Hf0 O0 2.081066 1_555
Hf1 O4 1.989422 1_445
Hf1 O3 1.989422 1_555
Hf1 O5 1.989422 1_455
Hf1 O39 2.165058 1_555
Hf1 O41 2.165058 1_445
Hf1 O40 2.165058 1_545
Hf2 O62 2.037100 1_555
Hf2 O60 2.037100 1_555
Hf2 O61 2.037100 1_555
Hf2 O25 2.081105 1_554
Hf2 O26 2.081105 1_554
Hf2 O24 2.081105 1_554
Mg0 O44 2.033858 1_445
Mg0 O43 2.033858 1_555
Mg0 O42 2.033858 1_455
Mg0 O7 2.118736 1_555
Mg0 O8 2.118736 1_545
Mg0 O6 2.118736 1_445
Mg1 O10 2.015597 1_555
Mg1 O9 2.015597 1_445
Mg1 O11 2.015597 1_545
Mg1 O45 2.151944 1_445
Mg1 O47 2.151944 1_555
Mg1 O46 2.151944 1_455
Mg2 O13 1.988532 1_555
Mg2 O14 1.988532 1_555
Mg2 O12 1.988532 1_555
Mg2 O50 2.238339 1_555
Mg2 O48 2.238339 1_555
Mg2 O49 2.238339 1_555
Mg3 O51 2.070447 1_555
Mg3 O53 2.070447 1_555
Mg3 O52 2.070447 1_555
Mg3 O16 2.100724 1_555
Mg3 O15 2.100724 1_555
Mg3 O17 2.100724 1_555
Mg4 O19 2.029290 1_556
Mg4 O20 2.029290 1_556
Mg4 O18 2.029290 1_556
Mg4 O56 2.118899 1_555
Mg4 O55 2.118899 1_555
Mg4 O54 2.118899 1_555
Mg5 O22 2.014483 1_555
Mg5 O21 2.014483 1_555
Mg5 O23 2.014483 1_555
Mg5 O57 2.169581 1_555
Mg5 O59 2.169581 1_555
Mg5 O58 2.169581 1_555
Mg6 O63 2.064898 1_555
Mg6 O65 2.064898 1_555
Mg6 O64 2.064898 1_555
Mg6 O28 2.096021 1_555
Mg6 O27 2.096021 1_555
Mg6 O29 2.096022 1_555
Mg7 O31 2.020309 1_555
Mg7 O32 2.020309 1_555
Mg7 O30 2.020309 1_555
Mg7 O68 2.141658 1_555
Mg7 O66 2.141658 1_555
Mg7 O67 2.141658 1_555
Mg8 O69 2.038147 1_555
Mg8 O71 2.038147 1_555
Mg8 O70 2.038148 1_555
Mg8 O34 2.099354 1_555
Mg8 O33 2.099354 1_555
Mg8 O35 2.099354 1_555
O0 S0 1.512215 1_545
O1 S1 1.512215 1_555
O2 S2 1.512215 1_655
O3 S3 1.567130 1_555
O4 S4 1.567130 1_555
O5 S5 1.567130 1_555
O6 S5 1.446279 1_565
O7 S3 1.446279 1_555
O8 S4 1.446279 1_455
O9 S1 1.470818 1_555
O10 S2 1.470818 1_555
O11 S0 1.470818 1_555
O12 S6 1.482409 1_555
O13 S7 1.482409 1_555
O14 S8 1.482409 1_555
O15 S9 1.457054 1_555
O16 S10 1.457054 1_555
O17 S11 1.457054 1_555
O18 S11 1.469333 1_555
O19 S9 1.469333 1_555
O20 S10 1.469333 1_555
O21 S7 1.471447 1_555
O22 S8 1.471447 1_555
O23 S6 1.471447 1_555
O24 S12 1.511757 1_555
O25 S13 1.511757 1_555
O26 S14 1.511757 1_555
O27 S15 1.453504 1_555
O28 S16 1.453504 1_555
O29 S17 1.453504 1_555
O30 S17 1.469291 1_555
O31 S15 1.469291 1_555
O32 S16 1.469291 1_555
O33 S13 1.447692 1_555
O34 S14 1.447692 1_555
O35 S12 1.447692 1_555
O36 S17 1.547292 1_555
O37 S15 1.547300 1_555
O38 S16 1.547297 1_555
O39 S13 1.510401 1_555
O40 S14 1.510393 1_555
O41 S12 1.510397 1_555
O42 S6 1.488956 1_555
O43 S7 1.488965 1_555
O44 S8 1.488961 1_555
O45 S9 1.468855 1_555
O46 S10 1.468847 1_555
O47 S11 1.468852 1_555
O48 S5 1.467688 1_555
O49 S3 1.467696 1_555
O50 S4 1.467692 1_555
O51 S1 1.474792 1_555
O52 S2 1.474783 1_655
O53 S0 1.474788 1_545
O54 S12 1.464048 1_555
O55 S13 1.464031 1_655
O56 S14 1.464037 1_545
O57 S15 1.470603 1_545
O58 S16 1.470620 1_555
O59 S17 1.470610 1_655
O60 S11 1.544982 1_555
O61 S9 1.544965 1_455
O62 S10 1.544972 1_565
O63 S7 1.483072 1_565
O64 S8 1.483089 1_555
O65 S6 1.483079 1_455
O66 S0 1.470958 1_555
O67 S1 1.470966 1_555
O68 S2 1.470963 1_555
O69 S3 1.468407 1_555
O70 S4 1.468399 1_455
O71 S5 1.468404 1_565
