# generated using pymatgen
data_MgMn6O7F5
_symmetry_space_group_name_H-M   'P 1'
_cell_length_a   5.25092502
_cell_length_b   7.64485791
_cell_length_c   5.81919908
_cell_angle_alpha   96.53450133
_cell_angle_beta   82.60093066
_cell_angle_gamma   94.25895435
_symmetry_Int_Tables_number   1
_chemical_formula_structural   MgMn6O7F5
_chemical_formula_sum   'Mg1 Mn6 O7 F5'
_cell_volume   229.72598134
_cell_formula_units_Z   1
loop_
 _symmetry_equiv_pos_site_id
 _symmetry_equiv_pos_as_xyz
  1  'x, y, z'
loop_
 _atom_site_type_symbol
 _atom_site_label
 _atom_site_symmetry_multiplicity
 _atom_site_fract_x
 _atom_site_fract_y
 _atom_site_fract_z
 _atom_site_occupancy
  Mg  Mg0  1  0.98726659  0.49690287  0.00422054  1
  Mn  Mn0  1  0.51045601  0.98824739  0.49469331  1
  Mn  Mn1  1  0.50889173  0.67153938  0.15618945  1
  Mn  Mn2  1  0.53001578  0.33334346  0.82485035  1
  Mn  Mn3  1  0.93863510  0.69483047  0.61490750  1
  Mn  Mn4  1  0.05379864  0.25579554  0.44667034  1
  Mn  Mn5  1  0.99518754  0.98724864  0.98797006  1
  O  O0  1  0.86301444  0.43857416  0.67922817  1
  O  O1  1  0.84192159  0.74563785  0.94988252  1
  O  O2  1  0.82834638  0.06760063  0.29351755  1
  O  O3  1  0.62983198  0.75049252  0.44516158  1
  O  O4  1  0.62381753  0.44039194  0.12155330  1
  O  O5  1  0.39560559  0.22706530  0.55072897  1
  O  O6  1  0.15965082  0.91287660  0.66832331  1
  F  F0  1  0.69979587  0.09033231  0.81299385  1
  F  F1  1  0.33136990  0.57892550  0.86631942  1
  F  F2  1  0.33477507  0.89377939  0.16471807  1
  F  F3  1  0.12040076  0.57118440  0.30884149  1
  F  F4  1  0.16110666  0.25523366  0.01399522  1
loop_
_geom_bond_atom_site_label_1
_geom_bond_atom_site_label_2
_geom_bond_distance
_geom_bond_site_symmetry_2
Mg0 O4 1.975868 1_555
Mg0 O0 2.069730 1_554
Mg0 O1 2.170917 1_554
Mn0 O5 1.944402 1_565
Mn0 O3 1.945026 1_555
Mn0 O2 2.008168 1_565
Mn0 O6 2.059499 1_555
Mn1 O4 1.890343 1_555
Mn1 O3 1.892732 1_555
Mn1 O1 2.070538 1_554
Mn2 O5 1.900689 1_555
Mn2 O4 1.931567 1_556
Mn2 O0 1.996823 1_555
Mn3 O1 1.952048 1_555
Mn3 O6 1.977315 1_655
Mn3 O0 2.036833 1_555
Mn3 O3 2.096842 1_555
Mn4 O2 1.998148 1_455
Mn4 O5 2.001244 1_555
Mn4 O0 2.053252 1_455
Mn5 O2 1.932981 1_566
Mn5 O1 1.959716 1_555
Mn5 O6 1.986822 1_655
F0 Mn2 2.109949 1_555
F0 Mn5 2.198777 1_545
F0 Mn0 2.249091 1_545
F1 Mg0 1.968426 1_456
F1 Mn1 2.061713 1_556
F1 Mn2 2.189506 1_555
F2 Mn1 1.981105 1_555
F2 Mn0 2.258613 1_555
F2 Mn5 2.361565 1_454
F3 Mg0 1.996139 1_455
F3 Mn3 2.071141 1_455
F3 Mn1 2.234944 1_555
F3 Mn4 2.611833 1_555
F4 Mg0 2.130167 1_455
F4 Mn5 2.162738 1_444
F4 Mn2 2.179243 1_554
F4 Mn4 2.507876 1_555
