# generated using pymatgen
data_MgMn6(O3F)3
_symmetry_space_group_name_H-M   'P 1'
_cell_length_a   5.16399193
_cell_length_b   5.28813584
_cell_length_c   8.86396625
_cell_angle_alpha   92.78307670
_cell_angle_beta   86.61926497
_cell_angle_gamma   103.95066912
_symmetry_Int_Tables_number   1
_chemical_formula_structural   MgMn6(O3F)3
_chemical_formula_sum   'Mg1 Mn6 O9 F3'
_cell_volume   234.36028549
_cell_formula_units_Z   1
loop_
 _symmetry_equiv_pos_site_id
 _symmetry_equiv_pos_as_xyz
  1  'x, y, z'
loop_
 _atom_site_type_symbol
 _atom_site_label
 _atom_site_symmetry_multiplicity
 _atom_site_fract_x
 _atom_site_fract_y
 _atom_site_fract_z
 _atom_site_occupancy
  Mg  Mg0  1  0.51064345  0.00122040  0.34133737  1
  Mn  Mn0  1  0.98557024  0.00719769  0.99964910  1
  Mn  Mn1  1  0.00665729  0.99393483  0.33821722  1
  Mn  Mn2  1  0.01003597  0.99728620  0.67105558  1
  Mn  Mn3  1  0.51653704  0.48087001  0.83633529  1
  Mn  Mn4  1  0.49619992  0.50232112  0.16463205  1
  Mn  Mn5  1  0.50088007  0.49986715  0.51164214  1
  O  O0  1  0.17548123  0.87062702  0.49892830  1
  O  O1  1  0.14905753  0.87444628  0.82376074  1
  O  O2  1  0.30382723  0.30425502  0.00420471  1
  O  O3  1  0.32753056  0.29222885  0.33640441  1
  O  O4  1  0.27949882  0.32623372  0.67369054  1
  O  O5  1  0.71492958  0.67281695  0.00085889  1
  O  O6  1  0.68297755  0.69946125  0.34245949  1
  O  O7  1  0.69189647  0.70091843  0.67129718  1
  O  O8  1  0.83452733  0.12274356  0.18751537  1
  F  F0  1  0.25529492  0.80968256  0.18785754  1
  F  F1  1  0.76856114  0.17213173  0.50294621  1
  F  F2  1  0.80378467  0.17175621  0.82149488  1
loop_
_geom_bond_atom_site_label_1
_geom_bond_atom_site_label_2
_geom_bond_distance
_geom_bond_site_symmetry_2
Mg0 O3 1.994317 1_555
Mg0 O6 2.006438 1_545
Mg0 O8 2.089804 1_555
Mg0 O0 2.157774 1_545
Mn0 O1 1.913245 1_645
Mn0 O8 1.931980 1_556
Mn0 O5 1.971944 1_546
Mn0 O2 1.981703 1_656
Mn1 O8 1.886485 1_465
Mn1 O0 1.930111 1_555
Mn1 O6 1.990836 1_455
Mn1 O3 1.993277 1_565
Mn2 O1 1.787282 1_555
Mn2 O0 1.878654 1_555
Mn2 O4 1.948210 1_565
Mn2 O7 1.978302 1_455
Mn3 O5 1.933309 1_556
Mn3 O2 1.934032 1_556
Mn3 O7 1.953237 1_555
Mn3 O4 1.963790 1_555
Mn4 O2 1.904293 1_555
Mn4 O5 1.907552 1_555
Mn4 O3 1.962777 1_555
Mn4 O6 2.009128 1_555
Mn5 O7 1.902353 1_555
Mn5 O4 1.908274 1_555
Mn5 O6 1.938042 1_555
Mn5 O3 1.985992 1_555
F0 Mg0 2.012273 1_565
F0 Mn1 2.156272 1_555
F0 Mn4 2.268056 1_555
F0 Mn0 2.637969 1_464
F1 Mg0 2.040023 1_555
F1 Mn1 2.178316 1_645
F1 Mn2 2.353542 1_645
F1 Mn5 2.459668 1_555
F2 Mn2 1.987624 1_645
F2 Mn0 2.198724 1_555
F2 Mn3 2.452528 1_555
