# generated using pymatgen
data_Na4HfMgSi2SO12
_symmetry_space_group_name_H-M   'P 1'
_cell_length_a   9.14882872
_cell_length_b   9.19693180
_cell_length_c   22.23009758
_cell_angle_alpha   89.97005046
_cell_angle_beta   90.00000000
_cell_angle_gamma   119.82713203
_symmetry_Int_Tables_number   1
_chemical_formula_structural   Na4HfMgSi2SO12
_chemical_formula_sum   'Na24 Hf6 Mg6 Si12 S6 O72'
_cell_volume   1622.68515894
_cell_formula_units_Z   6
loop_
 _symmetry_equiv_pos_site_id
 _symmetry_equiv_pos_as_xyz
  1  'x, y, z'
loop_
 _atom_site_type_symbol
 _atom_site_label
 _atom_site_symmetry_multiplicity
 _atom_site_fract_x
 _atom_site_fract_y
 _atom_site_fract_z
 _atom_site_occupancy
  Na  Na0  1  0.64616297  0.02583124  0.25658768  1
  Na  Na1  1  0.35982972  0.34527200  0.24040925  1
  Na  Na2  1  0.99346884  0.61997799  0.23760549  1
  Na  Na3  1  0.62650915  0.61997799  0.73760549  1
  Na  Na4  1  0.98544228  0.34527200  0.74040925  1
  Na  Na5  1  0.37966826  0.02583124  0.75658768  1
  Na  Na6  1  0.31282997  0.35916424  0.58992068  1
  Na  Na7  1  0.02649672  0.67860500  0.57374225  1
  Na  Na8  1  0.66013584  0.95331099  0.57093849  1
  Na  Na9  1  0.29317615  0.95331099  0.07093849  1
  Na  Na10  1  0.65210928  0.67860500  0.07374225  1
  Na  Na11  1  0.04633526  0.35916424  0.08992068  1
  Na  Na12  1  0.97949597  0.69249824  0.92325468  1
  Na  Na13  1  0.69316272  0.01193900  0.90707625  1
  Na  Na14  1  0.32680184  0.28664499  0.90427249  1
  Na  Na15  1  0.95984215  0.28664499  0.40427249  1
  Na  Na16  1  0.31877528  0.01193900  0.40707625  1
  Na  Na17  1  0.71300126  0.69249824  0.42325468  1
  Na  Na18  1  0.97873607  0.98499059  0.49393307  1
  Na  Na19  1  0.00625452  0.98499059  0.99393307  1
  Na  Na20  1  0.64540307  0.31832359  0.82726607  1
  Na  Na21  1  0.67292152  0.31832359  0.32726607  1
  Na  Na22  1  0.31206907  0.65165759  0.16060007  1
  Na  Na23  1  0.33958752  0.65165759  0.66060007  1
  Hf  Hf0  1  0.98974872  0.00550129  0.64744023  1
  Hf  Hf1  1  0.01575257  0.00550129  0.14744023  1
  Hf  Hf2  1  0.65641572  0.33883429  0.98077323  1
  Hf  Hf3  1  0.68241957  0.33883429  0.48077323  1
  Hf  Hf4  1  0.32308172  0.67216829  0.31410723  1
  Hf  Hf5  1  0.34908557  0.67216829  0.81410723  1
  Mg  Mg0  1  0.00198890  0.00238682  0.35137630  1
  Mg  Mg1  1  0.00039793  0.00238682  0.85137630  1
  Mg  Mg2  1  0.66865590  0.33571982  0.68470930  1
  Mg  Mg3  1  0.66706493  0.33571982  0.18470930  1
  Mg  Mg4  1  0.33532190  0.66905382  0.01804330  1
  Mg  Mg5  1  0.33373093  0.66905382  0.51804330  1
  Si  Si0  1  0.30135608  0.00446254  0.25369813  1
  Si  Si1  1  0.00007982  0.29529477  0.25262476  1
  Si  Si2  1  0.29521495  0.29529477  0.75262476  1
  Si  Si3  1  0.70310646  0.00446254  0.75369813  1
  Si  Si4  1  0.96802308  0.33779554  0.58703113  1
  Si  Si5  1  0.66674682  0.62862777  0.58595776  1
  Si  Si6  1  0.96188195  0.62862777  0.08595776  1
  Si  Si7  1  0.36977346  0.33779554  0.08703113  1
  Si  Si8  1  0.63468908  0.67112954  0.92036513  1
  Si  Si9  1  0.33341282  0.96196177  0.91929176  1
  Si  Si10  1  0.62854795  0.96196177  0.41929176  1
  Si  Si11  1  0.03643946  0.67112954  0.42036513  1
  S  S0  1  0.70575471  0.70811515  0.25199876  1
  S  S1  1  0.00236044  0.70811515  0.75199876  1
  S  S2  1  0.37242171  0.04144815  0.58533176  1
  S  S3  1  0.66902744  0.04144815  0.08533176  1
  S  S4  1  0.03908771  0.37478215  0.91866576  1
  S  S5  1  0.33569344  0.37478215  0.41866576  1
  O  O0  1  0.21034617  0.02428910  0.31237919  1
  O  O1  1  0.80394090  0.79182217  0.30588001  1
  O  O2  1  0.97542547  0.18328349  0.31137965  1
  O  O3  1  0.20785802  0.18328349  0.81137965  1
  O  O4  1  0.98788127  0.79182217  0.80588001  1
  O  O5  1  0.81394293  0.02428910  0.81237919  1
  O  O6  1  0.79536683  0.97347313  0.69372193  1
  O  O7  1  0.17746548  0.19629237  0.69248599  1
  O  O8  1  0.02529435  0.81095344  0.69669029  1
  O  O9  1  0.78565909  0.81095344  0.19669029  1
  O  O10  1  0.01882688  0.19629237  0.19248599  1
  O  O11  1  0.17810630  0.97347313  0.19372193  1
  O  O12  1  0.87701317  0.35762210  0.64571219  1
  O  O13  1  0.47060790  0.12515517  0.63921301  1
  O  O14  1  0.64209247  0.51661649  0.64471265  1
  O  O15  1  0.87452502  0.51661649  0.14471265  1
  O  O16  1  0.65454827  0.12515517  0.13921301  1
  O  O17  1  0.48060993  0.35762210  0.14571219  1
  O  O18  1  0.46203383  0.30680613  0.02705493  1
  O  O19  1  0.84413248  0.52962537  0.02581899  1
  O  O20  1  0.69196135  0.14428644  0.03002329  1
  O  O21  1  0.45232609  0.14428644  0.53002329  1
  O  O22  1  0.68549388  0.52962537  0.52581899  1
  O  O23  1  0.84477330  0.30680613  0.52705493  1
  O  O24  1  0.54367917  0.69095610  0.97904619  1
  O  O25  1  0.13727390  0.45848917  0.97254701  1
  O  O26  1  0.30875847  0.84995049  0.97804665  1
  O  O27  1  0.54119102  0.84995049  0.47804665  1
  O  O28  1  0.32121427  0.45848917  0.47254701  1
  O  O29  1  0.14727593  0.69095610  0.47904619  1
  O  O30  1  0.12869983  0.64014013  0.36038893  1
  O  O31  1  0.51079848  0.86295937  0.35915299  1
  O  O32  1  0.35862735  0.47762044  0.36335729  1
  O  O33  1  0.11899209  0.47762044  0.86335729  1
  O  O34  1  0.35215988  0.86295937  0.85915299  1
  O  O35  1  0.51143930  0.64014013  0.86038893  1
  O  O36  1  0.00862635  0.83142969  0.41280361  1
  O  O37  1  0.81963219  0.99367413  0.41345697  1
  O  O38  1  0.18495261  0.20669295  0.41465391  1
  O  O39  1  0.02174034  0.20669295  0.91465391  1
  O  O40  1  0.17404194  0.99367413  0.91345697  1
  O  O41  1  0.82280334  0.83142969  0.91280361  1
  O  O42  1  0.98233975  0.16242600  0.58646411  1
  O  O43  1  0.19926498  0.02192577  0.58760956  1
  O  O44  1  0.84904548  0.81190535  0.58680110  1
  O  O45  1  0.96285988  0.81190535  0.08680110  1
  O  O46  1  0.82266079  0.02192577  0.08760956  1
  O  O47  1  0.18008625  0.16242600  0.08646411  1
  O  O48  1  0.67529335  0.16476269  0.74613661  1
  O  O49  1  0.48629919  0.32700713  0.74678997  1
  O  O50  1  0.85161961  0.54002595  0.74798691  1
  O  O51  1  0.68840734  0.54002595  0.24798691  1
  O  O52  1  0.84070894  0.32700713  0.24678997  1
  O  O53  1  0.48947034  0.16476269  0.24613661  1
  O  O54  1  0.64900675  0.49575900  0.91979711  1
  O  O55  1  0.86593198  0.35525877  0.92094256  1
  O  O56  1  0.51571248  0.14523835  0.92013410  1
  O  O57  1  0.62952688  0.14523835  0.42013410  1
  O  O58  1  0.48932779  0.35525877  0.42094256  1
  O  O59  1  0.84675325  0.49575900  0.41979711  1
  O  O60  1  0.34195935  0.49809669  0.07947061  1
  O  O61  1  0.15296519  0.66034113  0.08012397  1
  O  O62  1  0.51828561  0.87335995  0.08132091  1
  O  O63  1  0.35507334  0.87335995  0.58132091  1
  O  O64  1  0.50737494  0.66034113  0.58012397  1
  O  O65  1  0.15613634  0.49809669  0.57947061  1
  O  O66  1  0.31567275  0.82909300  0.25313111  1
  O  O67  1  0.53259798  0.68859277  0.25427656  1
  O  O68  1  0.18237848  0.47857235  0.25346810  1
  O  O69  1  0.29619288  0.47857235  0.75346810  1
  O  O70  1  0.15599379  0.68859277  0.75427656  1
  O  O71  1  0.51341925  0.82909300  0.75313111  1
loop_
_geom_bond_atom_site_label_1
_geom_bond_atom_site_label_2
_geom_bond_distance
_geom_bond_site_symmetry_2
Na0 O53 2.358708 1_555
Na0 O52 2.445974 1_555
Na0 O66 2.641938 1_545
Na0 O31 2.669664 1_545
Na0 O67 2.737945 1_545
Na0 O16 2.752509 1_555
Na0 O2 2.883990 1_555
Na1 O17 2.353799 1_555
Na1 O53 2.477394 1_555
Na1 O68 2.490614 1_555
Na1 O51 2.630081 1_555
Na1 O67 2.756719 1_555
Na1 O10 2.914547 1_555
Na1 O32 2.994760 1_555
Na1 O0 3.020529 1_555
Na2 O15 2.307626 1_555
Na2 O52 2.346981 1_555
Na2 O51 2.518275 1_555
Na2 O66 2.620772 1_655
Na2 O68 2.652939 1_655
Na2 O30 2.964368 1_655
Na2 O11 2.984666 1_655
Na3 O14 2.307628 1_555
Na3 O49 2.346981 1_555
Na3 O50 2.518283 1_555
Na3 O71 2.620779 1_555
Na3 O69 2.652947 1_555
Na3 O35 2.964372 1_555
Na3 O6 2.984666 1_555
Na4 O12 2.353795 1_555
Na4 O48 2.477387 1_555
Na4 O69 2.490606 1_655
Na4 O50 2.630074 1_555
Na4 O70 2.756719 1_655
Na4 O7 2.914547 1_655
Na4 O33 2.994758 1_655
Na4 O5 3.020529 1_555
Na5 O48 2.358716 1_555
Na5 O49 2.445973 1_555
Na5 O71 2.641930 1_545
Na5 O34 2.669662 1_545
Na5 O70 2.737947 1_545
Na5 O13 2.752510 1_555
Na5 O3 2.883990 1_555
Na6 O65 2.358722 1_555
Na6 O64 2.445978 1_555
Na6 O42 2.641938 1_455
Na6 O7 2.669664 1_555
Na6 O43 2.737945 1_555
Na6 O28 2.752492 1_555
Na6 O14 2.883990 1_555
Na7 O29 2.353773 1_555
Na7 O65 2.477380 1_555
Na7 O44 2.490614 1_455
Na7 O63 2.630076 1_555
Na7 O43 2.756719 1_565
Na7 O22 2.914547 1_455
Na7 O8 2.994760 1_555
Na7 O12 3.020529 1_455
Na8 O27 2.307607 1_555
Na8 O64 2.346975 1_555
Na8 O63 2.518288 1_555
Na8 O42 2.620772 1_565
Na8 O44 2.652939 1_555
Na8 O6 2.964368 1_555
Na8 O23 2.984666 1_565
Na9 O26 2.307602 1_554
Na9 O61 2.346975 1_555
Na9 O62 2.518270 1_555
Na9 O47 2.620779 1_565
Na9 O45 2.652947 1_455
Na9 O11 2.964372 1_555
Na9 O18 2.984666 1_565
Na10 O24 2.353781 1_554
Na10 O60 2.477394 1_555
Na10 O45 2.490606 1_555
Na10 O62 2.630091 1_555
Na10 O46 2.756719 1_565
Na10 O19 2.914547 1_555
Na10 O9 2.994758 1_555
Na10 O17 3.020529 1_555
Na11 O60 2.358706 1_555
Na11 O61 2.445981 1_555
Na11 O47 2.641930 1_555
Na11 O10 2.669662 1_555
Na11 O46 2.737947 1_455
Na11 O25 2.752490 1_554
Na11 O15 2.883990 1_455
Na12 O41 2.358708 1_555
Na12 O40 2.445974 1_655
Na12 O54 2.641932 1_555
Na12 O19 2.669646 1_556
Na12 O55 2.737956 1_555
Na12 O4 2.752509 1_555
Na12 O26 2.883990 1_655
Na13 O5 2.353799 1_555
Na13 O41 2.477394 1_545
Na13 O56 2.490596 1_555
Na13 O39 2.630081 1_655
Na13 O55 2.756709 1_555
Na13 O34 2.914547 1_545
Na13 O20 2.994734 1_556
Na13 O24 3.020529 1_545
Na14 O3 2.307626 1_555
Na14 O40 2.346981 1_545
Na14 O39 2.518275 1_555
Na14 O54 2.620775 1_555
Na14 O56 2.652952 1_555
Na14 O18 2.964353 1_556
Na14 O35 2.984666 1_555
Na15 O2 2.307628 1_555
Na15 O37 2.346981 1_545
Na15 O38 2.518283 1_655
Na15 O59 2.620761 1_555
Na15 O57 2.652936 1_555
Na15 O23 2.964346 1_555
Na15 O30 2.984666 1_655
Na16 O0 2.353795 1_555
Na16 O36 2.477387 1_545
Na16 O57 2.490612 1_555
Na16 O38 2.630074 1_555
Na16 O58 2.756709 1_555
Na16 O31 2.914547 1_545
Na16 O21 2.994737 1_555
Na16 O29 3.020529 1_545
Na17 O36 2.358716 1_655
Na17 O37 2.445973 1_555
Na17 O59 2.641947 1_555
Na17 O22 2.669649 1_555
Na17 O58 2.737953 1_555
Na17 O1 2.752510 1_555
Na17 O27 2.883990 1_555
Na18 O37 2.332632 1_555
Na18 O36 2.389322 1_655
Na18 O44 2.514263 1_555
Na18 O42 2.616331 1_565
Na18 O38 2.644313 1_665
Na18 O43 2.800275 1_665
Na19 O40 2.332632 1_555
Na19 O41 2.389322 1_455
Na19 O45 2.514263 1_456
Na19 O47 2.616331 1_566
Na19 O39 2.644313 1_565
Na19 O46 2.800275 1_466
Na20 O49 2.332632 1_555
Na20 O48 2.389322 1_555
Na20 O56 2.514263 1_555
Na20 O54 2.616331 1_555
Na20 O50 2.644313 1_555
Na20 O55 2.800275 1_555
Na21 O52 2.332632 1_555
Na21 O53 2.389322 1_555
Na21 O57 2.514263 1_555
Na21 O59 2.616331 1_555
Na21 O51 2.644313 1_555
Na21 O58 2.800275 1_555
Na22 O61 2.332632 1_555
Na22 O60 2.389322 1_555
Na22 O68 2.514263 1_555
Na22 O66 2.616331 1_555
Na22 O62 2.644313 1_555
Na22 O67 2.800275 1_555
Na23 O64 2.332632 1_555
Na23 O65 2.389322 1_555
Na23 O69 2.514263 1_555
Na23 O71 2.616331 1_555
Na23 O63 2.644313 1_555
Na23 O70 2.800275 1_555
Hf0 O6 1.945884 1_545
Hf0 O42 2.005034 1_555
Hf0 O7 2.008787 1_655
Hf0 O44 2.089706 1_545
Hf0 O8 2.254458 1_645
Hf0 O43 2.275482 1_655
Hf1 O11 1.945884 1_545
Hf1 O47 2.005034 1_555
Hf1 O10 2.008787 1_555
Hf1 O45 2.089706 1_445
Hf1 O9 2.254458 1_445
Hf1 O46 2.275482 1_455
Hf2 O18 1.945884 1_556
Hf2 O54 2.005034 1_555
Hf2 O19 2.008787 1_556
Hf2 O56 2.089706 1_555
Hf2 O20 2.254458 1_556
Hf2 O55 2.275482 1_555
Hf3 O23 1.945884 1_555
Hf3 O59 2.005034 1_555
Hf3 O22 2.008787 1_555
Hf3 O57 2.089706 1_555
Hf3 O21 2.254458 1_555
Hf3 O58 2.275482 1_555
Hf4 O30 1.945884 1_555
Hf4 O66 2.005034 1_555
Hf4 O31 2.008787 1_555
Hf4 O68 2.089706 1_555
Hf4 O32 2.254458 1_555
Hf4 O67 2.275482 1_555
Hf5 O35 1.945884 1_555
Hf5 O71 2.005034 1_555
Hf5 O34 2.008787 1_555
Hf5 O69 2.089706 1_555
Hf5 O33 2.254458 1_555
Hf5 O70 2.275482 1_555
Mg0 O2 2.004532 1_455
Mg0 O0 2.010883 1_555
Mg0 O36 2.105510 1_545
Mg0 O37 2.135714 1_445
Mg0 O1 2.137214 1_445
Mg0 O38 2.277111 1_555
Mg1 O3 2.004532 1_555
Mg1 O5 2.010883 1_455
Mg1 O41 2.105510 1_445
Mg1 O40 2.135714 1_545
Mg1 O4 2.137214 1_445
Mg1 O39 2.277111 1_555
Mg2 O14 2.004532 1_555
Mg2 O12 2.010883 1_555
Mg2 O48 2.105510 1_555
Mg2 O49 2.135714 1_555
Mg2 O13 2.137214 1_555
Mg2 O50 2.277111 1_555
Mg3 O15 2.004532 1_555
Mg3 O17 2.010883 1_555
Mg3 O53 2.105510 1_555
Mg3 O52 2.135714 1_555
Mg3 O16 2.137214 1_555
Mg3 O51 2.277111 1_555
Mg4 O26 2.004532 1_554
Mg4 O24 2.010883 1_554
Mg4 O60 2.105510 1_555
Mg4 O61 2.135714 1_555
Mg4 O25 2.137214 1_554
Mg4 O62 2.277111 1_555
Mg5 O27 2.004532 1_555
Mg5 O29 2.010883 1_555
Mg5 O65 2.105510 1_555
Mg5 O64 2.135714 1_555
Mg5 O28 2.137214 1_555
Mg5 O63 2.277111 1_555
O0 Si0 1.606080 1_555
O1 S0 1.465371 1_555
O2 Si1 1.607956 1_655
O3 Si2 1.607956 1_555
O4 S1 1.465371 1_655
O5 Si3 1.606080 1_555
O6 Si3 1.676611 1_565
O7 Si2 1.674025 1_555
O8 S1 1.500544 1_555
O9 S0 1.500544 1_555
O10 Si1 1.674025 1_555
O11 Si0 1.676611 1_565
O12 Si4 1.606080 1_555
O13 S2 1.465371 1_555
O14 Si5 1.607956 1_555
O15 Si6 1.607956 1_555
O16 S3 1.465371 1_555
O17 Si7 1.606080 1_555
O18 Si7 1.676611 1_555
O19 Si6 1.674025 1_555
O20 S3 1.500544 1_555
O21 S2 1.500544 1_555
O22 Si5 1.674025 1_555
O23 Si4 1.676611 1_555
O24 Si8 1.606080 1_555
O25 S4 1.465371 1_555
O26 Si9 1.607956 1_555
O27 Si10 1.607956 1_555
O28 S5 1.465371 1_555
O29 Si11 1.606080 1_555
O30 Si11 1.676611 1_555
O31 Si10 1.674025 1_555
O32 S5 1.500544 1_555
O33 S4 1.500544 1_555
O34 Si9 1.674025 1_555
O35 Si8 1.676611 1_555
O36 Si11 1.624621 1_555
O37 Si10 1.628138 1_555
O38 S5 1.476155 1_555
O39 S4 1.476158 1_555
O40 Si9 1.628129 1_555
O41 Si8 1.624626 1_555
O42 Si4 1.681906 1_555
O43 S2 1.503820 1_555
O44 Si5 1.681269 1_555
O45 Si6 1.681274 1_555
O46 S3 1.503811 1_555
O47 Si7 1.681911 1_555
O48 Si3 1.624621 1_555
O49 Si2 1.628138 1_555
O50 S1 1.476155 1_655
O51 S0 1.476158 1_555
O52 Si1 1.628129 1_655
O53 Si0 1.624626 1_555
O54 Si8 1.681920 1_555
O55 S4 1.503807 1_655
O56 Si9 1.681269 1_545
O57 Si10 1.681260 1_545
O58 S5 1.503825 1_555
O59 Si11 1.681910 1_655
O60 Si7 1.624633 1_555
O61 Si6 1.628124 1_455
O62 S3 1.476152 1_565
O63 S2 1.476144 1_565
O64 Si5 1.628142 1_555
O65 Si4 1.624622 1_455
O66 Si0 1.681906 1_565
O67 S0 1.503820 1_555
O68 Si1 1.681269 1_555
O69 Si2 1.681274 1_555
O70 S1 1.503811 1_555
O71 Si3 1.681911 1_565
