# generated using pymatgen
data_MgMn6(OF)6
_symmetry_space_group_name_H-M   'P 1'
_cell_length_a   5.23648927
_cell_length_b   7.66203220
_cell_length_c   5.97344574
_cell_angle_alpha   95.44550993
_cell_angle_beta   100.57460998
_cell_angle_gamma   84.44733900
_symmetry_Int_Tables_number   1
_chemical_formula_structural   MgMn6(OF)6
_chemical_formula_sum   'Mg1 Mn6 O6 F6'
_cell_volume   233.76166508
_cell_formula_units_Z   1
loop_
 _symmetry_equiv_pos_site_id
 _symmetry_equiv_pos_as_xyz
  1  'x, y, z'
loop_
 _atom_site_type_symbol
 _atom_site_label
 _atom_site_symmetry_multiplicity
 _atom_site_fract_x
 _atom_site_fract_y
 _atom_site_fract_z
 _atom_site_occupancy
  Mg  Mg0  1  0.47470386  0.81136567  0.81265338  1
  Mn  Mn0  1  0.60765723  0.03377061  0.43361800  1
  Mn  Mn1  1  0.47636593  0.61005260  0.24261070  1
  Mn  Mn2  1  0.47429820  0.33717975  0.82156628  1
  Mn  Mn3  1  0.97922689  0.66329010  0.67198002  1
  Mn  Mn4  1  0.01056967  0.32069940  0.31506504  1
  Mn  Mn5  1  0.00625513  0.99682713  0.99954496  1
  O  O0  1  0.91018868  0.08552406  0.28042135  1
  O  O1  1  0.63764837  0.76491088  0.53059140  1
  O  O2  1  0.68618356  0.40048218  0.11824793  1
  O  O3  1  0.31861526  0.57834428  0.84885350  1
  O  O4  1  0.35010255  0.25861232  0.50537427  1
  O  O5  1  0.10056710  0.89481563  0.72068178  1
  F  F0  1  0.84363207  0.42956997  0.62372865  1
  F  F1  1  0.82673579  0.77242558  0.00120098  1
  F  F2  1  0.62976620  0.07921677  0.82100676  1
  F  F3  1  0.38283906  0.88968258  0.13897672  1
  F  F4  1  0.12018279  0.57033934  0.34593479  1
  F  F5  1  0.17835066  0.21955915  0.99413347  1
loop_
_geom_bond_atom_site_label_1
_geom_bond_atom_site_label_2
_geom_bond_distance
_geom_bond_site_symmetry_2
Mg0 O5 1.994536 1_555
Mg0 O1 2.012120 1_555
Mg0 O3 2.079207 1_555
Mn0 O0 2.055944 1_555
Mn0 O4 2.143107 1_555
Mn0 O1 2.175856 1_545
Mn1 O2 2.017216 1_555
Mn1 O1 2.086535 1_555
Mn1 O3 2.343281 1_554
Mn2 O4 1.939551 1_555
Mn2 O3 1.950811 1_555
Mn2 O2 1.956105 1_556
Mn3 O5 1.920317 1_655
Mn3 O1 1.954416 1_555
Mn3 O3 1.978851 1_655
Mn4 O0 1.907523 1_455
Mn4 O2 1.960553 1_455
Mn4 O4 1.968981 1_555
Mn5 O0 1.886037 1_466
Mn5 O5 1.899935 1_555
F0 Mn3 1.966490 1_555
F0 Mn4 2.240110 1_655
F0 Mn2 2.626920 1_555
F1 Mg0 1.987713 1_554
F1 Mn5 2.039476 1_654
F1 Mn3 2.310703 1_554
F2 Mn2 2.063435 1_555
F2 Mn5 2.130227 1_645
F2 Mg0 2.271971 1_545
F2 Mn0 2.290415 1_555
F3 Mg0 2.111269 1_554
F3 Mn5 2.114240 1_554
F3 Mn0 2.196517 1_565
F3 Mn1 2.269566 1_555
F4 Mn4 2.031932 1_555
F4 Mn1 2.126099 1_555
F4 Mn3 2.237826 1_455
F5 Mn5 2.011060 1_545
F5 Mn4 2.291736 1_556
F5 Mn2 2.304204 1_555
