# generated using pymatgen
data_Na2Ca4Hf4SiS11O48
_symmetry_space_group_name_H-M   'P 1'
_cell_length_a   18.11292959
_cell_length_b   9.05918173
_cell_length_c   23.67630158
_cell_angle_alpha   89.92461809
_cell_angle_beta   89.95131423
_cell_angle_gamma   119.97053610
_symmetry_Int_Tables_number   1
_chemical_formula_structural   Na2Ca4Hf4SiS11O48
_chemical_formula_sum   'Na6 Ca12 Hf12 Si3 S33 O144'
_cell_volume   3365.50311665
_cell_formula_units_Z   3
loop_
 _symmetry_equiv_pos_site_id
 _symmetry_equiv_pos_as_xyz
  1  'x, y, z'
loop_
 _atom_site_type_symbol
 _atom_site_label
 _atom_site_symmetry_multiplicity
 _atom_site_fract_x
 _atom_site_fract_y
 _atom_site_fract_z
 _atom_site_occupancy
  Na  Na0  1  0.99564025  0.97861873  0.49159444  1
  Na  Na1  1  0.49781784  0.00316509  0.00038402  1
  Na  Na2  1  0.33537381  0.32607899  0.83918521  1
  Na  Na3  1  0.84183721  0.34372414  0.83133421  1
  Na  Na4  1  0.34112300  0.33340398  0.32870208  1
  Na  Na5  1  0.84308470  0.34506932  0.34289365  1
  Ca  Ca0  1  0.00205944  0.99318300  0.35781743  1
  Ca  Ca1  1  0.00304073  0.00266821  0.85997926  1
  Ca  Ca2  1  0.33239171  0.33372195  0.68349258  1
  Ca  Ca3  1  0.83568399  0.33406600  0.68190305  1
  Ca  Ca4  1  0.33981508  0.33528823  0.18486835  1
  Ca  Ca5  1  0.83219490  0.32956631  0.18284132  1
  Ca  Ca6  1  0.33893984  0.33348784  0.98211118  1
  Ca  Ca7  1  0.83384798  0.33503760  0.98440996  1
  Ca  Ca8  1  0.33634163  0.33710952  0.48240015  1
  Ca  Ca9  1  0.83624391  0.33915963  0.48024310  1
  Ca  Ca10  1  0.66512736  0.66509265  0.52030721  1
  Ca  Ca11  1  0.16356950  0.66386683  0.80606337  1
  Hf  Hf0  1  0.49734747  0.00514731  0.35513729  1
  Hf  Hf1  1  0.49859215  0.00522991  0.85639247  1
  Hf  Hf2  1  0.99872783  0.99731422  0.65055295  1
  Hf  Hf3  1  0.49974817  0.99962636  0.64516859  1
  Hf  Hf4  1  0.00006384  0.00095380  0.14933807  1
  Hf  Hf5  1  0.50014749  0.00962008  0.15367166  1
  Hf  Hf6  1  0.16554276  0.66611878  0.01820374  1
  Hf  Hf7  1  0.66140592  0.65296422  0.01797556  1
  Hf  Hf8  1  0.16272039  0.66705528  0.51911249  1
  Hf  Hf9  1  0.15899953  0.66318372  0.31212777  1
  Hf  Hf10  1  0.66647857  0.66324233  0.31013137  1
  Hf  Hf11  1  0.66395058  0.65962244  0.81060779  1
  Si  Si0  1  0.49918174  0.29276423  0.25415571  1
  Si  Si1  1  0.52142950  0.37771941  0.91348068  1
  Si  Si2  1  0.01962828  0.66539696  0.41714266  1
  S  S0  1  0.14400129  0.99523947  0.24987818  1
  S  S1  1  0.64055750  0.99537672  0.25339939  1
  S  S2  1  0.35586353  0.71832751  0.25325098  1
  S  S3  1  0.85357227  0.71201655  0.25015178  1
  S  S4  1  0.00277749  0.29232369  0.25067474  1
  S  S5  1  0.14459585  0.28502123  0.74948999  1
  S  S6  1  0.64091763  0.28444625  0.75237389  1
  S  S7  1  0.99715627  0.71001971  0.75020381  1
  S  S8  1  0.50311995  0.72116164  0.75296814  1
  S  S9  1  0.36172868  0.00312609  0.75047064  1
  S  S10  1  0.85331376  0.99578219  0.75221926  1
  S  S11  1  0.48138973  0.32696981  0.58560638  1
  S  S12  1  0.98674673  0.32904577  0.58334335  1
  S  S13  1  0.18020941  0.03015175  0.58348064  1
  S  S14  1  0.68189990  0.03651588  0.58545357  1
  S  S15  1  0.33317712  0.63720182  0.58335789  1
  S  S16  1  0.83781714  0.64127969  0.58561256  1
  S  S17  1  0.48729057  0.64588989  0.08252556  1
  S  S18  1  0.98616105  0.64100700  0.08372424  1
  S  S19  1  0.33423241  0.02365433  0.08282351  1
  S  S20  1  0.83299960  0.02582994  0.08344159  1
  S  S21  1  0.18074957  0.33343130  0.08376983  1
  S  S22  1  0.67909998  0.32847939  0.08293224  1
  S  S23  1  0.31263845  0.67168206  0.91572863  1
  S  S24  1  0.80486504  0.66427068  0.91548809  1
  S  S25  1  0.02214506  0.38164330  0.91756134  1
  S  S26  1  0.16762736  0.95251680  0.91750283  1
  S  S27  1  0.66429808  0.94742243  0.91346017  1
  S  S28  1  0.30844409  0.94619735  0.41376397  1
  S  S29  1  0.80857941  0.95449724  0.41412995  1
  S  S30  1  0.16955880  0.39132815  0.41625065  1
  S  S31  1  0.66419645  0.37348983  0.41228931  1
  S  S32  1  0.52206096  0.66984524  0.41098468  1
  O  O0  1  0.10578117  0.01990470  0.30009389  1
  O  O1  1  0.59491525  0.01161963  0.30256405  1
  O  O2  1  0.41100756  0.80468385  0.30274767  1
  O  O3  1  0.90541199  0.78717182  0.29985427  1
  O  O4  1  0.49190316  0.16508656  0.30582923  1
  O  O5  1  0.99085525  0.19116549  0.30069358  1
  O  O6  1  0.10499550  0.18630288  0.80064246  1
  O  O7  1  0.59480805  0.17612321  0.80268816  1
  O  O8  1  0.49463135  0.81146784  0.80309544  1
  O  O9  1  0.98727163  0.78966691  0.80108780  1
  O  O10  1  0.41485960  0.01550963  0.80208340  1
  O  O11  1  0.90490295  0.02023595  0.80213186  1
  O  O12  1  0.40874007  0.99207281  0.70024454  1
  O  O13  1  0.89576834  0.97575145  0.70005314  1
  O  O14  1  0.09037527  0.18526902  0.69855950  1
  O  O15  1  0.58982405  0.20493038  0.70113393  1
  O  O16  1  0.00007413  0.81523278  0.69880525  1
  O  O17  1  0.51355482  0.82376298  0.70140626  1
  O  O18  1  0.39939332  0.82258161  0.20116006  1
  O  O19  1  0.89776806  0.82218369  0.19861574  1
  O  O20  1  0.01241849  0.20309816  0.19911716  1
  O  O21  1  0.51110233  0.19568924  0.19706614  1
  O  O22  1  0.08778127  0.97108885  0.19895269  1
  O  O23  1  0.58835408  0.97077445  0.20087430  1
  O  O24  1  0.44045435  0.35233669  0.63521348  1
  O  O25  1  0.95286804  0.36547618  0.63393149  1
  O  O26  1  0.23229075  0.10138113  0.63379128  1
  O  O27  1  0.73443738  0.11726671  0.63548514  1
  O  O28  1  0.31456479  0.52959579  0.63332369  1
  O  O29  1  0.82746450  0.53895799  0.63617015  1
  O  O30  1  0.45331524  0.53970571  0.13277990  1
  O  O31  1  0.95142584  0.53049244  0.13308807  1
  O  O32  1  0.31584938  0.09246931  0.13285441  1
  O  O33  1  0.81261953  0.09493676  0.13318778  1
  O  O34  1  0.23522668  0.37638449  0.13340117  1
  O  O35  1  0.73056522  0.35763094  0.13326281  1
  O  O36  1  0.21408270  0.29116048  0.03407675  1
  O  O37  1  0.71475580  0.29453529  0.03242076  1
  O  O38  1  0.43335292  0.57521612  0.03266045  1
  O  O39  1  0.93149355  0.57414768  0.03405481  1
  O  O40  1  0.35549410  0.13221904  0.03279702  1
  O  O41  1  0.85440057  0.13766312  0.03413524  1
  O  O42  1  0.21514200  0.13762066  0.53312290  1
  O  O43  1  0.71522654  0.14348010  0.53499776  1
  O  O44  1  0.35381469  0.56905000  0.53360960  1
  O  O45  1  0.85802341  0.57396331  0.53503336  1
  O  O46  1  0.42781181  0.28738691  0.53486775  1
  O  O47  1  0.93271710  0.28947580  0.53367771  1
  O  O48  1  0.27174487  0.69590964  0.96763843  1
  O  O49  1  0.75961075  0.67707783  0.96715261  1
  O  O50  1  0.07604400  0.48137251  0.96887351  1
  O  O51  1  0.57937805  0.47110965  0.97063153  1
  O  O52  1  0.16525307  0.84638474  0.96909828  1
  O  O53  1  0.65377131  0.84625128  0.96548571  1
  O  O54  1  0.26973114  0.84696521  0.46604889  1
  O  O55  1  0.76902744  0.85785523  0.46558330  1
  O  O56  1  0.16812496  0.48545993  0.46771522  1
  O  O57  1  0.64857579  0.43823834  0.46400994  1
  O  O58  1  0.08009006  0.66784678  0.47116232  1
  O  O59  1  0.56789365  0.69762019  0.46363428  1
  O  O60  1  0.07594771  0.66048662  0.36015283  1
  O  O61  1  0.57123987  0.65436757  0.36216353  1
  O  O62  1  0.25632401  0.85651300  0.36329637  1
  O  O63  1  0.75700329  0.85386211  0.36293620  1
  O  O64  1  0.17596616  0.49358923  0.36412141  1
  O  O65  1  0.67273452  0.48634341  0.36294619  1
  O  O66  1  0.06188599  0.48043904  0.86661782  1
  O  O67  1  0.57762421  0.49624973  0.85947292  1
  O  O68  1  0.17852564  0.87381786  0.86676993  1
  O  O69  1  0.67341586  0.86128999  0.86276384  1
  O  O70  1  0.26503088  0.65649524  0.86498625  1
  O  O71  1  0.75320129  0.65451175  0.86429096  1
  O  O72  1  0.01954386  0.84170617  0.42144503  1
  O  O73  1  0.51261946  0.82171556  0.39901944  1
  O  O74  1  0.39352073  0.95768513  0.40675483  1
  O  O75  1  0.89500712  0.97896149  0.40981227  1
  O  O76  1  0.09039345  0.22801035  0.41522703  1
  O  O77  1  0.58730767  0.19985713  0.40178215  1
  O  O78  1  0.01823083  0.21727189  0.91877113  1
  O  O79  1  0.51834488  0.18993140  0.90729947  1
  O  O80  1  0.08753016  0.95402286  0.91881500  1
  O  O81  1  0.58402441  0.95751010  0.90729196  1
  O  O82  1  0.40105185  0.83399183  0.91167696  1
  O  O83  1  0.88732213  0.81724408  0.91293779  1
  O  O84  1  0.48997355  0.16954919  0.59760825  1
  O  O85  1  0.99912843  0.17785701  0.59472566  1
  O  O86  1  0.09146834  0.00175974  0.59384810  1
  O  O87  1  0.59410577  0.01951931  0.59851511  1
  O  O88  1  0.40942308  0.81139263  0.59654438  1
  O  O89  1  0.91667791  0.81940796  0.59539749  1
  O  O90  1  0.50081183  0.82183560  0.09276043  1
  O  O91  1  0.99912864  0.81528403  0.09735927  1
  O  O92  1  0.40954339  0.99514105  0.09352175  1
  O  O93  1  0.90849812  0.00327431  0.09746384  1
  O  O94  1  0.09264531  0.18531644  0.09793252  1
  O  O95  1  0.59074894  0.17575184  0.09169021  1
  O  O96  1  0.35757396  0.16019107  0.74852060  1
  O  O97  1  0.83889269  0.14060025  0.74494275  1
  O  O98  1  0.22985511  0.30305480  0.74319246  1
  O  O99  1  0.72533597  0.30199878  0.75030059  1
  O  O100  1  0.42853658  0.55118900  0.74946395  1
  O  O101  1  0.92141669  0.53787276  0.74502553  1
  O  O102  1  0.34623496  0.54897715  0.24805368  1
  O  O103  1  0.83881097  0.53946161  0.24055859  1
  O  O104  1  0.41631370  0.31127558  0.25211326  1
  O  O105  1  0.93080272  0.32127350  0.24164545  1
  O  O106  1  0.22879245  0.14166574  0.24049739  1
  O  O107  1  0.72464118  0.14709737  0.24809149  1
  O  O108  1  0.32571055  0.52642821  0.92320755  1
  O  O109  1  0.80801951  0.50528936  0.91807167  1
  O  O110  1  0.42880108  0.35596689  0.91391531  1
  O  O111  1  0.93650410  0.36375229  0.92387885  1
  O  O112  1  0.24219900  0.12413126  0.92430530  1
  O  O113  1  0.73821518  0.11873234  0.91735253  1
  O  O114  1  0.31886238  0.11708222  0.41687254  1
  O  O115  1  0.80992846  0.11859984  0.41291202  1
  O  O116  1  0.24651905  0.37559118  0.41783734  1
  O  O117  1  0.73984231  0.35473405  0.41271456  1
  O  O118  1  0.43657226  0.51599573  0.41141552  1
  O  O119  1  0.92982542  0.49235354  0.41442014  1
  O  O120  1  0.16651210  0.48065749  0.06976908  1
  O  O121  1  0.66841539  0.48091475  0.07305659  1
  O  O122  1  0.07366690  0.66759194  0.07083612  1
  O  O123  1  0.57462522  0.66940646  0.07019227  1
  O  O124  1  0.25996940  0.85026742  0.07037571  1
  O  O125  1  0.75992461  0.85272589  0.06988070  1
  O  O126  1  0.17001776  0.85741839  0.57233338  1
  O  O127  1  0.66613258  0.86408217  0.57890526  1
  O  O128  1  0.26088193  0.66626699  0.57143593  1
  O  O129  1  0.76592324  0.66847029  0.57861340  1
  O  O130  1  0.07504410  0.47634732  0.57193536  1
  O  O131  1  0.56663603  0.46946440  0.57840145  1
  O  O132  1  0.15011603  0.83592922  0.25515713  1
  O  O133  1  0.64784587  0.84031161  0.26039539  1
  O  O134  1  0.27348918  0.71212446  0.26017773  1
  O  O135  1  0.76948242  0.70597763  0.25580420  1
  O  O136  1  0.08428743  0.46215665  0.25511731  1
  O  O137  1  0.58744239  0.47428718  0.26393755  1
  O  O138  1  0.14848410  0.44955359  0.74840233  1
  O  O139  1  0.64780602  0.45512712  0.75963059  1
  O  O140  1  0.07622526  0.70463349  0.74847308  1
  O  O141  1  0.58282430  0.71181676  0.76038070  1
  O  O142  1  0.28022044  0.84838763  0.75333921  1
  O  O143  1  0.76817583  0.83466024  0.75823493  1
loop_
_geom_bond_atom_site_label_1
_geom_bond_atom_site_label_2
_geom_bond_distance
_geom_bond_site_symmetry_2
Na0 O72 2.241672 1_655
Na0 O75 2.661458 1_555
Na0 O76 2.725627 1_665
Na0 O89 2.844239 1_555
Na0 O86 2.926228 1_665
Na0 O85 3.020253 1_565
Na1 O82 2.676344 1_544
Na1 O79 2.686704 1_554
Na1 O92 2.702217 1_545
Na1 O95 2.708666 1_555
Na1 O90 2.750398 1_545
Na1 O81 2.847619 1_544
Na2 O110 2.369830 1_555
Na2 O112 2.675161 1_555
Na2 O108 2.758375 1_555
Na2 O96 2.763839 1_555
Na2 O100 2.839566 1_555
Na2 O98 2.910693 1_555
Na3 O101 2.607589 1_555
Na3 O111 2.733254 1_555
Na3 O97 2.735830 1_555
Na3 O99 2.736518 1_555
Na3 O109 2.763394 1_555
Na3 O113 2.825830 1_555
Na4 O104 2.335114 1_555
Na4 O118 2.591777 1_555
Na4 O102 2.697721 1_555
Na4 O114 2.749401 1_555
Na4 O106 2.829117 1_555
Na4 O116 2.861184 1_555
Na5 O119 2.243354 1_555
Na5 O115 2.465037 1_555
Na5 O117 2.529052 1_555
Na5 O105 2.941841 1_555
Na5 O107 3.005283 1_555
Na5 O103 3.017126 1_555
Ca0 O72 2.163884 1_555
Ca0 O0 2.235246 1_565
Ca0 O75 2.244515 1_455
Ca0 O3 2.275423 1_455
Ca0 O5 2.333451 1_465
Ca0 O76 2.354510 1_565
Ca1 O6 2.252003 1_555
Ca1 O80 2.269907 1_545
Ca1 O9 2.281725 1_445
Ca1 O83 2.293333 1_445
Ca1 O78 2.294840 1_555
Ca1 O11 2.312381 1_455
Ca2 O24 2.198205 1_555
Ca2 O98 2.236830 1_555
Ca2 O28 2.287231 1_555
Ca2 O26 2.302096 1_555
Ca2 O96 2.400220 1_555
Ca2 O100 2.436917 1_555
Ca3 O27 2.199735 1_555
Ca3 O29 2.216073 1_555
Ca3 O101 2.280466 1_555
Ca3 O25 2.295171 1_555
Ca3 O97 2.323330 1_555
Ca3 O99 2.472832 1_555
Ca4 O104 2.192271 1_555
Ca4 O106 2.306642 1_555
Ca4 O30 2.315749 1_555
Ca4 O32 2.365985 1_555
Ca4 O102 2.404586 1_555
Ca4 O34 2.433027 1_555
Ca5 O105 2.296111 1_555
Ca5 O103 2.297139 1_555
Ca5 O33 2.297837 1_555
Ca5 O35 2.302520 1_555
Ca5 O31 2.329667 1_555
Ca5 O107 2.384333 1_555
Ca6 O110 2.227384 1_555
Ca6 O112 2.287178 1_555
Ca6 O40 2.322855 1_556
Ca6 O38 2.328333 1_556
Ca6 O108 2.338821 1_555
Ca6 O36 2.429595 1_556
Ca7 O111 2.256149 1_555
Ca7 O37 2.298659 1_556
Ca7 O41 2.319918 1_556
Ca7 O39 2.320424 1_556
Ca7 O109 2.404245 1_555
Ca7 O113 2.445933 1_555
Ca8 O46 2.288816 1_555
Ca8 O44 2.308279 1_555
Ca8 O42 2.356585 1_555
Ca8 O116 2.382149 1_555
Ca8 O118 2.407268 1_555
Ca8 O114 2.420499 1_555
Ca9 O119 2.206227 1_555
Ca9 O45 2.352202 1_555
Ca9 O47 2.375849 1_555
Ca9 O43 2.394727 1_555
Ca9 O115 2.412263 1_555
Ca9 O117 2.423915 1_555
Ca10 O55 2.230771 1_555
Ca10 O131 2.246298 1_555
Ca10 O127 2.269067 1_555
Ca10 O129 2.277815 1_555
Ca10 O57 2.341441 1_555
Ca10 O59 2.347454 1_555
Ca11 O140 2.254906 1_555
Ca11 O66 2.267249 1_555
Ca11 O138 2.277158 1_555
Ca11 O68 2.291255 1_555
Ca11 O142 2.297414 1_555
Ca11 O70 2.335551 1_555
Hf0 O4 1.900128 1_555
Hf0 O77 2.030436 1_555
Hf0 O73 2.091068 1_545
Hf0 O74 2.098081 1_545
Hf0 O2 2.110440 1_545
Hf0 O1 2.137402 1_555
Hf1 O79 1.946380 1_555
Hf1 O10 2.026417 1_555
Hf1 O7 2.084739 1_555
Hf1 O82 2.119811 1_545
Hf1 O8 2.135138 1_545
Hf1 O81 2.168842 1_545
Hf2 O16 2.015418 1_655
Hf2 O89 2.031568 1_555
Hf2 O14 2.032500 1_665
Hf2 O85 2.098736 1_565
Hf2 O13 2.126325 1_555
Hf2 O86 2.134072 1_665
Hf3 O87 1.965227 1_565
Hf3 O84 1.984200 1_565
Hf3 O88 2.032453 1_555
Hf3 O12 2.075041 1_555
Hf3 O17 2.183277 1_555
Hf3 O15 2.203462 1_565
Hf4 O94 2.067799 1_555
Hf4 O93 2.073119 1_455
Hf4 O91 2.078706 1_445
Hf4 O20 2.095079 1_555
Hf4 O22 2.099823 1_545
Hf4 O19 2.100109 1_445
Hf5 O21 1.899226 1_555
Hf5 O18 2.089901 1_545
Hf5 O23 2.118762 1_545
Hf5 O92 2.127902 1_545
Hf5 O95 2.152709 1_555
Hf5 O90 2.236251 1_545
Hf6 O52 2.005546 1_554
Hf6 O50 2.022571 1_554
Hf6 O120 2.082736 1_555
Hf6 O122 2.083535 1_555
Hf6 O124 2.095805 1_555
Hf6 O48 2.164030 1_554
Hf7 O51 1.933967 1_554
Hf7 O123 2.062147 1_555
Hf7 O49 2.065706 1_554
Hf7 O121 2.082978 1_555
Hf7 O125 2.180055 1_555
Hf7 O53 2.205937 1_554
Hf8 O58 1.882166 1_555
Hf8 O130 2.078616 1_555
Hf8 O126 2.087471 1_555
Hf8 O56 2.088722 1_555
Hf8 O128 2.170807 1_555
Hf8 O54 2.196797 1_555
Hf9 O60 1.875298 1_555
Hf9 O64 2.106593 1_555
Hf9 O136 2.125348 1_555
Hf9 O132 2.130894 1_555
Hf9 O62 2.137105 1_555
Hf9 O134 2.255099 1_555
Hf10 O137 1.932616 1_555
Hf10 O65 2.078722 1_555
Hf10 O61 2.087457 1_555
Hf10 O63 2.100910 1_555
Hf10 O135 2.134985 1_555
Hf10 O133 2.147161 1_555
Hf11 O67 1.911594 1_555
Hf11 O71 2.075842 1_555
Hf11 O139 2.107001 1_555
Hf11 O141 2.119591 1_555
Hf11 O69 2.141344 1_555
Hf11 O143 2.148466 1_555
O0 S0 1.447952 1_545
O1 S1 1.476634 1_545
O2 S2 1.485500 1_555
O3 S3 1.447504 1_555
O4 Si0 1.641853 1_555
O5 S4 1.444959 1_655
O6 S5 1.461444 1_555
O7 S6 1.501994 1_555
O8 S8 1.493121 1_555
O9 S7 1.461189 1_555
O10 S9 1.525284 1_555
O11 S10 1.454134 1_545
O12 S9 1.494325 1_565
O13 S10 1.512653 1_555
O14 S5 1.534072 1_555
O15 S6 1.478279 1_555
O16 S7 1.529281 1_455
O17 S8 1.486978 1_555
O18 S2 1.511959 1_555
O19 S3 1.524020 1_555
O20 S4 1.522239 1_555
O21 Si0 1.685039 1_555
O22 S0 1.522756 1_555
O23 S1 1.510783 1_555
O24 S11 1.466806 1_555
O25 S12 1.456773 1_555
O26 S13 1.456340 1_555
O27 S14 1.467164 1_555
O28 S15 1.459924 1_555
O29 S16 1.466385 1_555
O30 S17 1.457413 1_555
O31 S18 1.459625 1_555
O32 S19 1.453039 1_555
O33 S20 1.465446 1_555
O34 S21 1.457894 1_555
O35 S22 1.454469 1_555
O36 S21 1.458222 1_555
O37 S22 1.462864 1_555
O38 S17 1.461936 1_555
O39 S18 1.461138 1_555
O40 S19 1.461588 1_555
O41 S20 1.463974 1_555
O42 S13 1.466270 1_555
O43 S14 1.463476 1_555
O44 S15 1.462876 1_555
O45 S16 1.471086 1_555
O46 S11 1.472727 1_555
O47 S12 1.456547 1_555
O48 S23 1.506294 1_555
O49 S24 1.508415 1_555
O50 S25 1.539140 1_555
O51 Si1 1.663315 1_555
O52 S26 1.540799 1_555
O53 S27 1.488514 1_555
O54 S28 1.482583 1_555
O55 S29 1.460432 1_555
O56 S30 1.495793 1_555
O57 S31 1.445946 1_555
O58 Si2 1.677439 1_555
O59 S32 1.449224 1_555
O60 Si2 1.704815 1_555
O61 S32 1.507554 1_555
O62 S28 1.489036 1_555
O63 S29 1.525422 1_555
O64 S30 1.511402 1_555
O65 S31 1.507501 1_555
O66 S25 1.458082 1_555
O67 Si1 1.651156 1_555
O68 S26 1.460317 1_555
O69 S27 1.485842 1_555
O70 S23 1.445516 1_555
O71 S24 1.507443 1_555
O72 Si2 1.601359 1_555
O73 S32 1.495498 1_555
O74 S28 1.500768 1_555
O75 S29 1.470803 1_555
O76 S30 1.458159 1_555
O77 S31 1.512814 1_555
O78 S25 1.455192 1_555
O79 Si1 1.680579 1_555
O80 S26 1.457964 1_555
O81 S27 1.508924 1_555
O82 S23 1.543555 1_555
O83 S24 1.444468 1_555
O84 S11 1.535977 1_555
O85 S12 1.518183 1_555
O86 S13 1.515296 1_555
O87 S14 1.550004 1_555
O88 S15 1.523011 1_555
O89 S16 1.548099 1_555
O90 S17 1.506782 1_555
O91 S18 1.510956 1_555
O92 S19 1.531050 1_565
O93 S20 1.517169 1_555
O94 S21 1.522518 1_555
O95 S22 1.518144 1_555
O96 S9 1.462600 1_555
O97 S10 1.470014 1_545
O98 S5 1.476904 1_555
O99 S6 1.456935 1_555
O100 S8 1.457776 1_555
O101 S7 1.480667 1_555
O102 S2 1.460295 1_555
O103 S3 1.466337 1_555
O104 Si0 1.592168 1_555
O105 S4 1.468324 1_655
O106 S0 1.459748 1_545
O107 S1 1.460224 1_545
O108 S23 1.459351 1_555
O109 S24 1.470813 1_555
O110 Si1 1.588551 1_555
O111 S25 1.484331 1_655
O112 S26 1.473220 1_545
O113 S27 1.460868 1_545
O114 S28 1.464931 1_545
O115 S29 1.474824 1_545
O116 S30 1.470895 1_555
O117 S31 1.462516 1_555
O118 S32 1.477853 1_555
O119 Si2 1.600077 1_655
O120 S21 1.515882 1_555
O121 S22 1.505111 1_555
O122 S18 1.510265 1_455
O123 S17 1.515046 1_555
O124 S19 1.501459 1_565
O125 S20 1.497481 1_565
O126 S13 1.504980 1_565
O127 S14 1.449402 1_565
O128 S15 1.486155 1_555
O129 S16 1.450733 1_555
O130 S12 1.509148 1_455
O131 S11 1.444697 1_555
O132 S0 1.506660 1_555
O133 S1 1.484227 1_555
O134 S2 1.473781 1_555
O135 S3 1.502385 1_555
O136 S4 1.512986 1_555
O137 Si0 1.639702 1_555
O138 S5 1.456816 1_555
O139 S6 1.497964 1_555
O140 S7 1.457704 1_455
O141 S8 1.498225 1_555
O142 S9 1.442619 1_565
O143 S10 1.509658 1_555
