# generated using pymatgen
data_HfReSi2
_symmetry_space_group_name_H-M   'P 1'
_cell_length_a   8.09209700
_cell_length_b   9.18641800
_cell_length_c   10.08302700
_cell_angle_alpha   90.00000000
_cell_angle_beta   90.00000000
_cell_angle_gamma   90.00000000
_symmetry_Int_Tables_number   1
_chemical_formula_structural   HfReSi2
_chemical_formula_sum   'Hf12 Re12 Si24'
_cell_volume   749.54586549
_cell_formula_units_Z   12
loop_
 _symmetry_equiv_pos_site_id
 _symmetry_equiv_pos_as_xyz
  1  'x, y, z'
loop_
 _atom_site_type_symbol
 _atom_site_label
 _atom_site_symmetry_multiplicity
 _atom_site_fract_x
 _atom_site_fract_y
 _atom_site_fract_z
 _atom_site_occupancy
  Hf  Hf0  1  0.00000000  0.16982400  0.82120900  1
  Hf  Hf1  1  0.24780900  0.67492000  0.95088100  1
  Hf  Hf2  1  0.75219100  0.82508000  0.45088100  1
  Hf  Hf3  1  0.75219100  0.17492000  0.54911900  1
  Hf  Hf4  1  0.75219100  0.67492000  0.95088100  1
  Hf  Hf5  1  0.75219100  0.32508000  0.04911900  1
  Hf  Hf6  1  0.24780900  0.17492000  0.54911900  1
  Hf  Hf7  1  0.24780900  0.82508000  0.45088100  1
  Hf  Hf8  1  0.00000000  0.33017600  0.32120900  1
  Hf  Hf9  1  0.00000000  0.66982400  0.67879100  1
  Hf  Hf10  1  0.00000000  0.83017600  0.17879100  1
  Hf  Hf11  1  0.24780900  0.32508000  0.04911900  1
  Re  Re0  1  0.24921400  0.08517400  0.26212700  1
  Re  Re1  1  0.24921400  0.91482600  0.73787300  1
  Re  Re2  1  0.75078600  0.58517400  0.23787300  1
  Re  Re3  1  0.75078600  0.41482600  0.76212700  1
  Re  Re4  1  0.75078600  0.91482600  0.73787300  1
  Re  Re5  1  0.75078600  0.08517400  0.26212700  1
  Re  Re6  1  0.24921400  0.41482600  0.76212700  1
  Re  Re7  1  0.24921400  0.58517400  0.23787300  1
  Re  Re8  1  0.24441400  0.00000000  0.00000000  1
  Re  Re9  1  0.75558600  0.50000000  0.50000000  1
  Re  Re10  1  0.75558600  0.00000000  0.00000000  1
  Re  Re11  1  0.24441400  0.50000000  0.50000000  1
  Si  Si0  1  0.00000000  0.36817900  0.60162800  1
  Si  Si1  1  0.00000000  0.63182100  0.39837200  1
  Si  Si2  1  0.00000000  0.86817900  0.89837200  1
  Si  Si3  1  0.00000000  0.13182100  0.10162800  1
  Si  Si4  1  0.00000000  0.46557200  0.88636600  1
  Si  Si5  1  0.00000000  0.53442800  0.11363400  1
  Si  Si6  1  0.00000000  0.96557200  0.61363400  1
  Si  Si7  1  0.00000000  0.03442800  0.38636600  1
  Si  Si8  1  0.50000000  0.37547700  0.59609200  1
  Si  Si9  1  0.50000000  0.62452300  0.40390800  1
  Si  Si10  1  0.50000000  0.87547700  0.90390800  1
  Si  Si11  1  0.50000000  0.12452300  0.09609200  1
  Si  Si12  1  0.50000000  0.46199800  0.88630800  1
  Si  Si13  1  0.50000000  0.53800200  0.11369200  1
  Si  Si14  1  0.50000000  0.96199800  0.61369200  1
  Si  Si15  1  0.50000000  0.03800200  0.38630800  1
  Si  Si16  1  0.35398300  0.83386800  0.18082500  1
  Si  Si17  1  0.35398300  0.33386800  0.31917500  1
  Si  Si18  1  0.64601700  0.33386800  0.31917500  1
  Si  Si19  1  0.64601700  0.66613200  0.68082500  1
  Si  Si20  1  0.64601700  0.16613200  0.81917500  1
  Si  Si21  1  0.64601700  0.83386800  0.18082500  1
  Si  Si22  1  0.35398300  0.66613200  0.68082500  1
  Si  Si23  1  0.35398300  0.16613200  0.81917500  1
loop_
_geom_bond_atom_site_label_1
_geom_bond_atom_site_label_2
_geom_bond_distance
_geom_bond_site_symmetry_2
Hf0 Si4 2.795170 1_555
Hf0 Si6 2.810916 1_545
Hf0 Si3 2.848943 1_556
Hf0 Si23 2.864739 1_555
Hf0 Si20 2.864739 1_455
Hf0 Si0 2.867453 1_555
Hf0 Si2 2.878192 1_545
Hf0 Re6 3.080167 1_555
Hf0 Re3 3.080167 1_455
Hf0 Re8 3.097666 1_556
Hf0 Re10 3.097666 1_456
Hf0 Re4 3.203185 1_445
Hf0 Re1 3.203185 1_545
Hf1 Si2 2.730095 1_555
Hf1 Si10 2.789882 1_555
Hf1 Si4 2.853577 1_555
Hf1 Si22 2.856453 1_555
Hf1 Si16 2.871557 1_556
Hf1 Si5 2.894810 1_556
Hf1 Si12 2.900775 1_555
Hf1 Si13 2.905451 1_556
Hf1 Re7 3.008923 1_556
Hf1 Re8 3.027236 1_566
Hf1 Re6 3.054710 1_555
Hf1 Re1 3.077353 1_555
Hf2 Si1 2.730095 1_655
Hf2 Si9 2.789882 1_555
Hf2 Si7 2.853577 1_665
Hf2 Si21 2.856453 1_555
Hf2 Si19 2.871557 1_555
Hf2 Si6 2.894810 1_655
Hf2 Si15 2.900775 1_565
Hf2 Si14 2.905451 1_555
Hf2 Re4 3.008923 1_555
Hf2 Re9 3.027236 1_555
Hf2 Re5 3.054710 1_565
Hf2 Re2 3.077353 1_555
Hf3 Si0 2.730095 1_655
Hf3 Si8 2.789882 1_555
Hf3 Si6 2.853577 1_645
Hf3 Si20 2.856453 1_555
Hf3 Si18 2.871557 1_555
Hf3 Si7 2.894810 1_655
Hf3 Si14 2.900775 1_545
Hf3 Si15 2.905451 1_555
Hf3 Re5 3.008923 1_555
Hf3 Re9 3.027236 1_555
Hf3 Re4 3.054710 1_545
Hf3 Re3 3.077353 1_555
Hf4 Si2 2.730095 1_655
Hf4 Si10 2.789882 1_555
Hf4 Si4 2.853577 1_655
Hf4 Si19 2.856453 1_555
Hf4 Si21 2.871557 1_556
Hf4 Si5 2.894810 1_656
Hf4 Si12 2.900775 1_555
Hf4 Si13 2.905451 1_556
Hf4 Re2 3.008923 1_556
Hf4 Re10 3.027236 1_566
Hf4 Re3 3.054710 1_555
Hf4 Re4 3.077353 1_555
Hf5 Si3 2.730095 1_655
Hf5 Si11 2.789882 1_555
Hf5 Si5 2.853577 1_655
Hf5 Si18 2.856453 1_555
Hf5 Si20 2.871557 1_554
Hf5 Si4 2.894810 1_654
Hf5 Si13 2.900775 1_555
Hf5 Si12 2.905451 1_554
Hf5 Re3 3.008923 1_554
Hf5 Re10 3.027236 1_555
Hf5 Re2 3.054710 1_555
Hf5 Re5 3.077353 1_555
Hf6 Si0 2.730095 1_555
Hf6 Si8 2.789882 1_555
Hf6 Si6 2.853577 1_545
Hf6 Si23 2.856453 1_555
Hf6 Si17 2.871557 1_555
Hf6 Si7 2.894810 1_555
Hf6 Si14 2.900775 1_545
Hf6 Si15 2.905451 1_555
Hf6 Re0 3.008923 1_555
Hf6 Re11 3.027236 1_555
Hf6 Re1 3.054710 1_545
Hf6 Re6 3.077353 1_555
Hf7 Si1 2.730095 1_555
Hf7 Si9 2.789882 1_555
Hf7 Si7 2.853577 1_565
Hf7 Si16 2.856453 1_555
Hf7 Si22 2.871557 1_555
Hf7 Si6 2.894810 1_555
Hf7 Si15 2.900775 1_565
Hf7 Si14 2.905451 1_555
Hf7 Re1 3.008923 1_555
Hf7 Re11 3.027236 1_555
Hf7 Re0 3.054710 1_565
Hf7 Re7 3.077353 1_555
Hf8 Si7 2.795170 1_555
Hf8 Si5 2.810916 1_555
Hf8 Si0 2.848943 1_555
Hf8 Si17 2.864739 1_555
Hf8 Si18 2.864739 1_455
Hf8 Si3 2.867453 1_555
Hf8 Si1 2.878192 1_555
Hf8 Re0 3.080167 1_555
Hf8 Re5 3.080167 1_455
Hf8 Re9 3.097666 1_455
Hf8 Re11 3.097666 1_555
Hf8 Re2 3.203185 1_455
Hf8 Re7 3.203185 1_555
Hf9 Si6 2.795170 1_555
Hf9 Si4 2.810916 1_555
Hf9 Si1 2.848943 1_555
Hf9 Si22 2.864739 1_555
Hf9 Si19 2.864739 1_455
Hf9 Si2 2.867453 1_555
Hf9 Si0 2.878192 1_555
Hf9 Re1 3.080167 1_555
Hf9 Re4 3.080167 1_455
Hf9 Re9 3.097666 1_455
Hf9 Re11 3.097666 1_555
Hf9 Re6 3.203185 1_555
Hf9 Re3 3.203185 1_455
Hf10 Si5 2.795170 1_555
Hf10 Si7 2.810916 1_565
Hf10 Si2 2.848943 1_554
Hf10 Si16 2.864739 1_555
Hf10 Si21 2.864739 1_455
Hf10 Si1 2.867453 1_555
Hf10 Si3 2.878192 1_565
Hf10 Re7 3.080167 1_555
Hf10 Re2 3.080167 1_455
Hf10 Re10 3.097666 1_465
Hf10 Re8 3.097666 1_565
Hf10 Re0 3.203185 1_565
Hf10 Re5 3.203185 1_465
Hf11 Si3 2.730095 1_555
Hf11 Si11 2.789882 1_555
Hf11 Si5 2.853577 1_555
Hf11 Si17 2.856453 1_555
Hf11 Si23 2.871557 1_554
Hf11 Si4 2.894810 1_554
Hf11 Si13 2.900775 1_555
Hf11 Si12 2.905451 1_554
Hf11 Re6 3.008923 1_554
Hf11 Re8 3.027236 1_555
Hf11 Re7 3.054710 1_555
Hf11 Re0 3.077353 1_555
Re0 Si7 2.419405 1_555
Re0 Si15 2.423632 1_555
Re0 Si17 2.503811 1_555
Re0 Si16 2.592380 1_545
Re0 Si3 2.620975 1_555
Re0 Si11 2.655522 1_555
Re0 Re8 2.756693 1_555
Re1 Si6 2.419405 1_555
Re1 Si14 2.423632 1_555
Re1 Si22 2.503811 1_555
Re1 Si23 2.592380 1_565
Re1 Si2 2.620975 1_555
Re1 Si10 2.655522 1_555
Re1 Re8 2.756693 1_566
Re2 Si5 2.419405 1_655
Re2 Si13 2.423632 1_555
Re2 Si21 2.503811 1_555
Re2 Si18 2.592380 1_555
Re2 Si1 2.620975 1_655
Re2 Si9 2.655522 1_555
Re2 Re9 2.756693 1_555
Re3 Si4 2.419405 1_655
Re3 Si12 2.423632 1_555
Re3 Si20 2.503811 1_555
Re3 Si19 2.592380 1_555
Re3 Si0 2.620975 1_655
Re3 Si8 2.655522 1_555
Re3 Re9 2.756693 1_555
Re4 Si6 2.419405 1_655
Re4 Si14 2.423632 1_555
Re4 Si19 2.503811 1_555
Re4 Si20 2.592380 1_565
Re4 Si2 2.620975 1_655
Re4 Si10 2.655522 1_555
Re5 Si7 2.419405 1_655
Re5 Si15 2.423632 1_555
Re5 Si18 2.503811 1_555
Re5 Si21 2.592380 1_545
Re5 Si3 2.620975 1_655
Re5 Si11 2.655522 1_555
Re6 Si4 2.419405 1_555
Re6 Si12 2.423632 1_555
Re6 Si23 2.503811 1_555
Re6 Si22 2.592380 1_555
Re6 Si0 2.620975 1_555
Re6 Si8 2.655522 1_555
Re7 Si5 2.419405 1_555
Re7 Si13 2.423632 1_555
Re7 Si16 2.503811 1_555
Re7 Si17 2.592380 1_555
Re7 Si1 2.620975 1_555
Re7 Si9 2.655522 1_555
Re8 Si2 2.535401 1_544
Re8 Si3 2.535401 1_555
Re8 Si16 2.537633 1_545
Re8 Si23 2.537633 1_554
Re8 Si10 2.554384 1_544
Re8 Si11 2.554384 1_555
Re9 Si1 2.535401 1_655
Re9 Si0 2.535401 1_655
Re9 Si19 2.537633 1_555
Re9 Si18 2.537633 1_555
Re9 Si8 2.554384 1_555
Re9 Si9 2.554384 1_555
Re10 Si3 2.535401 1_655
Re10 Si2 2.535401 1_644
Re10 Si21 2.537633 1_545
Re10 Si20 2.537633 1_554
Re10 Si10 2.554384 1_544
Re10 Si11 2.554384 1_555
Re10 Re5 2.756693 1_555
Re10 Re4 2.756693 1_544
Re11 Si1 2.535401 1_555
Re11 Si0 2.535401 1_555
Re11 Si22 2.537633 1_555
Re11 Si17 2.537633 1_555
Re11 Si8 2.554384 1_555
Re11 Si9 2.554384 1_555
Re11 Re6 2.756693 1_555
Re11 Re7 2.756693 1_555
Si4 Si5 2.377247 1_556
Si6 Si7 2.377247 1_565
Si12 Si13 2.396675 1_556
Si14 Si15 2.396675 1_565
Si16 Si21 2.363167 1_555
Si17 Si18 2.363167 1_555
Si19 Si22 2.363167 1_555
Si20 Si23 2.363167 1_555
