# generated using pymatgen
data_LiCoPO4
_symmetry_space_group_name_H-M   'P 1'
_cell_length_a   8.01253200
_cell_length_b   8.69454000
_cell_length_c   17.27084227
_cell_angle_alpha   60.41123985
_cell_angle_beta   90.00000000
_cell_angle_gamma   90.00000000
_symmetry_Int_Tables_number   1
_chemical_formula_structural   LiCoPO4
_chemical_formula_sum   'Li12 Co12 P12 O48'
_cell_volume   1046.27378953
_cell_formula_units_Z   12
loop_
 _symmetry_equiv_pos_site_id
 _symmetry_equiv_pos_as_xyz
  1  'x, y, z'
loop_
 _atom_site_type_symbol
 _atom_site_label
 _atom_site_symmetry_multiplicity
 _atom_site_fract_x
 _atom_site_fract_y
 _atom_site_fract_z
 _atom_site_occupancy
  Li  Li0  1  0.51708300  0.36882400  0.91475900  1
  Li  Li1  1  0.84840600  0.00435300  0.24659800  1
  Li  Li2  1  0.49121400  0.74838300  0.56002900  1
  Li  Li3  1  0.48291700  0.63117600  0.08524100  1
  Li  Li4  1  0.15159400  0.99564700  0.75340200  1
  Li  Li5  1  0.98291700  0.36882400  0.41475900  1
  Li  Li6  1  0.99121400  0.25161700  0.93997100  1
  Li  Li7  1  0.50878600  0.25161700  0.43997100  1
  Li  Li8  1  0.01708300  0.63117600  0.58524100  1
  Li  Li9  1  0.65159400  0.00435300  0.74659800  1
  Li  Li10  1  0.34840600  0.99564700  0.25340200  1
  Li  Li11  1  0.00878600  0.74838300  0.06002900  1
  Co  Co0  1  0.83345500  0.31651400  0.76459800  1
  Co  Co1  1  0.65522300  0.01492600  0.07897200  1
  Co  Co2  1  0.65763900  0.64701300  0.40726700  1
  Co  Co3  1  0.15763900  0.35298700  0.09273300  1
  Co  Co4  1  0.84477700  0.01492600  0.57897200  1
  Co  Co5  1  0.34477700  0.98507400  0.92102800  1
  Co  Co6  1  0.34236100  0.35298700  0.59273300  1
  Co  Co7  1  0.84236100  0.64701300  0.90726700  1
  Co  Co8  1  0.66654500  0.31651400  0.26459800  1
  Co  Co9  1  0.33345500  0.68348600  0.73540200  1
  Co  Co10  1  0.16654500  0.68348600  0.23540200  1
  Co  Co11  1  0.15522300  0.98507400  0.42102800  1
  P  P0  1  0.73530000  0.96349500  0.92861900  1
  P  P1  1  0.22028500  0.31594200  0.77025500  1
  P  P2  1  0.25649900  0.64279900  0.41269800  1
  P  P3  1  0.27971500  0.31594200  0.27025500  1
  P  P4  1  0.26470000  0.03650500  0.07138100  1
  P  P5  1  0.72028500  0.68405800  0.72974500  1
  P  P6  1  0.75649900  0.35720100  0.08730200  1
  P  P7  1  0.77971500  0.68405800  0.22974500  1
  P  P8  1  0.74350100  0.35720100  0.58730200  1
  P  P9  1  0.23530000  0.03650500  0.57138100  1
  P  P10  1  0.76470000  0.96349500  0.42861900  1
  P  P11  1  0.24350100  0.64279900  0.91269800  1
  O  O0  1  0.25999700  0.84906400  0.36778400  1
  O  O1  1  0.87515800  0.41299600  0.63499900  1
  O  O2  1  0.28906600  0.56695900  0.01270100  1
  O  O3  1  0.06466700  0.12725600  0.53168700  1
  O  O4  1  0.28852000  0.91803400  0.53094800  1
  O  O5  1  0.75999700  0.15093600  0.13221600  1
  O  O6  1  0.93533300  0.87274400  0.46831300  1
  O  O7  1  0.71869100  0.08192400  0.82590900  1
  O  O8  1  0.78852000  0.08196600  0.96905200  1
  O  O9  1  0.74000300  0.15093600  0.63221600  1
  O  O10  1  0.22873400  0.22700300  0.71067300  1
  O  O11  1  0.27126600  0.22700300  0.21067300  1
  O  O12  1  0.27378200  0.51829000  0.20581700  1
  O  O13  1  0.72621800  0.48171000  0.79418300  1
  O  O14  1  0.71093400  0.43304100  0.98729900  1
  O  O15  1  0.07158500  0.57204900  0.90236600  1
  O  O16  1  0.21148000  0.91803400  0.03094800  1
  O  O17  1  0.72873400  0.77299700  0.78932700  1
  O  O18  1  0.21093400  0.56695900  0.51270100  1
  O  O19  1  0.36471300  0.24682400  0.83904100  1
  O  O20  1  0.28130900  0.91807600  0.17409100  1
  O  O21  1  0.05381300  0.26114300  0.82435500  1
  O  O22  1  0.78130900  0.08192400  0.32590900  1
  O  O23  1  0.24000300  0.84906400  0.86778400  1
  O  O24  1  0.43533300  0.12725600  0.03168700  1
  O  O25  1  0.63528700  0.75317600  0.16095900  1
  O  O26  1  0.42841500  0.57204900  0.40236600  1
  O  O27  1  0.37515800  0.58700400  0.86500100  1
  O  O28  1  0.57158500  0.42795100  0.59763400  1
  O  O29  1  0.94618700  0.73885700  0.17564500  1
  O  O30  1  0.92841500  0.42795100  0.09763400  1
  O  O31  1  0.77378200  0.48171000  0.29418300  1
  O  O32  1  0.77126600  0.77299700  0.28932700  1
  O  O33  1  0.13138700  0.18241600  0.04708500  1
  O  O34  1  0.36861300  0.18241600  0.54708500  1
  O  O35  1  0.22621800  0.51829000  0.70581700  1
  O  O36  1  0.21869100  0.91807600  0.67409100  1
  O  O37  1  0.56466700  0.87274400  0.96831300  1
  O  O38  1  0.13528700  0.24682400  0.33904100  1
  O  O39  1  0.63138700  0.81758400  0.45291500  1
  O  O40  1  0.78906600  0.43304100  0.48729900  1
  O  O41  1  0.86471300  0.75317600  0.66095900  1
  O  O42  1  0.44618700  0.26114300  0.32435500  1
  O  O43  1  0.62484200  0.41299600  0.13499900  1
  O  O44  1  0.86861300  0.81758400  0.95291500  1
  O  O45  1  0.12484200  0.58700400  0.36500100  1
  O  O46  1  0.71148000  0.08196600  0.46905200  1
  O  O47  1  0.55381300  0.73885700  0.67564500  1
loop_
_geom_bond_atom_site_label_1
_geom_bond_atom_site_label_2
_geom_bond_distance
_geom_bond_site_symmetry_2
Li0 O27 2.005071 1_555
Li0 O24 2.174838 1_556
Li0 O14 2.232633 1_555
Li0 O19 2.386556 1_555
Li0 O13 2.467681 1_555
Li1 O32 1.872683 1_545
Li1 O22 1.879493 1_555
Li1 O5 1.882088 1_555
Li2 O39 1.986597 1_555
Li2 O47 2.020463 1_555
Li2 O4 2.081839 1_555
Li3 O43 2.005071 1_555
Li3 O37 2.174838 1_554
Li3 O2 2.232633 1_555
Li3 O25 2.386556 1_555
Li3 O12 2.467681 1_555
Li4 O10 1.872683 1_565
Li4 O36 1.879493 1_555
Li4 O23 1.882088 1_555
Li5 O45 2.005071 1_655
Li5 O3 2.174838 1_655
Li5 O40 2.232633 1_555
Li5 O38 2.386556 1_655
Li5 O31 2.467681 1_555
Li6 O33 1.986597 1_656
Li6 O21 2.020463 1_655
Li6 O8 2.081839 1_555
Li7 O34 1.986597 1_555
Li7 O42 2.020463 1_555
Li7 O46 2.081839 1_555
Li8 O1 2.005071 1_455
Li8 O6 2.174838 1_455
Li8 O18 2.232633 1_555
Li8 O41 2.386556 1_455
Li8 O35 2.467681 1_555
Li9 O17 1.872683 1_545
Li9 O7 1.879493 1_555
Li9 O9 1.882088 1_555
Li10 O11 1.872683 1_565
Li10 O20 1.879493 1_555
Li10 O0 1.882088 1_555
Li11 O44 1.986597 1_454
Li11 O29 2.020463 1_455
Li11 O16 2.081839 1_555
Co0 O13 1.946044 1_555
Co0 O21 1.980826 1_655
Co0 O1 1.992746 1_555
Co0 O7 1.998534 1_555
Co1 O24 1.984271 1_555
Co1 O8 1.997917 1_554
Co1 O5 2.005660 1_555
Co1 O25 2.006845 1_545
Co2 O26 1.964637 1_555
Co2 O40 1.985217 1_555
Co2 O32 1.993591 1_555
Co2 O39 2.004947 1_555
Co3 O30 1.964637 1_455
Co3 O2 1.985217 1_555
Co3 O11 1.993591 1_555
Co3 O33 2.004947 1_555
Co4 O3 1.984271 1_655
Co4 O46 1.997917 1_555
Co4 O9 2.005660 1_555
Co4 O41 2.006845 1_545
Co5 O37 1.984271 1_555
Co5 O16 1.997917 1_556
Co5 O23 2.005660 1_555
Co5 O19 2.006845 1_565
Co6 O28 1.964637 1_555
Co6 O18 1.985217 1_555
Co6 O10 1.993591 1_555
Co6 O34 2.004947 1_555
Co7 O15 1.964637 1_655
Co7 O14 1.985217 1_555
Co7 O17 1.993591 1_555
Co7 O44 2.004947 1_555
Co8 O31 1.946044 1_555
Co8 O42 1.980826 1_555
Co8 O43 1.992746 1_555
Co8 O22 1.998534 1_555
Co9 O35 1.946044 1_555
Co9 O47 1.980826 1_555
Co9 O27 1.992746 1_555
Co9 O36 1.998534 1_555
Co10 O12 1.946044 1_555
Co10 O29 1.980826 1_455
Co10 O45 1.992746 1_555
Co10 O20 1.998534 1_555
Co11 O6 1.984271 1_455
Co11 O4 1.997917 1_555
Co11 O0 2.005660 1_555
Co11 O38 2.006845 1_565
O0 P2 1.563621 1_555
O1 P8 1.556083 1_555
O2 P11 1.557695 1_554
O3 P9 1.558081 1_555
O4 P9 1.562313 1_565
O5 P6 1.563621 1_555
O6 P10 1.558081 1_555
O7 P0 1.555908 1_545
O8 P0 1.562313 1_545
O9 P8 1.563621 1_555
O10 P1 1.564377 1_555
O11 P3 1.564377 1_555
O12 P3 1.549988 1_555
O13 P5 1.549988 1_555
O14 P6 1.557695 1_556
O15 P11 1.554379 1_555
O16 P4 1.562313 1_565
O17 P5 1.564377 1_555
O18 P2 1.557695 1_555
O19 P1 1.551331 1_555
O20 P4 1.555908 1_565
O21 P1 1.561916 1_555
O22 P10 1.555908 1_545
O23 P11 1.563621 1_555
O24 P4 1.558081 1_555
O25 P7 1.551331 1_555
O26 P2 1.554379 1_555
O27 P11 1.556083 1_555
O28 P8 1.554379 1_555
O29 P7 1.561916 1_555
O30 P6 1.554379 1_555
O31 P7 1.549988 1_555
O32 P7 1.564377 1_555
O33 P4 1.549448 1_555
O34 P9 1.549448 1_555
O35 P1 1.549988 1_555
O36 P9 1.555908 1_565
O37 P0 1.558081 1_555
O38 P3 1.551331 1_555
O39 P10 1.549448 1_555
O40 P8 1.557695 1_555
O41 P5 1.551331 1_555
O42 P3 1.561916 1_555
O43 P6 1.556083 1_555
O44 P0 1.549448 1_555
O45 P2 1.556083 1_555
O46 P10 1.562313 1_545
O47 P5 1.561916 1_555
