# generated using pymatgen
data_MgMn6O7F5
_symmetry_space_group_name_H-M   'P 1'
_cell_length_a   5.21138642
_cell_length_b   7.87386267
_cell_length_c   5.66622227
_cell_angle_alpha   94.29909314
_cell_angle_beta   100.07317298
_cell_angle_gamma   83.36332728
_symmetry_Int_Tables_number   1
_chemical_formula_structural   MgMn6O7F5
_chemical_formula_sum   'Mg1 Mn6 O7 F5'
_cell_volume   227.03166479
_cell_formula_units_Z   1
loop_
 _symmetry_equiv_pos_site_id
 _symmetry_equiv_pos_as_xyz
  1  'x, y, z'
loop_
 _atom_site_type_symbol
 _atom_site_label
 _atom_site_symmetry_multiplicity
 _atom_site_fract_x
 _atom_site_fract_y
 _atom_site_fract_z
 _atom_site_occupancy
  Mg  Mg0  1  0.01908221  0.49597959  0.03674467  1
  Mn  Mn0  1  0.46236420  -0.00142517  0.54876999  1
  Mn  Mn1  1  0.51996850  0.67831279  0.17074418  1
  Mn  Mn2  1  0.48883605  0.33046570  0.84250687  1
  Mn  Mn3  1  0.02969123  0.69867745  0.63857667  1
  Mn  Mn4  1  0.87776506  0.26930965  0.42022129  1
  Mn  Mn5  1  0.00689182  0.02637552  0.96325191  1
  O  O0  1  0.81308451  0.08594108  0.21198658  1
  O  O1  1  0.73775953  0.14089453  0.72394801  1
  O  O2  1  0.69146853  0.79175277  0.48353008  1
  O  O3  1  0.70986058  0.42332100  0.15239023  1
  O  O4  1  0.30118307  0.56430828  0.86789536  1
  O  O5  1  0.26434327  0.22443305  0.56243757  1
  O  O6  1  0.19429366  0.90580125  0.72156194  1
  F  F0  1  0.84088494  0.46666700  0.66521177  1
  F  F1  1  0.83841893  0.73764922  0.98230773  1
  F  F2  1  0.29055029  0.91771513  0.20323370  1
  F  F3  1  0.19895506  0.58424411  0.34703420  1
  F  F4  1  0.20070955  0.25957604  0.04097526  1
loop_
_geom_bond_atom_site_label_1
_geom_bond_atom_site_label_2
_geom_bond_distance
_geom_bond_site_symmetry_2
Mg0 O3 1.998055 1_455
Mg0 O4 2.029316 1_554
Mn0 O5 1.953631 1_555
Mn0 O2 1.956747 1_545
Mn0 O1 2.001858 1_555
Mn0 O6 2.065296 1_545
Mn1 O2 2.032437 1_555
Mn1 O4 2.090856 1_554
Mn1 O3 2.136984 1_555
Mn2 O4 1.990106 1_555
Mn2 O5 1.990424 1_555
Mn2 O1 2.017194 1_555
Mn2 O3 2.058900 1_556
Mn3 O2 1.916234 1_455
Mn3 O6 1.919361 1_555
Mn3 O4 2.006624 1_555
Mn4 O0 1.818891 1_555
Mn4 O3 2.026181 1_555
Mn4 O5 2.035465 1_655
Mn4 O1 2.321027 1_555
Mn5 O0 1.875048 1_456
Mn5 O6 1.946583 1_545
Mn5 O1 1.960750 1_455
F0 Mn4 2.019812 1_555
F0 Mg0 2.154136 1_656
F0 Mn3 2.199306 1_655
F0 Mn2 2.605063 1_555
F1 Mg0 2.043233 1_656
F1 Mn1 2.233012 1_556
F1 Mn3 2.323779 1_655
F1 Mn5 2.546004 1_665
F2 Mn5 1.986251 1_564
F2 Mn0 2.090941 1_565
F2 Mn1 2.126183 1_555
F3 Mg0 1.960542 1_555
F3 Mn3 2.102794 1_555
F3 Mn1 2.308028 1_555
F4 Mg0 1.988175 1_555
F4 Mn2 2.170103 1_554
F4 Mn5 2.176606 1_554
