# generated using pymatgen
data_Cr2CuS4
_symmetry_space_group_name_H-M   'P 1'
_cell_length_a   6.95293818
_cell_length_b   6.95293264
_cell_length_c   6.95294779
_cell_angle_alpha   60.00078116
_cell_angle_beta   60.00070537
_cell_angle_gamma   60.00080811
_symmetry_Int_Tables_number   1
_chemical_formula_structural   Cr2CuS4
_chemical_formula_sum   'Cr4 Cu2 S8'
_cell_volume   237.68287476
_cell_formula_units_Z   2
loop_
 _symmetry_equiv_pos_site_id
 _symmetry_equiv_pos_as_xyz
  1  'x, y, z'
loop_
 _atom_site_type_symbol
 _atom_site_label
 _atom_site_symmetry_multiplicity
 _atom_site_fract_x
 _atom_site_fract_y
 _atom_site_fract_z
 _atom_site_occupancy
  Cr  Cr0  1  0.12499972  0.12499963  0.12499981  1
  Cr  Cr1  1  0.62500042  0.12499964  0.12499990  1
  Cr  Cr2  1  0.12499965  0.12500003  0.62500053  1
  Cr  Cr3  1  0.12499967  0.62500030  0.12499991  1
  Cu  Cu0  1  0.49999886  0.49999963  0.50000095  1
  Cu  Cu1  1  0.75000107  0.75000066  0.74999863  1
  S  S0  1  0.36781953  0.36781932  0.36782056  1
  S  S1  1  0.35346115  0.88217937  0.88217901  1
  S  S2  1  0.88217988  0.88217985  0.35346066  1
  S  S3  1  0.88217953  0.35346115  0.88217922  1
  S  S4  1  0.36781990  0.36781971  0.89653986  1
  S  S5  1  0.36782006  0.89653930  0.36782101  1
  S  S6  1  0.88218042  0.88218028  0.88217915  1
  S  S7  1  0.89653913  0.36782013  0.36782079  1
loop_
_geom_bond_atom_site_label_1
_geom_bond_atom_site_label_2
_geom_bond_distance
_geom_bond_site_symmetry_2
Cr0 S2 2.389728 1_445
Cr0 S4 2.389732 1_554
Cr0 S1 2.389738 1_544
Cr0 S3 2.389741 1_454
Cr0 S7 2.389741 1_455
Cr0 S5 2.389745 1_545
Cr1 S3 2.389735 1_554
Cr1 S5 2.389736 1_545
Cr1 S6 2.389737 1_544
Cr1 S0 2.389738 1_555
Cr1 S2 2.389739 1_545
Cr1 S4 2.389741 1_554
Cr2 S6 2.389729 1_445
Cr2 S0 2.389730 1_555
Cr2 S3 2.389734 1_455
Cr2 S5 2.389736 1_545
Cr2 S1 2.389738 1_545
Cr2 S7 2.389740 1_455
Cr3 S1 2.389735 1_554
Cr3 S7 2.389736 1_455
Cr3 S2 2.389736 1_455
Cr3 S4 2.389738 1_554
Cr3 S6 2.389740 1_454
Cr3 S0 2.389743 1_555
Cu0 S0 2.251165 1_555
Cu0 S4 2.251195 1_555
Cu0 S5 2.251197 1_555
Cu0 S7 2.251200 1_555
Cu1 S6 2.251162 1_555
Cu1 S2 2.251190 1_555
Cu1 S3 2.251196 1_555
Cu1 S1 2.251198 1_555
