# generated using pymatgen
data_Na3MgNb5Si6(SO12)3
_symmetry_space_group_name_H-M   'P 1'
_cell_length_a   8.87426455
_cell_length_b   8.87426425
_cell_length_c   23.01691461
_cell_angle_alpha   89.90526989
_cell_angle_beta   90.09473012
_cell_angle_gamma   119.86378632
_symmetry_Int_Tables_number   1
_chemical_formula_structural   Na3MgNb5Si6(SO12)3
_chemical_formula_sum   'Na6 Mg2 Nb10 Si12 S6 O72'
_cell_volume   1571.94063945
_cell_formula_units_Z   2
loop_
 _symmetry_equiv_pos_site_id
 _symmetry_equiv_pos_as_xyz
  1  'x, y, z'
loop_
 _atom_site_type_symbol
 _atom_site_label
 _atom_site_symmetry_multiplicity
 _atom_site_fract_x
 _atom_site_fract_y
 _atom_site_fract_z
 _atom_site_occupancy
  Na  Na0  1  0.00393007  0.99658637  0.49971686  1
  Na  Na1  1  0.00341363  0.99606993  0.99971686  1
  Na  Na2  1  0.66706217  0.32237756  0.82928792  1
  Na  Na3  1  0.67762244  0.33293783  0.32928792  1
  Na  Na4  1  0.32437732  0.65518989  0.16476871  1
  Na  Na5  1  0.34481011  0.67562268  0.66476871  1
  Mg  Mg0  1  0.65620084  0.32070932  0.68602978  1
  Mg  Mg1  1  0.67929068  0.34379916  0.18602978  1
  Nb  Nb0  1  0.99512014  0.00725805  0.35763845  1
  Nb  Nb1  1  0.99274195  0.00487986  0.85763845  1
  Nb  Nb2  1  0.98628121  0.98757378  0.64212105  1
  Nb  Nb3  1  0.01242622  0.01371879  0.14212105  1
  Nb  Nb4  1  0.66416773  0.34653214  0.97706367  1
  Nb  Nb5  1  0.65346786  0.33583227  0.47706367  1
  Nb  Nb6  1  0.32116279  0.65651946  0.02016051  1
  Nb  Nb7  1  0.34348054  0.67883721  0.52016051  1
  Nb  Nb8  1  0.32328674  0.65645835  0.31422223  1
  Nb  Nb9  1  0.34354165  0.67671326  0.81422223  1
  Si  Si0  1  0.99105415  0.29050461  0.24923824  1
  Si  Si1  1  0.70949539  0.00894585  0.74923824  1
  Si  Si2  1  0.38099185  0.04766233  0.58659494  1
  Si  Si3  1  0.65738393  0.60749720  0.58686565  1
  Si  Si4  1  0.95233767  0.61900815  0.08659494  1
  Si  Si5  1  0.39250280  0.34261607  0.08686565  1
  Si  Si6  1  0.61841694  0.66949705  0.91800677  1
  Si  Si7  1  0.04351457  0.38368435  0.91462038  1
  Si  Si8  1  0.33580425  0.95716064  0.91748119  1
  Si  Si9  1  0.61631565  0.95648543  0.41462038  1
  Si  Si10  1  0.33050295  0.38158306  0.41800677  1
  Si  Si11  1  0.04283936  0.66419575  0.41748119  1
  S  S0  1  0.28855982  0.00086424  0.24972035  1
  S  S1  1  0.71243610  0.71350054  0.25013470  1
  S  S2  1  0.28649946  0.28756390  0.75013470  1
  S  S3  1  0.99913576  0.71144018  0.74972035  1
  S  S4  1  0.95562071  0.33588488  0.58473185  1
  S  S5  1  0.66411512  0.04437929  0.08473185  1
  O  O0  1  0.19839004  0.01579014  0.30196859  1
  O  O1  1  0.81929048  0.80061002  0.30331819  1
  O  O2  1  0.98637087  0.16850227  0.30550429  1
  O  O3  1  0.19938998  0.18070952  0.80331819  1
  O  O4  1  0.98420986  0.80160996  0.80196859  1
  O  O5  1  0.83149773  0.01362913  0.80550429  1
  O  O6  1  0.81223840  0.97767497  0.69387657  1
  O  O7  1  0.17891888  0.20218041  0.69805249  1
  O  O8  1  0.02779658  0.82246237  0.69640145  1
  O  O9  1  0.79781959  0.82108112  0.19805249  1
  O  O10  1  0.02232503  0.18776160  0.19387657  1
  O  O11  1  0.17753763  0.97220342  0.19640145  1
  O  O12  1  0.88052867  0.36061723  0.63688642  1
  O  O13  1  0.49514237  0.11605331  0.64285907  1
  O  O14  1  0.63916958  0.50642205  0.64458906  1
  O  O15  1  0.88394669  0.50485763  0.14285907  1
  O  O16  1  0.63938277  0.11947133  0.13688642  1
  O  O17  1  0.49357795  0.36083042  0.14458906  1
  O  O18  1  0.47048718  0.30447790  0.02648877  1
  O  O19  1  0.83421348  0.52813188  0.02671848  1
  O  O20  1  0.69671749  0.14977657  0.03115748  1
  O  O21  1  0.47186812  0.16578652  0.52671848  1
  O  O22  1  0.69552210  0.52951282  0.52648877  1
  O  O23  1  0.85022343  0.30328251  0.53115748  1
  O  O24  1  0.53357994  0.70247005  0.97448760  1
  O  O25  1  0.16491364  0.46688641  0.97235054  1
  O  O26  1  0.30198039  0.83283402  0.97305110  1
  O  O27  1  0.53311359  0.83508636  0.47235054  1
  O  O28  1  0.29752995  0.46642006  0.47448760  1
  O  O29  1  0.16716598  0.69801961  0.47305110  1
  O  O30  1  0.13704420  0.63570917  0.35935082  1
  O  O31  1  0.49837720  0.86239120  0.35744725  1
  O  O32  1  0.36145004  0.49940748  0.35932183  1
  O  O33  1  0.13760880  0.50162280  0.85744725  1
  O  O34  1  0.36429083  0.86295580  0.85935082  1
  O  O35  1  0.50059252  0.63854996  0.85932183  1
  O  O36  1  0.02450707  0.83515856  0.40447836  1
  O  O37  1  0.80797095  0.97024341  0.40765331  1
  O  O38  1  0.16452743  0.18609127  0.40792683  1
  O  O39  1  0.02975659  0.19202904  0.90765331  1
  O  O40  1  0.16484144  0.97549293  0.90447836  1
  O  O41  1  0.81390873  0.83547257  0.90792683  1
  O  O42  1  0.97757208  0.17524833  0.59043179  1
  O  O43  1  0.18378876  0.02778245  0.59300016  1
  O  O44  1  0.83345246  0.81197063  0.59083599  1
  O  O45  1  0.97221755  0.81621124  0.09300016  1
  O  O46  1  0.82475167  0.02242792  0.09043179  1
  O  O47  1  0.18802937  0.16654754  0.09083599  1
  O  O48  1  0.69727035  0.18073120  0.74878714  1
  O  O49  1  0.46022077  0.30909412  0.74752878  1
  O  O50  1  0.84521237  0.54152488  0.74446887  1
  O  O51  1  0.69090588  0.53977923  0.24752878  1
  O  O52  1  0.81926880  0.30272965  0.24878714  1
  O  O53  1  0.45847512  0.15478763  0.24446887  1
  O  O54  1  0.63924178  0.49715998  0.92186660  1
  O  O55  1  0.85100577  0.35382847  0.92476827  1
  O  O56  1  0.50842213  0.14501531  0.92531878  1
  O  O57  1  0.64617153  0.14899423  0.42476827  1
  O  O58  1  0.50284002  0.36075822  0.42186660  1
  O  O59  1  0.85498469  0.49157787  0.42531878  1
  O  O60  1  0.35702394  0.50523846  0.07461116  1
  O  O61  1  0.15302373  0.65832946  0.07332668  1
  O  O62  1  0.51294845  0.86626664  0.07719104  1
  O  O63  1  0.34167054  0.84697627  0.57332668  1
  O  O64  1  0.49476154  0.64297606  0.57461116  1
  O  O65  1  0.13373336  0.48705155  0.57719104  1
  O  O66  1  0.30170496  0.83901899  0.25414503  1
  O  O67  1  0.53901959  0.70435594  0.25550809  1
  O  O68  1  0.17616757  0.48014463  0.25591989  1
  O  O69  1  0.29564406  0.46098041  0.75550809  1
  O  O70  1  0.16098101  0.69829504  0.75414503  1
  O  O71  1  0.51985537  0.82383243  0.75591989  1
loop_
_geom_bond_atom_site_label_1
_geom_bond_atom_site_label_2
_geom_bond_distance
_geom_bond_site_symmetry_2
Na0 O43 2.604768 1_565
Na0 O44 2.627212 1_455
Na0 O38 2.633296 1_565
Na0 O37 2.674619 1_455
Na0 O36 2.676390 1_555
Na0 O42 2.703710 1_465
Na1 O45 2.604768 1_456
Na1 O47 2.627212 1_566
Na1 O41 2.633296 1_455
Na1 O39 2.674618 1_565
Na1 O40 2.676390 1_555
Na1 O46 2.703710 1_466
Na2 O48 2.330241 1_555
Na2 O49 2.588118 1_555
Na2 O50 2.651159 1_555
Na2 O55 2.666211 1_555
Na2 O56 2.671505 1_555
Na2 O54 2.720554 1_555
Na3 O52 2.330241 1_555
Na3 O51 2.588118 1_555
Na3 O53 2.651159 1_555
Na3 O57 2.666211 1_555
Na3 O59 2.671505 1_555
Na3 O58 2.720554 1_555
Na4 O68 2.551132 1_555
Na4 O60 2.560472 1_555
Na4 O61 2.602758 1_555
Na4 O62 2.692467 1_555
Na4 O66 2.696860 1_555
Na4 O67 2.709761 1_555
Na5 O71 2.551132 1_555
Na5 O64 2.560472 1_555
Na5 O63 2.602758 1_555
Na5 O65 2.692467 1_555
Na5 O70 2.696860 1_555
Na5 O69 2.709760 1_555
Mg0 O13 1.935153 1_555
Mg0 O14 1.972600 1_555
Mg0 O48 2.050761 1_555
Mg0 O12 2.161467 1_555
Mg0 O49 2.206397 1_555
Mg0 O50 2.278286 1_555
Mg1 O15 1.935153 1_555
Mg1 O17 1.972600 1_555
Mg1 O52 2.050761 1_555
Mg1 O16 2.161466 1_555
Mg1 O51 2.206397 1_555
Mg1 O53 2.278286 1_555
Nb0 O2 1.896879 1_555
Nb0 O37 1.911336 1_545
Nb0 O38 1.934626 1_655
Nb0 O36 1.988245 1_645
Nb0 O1 2.124240 1_545
Nb0 O0 2.184683 1_655
Nb1 O5 1.896879 1_555
Nb1 O39 1.911336 1_655
Nb1 O41 1.934626 1_545
Nb1 O40 1.988245 1_645
Nb1 O3 2.124240 1_655
Nb1 O4 2.184683 1_545
Nb2 O44 1.886066 1_555
Nb2 O6 1.919090 1_555
Nb2 O43 1.964704 1_665
Nb2 O42 2.077633 1_565
Nb2 O8 2.091317 1_655
Nb2 O7 2.228297 1_665
Nb3 O47 1.886066 1_555
Nb3 O10 1.919090 1_555
Nb3 O45 1.964704 1_445
Nb3 O46 2.077633 1_455
Nb3 O11 2.091317 1_545
Nb3 O9 2.228297 1_445
Nb4 O54 1.933320 1_555
Nb4 O18 1.937493 1_556
Nb4 O19 1.938825 1_556
Nb4 O56 2.016668 1_555
Nb4 O55 2.025239 1_555
Nb4 O20 2.275143 1_556
Nb5 O58 1.933320 1_555
Nb5 O22 1.937493 1_555
Nb5 O21 1.938825 1_555
Nb5 O59 2.016668 1_555
Nb5 O57 2.025239 1_555
Nb5 O23 2.275143 1_555
Nb6 O25 1.908629 1_554
Nb6 O61 1.937554 1_555
Nb6 O60 1.973050 1_555
Nb6 O26 1.977856 1_554
Nb6 O24 2.016043 1_554
Nb6 O62 2.220402 1_555
Nb7 O27 1.908629 1_555
Nb7 O63 1.937554 1_555
Nb7 O64 1.973051 1_555
Nb7 O29 1.977856 1_555
Nb7 O28 2.016043 1_555
Nb7 O65 2.220402 1_555
Nb8 O30 1.883202 1_555
Nb8 O32 1.897051 1_555
Nb8 O31 1.979122 1_555
Nb8 O68 1.979966 1_555
Nb8 O67 2.206457 1_555
Nb8 O66 2.207762 1_555
Nb9 O34 1.883202 1_555
Nb9 O35 1.897051 1_555
Nb9 O33 1.979122 1_555
Nb9 O71 1.979966 1_555
Nb9 O69 2.206457 1_555
Nb9 O70 2.207762 1_555
O0 S0 1.487731 1_555
O1 S1 1.504830 1_555
O2 Si0 1.673877 1_555
O3 S2 1.504830 1_555
O4 S3 1.487731 1_555
O5 Si1 1.673877 1_555
O6 Si1 1.670044 1_565
O7 S2 1.483727 1_555
O8 S3 1.512936 1_455
O9 S1 1.483727 1_555
O10 Si0 1.670044 1_455
O11 S0 1.512936 1_565
O12 S4 1.443075 1_555
O13 Si2 1.567674 1_555
O14 Si3 1.564697 1_555
O15 Si4 1.567674 1_555
O16 S5 1.443075 1_555
O17 Si5 1.564697 1_555
O18 Si5 1.662142 1_555
O19 Si4 1.674990 1_555
O20 S5 1.485592 1_555
O21 Si2 1.674990 1_555
O22 Si3 1.662142 1_555
O23 S4 1.485593 1_555
O24 Si6 1.601983 1_555
O25 Si7 1.636390 1_555
O26 Si8 1.615594 1_555
O27 Si9 1.636390 1_555
O28 Si10 1.601983 1_555
O29 Si11 1.615594 1_555
O30 Si11 1.663815 1_555
O31 Si9 1.628840 1_555
O32 Si10 1.644327 1_555
O33 Si7 1.628840 1_555
O34 Si8 1.663815 1_555
O35 Si6 1.644327 1_555
O36 Si11 1.631558 1_555
O37 Si9 1.651478 1_555
O38 Si10 1.639647 1_555
O39 Si7 1.651478 1_555
O40 Si8 1.631558 1_555
O41 Si6 1.639647 1_555
O42 S4 1.537254 1_555
O43 Si2 1.675939 1_555
O44 Si3 1.708464 1_555
O45 Si4 1.675939 1_555
O46 S5 1.537254 1_555
O47 Si5 1.708464 1_555
O48 Si1 1.581307 1_555
O49 S2 1.457296 1_555
O50 S3 1.450167 1_555
O51 S1 1.457296 1_555
O52 Si0 1.581307 1_555
O53 S0 1.450167 1_555
O54 Si6 1.631554 1_555
O55 Si7 1.610479 1_655
O56 Si8 1.617141 1_545
O57 Si9 1.610479 1_545
O58 Si10 1.631554 1_555
O59 Si11 1.617141 1_655
O60 Si5 1.646889 1_555
O61 Si4 1.664131 1_455
O62 S5 1.488815 1_565
O63 Si2 1.664131 1_565
O64 Si3 1.646890 1_555
O65 S4 1.488815 1_455
O66 S0 1.501049 1_565
O67 S1 1.505475 1_555
O68 Si0 1.673702 1_455
O69 S2 1.505475 1_555
O70 S3 1.501049 1_455
O71 Si1 1.673702 1_565
