# generated using pymatgen
data_Ni3H2Se3O10
_symmetry_space_group_name_H-M   'P 1'
_cell_length_a   8.09592700
_cell_length_b   8.22114996
_cell_length_c   8.50727279
_cell_angle_alpha   69.82740833
_cell_angle_beta   62.91225391
_cell_angle_gamma   68.04194408
_symmetry_Int_Tables_number   1
_chemical_formula_structural   Ni3H2Se3O10
_chemical_formula_sum   'Ni6 H4 Se6 O20'
_cell_volume   456.97742366
_cell_formula_units_Z   2
loop_
 _symmetry_equiv_pos_site_id
 _symmetry_equiv_pos_as_xyz
  1  'x, y, z'
loop_
 _atom_site_type_symbol
 _atom_site_label
 _atom_site_symmetry_multiplicity
 _atom_site_fract_x
 _atom_site_fract_y
 _atom_site_fract_z
 _atom_site_occupancy
  Ni  Ni0  1  0.00000000  0.00000000  0.00000000  1
  Ni  Ni1  1  0.50000000  0.50000000  0.50000000  1
  Ni  Ni2  1  0.65332300  0.03688800  0.80255300  1
  Ni  Ni3  1  0.34667700  0.96311200  0.19744700  1
  Ni  Ni4  1  0.71001400  0.86676200  0.39084600  1
  Ni  Ni5  1  0.28998600  0.13323800  0.60915400  1
  H  H0  1  0.06119700  0.18884700  0.40446300  1
  H  H1  1  0.93880300  0.81115300  0.59553700  1
  H  H2  1  0.96510600  0.12365000  0.31327500  1
  H  H3  1  0.03489400  0.87635000  0.68672500  1
  Se  Se0  1  0.56922200  0.23644200  0.23649200  1
  Se  Se1  1  0.43077800  0.76355800  0.76350800  1
  Se  Se2  1  0.79634000  0.66819400  0.06095500  1
  Se  Se3  1  0.20366000  0.33180600  0.93904500  1
  Se  Se4  1  0.17333600  0.67018000  0.29826000  1
  Se  Se5  1  0.82666400  0.32982000  0.70174000  1
  O  O0  1  0.08749600  0.12983200  0.30637000  1
  O  O1  1  0.91250400  0.87016800  0.69363000  1
  O  O2  1  0.80487100  0.13950100  0.87991400  1
  O  O3  1  0.19512900  0.86049900  0.12008600  1
  O  O4  1  0.13535400  0.21177900  0.85287800  1
  O  O5  1  0.86464600  0.78822100  0.14712200  1
  O  O6  1  0.40578200  0.17308600  0.97510800  1
  O  O7  1  0.59421800  0.82691400  0.02489200  1
  O  O8  1  0.30341000  0.71406200  0.38694400  1
  O  O9  1  0.69659000  0.28593800  0.61305600  1
  O  O10  1  0.55359800  0.68946100  0.56163000  1
  O  O11  1  0.44640200  0.31053900  0.43837000  1
  O  O12  1  0.20618800  0.89660300  0.75753300  1
  O  O13  1  0.79381200  0.10339700  0.24246700  1
  O  O14  1  0.53600200  0.94745900  0.67044200  1
  O  O15  1  0.46399800  0.05254100  0.32955800  1
  O  O16  1  0.94330700  0.72780300  0.45442500  1
  O  O17  1  0.05669300  0.27219700  0.54557500  1
  O  O18  1  0.70710200  0.51217000  0.24329200  1
  O  O19  1  0.29289800  0.48783000  0.75670800  1
loop_
_geom_bond_atom_site_label_1
_geom_bond_atom_site_label_2
_geom_bond_distance
_geom_bond_site_symmetry_2
Ni0 O3 2.039937 1_545
Ni0 O2 2.039937 1_454
Ni0 O4 2.115056 1_554
Ni0 O5 2.115056 1_445
Ni0 O13 2.185466 1_455
Ni0 O12 2.185466 1_544
Ni1 O10 2.040872 1_555
Ni1 O11 2.040872 1_555
Ni1 O18 2.056856 1_555
Ni1 O19 2.056856 1_555
Ni1 O8 2.165000 1_555
Ni1 O9 2.165000 1_555
Ni2 O1 2.023503 1_545
Ni2 O6 2.049694 1_555
Ni2 O7 2.080405 1_546
Ni2 O2 2.131308 1_555
Ni2 O9 2.158544 1_555
Ni2 O14 2.184076 1_545
Ni3 O0 2.023503 1_565
Ni3 O7 2.049694 1_555
Ni3 O6 2.080405 1_564
Ni3 O3 2.131308 1_555
Ni3 O8 2.158544 1_555
Ni3 O15 2.184076 1_565
Ni4 O16 2.013820 1_555
Ni4 O10 2.020739 1_555
Ni4 O5 2.058682 1_555
Ni4 O13 2.086078 1_565
Ni4 O15 2.166349 1_565
Ni4 O14 2.328134 1_555
Ni5 O17 2.013820 1_555
Ni5 O11 2.020739 1_555
Ni5 O4 2.058682 1_555
Ni5 O12 2.086078 1_545
Ni5 O14 2.166349 1_545
Ni5 O15 2.328134 1_555
H0 O0 1.008611 1_555
H0 O17 1.555899 1_555
H1 O1 1.008611 1_555
H1 O16 1.555899 1_555
H2 O0 0.985105 1_655
H3 O1 0.985105 1_455
O2 Se5 1.761812 1_555
O3 Se4 1.761812 1_555
O4 Se3 1.758697 1_555
O5 Se2 1.758697 1_555
O6 Se3 1.748924 1_555
O7 Se2 1.748924 1_555
O8 Se4 1.733120 1_555
O9 Se5 1.733120 1_555
O10 Se1 1.738593 1_555
O11 Se0 1.738593 1_555
O12 Se1 1.750294 1_555
O13 Se0 1.750294 1_555
O14 Se1 1.778119 1_555
O15 Se0 1.778119 1_555
O16 Se4 1.725881 1_655
O17 Se5 1.725881 1_455
O18 Se2 1.695166 1_555
O19 Se3 1.695166 1_555
