# generated using pymatgen
data_NaMgAl(SO4)3
_symmetry_space_group_name_H-M   'P 1'
_cell_length_a   8.43251350
_cell_length_b   8.43251325
_cell_length_c   22.08312048
_cell_angle_alpha   90.00000000
_cell_angle_beta   90.00000000
_cell_angle_gamma   120.00000098
_symmetry_Int_Tables_number   1
_chemical_formula_structural   NaMgAl(SO4)3
_chemical_formula_sum   'Na6 Mg6 Al6 S18 O72'
_cell_volume   1359.89427882
_cell_formula_units_Z   6
loop_
 _symmetry_equiv_pos_site_id
 _symmetry_equiv_pos_as_xyz
  1  'x, y, z'
loop_
 _atom_site_type_symbol
 _atom_site_label
 _atom_site_symmetry_multiplicity
 _atom_site_fract_x
 _atom_site_fract_y
 _atom_site_fract_z
 _atom_site_occupancy
  Na  Na0  1  0.00000000  0.00000000  0.49827780  1
  Na  Na1  1  0.00000000  0.00000000  0.99827780  1
  Na  Na2  1  0.66666700  0.33333300  0.83161080  1
  Na  Na3  1  0.66666700  0.33333300  0.33161080  1
  Na  Na4  1  0.33333300  0.66666700  0.16494480  1
  Na  Na5  1  0.33333300  0.66666700  0.66494480  1
  Mg  Mg0  1  0.00000000  0.00000000  0.35283897  1
  Mg  Mg1  1  0.00000000  0.00000000  0.85283897  1
  Mg  Mg2  1  0.66666700  0.33333300  0.68617197  1
  Mg  Mg3  1  0.66666700  0.33333300  0.18617197  1
  Mg  Mg4  1  0.33333300  0.66666700  0.01950597  1
  Mg  Mg5  1  0.33333300  0.66666700  0.51950597  1
  Al  Al0  1  0.00000000  0.00000000  0.64855529  1
  Al  Al1  1  0.00000000  0.00000000  0.14855529  1
  Al  Al2  1  0.66666700  0.33333300  0.98188829  1
  Al  Al3  1  0.66666700  0.33333300  0.48188829  1
  Al  Al4  1  0.33333300  0.66666700  0.31522229  1
  Al  Al5  1  0.33333300  0.66666700  0.81522229  1
  S  S0  1  0.28739152  0.99302493  0.25046794  1
  S  S1  1  0.70563342  0.71260848  0.25046794  1
  S  S2  1  0.00697507  0.29436658  0.25046794  1
  S  S3  1  0.28739152  0.29436658  0.75046794  1
  S  S4  1  0.00697507  0.71260848  0.75046794  1
  S  S5  1  0.70563342  0.99302493  0.75046794  1
  S  S6  1  0.95405852  0.32635793  0.58380094  1
  S  S7  1  0.37230042  0.04594148  0.58380094  1
  S  S8  1  0.67364207  0.62769958  0.58380094  1
  S  S9  1  0.95405852  0.62769958  0.08380094  1
  S  S10  1  0.67364207  0.04594148  0.08380094  1
  S  S11  1  0.37230042  0.32635793  0.08380094  1
  S  S12  1  0.62072452  0.65969193  0.91713494  1
  S  S13  1  0.03896642  0.37927548  0.91713494  1
  S  S14  1  0.34030807  0.96103358  0.91713494  1
  S  S15  1  0.62072452  0.96103358  0.41713494  1
  S  S16  1  0.34030807  0.37927548  0.41713494  1
  S  S17  1  0.03896642  0.65969193  0.41713494  1
  O  O0  1  0.20750829  0.02234722  0.30468524  1
  O  O1  1  0.81483893  0.79249171  0.30468524  1
  O  O2  1  0.97765278  0.18516107  0.30468524  1
  O  O3  1  0.20750829  0.18516107  0.80468524  1
  O  O4  1  0.97765278  0.79249171  0.80468524  1
  O  O5  1  0.81483893  0.02234722  0.80468524  1
  O  O6  1  0.79038661  0.96276517  0.69495159  1
  O  O7  1  0.17237856  0.20961339  0.69495159  1
  O  O8  1  0.03723483  0.82762144  0.69495159  1
  O  O9  1  0.79038661  0.82762144  0.19495159  1
  O  O10  1  0.03723483  0.20961339  0.19495159  1
  O  O11  1  0.17237856  0.96276517  0.19495159  1
  O  O12  1  0.87417529  0.35568022  0.63801824  1
  O  O13  1  0.48150593  0.12582471  0.63801824  1
  O  O14  1  0.64431978  0.51849407  0.63801824  1
  O  O15  1  0.87417529  0.51849407  0.13801824  1
  O  O16  1  0.64431978  0.12582471  0.13801824  1
  O  O17  1  0.48150593  0.35568022  0.13801824  1
  O  O18  1  0.45705361  0.29609817  0.02828459  1
  O  O19  1  0.83904556  0.54294639  0.02828459  1
  O  O20  1  0.70390183  0.16095444  0.02828459  1
  O  O21  1  0.45705361  0.16095444  0.52828459  1
  O  O22  1  0.70390183  0.54294639  0.52828459  1
  O  O23  1  0.83904556  0.29609817  0.52828459  1
  O  O24  1  0.54084129  0.68901422  0.97135224  1
  O  O25  1  0.14817193  0.45915871  0.97135224  1
  O  O26  1  0.31098578  0.85182807  0.97135224  1
  O  O27  1  0.54084129  0.85182807  0.47135224  1
  O  O28  1  0.31098578  0.45915871  0.47135224  1
  O  O29  1  0.14817193  0.68901422  0.47135224  1
  O  O30  1  0.12371961  0.62943217  0.36161859  1
  O  O31  1  0.50571156  0.87628039  0.36161859  1
  O  O32  1  0.37056783  0.49428844  0.36161859  1
  O  O33  1  0.12371961  0.49428844  0.86161859  1
  O  O34  1  0.37056783  0.87628039  0.86161859  1
  O  O35  1  0.50571156  0.62943217  0.86161859  1
  O  O36  1  0.01391593  0.81907211  0.40996194  1
  O  O37  1  0.80515619  0.98608407  0.40996194  1
  O  O38  1  0.18092789  0.19484381  0.40996194  1
  O  O39  1  0.01391593  0.19484381  0.90996194  1
  O  O40  1  0.18092789  0.98608407  0.90996194  1
  O  O41  1  0.80515619  0.81907211  0.90996194  1
  O  O42  1  0.96744778  0.15586736  0.59004261  1
  O  O43  1  0.18841958  0.03255222  0.59004261  1
  O  O44  1  0.84413264  0.81158042  0.59004261  1
  O  O45  1  0.96744778  0.81158042  0.09004261  1
  O  O46  1  0.84413264  0.03255222  0.09004261  1
  O  O47  1  0.18841958  0.15586736  0.09004261  1
  O  O48  1  0.68058293  0.15240511  0.74329494  1
  O  O49  1  0.47182319  0.31941707  0.74329494  1
  O  O50  1  0.84759489  0.52817681  0.74329494  1
  O  O51  1  0.68058293  0.52817681  0.24329494  1
  O  O52  1  0.84759489  0.31941707  0.24329494  1
  O  O53  1  0.47182319  0.15240511  0.24329494  1
  O  O54  1  0.63411478  0.48920036  0.92337561  1
  O  O55  1  0.85508658  0.36588522  0.92337561  1
  O  O56  1  0.51079964  0.14491342  0.92337561  1
  O  O57  1  0.63411478  0.14491342  0.42337561  1
  O  O58  1  0.51079964  0.36588522  0.42337561  1
  O  O59  1  0.85508658  0.48920036  0.42337561  1
  O  O60  1  0.34724893  0.48573911  0.07662894  1
  O  O61  1  0.13848919  0.65275107  0.07662894  1
  O  O62  1  0.51426089  0.86151081  0.07662894  1
  O  O63  1  0.34724893  0.86151081  0.57662894  1
  O  O64  1  0.51426089  0.65275107  0.57662894  1
  O  O65  1  0.13848919  0.48573911  0.57662894  1
  O  O66  1  0.30078078  0.82253436  0.25670961  1
  O  O67  1  0.52175258  0.69921922  0.25670961  1
  O  O68  1  0.17746564  0.47824742  0.25670961  1
  O  O69  1  0.30078078  0.47824742  0.75670961  1
  O  O70  1  0.17746564  0.69921922  0.75670961  1
  O  O71  1  0.52175258  0.82253436  0.75670961  1
loop_
_geom_bond_atom_site_label_1
_geom_bond_atom_site_label_2
_geom_bond_distance
_geom_bond_site_symmetry_2
Na0 O44 2.504031 1_445
Na0 O42 2.504031 1_455
Na0 O43 2.504031 1_555
Na0 O38 2.514781 1_555
Na0 O37 2.514781 1_445
Na0 O36 2.514781 1_545
Na1 O45 2.504031 1_446
Na1 O47 2.504031 1_556
Na1 O46 2.504031 1_456
Na1 O39 2.514781 1_555
Na1 O41 2.514781 1_445
Na1 O40 2.514781 1_545
Na2 O56 2.504031 1_555
Na2 O54 2.504031 1_555
Na2 O55 2.504031 1_555
Na2 O50 2.514781 1_555
Na2 O49 2.514781 1_555
Na2 O48 2.514781 1_555
Na3 O57 2.504031 1_555
Na3 O59 2.504031 1_555
Na3 O58 2.504031 1_555
Na3 O51 2.514781 1_555
Na3 O53 2.514781 1_555
Na3 O52 2.514781 1_555
Na4 O68 2.504031 1_555
Na4 O66 2.504031 1_555
Na4 O67 2.504031 1_555
Na4 O62 2.514781 1_555
Na4 O61 2.514781 1_555
Na4 O60 2.514781 1_555
Na5 O69 2.504031 1_555
Na5 O71 2.504031 1_555
Na5 O70 2.504031 1_555
Na5 O63 2.514781 1_555
Na5 O65 2.514781 1_555
Na5 O64 2.514781 1_555
Mg0 O1 1.974440 1_445
Mg0 O2 1.974440 1_455
Mg0 O0 1.974440 1_555
Mg0 O38 2.027747 1_555
Mg0 O37 2.027747 1_445
Mg0 O36 2.027747 1_545
Mg1 O4 1.974440 1_445
Mg1 O3 1.974440 1_555
Mg1 O5 1.974440 1_455
Mg1 O39 2.027747 1_555
Mg1 O41 2.027747 1_445
Mg1 O40 2.027747 1_545
Mg2 O13 1.974440 1_555
Mg2 O14 1.974440 1_555
Mg2 O12 1.974440 1_555
Mg2 O50 2.027747 1_555
Mg2 O49 2.027747 1_555
Mg2 O48 2.027747 1_555
Mg3 O16 1.974440 1_555
Mg3 O15 1.974440 1_555
Mg3 O17 1.974440 1_555
Mg3 O51 2.027747 1_555
Mg3 O53 2.027747 1_555
Mg3 O52 2.027747 1_555
Mg4 O25 1.974440 1_554
Mg4 O26 1.974440 1_554
Mg4 O24 1.974440 1_554
Mg4 O62 2.027747 1_555
Mg4 O61 2.027747 1_555
Mg4 O60 2.027747 1_555
Mg5 O28 1.974440 1_555
Mg5 O27 1.974440 1_555
Mg5 O29 1.974440 1_555
Mg5 O63 2.027747 1_555
Mg5 O65 2.027747 1_555
Mg5 O64 2.027747 1_555
Al0 O7 1.928120 1_555
Al0 O8 1.928120 1_545
Al0 O6 1.928121 1_445
Al0 O44 1.957880 1_445
Al0 O42 1.957880 1_455
Al0 O43 1.957880 1_555
Al1 O10 1.928120 1_555
Al1 O9 1.928120 1_445
Al1 O11 1.928121 1_545
Al1 O45 1.957880 1_445
Al1 O47 1.957880 1_555
Al1 O46 1.957880 1_455
Al2 O19 1.928120 1_556
Al2 O20 1.928120 1_556
Al2 O18 1.928121 1_556
Al2 O56 1.957880 1_555
Al2 O54 1.957880 1_555
Al2 O55 1.957880 1_555
Al3 O22 1.928120 1_555
Al3 O21 1.928120 1_555
Al3 O23 1.928121 1_555
Al3 O57 1.957880 1_555
Al3 O59 1.957880 1_555
Al3 O58 1.957880 1_555
Al4 O31 1.928120 1_555
Al4 O32 1.928120 1_555
Al4 O30 1.928121 1_555
Al4 O68 1.957880 1_555
Al4 O66 1.957880 1_555
Al4 O67 1.957880 1_555
Al5 O34 1.928120 1_555
Al5 O33 1.928120 1_555
Al5 O35 1.928121 1_555
Al5 O69 1.957880 1_555
Al5 O71 1.957880 1_555
Al5 O70 1.957880 1_555
O0 S0 1.454288 1_545
O1 S1 1.454287 1_555
O2 S2 1.454287 1_655
O3 S3 1.454287 1_555
O4 S4 1.454288 1_655
O5 S5 1.454287 1_545
O6 S5 1.503747 1_555
O7 S3 1.503747 1_555
O8 S4 1.503747 1_555
O9 S1 1.503747 1_555
O10 S2 1.503747 1_555
O11 S0 1.503747 1_555
O12 S6 1.454288 1_555
O13 S7 1.454287 1_555
O14 S8 1.454287 1_555
O15 S9 1.454287 1_555
O16 S10 1.454288 1_555
O17 S11 1.454287 1_555
O18 S11 1.503747 1_555
O19 S9 1.503747 1_555
O20 S10 1.503747 1_555
O21 S7 1.503747 1_555
O22 S8 1.503747 1_555
O23 S6 1.503747 1_555
O24 S12 1.454288 1_555
O25 S13 1.454287 1_555
O26 S14 1.454287 1_555
O27 S15 1.454287 1_555
O28 S16 1.454288 1_555
O29 S17 1.454287 1_555
O30 S17 1.503747 1_555
O31 S15 1.503747 1_555
O32 S16 1.503747 1_555
O33 S13 1.503747 1_555
O34 S14 1.503747 1_555
O35 S12 1.503747 1_555
O36 S17 1.469654 1_555
O37 S15 1.469662 1_555
O38 S16 1.469659 1_555
O39 S13 1.469662 1_555
O40 S14 1.469654 1_555
O41 S12 1.469659 1_555
O42 S6 1.503643 1_555
O43 S7 1.503652 1_555
O44 S8 1.503648 1_555
O45 S9 1.503652 1_555
O46 S10 1.503643 1_555
O47 S11 1.503648 1_555
O48 S5 1.469654 1_545
O49 S3 1.469662 1_555
O50 S4 1.469659 1_655
O51 S1 1.469662 1_555
O52 S2 1.469654 1_655
O53 S0 1.469659 1_545
O54 S12 1.503654 1_555
O55 S13 1.503638 1_655
O56 S14 1.503645 1_545
O57 S15 1.503638 1_545
O58 S16 1.503654 1_555
O59 S17 1.503645 1_655
O60 S11 1.469665 1_555
O61 S9 1.469648 1_455
O62 S10 1.469655 1_565
O63 S7 1.469648 1_565
O64 S8 1.469665 1_555
O65 S6 1.469655 1_455
O66 S0 1.503643 1_555
O67 S1 1.503652 1_555
O68 S2 1.503648 1_555
O69 S3 1.503652 1_555
O70 S4 1.503643 1_555
O71 S5 1.503648 1_555
