# generated using pymatgen
data_Na3MgNbSi(PO6)2
_symmetry_space_group_name_H-M   'P 1'
_cell_length_a   9.00712913
_cell_length_b   9.04136674
_cell_length_c   22.13136136
_cell_angle_alpha   89.82870896
_cell_angle_beta   90.00000000
_cell_angle_gamma   119.87481343
_symmetry_Int_Tables_number   1
_chemical_formula_structural   Na3MgNbSi(PO6)2
_chemical_formula_sum   'Na18 Mg6 Nb6 Si6 P12 O72'
_cell_volume   1562.79898300
_cell_formula_units_Z   6
loop_
 _symmetry_equiv_pos_site_id
 _symmetry_equiv_pos_as_xyz
  1  'x, y, z'
loop_
 _atom_site_type_symbol
 _atom_site_label
 _atom_site_symmetry_multiplicity
 _atom_site_fract_x
 _atom_site_fract_y
 _atom_site_fract_z
 _atom_site_occupancy
  Na  Na0  1  0.99701401  0.00720157  0.49029603  1
  Na  Na1  1  0.01018756  0.00720157  0.99029603  1
  Na  Na2  1  0.67106589  0.32745914  0.82430447  1
  Na  Na3  1  0.65639425  0.32745914  0.32430447  1
  Na  Na4  1  0.34808539  0.65490322  0.15714386  1
  Na  Na5  1  0.30681683  0.65490322  0.65714386  1
  Na  Na6  1  0.65172085  0.01805837  0.24461060  1
  Na  Na7  1  0.98909316  0.62387905  0.24033575  1
  Na  Na8  1  0.63478588  0.62387905  0.74033575  1
  Na  Na9  1  0.36633752  0.01805837  0.74461060  1
  Na  Na10  1  0.31548125  0.35271219  0.58101708  1
  Na  Na11  1  0.64684724  0.95404448  0.57432216  1
  Na  Na12  1  0.30719825  0.95404448  0.07432216  1
  Na  Na13  1  0.03723194  0.35271219  0.08101708  1
  Na  Na14  1  0.97954039  0.68407243  0.91435966  1
  Na  Na15  1  0.70185020  0.02235320  0.90828726  1
  Na  Na16  1  0.32050200  0.02235320  0.40828726  1
  Na  Na17  1  0.70453104  0.68407243  0.41435966  1
  Mg  Mg0  1  0.00212957  0.00774760  0.35223124  1
  Mg  Mg1  1  0.00561803  0.00774760  0.85223124  1
  Mg  Mg2  1  0.67264551  0.33250339  0.68561609  1
  Mg  Mg3  1  0.65985888  0.33250339  0.18561609  1
  Mg  Mg4  1  0.33359793  0.66806522  0.01878216  1
  Mg  Mg5  1  0.33446629  0.66806522  0.51878216  1
  Nb  Nb0  1  0.99353932  0.99606013  0.64674812  1
  Nb  Nb1  1  0.00252081  0.99606013  0.14674812  1
  Nb  Nb2  1  0.66243304  0.33613441  0.97981516  1
  Nb  Nb3  1  0.67370237  0.33613441  0.47981516  1
  Nb  Nb4  1  0.33226397  0.66734051  0.31323137  1
  Nb  Nb5  1  0.33507554  0.66734051  0.81323137  1
  Si  Si0  1  0.29845325  0.00431799  0.25579237  1
  Si  Si1  1  0.70586474  0.00431799  0.75579237  1
  Si  Si2  1  0.66542337  0.62526976  0.58769560  1
  Si  Si3  1  0.95984739  0.62526976  0.08769560  1
  Si  Si4  1  0.33190467  0.96516209  0.92047287  1
  Si  Si5  1  0.63325642  0.96516209  0.42047287  1
  P  P0  1  0.70725796  0.70684766  0.25394885  1
  P  P1  1  0.00455256  0.29220642  0.25012638  1
  P  P2  1  0.28765385  0.29220642  0.75012638  1
  P  P3  1  0.99958969  0.70684766  0.75394885  1
  P  P4  1  0.95879579  0.33345208  0.58621431  1
  P  P5  1  0.37097230  0.04177442  0.58552045  1
  P  P6  1  0.67080313  0.04177442  0.08552045  1
  P  P7  1  0.37465729  0.33345208  0.08621431  1
  P  P8  1  0.62020696  0.66240271  0.91812817  1
  P  P9  1  0.04080369  0.37452287  0.92161747  1
  P  P10  1  0.33371819  0.37452287  0.42161747  1
  P  P11  1  0.04219475  0.66240271  0.41812817  1
  O  O0  1  0.20415885  0.00871328  0.31555341  1
  O  O1  1  0.80578449  0.78918182  0.31129884  1
  O  O2  1  0.97636003  0.17439444  0.30242600  1
  O  O3  1  0.19803441  0.17439444  0.80242600  1
  O  O4  1  0.98339733  0.78918182  0.81129884  1
  O  O5  1  0.80455444  0.00871328  0.81555341  1
  O  O6  1  0.81219507  0.97975381  0.69570624  1
  O  O7  1  0.18503772  0.20782998  0.68940284  1
  O  O8  1  0.02917338  0.83376550  0.69833235  1
  O  O9  1  0.80459212  0.83376550  0.19833235  1
  O  O10  1  0.02279227  0.20782998  0.18940284  1
  O  O11  1  0.16755874  0.97975381  0.19570624  1
  O  O12  1  0.87069222  0.34405428  0.64175642  1
  O  O13  1  0.47524513  0.12371742  0.64201969  1
  O  O14  1  0.64531999  0.51445996  0.64598074  1
  O  O15  1  0.86914097  0.51445996  0.14598074  1
  O  O16  1  0.64847329  0.12371742  0.14201969  1
  O  O17  1  0.47336306  0.34405428  0.14175642  1
  O  O18  1  0.46576398  0.30662123  0.02829087  1
  O  O19  1  0.83689495  0.52494651  0.02644702  1
  O  O20  1  0.68954228  0.16113172  0.02863500  1
  O  O21  1  0.47159044  0.16113172  0.52863500  1
  O  O22  1  0.68805256  0.52494651  0.52644702  1
  O  O23  1  0.84085825  0.30662123  0.52829087  1
  O  O24  1  0.52538505  0.68005648  0.97078516  1
  O  O25  1  0.13153371  0.45486035  0.98020322  1
  O  O26  1  0.31285647  0.85487618  0.97921609  1
  O  O27  1  0.54201870  0.85487618  0.47921609  1
  O  O28  1  0.32332564  0.45486035  0.48020322  1
  O  O29  1  0.15467043  0.68005648  0.47078516  1
  O  O30  1  0.12477148  0.64010854  0.35758237  1
  O  O31  1  0.49671896  0.85620853  0.36062780  1
  O  O32  1  0.35147280  0.49495751  0.36637548  1
  O  O33  1  0.14348371  0.49495751  0.86637548  1
  O  O34  1  0.35948857  0.85620853  0.86062780  1
  O  O35  1  0.51533607  0.64010854  0.85758237  1
  O  O36  1  0.01047853  0.81334849  0.41377105  1
  O  O37  1  0.81773184  0.98508052  0.41062216  1
  O  O38  1  0.18896240  0.19203016  0.41420512  1
  O  O39  1  0.00306776  0.19203016  0.91420512  1
  O  O40  1  0.16734868  0.98508052  0.91062216  1
  O  O41  1  0.80286995  0.81334849  0.91377105  1
  O  O42  1  0.96565551  0.16005112  0.58633073  1
  O  O43  1  0.19740727  0.04447014  0.58604066  1
  O  O44  1  0.84541486  0.81948476  0.58950860  1
  O  O45  1  0.97406990  0.81948476  0.08950860  1
  O  O46  1  0.84706287  0.04447014  0.08604066  1
  O  O47  1  0.19439560  0.16005112  0.08633073  1
  O  O48  1  0.66136165  0.15320234  0.74670493  1
  O  O49  1  0.47140471  0.32423661  0.74549121  1
  O  O50  1  0.84537716  0.53173186  0.74483834  1
  O  O51  1  0.68635569  0.53173186  0.24483834  1
  O  O52  1  0.85283290  0.32423661  0.24549121  1
  O  O53  1  0.49184169  0.15320234  0.24670493  1
  O  O54  1  0.63621140  0.49555258  0.92130016  1
  O  O55  1  0.86225477  0.37314904  0.91953881  1
  O  O56  1  0.51832653  0.14866505  0.92080293  1
  O  O57  1  0.63033952  0.14866505  0.42080293  1
  O  O58  1  0.51089527  0.37314904  0.41953881  1
  O  O59  1  0.85934218  0.49555258  0.42130016  1
  O  O60  1  0.34023510  0.48025228  0.07747516  1
  O  O61  1  0.15304360  0.65768447  0.08172882  1
  O  O62  1  0.52112374  0.86213600  0.07744341  1
  O  O63  1  0.34101126  0.86213600  0.57744341  1
  O  O64  1  0.50463987  0.65768447  0.58172882  1
  O  O65  1  0.14001619  0.48025228  0.57747516  1
  O  O66  1  0.29870625  0.81456065  0.25394613  1
  O  O67  1  0.52846099  0.70011912  0.25423007  1
  O  O68  1  0.17352584  0.47081638  0.25476468  1
  O  O69  1  0.29728953  0.47081638  0.75476468  1
  O  O70  1  0.17165713  0.70011912  0.75423007  1
  O  O71  1  0.51585340  0.81456065  0.75394613  1
loop_
_geom_bond_atom_site_label_1
_geom_bond_atom_site_label_2
_geom_bond_distance
_geom_bond_site_symmetry_2
Na0 O37 2.331779 1_545
Na0 O38 2.392169 1_655
Na0 O36 2.486855 1_645
Na0 O42 2.629310 1_555
Na0 O44 2.689831 1_545
Na0 O43 2.694404 1_655
Na1 O40 2.331779 1_545
Na1 O39 2.392169 1_555
Na1 O41 2.486855 1_445
Na1 O47 2.629310 1_556
Na1 O45 2.689831 1_446
Na1 O46 2.694404 1_456
Na2 O48 2.306143 1_555
Na2 O50 2.461897 1_555
Na2 O49 2.495094 1_555
Na2 O56 2.613557 1_555
Na2 O55 2.622007 1_555
Na2 O54 2.740665 1_555
Na3 O53 2.306143 1_555
Na3 O51 2.461897 1_555
Na3 O52 2.495094 1_555
Na3 O57 2.613557 1_555
Na3 O58 2.622007 1_555
Na3 O59 2.740665 1_555
Na4 O60 2.347916 1_555
Na4 O61 2.432346 1_555
Na4 O62 2.474289 1_555
Na4 O67 2.601336 1_555
Na4 O68 2.698421 1_555
Na4 O66 2.743973 1_555
Na5 O65 2.347916 1_555
Na5 O64 2.432346 1_555
Na5 O63 2.474289 1_555
Na5 O70 2.601336 1_555
Na5 O69 2.698421 1_555
Na5 O71 2.743973 1_555
Na6 O53 2.306981 1_555
Na6 O52 2.439215 1_555
Na6 O16 2.466453 1_555
Na6 O67 2.521557 1_545
Na6 O66 2.776279 1_545
Na6 O9 2.831464 1_545
Na6 O2 2.842297 1_555
Na6 O31 2.936914 1_545
Na7 O15 2.335415 1_555
Na7 O52 2.354717 1_555
Na7 O51 2.423999 1_555
Na7 O66 2.460378 1_655
Na7 O68 2.657884 1_655
Na7 O30 2.841083 1_655
Na7 O11 2.956492 1_655
Na8 O14 2.335418 1_555
Na8 O49 2.354716 1_555
Na8 O50 2.424008 1_555
Na8 O71 2.460385 1_555
Na8 O69 2.657892 1_555
Na8 O35 2.841087 1_555
Na8 O6 2.956492 1_555
Na9 O48 2.306989 1_555
Na9 O49 2.439214 1_555
Na9 O13 2.466455 1_555
Na9 O70 2.521558 1_545
Na9 O71 2.776272 1_545
Na9 O8 2.831464 1_545
Na9 O3 2.842297 1_555
Na9 O34 2.936912 1_545
Na10 O65 2.376692 1_555
Na10 O28 2.399718 1_555
Na10 O64 2.413770 1_555
Na10 O43 2.440458 1_555
Na10 O7 2.701521 1_555
Na10 O42 2.739954 1_455
Na10 O14 2.952341 1_555
Na10 O21 2.959686 1_555
Na11 O27 2.300791 1_555
Na11 O64 2.329269 1_555
Na11 O63 2.450085 1_555
Na11 O42 2.541721 1_565
Na11 O44 2.637640 1_555
Na12 O26 2.300787 1_554
Na12 O61 2.329269 1_555
Na12 O62 2.450068 1_555
Na12 O47 2.541728 1_565
Na12 O45 2.637648 1_455
Na13 O60 2.376676 1_555
Na13 O25 2.399715 1_554
Na13 O61 2.413772 1_555
Na13 O46 2.440459 1_455
Na13 O10 2.701519 1_555
Na13 O47 2.739946 1_555
Na13 O15 2.952341 1_455
Na13 O20 2.959686 1_455
Na14 O40 2.384830 1_655
Na14 O41 2.398202 1_555
Na14 O4 2.461887 1_555
Na14 O55 2.464021 1_555
Na14 O54 2.690591 1_555
Na14 O19 2.830450 1_556
Na14 O33 2.959401 1_655
Na14 O26 2.975388 1_655
Na15 O5 2.279950 1_555
Na15 O39 2.363546 1_655
Na15 O56 2.448670 1_555
Na15 O41 2.474895 1_545
Na15 O55 2.765613 1_555
Na16 O0 2.279946 1_555
Na16 O38 2.363538 1_555
Na16 O57 2.448686 1_555
Na16 O36 2.474889 1_545
Na16 O58 2.765614 1_555
Na17 O37 2.384829 1_555
Na17 O36 2.398210 1_655
Na17 O1 2.461888 1_555
Na17 O58 2.464019 1_555
Na17 O59 2.690606 1_555
Na17 O22 2.830453 1_555
Na17 O32 2.959401 1_555
Na17 O27 2.975388 1_555
Mg0 O2 1.969138 1_455
Mg0 O0 1.988576 1_555
Mg0 O37 2.032204 1_445
Mg0 O1 2.093439 1_445
Mg0 O38 2.170167 1_555
Mg0 O36 2.251050 1_545
Mg1 O3 1.969138 1_555
Mg1 O5 1.988576 1_455
Mg1 O40 2.032204 1_545
Mg1 O4 2.093439 1_445
Mg1 O39 2.170167 1_555
Mg1 O41 2.251050 1_445
Mg2 O14 1.982738 1_555
Mg2 O12 1.987203 1_555
Mg2 O48 2.070986 1_555
Mg2 O13 2.079167 1_555
Mg2 O50 2.146004 1_555
Mg2 O49 2.216188 1_555
Mg3 O15 1.982738 1_555
Mg3 O17 1.987203 1_555
Mg3 O53 2.070986 1_555
Mg3 O16 2.079167 1_555
Mg3 O51 2.146004 1_555
Mg3 O52 2.216188 1_555
Mg4 O24 1.984170 1_554
Mg4 O26 1.989971 1_554
Mg4 O25 2.066901 1_554
Mg4 O61 2.107477 1_555
Mg4 O60 2.159235 1_555
Mg4 O62 2.162951 1_555
Mg5 O29 1.984170 1_555
Mg5 O27 1.989971 1_555
Mg5 O28 2.066901 1_555
Mg5 O64 2.107477 1_555
Mg5 O65 2.159235 1_555
Mg5 O63 2.162951 1_555
Nb0 O6 1.903376 1_555
Nb0 O44 1.955430 1_555
Nb0 O8 2.004660 1_655
Nb0 O7 2.062293 1_665
Nb0 O42 2.099641 1_565
Nb0 O43 2.136433 1_665
Nb1 O11 1.903376 1_555
Nb1 O45 1.955430 1_455
Nb1 O9 2.004660 1_455
Nb1 O10 2.062293 1_565
Nb1 O47 2.099641 1_565
Nb1 O46 2.136433 1_465
Nb2 O19 1.945960 1_556
Nb2 O18 1.971677 1_556
Nb2 O56 2.021119 1_555
Nb2 O20 2.026134 1_556
Nb2 O54 2.034290 1_555
Nb2 O55 2.127952 1_555
Nb3 O22 1.945960 1_555
Nb3 O23 1.971677 1_555
Nb3 O57 2.021119 1_555
Nb3 O21 2.026134 1_555
Nb3 O59 2.034290 1_555
Nb3 O58 2.127952 1_555
Nb4 O31 1.923868 1_555
Nb4 O66 1.993736 1_555
Nb4 O30 2.014208 1_555
Nb4 O32 2.024873 1_555
Nb4 O68 2.087730 1_555
Nb4 O67 2.095646 1_555
Nb5 O34 1.923868 1_555
Nb5 O71 1.993736 1_555
Nb5 O35 2.014208 1_555
Nb5 O33 2.024873 1_555
Nb5 O69 2.087730 1_555
Nb5 O70 2.095646 1_555
O0 Si0 1.583072 1_555
O1 P0 1.516636 1_555
O2 P1 1.503987 1_655
O3 P2 1.503987 1_555
O4 P3 1.516636 1_555
O5 Si1 1.583072 1_555
O6 Si1 1.717142 1_565
O7 P2 1.595623 1_555
O8 P3 1.609274 1_455
O9 P0 1.609275 1_555
O10 P1 1.595623 1_555
O11 Si0 1.717142 1_565
O12 P4 1.492113 1_555
O13 P5 1.518832 1_555
O14 Si2 1.584929 1_555
O15 Si3 1.584929 1_555
O16 P6 1.518832 1_555
O17 P7 1.492113 1_555
O18 P7 1.604916 1_555
O19 Si3 1.700956 1_555
O20 P6 1.608864 1_555
O21 P5 1.608864 1_555
O22 Si2 1.700956 1_555
O23 P4 1.604916 1_555
O24 P8 1.499975 1_555
O25 P9 1.513557 1_555
O26 Si4 1.592391 1_555
O27 Si5 1.592391 1_555
O28 P10 1.513557 1_555
O29 P11 1.499975 1_555
O30 P11 1.593833 1_555
O31 Si5 1.742965 1_555
O32 P10 1.588878 1_555
O33 P9 1.588878 1_555
O34 Si4 1.742965 1_555
O35 P8 1.593833 1_555
O36 P11 1.530058 1_555
O37 Si5 1.594527 1_555
O38 P10 1.519144 1_555
O39 P9 1.519147 1_555
O40 Si4 1.594518 1_555
O41 P8 1.530063 1_555
O42 P4 1.599450 1_555
O43 P5 1.575647 1_555
O44 Si2 1.696396 1_555
O45 Si3 1.696400 1_555
O46 P6 1.575638 1_555
O47 P7 1.599455 1_555
O48 Si1 1.596584 1_555
O49 P2 1.534918 1_555
O50 P3 1.512560 1_555
O51 P0 1.512563 1_555
O52 P1 1.534909 1_655
O53 Si0 1.596590 1_555
O54 P8 1.586647 1_555
O55 P9 1.602724 1_655
O56 Si4 1.672406 1_545
O57 Si5 1.672397 1_545
O58 P10 1.602742 1_555
O59 P11 1.586637 1_655
O60 P7 1.517766 1_555
O61 Si3 1.619611 1_455
O62 P6 1.519158 1_565
O63 P5 1.519151 1_565
O64 Si2 1.619628 1_555
O65 P4 1.517755 1_455
O66 Si0 1.717410 1_565
O67 P0 1.581037 1_555
O68 P1 1.577103 1_555
O69 P2 1.577108 1_555
O70 P3 1.581028 1_455
O71 Si1 1.717415 1_565
