# generated using pymatgen
data_Cu4As2O9
_symmetry_space_group_name_H-M   'P 1'
_cell_length_a   6.51290900
_cell_length_b   8.32979400
_cell_length_c   14.08438600
_cell_angle_alpha   90.00000000
_cell_angle_beta   90.00000000
_cell_angle_gamma   90.00000000
_symmetry_Int_Tables_number   1
_chemical_formula_structural   Cu4As2O9
_chemical_formula_sum   'Cu16 As8 O36'
_cell_volume   764.09470530
_cell_formula_units_Z   4
loop_
 _symmetry_equiv_pos_site_id
 _symmetry_equiv_pos_as_xyz
  1  'x, y, z'
loop_
 _atom_site_type_symbol
 _atom_site_label
 _atom_site_symmetry_multiplicity
 _atom_site_fract_x
 _atom_site_fract_y
 _atom_site_fract_z
 _atom_site_occupancy
  Cu  Cu0  1  0.25000000  0.36505700  0.05038700  1
  Cu  Cu1  1  0.75000000  0.63494300  0.94961300  1
  Cu  Cu2  1  0.25000000  0.86505700  0.44961300  1
  Cu  Cu3  1  0.75000000  0.13494300  0.55038700  1
  Cu  Cu4  1  0.50723300  0.35297300  0.84514900  1
  Cu  Cu5  1  0.00723300  0.64702700  0.15485100  1
  Cu  Cu6  1  0.99276700  0.85297300  0.65485100  1
  Cu  Cu7  1  0.49276700  0.14702700  0.34514900  1
  Cu  Cu8  1  0.49276700  0.64702700  0.15485100  1
  Cu  Cu9  1  0.99276700  0.35297300  0.84514900  1
  Cu  Cu10  1  0.00723300  0.14702700  0.34514900  1
  Cu  Cu11  1  0.50723300  0.85297300  0.65485100  1
  Cu  Cu12  1  0.25000000  0.57358300  0.58675800  1
  Cu  Cu13  1  0.75000000  0.42641700  0.41324200  1
  Cu  Cu14  1  0.25000000  0.07358300  0.91324200  1
  Cu  Cu15  1  0.75000000  0.92641700  0.08675800  1
  As  As0  1  0.25000000  0.50042800  0.34352800  1
  As  As1  1  0.75000000  0.49957200  0.65647200  1
  As  As2  1  0.25000000  0.00042800  0.15647200  1
  As  As3  1  0.75000000  0.99957200  0.84352800  1
  As  As4  1  0.25000000  0.15577200  0.59044600  1
  As  As5  1  0.75000000  0.84422800  0.40955400  1
  As  As6  1  0.25000000  0.65577200  0.90955400  1
  As  As7  1  0.75000000  0.34422800  0.09044700  1
  O  O0  1  0.25000000  0.35396100  0.61585600  1
  O  O1  1  0.75000000  0.64603900  0.38414400  1
  O  O2  1  0.25000000  0.85396100  0.88414400  1
  O  O3  1  0.75000000  0.14603900  0.11585600  1
  O  O4  1  0.25000000  0.31065800  0.90837400  1
  O  O5  1  0.75000000  0.68934200  0.09162600  1
  O  O6  1  0.25000000  0.81065800  0.59162600  1
  O  O7  1  0.75000000  0.18934200  0.40837400  1
  O  O8  1  0.53332900  0.62007500  0.64793500  1
  O  O9  1  0.03332900  0.37992500  0.35206500  1
  O  O10  1  0.96667100  0.12007500  0.85206500  1
  O  O11  1  0.46667100  0.87992500  0.14793500  1
  O  O12  1  0.46667100  0.37992500  0.35206500  1
  O  O13  1  0.96667100  0.62007500  0.64793500  1
  O  O14  1  0.25000000  0.63033500  0.43908700  1
  O  O15  1  0.03332900  0.87992500  0.14793500  1
  O  O16  1  0.47499200  0.58169000  0.85805300  1
  O  O17  1  0.97499200  0.41831000  0.14194700  1
  O  O18  1  0.02500800  0.08169000  0.64194700  1
  O  O19  1  0.52500800  0.91831000  0.35805300  1
  O  O20  1  0.52500800  0.41831000  0.14194700  1
  O  O21  1  0.02500800  0.58169000  0.85805300  1
  O  O22  1  0.97499200  0.91831000  0.35805300  1
  O  O23  1  0.47499200  0.08169000  0.64194700  1
  O  O24  1  0.75000000  0.88514300  0.73863200  1
  O  O25  1  0.25000000  0.11485700  0.26136800  1
  O  O26  1  0.75000000  0.38514300  0.76136800  1
  O  O27  1  0.25000000  0.61485700  0.23863200  1
  O  O28  1  0.75000000  0.89961400  0.52867900  1
  O  O29  1  0.25000000  0.10038600  0.47132100  1
  O  O30  1  0.75000000  0.39961400  0.97132100  1
  O  O31  1  0.25000000  0.60038600  0.02867900  1
  O  O32  1  0.75000000  0.86966500  0.93908700  1
  O  O33  1  0.25000000  0.13033500  0.06091300  1
  O  O34  1  0.75000000  0.36966500  0.56091300  1
  O  O35  1  0.53332900  0.12007500  0.85206500  1
loop_
_geom_bond_atom_site_label_1
_geom_bond_atom_site_label_2
_geom_bond_distance
_geom_bond_site_symmetry_2
Cu0 O33 1.960798 1_555
Cu0 O31 1.983943 1_555
Cu0 O4 2.050852 1_554
Cu0 O17 2.251177 1_455
Cu0 O20 2.251177 1_555
Cu1 O32 1.960798 1_555
Cu1 O30 1.983943 1_555
Cu1 O5 2.050852 1_556
Cu1 O16 2.251177 1_555
Cu1 O21 2.251177 1_655
Cu2 O14 1.960798 1_555
Cu2 O29 1.983943 1_565
Cu2 O6 2.050852 1_555
Cu2 O22 2.251177 1_455
Cu2 O19 2.251177 1_555
Cu3 O34 1.960798 1_555
Cu3 O28 1.983943 1_545
Cu3 O7 2.050852 1_555
Cu3 O23 2.251177 1_555
Cu3 O18 2.251177 1_655
Cu4 O16 1.925300 1_555
Cu4 O4 1.929754 1_555
Cu4 O35 1.949858 1_555
Cu4 O26 1.991019 1_555
Cu4 O30 2.410146 1_555
Cu5 O17 1.925300 1_455
Cu5 O5 1.929754 1_455
Cu5 O15 1.949858 1_555
Cu5 O27 1.991019 1_555
Cu5 O31 2.410146 1_555
Cu6 O18 1.925300 1_665
Cu6 O6 1.929754 1_655
Cu6 O13 1.949858 1_555
Cu6 O24 1.991019 1_555
Cu6 O28 2.410146 1_555
Cu7 O19 1.925300 1_545
Cu7 O7 1.929754 1_555
Cu7 O12 1.949858 1_555
Cu7 O25 1.991019 1_555
Cu7 O29 2.410146 1_555
Cu8 O20 1.925300 1_555
Cu8 O5 1.929754 1_555
Cu8 O11 1.949858 1_555
Cu8 O27 1.991019 1_555
Cu8 O31 2.410146 1_555
Cu9 O21 1.925300 1_655
Cu9 O4 1.929754 1_655
Cu9 O10 1.949858 1_555
Cu9 O26 1.991019 1_555
Cu9 O30 2.410146 1_555
Cu10 O22 1.925300 1_445
Cu10 O7 1.929754 1_455
Cu10 O9 1.949858 1_555
Cu10 O25 1.991019 1_555
Cu10 O29 2.410146 1_555
Cu11 O23 1.925300 1_565
Cu11 O6 1.929754 1_555
Cu11 O8 1.949858 1_555
Cu11 O24 1.991019 1_555
Cu11 O28 2.410146 1_555
Cu12 O0 1.874749 1_555
Cu12 O6 1.975976 1_555
Cu12 O8 2.073046 1_555
Cu12 O13 2.073046 1_455
Cu12 O14 2.132903 1_555
Cu13 O1 1.874749 1_555
Cu13 O7 1.975976 1_555
Cu13 O9 2.073046 1_655
Cu13 O12 2.073046 1_555
Cu13 O34 2.132903 1_555
Cu14 O2 1.874749 1_545
Cu14 O4 1.975976 1_555
Cu14 O10 2.073046 1_455
Cu14 O35 2.073046 1_555
Cu14 O33 2.132903 1_556
Cu15 O3 1.874749 1_565
Cu15 O5 1.975976 1_555
Cu15 O15 2.073046 1_655
Cu15 O11 2.073046 1_555
Cu15 O32 2.132903 1_554
As0 O14 1.726950 1_555
As0 O12 1.735906 1_555
As0 O9 1.735906 1_555
As0 O27 1.758190 1_555
As1 O34 1.726950 1_555
As1 O8 1.735906 1_555
As1 O13 1.735906 1_555
As1 O26 1.758190 1_555
As2 O33 1.726950 1_555
As2 O11 1.735906 1_545
As2 O15 1.735906 1_545
As2 O25 1.758190 1_555
As3 O32 1.726950 1_555
As3 O10 1.735906 1_565
As3 O35 1.735906 1_565
As3 O24 1.758190 1_555
As4 O0 1.689220 1_555
As4 O29 1.740077 1_555
As4 O18 1.747628 1_555
As4 O23 1.747628 1_555
As5 O1 1.689220 1_555
As5 O28 1.740077 1_555
As5 O22 1.747628 1_555
As5 O19 1.747628 1_555
As6 O2 1.689220 1_555
As6 O31 1.740077 1_556
As6 O21 1.747628 1_555
As6 O16 1.747628 1_555
As7 O3 1.689217 1_555
As7 O30 1.740091 1_554
As7 O20 1.747622 1_555
As7 O17 1.747622 1_555
