# generated using pymatgen
data_CoOF
_symmetry_space_group_name_H-M   'P 1'
_cell_length_a   4.53881270
_cell_length_b   4.49083901
_cell_length_c   9.00918604
_cell_angle_alpha   89.99284556
_cell_angle_beta   91.44723278
_cell_angle_gamma   89.99728025
_symmetry_Int_Tables_number   1
_chemical_formula_structural   CoOF
_chemical_formula_sum   'Co6 O6 F6'
_cell_volume   183.57635453
_cell_formula_units_Z   6
loop_
 _symmetry_equiv_pos_site_id
 _symmetry_equiv_pos_as_xyz
  1  'x, y, z'
loop_
 _atom_site_type_symbol
 _atom_site_label
 _atom_site_symmetry_multiplicity
 _atom_site_fract_x
 _atom_site_fract_y
 _atom_site_fract_z
 _atom_site_occupancy
  Co  Co0  1  0.96923900  0.96330800  0.00088200  1
  Co  Co1  1  0.97199000  0.98448600  0.33195400  1
  Co  Co2  1  0.03258300  0.01869700  0.66699400  1
  Co  Co3  1  0.53266300  0.48123100  0.16703600  1
  Co  Co4  1  0.47214500  0.51552000  0.83196600  1
  Co  Co5  1  0.46902300  0.53656800  0.50095400  1
  O  O0  1  0.19621300  0.81559400  0.82899700  1
  O  O1  1  0.18759900  0.82786600  0.50144600  1
  O  O2  1  0.31214100  0.32099800  0.66633400  1
  O  O3  1  0.68769700  0.67233300  0.00142700  1
  O  O4  1  0.69603700  0.68446300  0.32911100  1
  O  O5  1  0.81237800  0.17912600  0.16641000  1
  F  F0  1  0.21636100  0.77304800  0.16410800  1
  F  F1  1  0.30753600  0.28671700  0.32966500  1
  F  F2  1  0.30624200  0.27668800  0.00956300  1
  F  F3  1  0.71634200  0.72677300  0.66406100  1
  F  F4  1  0.80767700  0.21325100  0.82949500  1
  F  F5  1  0.80613400  0.22333400  0.50960200  1
loop_
_geom_bond_atom_site_label_1
_geom_bond_atom_site_label_2
_geom_bond_distance
_geom_bond_site_symmetry_2
Co0 O3 1.827830 1_555
Co0 O5 1.929784 1_565
Co0 O0 1.995020 1_654
Co0 F0 2.016648 1_655
Co0 F4 2.030773 1_564
Co0 F2 2.078597 1_665
Co1 O4 1.839381 1_555
Co1 O5 1.859633 1_565
Co1 O1 1.925682 1_655
Co1 F1 2.040552 1_665
Co1 F5 2.083247 1_565
Co1 F0 2.122129 1_655
Co2 O2 1.858393 1_555
Co2 O0 1.859717 1_545
Co2 O1 1.872744 1_545
Co2 F3 1.943683 1_445
Co2 F5 1.958968 1_455
Co2 F4 2.006101 1_455
Co3 O5 1.858144 1_555
Co3 O4 1.860277 1_555
Co3 O3 1.873637 1_555
Co3 F0 1.943467 1_555
Co3 F2 1.959436 1_555
Co3 F1 2.007291 1_555
Co4 O0 1.839389 1_555
Co4 O2 1.860877 1_555
Co4 O3 1.925828 1_556
Co4 F4 2.040574 1_555
Co4 F2 2.082765 1_556
Co4 F3 2.121595 1_555
Co5 O1 1.828398 1_555
Co5 O2 1.928066 1_555
Co5 O4 1.994993 1_555
Co5 F3 2.016459 1_555
Co5 F1 2.030017 1_555
Co5 F5 2.078396 1_555
