# generated using pymatgen
data_DyMgMn2O4
_symmetry_space_group_name_H-M   'P 1'
_cell_length_a   3.39128646
_cell_length_b   3.39128646
_cell_length_c   11.31617048
_cell_angle_alpha   81.38654806
_cell_angle_beta   81.38654806
_cell_angle_gamma   59.98135840
_symmetry_Int_Tables_number   1
_chemical_formula_structural   DyMgMn2O4
_chemical_formula_sum   'Dy1 Mg1 Mn2 O4'
_cell_volume   110.99039131
_cell_formula_units_Z   1
loop_
 _symmetry_equiv_pos_site_id
 _symmetry_equiv_pos_as_xyz
  1  'x, y, z'
loop_
 _atom_site_type_symbol
 _atom_site_label
 _atom_site_symmetry_multiplicity
 _atom_site_fract_x
 _atom_site_fract_y
 _atom_site_fract_z
 _atom_site_occupancy
  Dy  Dy0  1  0.00794342  0.00794342  0.97404949  1
  Mg  Mg0  1  0.59076010  0.59076010  0.22917169  1
  Mn  Mn0  1  0.18472248  0.18472248  0.44450050  1
  Mn  Mn1  1  0.77140010  0.77140010  0.68560100  1
  O  O0  1  0.30352167  0.30352167  0.08718633  1
  O  O1  1  0.70671607  0.70671607  0.87773608  1
  O  O2  1  0.12331514  0.12331514  0.62961882  1
  O  O3  1  0.90090701  0.90090701  0.29869809  1
loop_
_geom_bond_atom_site_label_1
_geom_bond_atom_site_label_2
_geom_bond_distance
_geom_bond_site_symmetry_2
Dy0 O1 2.232667 1_545
Dy0 O1 2.232667 1_455
Dy0 O1 2.232968 1_445
Dy0 O0 2.328699 1_556
Dy0 O0 2.328745 1_546
Dy0 O0 2.328745 1_456
Mg0 O3 2.105464 1_545
Mg0 O3 2.105464 1_455
Mg0 O3 2.105757 1_555
Mg0 O0 2.514516 1_655
Mg0 O0 2.514516 1_565
Mg0 O0 2.523172 1_555
Mn0 O2 2.063274 1_555
Mn0 O3 2.540343 1_445
Mn0 O3 2.546367 1_455
Mn0 O3 2.546367 1_545
Mn1 O2 2.054783 1_665
Mn1 O2 2.054813 1_565
Mn1 O2 2.054813 1_655
Mn1 O1 2.141484 1_555
