# generated using pymatgen
data_Na18Nb16Zn8Si21(S5O48)3
_symmetry_space_group_name_H-M   'P 1'
_cell_length_a   17.88883298
_cell_length_b   8.96324646
_cell_length_c   22.84290271
_cell_angle_alpha   89.91021128
_cell_angle_beta   89.63096907
_cell_angle_gamma   120.16552807
_symmetry_Int_Tables_number   1
_chemical_formula_structural   Na18Nb16Zn8Si21(S5O48)3
_chemical_formula_sum   'Na18 Nb16 Zn8 Si21 S15 O144'
_cell_volume   3166.55290319
_cell_formula_units_Z   1
loop_
 _symmetry_equiv_pos_site_id
 _symmetry_equiv_pos_as_xyz
  1  'x, y, z'
loop_
 _atom_site_type_symbol
 _atom_site_label
 _atom_site_symmetry_multiplicity
 _atom_site_fract_x
 _atom_site_fract_y
 _atom_site_fract_z
 _atom_site_occupancy
  Na  Na0  1  0.32072086  0.01864970  0.24134454  1
  Na  Na1  1  0.81815729  0.01705085  0.24228552  1
  Na  Na2  1  0.99524561  0.63253342  0.24261262  1
  Na  Na3  1  0.32526624  0.62188611  0.74536721  1
  Na  Na4  1  0.81875020  0.62036589  0.74347295  1
  Na  Na5  1  0.49266170  0.35941489  0.74188062  1
  Na  Na6  1  0.99229487  0.98696793  0.49021175  1
  Na  Na7  1  0.49271032  0.99156389  0.49243548  1
  Na  Na8  1  0.99274135  0.99461567  0.98735568  1
  Na  Na9  1  0.49271400  0.99737376  0.98724374  1
  Na  Na10  1  0.32713595  0.33481605  0.82545300  1
  Na  Na11  1  0.82622317  0.32107798  0.82653282  1
  Na  Na12  1  0.32884811  0.33359411  0.32886589  1
  Na  Na13  1  0.81800934  0.31694920  0.33188160  1
  Na  Na14  1  0.16826242  0.66957646  0.16063016  1
  Na  Na15  1  0.65796894  0.66429382  0.16230542  1
  Na  Na16  1  0.16063250  0.65482943  0.66439352  1
  Na  Na17  1  0.66430029  0.66615826  0.66390316  1
  Nb  Nb0  1  0.00020065  0.01148936  0.64310114  1
  Nb  Nb1  1  0.50245648  0.99950410  0.64544128  1
  Nb  Nb2  1  0.00112624  0.99035818  0.14138698  1
  Nb  Nb3  1  0.50057841  0.98878428  0.14261948  1
  Nb  Nb4  1  0.34487377  0.34547791  0.97720631  1
  Nb  Nb5  1  0.84327285  0.34503097  0.97762896  1
  Nb  Nb6  1  0.34431638  0.34175399  0.47978658  1
  Nb  Nb7  1  0.84363995  0.34125579  0.47834625  1
  Nb  Nb8  1  0.16896323  0.67056113  0.01950472  1
  Nb  Nb9  1  0.66935446  0.66855984  0.01896843  1
  Nb  Nb10  1  0.16946379  0.67255580  0.52107546  1
  Nb  Nb11  1  0.66897585  0.66947979  0.52090327  1
  Nb  Nb12  1  0.16652337  0.68045577  0.31475697  1
  Nb  Nb13  1  0.66109703  0.67832864  0.31372536  1
  Nb  Nb14  1  0.16280393  0.64427975  0.81267617  1
  Nb  Nb15  1  0.66232950  0.64944023  0.81099543  1
  Zn  Zn0  1  0.00208573  0.99231901  0.35864022  1
  Zn  Zn1  1  0.50259901  0.99146913  0.35777742  1
  Zn  Zn2  1  -0.00000623  0.01107673  0.85751738  1
  Zn  Zn3  1  0.50126236  0.99780331  0.85419009  1
  Zn  Zn4  1  0.33905851  0.36200544  0.68346205  1
  Zn  Zn5  1  0.83196590  0.34373776  0.68010490  1
  Zn  Zn6  1  0.33265622  0.31964064  0.17986251  1
  Zn  Zn7  1  0.82711586  0.31522595  0.17788167  1
  Si  Si0  1  0.14761164  0.01736476  0.25310181  1
  Si  Si1  1  0.64692458  0.01695849  0.25299368  1
  Si  Si2  1  0.14503623  0.27421724  0.75340122  1
  Si  Si3  1  0.64849681  0.27666532  0.75249756  1
  Si  Si4  1  0.50118373  0.71501632  0.75479352  1
  Si  Si5  1  0.48003460  0.33195540  0.58794081  1
  Si  Si6  1  0.97799449  0.34083535  0.58697187  1
  Si  Si7  1  0.33410384  0.62465267  0.58521448  1
  Si  Si8  1  0.83391342  0.62221469  0.58598537  1
  Si  Si9  1  0.47838069  0.61387918  0.08657105  1
  Si  Si10  1  0.97822701  0.61294213  0.08802776  1
  Si  Si11  1  0.33314422  0.04481356  0.08627269  1
  Si  Si12  1  0.83268257  0.04296188  0.08572703  1
  Si  Si13  1  0.31476846  0.66692367  0.91670185  1
  Si  Si14  1  0.81494435  0.66941341  0.91468355  1
  Si  Si15  1  0.02298983  0.37025473  0.91897376  1
  Si  Si16  1  0.52409650  0.36719968  0.91708002  1
  Si  Si17  1  0.31680586  0.96692433  0.41718067  1
  Si  Si18  1  0.81477433  0.96225458  0.41601047  1
  Si  Si19  1  0.02265667  0.67392542  0.41824077  1
  Si  Si20  1  0.52174314  0.67572284  0.41967721  1
  S  S0  1  0.35409898  0.70579202  0.25063237  1
  S  S1  1  0.85310193  0.70742688  0.24990333  1
  S  S2  1  0.00341117  0.29032422  0.25167654  1
  S  S3  1  0.50307709  0.28985039  0.25177600  1
  S  S4  1  0.00309790  0.71622556  0.75186373  1
  S  S5  1  0.35177032  0.99738897  0.75016070  1
  S  S6  1  0.85553831  0.00373911  0.75030693  1
  S  S7  1  0.18865269  0.04486045  0.58427060  1
  S  S8  1  0.68897872  0.04405772  0.58291181  1
  S  S9  1  0.18829811  0.33427462  0.08400785  1
  S  S10  1  0.68758828  0.33338646  0.08360262  1
  S  S11  1  0.16849012  0.95580986  0.91663749  1
  S  S12  1  0.66911946  0.95679217  0.91765993  1
  S  S13  1  0.16819920  0.38213531  0.41735070  1
  S  S14  1  0.66811707  0.38243256  0.41691105  1
  O  O0  1  0.09557630  0.01977625  0.30845404  1
  O  O1  1  0.59923560  0.02825932  0.30932408  1
  O  O2  1  0.40272203  0.78848391  0.30281158  1
  O  O3  1  0.90455817  0.78881769  0.30158258  1
  O  O4  1  0.48957978  0.18473898  0.30370953  1
  O  O5  1  0.99004844  0.18535698  0.30344029  1
  O  O6  1  0.09612654  0.16889056  0.80980884  1
  O  O7  1  0.60011871  0.17898330  0.81012769  1
  O  O8  1  0.47588441  0.79408208  0.80732421  1
  O  O9  1  0.98964628  0.79395495  0.80372007  1
  O  O10  1  0.40247774  0.02501635  0.80265881  1
  O  O11  1  0.90459835  0.02023066  0.80270929  1
  O  O12  1  0.39308807  0.96391146  0.69685176  1
  O  O13  1  0.89781922  0.97223583  0.69605769  1
  O  O14  1  0.08268910  0.18543086  0.69327315  1
  O  O15  1  0.58440064  0.19491168  0.69287377  1
  O  O16  1  0.01290143  0.81996818  0.69736102  1
  O  O17  1  0.51186027  0.83443045  0.69384651  1
  O  O18  1  0.39515038  0.82171327  0.19647850  1
  O  O19  1  0.89513342  0.82177496  0.19587082  1
  O  O20  1  0.01196414  0.20679169  0.19721561  1
  O  O21  1  0.51288063  0.20666814  0.19746872  1
  O  O22  1  0.08322789  0.97651647  0.19335371  1
  O  O23  1  0.58505965  0.98398725  0.19299177  1
  O  O24  1  0.44164232  0.36122441  0.64660597  1
  O  O25  1  0.93585060  0.36442187  0.64398977  1
  O  O26  1  0.23829145  0.11553486  0.63681715  1
  O  O27  1  0.73699792  0.11223513  0.63658762  1
  O  O28  1  0.30950068  0.52186968  0.64550555  1
  O  O29  1  0.81136657  0.52304194  0.64691418  1
  O  O30  1  0.43624051  0.50842427  0.14444463  1
  O  O31  1  0.93868732  0.51763287  0.14887318  1
  O  O32  1  0.31026657  0.09744350  0.14753515  1
  O  O33  1  0.81279031  0.09983338  0.14725009  1
  O  O34  1  0.23643159  0.36076243  0.13790309  1
  O  O35  1  0.73693746  0.36349558  0.13722160  1
  O  O36  1  0.22628007  0.30613702  0.03133044  1
  O  O37  1  0.72669868  0.30606919  0.03106963  1
  O  O38  1  0.41801454  0.53103430  0.02671594  1
  O  O39  1  0.91618066  0.52574785  0.02977455  1
  O  O40  1  0.34454074  0.17092178  0.02953268  1
  O  O41  1  0.84465436  0.16991428  0.02919099  1
  O  O42  1  0.22694389  0.14737271  0.53024214  1
  O  O43  1  0.73054340  0.14814999  0.52984174  1
  O  O44  1  0.34398896  0.51857069  0.52806728  1
  O  O45  1  0.84511310  0.51810551  0.52869917  1
  O  O46  1  0.41754845  0.30564111  0.52861871  1
  O  O47  1  0.91802072  0.30424224  0.52646585  1
  O  O48  1  0.25798056  0.67928542  0.97225194  1
  O  O49  1  0.76119667  0.68619583  0.97143249  1
  O  O50  1  0.08044273  0.48750447  0.97381346  1
  O  O51  1  0.58225349  0.48647620  0.97197846  1
  O  O52  1  0.16121947  0.85126668  0.97089313  1
  O  O53  1  0.66246934  0.85239913  0.97150799  1
  O  O54  1  0.26145427  0.83816225  0.47180886  1
  O  O55  1  0.76121925  0.83669548  0.47159738  1
  O  O56  1  0.16066194  0.47102485  0.47035802  1
  O  O57  1  0.66137487  0.47173065  0.47037329  1
  O  O58  1  0.08201725  0.67456867  0.47187821  1
  O  O59  1  0.58184791  0.67637293  0.47293464  1
  O  O60  1  0.06751558  0.63933180  0.35772230  1
  O  O61  1  0.56711011  0.64005950  0.35966619  1
  O  O62  1  0.25174159  0.86266243  0.35829443  1
  O  O63  1  0.75063758  0.85925104  0.35743181  1
  O  O64  1  0.18024649  0.49236920  0.36365563  1
  O  O65  1  0.68093507  0.49165461  0.36360686  1
  O  O66  1  0.06786948  0.49641508  0.85986208  1
  O  O67  1  0.56675443  0.49287616  0.85742542  1
  O  O68  1  0.18122487  0.87292790  0.86409108  1
  O  O69  1  0.68224781  0.87557587  0.86491216  1
  O  O70  1  0.25077829  0.64170428  0.85840318  1
  O  O71  1  0.75302303  0.64584396  0.85702002  1
  O  O72  1  0.01334896  0.83909383  0.41802151  1
  O  O73  1  0.51304307  0.84139274  0.41911887  1
  O  O74  1  0.40978290  0.99100875  0.40953567  1
  O  O75  1  0.90902413  0.98993537  0.40932552  1
  O  O76  1  0.08970567  0.21521740  0.41406150  1
  O  O77  1  0.59001481  0.21533875  0.41456140  1
  O  O78  1  0.01343361  0.18669015  0.91927535  1
  O  O79  1  0.51395483  0.18343880  0.91590208  1
  O  O80  1  0.09014252  0.96585342  0.91531335  1
  O  O81  1  0.59172357  0.96941807  0.91690236  1
  O  O82  1  0.40695195  0.83225434  0.91535689  1
  O  O83  1  0.91016814  0.82862399  0.91070047  1
  O  O84  1  0.49038441  0.16004353  0.58979716  1
  O  O85  1  0.98840891  0.16441005  0.59090029  1
  O  O86  1  0.09853950  0.01990580  0.58892513  1
  O  O87  1  0.60063375  0.02540280  0.58596275  1
  O  O88  1  0.42173243  0.81747082  0.58936516  1
  O  O89  1  0.92257889  0.81556521  0.59180807  1
  O  O90  1  0.48868698  0.81225770  0.09175674  1
  O  O91  1  0.98819241  0.81111673  0.09122192  1
  O  O92  1  0.42203366  0.02887666  0.09348380  1
  O  O93  1  0.92223360  0.02818622  0.09300962  1
  O  O94  1  0.09788980  0.17674650  0.08982277  1
  O  O95  1  0.59803923  0.17730122  0.08934220  1
  O  O96  1  0.33869033  0.14358593  0.74030227  1
  O  O97  1  0.84285058  0.14958162  0.74173197  1
  O  O98  1  0.24363549  0.32163701  0.74660335  1
  O  O99  1  0.74786120  0.32249558  0.74624277  1
  O  O100  1  0.42450082  0.51432473  0.74823489  1
  O  O101  1  0.92936844  0.53898407  0.74633744  1
  O  O102  1  0.34073918  0.53353340  0.24212258  1
  O  O103  1  0.84366683  0.53650656  0.24207554  1
  O  O104  1  0.42945588  0.31996979  0.24643813  1
  O  O105  1  0.93005484  0.32342710  0.24728186  1
  O  O106  1  0.24697539  0.16819186  0.24743120  1
  O  O107  1  0.74693021  0.16925099  0.24666141  1
  O  O108  1  0.31139022  0.47966686  0.92587723  1
  O  O109  1  0.81286727  0.48308000  0.92664451  1
  O  O110  1  0.42897038  0.36214053  0.92283071  1
  O  O111  1  0.92795406  0.36432509  0.92274311  1
  O  O112  1  0.24785286  0.12858058  0.92307248  1
  O  O113  1  0.74907748  0.13039049  0.92395775  1
  O  O114  1  0.31171455  0.14421305  0.42523730  1
  O  O115  1  0.81163312  0.14284179  0.42445729  1
  O  O116  1  0.24741222  0.36860021  0.42143166  1
  O  O117  1  0.74772398  0.36836330  0.42197174  1
  O  O118  1  0.42729010  0.49166668  0.42244135  1
  O  O119  1  0.92759930  0.49086415  0.42140483  1
  O  O120  1  0.17420644  0.48532315  0.07703868  1
  O  O121  1  0.67468989  0.48596029  0.07629694  1
  O  O122  1  0.07536321  0.64757659  0.07574392  1
  O  O123  1  0.57606855  0.64963603  0.07392917  1
  O  O124  1  0.25281876  0.84807270  0.07195639  1
  O  O125  1  0.75268491  0.84673038  0.07204215  1
  O  O126  1  0.17490739  0.86440451  0.57641249  1
  O  O127  1  0.67546077  0.86428508  0.57581845  1
  O  O128  1  0.25214583  0.65590438  0.57017448  1
  O  O129  1  0.75336094  0.65700322  0.57096901  1
  O  O130  1  0.07561381  0.50181387  0.57362602  1
  O  O131  1  0.57605882  0.50100920  0.57304668  1
  O  O132  1  0.15238462  0.82409080  0.25661567  1
  O  O133  1  0.65467393  0.82821505  0.25652632  1
  O  O134  1  0.26615282  0.69831844  0.25315133  1
  O  O135  1  0.76597917  0.69557224  0.25274442  1
  O  O136  1  0.08557525  0.46781907  0.25437914  1
  O  O137  1  0.58655979  0.46515377  0.25551195  1
  O  O138  1  0.15264567  0.47877785  0.75694470  1
  O  O139  1  0.65521124  0.48069259  0.75557095  1
  O  O140  1  0.08663432  0.70883254  0.75547855  1
  O  O141  1  0.59370689  0.70698799  0.75781986  1
  O  O142  1  0.26442502  0.83111441  0.75429204  1
  O  O143  1  0.76930063  0.83532053  0.75202312  1
loop_
_geom_bond_atom_site_label_1
_geom_bond_atom_site_label_2
_geom_bond_distance
_geom_bond_site_symmetry_2
Na0 O32 2.293218 1_555
Na0 O106 2.309031 1_555
Na0 O104 2.411567 1_555
Na0 O134 2.539070 1_545
Na0 O132 2.633982 1_545
Na0 O18 2.879089 1_545
Na0 O62 2.970893 1_545
Na0 O4 2.985459 1_555
Na1 O107 2.289163 1_555
Na1 O33 2.311224 1_555
Na1 O105 2.457759 1_555
Na1 O135 2.554064 1_545
Na1 O133 2.556322 1_545
Na2 O31 2.378448 1_555
Na2 O103 2.397600 1_555
Na2 O105 2.407874 1_555
Na2 O132 2.472838 1_655
Na2 O136 2.695362 1_655
Na2 O22 2.887702 1_655
Na2 O60 2.924753 1_655
Na2 O3 2.944538 1_555
Na3 O98 2.329265 1_555
Na3 O100 2.409647 1_555
Na3 O28 2.418131 1_555
Na3 O142 2.606295 1_555
Na3 O138 2.694167 1_555
Na3 O8 2.742531 1_555
Na3 O12 2.886596 1_555
Na3 O70 2.944351 1_555
Na4 O99 2.310020 1_555
Na4 O29 2.353177 1_555
Na4 O101 2.429883 1_555
Na4 O143 2.498922 1_555
Na4 O139 2.551474 1_555
Na4 O71 2.897335 1_555
Na4 O13 2.933781 1_555
Na4 O9 2.990216 1_555
Na5 O100 2.266177 1_555
Na5 O24 2.368563 1_555
Na5 O96 2.444728 1_555
Na5 O139 2.563384 1_555
Na5 O141 2.730952 1_555
Na5 O15 2.921282 1_555
Na5 O10 2.934694 1_555
Na5 O67 2.935232 1_555
Na6 O72 2.262407 1_655
Na6 O75 2.389287 1_555
Na6 O76 2.571932 1_665
Na6 O89 2.706936 1_555
Na6 O85 2.818686 1_565
Na6 O86 2.877040 1_665
Na7 O73 2.289140 1_555
Na7 O74 2.411538 1_555
Na7 O77 2.580205 1_565
Na7 O88 2.628947 1_555
Na7 O84 2.702031 1_565
Na7 O87 2.801842 1_565
Na8 O78 2.205266 1_665
Na8 O83 2.300963 1_555
Na8 O80 2.495278 1_655
Na8 O93 2.801895 1_566
Na8 O91 2.862140 1_556
Na8 O94 2.943533 1_666
Na9 O79 2.219945 1_565
Na9 O82 2.235790 1_555
Na9 O81 2.488424 1_555
Na9 O92 2.808799 1_566
Na9 O90 2.884978 1_556
Na9 O95 2.933388 1_566
Na10 O98 2.312428 1_555
Na10 O100 2.422575 1_555
Na10 O96 2.669338 1_555
Na10 O108 2.719541 1_555
Na10 O112 2.777159 1_555
Na10 O110 2.816379 1_555
Na11 O99 2.319468 1_555
Na11 O97 2.581688 1_555
Na11 O101 2.626514 1_555
Na11 O113 2.712288 1_555
Na11 O111 2.763569 1_555
Na11 O109 2.783388 1_555
Na12 O106 2.380106 1_555
Na12 O102 2.604502 1_555
Na12 O104 2.641449 1_555
Na12 O116 2.667108 1_555
Na12 O118 2.688511 1_555
Na12 O114 2.697821 1_555
Na13 O107 2.346731 1_555
Na13 O117 2.565196 1_555
Na13 O115 2.593836 1_555
Na13 O103 2.712803 1_555
Na13 O119 2.728653 1_555
Na13 O105 2.754670 1_555
Na14 O122 2.504782 1_555
Na14 O124 2.543394 1_555
Na14 O120 2.562932 1_555
Na14 O134 2.682452 1_555
Na14 O132 2.683848 1_555
Na14 O136 2.702413 1_555
Na15 O123 2.466719 1_555
Na15 O133 2.624850 1_555
Na15 O125 2.637434 1_555
Na15 O121 2.643345 1_555
Na15 O137 2.648104 1_555
Na15 O135 2.754748 1_555
Na16 O130 2.538955 1_555
Na16 O138 2.595982 1_555
Na16 O140 2.631978 1_555
Na16 O126 2.670656 1_555
Na16 O128 2.692749 1_555
Na16 O142 2.696660 1_555
Na17 O131 2.587249 1_555
Na17 O141 2.600606 1_555
Na17 O127 2.620960 1_555
Na17 O139 2.624433 1_555
Na17 O143 2.659883 1_555
Na17 O129 2.672078 1_555
Nb0 O85 1.906246 1_455
Nb0 O14 1.907078 1_555
Nb0 O89 1.990384 1_445
Nb0 O13 2.064939 1_445
Nb0 O86 2.114273 1_555
Nb0 O16 2.218940 1_545
Nb1 O17 1.920293 1_555
Nb1 O15 1.958719 1_565
Nb1 O84 2.010711 1_565
Nb1 O88 2.012641 1_555
Nb1 O87 2.131408 1_565
Nb1 O12 2.156534 1_555
Nb2 O91 1.892982 1_455
Nb2 O22 1.945955 1_555
Nb2 O93 1.956463 1_465
Nb2 O94 2.058156 1_565
Nb2 O19 2.124071 1_455
Nb2 O20 2.249508 1_565
Nb3 O90 1.889273 1_555
Nb3 O23 1.922845 1_555
Nb3 O92 1.972221 1_565
Nb3 O95 2.093193 1_565
Nb3 O18 2.106899 1_555
Nb3 O21 2.238641 1_565
Nb4 O110 1.891518 1_555
Nb4 O38 1.896075 1_556
Nb4 O40 1.965035 1_556
Nb4 O108 1.977085 1_555
Nb4 O112 2.228244 1_555
Nb4 O36 2.316614 1_556
Nb5 O111 1.899510 1_555
Nb5 O39 1.909595 1_556
Nb5 O109 1.965537 1_555
Nb5 O41 1.971076 1_556
Nb5 O113 2.195392 1_555
Nb5 O37 2.279237 1_556
Nb6 O46 1.873257 1_555
Nb6 O118 1.920838 1_555
Nb6 O44 1.934642 1_555
Nb6 O114 2.001584 1_555
Nb6 O42 2.249119 1_555
Nb6 O116 2.299519 1_555
Nb7 O47 1.884167 1_555
Nb7 O119 1.921225 1_555
Nb7 O45 1.949484 1_555
Nb7 O115 1.999637 1_555
Nb7 O43 2.217296 1_555
Nb7 O117 2.260060 1_555
Nb8 O48 1.886647 1_554
Nb8 O50 1.924714 1_554
Nb8 O124 1.961575 1_555
Nb8 O52 2.024238 1_554
Nb8 O122 2.030073 1_555
Nb8 O120 2.154994 1_555
Nb9 O49 1.902323 1_554
Nb9 O51 1.927412 1_554
Nb9 O125 1.969558 1_555
Nb9 O123 2.019318 1_555
Nb9 O53 2.026288 1_554
Nb9 O121 2.134163 1_555
Nb10 O54 1.921948 1_555
Nb10 O128 1.926286 1_555
Nb10 O58 1.939408 1_555
Nb10 O130 1.996947 1_555
Nb10 O56 2.086393 1_555
Nb10 O126 2.098670 1_555
Nb11 O55 1.929517 1_555
Nb11 O59 1.937092 1_555
Nb11 O129 1.946965 1_555
Nb11 O131 1.976904 1_555
Nb11 O57 2.063655 1_555
Nb11 O127 2.107373 1_555
Nb12 O62 1.871563 1_555
Nb12 O60 1.885841 1_555
Nb12 O132 1.952326 1_555
Nb12 O64 2.136267 1_555
Nb12 O134 2.205137 1_555
Nb12 O136 2.211762 1_555
Nb13 O61 1.855347 1_555
Nb13 O63 1.899308 1_555
Nb13 O133 1.917515 1_555
Nb13 O137 2.160422 1_555
Nb13 O65 2.195419 1_555
Nb13 O135 2.271279 1_555
Nb14 O66 1.874124 1_555
Nb14 O138 1.895333 1_555
Nb14 O70 1.904185 1_555
Nb14 O140 2.170580 1_555
Nb14 O142 2.188614 1_555
Nb14 O68 2.240966 1_555
Nb15 O67 1.891567 1_555
Nb15 O139 1.929084 1_555
Nb15 O71 1.952679 1_555
Nb15 O141 1.975370 1_555
Nb15 O143 2.237848 1_555
Nb15 O69 2.244960 1_555
O0 Si0 1.571884 1_555
O0 Zn0 1.931995 1_545
O1 Si1 1.570630 1_555
O1 Zn1 1.929647 1_545
O2 S0 1.447350 1_555
O2 Zn1 2.201830 1_555
O3 S1 1.454277 1_555
O3 Zn0 2.215444 1_655
O4 S3 1.455147 1_555
O4 Zn1 2.232276 1_545
O5 S2 1.451665 1_655
O5 Zn0 2.236327 1_645
O6 Si2 1.571173 1_555
O6 Zn2 1.916306 1_555
O7 Si3 1.571230 1_555
O7 Zn3 1.965549 1_545
O8 Si4 1.570018 1_555
O8 Zn3 1.966149 1_555
O9 S4 1.453915 1_655
O9 Zn2 2.231633 1_665
O10 S5 1.453081 1_545
O10 Zn3 2.242096 1_545
O11 S6 1.452119 1_555
O11 Zn2 2.157378 1_655
O12 S5 1.526979 1_555
O13 S6 1.546323 1_565
O14 Si2 1.701438 1_555
O15 Si3 1.698675 1_555
O16 S4 1.508347 1_555
O17 Si4 1.704934 1_555
O18 S0 1.538359 1_555
O19 S1 1.532583 1_555
O20 S2 1.499080 1_555
O21 S3 1.502360 1_555
O22 Si0 1.709189 1_565
O23 Si1 1.697884 1_565
O24 Si5 1.583242 1_555
O24 Zn4 2.017296 1_555
O25 Si6 1.567753 1_555
O25 Zn5 1.949879 1_555
O26 S7 1.442686 1_555
O26 Zn4 2.301105 1_555
O27 S8 1.450184 1_555
O27 Zn5 2.159957 1_555
O28 Si7 1.587421 1_555
O28 Zn4 1.961632 1_555
O29 Si8 1.586976 1_555
O29 Zn5 1.971931 1_555
O30 Si9 1.573702 1_555
O30 Zn6 1.943362 1_555
O31 Si10 1.593180 1_555
O31 Zn7 2.013494 1_555
O32 Si11 1.592826 1_555
O32 Zn6 1.969511 1_555
O33 Si12 1.593623 1_555
O33 Zn7 1.947272 1_555
O34 S9 1.456902 1_555
O34 Zn6 2.162254 1_555
O35 S10 1.458719 1_555
O35 Zn7 2.090860 1_555
O36 S9 1.461452 1_555
O37 S10 1.466878 1_555
O38 Si9 1.674295 1_555
O39 Si10 1.662511 1_555
O40 Si11 1.661184 1_555
O41 Si12 1.659954 1_555
O42 S7 1.479750 1_555
O43 S8 1.476689 1_555
O44 Si7 1.676112 1_555
O45 Si8 1.676798 1_555
O46 Si5 1.702038 1_555
O47 Si6 1.683975 1_555
O48 Si13 1.658734 1_555
O49 Si14 1.660545 1_555
O50 Si15 1.632549 1_555
O51 Si16 1.643516 1_555
O52 S11 1.517490 1_555
O53 S12 1.511734 1_555
O54 Si17 1.643379 1_555
O55 Si18 1.641029 1_555
O56 S13 1.492646 1_555
O57 S14 1.498260 1_555
O58 Si19 1.624646 1_555
O59 Si20 1.626861 1_555
O60 Si19 1.699502 1_555
O61 Si20 1.699336 1_555
O62 Si17 1.722902 1_555
O63 Si18 1.708322 1_555
O64 S13 1.518525 1_555
O65 S14 1.503548 1_555
O66 Si15 1.677914 1_555
O67 Si16 1.681086 1_555
O68 S11 1.487915 1_555
O69 S12 1.485873 1_555
O70 Si13 1.701599 1_555
O71 Si14 1.670670 1_555
O72 Si19 1.570728 1_555
O72 Zn0 2.010604 1_555
O73 Si20 1.568968 1_555
O73 Zn1 2.014409 1_555
O74 Si17 1.574418 1_555
O74 Zn1 2.030398 1_555
O75 Si18 1.582306 1_555
O75 Zn0 2.012894 1_655
O76 S13 1.451244 1_555
O76 Zn0 2.222023 1_545
O77 S14 1.447852 1_555
O77 Zn1 2.243891 1_545
O78 Si15 1.566420 1_555
O78 Zn2 2.038785 1_555
O79 Si16 1.564111 1_555
O79 Zn3 2.106917 1_545
O80 S11 1.449377 1_555
O80 Zn2 2.278304 1_565
O81 S12 1.444915 1_555
O81 Zn3 2.275542 1_555
O82 Si13 1.568313 1_555
O82 Zn3 2.108932 1_555
O83 Si14 1.581456 1_555
O83 Zn2 2.014947 1_665
O84 Si5 1.642263 1_555
O85 Si6 1.685010 1_555
O86 S7 1.515021 1_555
O87 S8 1.504464 1_555
O88 Si7 1.653148 1_555
O89 Si8 1.666674 1_555
O90 Si9 1.697408 1_555
O91 Si10 1.695475 1_555
O92 Si11 1.675597 1_555
O93 Si12 1.681691 1_555
O94 S9 1.525976 1_555
O95 S10 1.511627 1_555
O96 S5 1.459627 1_545
O96 Zn4 2.344699 1_555
O97 S6 1.447987 1_555
O97 Zn5 2.320472 1_555
O98 Si2 1.599587 1_555
O98 Zn4 2.114479 1_555
O99 Si3 1.615991 1_555
O99 Zn5 2.065009 1_555
O100 Si4 1.632054 1_555
O100 Zn4 2.080300 1_555
O101 S4 1.475236 1_655
O101 Zn5 2.316327 1_555
O102 S0 1.452419 1_555
O102 Zn6 2.334890 1_555
O103 S1 1.465901 1_555
O103 Zn7 2.365649 1_555
O104 S3 1.476998 1_555
O104 Zn6 2.310874 1_555
O105 S2 1.487632 1_655
O105 Zn7 2.410702 1_555
O106 Si0 1.607915 1_555
O106 Zn6 2.108600 1_555
O107 Si1 1.620654 1_555
O107 Zn7 2.077568 1_555
O108 Si13 1.661776 1_555
O109 Si14 1.673772 1_555
O110 Si16 1.683636 1_555
O111 Si15 1.675649 1_655
O112 S11 1.493039 1_545
O113 S12 1.501449 1_545
O114 Si17 1.647271 1_545
O115 Si18 1.659113 1_545
O116 S13 1.485199 1_555
O117 S14 1.496600 1_555
O118 Si20 1.666564 1_555
O119 Si19 1.668244 1_655
O120 S9 1.504904 1_555
O121 S10 1.506056 1_555
O122 Si10 1.626611 1_455
O123 Si9 1.634098 1_555
O124 Si11 1.656103 1_565
O125 Si12 1.648374 1_565
O126 S7 1.520088 1_565
O127 S8 1.513568 1_565
O128 Si7 1.662821 1_555
O129 Si8 1.657995 1_555
O130 Si6 1.638253 1_455
O131 Si5 1.654531 1_555
O132 Si0 1.778516 1_565
O133 Si1 1.767250 1_565
O134 S0 1.541374 1_555
O135 S1 1.508889 1_555
O136 S2 1.531876 1_555
O137 S3 1.533053 1_555
O138 Si2 1.771066 1_555
O139 Si3 1.772971 1_555
O140 S4 1.531483 1_555
O141 Si4 1.694277 1_555
O142 S5 1.526048 1_555
O143 S6 1.522773 1_565
