# generated using pymatgen
data_FeSiO3
_symmetry_space_group_name_H-M   'P 1'
_cell_length_a   5.36238300
_cell_length_b   9.22956900
_cell_length_c   18.70561400
_cell_angle_alpha   90.00000000
_cell_angle_beta   90.00000000
_cell_angle_gamma   90.00000000
_symmetry_Int_Tables_number   1
_chemical_formula_structural   FeSiO3
_chemical_formula_sum   'Fe16 Si16 O48'
_cell_volume   925.78729979
_cell_formula_units_Z   16
loop_
 _symmetry_equiv_pos_site_id
 _symmetry_equiv_pos_as_xyz
  1  'x, y, z'
loop_
 _atom_site_type_symbol
 _atom_site_label
 _atom_site_symmetry_multiplicity
 _atom_site_fract_x
 _atom_site_fract_y
 _atom_site_fract_z
 _atom_site_occupancy
  Fe  Fe0  1  0.61147700  0.00886100  0.12459300  1
  Fe  Fe1  1  0.11147700  0.99113900  0.37540700  1
  Fe  Fe2  1  0.88852300  0.50886100  0.87540700  1
  Fe  Fe3  1  0.38852300  0.49113900  0.62459300  1
  Fe  Fe4  1  0.38852300  0.99113900  0.87540700  1
  Fe  Fe5  1  0.88852300  0.00886100  0.62459300  1
  Fe  Fe6  1  0.11147700  0.49113900  0.12459300  1
  Fe  Fe7  1  0.61147700  0.50886100  0.37540700  1
  Fe  Fe8  1  0.10976600  0.84698700  0.12455200  1
  Fe  Fe9  1  0.60976600  0.15301300  0.37544800  1
  Fe  Fe10  1  0.39023400  0.34698700  0.87544800  1
  Fe  Fe11  1  0.89023400  0.65301300  0.62455200  1
  Fe  Fe12  1  0.89023400  0.15301300  0.87544800  1
  Fe  Fe13  1  0.39023400  0.84698700  0.62455200  1
  Fe  Fe14  1  0.60976600  0.65301300  0.12455200  1
  Fe  Fe15  1  0.10976600  0.34698700  0.37544800  1
  Si  Si0  1  0.22534800  0.16523600  0.02454100  1
  Si  Si1  1  0.72534800  0.83476400  0.47545900  1
  Si  Si2  1  0.27465200  0.66523600  0.97545900  1
  Si  Si3  1  0.77465200  0.33476400  0.52454100  1
  Si  Si4  1  0.77465200  0.83476400  0.97545900  1
  Si  Si5  1  0.27465200  0.16523600  0.52454100  1
  Si  Si6  1  0.72534800  0.33476400  0.02454100  1
  Si  Si7  1  0.22534800  0.66523600  0.47545900  1
  Si  Si8  1  0.93105000  0.16265300  0.22633300  1
  Si  Si9  1  0.43105000  0.83734700  0.27366700  1
  Si  Si10  1  0.56895000  0.66265300  0.77366700  1
  Si  Si11  1  0.06895000  0.33734700  0.72633300  1
  Si  Si12  1  0.06895000  0.83734700  0.77366700  1
  Si  Si13  1  0.56895000  0.16265300  0.72633300  1
  Si  Si14  1  0.43105000  0.33734700  0.22633300  1
  Si  Si15  1  0.93105000  0.66265300  0.27366700  1
  O  O0  1  0.44052200  0.28544100  0.05035300  1
  O  O1  1  0.94052200  0.71455900  0.44964700  1
  O  O2  1  0.05947800  0.78544100  0.94964700  1
  O  O3  1  0.55947800  0.21455900  0.55035300  1
  O  O4  1  0.55947800  0.71455900  0.94964700  1
  O  O5  1  0.05947800  0.28544100  0.55035300  1
  O  O6  1  0.94052200  0.21455900  0.05035300  1
  O  O7  1  0.44052200  0.78544100  0.44964700  1
  O  O8  1  0.29741500  0.01637100  0.06586600  1
  O  O9  1  0.79741500  0.98362900  0.43413400  1
  O  O10  1  0.20258500  0.51637100  0.93413400  1
  O  O11  1  0.70258500  0.48362900  0.56586600  1
  O  O12  1  0.70258500  0.98362900  0.93413400  1
  O  O13  1  0.20258500  0.01637100  0.56586600  1
  O  O14  1  0.79741500  0.48362900  0.06586600  1
  O  O15  1  0.29741500  0.51637100  0.43413400  1
  O  O16  1  0.22831100  0.16325500  0.93678700  1
  O  O17  1  0.72831100  0.83674500  0.56321300  1
  O  O18  1  0.27168900  0.66325500  0.06321300  1
  O  O19  1  0.92618900  0.00689900  0.18612600  1
  O  O20  1  0.77168900  0.33674500  0.43678700  1
  O  O21  1  0.27168900  0.16325500  0.43678700  1
  O  O22  1  0.72831100  0.33674500  0.93678700  1
  O  O23  1  0.22831100  0.66325500  0.56321300  1
  O  O24  1  0.16181400  0.26676100  0.19742000  1
  O  O25  1  0.66181400  0.73323900  0.30258000  1
  O  O26  1  0.33818600  0.76676100  0.80258000  1
  O  O27  1  0.83818600  0.23323900  0.69742000  1
  O  O28  1  0.83818600  0.73323900  0.80258000  1
  O  O29  1  0.33818600  0.26676100  0.69742000  1
  O  O30  1  0.66181400  0.23323900  0.19742000  1
  O  O31  1  0.16181400  0.76676100  0.30258000  1
  O  O32  1  0.94195700  0.66095500  0.18645100  1
  O  O33  1  0.44195700  0.33904500  0.31354900  1
  O  O34  1  0.55804300  0.16095500  0.81354900  1
  O  O35  1  0.05804300  0.83904500  0.68645100  1
  O  O36  1  0.05804300  0.33904500  0.81354900  1
  O  O37  1  0.55804300  0.66095500  0.68645100  1
  O  O38  1  0.44195700  0.83904500  0.18645100  1
  O  O39  1  0.94195700  0.16095500  0.31354900  1
  O  O40  1  0.92618900  0.50689900  0.31387400  1
  O  O41  1  0.42618900  0.49310100  0.18612600  1
  O  O42  1  0.57381100  0.00689900  0.68612600  1
  O  O43  1  0.07381100  0.99310100  0.81387400  1
  O  O44  1  0.07381100  0.49310100  0.68612600  1
  O  O45  1  0.57381100  0.50689900  0.81387400  1
  O  O46  1  0.42618900  0.99310100  0.31387400  1
  O  O47  1  0.77168900  0.83674500  0.06321300  1
loop_
_geom_bond_atom_site_label_1
_geom_bond_atom_site_label_2
_geom_bond_distance
_geom_bond_site_symmetry_2
Fe0 O8 2.011920 1_555
Fe0 O19 2.042834 1_555
Fe0 O47 2.140057 1_545
Fe0 O38 2.149818 1_545
Fe0 O30 2.493457 1_555
Fe1 O9 2.011920 1_455
Fe1 O46 2.042834 1_555
Fe1 O21 2.140057 1_565
Fe1 O39 2.149818 1_465
Fe1 O31 2.493457 1_555
Fe2 O10 2.011920 1_655
Fe2 O45 2.042834 1_555
Fe2 O22 2.140057 1_555
Fe2 O36 2.149818 1_655
Fe2 O28 2.493457 1_555
Fe3 O11 2.011920 1_555
Fe3 O44 2.042834 1_555
Fe3 O23 2.140057 1_555
Fe3 O37 2.149818 1_555
Fe3 O29 2.493457 1_555
Fe4 O12 2.011920 1_555
Fe4 O43 2.042834 1_555
Fe4 O16 2.140057 1_565
Fe4 O34 2.149818 1_565
Fe4 O26 2.493457 1_555
Fe5 O13 2.011920 1_655
Fe5 O42 2.042834 1_555
Fe5 O17 2.140057 1_545
Fe5 O35 2.149818 1_645
Fe5 O27 2.493457 1_555
Fe6 O14 2.011920 1_455
Fe6 O41 2.042834 1_555
Fe6 O18 2.140057 1_555
Fe6 O32 2.149818 1_455
Fe6 O24 2.493457 1_555
Fe7 O15 2.011920 1_555
Fe7 O40 2.042834 1_555
Fe7 O20 2.140057 1_555
Fe7 O33 2.149818 1_555
Fe7 O25 2.493457 1_555
Fe8 O19 2.115182 1_465
Fe8 O38 2.125833 1_555
Fe8 O47 2.147563 1_455
Fe8 O8 2.159083 1_565
Fe8 O18 2.223971 1_555
Fe8 O32 2.257975 1_455
Fe9 O46 2.115182 1_545
Fe9 O39 2.125833 1_555
Fe9 O21 2.147563 1_555
Fe9 O9 2.159083 1_545
Fe9 O20 2.223971 1_555
Fe9 O33 2.257975 1_555
Fe10 O45 2.115182 1_555
Fe10 O36 2.125833 1_555
Fe10 O22 2.147563 1_555
Fe10 O10 2.159083 1_555
Fe10 O16 2.223971 1_555
Fe10 O34 2.257975 1_555
Fe11 O44 2.115182 1_655
Fe11 O37 2.125833 1_555
Fe11 O23 2.147563 1_655
Fe11 O11 2.159083 1_555
Fe11 O17 2.223971 1_555
Fe11 O35 2.257975 1_655
Fe12 O43 2.115182 1_645
Fe12 O34 2.125833 1_555
Fe12 O16 2.147563 1_655
Fe12 O12 2.159083 1_545
Fe12 O22 2.223971 1_555
Fe12 O36 2.257975 1_655
Fe13 O42 2.115182 1_565
Fe13 O35 2.125833 1_555
Fe13 O17 2.147563 1_555
Fe13 O13 2.159083 1_565
Fe13 O23 2.223971 1_555
Fe13 O37 2.257975 1_555
Fe14 O41 2.115182 1_555
Fe14 O32 2.125833 1_555
Fe14 O18 2.147563 1_555
Fe14 O14 2.159083 1_555
Fe14 O47 2.223971 1_555
Fe14 O38 2.257975 1_555
Fe15 O40 2.115182 1_455
Fe15 O33 2.125833 1_555
Fe15 O20 2.147563 1_455
Fe15 O15 2.159083 1_555
Fe15 O21 2.223971 1_555
Fe15 O39 2.257975 1_455
O0 Si6 1.665276 1_555
O0 Si0 1.671927 1_555
O1 Si7 1.665276 1_655
O1 Si1 1.671927 1_555
O2 Si4 1.665276 1_455
O2 Si2 1.671927 1_555
O3 Si5 1.665276 1_555
O3 Si3 1.671927 1_555
O4 Si2 1.665276 1_555
O4 Si4 1.671927 1_555
O5 Si3 1.665276 1_455
O5 Si5 1.671927 1_555
O6 Si0 1.665276 1_655
O6 Si6 1.671927 1_555
O7 Si1 1.665276 1_555
O7 Si7 1.671927 1_555
O8 Si0 1.623162 1_555
O9 Si1 1.623162 1_555
O10 Si2 1.623162 1_555
O11 Si3 1.623162 1_555
O12 Si4 1.623162 1_555
O13 Si5 1.623162 1_555
O14 Si6 1.623162 1_555
O15 Si7 1.623162 1_555
O16 Si0 1.641671 1_556
O17 Si1 1.641671 1_555
O18 Si2 1.641671 1_554
O19 Si8 1.622608 1_555
O20 Si3 1.641671 1_555
O21 Si5 1.641671 1_555
O22 Si6 1.641671 1_556
O23 Si7 1.641671 1_555
O24 Si8 1.657422 1_455
O24 Si14 1.673718 1_555
O25 Si9 1.657422 1_555
O25 Si15 1.673718 1_555
O26 Si10 1.657422 1_555
O26 Si12 1.673718 1_555
O27 Si11 1.657422 1_655
O27 Si13 1.673718 1_555
O28 Si12 1.657422 1_655
O28 Si10 1.673718 1_555
O29 Si13 1.657422 1_555
O29 Si11 1.673718 1_555
O30 Si14 1.657422 1_555
O30 Si8 1.673718 1_555
O31 Si15 1.657422 1_455
O31 Si9 1.673718 1_555
O32 Si15 1.632552 1_555
O33 Si14 1.632552 1_555
O34 Si13 1.632552 1_555
O35 Si12 1.632552 1_555
O36 Si11 1.632552 1_555
O37 Si10 1.632552 1_555
O38 Si9 1.632552 1_555
O39 Si8 1.632552 1_555
O40 Si15 1.622608 1_555
O41 Si14 1.622608 1_555
O42 Si13 1.622608 1_555
O43 Si12 1.622608 1_555
O44 Si11 1.622608 1_555
O45 Si10 1.622608 1_555
O46 Si9 1.622608 1_555
O47 Si4 1.641671 1_554
