# generated using pymatgen
data_NaYGeP2SO12
_symmetry_space_group_name_H-M   'P 1'
_cell_length_a   8.75943391
_cell_length_b   8.88413196
_cell_length_c   22.76004196
_cell_angle_alpha   88.02165887
_cell_angle_beta   90.00000000
_cell_angle_gamma   119.53676753
_symmetry_Int_Tables_number   1
_chemical_formula_structural   NaYGeP2SO12
_chemical_formula_sum   'Na6 Y6 Ge6 P12 S6 O72'
_cell_volume   1539.78803592
_cell_formula_units_Z   6
loop_
 _symmetry_equiv_pos_site_id
 _symmetry_equiv_pos_as_xyz
  1  'x, y, z'
loop_
 _atom_site_type_symbol
 _atom_site_label
 _atom_site_symmetry_multiplicity
 _atom_site_fract_x
 _atom_site_fract_y
 _atom_site_fract_z
 _atom_site_occupancy
  Na  Na0  1  0.98115867  0.98716165  0.49667157  1
  Na  Na1  1  0.00600298  0.98716165  0.99667157  1
  Na  Na2  1  0.64782567  0.32049465  0.83000457  1
  Na  Na3  1  0.67266998  0.32049465  0.33000457  1
  Na  Na4  1  0.31449167  0.65382865  0.16333857  1
  Na  Na5  1  0.33933598  0.65382865  0.66333857  1
  Y  Y0  1  0.99474385  0.00267872  0.64191723  1
  Y  Y1  1  0.00793487  0.00267872  0.14191723  1
  Y  Y2  1  0.66141085  0.33601172  0.97525023  1
  Y  Y3  1  0.67460187  0.33601172  0.47525023  1
  Y  Y4  1  0.32807685  0.66934572  0.30858423  1
  Y  Y5  1  0.34126787  0.66934572  0.80858423  1
  Ge  Ge0  1  0.00804877  0.01175990  0.35327271  1
  Ge  Ge1  1  0.00371113  0.01175990  0.85327271  1
  Ge  Ge2  1  0.67471577  0.34509290  0.68660571  1
  Ge  Ge3  1  0.67037813  0.34509290  0.18660571  1
  Ge  Ge4  1  0.34138177  0.67842690  0.01993971  1
  Ge  Ge5  1  0.33704413  0.67842690  0.51993971  1
  P  P0  1  0.30646049  0.03084446  0.25030876  1
  P  P1  1  0.97812866  0.27706300  0.24888147  1
  P  P2  1  0.29893434  0.27706300  0.74888147  1
  P  P3  1  0.72438397  0.03084446  0.75030876  1
  P  P4  1  0.97312749  0.36417746  0.58364176  1
  P  P5  1  0.64479566  0.61039600  0.58221447  1
  P  P6  1  0.96560134  0.61039600  0.08221447  1
  P  P7  1  0.39105097  0.36417746  0.08364176  1
  P  P8  1  0.63979349  0.69751146  0.91697576  1
  P  P9  1  0.31146166  0.94373000  0.91554847  1
  P  P10  1  0.63226734  0.94373000  0.41554847  1
  P  P11  1  0.05771697  0.69751146  0.41697576  1
  S  S0  1  0.71960929  0.69485894  0.25109812  1
  S  S1  1  0.97524964  0.69485894  0.75109812  1
  S  S2  1  0.38627629  0.02819194  0.58443112  1
  S  S3  1  0.64191664  0.02819194  0.08443112  1
  S  S4  1  0.05294229  0.36152594  0.91776512  1
  S  S5  1  0.30858264  0.36152594  0.41776512  1
  O  O0  1  0.21202284  0.05098946  0.30684111  1
  O  O1  1  0.82236109  0.77599114  0.30429622  1
  O  O2  1  0.95069207  0.16123858  0.30811207  1
  O  O3  1  0.21054651  0.16123858  0.80811207  1
  O  O4  1  0.95363005  0.77599114  0.80429622  1
  O  O5  1  0.83896662  0.05098946  0.80684111  1
  O  O6  1  0.79977569  0.99845109  0.69613081  1
  O  O7  1  0.19332917  0.19218429  0.69576897  1
  O  O8  1  0.00228330  0.79661441  0.69685913  1
  O  O9  1  0.79433110  0.79661441  0.19685913  1
  O  O10  1  -0.00114488  0.19218429  0.19576897  1
  O  O11  1  0.19867540  0.99845109  0.19613081  1
  O  O12  1  0.87868984  0.38432246  0.64017411  1
  O  O13  1  0.48902809  0.10932414  0.63762922  1
  O  O14  1  0.61735907  0.49457158  0.64144507  1
  O  O15  1  0.87721351  0.49457158  0.14144507  1
  O  O16  1  0.62029705  0.10932414  0.13762922  1
  O  O17  1  0.50563362  0.38432246  0.14017411  1
  O  O18  1  0.46644269  0.33178409  0.02946381  1
  O  O19  1  0.85999617  0.52551729  0.02910197  1
  O  O20  1  0.66895030  0.12994741  0.03019213  1
  O  O21  1  0.46099810  0.12994741  0.53019213  1
  O  O22  1  0.66552212  0.52551729  0.52910197  1
  O  O23  1  0.86534240  0.33178409  0.52946381  1
  O  O24  1  0.54535584  0.71765646  0.97350811  1
  O  O25  1  0.15569409  0.44265814  0.97096322  1
  O  O26  1  0.28402507  0.82790558  0.97477907  1
  O  O27  1  0.54387951  0.82790558  0.47477907  1
  O  O28  1  0.28696305  0.44265814  0.47096322  1
  O  O29  1  0.17229962  0.71765646  0.47350811  1
  O  O30  1  0.13310869  0.66511809  0.36279781  1
  O  O31  1  0.52666217  0.85885129  0.36243597  1
  O  O32  1  0.33561630  0.46328141  0.36352613  1
  O  O33  1  0.12766410  0.46328141  0.86352613  1
  O  O34  1  0.33218812  0.85885129  0.86243597  1
  O  O35  1  0.53200840  0.66511809  0.86279781  1
  O  O36  1  0.05657551  0.87463235  0.41005729  1
  O  O37  1  0.81785657  0.95406926  0.41040452  1
  O  O38  1  0.13822983  0.19008478  0.41381539  1
  O  O39  1  0.05185495  0.19008478  0.91381539  1
  O  O40  1  0.13621269  0.95406926  0.91040452  1
  O  O41  1  0.81805683  0.87463235  0.91005729  1
  O  O42  1  0.01535346  0.21735937  0.58973301  1
  O  O43  1  0.20425135  0.99154351  0.58861507  1
  O  O44  1  0.80045185  0.79247510  0.58721655  1
  O  O45  1  0.99202325  0.79247510  0.08721655  1
  O  O46  1  0.78729216  0.99154351  0.08861507  1
  O  O47  1  0.20200591  0.21735937  0.08973301  1
  O  O48  1  0.72324251  0.20796535  0.74339029  1
  O  O49  1  0.48452357  0.28740226  0.74373752  1
  O  O50  1  0.80489683  0.52341778  0.74714839  1
  O  O51  1  0.71852195  0.52341778  0.24714839  1
  O  O52  1  0.80287969  0.28740226  0.24373752  1
  O  O53  1  0.48472383  0.20796535  0.24339029  1
  O  O54  1  0.68202046  0.55069237  0.92306601  1
  O  O55  1  0.87091835  0.32487651  0.92194807  1
  O  O56  1  0.46711885  0.12580810  0.92054955  1
  O  O57  1  0.65869025  0.12580810  0.42054955  1
  O  O58  1  0.45395916  0.32487651  0.42194807  1
  O  O59  1  0.86867291  0.55069237  0.42306601  1
  O  O60  1  0.38990851  0.54129935  0.07672429  1
  O  O61  1  0.15118957  0.62073626  0.07707152  1
  O  O62  1  0.47156283  0.85675178  0.08048239  1
  O  O63  1  0.38518795  0.85675178  0.58048239  1
  O  O64  1  0.46954569  0.62073626  0.57707152  1
  O  O65  1  0.15138983  0.54129935  0.57672429  1
  O  O66  1  0.34868646  0.88402637  0.25640001  1
  O  O67  1  0.53758435  0.65821051  0.25528207  1
  O  O68  1  0.13378485  0.45914210  0.25388355  1
  O  O69  1  0.32535625  0.45914210  0.75388355  1
  O  O70  1  0.12062516  0.65821051  0.75528207  1
  O  O71  1  0.53533891  0.88402637  0.75640001  1
loop_
_geom_bond_atom_site_label_1
_geom_bond_atom_site_label_2
_geom_bond_distance
_geom_bond_site_symmetry_2
Na0 O37 2.369155 1_555
Na0 O38 2.453371 1_665
Na0 O36 2.471696 1_655
Na0 O44 2.607410 1_555
Na0 O43 2.851321 1_655
Na0 O42 2.907501 1_665
Na1 O40 2.369155 1_555
Na1 O39 2.453371 1_565
Na1 O41 2.471696 1_455
Na1 O45 2.607410 1_456
Na1 O46 2.851321 1_456
Na1 O47 2.907501 1_566
Na2 O49 2.369155 1_555
Na2 O50 2.453371 1_555
Na2 O48 2.471696 1_555
Na2 O56 2.607410 1_555
Na2 O55 2.851321 1_555
Na2 O54 2.907501 1_555
Na3 O52 2.369155 1_555
Na3 O51 2.453371 1_555
Na3 O53 2.471696 1_555
Na3 O57 2.607410 1_555
Na3 O58 2.851321 1_555
Na3 O59 2.907501 1_555
Na4 O61 2.369155 1_555
Na4 O62 2.453371 1_555
Na4 O60 2.471696 1_555
Na4 O68 2.607410 1_555
Na4 O67 2.851321 1_555
Na4 O66 2.907501 1_555
Na5 O64 2.369155 1_555
Na5 O63 2.453371 1_555
Na5 O65 2.471696 1_555
Na5 O69 2.607410 1_555
Na5 O70 2.851321 1_555
Na5 O71 2.907501 1_555
Ge0 O2 1.906844 1_455
Ge0 O36 1.933145 1_545
Ge0 O0 1.947090 1_555
Ge0 O37 1.959875 1_445
Ge0 O38 2.019525 1_555
Ge0 O1 2.253355 1_445
Ge1 O3 1.906844 1_555
Ge1 O41 1.933145 1_445
Ge1 O5 1.947090 1_455
Ge1 O40 1.959875 1_545
Ge1 O39 2.019525 1_555
Ge1 O4 2.253355 1_445
Ge2 O14 1.906844 1_555
Ge2 O48 1.933145 1_555
Ge2 O12 1.947090 1_555
Ge2 O49 1.959875 1_555
Ge2 O50 2.019525 1_555
Ge2 O13 2.253355 1_555
Ge3 O15 1.906844 1_555
Ge3 O53 1.933145 1_555
Ge3 O17 1.947090 1_555
Ge3 O52 1.959875 1_555
Ge3 O51 2.019525 1_555
Ge3 O16 2.253355 1_555
Ge4 O26 1.906844 1_554
Ge4 O60 1.933145 1_555
Ge4 O24 1.947090 1_554
Ge4 O61 1.959875 1_555
Ge4 O62 2.019525 1_555
Ge4 O25 2.253355 1_554
Ge5 O27 1.906844 1_555
Ge5 O65 1.933145 1_555
Ge5 O29 1.947090 1_555
Ge5 O64 1.959875 1_555
Ge5 O63 2.019525 1_555
Ge5 O28 2.253355 1_555
O0 P0 1.591771 1_555
O1 S0 1.488709 1_555
O2 P1 1.610697 1_555
O3 P2 1.610697 1_555
O4 S1 1.488709 1_555
O5 P3 1.591771 1_555
O6 P3 1.500445 1_565
O6 Y0 2.091436 1_565
O7 P2 1.503598 1_555
O7 Y0 2.148852 1_455
O8 S1 1.452286 1_455
O8 Y0 2.209226 1_465
O9 S0 1.452286 1_555
O9 Y1 2.209226 1_665
O10 P1 1.503598 1_455
O10 Y1 2.148852 1_555
O11 P0 1.500445 1_565
O11 Y1 2.091436 1_565
O12 P4 1.591771 1_555
O13 S2 1.488709 1_555
O14 P5 1.610697 1_555
O15 P6 1.610697 1_555
O16 S3 1.488709 1_555
O17 P7 1.591771 1_555
O18 P7 1.500445 1_555
O18 Y2 2.091436 1_554
O19 P6 1.503598 1_555
O19 Y2 2.148852 1_554
O20 S3 1.452286 1_555
O20 Y2 2.209226 1_554
O21 S2 1.452286 1_555
O21 Y3 2.209226 1_555
O22 P5 1.503598 1_555
O22 Y3 2.148852 1_555
O23 P4 1.500445 1_555
O23 Y3 2.091436 1_555
O24 P8 1.591771 1_555
O25 S4 1.488709 1_555
O26 P9 1.610697 1_555
O27 P10 1.610697 1_555
O28 S5 1.488709 1_555
O29 P11 1.591771 1_555
O30 P11 1.500445 1_555
O30 Y4 2.091436 1_555
O31 P10 1.503598 1_555
O31 Y4 2.148852 1_555
O32 S5 1.452286 1_555
O32 Y4 2.209226 1_555
O33 S4 1.452286 1_555
O33 Y5 2.209226 1_555
O34 P9 1.503598 1_555
O34 Y5 2.148852 1_555
O35 P8 1.500445 1_555
O35 Y5 2.091436 1_555
O36 P11 1.580952 1_555
O37 P10 1.586484 1_555
O38 S5 1.524192 1_555
O39 S4 1.524196 1_555
O40 P9 1.586475 1_555
O41 P8 1.580956 1_555
O42 P4 1.523336 1_455
O42 Y0 2.141257 1_455
O43 S2 1.464007 1_565
O43 Y0 2.244252 1_465
O44 P5 1.525379 1_555
O44 Y0 2.227283 1_565
O45 P6 1.525382 1_555
O45 Y1 2.227283 1_665
O46 S3 1.463998 1_565
O46 Y1 2.244252 1_665
O47 P7 1.523341 1_555
O47 Y1 2.141257 1_555
O48 P3 1.580952 1_555
O49 P2 1.586484 1_555
O50 S1 1.524192 1_555
O51 S0 1.524196 1_555
O52 P1 1.586475 1_555
O53 P0 1.580956 1_555
O54 P8 1.523349 1_555
O54 Y2 2.141257 1_555
O55 S4 1.463994 1_655
O55 Y2 2.244252 1_555
O56 P9 1.525374 1_545
O56 Y2 2.227283 1_555
O57 P10 1.525368 1_545
O57 Y3 2.227283 1_555
O58 S5 1.464011 1_555
O58 Y3 2.244252 1_555
O59 P11 1.523337 1_655
O59 Y3 2.141257 1_555
O60 P7 1.580963 1_555
O61 P6 1.586470 1_455
O62 S3 1.524189 1_565
O63 S2 1.524181 1_565
O64 P5 1.586487 1_555
O65 P4 1.580955 1_455
O66 P0 1.523336 1_565
O66 Y4 2.141257 1_555
O67 S0 1.464007 1_555
O67 Y4 2.244252 1_555
O68 P1 1.525379 1_455
O68 Y4 2.227283 1_555
O69 P2 1.525382 1_555
O69 Y5 2.227283 1_555
O70 S1 1.463998 1_455
O70 Y5 2.244252 1_555
O71 P3 1.523341 1_565
O71 Y5 2.141257 1_555
