# generated using pymatgen
data_Zn2PH2CO7
_symmetry_space_group_name_H-M   'P 1'
_cell_length_a   4.87175500
_cell_length_b   8.05274400
_cell_length_c   15.52956957
_cell_angle_alpha   66.47918828
_cell_angle_beta   90.00000000
_cell_angle_gamma   90.00000000
_symmetry_Int_Tables_number   1
_chemical_formula_structural   Zn2PH2CO7
_chemical_formula_sum   'Zn8 P4 H8 C4 O28'
_cell_volume   558.62184068
_cell_formula_units_Z   4
loop_
 _symmetry_equiv_pos_site_id
 _symmetry_equiv_pos_as_xyz
  1  'x, y, z'
loop_
 _atom_site_type_symbol
 _atom_site_label
 _atom_site_symmetry_multiplicity
 _atom_site_fract_x
 _atom_site_fract_y
 _atom_site_fract_z
 _atom_site_occupancy
  Zn  Zn0  1  0.99464500  0.55543500  0.13341600  1
  Zn  Zn1  1  0.49464500  0.44456500  0.36658400  1
  Zn  Zn2  1  0.00535500  0.44456500  0.86658400  1
  Zn  Zn3  1  0.50535500  0.55543500  0.63341600  1
  Zn  Zn4  1  0.97548300  0.09754600  0.30710000  1
  Zn  Zn5  1  0.47548300  0.90245400  0.19290000  1
  Zn  Zn6  1  0.02451700  0.90245400  0.69290000  1
  Zn  Zn7  1  0.52451700  0.09754600  0.80710000  1
  P  P0  1  0.52863400  0.30285500  0.20101200  1
  P  P1  1  0.02863400  0.69714500  0.29898800  1
  P  P2  1  0.47136600  0.69714500  0.79898800  1
  P  P3  1  0.97136600  0.30285500  0.70101200  1
  H  H0  1  0.99955200  0.78163200  0.96627800  1
  H  H1  1  0.49955200  0.21836800  0.53372200  1
  H  H2  1  0.00044800  0.21836800  0.03372200  1
  H  H3  1  0.50044800  0.78163200  0.46627800  1
  H  H4  1  0.23755400  0.63848200  0.96716000  1
  H  H5  1  0.26244600  0.63848200  0.46716000  1
  H  H6  1  0.73755400  0.36151800  0.53284000  1
  H  H7  1  0.76244600  0.36151800  0.03284000  1
  C  C0  1  0.11913600  0.06716300  0.49207400  1
  C  C1  1  0.61913600  0.93283700  0.00792600  1
  C  C2  1  0.88086400  0.93283700  0.50792600  1
  C  C3  1  0.38086400  0.06716300  0.99207400  1
  O  O0  1  0.35373200  0.69845100  0.50518400  1
  O  O1  1  0.79018600  0.69410800  0.80166300  1
  O  O2  1  0.70981400  0.69410800  0.30166300  1
  O  O3  1  0.20981400  0.30589200  0.19833700  1
  O  O4  1  0.84662000  0.33838700  0.78456400  1
  O  O5  1  0.34662000  0.66161300  0.71543600  1
  O  O6  1  0.15338000  0.66161300  0.21543600  1
  O  O7  1  0.29018600  0.30589200  0.69833700  1
  O  O8  1  0.85761200  0.11110700  0.71691800  1
  O  O9  1  0.35761200  0.88889300  0.78308200  1
  O  O10  1  0.14238800  0.88889300  0.28308200  1
  O  O11  1  0.64238800  0.11110700  0.21691800  1
  O  O12  1  0.85187200  0.44769000  0.60868000  1
  O  O13  1  0.35187200  0.55231000  0.89132000  1
  O  O14  1  0.14812800  0.55231000  0.39132000  1
  O  O15  1  0.64812800  0.44769000  0.10868000  1
  O  O16  1  0.72759500  0.92535200  0.93526200  1
  O  O17  1  0.22759500  0.07464800  0.56473800  1
  O  O18  1  0.27240500  0.07464800  0.06473800  1
  O  O19  1  0.77240500  0.92535200  0.43526200  1
  O  O20  1  0.69123600  0.84052200  0.09204800  1
  O  O21  1  0.19123600  0.15947800  0.40795200  1
  O  O22  1  0.30876400  0.15947800  0.90795200  1
  O  O23  1  0.80876400  0.84052200  0.59204800  1
  O  O24  1  0.64626800  0.30154900  0.49481600  1
  O  O25  1  0.14626800  0.69845100  0.00518400  1
  O  O26  1  0.65338000  0.33838700  0.28456400  1
  O  O27  1  0.85373200  0.30154900  0.99481600  1
loop_
_geom_bond_atom_site_label_1
_geom_bond_atom_site_label_2
_geom_bond_distance
_geom_bond_site_symmetry_2
H0 O25 1.000796 1_656
H0 O16 1.697611 1_555
H1 O24 1.000796 1_555
H1 O17 1.697611 1_555
H2 O27 1.000796 1_454
H2 O18 1.697611 1_555
H3 O0 1.000796 1_555
H3 O19 1.697611 1_555
H4 O25 1.003631 1_556
H4 O13 1.682599 1_555
H5 O0 1.003631 1_555
H5 O14 1.682599 1_555
H6 O24 1.003631 1_555
H6 O12 1.682599 1_555
H7 O27 1.003631 1_554
H7 O15 1.682599 1_555
C0 O21 1.267871 1_555
C0 O17 1.269051 1_555
C1 O20 1.267871 1_555
C1 O16 1.269051 1_554
C2 O23 1.267871 1_555
C2 O19 1.269051 1_555
C3 O22 1.267871 1_555
C3 O18 1.269051 1_556
O0 Zn3 2.001768 1_555
O1 P2 1.553700 1_555
O1 Zn2 2.129869 1_655
O1 Zn6 2.170058 1_655
O2 P1 1.553700 1_655
O2 Zn1 2.129869 1_555
O2 Zn5 2.170058 1_555
O3 P0 1.553700 1_555
O3 Zn0 2.129869 1_455
O3 Zn4 2.170058 1_455
O4 P3 1.559202 1_555
O4 Zn2 1.954674 1_655
O4 Zn7 2.409259 1_555
O5 P2 1.559202 1_555
O5 Zn3 1.954674 1_555
O5 Zn6 2.409259 1_555
O6 P1 1.559202 1_555
O6 Zn0 1.954674 1_455
O6 Zn5 2.409259 1_555
O7 P3 1.553700 1_455
O7 Zn3 2.129869 1_555
O7 Zn7 2.170058 1_555
O8 P3 1.564589 1_555
O8 Zn6 2.030682 1_645
O8 Zn7 2.117679 1_555
O9 P2 1.564589 1_555
O9 Zn7 2.030682 1_565
O9 Zn6 2.117679 1_555
O10 P1 1.564589 1_555
O10 Zn4 2.030682 1_465
O10 Zn5 2.117679 1_555
O11 P0 1.564589 1_555
O11 Zn5 2.030682 1_545
O11 Zn4 2.117679 1_555
O12 P3 1.555757 1_555
O12 Zn3 2.004053 1_555
O13 P2 1.555757 1_555
O13 Zn2 2.004053 1_555
O14 P1 1.555757 1_555
O14 Zn1 2.004053 1_555
O15 P0 1.555757 1_555
O15 Zn0 2.004053 1_555
O16 Zn7 2.158719 1_565
O17 Zn6 2.158719 1_545
O18 Zn5 2.158719 1_545
O19 Zn4 2.158719 1_565
O20 Zn5 2.104736 1_555
O21 Zn4 2.104736 1_455
O22 Zn7 2.104736 1_555
O23 Zn6 2.104736 1_655
O24 Zn1 2.001768 1_555
O25 Zn0 2.001768 1_455
O26 P0 1.559202 1_555
O26 Zn1 1.954674 1_555
O26 Zn4 2.409259 1_555
O27 Zn2 2.001768 1_655
