# generated using pymatgen
data_Rb2PdCl6
_symmetry_space_group_name_H-M   'P 1'
_cell_length_a   7.02557018
_cell_length_b   7.02557053
_cell_length_c   7.02557151
_cell_angle_alpha   60.00000975
_cell_angle_beta   60.00000807
_cell_angle_gamma   60.00000698
_symmetry_Int_Tables_number   1
_chemical_formula_structural   Rb2PdCl6
_chemical_formula_sum   'Rb2 Pd1 Cl6'
_cell_volume   245.20533575
_cell_formula_units_Z   1
loop_
 _symmetry_equiv_pos_site_id
 _symmetry_equiv_pos_as_xyz
  1  'x, y, z'
loop_
 _atom_site_type_symbol
 _atom_site_label
 _atom_site_symmetry_multiplicity
 _atom_site_fract_x
 _atom_site_fract_y
 _atom_site_fract_z
 _atom_site_occupancy
  Rb  Rb0  1  0.75000000  0.75000000  0.75000000  1
  Rb  Rb1  1  0.25000000  0.25000000  0.25000000  1
  Pd  Pd0  1  -0.00000000  -0.00000000  -0.00000000  1
  Cl  Cl0  1  0.23472344  0.76527656  0.76527656  1
  Cl  Cl1  1  0.23472344  0.76527656  0.23472344  1
  Cl  Cl2  1  0.76527656  0.23472344  0.76527656  1
  Cl  Cl3  1  0.76527656  0.23472344  0.23472344  1
  Cl  Cl4  1  0.76527656  0.76527656  0.23472344  1
  Cl  Cl5  1  0.23472344  0.23472344  0.76527656  1
loop_
_geom_bond_atom_site_label_1
_geom_bond_atom_site_label_2
_geom_bond_distance
_geom_bond_site_symmetry_2
Cl0 Pd0 2.332132 1_566
Cl0 Rb0 3.516063 1_455
Cl0 Rb0 3.516063 1_555
Cl0 Rb1 3.516064 1_556
Cl0 Rb1 3.516064 1_565
Cl1 Pd0 2.332132 1_565
Cl1 Rb1 3.516063 1_565
Cl1 Rb1 3.516063 1_555
Cl1 Rb0 3.516063 1_554
Cl1 Rb0 3.516064 1_455
Cl2 Pd0 2.332132 1_656
Cl2 Rb0 3.516063 1_545
Cl2 Rb0 3.516063 1_555
Cl2 Rb1 3.516063 1_556
Cl2 Rb1 3.516064 1_655
Cl3 Pd0 2.332132 1_655
Cl3 Rb1 3.516063 1_655
Cl3 Rb1 3.516063 1_555
Cl3 Rb0 3.516064 1_554
Cl3 Rb0 3.516064 1_545
Cl4 Pd0 2.332132 1_665
Cl4 Rb1 3.516063 1_565
Cl4 Rb1 3.516063 1_655
Cl4 Rb0 3.516063 1_554
Cl4 Rb0 3.516063 1_555
Cl5 Pd0 2.332132 1_556
Cl5 Rb0 3.516063 1_545
Cl5 Rb0 3.516063 1_455
Cl5 Rb1 3.516063 1_556
Cl5 Rb1 3.516063 1_555
