# generated using pymatgen
data_Na6Ca2Hf6Si5S7O48
_symmetry_space_group_name_H-M   'P 1'
_cell_length_a   18.12203002
_cell_length_b   9.09654379
_cell_length_c   23.51348846
_cell_angle_alpha   90.02700603
_cell_angle_beta   90.14129544
_cell_angle_gamma   120.11651802
_symmetry_Int_Tables_number   1
_chemical_formula_structural   Na6Ca2Hf6Si5S7O48
_chemical_formula_sum   'Na18 Ca6 Hf18 Si15 S21 O144'
_cell_volume   3352.87745330
_cell_formula_units_Z   3
loop_
 _symmetry_equiv_pos_site_id
 _symmetry_equiv_pos_as_xyz
  1  'x, y, z'
loop_
 _atom_site_type_symbol
 _atom_site_label
 _atom_site_symmetry_multiplicity
 _atom_site_fract_x
 _atom_site_fract_y
 _atom_site_fract_z
 _atom_site_occupancy
  Na  Na0  1  0.66003742  0.35207072  0.58313275  1
  Na  Na1  1  0.51947660  0.68083449  0.58659040  1
  Na  Na2  1  0.82002949  0.95906895  0.58414805  1
  Na  Na3  1  0.15864827  0.96426758  0.08701394  1
  Na  Na4  1  0.31889105  0.68213998  0.08800910  1
  Na  Na5  1  0.01984758  0.36085211  0.09058615  1
  Na  Na6  1  0.00809888  0.99115226  0.49414016  1
  Na  Na7  1  0.49157650  0.00897264  0.50120147  1
  Na  Na8  1  0.99368109  0.97670776  0.00463246  1
  Na  Na9  1  0.50542041  0.01040833  0.00078844  1
  Na  Na10  1  0.32544700  0.31844488  0.82106605  1
  Na  Na11  1  0.82566895  0.32776082  0.83580143  1
  Na  Na12  1  0.32187092  0.32016550  0.33740320  1
  Na  Na13  1  0.83343565  0.34283953  0.32440096  1
  Na  Na14  1  0.16292398  0.66458359  0.15798738  1
  Na  Na15  1  0.67617697  0.68370711  0.17359372  1
  Na  Na16  1  0.17533618  0.66670042  0.66654058  1
  Na  Na17  1  0.66451656  0.66306245  0.65109474  1
  Ca  Ca0  1  0.33176117  0.32585432  0.69037886  1
  Ca  Ca1  1  0.83150419  0.33288693  0.68500037  1
  Ca  Ca2  1  0.33145446  0.32951082  0.18646284  1
  Ca  Ca3  1  0.83213058  0.33882285  0.19166171  1
  Ca  Ca4  1  0.16594494  0.66877773  0.01489110  1
  Ca  Ca5  1  0.66620438  0.66429339  0.51443901  1
  Hf  Hf0  1  0.00220137  0.99332329  0.35622869  1
  Hf  Hf1  1  0.49916750  0.99682804  0.35317101  1
  Hf  Hf2  1  -0.00003193  0.00157201  0.85320505  1
  Hf  Hf3  1  0.50234369  0.00111512  0.85259045  1
  Hf  Hf4  1  0.00628246  0.00657256  0.64629122  1
  Hf  Hf5  1  0.49277249  0.00375859  0.64474297  1
  Hf  Hf6  1  0.99448170  0.98390480  0.14848258  1
  Hf  Hf7  1  0.50402851  0.00624650  0.14987298  1
  Hf  Hf8  1  0.32898967  0.31808171  0.98600133  1
  Hf  Hf9  1  0.83193154  0.34646099  0.97769198  1
  Hf  Hf10  1  0.33089218  0.31591179  0.47716529  1
  Hf  Hf11  1  0.83354729  0.35034234  0.48369074  1
  Hf  Hf12  1  0.67161828  0.67684063  0.01319707  1
  Hf  Hf13  1  0.16735780  0.66777105  0.50993397  1
  Hf  Hf14  1  0.16411886  0.66128120  0.31983397  1
  Hf  Hf15  1  0.67205905  0.67903243  0.31080732  1
  Hf  Hf16  1  0.17122124  0.66528948  0.80935607  1
  Hf  Hf17  1  0.67181113  0.67803310  0.81617115  1
  Si  Si0  1  0.64440390  0.99468470  0.25220895  1
  Si  Si1  1  0.85530196  0.71123370  0.25362636  1
  Si  Si2  1  0.14420427  0.29292360  0.75227893  1
  Si  Si3  1  0.35604021  0.00179228  0.75348110  1
  Si  Si4  1  0.47748967  0.33497387  0.58446895  1
  Si  Si5  1  0.68518188  0.03977921  0.58438182  1
  Si  Si6  1  0.83752226  0.63733970  0.58636666  1
  Si  Si7  1  0.97717541  0.62241001  0.08425617  1
  Si  Si8  1  0.33947793  0.03956302  0.08510632  1
  Si  Si9  1  0.18331479  0.32984792  0.08544460  1
  Si  Si10  1  0.81512732  0.67029322  0.91497178  1
  Si  Si11  1  0.66662212  0.96251985  0.91683929  1
  Si  Si12  1  0.31417836  0.95730020  0.41444230  1
  Si  Si13  1  0.16719472  0.37313726  0.41646320  1
  Si  Si14  1  0.01634023  0.65832438  0.41657950  1
  S  S0  1  0.14302010  0.99114942  0.25168378  1
  S  S1  1  0.35376460  0.71702081  0.25012787  1
  S  S2  1  0.00686064  0.29187556  0.25064292  1
  S  S3  1  0.50304109  0.29054640  0.25358707  1
  S  S4  1  0.64280830  0.29425112  0.75206659  1
  S  S5  1  0.00264247  0.71618914  0.75319886  1
  S  S6  1  0.50559577  0.71741929  0.75099536  1
  S  S7  1  0.85469460  0.99296349  0.75089491  1
  S  S8  1  0.98421531  0.33802425  0.58355278  1
  S  S9  1  0.18594199  0.03261072  0.58245292  1
  S  S10  1  0.32925706  0.62325050  0.58300535  1
  S  S11  1  0.48296192  0.62861909  0.08208526  1
  S  S12  1  0.83046556  0.03815562  0.08238619  1
  S  S13  1  0.68450992  0.33622959  0.08136828  1
  S  S14  1  0.31652649  0.66270143  0.91522503  1
  S  S15  1  0.01635866  0.36935425  0.91516487  1
  S  S16  1  0.52147691  0.37878777  0.91576644  1
  S  S17  1  0.16908809  0.96921117  0.91470127  1
  S  S18  1  0.81561196  0.96901077  0.41550106  1
  S  S19  1  0.66727886  0.36841371  0.41463635  1
  S  S20  1  0.51614814  0.66297676  0.41531987  1
  O  O0  1  0.09717809  0.00259899  0.30193211  1
  O  O1  1  0.58675301  0.00184623  0.30501587  1
  O  O2  1  0.40477672  0.81582735  0.30017666  1
  O  O3  1  0.91206811  0.82693100  0.30720986  1
  O  O4  1  0.49367951  0.18417073  0.30382922  1
  O  O5  1  0.00606409  0.19093484  0.29998685  1
  O  O6  1  0.08728295  0.17263768  0.80600163  1
  O  O7  1  0.59695888  0.18915213  0.80310391  1
  O  O8  1  0.50504519  0.81859028  0.80149672  1
  O  O9  1  0.99342023  0.80356476  0.80421334  1
  O  O10  1  0.41242788  0.00127095  0.80898017  1
  O  O11  1  0.90440565  0.99420626  0.80160049  1
  O  O12  1  0.40070558  0.96993932  0.69698002  1
  O  O13  1  0.89469903  0.97496675  0.69766188  1
  O  O14  1  0.08619071  0.19738143  0.69446650  1
  O  O15  1  0.59384440  0.20999598  0.69931963  1
  O  O16  1  0.01210616  0.81803570  0.70100528  1
  O  O17  1  0.51640283  0.81591448  0.69799339  1
  O  O18  1  0.39721938  0.81717099  0.19632890  1
  O  O19  1  0.89823080  0.82756610  0.19523505  1
  O  O20  1  0.01483914  0.21177739  0.19589558  1
  O  O21  1  0.51210418  0.20629403  0.20074469  1
  O  O22  1  0.09411649  0.98013810  0.19804107  1
  O  O23  1  0.58669593  0.97484290  0.19317239  1
  O  O24  1  0.44163498  0.38786663  0.63773939  1
  O  O25  1  0.95076263  0.36524558  0.63611447  1
  O  O26  1  0.23394387  0.10433128  0.63410970  1
  O  O27  1  0.74729716  0.11195269  0.63853244  1
  O  O28  1  0.31444309  0.52817228  0.63517359  1
  O  O29  1  0.82008837  0.52294812  0.64140914  1
  O  O30  1  0.45026268  0.53426743  0.13426528  1
  O  O31  1  0.93943526  0.49113523  0.13555848  1
  O  O32  1  0.32296187  0.12392089  0.13899747  1
  O  O33  1  0.81189358  0.09758012  0.13415051  1
  O  O34  1  0.24901618  0.38312167  0.13710370  1
  O  O35  1  0.73395600  0.36992546  0.13258990  1
  O  O36  1  0.23286899  0.29632828  0.02800917  1
  O  O37  1  0.72442596  0.30739309  0.02993781  1
  O  O38  1  0.42590641  0.54389281  0.03116160  1
  O  O39  1  0.91713639  0.52831693  0.02566018  1
  O  O40  1  0.35256156  0.16274981  0.02625385  1
  O  O41  1  0.84103041  0.14285886  0.03109196  1
  O  O42  1  0.22462539  0.13901472  0.53068680  1
  O  O43  1  0.73307053  0.16974436  0.52826920  1
  O  O44  1  0.34182877  0.54156292  0.53212500  1
  O  O45  1  0.85173483  0.54396559  0.52863190  1
  O  O46  1  0.41742275  0.31051969  0.52702595  1
  O  O47  1  0.92753860  0.30691839  0.53320485  1
  O  O48  1  0.28584875  0.69504544  0.96818332  1
  O  O49  1  0.76533012  0.68864581  0.97054438  1
  O  O50  1  0.06304667  0.42709156  0.96844816  1
  O  O51  1  0.57420185  0.45833999  0.96761001  1
  O  O52  1  0.15459048  0.88100624  0.96863196  1
  O  O53  1  0.65160334  0.83668342  0.97144548  1
  O  O54  1  0.26879976  0.84415889  0.47125276  1
  O  O55  1  0.78516400  0.87257427  0.46818211  1
  O  O56  1  0.15335075  0.46535253  0.47215361  1
  O  O57  1  0.65195018  0.42754944  0.46844317  1
  O  O58  1  0.07740887  0.69062456  0.47252781  1
  O  O59  1  0.56269935  0.69823844  0.46866729  1
  O  O60  1  0.06519485  0.63736416  0.36047010  1
  O  O61  1  0.56159919  0.64018176  0.36650267  1
  O  O62  1  0.25465650  0.86646487  0.35825631  1
  O  O63  1  0.75690247  0.87028723  0.36654188  1
  O  O64  1  0.18258907  0.49432731  0.36031758  1
  O  O65  1  0.67537957  0.47977214  0.36579766  1
  O  O66  1  0.06170130  0.48345890  0.86652865  1
  O  O67  1  0.56342704  0.48240920  0.86444271  1
  O  O68  1  0.17785786  0.87581114  0.86589850  1
  O  O69  1  0.67737842  0.86259418  0.86097267  1
  O  O70  1  0.25830866  0.64157800  0.86636443  1
  O  O71  1  0.75390572  0.64316824  0.85919680  1
  O  O72  1  0.00664839  0.82878558  0.41030385  1
  O  O73  1  0.50304642  0.81107519  0.40462456  1
  O  O74  1  0.41036071  0.98253887  0.40876882  1
  O  O75  1  0.90215005  0.99544484  0.40450192  1
  O  O76  1  0.08252081  0.18526431  0.40882368  1
  O  O77  1  0.59184031  0.19406769  0.40485161  1
  O  O78  1  0.00280261  0.19483859  0.90437865  1
  O  O79  1  0.51201763  0.20644813  0.91011859  1
  O  O80  1  0.09425217  0.99441085  0.90530660  1
  O  O81  1  0.58206436  0.98371763  0.91050759  1
  O  O82  1  0.40342903  0.81303393  0.90491364  1
  O  O83  1  0.90994863  0.83848929  0.90951232  1
  O  O84  1  0.48112363  0.15327025  0.59049121  1
  O  O85  1  0.98836007  0.17442349  0.58857597  1
  O  O86  1  0.09860261  0.01749343  0.58757370  1
  O  O87  1  0.59066582  0.03075117  0.59277898  1
  O  O88  1  0.41309336  0.79360889  0.58793492  1
  O  O89  1  0.92420137  0.83244351  0.59193877  1
  O  O90  1  0.48835212  0.79997429  0.08630258  1
  O  O91  1  0.98205483  0.81142471  0.09100684  1
  O  O92  1  0.42583471  0.01648593  0.08932773  1
  O  O93  1  0.91212418  0.03092926  0.08688334  1
  O  O94  1  0.09010219  0.15088616  0.09126754  1
  O  O95  1  0.59816885  0.17716885  0.08718854  1
  O  O96  1  0.34661292  0.16548697  0.75468767  1
  O  O97  1  0.84778678  0.14512611  0.75204167  1
  O  O98  1  0.23826268  0.32463683  0.75322773  1
  O  O99  1  0.72756135  0.31314864  0.75283715  1
  O  O100  1  0.42805527  0.55423884  0.75243547  1
  O  O101  1  0.92922100  0.54566837  0.75116726  1
  O  O102  1  0.35038906  0.55387517  0.25025710  1
  O  O103  1  0.84479038  0.52759470  0.25419538  1
  O  O104  1  0.42948395  0.31314702  0.25049143  1
  O  O105  1  0.93010168  0.30360754  0.25020709  1
  O  O106  1  0.22744526  0.14393263  0.25147167  1
  O  O107  1  0.73831053  0.15137037  0.25286490  1
  O  O108  1  0.32537686  0.50840606  0.91869236  1
  O  O109  1  0.82148895  0.49707930  0.92143653  1
  O  O110  1  0.43664901  0.36323052  0.92218793  1
  O  O111  1  0.92943063  0.35023953  0.91916300  1
  O  O112  1  0.24833921  0.14285345  0.91786605  1
  O  O113  1  0.75272130  0.14574001  0.92587687  1
  O  O114  1  0.32300021  0.14640974  0.42170122  1
  O  O115  1  0.82016854  0.13560132  0.41874672  1
  O  O116  1  0.25250217  0.35688352  0.42641844  1
  O  O117  1  0.74551243  0.35306648  0.41763485  1
  O  O118  1  0.42935983  0.50883091  0.41909452  1
  O  O119  1  0.92314977  0.48667889  0.42488562  1
  O  O120  1  0.16603853  0.48437035  0.07426556  1
  O  O121  1  0.66829850  0.48029506  0.07012909  1
  O  O122  1  0.07577621  0.67153746  0.07530595  1
  O  O123  1  0.56919234  0.65285091  0.07115558  1
  O  O124  1  0.25880912  0.85199673  0.07526999  1
  O  O125  1  0.75786376  0.85755348  0.07265597  1
  O  O126  1  0.17165648  0.85777571  0.57441247  1
  O  O127  1  0.66526790  0.84773024  0.57418954  1
  O  O128  1  0.25822364  0.65998067  0.57479279  1
  O  O129  1  0.75776905  0.66699868  0.57643651  1
  O  O130  1  0.07145516  0.48272191  0.57440586  1
  O  O131  1  0.57615424  0.48099823  0.57548694  1
  O  O132  1  0.14859392  0.83351718  0.25379415  1
  O  O133  1  0.64239465  0.80856518  0.25880606  1
  O  O134  1  0.26856752  0.70145281  0.25191130  1
  O  O135  1  0.75845790  0.69692222  0.25875772  1
  O  O136  1  0.08555636  0.46558857  0.25339375  1
  O  O137  1  0.58368048  0.45703819  0.25872092  1
  O  O138  1  0.14314429  0.47640751  0.75910844  1
  O  O139  1  0.64676021  0.46193182  0.75766974  1
  O  O140  1  0.08329138  0.71017265  0.75955633  1
  O  O141  1  0.58316837  0.69811723  0.75737858  1
  O  O142  1  0.25996765  0.82258016  0.75973194  1
  O  O143  1  0.76775026  0.83571781  0.75494099  1
loop_
_geom_bond_atom_site_label_1
_geom_bond_atom_site_label_2
_geom_bond_distance
_geom_bond_site_symmetry_2
Na0 O131 2.346594 1_555
Na0 O129 2.505710 1_555
Na0 O87 2.547504 1_555
Na0 O57 2.804664 1_555
Na0 O84 2.816330 1_555
Na0 O29 2.856657 1_555
Na0 O43 2.894104 1_555
Na0 O15 3.006084 1_555
Na1 O127 2.312845 1_555
Na1 O131 2.510408 1_555
Na1 O88 2.599051 1_555
Na1 O24 2.603340 1_555
Na1 O87 2.773983 1_565
Na1 O59 2.865940 1_555
Na1 O17 2.905334 1_555
Na2 O129 2.314082 1_555
Na2 O127 2.468277 1_555
Na2 O89 2.665476 1_555
Na2 O27 2.674460 1_565
Na2 O85 2.674939 1_565
Na2 O55 2.818531 1_555
Na2 O13 2.959990 1_555
Na2 O47 3.011904 1_565
Na3 O122 2.325085 1_555
Na3 O124 2.505271 1_555
Na3 O94 2.559579 1_565
Na3 O91 2.778466 1_455
Na3 O32 2.847902 1_565
Na3 O52 2.875490 1_554
Na3 O22 2.896203 1_555
Na3 O36 2.965486 1_565
Na4 O124 2.312934 1_555
Na4 O120 2.451123 1_555
Na4 O34 2.624571 1_555
Na4 O92 2.662997 1_565
Na4 O90 2.697922 1_555
Na4 O18 2.870586 1_555
Na4 O48 2.893665 1_554
Na5 O120 2.333802 1_555
Na5 O122 2.504354 1_555
Na5 O31 2.527009 1_455
Na5 O93 2.635339 1_455
Na5 O94 2.776566 1_555
Na5 O20 2.803469 1_555
Na5 O50 2.960242 1_554
Na6 O72 2.454821 1_555
Na6 O76 2.566722 1_565
Na6 O86 2.676064 1_565
Na6 O89 2.738909 1_455
Na6 O75 2.861073 1_455
Na6 O85 2.904626 1_465
Na7 O84 2.532916 1_555
Na7 O74 2.564432 1_545
Na7 O88 2.691080 1_545
Na7 O87 2.742999 1_555
Na7 O77 2.867538 1_555
Na7 O73 2.968946 1_545
Na8 O91 2.473222 1_555
Na8 O93 2.629222 1_565
Na8 O94 2.629540 1_665
Na8 O83 2.636626 1_554
Na8 O80 2.920444 1_654
Na8 O78 3.032927 1_664
Na9 O92 2.551871 1_555
Na9 O95 2.583613 1_555
Na9 O81 2.616666 1_544
Na9 O90 2.686168 1_545
Na9 O79 2.744187 1_554
Na9 O82 2.892631 1_544
Na10 O96 2.248471 1_555
Na10 O98 2.262916 1_555
Na10 O100 2.584195 1_555
Na10 O112 2.732002 1_555
Na10 O108 2.872962 1_555
Na10 O110 3.005361 1_555
Na11 O109 2.558791 1_555
Na11 O99 2.594160 1_555
Na11 O113 2.606828 1_555
Na11 O111 2.648638 1_555
Na11 O97 2.732882 1_555
Na11 O101 2.774929 1_555
Na12 O114 2.542191 1_555
Na12 O116 2.550773 1_555
Na12 O106 2.609168 1_555
Na12 O118 2.655756 1_555
Na12 O102 2.809334 1_555
Na12 O104 2.850965 1_555
Na13 O103 2.291110 1_555
Na13 O107 2.409249 1_555
Na13 O105 2.623251 1_555
Na13 O117 2.742111 1_555
Na13 O119 2.789480 1_555
Na13 O115 2.843348 1_555
Na14 O122 2.522505 1_555
Na14 O120 2.579973 1_555
Na14 O124 2.599174 1_555
Na14 O136 2.783429 1_555
Na14 O132 2.811389 1_555
Na14 O134 2.826514 1_555
Na15 O135 2.460286 1_555
Na15 O133 2.526071 1_555
Na15 O137 2.760396 1_555
Na15 O125 2.827872 1_555
Na15 O123 3.011579 1_555
Na15 O121 3.015242 1_555
Na16 O142 2.638665 1_555
Na16 O128 2.649905 1_555
Na16 O138 2.659079 1_555
Na16 O126 2.799523 1_555
Na16 O130 2.802306 1_555
Na16 O140 2.898511 1_555
Na17 O131 2.406127 1_555
Na17 O129 2.427507 1_555
Na17 O127 2.464155 1_555
Ca0 O24 2.168061 1_555
Ca0 O96 2.209321 1_555
Ca0 O98 2.246880 1_555
Ca0 O26 2.314029 1_555
Ca0 O28 2.397997 1_555
Ca0 O100 2.415962 1_555
Ca1 O29 2.107614 1_555
Ca1 O27 2.115089 1_555
Ca1 O25 2.335150 1_555
Ca1 O99 2.408394 1_555
Ca1 O101 2.418011 1_555
Ca1 O97 2.448510 1_555
Ca2 O32 2.115456 1_555
Ca2 O34 2.130685 1_555
Ca2 O106 2.358513 1_555
Ca2 O30 2.366863 1_555
Ca2 O104 2.386862 1_555
Ca2 O102 2.413514 1_555
Ca3 O31 2.179892 1_555
Ca3 O103 2.182649 1_555
Ca3 O107 2.230327 1_555
Ca3 O35 2.380739 1_555
Ca3 O105 2.389337 1_555
Ca3 O33 2.442546 1_555
Ca4 O122 2.177453 1_555
Ca4 O120 2.183588 1_555
Ca4 O124 2.190154 1_555
Ca4 O52 2.313435 1_554
Ca4 O50 2.318799 1_554
Ca4 O48 2.340034 1_554
Ca5 O127 2.187429 1_555
Ca5 O131 2.187908 1_555
Ca5 O129 2.196857 1_555
Ca5 O57 2.304859 1_555
Ca5 O55 2.309713 1_555
Ca5 O59 2.311619 1_555
Hf0 O3 1.948209 1_455
Hf0 O72 1.996425 1_555
Hf0 O76 2.033543 1_565
Hf0 O0 2.112988 1_565
Hf0 O75 2.149757 1_455
Hf0 O5 2.204876 1_565
Hf1 O1 1.933823 1_565
Hf1 O74 2.028934 1_555
Hf1 O2 2.085871 1_555
Hf1 O4 2.105119 1_565
Hf1 O73 2.108199 1_555
Hf1 O77 2.116683 1_565
Hf2 O6 1.922625 1_555
Hf2 O83 2.049106 1_445
Hf2 O11 2.085433 1_445
Hf2 O9 2.090036 1_445
Hf2 O78 2.109109 1_555
Hf2 O80 2.127419 1_545
Hf3 O10 1.923725 1_555
Hf3 O81 2.046151 1_545
Hf3 O8 2.069412 1_545
Hf3 O7 2.070800 1_555
Hf3 O82 2.142241 1_545
Hf3 O79 2.239888 1_555
Hf4 O14 1.964830 1_555
Hf4 O89 1.994788 1_445
Hf4 O86 2.135376 1_555
Hf4 O85 2.185388 1_455
Hf4 O16 2.188757 1_545
Hf4 O13 2.249358 1_445
Hf5 O84 1.951915 1_555
Hf5 O12 1.970374 1_545
Hf5 O87 2.067422 1_555
Hf5 O88 2.177531 1_545
Hf5 O15 2.249236 1_555
Hf5 O17 2.324777 1_545
Hf6 O19 1.948086 1_555
Hf6 O91 1.995180 1_555
Hf6 O94 2.119411 1_665
Hf6 O22 2.161241 1_655
Hf6 O20 2.214517 1_665
Hf6 O93 2.266933 1_565
Hf7 O23 1.945429 1_545
Hf7 O92 2.041078 1_555
Hf7 O21 2.119796 1_555
Hf7 O18 2.137592 1_545
Hf7 O95 2.202969 1_555
Hf7 O90 2.301324 1_545
Hf8 O40 1.918278 1_556
Hf8 O36 1.926603 1_556
Hf8 O38 2.190883 1_556
Hf8 O112 2.211734 1_555
Hf8 O110 2.331834 1_555
Hf8 O108 2.371144 1_555
Hf9 O39 1.954296 1_556
Hf9 O109 1.980749 1_555
Hf9 O113 2.058593 1_555
Hf9 O37 2.179091 1_556
Hf9 O111 2.228930 1_555
Hf9 O41 2.311188 1_556
Hf10 O114 1.968391 1_555
Hf10 O46 1.975870 1_555
Hf10 O116 2.025872 1_555
Hf10 O42 2.187652 1_555
Hf10 O118 2.236083 1_555
Hf10 O44 2.347476 1_555
Hf11 O45 1.934283 1_555
Hf11 O119 2.019513 1_555
Hf11 O43 2.030326 1_555
Hf11 O117 2.232880 1_555
Hf11 O47 2.253581 1_555
Hf11 O115 2.393024 1_555
Hf12 O49 1.930520 1_554
Hf12 O53 1.933480 1_554
Hf12 O125 2.123315 1_555
Hf12 O51 2.164153 1_554
Hf12 O121 2.210635 1_555
Hf12 O123 2.226317 1_555
Hf13 O56 1.942247 1_555
Hf13 O58 1.951173 1_555
Hf13 O54 1.957242 1_555
Hf13 O128 2.268738 1_555
Hf13 O126 2.270202 1_555
Hf13 O130 2.287296 1_555
Hf14 O60 1.947137 1_555
Hf14 O64 1.958200 1_555
Hf14 O62 1.977331 1_555
Hf14 O136 2.253775 1_555
Hf14 O132 2.321125 1_555
Hf14 O134 2.363975 1_555
Hf15 O135 1.931260 1_555
Hf15 O133 1.950956 1_555
Hf15 O63 2.100423 1_555
Hf15 O137 2.210285 1_555
Hf15 O65 2.252162 1_555
Hf15 O61 2.269449 1_555
Hf16 O142 1.922716 1_555
Hf16 O138 1.929964 1_555
Hf16 O70 2.159984 1_555
Hf16 O140 2.172813 1_555
Hf16 O66 2.281023 1_555
Hf16 O68 2.283647 1_555
Hf17 O69 1.940707 1_555
Hf17 O71 1.950326 1_555
Hf17 O143 2.159802 1_555
Hf17 O141 2.192883 1_555
Hf17 O67 2.195034 1_555
Hf17 O139 2.249751 1_555
O0 S0 1.479365 1_545
O1 Si0 1.646854 1_545
O2 S1 1.485654 1_555
O3 Si1 1.630710 1_555
O4 S3 1.482594 1_555
O5 S2 1.475562 1_555
O6 Si2 1.652895 1_555
O7 S4 1.501126 1_555
O8 S6 1.505116 1_555
O9 S5 1.493962 1_655
O10 Si3 1.656947 1_555
O11 S7 1.489178 1_555
O12 Si3 1.656635 1_565
O13 S7 1.497495 1_555
O14 Si2 1.668360 1_555
O15 S4 1.491385 1_555
O16 S5 1.495506 1_555
O17 S6 1.490116 1_555
O18 S1 1.528523 1_555
O19 Si1 1.670516 1_555
O20 S2 1.521409 1_555
O21 S3 1.511492 1_555
O22 S0 1.513827 1_555
O23 Si0 1.690090 1_555
O24 Si4 1.593675 1_555
O25 S8 1.452705 1_555
O26 S9 1.442982 1_555
O27 Si5 1.603079 1_555
O28 S10 1.447205 1_555
O29 Si6 1.590922 1_555
O30 S11 1.444764 1_555
O31 Si7 1.592086 1_555
O32 Si8 1.586060 1_555
O33 S12 1.439071 1_555
O34 Si9 1.594121 1_555
O35 S13 1.437415 1_555
O36 Si9 1.733108 1_555
O37 S13 1.499639 1_555
O38 S11 1.513327 1_555
O39 Si7 1.694603 1_555
O40 Si8 1.721434 1_555
O41 S12 1.489199 1_555
O42 S9 1.494746 1_555
O43 Si5 1.693861 1_555
O44 S10 1.485183 1_555
O45 Si6 1.688458 1_555
O46 Si4 1.675772 1_555
O47 S8 1.496177 1_555
O48 S14 1.453774 1_555
O49 Si10 1.645150 1_555
O50 S15 1.452451 1_555
O51 S16 1.490701 1_555
O52 S17 1.453252 1_555
O53 Si11 1.650284 1_555
O54 Si12 1.636238 1_555
O55 S18 1.458449 1_555
O56 Si13 1.641065 1_555
O57 S19 1.455431 1_555
O58 Si14 1.645563 1_555
O59 S20 1.452889 1_555
O60 Si14 1.654007 1_555
O61 S20 1.488234 1_555
O62 Si12 1.639865 1_555
O63 S18 1.515871 1_555
O64 Si13 1.652444 1_555
O65 S19 1.489671 1_555
O66 S15 1.486690 1_555
O67 S16 1.486366 1_555
O68 S17 1.483037 1_555
O69 Si11 1.663664 1_555
O70 S14 1.503432 1_555
O71 Si10 1.652127 1_555
O72 Si14 1.652391 1_555
O73 S20 1.501843 1_555
O74 Si12 1.645667 1_555
O75 S18 1.485846 1_555
O76 Si13 1.635310 1_555
O77 S19 1.503145 1_555
O78 S15 1.500916 1_555
O79 S16 1.494891 1_555
O80 S17 1.500369 1_555
O81 Si11 1.644047 1_555
O82 S14 1.500003 1_555
O83 Si10 1.634950 1_555
O84 Si4 1.692865 1_555
O85 S8 1.531872 1_555
O86 S9 1.523514 1_555
O87 Si5 1.685235 1_555
O88 S10 1.536042 1_555
O89 Si6 1.683904 1_555
O90 S11 1.515274 1_555
O91 Si7 1.684157 1_555
O92 Si8 1.682840 1_555
O93 S12 1.517308 1_555
O94 Si9 1.662552 1_555
O95 S13 1.513211 1_555
O96 Si3 1.581946 1_555
O97 S7 1.451256 1_545
O98 Si2 1.579712 1_555
O99 S4 1.457315 1_555
O100 S6 1.444366 1_555
O101 S5 1.451611 1_655
O102 S1 1.454336 1_555
O103 Si1 1.583563 1_555
O104 S3 1.448798 1_555
O105 S2 1.447535 1_655
O106 S0 1.462381 1_545
O107 Si0 1.579092 1_545
O108 S14 1.492744 1_555
O109 Si10 1.643622 1_555
O110 S16 1.479468 1_555
O111 S15 1.498850 1_655
O112 S17 1.511950 1_545
O113 Si11 1.626605 1_545
O114 Si12 1.654549 1_545
O115 S18 1.477620 1_545
O116 Si13 1.641409 1_555
O117 S19 1.494195 1_555
O118 S20 1.495113 1_555
O119 Si14 1.638253 1_655
O120 Si9 1.607621 1_555
O121 S13 1.503282 1_555
O122 Si7 1.624017 1_455
O123 S11 1.487596 1_555
O124 Si8 1.611409 1_565
O125 S12 1.520337 1_565
O126 S9 1.489436 1_565
O127 Si5 1.614349 1_565
O128 S10 1.495472 1_555
O129 Si6 1.614271 1_555
O130 S8 1.480503 1_455
O131 Si4 1.620097 1_555
O132 S0 1.488002 1_555
O133 Si0 1.682320 1_555
O134 S1 1.478677 1_555
O135 Si1 1.698042 1_555
O136 S2 1.507641 1_555
O137 S3 1.490563 1_555
O138 Si2 1.686383 1_555
O139 S4 1.496400 1_555
O140 S5 1.496859 1_555
O141 S6 1.508720 1_555
O142 Si3 1.692225 1_565
O143 S7 1.508910 1_555
