# generated using pymatgen
data_K2RbGdMgV2O8
_symmetry_space_group_name_H-M   'P 1'
_cell_length_a   6.24654558
_cell_length_b   6.09375515
_cell_length_c   7.88512962
_cell_angle_alpha   90.00000591
_cell_angle_beta   84.57692283
_cell_angle_gamma   119.19412683
_symmetry_Int_Tables_number   1
_chemical_formula_structural   K2RbGdMgV2O8
_chemical_formula_sum   'K2 Rb1 Gd1 Mg1 V2 O8'
_cell_volume   260.47976319
_cell_formula_units_Z   1
loop_
 _symmetry_equiv_pos_site_id
 _symmetry_equiv_pos_as_xyz
  1  'x, y, z'
loop_
 _atom_site_type_symbol
 _atom_site_label
 _atom_site_symmetry_multiplicity
 _atom_site_fract_x
 _atom_site_fract_y
 _atom_site_fract_z
 _atom_site_occupancy
  K  K0  1  0.69111568  0.34555734  0.81019681  1
  K  K1  1  0.20877751  0.60438976  0.15198843  1
  Rb  Rb0  1  0.12095691  0.06047795  0.54405064  1
  Gd  Gd0  1  0.00775498  0.00387749  0.98829148  1
  Mg  Mg0  1  0.65704968  0.82852534  0.34270418  1
  V  V0  1  0.61260982  0.30630441  0.26463535  1
  V  V1  1  0.38165102  0.69082601  0.73455614  1
  O  O0  1  0.78076678  0.12745604  0.19033210  1
  O  O1  1  0.78076678  0.65331174  0.19033210  1
  O  O2  1  0.31890433  0.15945217  0.17707351  1
  O  O3  1  0.68097374  0.84048687  0.81176721  1
  O  O4  1  0.20291002  0.36764221  0.83308932  1
  O  O5  1  0.20291002  0.83526681  0.83308932  1
  O  O6  1  0.36995394  0.68497797  0.50372627  1
  O  O7  1  0.62873279  0.31436589  0.48250013  1
loop_
_geom_bond_atom_site_label_1
_geom_bond_atom_site_label_2
_geom_bond_distance
_geom_bond_site_symmetry_2
K0 O7 2.642488 1_555
K0 O3 3.047377 1_545
K0 O3 3.047383 1_555
K0 O5 3.105973 1_545
K0 O4 3.105974 1_555
K0 O5 3.156029 1_655
K0 O4 3.156030 1_655
K1 O1 2.820128 1_455
K1 O0 2.820131 1_455
K1 O5 2.893350 1_554
K1 O4 2.893359 1_554
K1 O6 2.998762 1_555
K1 O2 3.115911 1_565
K1 O2 3.115923 1_555
Gd0 O4 2.231439 1_555
Gd0 O5 2.231443 1_545
Gd0 O2 2.375196 1_556
Gd0 O3 2.376942 1_445
Gd0 O1 2.393780 1_446
Gd0 O0 2.393784 1_456
Mg0 O6 1.905949 1_555
Mg0 O0 1.951976 1_565
Mg0 O1 1.951976 1_555
Mg0 Rb0 3.128846 1_665
O0 V0 1.906531 1_555
O1 V0 1.906541 1_555
O2 V0 1.811418 1_555
O2 Rb0 2.976932 1_555
O3 V1 1.802771 1_555
O3 Rb0 3.019274 1_665
O4 V1 1.849256 1_555
O4 Rb0 2.871538 1_555
O5 V1 1.849247 1_555
O5 Rb0 2.871538 1_565
O6 V1 1.828129 1_555
O6 Rb0 3.336861 1_565
O6 Rb0 3.336877 1_555
O7 V0 1.729620 1_555
O7 Rb0 2.758905 1_555
