# generated using pymatgen
data_MgTe4Mo2W2(SeS)2
_symmetry_space_group_name_H-M   'P 1'
_cell_length_a   6.79091200
_cell_length_b   6.79094883
_cell_length_c   77.36785600
_cell_angle_alpha   90.00023099
_cell_angle_beta   89.99979359
_cell_angle_gamma   120.00253448
_symmetry_Int_Tables_number   1
_chemical_formula_structural   MgTe4Mo2W2(SeS)2
_chemical_formula_sum   'Mg8 Te32 Mo16 W16 Se16 S16'
_cell_volume   3089.85900432
_cell_formula_units_Z   8
loop_
 _symmetry_equiv_pos_site_id
 _symmetry_equiv_pos_as_xyz
  1  'x, y, z'
loop_
 _atom_site_type_symbol
 _atom_site_label
 _atom_site_symmetry_multiplicity
 _atom_site_fract_x
 _atom_site_fract_y
 _atom_site_fract_z
 _atom_site_occupancy
  Mg  Mg0_0  1  0.17357250  0.35258050  0.43679950  1
  Mg  Mg0_1  1  0.17357250  0.35258050  0.93679950  1
  Mg  Mg0_2  1  0.17357250  0.85258050  0.43679950  1
  Mg  Mg0_3  1  0.17357250  0.85258050  0.93679950  1
  Mg  Mg0_4  1  0.67357250  0.35258050  0.43679950  1
  Mg  Mg0_5  1  0.67357250  0.35258050  0.93679950  1
  Mg  Mg0_6  1  0.67357250  0.85258050  0.43679950  1
  Mg  Mg0_7  1  0.67357250  0.85258050  0.93679950  1
  Te  Te0_0  1  0.16667800  0.33335800  0.35310550  1
  Te  Te0_1  1  0.16667800  0.33335800  0.85310550  1
  Te  Te0_2  1  0.16667800  0.83335800  0.35310550  1
  Te  Te0_3  1  0.16667800  0.83335800  0.85310550  1
  Te  Te0_4  1  0.66667800  0.33335800  0.35310550  1
  Te  Te0_5  1  0.66667800  0.33335800  0.85310550  1
  Te  Te0_6  1  0.66667800  0.83335800  0.35310550  1
  Te  Te0_7  1  0.66667800  0.83335800  0.85310550  1
  Te  Te1_0  1  0.33332300  0.16664600  0.02277000  1
  Te  Te1_1  1  0.33332300  0.16664600  0.52277000  1
  Te  Te1_2  1  0.33332300  0.66664600  0.02277000  1
  Te  Te1_3  1  0.33332300  0.66664600  0.52277000  1
  Te  Te1_4  1  0.83332300  0.16664600  0.02277000  1
  Te  Te1_5  1  0.83332300  0.16664600  0.52277000  1
  Te  Te1_6  1  0.83332300  0.66664600  0.02277000  1
  Te  Te1_7  1  0.83332300  0.66664600  0.52277000  1
  Te  Te2_0  1  0.33332200  0.16664450  0.07116550  1
  Te  Te2_1  1  0.33332200  0.16664450  0.57116550  1
  Te  Te2_2  1  0.33332200  0.66664450  0.07116550  1
  Te  Te2_3  1  0.33332200  0.66664450  0.57116550  1
  Te  Te2_4  1  0.83332200  0.16664450  0.07116550  1
  Te  Te2_5  1  0.83332200  0.16664450  0.57116550  1
  Te  Te2_6  1  0.83332200  0.66664450  0.07116550  1
  Te  Te2_7  1  0.83332200  0.66664450  0.57116550  1
  Te  Te3_0  1  0.16667400  0.33334750  0.30444850  1
  Te  Te3_1  1  0.16667400  0.33334750  0.80444850  1
  Te  Te3_2  1  0.16667400  0.83334750  0.30444850  1
  Te  Te3_3  1  0.16667400  0.83334750  0.80444850  1
  Te  Te3_4  1  0.66667400  0.33334750  0.30444850  1
  Te  Te3_5  1  0.66667400  0.33334750  0.80444850  1
  Te  Te3_6  1  0.66667400  0.83334750  0.30444850  1
  Te  Te3_7  1  0.66667400  0.83334750  0.80444850  1
  Mo  Mo0_0  1  0.16665550  0.33330900  0.04694650  1
  Mo  Mo0_1  1  0.16665550  0.33330900  0.54694650  1
  Mo  Mo0_2  1  0.16665550  0.83330900  0.04694650  1
  Mo  Mo0_3  1  0.16665550  0.83330900  0.54694650  1
  Mo  Mo0_4  1  0.66665550  0.33330900  0.04694650  1
  Mo  Mo0_5  1  0.66665550  0.33330900  0.54694650  1
  Mo  Mo0_6  1  0.66665550  0.83330900  0.04694650  1
  Mo  Mo0_7  1  0.66665550  0.83330900  0.54694650  1
  Mo  Mo1_0  1  0.33334650  0.16669350  0.14089900  1
  Mo  Mo1_1  1  0.33334650  0.16669350  0.64089900  1
  Mo  Mo1_2  1  0.33334650  0.66669350  0.14089900  1
  Mo  Mo1_3  1  0.33334650  0.66669350  0.64089900  1
  Mo  Mo1_4  1  0.83334650  0.16669350  0.14089900  1
  Mo  Mo1_5  1  0.83334650  0.16669350  0.64089900  1
  Mo  Mo1_6  1  0.83334650  0.66669350  0.14089900  1
  Mo  Mo1_7  1  0.83334650  0.66669350  0.64089900  1
  W  W0_0  1  0.16665500  0.33330850  0.23482200  1
  W  W0_1  1  0.16665500  0.33330850  0.73482200  1
  W  W0_2  1  0.16665500  0.83330850  0.23482200  1
  W  W0_3  1  0.16665500  0.83330850  0.73482200  1
  W  W0_4  1  0.66665500  0.33330850  0.23482200  1
  W  W0_5  1  0.66665500  0.33330850  0.73482200  1
  W  W0_6  1  0.66665500  0.83330850  0.23482200  1
  W  W0_7  1  0.66665500  0.83330850  0.73482200  1
  W  W1_0  1  0.33334350  0.16668900  0.32879700  1
  W  W1_1  1  0.33334350  0.16668900  0.82879700  1
  W  W1_2  1  0.33334350  0.66668900  0.32879700  1
  W  W1_3  1  0.33334350  0.66668900  0.82879700  1
  W  W1_4  1  0.83334350  0.16668900  0.32879700  1
  W  W1_5  1  0.83334350  0.16668900  0.82879700  1
  W  W1_6  1  0.83334350  0.66668900  0.32879700  1
  W  W1_7  1  0.83334350  0.66668900  0.82879700  1
  Se  Se0_0  1  0.33332050  0.16664250  0.21342700  1
  Se  Se0_1  1  0.33332050  0.16664250  0.71342700  1
  Se  Se0_2  1  0.33332050  0.66664250  0.21342700  1
  Se  Se0_3  1  0.33332050  0.66664250  0.71342700  1
  Se  Se0_4  1  0.83332050  0.16664250  0.21342700  1
  Se  Se0_5  1  0.83332050  0.16664250  0.71342700  1
  Se  Se0_6  1  0.83332050  0.66664250  0.21342700  1
  Se  Se0_7  1  0.83332050  0.66664250  0.71342700  1
  Se  Se1_0  1  0.33332050  0.16664300  0.25620250  1
  Se  Se1_1  1  0.33332050  0.16664300  0.75620250  1
  Se  Se1_2  1  0.33332050  0.66664300  0.25620250  1
  Se  Se1_3  1  0.33332050  0.66664300  0.75620250  1
  Se  Se1_4  1  0.83332050  0.16664300  0.25620250  1
  Se  Se1_5  1  0.83332050  0.16664300  0.75620250  1
  Se  Se1_6  1  0.83332050  0.66664300  0.25620250  1
  Se  Se1_7  1  0.83332050  0.66664300  0.75620250  1
  S  S0_0  1  0.16667850  0.33335750  0.16028150  1
  S  S0_1  1  0.16667850  0.33335750  0.66028150  1
  S  S0_2  1  0.16667850  0.83335750  0.16028150  1
  S  S0_3  1  0.16667850  0.83335750  0.66028150  1
  S  S0_4  1  0.66667850  0.33335750  0.16028150  1
  S  S0_5  1  0.66667850  0.33335750  0.66028150  1
  S  S0_6  1  0.66667850  0.83335750  0.16028150  1
  S  S0_7  1  0.66667850  0.83335750  0.66028150  1
  S  S1_0  1  0.16667800  0.33335500  0.12150250  1
  S  S1_1  1  0.16667800  0.33335500  0.62150250  1
  S  S1_2  1  0.16667800  0.83335500  0.12150250  1
  S  S1_3  1  0.16667800  0.83335500  0.62150250  1
  S  S1_4  1  0.66667800  0.33335500  0.12150250  1
  S  S1_5  1  0.66667800  0.33335500  0.62150250  1
  S  S1_6  1  0.66667800  0.83335500  0.12150250  1
  S  S1_7  1  0.66667800  0.83335500  0.62150250  1
loop_
_geom_bond_atom_site_label_1
_geom_bond_atom_site_label_2
_geom_bond_distance
_geom_bond_site_symmetry_2
Mg0_0 Mg0_6 3.395335 1_445
Mg0_0 Mg0_6 3.395335 1_555
Mg0_0 Mg0_4 3.395456 1_555
Mg0_0 Mg0_4 3.395456 1_455
Mg0_0 Mg0_2 3.395474 1_545
Mg0_0 Mg0_2 3.395474 1_555
Mg0_1 Mg0_7 3.395335 1_555
Mg0_1 Mg0_7 3.395335 1_445
Mg0_1 Mg0_5 3.395456 1_455
Mg0_1 Mg0_5 3.395456 1_555
Mg0_1 Mg0_3 3.395474 1_545
Mg0_1 Mg0_3 3.395474 1_555
Mg0_2 Mg0_4 3.395335 1_565
Mg0_2 Mg0_4 3.395335 1_455
Mg0_2 Mg0_6 3.395456 1_455
Mg0_2 Mg0_6 3.395456 1_555
Mg0_3 Mg0_5 3.395335 1_565
Mg0_3 Mg0_5 3.395335 1_455
Mg0_3 Mg0_7 3.395456 1_555
Mg0_3 Mg0_7 3.395456 1_455
Mg0_4 Mg0_6 3.395474 1_545
Mg0_4 Mg0_6 3.395474 1_555
Mg0_5 Mg0_7 3.395474 1_545
Mg0_5 Mg0_7 3.395474 1_555
Te0_0 W1_2 2.716592 1_555
Te0_0 W1_4 2.716598 1_455
Te0_0 W1_0 2.716647 1_555
Te0_1 W1_3 2.716592 1_555
Te0_1 W1_5 2.716598 1_455
Te0_1 W1_1 2.716647 1_555
Te0_2 W1_0 2.716592 1_565
Te0_2 W1_6 2.716598 1_455
Te0_2 W1_2 2.716647 1_555
Te0_3 W1_1 2.716592 1_565
Te0_3 W1_7 2.716598 1_455
Te0_3 W1_3 2.716647 1_555
Te0_4 W1_6 2.716592 1_555
Te0_4 W1_0 2.716598 1_555
Te0_4 W1_4 2.716647 1_555
Te0_5 W1_7 2.716592 1_555
Te0_5 W1_1 2.716598 1_555
Te0_5 W1_5 2.716647 1_555
Te0_6 W1_4 2.716592 1_565
Te0_6 W1_2 2.716598 1_555
Te0_6 W1_6 2.716647 1_555
Te0_7 W1_5 2.716592 1_565
Te0_7 W1_3 2.716598 1_555
Te0_7 W1_7 2.716647 1_555
Te3_0 W1_4 2.718719 1_455
Te3_0 W1_2 2.718773 1_555
Te3_0 W1_0 2.718775 1_555
Te3_1 W1_5 2.718719 1_455
Te3_1 W1_3 2.718773 1_555
Te3_1 W1_1 2.718775 1_555
Te3_2 W1_6 2.718719 1_455
Te3_2 W1_0 2.718773 1_565
Te3_2 W1_2 2.718775 1_555
Te3_3 W1_7 2.718719 1_455
Te3_3 W1_1 2.718773 1_565
Te3_3 W1_3 2.718775 1_555
Te3_4 W1_0 2.718719 1_555
Te3_4 W1_6 2.718773 1_555
Te3_4 W1_4 2.718775 1_555
Te3_5 W1_1 2.718719 1_555
Te3_5 W1_7 2.718773 1_555
Te3_5 W1_5 2.718775 1_555
Te3_6 W1_2 2.718719 1_555
Te3_6 W1_4 2.718773 1_565
Te3_6 W1_6 2.718775 1_555
Te3_7 W1_3 2.718719 1_555
Te3_7 W1_5 2.718773 1_565
Te3_7 W1_7 2.718775 1_555
Mo0_0 Te1_4 2.709529 1_455
Mo0_0 Te1_2 2.709557 1_555
Mo0_0 Te1_0 2.709570 1_555
Mo0_0 Te2_4 2.711799 1_455
Mo0_0 Te2_2 2.711815 1_555
Mo0_0 Te2_0 2.711855 1_555
Mo0_1 Te1_5 2.709529 1_455
Mo0_1 Te1_3 2.709557 1_555
Mo0_1 Te1_1 2.709570 1_555
Mo0_1 Te2_5 2.711799 1_455
Mo0_1 Te2_3 2.711815 1_555
Mo0_1 Te2_1 2.711855 1_555
Mo0_2 Te1_6 2.709529 1_455
Mo0_2 Te1_0 2.709557 1_565
Mo0_2 Te1_2 2.709570 1_555
Mo0_2 Te2_6 2.711799 1_455
Mo0_2 Te2_0 2.711815 1_565
Mo0_2 Te2_2 2.711855 1_555
Mo0_3 Te1_7 2.709529 1_455
Mo0_3 Te1_1 2.709557 1_565
Mo0_3 Te1_3 2.709570 1_555
Mo0_3 Te2_7 2.711799 1_455
Mo0_3 Te2_1 2.711815 1_565
Mo0_3 Te2_3 2.711855 1_555
Mo0_4 Te1_0 2.709529 1_555
Mo0_4 Te1_6 2.709557 1_555
Mo0_4 Te1_4 2.709570 1_555
Mo0_4 Te2_0 2.711799 1_555
Mo0_4 Te2_6 2.711815 1_555
Mo0_4 Te2_4 2.711855 1_555
Mo0_5 Te1_1 2.709529 1_555
Mo0_5 Te1_7 2.709557 1_555
Mo0_5 Te1_5 2.709570 1_555
Mo0_5 Te2_1 2.711799 1_555
Mo0_5 Te2_7 2.711815 1_555
Mo0_5 Te2_5 2.711855 1_555
Mo0_6 Te1_2 2.709529 1_555
Mo0_6 Te1_4 2.709557 1_565
Mo0_6 Te1_6 2.709570 1_555
Mo0_6 Te2_2 2.711799 1_555
Mo0_6 Te2_4 2.711815 1_565
Mo0_6 Te2_6 2.711855 1_555
Mo0_7 Te1_3 2.709529 1_555
Mo0_7 Te1_5 2.709557 1_565
Mo0_7 Te1_7 2.709570 1_555
Mo0_7 Te2_3 2.711799 1_555
Mo0_7 Te2_5 2.711815 1_565
Mo0_7 Te2_7 2.711855 1_555
Mo1_0 S0_4 2.468111 1_555
Mo1_0 S0_2 2.468139 1_545
Mo1_0 S0_0 2.468167 1_555
Mo1_0 S1_4 2.468763 1_555
Mo1_0 S1_2 2.468803 1_545
Mo1_0 S1_0 2.468827 1_555
Mo1_1 S0_5 2.468111 1_555
Mo1_1 S0_3 2.468139 1_545
Mo1_1 S0_1 2.468167 1_555
Mo1_1 S1_5 2.468763 1_555
Mo1_1 S1_3 2.468803 1_545
Mo1_1 S1_1 2.468827 1_555
Mo1_2 S0_6 2.468111 1_555
Mo1_2 S0_0 2.468139 1_555
Mo1_2 S0_2 2.468167 1_555
Mo1_2 S1_6 2.468763 1_555
Mo1_2 S1_0 2.468803 1_555
Mo1_2 S1_2 2.468827 1_555
Mo1_3 S0_7 2.468111 1_555
Mo1_3 S0_1 2.468139 1_555
Mo1_3 S0_3 2.468167 1_555
Mo1_3 S1_7 2.468763 1_555
Mo1_3 S1_1 2.468803 1_555
Mo1_3 S1_3 2.468827 1_555
Mo1_4 S0_0 2.468111 1_655
Mo1_4 S0_6 2.468139 1_545
Mo1_4 S0_4 2.468167 1_555
Mo1_4 S1_0 2.468763 1_655
Mo1_4 S1_6 2.468803 1_545
Mo1_4 S1_4 2.468827 1_555
Mo1_5 S0_1 2.468111 1_655
Mo1_5 S0_7 2.468139 1_545
Mo1_5 S0_5 2.468167 1_555
Mo1_5 S1_1 2.468763 1_655
Mo1_5 S1_7 2.468803 1_545
Mo1_5 S1_5 2.468827 1_555
Mo1_6 S0_2 2.468111 1_655
Mo1_6 S0_4 2.468139 1_555
Mo1_6 S0_6 2.468167 1_555
Mo1_6 S1_2 2.468763 1_655
Mo1_6 S1_4 2.468803 1_555
Mo1_6 S1_6 2.468827 1_555
Mo1_7 S0_3 2.468111 1_655
Mo1_7 S0_5 2.468139 1_555
Mo1_7 S0_7 2.468167 1_555
Mo1_7 S1_3 2.468763 1_655
Mo1_7 S1_5 2.468803 1_555
Mo1_7 S1_7 2.468827 1_555
Se0_0 W0_4 2.565707 1_555
Se0_0 W0_2 2.565714 1_545
Se0_0 W0_0 2.565747 1_555
Se0_1 W0_5 2.565707 1_555
Se0_1 W0_3 2.565714 1_545
Se0_1 W0_1 2.565747 1_555
Se0_2 W0_6 2.565707 1_555
Se0_2 W0_0 2.565714 1_555
Se0_2 W0_2 2.565747 1_555
Se0_3 W0_7 2.565707 1_555
Se0_3 W0_1 2.565714 1_555
Se0_3 W0_3 2.565747 1_555
Se0_4 W0_0 2.565707 1_655
Se0_4 W0_6 2.565714 1_545
Se0_4 W0_4 2.565747 1_555
Se0_5 W0_1 2.565707 1_655
Se0_5 W0_7 2.565714 1_545
Se0_5 W0_5 2.565747 1_555
Se0_6 W0_2 2.565707 1_655
Se0_6 W0_4 2.565714 1_555
Se0_6 W0_6 2.565747 1_555
Se0_7 W0_3 2.565707 1_655
Se0_7 W0_5 2.565714 1_555
Se0_7 W0_7 2.565747 1_555
Se1_0 W0_4 2.564979 1_555
Se1_0 W0_2 2.564986 1_545
Se1_0 W0_0 2.565032 1_555
Se1_1 W0_5 2.564979 1_555
Se1_1 W0_3 2.564986 1_545
Se1_1 W0_1 2.565032 1_555
Se1_2 W0_6 2.564979 1_555
Se1_2 W0_0 2.564986 1_555
Se1_2 W0_2 2.565032 1_555
Se1_3 W0_7 2.564979 1_555
Se1_3 W0_1 2.564986 1_555
Se1_3 W0_3 2.565032 1_555
Se1_4 W0_0 2.564979 1_655
Se1_4 W0_6 2.564986 1_545
Se1_4 W0_4 2.565032 1_555
Se1_5 W0_1 2.564979 1_655
Se1_5 W0_7 2.564986 1_545
Se1_5 W0_5 2.565032 1_555
Se1_6 W0_2 2.564979 1_655
Se1_6 W0_4 2.564986 1_555
Se1_6 W0_6 2.565032 1_555
Se1_7 W0_3 2.564979 1_655
Se1_7 W0_5 2.564986 1_555
Se1_7 W0_7 2.565032 1_555
