# generated using pymatgen
data_TmAgS2
_symmetry_space_group_name_H-M   'P 1'
_cell_length_a   7.53654202
_cell_length_b   7.53484123
_cell_length_c   12.30394811
_cell_angle_alpha   90.01299144
_cell_angle_beta   90.00000000
_cell_angle_gamma   90.00000000
_symmetry_Int_Tables_number   1
_chemical_formula_structural   TmAgS2
_chemical_formula_sum   'Tm8 Ag8 S16'
_cell_volume   698.69994620
_cell_formula_units_Z   8
loop_
 _symmetry_equiv_pos_site_id
 _symmetry_equiv_pos_as_xyz
  1  'x, y, z'
loop_
 _atom_site_type_symbol
 _atom_site_label
 _atom_site_symmetry_multiplicity
 _atom_site_fract_x
 _atom_site_fract_y
 _atom_site_fract_z
 _atom_site_occupancy
  Tm  Tm0  1  0.72150905  0.49992638  0.25296239  1
  Tm  Tm1  1  0.22150905  0.50007362  0.74703761  1
  Tm  Tm2  1  0.97129189  0.75078398  0.50280650  1
  Tm  Tm3  1  0.47129189  0.24921602  0.49719350  1
  Tm  Tm4  1  0.72087915  -0.00001629  0.75282344  1
  Tm  Tm5  1  0.22087915  0.00001629  0.24717656  1
  Tm  Tm6  1  0.47111098  0.74908628  0.00269200  1
  Tm  Tm7  1  0.97111098  0.25091372  0.99730800  1
  Ag  Ag0  1  0.70952398  0.99358651  0.30929136  1
  Ag  Ag1  1  0.20952398  0.00641349  0.69070864  1
  Ag  Ag2  1  0.48512148  0.73443934  0.55851370  1
  Ag  Ag3  1  0.98512148  0.26556066  0.44148630  1
  Ag  Ag4  1  0.22997848  0.49580983  0.19014827  1
  Ag  Ag5  1  0.72997848  0.50419017  0.80985173  1
  Ag  Ag6  1  0.95519356  0.76706759  0.05829251  1
  Ag  Ag7  1  0.45519356  0.23293241  0.94170749  1
  S  S0  1  0.45407427  0.73352500  0.22308880  1
  S  S1  1  0.95407427  0.26647500  0.77691120  1
  S  S2  1  0.73917866  0.51832431  0.03325919  1
  S  S3  1  0.23917866  0.48167569  0.96674081  1
  S  S4  1  0.70299889  0.98158051  0.53319641  1
  S  S5  1  0.20299889  0.01841949  0.46680359  1
  S  S6  1  0.95094758  0.77027116  0.28282845  1
  S  S7  1  0.45094758  0.22972884  0.71717155  1
  S  S8  1  0.73908043  0.48223525  0.47342769  1
  S  S9  1  0.23908043  0.51776475  0.52657231  1
  S  S10  1  0.98804327  0.76626358  0.72311731  1
  S  S11  1  0.48804327  0.23373642  0.27688269  1
  S  S12  1  0.20306573  0.98206370  0.02669606  1
  S  S13  1  0.70306573  0.01793630  0.97330394  1
  S  S14  1  0.99120162  0.27014545  0.21722757  1
  S  S15  1  0.49120162  0.72985455  0.78277243  1
loop_
_geom_bond_atom_site_label_1
_geom_bond_atom_site_label_2
_geom_bond_distance
_geom_bond_site_symmetry_2
Ag0 S11 2.493956 1_565
Ag0 S6 2.499528 1_555
Ag0 S4 2.756860 1_555
Ag0 S0 2.944512 1_555
Ag1 S10 2.493956 1_445
Ag1 S7 2.499528 1_555
Ag1 S5 2.756860 1_555
Ag1 S1 2.944512 1_455
Ag2 S9 2.501599 1_555
Ag2 S4 2.502254 1_555
Ag2 S15 2.759872 1_555
Ag2 S8 2.893023 1_555
Ag3 S8 2.501599 1_555
Ag3 S5 2.502254 1_655
Ag3 S14 2.759872 1_555
Ag3 S9 2.893023 1_655
Ag4 S0 2.494905 1_555
Ag4 S14 2.498165 1_455
Ag4 S3 2.751706 1_554
Ag4 S11 2.970166 1_555
Ag4 S6 3.162011 1_455
Ag5 S1 2.494905 1_555
Ag5 S15 2.498165 1_555
Ag5 S2 2.751706 1_556
Ag5 S10 2.970166 1_555
Ag5 S7 3.162011 1_555
Ag6 S2 2.501557 1_555
Ag6 S12 2.503096 1_655
Ag6 S6 2.762964 1_555
Ag6 S13 2.877168 1_564
Ag7 S3 2.501557 1_555
Ag7 S13 2.503096 1_555
Ag7 S7 2.762964 1_555
Ag7 S12 2.877168 1_546
S0 Tm5 2.684821 1_565
S0 Tm0 2.701078 1_555
S0 Tm6 2.717346 1_555
S1 Tm4 2.684821 1_555
S1 Tm1 2.701078 1_655
S1 Tm7 2.717346 1_555
S2 Tm6 2.691958 1_555
S2 Tm7 2.703786 1_554
S2 Tm0 2.710074 1_555
S3 Tm7 2.691958 1_455
S3 Tm6 2.703786 1_556
S3 Tm1 2.710074 1_555
S4 Tm2 2.692988 1_555
S4 Tm3 2.704206 1_565
S4 Tm4 2.709157 1_565
S5 Tm3 2.692988 1_555
S5 Tm2 2.704206 1_445
S5 Tm5 2.709157 1_555
S6 Tm0 2.697058 1_555
S6 Tm5 2.707034 1_665
S6 Tm2 2.714945 1_555
S7 Tm1 2.697058 1_555
S7 Tm4 2.707034 1_555
S7 Tm3 2.714945 1_555
S8 Tm3 2.691017 1_555
S8 Tm2 2.699541 1_555
S8 Tm0 2.719124 1_555
S9 Tm2 2.691017 1_455
S9 Tm3 2.699541 1_555
S9 Tm1 2.719124 1_555
S10 Tm1 2.684333 1_655
S10 Tm4 2.699765 1_565
S10 Tm2 2.716110 1_555
S11 Tm0 2.684333 1_555
S11 Tm5 2.699765 1_555
S11 Tm3 2.716110 1_555
S12 Tm6 2.692496 1_555
S12 Tm7 2.700128 1_464
S12 Tm5 2.719436 1_565
S13 Tm7 2.692496 1_555
S13 Tm6 2.700128 1_546
S13 Tm4 2.719436 1_555
S14 Tm5 2.697252 1_655
S14 Tm0 2.705891 1_555
S14 Tm7 2.713951 1_554
S15 Tm4 2.697252 1_565
S15 Tm1 2.705891 1_555
S15 Tm6 2.713951 1_556
