# generated using pymatgen
data_TiSiSn(SO6)2
_symmetry_space_group_name_H-M   'P 1'
_cell_length_a   8.75016259
_cell_length_b   8.75172209
_cell_length_c   22.65681262
_cell_angle_alpha   89.93747300
_cell_angle_beta   90.22009466
_cell_angle_gamma   119.95096918
_symmetry_Int_Tables_number   1
_chemical_formula_structural   TiSiSn(SO6)2
_chemical_formula_sum   'Ti6 Si6 Sn6 S12 O72'
_cell_volume   1503.31517885
_cell_formula_units_Z   6
loop_
 _symmetry_equiv_pos_site_id
 _symmetry_equiv_pos_as_xyz
  1  'x, y, z'
loop_
 _atom_site_type_symbol
 _atom_site_label
 _atom_site_symmetry_multiplicity
 _atom_site_fract_x
 _atom_site_fract_y
 _atom_site_fract_z
 _atom_site_occupancy
  Ti  Ti0  1  0.98675580  0.01141736  0.35581382  1
  Ti  Ti1  1  0.01285084  0.02595444  0.64304320  1
  Ti  Ti2  1  0.01737238  0.02501658  0.14524376  1
  Ti  Ti3  1  0.67038773  0.33968450  0.68771604  1
  Ti  Ti4  1  0.67830379  0.32195920  0.47650174  1
  Ti  Ti5  1  0.33619100  0.67227705  0.30975913  1
  Si  Si0  1  0.00144620  0.29407429  0.25022527  1
  Si  Si1  1  0.29563317  0.29517080  0.74909721  1
  Si  Si2  1  0.95536011  0.33873436  0.58439406  1
  Si  Si3  1  0.38007909  0.33941364  0.08402365  1
  Si  Si4  1  0.33316033  0.95269517  0.91635998  1
  Si  Si5  1  0.61498694  0.94887827  0.41633068  1
  Sn  Sn0  1  0.01526454  0.00284203  0.85317133  1
  Sn  Sn1  1  0.66450053  0.33744594  0.18942875  1
  Sn  Sn2  1  0.65210546  0.32193195  0.97882976  1
  Sn  Sn3  1  0.33147711  0.66644216  0.02112900  1
  Sn  Sn4  1  0.33615576  0.66544949  0.52144081  1
  Sn  Sn5  1  0.33429335  0.66934504  0.81032594  1
  S  S0  1  0.28253186  0.99706031  0.25117034  1
  S  S1  1  0.71457110  0.71750932  0.25079064  1
  S  S2  1  0.99539398  0.71007898  0.74729978  1
  S  S3  1  0.71569659  0.00360219  0.74856936  1
  S  S4  1  0.38074068  0.04930010  0.58363114  1
  S  S5  1  0.67210060  0.62117431  0.58368205  1
  S  S6  1  0.95490047  0.62654743  0.08341653  1
  S  S7  1  0.67153321  0.04232420  0.08457606  1
  S  S8  1  0.62931252  0.66975986  0.91583571  1
  S  S9  1  0.03725267  0.37288693  0.91696953  1
  S  S10  1  0.33528325  0.37656688  0.41537684  1
  S  S11  1  0.04387527  0.66962437  0.41504969  1
  O  O0  1  0.20148853  0.02443744  0.30348965  1
  O  O1  1  0.82604868  0.79814702  0.30386622  1
  O  O2  1  0.97257944  0.16309919  0.30644567  1
  O  O3  1  0.21360515  0.17328690  0.80653640  1
  O  O4  1  0.95621196  0.77678403  0.80282436  1
  O  O5  1  0.81969714  0.03315194  0.80428769  1
  O  O6  1  0.80003973  0.97180924  0.69714481  1
  O  O7  1  0.16369140  0.19236259  0.69215606  1
  O  O8  1  0.02348469  0.82335900  0.69624438  1
  O  O9  1  0.79188947  0.82187269  0.19710787  1
  O  O10  1  0.03127809  0.19388104  0.19342351  1
  O  O11  1  0.17473171  0.96629082  0.19675888  1
  O  O12  1  0.85267432  0.35938266  0.64049832  1
  O  O13  1  0.49122076  0.13076776  0.63640444  1
  O  O14  1  0.63864772  0.50744640  0.63688434  1
  O  O15  1  0.87878009  0.51014618  0.13615097  1
  O  O16  1  0.63581111  0.12102130  0.13684282  1
  O  O17  1  0.49726903  0.37272017  0.14337176  1
  O  O18  1  0.45509145  0.29347723  0.02616225  1
  O  O19  1  0.84703472  0.54650727  0.02906926  1
  O  O20  1  0.71204992  0.15428860  0.03094513  1
  O  O21  1  0.45750307  0.15887310  0.52995654  1
  O  O22  1  0.69462823  0.53798122  0.53022859  1
  O  O23  1  0.82794204  0.30440613  0.52586796  1
  O  O24  1  0.55241843  0.70016386  0.96971213  1
  O  O25  1  0.15050192  0.44623094  0.97007358  1
  O  O26  1  0.29717677  0.83255637  0.97541820  1
  O  O27  1  0.53965211  0.83329836  0.47573953  1
  O  O28  1  0.29082992  0.44443582  0.46944869  1
  O  O29  1  0.15264247  0.70374306  0.46967386  1
  O  O30  1  0.12472979  0.63202929  0.36361958  1
  O  O31  1  0.49079452  0.85309820  0.35891180  1
  O  O32  1  0.36304140  0.49139105  0.36381492  1
  O  O33  1  0.11440078  0.48147288  0.86342177  1
  O  O34  1  0.36992756  0.86783465  0.85758423  1
  O  O35  1  0.51496279  0.62937249  0.86299298  1
  O  O36  1  0.02528351  0.82462068  0.40459254  1
  O  O37  1  0.81158665  0.97493406  0.40443620  1
  O  O38  1  0.17950858  0.19775416  0.40544928  1
  O  O39  1  0.01158776  0.19395277  0.90992867  1
  O  O40  1  0.15463263  0.96589425  0.91251531  1
  O  O41  1  0.80075428  0.83217501  0.90761862  1
  O  O42  1  0.96715689  0.15845120  0.59422701  1
  O  O43  1  0.20126693  0.02546136  0.59208408  1
  O  O44  1  0.82783569  0.79531881  0.59392275  1
  O  O45  1  0.96930004  0.79836511  0.09300875  1
  O  O46  1  0.82570639  0.01923866  0.09368598  1
  O  O47  1  0.18651698  0.16013978  0.09555782  1
  O  O48  1  0.69488587  0.15936209  0.74056550  1
  O  O49  1  0.48507541  0.31202433  0.73312572  1
  O  O50  1  0.83900785  0.53229120  0.73990364  1
  O  O51  1  0.69536126  0.53907676  0.24651605  1
  O  O52  1  0.82685066  0.30893278  0.24108762  1
  O  O53  1  0.46141525  0.15320024  0.24446990  1
  O  O54  1  0.65498645  0.51632589  0.92297567  1
  O  O55  1  0.86583445  0.36431570  0.92558423  1
  O  O56  1  0.51214410  0.14362667  0.92050995  1
  O  O57  1  0.63753010  0.14530484  0.42686447  1
  O  O58  1  0.49335231  0.36191068  0.42545492  1
  O  O59  1  0.86621337  0.51084137  0.42487541  1
  O  O60  1  0.35084809  0.50667135  0.07552271  1
  O  O61  1  0.13084531  0.64232593  0.07771039  1
  O  O62  1  0.51252304  0.86807316  0.07723909  1
  O  O63  1  0.36186246  0.87198164  0.57745065  1
  O  O64  1  0.51003083  0.63710982  0.57878745  1
  O  O65  1  0.14868679  0.50679790  0.57469058  1
  O  O66  1  0.30119140  0.83746444  0.25830647  1
  O  O67  1  0.53534468  0.69511886  0.25942928  1
  O  O68  1  0.17574232  0.48289954  0.26485475  1
  O  O69  1  0.31160353  0.48685589  0.75663949  1
  O  O70  1  0.15391185  0.69211059  0.75437090  1
  O  O71  1  0.53962310  0.84277849  0.75375720  1
loop_
_geom_bond_atom_site_label_1
_geom_bond_atom_site_label_2
_geom_bond_distance
_geom_bond_site_symmetry_2
O0 S0 1.463616 1_545
O0 Ti0 2.179877 1_455
O1 S1 1.483600 1_555
O1 Ti0 2.053714 1_565
O2 Si0 1.646327 1_655
O2 Ti0 1.785721 1_555
O3 Si1 1.608191 1_555
O3 Sn0 1.944011 1_555
O4 S2 1.498569 1_555
O4 Sn0 2.112319 1_665
O5 S3 1.498521 1_555
O5 Sn0 2.159502 1_655
O6 S3 1.480520 1_565
O6 Ti1 2.080811 1_665
O7 Si1 1.661528 1_555
O7 Ti1 1.781611 1_555
O8 S2 1.462094 1_455
O8 Ti1 2.182778 1_565
O9 S1 1.469069 1_555
O9 Ti2 2.223753 1_665
O10 Si0 1.651319 1_555
O10 Ti2 1.792595 1_555
O11 S0 1.490034 1_555
O11 Ti2 2.053120 1_565
O12 Si2 1.620864 1_555
O12 Ti3 1.859162 1_555
O13 S4 1.475559 1_555
O13 Ti3 2.069006 1_555
O14 S5 1.496158 1_555
O14 Ti3 1.990013 1_555
O15 S6 1.494953 1_555
O15 Sn1 2.107315 1_555
O16 S7 1.481205 1_555
O16 Sn1 2.144281 1_555
O17 Si3 1.623679 1_555
O17 Sn1 1.940127 1_555
O18 Si3 1.606951 1_555
O18 Sn2 1.941357 1_554
O19 S6 1.493484 1_555
O19 Sn2 2.170347 1_554
O20 S7 1.488681 1_555
O20 Sn2 2.140515 1_554
O21 S4 1.486677 1_555
O21 Ti4 2.120718 1_555
O22 S5 1.477415 1_555
O22 Ti4 2.193272 1_555
O23 Si2 1.657314 1_555
O23 Ti4 1.782762 1_555
O24 S8 1.483013 1_555
O24 Sn3 2.151413 1_556
O25 S9 1.482904 1_555
O25 Sn3 2.122118 1_556
O26 Si4 1.632380 1_555
O26 Sn3 1.925143 1_556
O27 Si5 1.614780 1_555
O27 Sn4 1.949277 1_555
O28 S10 1.496966 1_555
O28 Sn4 2.126412 1_555
O29 S11 1.494866 1_555
O29 Sn4 2.142072 1_555
O30 S11 1.485326 1_555
O30 Ti5 2.098220 1_555
O31 Si5 1.630318 1_555
O31 Ti5 1.851814 1_555
O32 S10 1.479694 1_555
O32 Ti5 2.103853 1_555
O33 S9 1.481188 1_555
O33 Sn5 2.169624 1_555
O34 Si4 1.634762 1_555
O34 Sn5 1.929230 1_555
O35 S8 1.482590 1_555
O35 Sn5 2.140628 1_555
O36 S11 1.463557 1_555
O36 Ti0 2.133332 1_465
O37 Si5 1.641863 1_555
O37 Ti0 1.785613 1_565
O38 S10 1.491974 1_555
O38 Ti0 2.002946 1_455
O39 S9 1.475566 1_555
O39 Sn0 2.123873 1_555
O40 Si4 1.624915 1_555
O40 Sn0 1.944152 1_565
O41 S8 1.475775 1_555
O41 Sn0 2.119012 1_665
O42 Si2 1.646628 1_555
O42 Ti1 1.784518 1_655
O43 S4 1.490473 1_555
O43 Ti1 2.018145 1_555
O44 S5 1.469063 1_555
O44 Ti1 2.159126 1_665
O45 S6 1.461350 1_555
O45 Ti2 2.163412 1_665
O46 S7 1.474196 1_555
O46 Ti2 2.019947 1_655
O47 Si3 1.657600 1_555
O47 Ti2 1.765923 1_555
O48 S3 1.473546 1_555
O48 Ti3 2.074105 1_555
O49 Si1 1.631214 1_555
O49 Ti3 1.834868 1_555
O50 S2 1.481346 1_555
O50 Ti3 1.980903 1_555
O51 S1 1.488056 1_555
O51 Sn1 2.094329 1_555
O52 Si0 1.609235 1_655
O52 Sn1 1.946997 1_555
O53 S0 1.485266 1_545
O53 Sn1 2.112941 1_555
O54 S8 1.476565 1_555
O54 Sn2 2.109300 1_555
O55 S9 1.477635 1_655
O55 Sn2 2.100981 1_555
O56 Si4 1.624779 1_545
O56 Sn2 1.940282 1_555
O57 Si5 1.647123 1_545
O57 Ti4 1.797837 1_555
O58 S10 1.468433 1_555
O58 Ti4 2.151441 1_555
O59 S11 1.497405 1_655
O59 Ti4 2.025051 1_555
O60 Si3 1.618043 1_555
O60 Sn3 1.932345 1_555
O61 S6 1.481619 1_455
O61 Sn3 2.101587 1_555
O62 S7 1.472834 1_565
O62 Sn3 2.106595 1_555
O63 S4 1.483051 1_565
O63 Sn4 2.127183 1_555
O64 S5 1.496363 1_555
O64 Sn4 2.103648 1_555
O65 Si2 1.609679 1_455
O65 Sn4 1.952328 1_555
O66 S0 1.493551 1_555
O66 Ti5 1.994595 1_555
O67 S1 1.493843 1_555
O67 Ti5 2.010958 1_555
O68 Si0 1.627108 1_555
O68 Ti5 1.849958 1_555
O69 Si1 1.621526 1_555
O69 Sn5 1.937895 1_555
O70 S2 1.479986 1_455
O70 Sn5 2.106239 1_555
O71 S3 1.484679 1_565
O71 Sn5 2.113046 1_555
