# generated using pymatgen
data_V2CoO6
_symmetry_space_group_name_H-M   'P 1'
_cell_length_a   3.58879053
_cell_length_b   5.21605072
_cell_length_c   6.94444934
_cell_angle_alpha   102.65226520
_cell_angle_beta   89.95909412
_cell_angle_gamma   110.05168738
_symmetry_Int_Tables_number   1
_chemical_formula_structural   V2CoO6
_chemical_formula_sum   'V2 Co1 O6'
_cell_volume   118.75717326
_cell_formula_units_Z   1
loop_
 _symmetry_equiv_pos_site_id
 _symmetry_equiv_pos_as_xyz
  1  'x, y, z'
loop_
 _atom_site_type_symbol
 _atom_site_label
 _atom_site_symmetry_multiplicity
 _atom_site_fract_x
 _atom_site_fract_y
 _atom_site_fract_z
 _atom_site_occupancy
  V  V0  1  0.75602600  0.53710500  0.31764500  1
  V  V1  1  0.21860000  0.46299100  0.68243100  1
  Co  Co0  1  0.98748500  0.00001100  0.99999500  1
  O  O0  1  0.71670100  0.45848200  0.59516400  1
  O  O1  1  0.07255600  0.16972500  0.77002600  1
  O  O2  1  0.90230800  0.83021300  0.22996400  1
  O  O3  1  0.25842700  0.54152700  0.40479200  1
  O  O4  1  0.36023500  0.74762000  0.87717100  1
  O  O5  1  0.61466100  0.25232500  0.12281400  1
loop_
_geom_bond_atom_site_label_1
_geom_bond_atom_site_label_2
_geom_bond_distance
_geom_bond_site_symmetry_2
Co0 O1 1.964833 1_655
Co0 O2 1.965086 1_546
Co0 O5 2.227979 1_556
Co0 O4 2.228061 1_645
Co0 O5 2.237262 1_656
Co0 O4 2.237549 1_545
O0 V1 1.891676 1_655
O0 V1 1.893224 1_555
O0 V0 2.051442 1_555
O1 V1 1.685844 1_555
O2 V0 1.685453 1_555
O3 V0 1.891131 1_555
O3 V0 1.893294 1_455
O3 V1 2.052089 1_555
O4 V1 1.701577 1_555
O5 V0 1.702429 1_555
