# generated using pymatgen
data_NaNb3AlSiP5O24
_symmetry_space_group_name_H-M   'P 1'
_cell_length_a   8.72939002
_cell_length_b   8.72644268
_cell_length_c   22.47990801
_cell_angle_alpha   89.82933078
_cell_angle_beta   90.07356306
_cell_angle_gamma   120.06014541
_symmetry_Int_Tables_number   1
_chemical_formula_structural   NaNb3AlSiP5O24
_chemical_formula_sum   'Na3 Nb9 Al3 Si3 P15 O72'
_cell_volume   1482.11134048
_cell_formula_units_Z   3
loop_
 _symmetry_equiv_pos_site_id
 _symmetry_equiv_pos_as_xyz
  1  'x, y, z'
loop_
 _atom_site_type_symbol
 _atom_site_label
 _atom_site_symmetry_multiplicity
 _atom_site_fract_x
 _atom_site_fract_y
 _atom_site_fract_z
 _atom_site_occupancy
  Na  Na0  1  0.00116072  0.00021617  0.99208487  1
  Na  Na1  1  0.66480879  0.33210708  0.84010498  1
  Na  Na2  1  0.66713445  0.33362424  0.33880938  1
  Nb  Nb0  1  0.99430376  0.99794872  0.36099962  1
  Nb  Nb1  1  0.00370802  0.00553523  0.64268065  1
  Nb  Nb2  1  0.99745153  0.00197130  0.14236787  1
  Nb  Nb3  1  0.66490043  0.33374184  0.69101788  1
  Nb  Nb4  1  0.66835612  0.33546720  0.18819835  1
  Nb  Nb5  1  0.33360017  0.66650406  0.01979544  1
  Nb  Nb6  1  0.33301962  0.66566846  0.52531376  1
  Nb  Nb7  1  0.33313840  0.66507844  0.30997532  1
  Nb  Nb8  1  0.33317826  0.66486625  0.81085410  1
  Al  Al0  1  0.00290061  0.00071126  0.85509850  1
  Al  Al1  1  0.66636073  0.33365498  0.97742394  1
  Al  Al2  1  0.66698455  0.33447494  0.47993490  1
  Si  Si0  1  0.71742088  0.71605100  0.25097134  1
  Si  Si1  1  0.99790676  0.28206435  0.25055726  1
  Si  Si2  1  0.27642463  0.27517477  0.75492847  1
  P  P0  1  0.28207270  0.00118743  0.25090289  1
  P  P1  1  0.99894735  0.72308558  0.75363125  1
  P  P2  1  0.72427094  0.00136310  0.75344657  1
  P  P3  1  0.94089320  0.33000329  0.58002369  1
  P  P4  1  0.38829912  0.05703846  0.58001295  1
  P  P5  1  0.67098507  0.61287918  0.57990908  1
  P  P6  1  0.94663222  0.61430080  0.07812528  1
  P  P7  1  0.66692222  0.05451303  0.07844095  1
  P  P8  1  0.38677155  0.33143355  0.07816200  1
  P  P9  1  0.63253538  0.66706023  0.91626243  1
  P  P10  1  0.03348123  0.36805176  0.91651786  1
  P  P11  1  0.33355618  0.96559500  0.91634343  1
  P  P12  1  0.61579651  0.96398462  0.41884379  1
  P  P13  1  0.34641043  0.38219247  0.41864481  1
  P  P14  1  0.03711846  0.65442435  0.41869438  1
  O  O0  1  0.20185749  0.03495935  0.30623868  1
  O  O1  1  0.84006384  0.80221022  0.30934325  1
  O  O2  1  0.96792141  0.16091123  0.30886319  1
  O  O3  1  0.19083158  0.15408536  0.81108892  1
  O  O4  1  0.96122849  0.79969292  0.80783071  1
  O  O5  1  0.83686283  0.03163062  0.80770433  1
  O  O6  1  0.80061666  0.97117955  0.69510882  1
  O  O7  1  0.16550454  0.19273976  0.69223297  1
  O  O8  1  0.02503784  0.82894141  0.69533170  1
  O  O9  1  0.80769334  0.83335332  0.19116528  1
  O  O10  1  0.03157870  0.19685486  0.19077599  1
  O  O11  1  0.17186057  0.97174113  0.19401282  1
  O  O12  1  0.86543472  0.36328954  0.63748891  1
  O  O13  1  0.49923986  0.13532420  0.63756769  1
  O  O14  1  0.63679940  0.49999918  0.63750883  1
  O  O15  1  0.86482830  0.50605442  0.13689813  1
  O  O16  1  0.64143132  0.13373140  0.13682339  1
  O  O17  1  0.49282950  0.35794470  0.13672473  1
  O  O18  1  0.47495621  0.30414129  0.02500179  1
  O  O19  1  0.82947903  0.52679216  0.02517656  1
  O  O20  1  0.69688759  0.17080368  0.02506662  1
  O  O21  1  0.47256822  0.17061756  0.52585910  1
  O  O22  1  0.69756212  0.52705472  0.52583318  1
  O  O23  1  0.82927031  0.30351481  0.52569106  1
  O  O24  1  0.53668562  0.69512047  0.97124016  1
  O  O25  1  0.15883143  0.46485195  0.97128144  1
  O  O26  1  0.30798695  0.84104736  0.97153422  1
  O  O27  1  0.52927157  0.84189929  0.47320729  1
  O  O28  1  0.31134817  0.46919232  0.47277783  1
  O  O29  1  0.15844245  0.68691088  0.47318279  1
  O  O30  1  0.12701933  0.62950271  0.36313563  1
  O  O31  1  0.50258545  0.87528058  0.36309876  1
  O  O32  1  0.37148314  0.49937195  0.36293864  1
  O  O33  1  0.12932305  0.49272378  0.86224610  1
  O  O34  1  0.36293972  0.87246353  0.86226216  1
  O  O35  1  0.50812885  0.63829864  0.86198917  1
  O  O36  1  0.02761800  0.82618318  0.41055196  1
  O  O37  1  0.79936313  0.97515298  0.41130869  1
  O  O38  1  0.17809088  0.19939436  0.40947876  1
  O  O39  1  0.02065527  0.18790858  0.91013055  1
  O  O40  1  0.16247073  0.97262411  0.91112805  1
  O  O41  1  0.81189491  0.83539284  0.90880057  1
  O  O42  1  0.96415460  0.16649793  0.58988008  1
  O  O43  1  0.20074469  0.02979844  0.59042038  1
  O  O44  1  0.83049442  0.79804485  0.59112154  1
  O  O45  1  0.97228937  0.80263565  0.08700366  1
  O  O46  1  0.83323576  0.03091801  0.08634192  1
  O  O47  1  0.19890490  0.16564343  0.08641251  1
  O  O48  1  0.70201518  0.16732522  0.74324958  1
  O  O49  1  0.47770774  0.30481390  0.74269481  1
  O  O50  1  0.83721387  0.53178141  0.74316113  1
  O  O51  1  0.68843405  0.51800670  0.24255058  1
  O  O52  1  0.82286769  0.30073611  0.24245155  1
  O  O53  1  0.46840517  0.16391416  0.24227531  1
  O  O54  1  0.64370052  0.49881327  0.92479121  1
  O  O55  1  0.85469753  0.35820830  0.92495250  1
  O  O56  1  0.50105119  0.14595467  0.92529829  1
  O  O57  1  0.63989245  0.14787460  0.42629033  1
  O  O58  1  0.50916237  0.36286776  0.42582735  1
  O  O59  1  0.85344802  0.49340893  0.42611355  1
  O  O60  1  0.36362372  0.49541706  0.07182285  1
  O  O61  1  0.13215992  0.63407101  0.07226049  1
  O  O62  1  0.50439021  0.86675130  0.07219339  1
  O  O63  1  0.36534963  0.86884900  0.57318788  1
  O  O64  1  0.50423186  0.63407620  0.57290293  1
  O  O65  1  0.13113690  0.49333548  0.57290490  1
  O  O66  1  0.30162785  0.83755332  0.26037926  1
  O  O67  1  0.52697583  0.70120231  0.26109159  1
  O  O68  1  0.16785518  0.47700736  0.26092244  1
  O  O69  1  0.30494946  0.47554672  0.76156253  1
  O  O70  1  0.16364022  0.70177356  0.76097541  1
  O  O71  1  0.53504020  0.84097926  0.76091867  1
loop_
_geom_bond_atom_site_label_1
_geom_bond_atom_site_label_2
_geom_bond_distance
_geom_bond_site_symmetry_2
Na0 O40 2.387830 1_545
Na0 O39 2.410268 1_555
Na0 O41 2.435384 1_445
Na0 O47 2.659417 1_556
Na0 O46 2.667413 1_456
Na0 O45 2.670840 1_446
Na1 O56 2.451976 1_555
Na1 O55 2.460453 1_555
Na1 O54 2.461792 1_555
Na1 O49 2.669014 1_555
Na1 O48 2.720699 1_555
Na1 O50 2.721963 1_555
Na2 O57 2.479394 1_555
Na2 O58 2.481080 1_555
Na2 O59 2.485432 1_555
Na2 O51 2.643191 1_555
Na2 O52 2.650411 1_555
Na2 O53 2.710650 1_555
Nb0 O2 1.940741 1_565
Nb0 O1 1.944920 1_555
Nb0 O37 1.969493 1_555
Nb0 O36 1.999509 1_655
Nb0 O38 2.008319 1_665
Nb0 O0 2.078349 1_665
Nb1 O7 1.897291 1_555
Nb1 O42 1.993977 1_455
Nb1 O43 2.005567 1_555
Nb1 O8 2.021478 1_545
Nb1 O6 2.023058 1_445
Nb1 O44 2.042883 1_445
Nb2 O9 1.914569 1_545
Nb2 O10 1.915141 1_655
Nb2 O46 2.015244 1_555
Nb2 O11 2.032587 1_645
Nb2 O47 2.047794 1_655
Nb2 O45 2.062155 1_545
Nb3 O49 1.916596 1_555
Nb3 O14 1.989322 1_555
Nb3 O50 2.006613 1_555
Nb3 O13 2.008101 1_555
Nb3 O48 2.013160 1_555
Nb3 O12 2.032301 1_555
Nb4 O51 1.947393 1_555
Nb4 O52 1.949781 1_555
Nb4 O15 1.981042 1_555
Nb4 O17 2.005082 1_555
Nb4 O16 2.021157 1_555
Nb4 O53 2.035283 1_555
Nb5 O26 1.969184 1_554
Nb5 O25 1.982703 1_554
Nb5 O24 1.989088 1_554
Nb5 O60 2.011564 1_555
Nb5 O62 2.015327 1_555
Nb5 O61 2.016930 1_555
Nb6 O65 1.962669 1_555
Nb6 O64 1.964985 1_555
Nb6 O63 1.972521 1_555
Nb6 O29 2.001817 1_555
Nb6 O27 2.006746 1_555
Nb6 O28 2.014136 1_555
Nb7 O68 1.904113 1_555
Nb7 O67 1.907470 1_555
Nb7 O66 1.996990 1_555
Nb7 O32 2.023417 1_555
Nb7 O30 2.050771 1_555
Nb7 O31 2.066184 1_555
Nb8 O69 1.902705 1_555
Nb8 O71 2.002212 1_555
Nb8 O70 2.005584 1_555
Nb8 O35 2.013981 1_555
Nb8 O33 2.018634 1_555
Nb8 O34 2.055495 1_555
Al0 O3 1.805001 1_555
Al0 O5 1.922188 1_455
Al0 O4 1.925970 1_445
Al0 O41 1.975779 1_445
Al0 O40 1.980533 1_545
Al0 O39 1.995224 1_555
Al1 O18 1.890456 1_556
Al1 O20 1.899265 1_556
Al1 O19 1.903442 1_556
Al1 O56 1.943581 1_555
Al1 O55 1.946992 1_555
Al1 O54 1.947069 1_555
Al2 O23 1.875087 1_555
Al2 O22 1.876239 1_555
Al2 O21 1.885531 1_555
Al2 O59 1.941729 1_555
Al2 O58 1.942874 1_555
Al2 O57 1.945995 1_555
O0 P0 1.528310 1_555
O1 Si0 1.621480 1_555
O2 Si1 1.618523 1_555
O3 Si2 1.572329 1_555
O4 P1 1.505395 1_555
O5 P2 1.504073 1_555
O6 P2 1.553556 1_565
O7 Si2 1.657146 1_555
O8 P1 1.550984 1_455
O9 Si0 1.631784 1_555
O10 Si1 1.634392 1_455
O11 P0 1.542177 1_565
O12 P3 1.543746 1_555
O13 P4 1.554934 1_555
O14 P5 1.560406 1_555
O15 P6 1.570678 1_555
O16 P7 1.552463 1_555
O17 P8 1.558174 1_555
O18 P8 1.505043 1_555
O19 P6 1.505223 1_555
O20 P7 1.505161 1_555
O21 P4 1.506711 1_555
O22 P5 1.507546 1_555
O23 P3 1.505878 1_555
O24 P9 1.580250 1_555
O25 P10 1.582147 1_555
O26 P11 1.587458 1_555
O27 P12 1.545144 1_555
O28 P13 1.546019 1_555
O29 P14 1.549304 1_555
O30 P14 1.548607 1_555
O31 P12 1.543516 1_555
O32 P13 1.559030 1_555
O33 P10 1.566808 1_555
O34 P11 1.555583 1_555
O35 P9 1.567250 1_555
O36 P14 1.552344 1_555
O37 P12 1.565279 1_555
O38 P13 1.548888 1_555
O39 P10 1.526218 1_555
O40 P11 1.529460 1_555
O41 P9 1.527236 1_555
O42 P3 1.553833 1_555
O43 P4 1.550014 1_555
O44 P5 1.536492 1_555
O45 P6 1.556966 1_555
O46 P7 1.574898 1_555
O47 P8 1.561801 1_555
O48 P2 1.570837 1_555
O49 Si2 1.665949 1_555
O50 P1 1.573489 1_555
O51 Si0 1.627986 1_555
O52 Si1 1.625735 1_555
O53 P0 1.544350 1_555
O54 P9 1.530848 1_555
O55 P10 1.531466 1_655
O56 P11 1.533365 1_545
O57 P12 1.520100 1_545
O58 P13 1.520604 1_555
O59 P14 1.521558 1_655
O60 P8 1.548312 1_555
O61 P6 1.546145 1_455
O62 P7 1.545743 1_565
O63 P4 1.559617 1_565
O64 P5 1.564268 1_555
O65 P3 1.563033 1_455
O66 P0 1.534874 1_565
O67 Si0 1.617819 1_555
O68 Si1 1.619346 1_455
O69 Si2 1.645263 1_555
O70 P1 1.547838 1_455
O71 P2 1.548837 1_565
