# generated using pymatgen
data_K2Na2Nd2MgNb2O10
_symmetry_space_group_name_H-M   'P 1'
_cell_length_a   5.67693801
_cell_length_b   5.67693801
_cell_length_c   9.41965381
_cell_angle_alpha   90.00000000
_cell_angle_beta   90.00000000
_cell_angle_gamma   90.00000000
_symmetry_Int_Tables_number   1
_chemical_formula_structural   K2Na2Nd2MgNb2O10
_chemical_formula_sum   'K2 Na2 Nd2 Mg1 Nb2 O10'
_cell_volume   303.57307221
_cell_formula_units_Z   1
loop_
 _symmetry_equiv_pos_site_id
 _symmetry_equiv_pos_as_xyz
  1  'x, y, z'
loop_
 _atom_site_type_symbol
 _atom_site_label
 _atom_site_symmetry_multiplicity
 _atom_site_fract_x
 _atom_site_fract_y
 _atom_site_fract_z
 _atom_site_occupancy
  K  K0  1  0.25000000  0.75000000  0.94747016  1
  K  K1  1  0.75000000  0.25000000  0.94747016  1
  Na  Na0  1  0.25000000  0.25000000  0.76924320  1
  Na  Na1  1  0.75000000  0.75000000  0.15574980  1
  Nd  Nd0  1  0.25000000  0.75000000  0.52848031  1
  Nd  Nd1  1  0.75000000  0.25000000  0.52848031  1
  Mg  Mg0  1  0.75000000  0.75000000  0.40465498  1
  Nb  Nb0  1  0.25000000  0.25000000  0.28380567  1
  Nb  Nb1  1  0.75000000  0.75000000  0.72296913  1
  O  O0  1  0.99393214  0.99393214  0.68376584  1
  O  O1  1  0.50606786  0.50606786  0.68376584  1
  O  O2  1  0.75000000  0.75000000  0.93392875  1
  O  O3  1  0.48978008  0.01021992  0.35078528  1
  O  O4  1  0.48978008  0.48978008  0.35078528  1
  O  O5  1  0.25000000  0.25000000  0.08485508  1
  O  O6  1  0.50606786  0.99393214  0.68376584  1
  O  O7  1  0.99393214  0.50606786  0.68376584  1
  O  O8  1  0.01021992  0.01021992  0.35078528  1
  O  O9  1  0.01021992  0.48978008  0.35078528  1
loop_
_geom_bond_atom_site_label_1
_geom_bond_atom_site_label_2
_geom_bond_distance
_geom_bond_site_symmetry_2
K0 O2 2.841334 1_555
K0 O2 2.841334 1_455
K0 O5 3.119559 1_556
K0 O5 3.119559 1_566
K0 O1 3.193916 1_555
K0 O0 3.193916 1_455
K0 O6 3.193916 1_555
K0 O7 3.193916 1_455
K1 O2 2.841334 1_545
K1 O2 2.841334 1_555
K1 O5 3.119559 1_556
K1 O5 3.119559 1_656
K1 O1 3.193916 1_555
K1 O6 3.193916 1_545
K1 O0 3.193916 1_545
K1 O7 3.193916 1_555
Na0 O0 2.207866 1_445
Na0 O6 2.207866 1_545
Na0 O1 2.207866 1_555
Na0 O7 2.207866 1_455
Na1 O2 2.089477 1_554
Na1 O8 2.782037 1_665
Na1 O4 2.782037 1_555
Na1 O9 2.782037 1_655
Na1 O3 2.782037 1_565
Nd0 O0 2.484034 1_455
Nd0 O6 2.484034 1_555
Nd0 O7 2.484034 1_455
Nd0 O1 2.484034 1_555
Nd0 O8 2.614742 1_565
Nd0 O3 2.614742 1_565
Nd0 O4 2.614742 1_555
Nd0 O9 2.614742 1_555
Nd1 O1 2.484034 1_555
Nd1 O7 2.484034 1_555
Nd1 O6 2.484034 1_545
Nd1 O0 2.484034 1_545
Nd1 O9 2.614742 1_655
Nd1 O8 2.614742 1_655
Nd1 O4 2.614742 1_555
Nd1 O3 2.614742 1_555
Mg0 O8 2.149893 1_665
Mg0 O9 2.149893 1_655
Mg0 O3 2.149893 1_565
Mg0 O4 2.149893 1_555
Nb0 O5 1.874046 1_555
Nb0 O8 2.025805 1_555
Nb0 O3 2.025805 1_555
Nb0 O9 2.025805 1_555
Nb0 O4 2.025805 1_555
Nb1 O2 1.987167 1_555
Nb1 O6 1.992898 1_555
Nb1 O0 1.992898 1_555
Nb1 O7 1.992898 1_555
Nb1 O1 1.992898 1_555
