# generated using pymatgen
data_BaCO3
_symmetry_space_group_name_H-M   'P 1'
_cell_length_a   4.18679167
_cell_length_b   5.46618774
_cell_length_c   7.29521311
_cell_angle_alpha   90.00000000
_cell_angle_beta   90.00000000
_cell_angle_gamma   90.00000000
_symmetry_Int_Tables_number   1
_chemical_formula_structural   BaCO3
_chemical_formula_sum   'Ba2 C2 O6'
_cell_volume   166.95671011
_cell_formula_units_Z   2
loop_
 _symmetry_equiv_pos_site_id
 _symmetry_equiv_pos_as_xyz
  1  'x, y, z'
loop_
 _atom_site_type_symbol
 _atom_site_label
 _atom_site_symmetry_multiplicity
 _atom_site_fract_x
 _atom_site_fract_y
 _atom_site_fract_z
 _atom_site_occupancy
  Ba  Ba0  1  0.50000000  0.04984202  0.50000000  1
  Ba  Ba1  1  0.00000000  0.54984202  -0.00000000  1
  C  C0  1  0.50000000  0.98922524  -0.00000000  1
  C  C1  1  0.00000000  0.48922524  0.50000000  1
  O  O0  1  0.50000000  0.22551487  -0.00000000  1
  O  O1  1  0.00231060  0.36332443  0.34750287  1
  O  O2  1  0.00000000  0.72551487  0.50000000  1
  O  O3  1  0.49768940  0.86332443  0.84750287  1
  O  O4  1  0.99768940  0.36332443  0.65249713  1
  O  O5  1  0.50231060  0.86332443  0.15249713  1
loop_
_geom_bond_atom_site_label_1
_geom_bond_atom_site_label_2
_geom_bond_distance
_geom_bond_site_symmetry_2
Ba0 O5 2.732458 1_545
Ba0 O3 2.732458 1_545
Ba0 O2 2.743218 1_645
Ba0 O2 2.743218 1_545
Ba0 O4 2.918187 1_555
Ba0 O1 2.918187 1_555
Ba0 O1 2.932034 1_655
Ba0 O4 2.932034 1_455
Ba1 O4 2.732458 1_454
Ba1 O1 2.732458 1_555
Ba1 O0 2.743218 1_455
Ba1 O0 2.743218 1_555
Ba1 O5 2.918187 1_455
Ba1 O3 2.918187 1_554
Ba1 O3 2.932034 1_454
Ba1 O5 2.932034 1_555
C0 O0 1.291603 1_565
C0 O3 1.308191 1_554
C0 O5 1.308191 1_555
C1 O2 1.291603 1_555
C1 O4 1.308191 1_455
C1 O1 1.308191 1_555
