# generated using pymatgen
data_U3Te5
_symmetry_space_group_name_H-M   'P 1'
_cell_length_a   4.21513749
_cell_length_b   14.26427631
_cell_length_c   16.28677253
_cell_angle_alpha   90.00000000
_cell_angle_beta   90.00000000
_cell_angle_gamma   90.00000000
_symmetry_Int_Tables_number   1
_chemical_formula_structural   U3Te5
_chemical_formula_sum   'U12 Te20'
_cell_volume   979.25662587
_cell_formula_units_Z   4
loop_
 _symmetry_equiv_pos_site_id
 _symmetry_equiv_pos_as_xyz
  1  'x, y, z'
loop_
 _atom_site_type_symbol
 _atom_site_label
 _atom_site_symmetry_multiplicity
 _atom_site_fract_x
 _atom_site_fract_y
 _atom_site_fract_z
 _atom_site_occupancy
  U  U0  1  0.25000000  0.24859103  0.88122746  1
  U  U1  1  0.75000000  0.75140897  0.11877254  1
  U  U2  1  0.75000000  0.74859103  0.61877254  1
  U  U3  1  0.25000000  0.25140897  0.38122746  1
  U  U4  1  0.25000000  0.92973053  0.86236194  1
  U  U5  1  0.75000000  0.07026947  0.13763806  1
  U  U6  1  0.75000000  0.42973053  0.63763806  1
  U  U7  1  0.25000000  0.57026947  0.36236194  1
  U  U8  1  0.25000000  0.09144324  0.62670828  1
  U  U9  1  0.75000000  0.90855676  0.37329172  1
  U  U10  1  0.75000000  0.59144324  0.87329172  1
  U  U11  1  0.25000000  0.40855676  0.12670828  1
  Te  Te0  1  0.25000000  0.92037462  0.07513606  1
  Te  Te1  1  0.75000000  0.07962538  0.92486394  1
  Te  Te2  1  0.75000000  0.42037462  0.42486394  1
  Te  Te3  1  0.25000000  0.57962538  0.57513606  1
  Te  Te4  1  0.25000000  0.45302891  0.78508144  1
  Te  Te5  1  0.75000000  0.54697109  0.21491856  1
  Te  Te6  1  0.75000000  0.95302891  0.71491856  1
  Te  Te7  1  0.25000000  0.04697109  0.28508144  1
  Te  Te8  1  0.25000000  0.72336625  0.76490865  1
  Te  Te9  1  0.75000000  0.27663375  0.23509135  1
  Te  Te10  1  0.75000000  0.22336625  0.73509135  1
  Te  Te11  1  0.25000000  0.77663375  0.26490865  1
  Te  Te12  1  0.25000000  0.61004603  0.02625734  1
  Te  Te13  1  0.75000000  0.38995397  0.97374266  1
  Te  Te14  1  0.75000000  0.11004603  0.47374266  1
  Te  Te15  1  0.25000000  0.88995397  0.52625734  1
  Te  Te16  1  0.25000000  0.20081182  0.06833699  1
  Te  Te17  1  0.75000000  0.79918818  0.93166301  1
  Te  Te18  1  0.75000000  0.70081182  0.43166301  1
  Te  Te19  1  0.25000000  0.29918818  0.56833699  1
loop_
_geom_bond_atom_site_label_1
_geom_bond_atom_site_label_2
_geom_bond_distance
_geom_bond_site_symmetry_2
Te0 U5 3.170131 1_465
Te0 U5 3.170131 1_565
Te0 U1 3.279614 1_455
Te0 U1 3.279614 1_555
Te0 U4 3.467972 1_554
Te1 U4 3.170131 1_545
Te1 U4 3.170131 1_645
Te1 U0 3.279614 1_555
Te1 U0 3.279614 1_655
Te1 U5 3.467972 1_556
Te2 U7 3.170131 1_555
Te2 U7 3.170131 1_655
Te2 U3 3.279614 1_655
Te2 U3 3.279614 1_555
Te2 U6 3.467972 1_555
Te3 U6 3.170131 1_455
Te3 U6 3.170131 1_555
Te3 U2 3.279614 1_455
Te3 U2 3.279614 1_555
Te3 U7 3.467972 1_555
Te4 U6 3.212305 1_455
Te4 U6 3.212305 1_555
Te4 U10 3.225526 1_455
Te4 U10 3.225526 1_555
Te4 U0 3.309992 1_555
Te5 U7 3.212305 1_555
Te5 U7 3.212305 1_655
Te5 U11 3.225526 1_655
Te5 U11 3.225526 1_555
Te5 U1 3.309992 1_555
Te6 U4 3.212305 1_655
Te6 U4 3.212305 1_555
Te6 U8 3.225526 1_665
Te6 U8 3.225526 1_565
Te6 U2 3.309992 1_555
Te7 U5 3.212305 1_555
Te7 U5 3.212305 1_455
Te7 U9 3.225526 1_545
Te7 U9 3.225526 1_445
Te7 U3 3.309992 1_555
Te8 U2 3.199394 1_455
Te8 U2 3.199394 1_555
Te8 U10 3.331506 1_455
Te8 U10 3.331506 1_555
Te8 U4 3.344279 1_555
Te9 U3 3.199394 1_555
Te9 U3 3.199394 1_655
Te9 U11 3.331506 1_655
Te9 U11 3.331506 1_555
Te9 U5 3.344279 1_555
Te10 U0 3.199394 1_655
Te10 U0 3.199394 1_555
Te10 U8 3.331506 1_555
Te10 U8 3.331506 1_655
Te10 U6 3.344279 1_555
Te11 U1 3.199394 1_555
Te11 U1 3.199394 1_455
Te11 U9 3.331506 1_555
Te11 U9 3.331506 1_455
Te11 U7 3.344279 1_555
Te12 U10 3.273976 1_454
Te12 U10 3.273976 1_554
Te12 U1 3.283024 1_455
Te12 U1 3.283024 1_555
Te12 U11 3.307115 1_555
Te13 U11 3.273976 1_556
Te13 U11 3.273976 1_656
Te13 U0 3.283024 1_655
Te13 U0 3.283024 1_555
Te13 U10 3.307115 1_555
Te14 U8 3.273976 1_555
Te14 U8 3.273976 1_655
Te14 U3 3.283024 1_655
Te14 U3 3.283024 1_555
Te14 U9 3.307115 1_545
Te15 U9 3.273976 1_455
Te15 U9 3.273976 1_555
Te15 U2 3.283024 1_455
Te15 U2 3.283024 1_555
Te15 U8 3.307115 1_565
Te16 U5 3.030376 1_555
Te16 U5 3.030376 1_455
Te16 U11 3.112093 1_555
Te16 U0 3.122691 1_554
Te17 U4 3.030376 1_555
Te17 U4 3.030376 1_655
Te17 U10 3.112093 1_555
Te17 U1 3.122691 1_556
Te18 U7 3.030376 1_655
Te18 U7 3.030376 1_555
Te18 U9 3.112093 1_555
Te18 U2 3.122691 1_555
Te19 U6 3.030376 1_555
Te19 U6 3.030376 1_455
Te19 U8 3.112093 1_555
Te19 U3 3.122691 1_555
