# generated using pymatgen
data_Na9Nb2Zn10P3(S5O24)3
_symmetry_space_group_name_H-M   'P 1'
_cell_length_a   8.78020675
_cell_length_b   8.79108725
_cell_length_c   22.59173961
_cell_angle_alpha   89.60236168
_cell_angle_beta   90.34507968
_cell_angle_gamma   119.92742833
_symmetry_Int_Tables_number   1
_chemical_formula_structural   Na9Nb2Zn10P3(S5O24)3
_chemical_formula_sum   'Na9 Nb2 Zn10 P3 S15 O72'
_cell_volume   1511.23641790
_cell_formula_units_Z   1
loop_
 _symmetry_equiv_pos_site_id
 _symmetry_equiv_pos_as_xyz
  1  'x, y, z'
loop_
 _atom_site_type_symbol
 _atom_site_label
 _atom_site_symmetry_multiplicity
 _atom_site_fract_x
 _atom_site_fract_y
 _atom_site_fract_z
 _atom_site_occupancy
  Na  Na0  1  0.66718667  0.96952475  0.58662492  1
  Na  Na1  1  0.30139790  0.96930465  0.08662481  1
  Na  Na2  1  0.33271002  0.04031803  0.41526503  1
  Na  Na3  1  0.00574877  0.00806153  0.50088518  1
  Na  Na4  1  0.98855842  0.00203068  0.00027562  1
  Na  Na5  1  0.66915524  0.32699516  0.83146070  1
  Na  Na6  1  0.66515117  0.33775742  0.33050326  1
  Na  Na7  1  0.33347160  0.65871390  0.16081535  1
  Na  Na8  1  0.32322334  0.65625483  0.66050203  1
  Nb  Nb0  1  0.33386750  0.66281229  0.31274883  1
  Nb  Nb1  1  0.33906425  0.67158097  0.81272822  1
  Zn  Zn0  1  0.01098176  0.01149510  0.34732895  1
  Zn  Zn1  1  0.99424049  0.00314762  0.84801104  1
  Zn  Zn2  1  0.99745965  0.99809049  0.65290480  1
  Zn  Zn3  1  0.00052614  0.99720330  0.15256723  1
  Zn  Zn4  1  0.66757649  0.32722292  0.68303520  1
  Zn  Zn5  1  0.65822302  0.32544777  0.18289223  1
  Zn  Zn6  1  0.67204101  0.33672845  0.98508410  1
  Zn  Zn7  1  0.66472618  0.34673013  0.48443282  1
  Zn  Zn8  1  0.33219986  0.65802564  0.01704505  1
  Zn  Zn9  1  0.32395413  0.64743631  0.51735375  1
  P  P0  1  0.29854257  0.00675272  0.25044308  1
  P  P1  1  0.71307619  0.01016892  0.74918545  1
  P  P2  1  0.33190938  0.36937104  0.41874049  1
  S  S0  1  0.71203219  0.70774307  0.25116130  1
  S  S1  1  0.99457255  0.29122295  0.24992456  1
  S  S2  1  0.29489827  0.29112359  0.75111644  1
  S  S3  1  0.99625300  0.70635842  0.75139037  1
  S  S4  1  0.96009664  0.33459005  0.58312821  1
  S  S5  1  0.36679068  0.03575310  0.58197964  1
  S  S6  1  0.66909518  0.62927695  0.58449461  1
  S  S7  1  0.95935878  0.62699429  0.08342538  1
  S  S8  1  0.66972672  0.03832891  0.08270621  1
  S  S9  1  0.37246283  0.33492249  0.08277101  1
  S  S10  1  0.62843989  0.66661498  0.91826139  1
  S  S11  1  0.04067227  0.37311243  0.91743490  1
  S  S12  1  0.33123573  0.96107746  0.91796691  1
  S  S13  1  0.63056090  0.95881698  0.41799028  1
  S  S14  1  0.03979197  0.66473628  0.41733435  1
  O  O0  1  0.21697540  0.02572683  0.30739668  1
  O  O1  1  0.81163667  0.78899200  0.30500173  1
  O  O2  1  0.97001796  0.18988266  0.30411007  1
  O  O3  1  0.21736317  0.18817436  0.80477697  1
  O  O4  1  0.97769103  0.78712673  0.80497686  1
  O  O5  1  0.81867660  0.02939032  0.80448395  1
  O  O6  1  0.77235013  0.96296866  0.69212975  1
  O  O7  1  0.18732235  0.22277064  0.69776205  1
  O  O8  1  0.03792257  0.81395966  0.69785521  1
  O  O9  1  0.77817521  0.81437001  0.19759748  1
  O  O10  1  0.03243691  0.22130542  0.19725822  1
  O  O11  1  0.18814882  0.96394745  0.19383318  1
  O  O12  1  0.87976955  0.35715047  0.63696413  1
  O  O13  1  0.48206127  0.11986690  0.63376478  1
  O  O14  1  0.64541276  0.52242086  0.63757091  1
  O  O15  1  0.87801652  0.52160036  0.13683615  1
  O  O16  1  0.63752025  0.11754710  0.13542204  1
  O  O17  1  0.47756605  0.36016466  0.13676046  1
  O  O18  1  0.45251460  0.30424624  0.02960687  1
  O  O19  1  0.85736229  0.54791110  0.02895799  1
  O  O20  1  0.69378538  0.14280970  0.02824975  1
  O  O21  1  0.44360364  0.13601193  0.52602280  1
  O  O22  1  0.69137604  0.55159758  0.52996170  1
  O  O23  1  0.84906232  0.30495925  0.52958250  1
  O  O24  1  0.54546114  0.69161059  0.97022259  1
  O  O25  1  0.14522191  0.45541388  0.97051637  1
  O  O26  1  0.30876866  0.85807142  0.97206758  1
  O  O27  1  0.55036491  0.85886674  0.47238272  1
  O  O28  1  0.30731932  0.45543643  0.47233464  1
  O  O29  1  0.15286924  0.69887290  0.46943531  1
  O  O30  1  0.13485426  0.64756211  0.36320857  1
  O  O31  1  0.50908603  0.86324228  0.36496811  1
  O  O32  1  0.34913723  0.49034365  0.36245598  1
  O  O33  1  0.13694697  0.48700585  0.86362652  1
  O  O34  1  0.34975971  0.86097964  0.86491043  1
  O  O35  1  0.51292126  0.64924074  0.86382170  1
  O  O36  1  0.02212005  0.82161531  0.40926388  1
  O  O37  1  0.80139298  0.97306156  0.40867484  1
  O  O38  1  0.17036569  0.18555758  0.41133999  1
  O  O39  1  0.02599575  0.20003635  0.91074667  1
  O  O40  1  0.17360362  0.97530657  0.90856441  1
  O  O41  1  0.80167801  0.82261438  0.91023795  1
  O  O42  1  0.97566879  0.17251624  0.58779756  1
  O  O43  1  0.19149424  0.01739123  0.58904208  1
  O  O44  1  0.82705978  0.80919033  0.58823110  1
  O  O45  1  0.98235259  0.80756763  0.08713120  1
  O  O46  1  0.82582756  0.01799243  0.08947583  1
  O  O47  1  0.19575240  0.17249763  0.08779944  1
  O  O48  1  0.67572818  0.16143992  0.74425386  1
  O  O49  1  0.47491929  0.32444135  0.74486535  1
  O  O50  1  0.84633150  0.52869286  0.74529929  1
  O  O51  1  0.68371410  0.52963214  0.24545176  1
  O  O52  1  0.84760958  0.32443642  0.24381822  1
  O  O53  1  0.48531782  0.16176253  0.24494900  1
  O  O54  1  0.63401471  0.50249348  0.91877862  1
  O  O55  1  0.86842043  0.36385517  0.91814528  1
  O  O56  1  0.49431164  0.13155291  0.91814637  1
  O  O57  1  0.63693776  0.12997355  0.41801663  1
  O  O58  1  0.50022493  0.35492670  0.41815533  1
  O  O59  1  0.87075441  0.50170484  0.41937240  1
  O  O60  1  0.35269681  0.49189591  0.07719570  1
  O  O61  1  0.14172877  0.65187398  0.07913584  1
  O  O62  1  0.50485925  0.86211285  0.07746994  1
  O  O63  1  0.35565335  0.85991251  0.57762613  1
  O  O64  1  0.51211397  0.65474035  0.58043098  1
  O  O65  1  0.13613326  0.49250722  0.57859120  1
  O  O66  1  0.31596309  0.83312019  0.26163642  1
  O  O67  1  0.52614174  0.68825604  0.25879475  1
  O  O68  1  0.16195264  0.47477650  0.25798466  1
  O  O69  1  0.31079944  0.47476283  0.75968274  1
  O  O70  1  0.16152061  0.68558468  0.75993179  1
  O  O71  1  0.51975071  0.83483719  0.76191934  1
loop_
_geom_bond_atom_site_label_1
_geom_bond_atom_site_label_2
_geom_bond_distance
_geom_bond_site_symmetry_2
Na0 O42 2.387120 1_565
Na0 O64 2.403095 1_555
Na0 O63 2.412033 1_555
Na0 O44 2.435440 1_555
Na0 O6 2.561610 1_555
Na0 O27 2.768930 1_555
Na0 O13 2.776148 1_565
Na0 O23 2.860037 1_565
Na1 O47 2.388767 1_565
Na1 O62 2.410183 1_555
Na1 O61 2.425154 1_555
Na1 O45 2.427936 1_455
Na1 O11 2.614928 1_555
Na1 O26 2.785440 1_554
Na1 O16 2.786848 1_565
Na1 O18 2.856486 1_565
Na2 O38 2.341545 1_555
Na2 O57 2.378707 1_555
Na2 O58 2.399857 1_555
Na2 O36 2.432948 1_545
Na2 O0 2.613840 1_555
Na2 O21 2.664463 1_555
Na2 O29 2.871242 1_545
Na2 O31 2.926403 1_545
Na3 O38 2.521383 1_555
Na3 O42 2.538087 1_455
Na3 O43 2.542189 1_555
Na3 O44 2.581558 1_445
Na3 O37 2.658351 1_445
Na3 O36 2.697662 1_545
Na4 O46 2.522069 1_555
Na4 O39 2.572396 1_654
Na4 O45 2.576351 1_545
Na4 O41 2.596093 1_544
Na4 O47 2.596651 1_655
Na4 O40 2.723227 1_644
Na5 O48 2.475487 1_555
Na5 O55 2.530428 1_555
Na5 O56 2.549838 1_555
Na5 O50 2.566965 1_555
Na5 O49 2.580404 1_555
Na5 O54 2.625157 1_555
Na6 O53 2.487946 1_555
Na6 O51 2.499659 1_555
Na6 O58 2.509533 1_555
Na6 O52 2.577510 1_555
Na6 O59 2.601428 1_555
Na6 O57 2.609811 1_555
Na7 O60 2.457071 1_555
Na7 O61 2.471053 1_555
Na7 O62 2.511910 1_555
Na7 O68 2.694885 1_555
Na7 O67 2.711721 1_555
Na7 O66 2.801838 1_555
Na8 O65 2.415759 1_555
Na8 O64 2.466086 1_555
Na8 O63 2.498655 1_555
Na8 O69 2.712526 1_555
Na8 O70 2.745874 1_555
Na8 O71 2.826842 1_555
Nb0 O32 1.937846 1_555
Nb0 O66 1.951496 1_555
Nb0 O67 2.007499 1_555
Nb0 O68 2.014416 1_555
Nb0 O30 2.039354 1_555
Nb0 O31 2.040935 1_555
Nb1 O71 1.903004 1_555
Nb1 O35 1.993973 1_555
Nb1 O70 2.008723 1_555
Nb1 O34 2.010169 1_555
Nb1 O69 2.021935 1_555
Nb1 O33 2.056668 1_555
O0 P0 1.526289 1_555
O0 Zn0 1.973089 1_555
O1 S0 1.459614 1_555
O1 Zn0 2.096116 1_665
O2 S1 1.461195 1_555
O2 Zn0 2.019737 1_655
O3 S2 1.460177 1_555
O3 Zn1 2.063764 1_455
O4 S3 1.458107 1_555
O4 Zn1 2.078780 1_565
O5 P1 1.510500 1_555
O5 Zn1 1.931275 1_555
O6 P1 1.528235 1_565
O6 Zn2 2.048309 1_555
O7 S2 1.461560 1_555
O7 Zn2 2.104590 1_445
O8 S3 1.461351 1_455
O8 Zn2 2.079509 1_455
O9 S0 1.459386 1_555
O9 Zn3 2.073637 1_655
O10 S1 1.456989 1_455
O10 Zn3 2.110122 1_545
O11 P0 1.531189 1_565
O11 Zn3 2.031425 1_555
O12 S4 1.472847 1_555
O12 Zn4 2.038169 1_555
O13 S5 1.480144 1_555
O13 Zn4 2.063665 1_555
O14 S6 1.468315 1_555
O14 Zn4 2.084187 1_555
O15 S7 1.469391 1_555
O15 Zn5 2.111681 1_555
O16 S8 1.481678 1_555
O16 Zn5 2.053511 1_555
O17 S9 1.474594 1_555
O17 Zn5 2.038158 1_555
O18 S9 1.487656 1_555
O18 Zn6 2.068490 1_554
O19 S7 1.475422 1_555
O19 Zn6 2.017094 1_554
O20 S8 1.481778 1_555
O20 Zn6 2.047700 1_554
O21 S5 1.493814 1_555
O21 Zn7 2.119667 1_555
O22 S6 1.473191 1_555
O22 Zn7 1.989640 1_555
O23 S4 1.489436 1_555
O23 Zn7 2.088728 1_555
O24 S10 1.459710 1_555
O24 Zn8 2.044549 1_556
O25 S11 1.462978 1_555
O25 Zn8 2.014990 1_556
O26 S12 1.470392 1_555
O26 Zn8 2.121616 1_556
O27 S13 1.468318 1_555
O27 Zn9 2.179474 1_555
O28 P2 1.504637 1_555
O28 Zn9 1.918531 1_555
O29 S14 1.467915 1_555
O29 Zn9 2.069849 1_555
O30 S14 1.534695 1_555
O31 S13 1.543635 1_555
O32 P2 1.610523 1_555
O33 S11 1.531590 1_555
O34 S12 1.548331 1_555
O35 S10 1.548455 1_555
O36 S14 1.472762 1_555
O36 Zn0 2.209659 1_565
O37 S13 1.458017 1_555
O37 Zn0 2.196630 1_665
O38 P2 1.537822 1_555
O38 Zn0 2.064171 1_555
O39 S11 1.470306 1_555
O39 Zn1 2.151778 1_455
O40 S12 1.464644 1_555
O40 Zn1 2.182999 1_465
O41 S10 1.464821 1_555
O41 Zn1 2.161932 1_565
O42 S4 1.500671 1_555
O42 Zn2 2.193045 1_545
O43 S5 1.474842 1_555
O43 Zn2 2.179592 1_445
O44 S6 1.497981 1_555
O44 Zn2 2.158518 1_555
O45 S7 1.499859 1_555
O45 Zn3 2.180835 1_655
O46 S8 1.474952 1_555
O46 Zn3 2.160461 1_645
O47 S9 1.499461 1_555
O47 Zn3 2.194811 1_545
O48 P1 1.523497 1_555
O48 Zn4 2.029009 1_555
O49 S2 1.464332 1_555
O49 Zn4 2.190870 1_555
O50 S3 1.463043 1_555
O50 Zn4 2.193908 1_555
O51 S0 1.464278 1_555
O51 Zn5 2.213630 1_555
O52 S1 1.463749 1_555
O52 Zn5 2.155624 1_555
O53 P0 1.527089 1_555
O53 Zn5 2.039310 1_555
O54 S10 1.467804 1_555
O54 Zn6 2.219931 1_555
O55 S11 1.473675 1_655
O55 Zn6 2.221030 1_555
O56 S12 1.468010 1_545
O56 Zn6 2.275156 1_555
O57 S13 1.477520 1_545
O57 Zn7 2.348042 1_555
O58 P2 1.545261 1_555
O58 Zn7 2.099912 1_555
O59 S14 1.461664 1_655
O59 Zn7 2.198636 1_555
O60 S9 1.478711 1_555
O60 Zn8 2.060032 1_555
O61 S7 1.507759 1_455
O61 Zn8 2.168963 1_555
O62 S8 1.507377 1_565
O62 Zn8 2.162365 1_555
O63 S5 1.503326 1_565
O63 Zn9 2.220948 1_555
O64 S6 1.504785 1_555
O64 Zn9 2.152036 1_555
O65 S4 1.478400 1_455
O65 Zn9 2.061244 1_555
O66 P0 1.626172 1_565
O67 S0 1.564292 1_555
O68 S1 1.559296 1_455
O69 S2 1.562789 1_555
O70 S3 1.561022 1_455
O71 P1 1.651953 1_565
