# generated using pymatgen
data_MgNbVO4
_symmetry_space_group_name_H-M   'P 1'
_cell_length_a   3.00337718
_cell_length_b   6.28095243
_cell_length_c   6.31134710
_cell_angle_alpha   88.93785773
_cell_angle_beta   120.98645777
_cell_angle_gamma   116.90156445
_symmetry_Int_Tables_number   1
_chemical_formula_structural   MgNbVO4
_chemical_formula_sum   'Mg1 Nb1 V1 O4'
_cell_volume   87.36900934
_cell_formula_units_Z   1
loop_
 _symmetry_equiv_pos_site_id
 _symmetry_equiv_pos_as_xyz
  1  'x, y, z'
loop_
 _atom_site_type_symbol
 _atom_site_label
 _atom_site_symmetry_multiplicity
 _atom_site_fract_x
 _atom_site_fract_y
 _atom_site_fract_z
 _atom_site_occupancy
  Mg  Mg0  1  0.01296685  0.18822248  0.79781131  1
  Nb  Nb0  1  0.98714507  0.53088202  0.47396957  1
  V  V0  1  0.56000936  0.93024114  0.09438583  1
  O  O0  1  0.38782349  0.20676060  0.17859195  1
  O  O1  1  0.49259896  0.33014749  0.65273811  1
  O  O2  1  0.42479169  0.67567608  0.28942304  1
  O  O3  1  0.62995158  0.81263020  0.79478819  1
loop_
_geom_bond_atom_site_label_1
_geom_bond_atom_site_label_2
_geom_bond_distance
_geom_bond_site_symmetry_2
Mg0 O1 1.957685 1_455
Mg0 O1 1.968214 1_555
Mg0 O0 2.040205 1_556
Mg0 O3 2.100535 1_445
Nb0 O3 1.993694 1_655
Nb0 O0 2.056531 1_555
Nb0 O2 2.088401 1_555
Nb0 O2 2.089682 1_655
Nb0 O1 2.246542 1_555
Nb0 O1 2.254508 1_655
O0 V0 2.060697 1_445
O0 V0 2.167107 1_545
O2 V0 2.022584 1_555
O3 V0 2.160950 1_656
O3 V0 2.183203 1_556
