# generated using pymatgen
data_KTlCl4
_symmetry_space_group_name_H-M   'P 1'
_cell_length_a   6.96168487
_cell_length_b   6.96168436
_cell_length_c   9.07063889
_cell_angle_alpha   112.56605934
_cell_angle_beta   112.56606275
_cell_angle_gamma   90.00000775
_symmetry_Int_Tables_number   1
_chemical_formula_structural   KTlCl4
_chemical_formula_sum   'K2 Tl2 Cl8'
_cell_volume   369.23865902
_cell_formula_units_Z   2
loop_
 _symmetry_equiv_pos_site_id
 _symmetry_equiv_pos_as_xyz
  1  'x, y, z'
loop_
 _atom_site_type_symbol
 _atom_site_label
 _atom_site_symmetry_multiplicity
 _atom_site_fract_x
 _atom_site_fract_y
 _atom_site_fract_z
 _atom_site_occupancy
  K  K0  1  0.62500000  0.87500000  0.25000000  1
  K  K1  1  0.37500000  0.12500000  0.75000000  1
  Tl  Tl0  1  0.87500000  0.62500000  0.75000000  1
  Tl  Tl1  1  0.12500000  0.37500000  0.25000000  1
  Cl  Cl0  1  0.62133691  0.29118895  0.57615006  1
  Cl  Cl1  1  0.79118895  0.45481415  0.07615006  1
  Cl  Cl2  1  0.37866309  0.70881105  0.42384994  1
  Cl  Cl3  1  0.71503889  0.87866309  0.92384994  1
  Cl  Cl4  1  0.28496111  0.12133691  0.07615006  1
  Cl  Cl5  1  0.04518585  0.21503889  0.42384994  1
  Cl  Cl6  1  0.20881105  0.54518585  0.92384994  1
  Cl  Cl7  1  0.95481415  0.78496111  0.57615006  1
loop_
_geom_bond_atom_site_label_1
_geom_bond_atom_site_label_2
_geom_bond_distance
_geom_bond_site_symmetry_2
Cl0 Tl0 2.460852 1_555
Cl0 K1 3.200313 1_555
Cl0 K0 3.259871 1_545
Cl1 Tl1 2.460855 1_655
Cl1 K0 3.200308 1_555
Cl1 K1 3.259873 1_554
Cl2 Tl1 2.460852 1_555
Cl2 K0 3.200313 1_555
Cl2 K1 3.259871 1_565
Cl3 Tl0 2.460852 1_555
Cl3 K1 3.200313 1_565
Cl3 K0 3.259871 1_556
Cl4 Tl1 2.460852 1_555
Cl4 K0 3.200313 1_545
Cl4 K1 3.259871 1_554
Cl5 Tl1 2.460855 1_555
Cl5 K0 3.200307 1_445
Cl5 K1 3.259874 1_555
Cl6 Tl0 2.460855 1_455
Cl6 K1 3.200308 1_555
Cl6 K0 3.259873 1_556
Cl7 Tl0 2.460855 1_555
Cl7 K1 3.200307 1_665
Cl7 K0 3.259874 1_555
