# generated using pymatgen
data_H5BrO2
_symmetry_space_group_name_H-M   'P 1'
_cell_length_a   12.35970375
_cell_length_b   4.14194333
_cell_length_c   6.95779971
_cell_angle_alpha   79.18767099
_cell_angle_beta   90.00000000
_cell_angle_gamma   90.00000000
_symmetry_Int_Tables_number   1
_chemical_formula_structural   H5BrO2
_chemical_formula_sum   'H20 Br4 O8'
_cell_volume   349.86847032
_cell_formula_units_Z   4
loop_
 _symmetry_equiv_pos_site_id
 _symmetry_equiv_pos_as_xyz
  1  'x, y, z'
loop_
 _atom_site_type_symbol
 _atom_site_label
 _atom_site_symmetry_multiplicity
 _atom_site_fract_x
 _atom_site_fract_y
 _atom_site_fract_z
 _atom_site_occupancy
  H  H0  1  0.60246169  0.24429493  0.09864961  1
  H  H1  1  0.10246169  0.75570507  0.40135039  1
  H  H2  1  0.39753831  0.75570507  0.90135039  1
  H  H3  1  0.89753831  0.24429493  0.59864961  1
  H  H4  1  0.48447726  0.23431959  0.19342891  1
  H  H5  1  0.98447726  0.76568041  0.30657109  1
  H  H6  1  0.51552274  0.76568041  0.80657109  1
  H  H7  1  0.01552274  0.23431959  0.69342891  1
  H  H8  1  0.64417833  0.39175090  0.57812470  1
  H  H9  1  0.14417833  0.60824910  0.92187530  1
  H  H10  1  0.35582167  0.60824910  0.42187530  1
  H  H11  1  0.85582167  0.39175090  0.07812470  1
  H  H12  1  0.90511462  0.44059091  0.83520314  1
  H  H13  1  0.40511462  0.55940909  0.66479686  1
  H  H14  1  0.09488538  0.55940909  0.16479686  1
  H  H15  1  0.59488538  0.44059091  0.33520314  1
  H  H16  1  0.81153210  0.70235911  0.92340361  1
  H  H17  1  0.31153210  0.29764089  0.57659639  1
  H  H18  1  0.18846790  0.29764089  0.07659639  1
  H  H19  1  0.68846790  0.70235911  0.42340361  1
  Br  Br0  1  0.82893155  0.02860703  0.34347837  1
  Br  Br1  1  0.32893155  0.97139297  0.15652163  1
  Br  Br2  1  0.17106845  0.97139297  0.65652163  1
  Br  Br3  1  0.67106845  0.02860703  0.84347837  1
  O  O0  1  0.55684019  0.33380896  0.19164137  1
  O  O1  1  0.05684019  0.66619104  0.30835863  1
  O  O2  1  0.44315981  0.66619104  0.80835863  1
  O  O3  1  0.94315981  0.33380896  0.69164137  1
  O  O4  1  0.62431963  0.55986947  0.46134169  1
  O  O5  1  0.12431963  0.44013053  0.03865831  1
  O  O6  1  0.37568037  0.44013053  0.53865831  1
  O  O7  1  0.87568037  0.55986947  0.96134169  1
loop_
_geom_bond_atom_site_label_1
_geom_bond_atom_site_label_2
_geom_bond_distance
_geom_bond_site_symmetry_2
H0 O0 0.981859 1_555
H1 O1 0.981859 1_555
H2 O2 0.981859 1_555
H3 O3 0.981859 1_555
H4 O0 0.983852 1_555
H5 O1 0.983852 1_655
H6 O2 0.983852 1_555
H7 O3 0.983852 1_455
H8 O4 0.996538 1_555
H9 O5 0.996538 1_556
H10 O6 0.996538 1_555
H11 O7 0.996538 1_554
H12 O7 1.144278 1_555
H12 O3 1.257072 1_555
H13 O6 1.144278 1_555
H13 O2 1.257072 1_555
H14 O5 1.144278 1_555
H14 O1 1.257072 1_555
H15 O4 1.144278 1_555
H15 O0 1.257072 1_555
H16 O7 0.994064 1_555
H17 O6 0.994064 1_555
H18 O5 0.994064 1_555
H19 O4 0.994064 1_555
Br0 H11 2.177081 1_555
Br0 H19 2.206203 1_545
Br0 H5 2.247854 1_545
Br0 H3 2.294423 1_555
Br1 H10 2.177081 1_555
Br1 H18 2.206203 1_565
Br1 H4 2.247854 1_565
Br1 H2 2.294423 1_554
Br2 H9 2.177081 1_555
Br2 H17 2.206203 1_565
Br2 H7 2.247854 1_565
Br2 H1 2.294423 1_555
Br3 H8 2.177081 1_555
Br3 H16 2.206203 1_545
Br3 H6 2.247854 1_545
Br3 H0 2.294423 1_556
