# generated using pymatgen
data_Li4Cr(PO4)2
_symmetry_space_group_name_H-M   'P 1'
_cell_length_a   10.40236300
_cell_length_b   8.27035500
_cell_length_c   8.41367450
_cell_angle_alpha   74.91821908
_cell_angle_beta   90.00000000
_cell_angle_gamma   90.00000000
_symmetry_Int_Tables_number   1
_chemical_formula_structural   Li4Cr(PO4)2
_chemical_formula_sum   'Li16 Cr4 P8 O32'
_cell_volume   698.90648182
_cell_formula_units_Z   4
loop_
 _symmetry_equiv_pos_site_id
 _symmetry_equiv_pos_as_xyz
  1  'x, y, z'
loop_
 _atom_site_type_symbol
 _atom_site_label
 _atom_site_symmetry_multiplicity
 _atom_site_fract_x
 _atom_site_fract_y
 _atom_site_fract_z
 _atom_site_occupancy
  Li  Li0  1  0.07281400  0.72831600  0.52301900  1
  Li  Li1  1  0.66447600  0.09815100  0.40143300  1
  Li  Li2  1  0.64867800  0.85057600  0.15040400  1
  Li  Li3  1  0.16447600  0.40184900  0.59856700  1
  Li  Li4  1  0.66405300  0.34269100  0.65117400  1
  Li  Li5  1  0.35132200  0.14942400  0.84959600  1
  Li  Li6  1  0.57281400  0.77168400  0.47698100  1
  Li  Li7  1  0.16405300  0.15730900  0.34882600  1
  Li  Li8  1  0.85132200  0.35057600  0.15040400  1
  Li  Li9  1  0.33552400  0.90184900  0.59856700  1
  Li  Li10  1  0.83594700  0.84269100  0.65117400  1
  Li  Li11  1  0.42718600  0.22831600  0.52301900  1
  Li  Li12  1  0.92718600  0.27168400  0.47698100  1
  Li  Li13  1  0.14867800  0.64942400  0.84959600  1
  Li  Li14  1  0.33594700  0.65730900  0.34882600  1
  Li  Li15  1  0.83552400  0.59815100  0.40143300  1
  Cr  Cr0  1  0.84395700  0.08787200  0.90266900  1
  Cr  Cr1  1  0.65604300  0.58787200  0.90266900  1
  Cr  Cr2  1  0.15604300  0.91212800  0.09733100  1
  Cr  Cr3  1  0.34395700  0.41212800  0.09733100  1
  P  P0  1  0.91157400  0.46646700  0.76718000  1
  P  P1  1  0.40681700  0.52872600  0.70213800  1
  P  P2  1  0.08842600  0.53353300  0.23282000  1
  P  P3  1  0.59318300  0.47127400  0.29786200  1
  P  P4  1  0.41157400  0.03353300  0.23282000  1
  P  P5  1  0.90681700  0.97127400  0.29786200  1
  P  P6  1  0.09318300  0.02872600  0.70213800  1
  P  P7  1  0.58842600  0.96646700  0.76718000  1
  O  O0  1  0.15140200  0.59189700  0.37700700  1
  O  O1  1  0.84859800  0.40810300  0.62299300  1
  O  O2  1  0.94838700  0.47672100  0.27917800  1
  O  O3  1  0.55161300  0.97672100  0.27917800  1
  O  O4  1  0.83254700  0.93934700  0.14789100  1
  O  O5  1  0.66745300  0.43934700  0.14789100  1
  O  O6  1  0.65125700  0.62664200  0.34318300  1
  O  O7  1  0.40496700  0.17601800  0.06947000  1
  O  O8  1  0.05266700  0.00732300  0.25595100  1
  O  O9  1  0.84874300  0.12664200  0.34318300  1
  O  O10  1  0.94733300  0.99267700  0.74404900  1
  O  O11  1  0.90496700  0.32398200  0.93053000  1
  O  O12  1  0.33254700  0.56065300  0.85210900  1
  O  O13  1  0.59503300  0.82398200  0.93053000  1
  O  O14  1  0.44838700  0.02327900  0.72082200  1
  O  O15  1  0.15125700  0.87335800  0.65681700  1
  O  O16  1  0.83312600  0.61731100  0.79680000  1
  O  O17  1  0.10181400  0.18891600  0.55734900  1
  O  O18  1  0.60181400  0.31108400  0.44265100  1
  O  O19  1  0.05161300  0.52327900  0.72082200  1
  O  O20  1  0.33312600  0.88268900  0.20320000  1
  O  O21  1  0.55266700  0.49267700  0.74404900  1
  O  O22  1  0.39818600  0.68891600  0.55734900  1
  O  O23  1  0.16745300  0.06065300  0.85210900  1
  O  O24  1  0.65140200  0.90810300  0.62299300  1
  O  O25  1  0.34874300  0.37335800  0.65681700  1
  O  O26  1  0.16687400  0.38268900  0.20320000  1
  O  O27  1  0.09503300  0.67601800  0.06947000  1
  O  O28  1  0.89818600  0.81108400  0.44265100  1
  O  O29  1  0.66687400  0.11731100  0.79680000  1
  O  O30  1  0.44733300  0.50732300  0.25595100  1
  O  O31  1  0.34859800  0.09189700  0.37700700  1
loop_
_geom_bond_atom_site_label_1
_geom_bond_atom_site_label_2
_geom_bond_distance
_geom_bond_site_symmetry_2
Li0 O28 1.996186 1_455
Li0 O15 2.018604 1_555
Li0 O0 2.042476 1_555
Li0 O19 2.055541 1_555
Li1 O9 1.977319 1_555
Li1 O18 1.991030 1_555
Li1 O3 1.995632 1_545
Li1 O24 2.106938 1_545
Li2 O3 1.967236 1_555
Li2 O13 1.998456 1_554
Li2 O4 2.046872 1_555
Li2 O6 2.120911 1_555
Li3 O25 1.977319 1_555
Li3 O17 1.991030 1_555
Li3 O19 1.995632 1_555
Li3 O0 2.106938 1_555
Li4 O29 1.946278 1_555
Li4 O18 1.950445 1_555
Li4 O1 1.991831 1_555
Li4 O21 1.999064 1_555
Li5 O14 1.967236 1_555
Li5 O7 1.998456 1_556
Li5 O23 2.046872 1_555
Li5 O25 2.120911 1_555
Li6 O22 1.996186 1_555
Li6 O6 2.018604 1_555
Li6 O24 2.042476 1_555
Li6 O3 2.055541 1_555
Li7 O26 1.946278 1_555
Li7 O17 1.950445 1_555
Li7 O31 1.991831 1_555
Li7 O8 1.999064 1_555
Li8 O2 1.967236 1_555
Li8 O11 1.998456 1_554
Li8 O5 2.046872 1_555
Li8 O9 2.120911 1_555
Li9 O15 1.977319 1_555
Li9 O22 1.991030 1_555
Li9 O14 1.995632 1_565
Li9 O31 2.106938 1_565
Li10 O16 1.946278 1_555
Li10 O28 1.950445 1_555
Li10 O24 1.991831 1_555
Li10 O10 1.999064 1_555
Li11 O18 1.996186 1_555
Li11 O25 2.018604 1_555
Li11 O31 2.042476 1_555
Li11 O14 2.055541 1_555
Li12 O17 1.996186 1_655
Li12 O9 2.018604 1_555
Li12 O1 2.042476 1_555
Li12 O2 2.055541 1_555
Li13 O19 1.967236 1_555
Li13 O27 1.998456 1_556
Li13 O12 2.046872 1_555
Li13 O15 2.120911 1_555
Li14 O20 1.946278 1_555
Li14 O22 1.950445 1_555
Li14 O0 1.991831 1_555
Li14 O30 1.999064 1_555
Li15 O6 1.977319 1_555
Li15 O28 1.991030 1_555
Li15 O2 1.995632 1_555
Li15 O1 2.106938 1_555
Cr0 O10 2.025858 1_545
Cr0 O29 2.033006 1_555
Cr0 O4 2.112094 1_546
Cr0 O11 2.123446 1_555
Cr1 O21 2.025858 1_555
Cr1 O16 2.033006 1_555
Cr1 O5 2.112094 1_556
Cr1 O13 2.123446 1_555
Cr2 O8 2.025858 1_565
Cr2 O20 2.033006 1_555
Cr2 O23 2.112094 1_564
Cr2 O27 2.123446 1_555
Cr3 O30 2.025858 1_555
Cr3 O26 2.033006 1_555
Cr3 O12 2.112094 1_554
Cr3 O7 2.123446 1_555
O0 P2 1.561598 1_555
O1 P0 1.561598 1_555
O2 P2 1.549067 1_655
O3 P4 1.549067 1_565
O4 P5 1.559534 1_555
O5 P3 1.559534 1_555
O6 P3 1.554483 1_555
O7 P4 1.561872 1_555
O8 P5 1.568557 1_445
O9 P5 1.554483 1_545
O10 P6 1.568557 1_665
O11 P0 1.561872 1_555
O12 P1 1.559534 1_555
O13 P7 1.561872 1_555
O14 P7 1.549067 1_545
O15 P6 1.554483 1_565
O16 P0 1.564023 1_555
O17 P6 1.551576 1_555
O18 P3 1.551576 1_555
O19 P0 1.549067 1_455
O20 P4 1.564023 1_565
O21 P1 1.568557 1_555
O22 P1 1.551576 1_555
O23 P6 1.559534 1_555
O24 P7 1.561598 1_555
O25 P1 1.554483 1_555
O26 P2 1.564023 1_555
O27 P2 1.561872 1_555
O28 P5 1.551576 1_555
O29 P7 1.564023 1_545
O30 P3 1.568557 1_555
O31 P4 1.561598 1_555
