# generated using pymatgen
data_NbFeO4
_symmetry_space_group_name_H-M   'P 1'
_cell_length_a   4.58162700
_cell_length_b   5.02454702
_cell_length_c   5.59265200
_cell_angle_alpha   90.00000000
_cell_angle_beta   90.00000000
_cell_angle_gamma   91.73104836
_symmetry_Int_Tables_number   1
_chemical_formula_structural   NbFeO4
_chemical_formula_sum   'Nb2 Fe2 O8'
_cell_volume   128.68745118
_cell_formula_units_Z   2
loop_
 _symmetry_equiv_pos_site_id
 _symmetry_equiv_pos_as_xyz
  1  'x, y, z'
loop_
 _atom_site_type_symbol
 _atom_site_label
 _atom_site_symmetry_multiplicity
 _atom_site_fract_x
 _atom_site_fract_y
 _atom_site_fract_z
 _atom_site_occupancy
  Nb  Nb0  1  0.00000000  0.25000000  0.81987200  1
  Nb  Nb1  1  0.00000000  0.75000000  0.18012800  1
  Fe  Fe0  1  0.50000000  0.25000000  0.35569600  1
  Fe  Fe1  1  0.50000000  0.75000000  0.64430400  1
  O  O0  1  0.72366900  0.92502200  0.38703000  1
  O  O1  1  0.27633100  0.57497800  0.38703000  1
  O  O2  1  0.27633100  0.07497800  0.61297000  1
  O  O3  1  0.72366900  0.42502200  0.61297000  1
  O  O4  1  0.76880300  0.91583800  0.88307300  1
  O  O5  1  0.23119700  0.58416200  0.88307300  1
  O  O6  1  0.23119700  0.08416200  0.11692700  1
  O  O7  1  0.76880300  0.41583800  0.11692700  1
loop_
_geom_bond_atom_site_label_1
_geom_bond_atom_site_label_2
_geom_bond_distance
_geom_bond_site_symmetry_2
Nb0 O2 1.944851 1_555
Nb0 O3 1.944851 1_455
Nb0 O4 1.989622 1_445
Nb0 O5 1.989622 1_555
Nb0 O6 2.151669 1_556
Nb0 O7 2.151669 1_456
Nb1 O1 1.944851 1_555
Nb1 O0 1.944851 1_455
Nb1 O7 1.989622 1_455
Nb1 O6 1.989622 1_565
Nb1 O4 2.151669 1_454
Nb1 O5 2.151669 1_554
Fe0 O3 1.959421 1_555
Fe0 O2 1.959421 1_555
Fe0 O1 1.961685 1_555
Fe0 O0 1.961685 1_545
Fe0 O6 1.982982 1_555
Fe0 O7 1.982982 1_555
Fe1 O0 1.959421 1_555
Fe1 O1 1.959421 1_555
Fe1 O3 1.961685 1_555
Fe1 O2 1.961685 1_565
Fe1 O5 1.982982 1_555
Fe1 O4 1.982982 1_555
