# generated using pymatgen
data_Na2Zr2Si(PO6)2
_symmetry_space_group_name_H-M   'P 1'
_cell_length_a   9.06010629
_cell_length_b   9.06010598
_cell_length_c   23.34570566
_cell_angle_alpha   90.02755326
_cell_angle_beta   89.97244675
_cell_angle_gamma   119.76171143
_symmetry_Int_Tables_number   1
_chemical_formula_structural   Na2Zr2Si(PO6)2
_chemical_formula_sum   'Na12 Zr12 Si6 P12 O72'
_cell_volume   1663.57332744
_cell_formula_units_Z   6
loop_
 _symmetry_equiv_pos_site_id
 _symmetry_equiv_pos_as_xyz
  1  'x, y, z'
loop_
 _atom_site_type_symbol
 _atom_site_label
 _atom_site_symmetry_multiplicity
 _atom_site_fract_x
 _atom_site_fract_y
 _atom_site_fract_z
 _atom_site_occupancy
  Na  Na0  1  0.00021535  0.63338960  0.25026592  1
  Na  Na1  1  0.36661040  0.99978465  0.75026592  1
  Na  Na2  1  0.66462723  0.96818173  0.58461442  1
  Na  Na3  1  0.03181827  0.33537277  0.08461442  1
  Na  Na4  1  0.97122159  0.66874939  0.91788308  1
  Na  Na5  1  0.33125061  0.02877841  0.41788308  1
  Na  Na6  1  0.00286088  0.99774328  0.50016405  1
  Na  Na7  1  0.00225672  0.99713912  0.00016405  1
  Na  Na8  1  0.66555683  0.32910599  0.83357763  1
  Na  Na9  1  0.67089401  0.33444317  0.33357763  1
  Na  Na10  1  0.34104499  0.66972138  0.16674011  1
  Na  Na11  1  0.33027862  0.65895501  0.66674011  1
  Zr  Zr0  1  0.99257890  0.00149779  0.35254118  1
  Zr  Zr1  1  0.99850221  0.00742110  0.85254118  1
  Zr  Zr2  1  0.00411883  0.99930357  0.64792165  1
  Zr  Zr3  1  0.00069643  0.99588117  0.14792165  1
  Zr  Zr4  1  0.66946826  0.33268915  0.68557480  1
  Zr  Zr5  1  0.66731085  0.33053174  0.18557480  1
  Zr  Zr6  1  0.65912039  0.32878405  0.98122403  1
  Zr  Zr7  1  0.67121595  0.34087961  0.48122403  1
  Zr  Zr8  1  0.33427214  0.67492327  0.01912595  1
  Zr  Zr9  1  0.32507673  0.66572786  0.51912595  1
  Zr  Zr10  1  0.33007149  0.65908978  0.31443051  1
  Zr  Zr11  1  0.34091022  0.66992851  0.81443051  1
  Si  Si0  1  0.00014385  0.29145450  0.24879153  1
  Si  Si1  1  0.70854550  -0.00014385  0.74879153  1
  Si  Si2  1  0.37303847  0.04260395  0.58246131  1
  Si  Si3  1  0.95739605  0.62696153  0.08246131  1
  Si  Si4  1  0.33493245  0.96228700  0.91554191  1
  Si  Si5  1  0.03771300  0.66506755  0.41554191  1
  P  P0  1  0.29234953  0.00187355  0.25123919  1
  P  P1  1  0.70800081  0.71015607  0.24977398  1
  P  P2  1  0.28984393  0.29199919  0.74977398  1
  P  P3  1  -0.00187355  0.70765047  0.75123919  1
  P  P4  1  0.95864122  0.33408294  0.58340520  1
  P  P5  1  0.66672050  0.62474779  0.58378395  1
  P  P6  1  0.66591706  0.04135878  0.08340520  1
  P  P7  1  0.37525221  0.33327950  0.08378395  1
  P  P8  1  0.62442357  0.66662828  0.91702314  1
  P  P9  1  0.04377629  0.37652589  0.91743955  1
  P  P10  1  0.62347411  0.95622371  0.41743955  1
  P  P11  1  0.33337172  0.37557643  0.41702314  1
  O  O0  1  0.20862494  0.02593227  0.30554813  1
  O  O1  1  0.82428412  0.79072352  0.30284603  1
  O  O2  1  0.97211311  0.17282935  0.30483274  1
  O  O3  1  0.20927648  0.17571588  0.80284603  1
  O  O4  1  0.97406773  0.79137506  0.80554813  1
  O  O5  1  0.82717065  0.02788689  0.80483274  1
  O  O6  1  0.79377618  0.97218171  0.69105464  1
  O  O7  1  0.17937786  0.20528619  0.69653549  1
  O  O8  1  0.03260112  0.82471221  0.69838439  1
  O  O9  1  0.79471381  0.82062214  0.19653549  1
  O  O10  1  0.02781829  0.20622382  0.19105464  1
  O  O11  1  0.17528779  0.96739888  0.19838439  1
  O  O12  1  0.87503540  0.36270716  0.63691043  1
  O  O13  1  0.49457918  0.12900219  0.63949399  1
  O  O14  1  0.64139773  0.51412935  0.63704682  1
  O  O15  1  0.87099781  0.50542082  0.13949399  1
  O  O16  1  0.63729284  0.12496460  0.13691043  1
  O  O17  1  0.48587065  0.35860227  0.13704682  1
  O  O18  1  0.45849561  0.30460195  0.03027331  1
  O  O19  1  0.84392562  0.53648810  0.02514915  1
  O  O20  1  0.69727728  0.15641441  0.03056212  1
  O  O21  1  0.46351190  0.15607438  0.52514915  1
  O  O22  1  0.69539805  0.54150439  0.53027331  1
  O  O23  1  0.84358559  0.30272272  0.53056212  1
  O  O24  1  0.54022593  0.69272416  0.97020958  1
  O  O25  1  0.15142980  0.45649792  0.97216969  1
  O  O26  1  0.29988748  0.83561673  0.97074670  1
  O  O27  1  0.54350208  0.84857020  0.47216969  1
  O  O28  1  0.30727584  0.45977407  0.47020958  1
  O  O29  1  0.16438327  0.70011252  0.47074670  1
  O  O30  1  0.12941837  0.64035887  0.35840000  1
  O  O31  1  0.50915997  0.87230047  0.36456051  1
  O  O32  1  0.36210347  0.48666691  0.36338222  1
  O  O33  1  0.12769953  0.49084003  0.86456051  1
  O  O34  1  0.35964113  0.87058163  0.85840000  1
  O  O35  1  0.51333309  0.63789653  0.86338222  1
  O  O36  1  0.03163307  0.84259424  0.40973633  1
  O  O37  1  0.80232518  0.97656011  0.41076772  1
  O  O38  1  0.17668495  0.19437899  0.40999579  1
  O  O39  1  0.02343989  0.19767482  0.91076772  1
  O  O40  1  0.15740576  0.96836693  0.90973633  1
  O  O41  1  0.80562101  0.82331505  0.90999579  1
  O  O42  1  0.96854254  0.16875753  0.58989116  1
  O  O43  1  0.18428391  0.02007331  0.58961084  1
  O  O44  1  0.82372679  0.80625604  0.58959054  1
  O  O45  1  0.97992669  0.81571609  0.08961084  1
  O  O46  1  0.83124247  0.03145746  0.08989116  1
  O  O47  1  0.19374396  0.17627321  0.08959054  1
  O  O48  1  0.68041262  0.16640273  0.74404463  1
  O  O49  1  0.46706254  0.30508418  0.74296711  1
  O  O50  1  0.83953695  0.53131275  0.74336756  1
  O  O51  1  0.69491582  0.53293746  0.24296711  1
  O  O52  1  0.83359727  0.31958738  0.24404463  1
  O  O53  1  0.46868725  0.16046305  0.24336756  1
  O  O54  1  0.65026297  0.50973056  0.92258305  1
  O  O55  1  0.86696847  0.36438286  0.92358118  1
  O  O56  1  0.50314170  0.14836912  0.92271513  1
  O  O57  1  0.63561714  0.13303153  0.42358118  1
  O  O58  1  0.49026944  0.34973703  0.42258305  1
  O  O59  1  0.85163088  0.49685830  0.42271513  1
  O  O60  1  0.35190259  0.49058393  0.07669572  1
  O  O61  1  0.14286032  0.63308156  0.07709160  1
  O  O62  1  0.50950787  0.86291295  0.07670297  1
  O  O63  1  0.36691844  0.85713968  0.57709160  1
  O  O64  1  0.50941607  0.64809741  0.57669572  1
  O  O65  1  0.13708705  0.49049213  0.57670297  1
  O  O66  1  0.30661147  0.83829379  0.25688073  1
  O  O67  1  0.53155950  0.69233122  0.25679665  1
  O  O68  1  0.16601227  0.48481422  0.25535227  1
  O  O69  1  0.30766878  0.46844050  0.75679665  1
  O  O70  1  0.16170621  0.69338853  0.75688073  1
  O  O71  1  0.51518578  0.83398773  0.75535227  1
loop_
_geom_bond_atom_site_label_1
_geom_bond_atom_site_label_2
_geom_bond_distance
_geom_bond_site_symmetry_2
Na0 O51 2.451408 1_455
Na0 O66 2.461740 1_555
Na0 O68 2.467855 1_555
Na0 O52 2.474257 1_455
Na0 O30 2.770652 1_555
Na0 O15 2.838123 1_455
Na0 O1 2.886453 1_455
Na0 O11 2.894288 1_555
Na1 O49 2.451408 1_565
Na1 O70 2.461740 1_555
Na1 O71 2.467855 1_555
Na1 O48 2.474257 1_565
Na1 O34 2.770652 1_555
Na1 O13 2.838123 1_565
Na1 O3 2.886453 1_565
Na1 O8 2.894288 1_555
Na2 O63 2.371608 1_555
Na2 O42 2.435517 1_565
Na2 O44 2.518603 1_555
Na2 O64 2.524426 1_555
Na2 O6 2.739690 1_555
Na2 O27 2.844154 1_555
Na2 O13 2.891888 1_565
Na2 O23 2.920761 1_565
Na3 O61 2.371608 1_555
Na3 O46 2.435517 1_455
Na3 O47 2.518603 1_555
Na3 O60 2.524426 1_555
Na3 O10 2.739690 1_555
Na3 O25 2.844154 1_554
Na3 O15 2.891888 1_455
Na3 O20 2.920761 1_455
Na4 O40 2.388441 1_655
Na4 O55 2.434857 1_555
Na4 O41 2.516443 1_555
Na4 O54 2.526711 1_555
Na4 O19 2.768600 1_556
Na4 O4 2.843764 1_555
Na4 O26 2.864973 1_655
Na4 O33 2.902200 1_655
Na5 O36 2.388442 1_545
Na5 O57 2.434857 1_555
Na5 O38 2.516443 1_555
Na5 O58 2.526711 1_555
Na5 O21 2.768600 1_555
Na5 O0 2.843764 1_555
Na5 O29 2.864973 1_545
Na5 O31 2.902200 1_545
Na6 O43 2.603083 1_565
Na6 O36 2.619350 1_555
Na6 O44 2.684649 1_455
Na6 O38 2.701898 1_565
Na6 O37 2.711199 1_455
Na6 O42 2.712898 1_465
Na7 O45 2.603083 1_455
Na7 O40 2.619350 1_554
Na7 O47 2.684649 1_565
Na7 O41 2.701898 1_454
Na7 O39 2.711199 1_564
Na7 O46 2.712898 1_465
Na8 O48 2.598815 1_555
Na8 O56 2.604862 1_555
Na8 O54 2.690070 1_555
Na8 O55 2.696503 1_555
Na8 O49 2.714949 1_555
Na8 O50 2.722099 1_555
Na9 O52 2.598815 1_555
Na9 O59 2.604862 1_555
Na9 O58 2.690070 1_555
Na9 O57 2.696503 1_555
Na9 O51 2.714949 1_555
Na9 O53 2.722099 1_555
Na10 O68 2.638863 1_555
Na10 O67 2.663379 1_555
Na10 O61 2.669407 1_555
Na10 O62 2.675773 1_555
Na10 O60 2.686611 1_555
Na10 O66 2.706975 1_555
Na11 O71 2.638863 1_555
Na11 O69 2.663379 1_555
Na11 O63 2.669407 1_555
Na11 O65 2.675773 1_555
Na11 O64 2.686611 1_555
Na11 O70 2.706976 1_555
O0 P0 1.547062 1_555
O0 Zr0 2.156847 1_455
O1 P1 1.553964 1_555
O1 Zr0 2.103911 1_565
O2 Si0 1.631367 1_655
O2 Zr0 1.993012 1_555
O3 P2 1.553964 1_555
O3 Zr1 2.103911 1_455
O4 P3 1.547062 1_655
O4 Zr1 2.156847 1_565
O5 Si1 1.631367 1_555
O5 Zr1 1.993012 1_555
O6 Si1 1.633067 1_565
O6 Zr2 2.059040 1_655
O7 P2 1.543795 1_555
O7 Zr2 2.085646 1_545
O8 P3 1.554674 1_555
O8 Zr2 2.089009 1_555
O9 P1 1.543795 1_555
O9 Zr3 2.085646 1_655
O10 Si0 1.633067 1_555
O10 Zr3 2.059040 1_545
O11 P0 1.554674 1_565
O11 Zr3 2.089009 1_555
O12 P4 1.547620 1_555
O12 Zr4 2.080588 1_555
O13 Si2 1.656134 1_555
O13 Zr4 2.042136 1_555
O14 P5 1.541399 1_555
O14 Zr4 2.113673 1_555
O15 Si3 1.656134 1_555
O15 Zr5 2.042136 1_555
O16 P6 1.547620 1_555
O16 Zr5 2.080588 1_555
O17 P7 1.541399 1_555
O17 Zr5 2.113673 1_555
O18 P7 1.546043 1_555
O18 Zr6 2.065447 1_554
O19 Si3 1.637888 1_555
O19 Zr6 2.065907 1_554
O20 P6 1.547944 1_555
O20 Zr6 2.103141 1_554
O21 Si2 1.637888 1_555
O21 Zr7 2.065907 1_555
O22 P5 1.546043 1_555
O22 Zr7 2.065447 1_555
O23 P4 1.547944 1_555
O23 Zr7 2.103141 1_555
O24 P8 1.535398 1_555
O24 Zr8 2.123988 1_556
O25 P9 1.551629 1_555
O25 Zr8 2.146446 1_556
O26 Si4 1.648685 1_555
O26 Zr8 1.986089 1_556
O27 P10 1.551629 1_555
O27 Zr9 2.146446 1_555
O28 P11 1.535398 1_555
O28 Zr9 2.123988 1_555
O29 Si5 1.648685 1_555
O29 Zr9 1.986089 1_555
O30 Si5 1.644188 1_555
O30 Zr10 2.019774 1_555
O31 P10 1.547031 1_555
O31 Zr10 2.149837 1_555
O32 P11 1.545895 1_555
O32 Zr10 2.069479 1_555
O33 P9 1.547031 1_555
O33 Zr11 2.149837 1_555
O34 Si4 1.644188 1_555
O34 Zr11 2.019774 1_555
O35 P8 1.545895 1_555
O35 Zr11 2.069480 1_555
O36 Si5 1.642122 1_555
O36 Zr0 2.118690 1_465
O37 P10 1.545094 1_555
O37 Zr0 2.116945 1_565
O38 P11 1.556764 1_555
O38 Zr0 2.177448 1_455
O39 P9 1.545093 1_555
O39 Zr1 2.116945 1_455
O40 Si4 1.642122 1_555
O40 Zr1 2.118690 1_465
O41 P8 1.556764 1_555
O41 Zr1 2.177448 1_565
O42 P4 1.551840 1_555
O42 Zr2 2.188616 1_645
O43 Si2 1.627047 1_555
O43 Zr2 2.060626 1_545
O44 P5 1.556845 1_555
O44 Zr2 2.178675 1_655
O45 Si3 1.627046 1_555
O45 Zr3 2.060626 1_655
O46 P6 1.551840 1_555
O46 Zr3 2.188616 1_645
O47 P7 1.556845 1_555
O47 Zr3 2.178675 1_545
O48 Si1 1.654127 1_555
O48 Zr4 2.072025 1_555
O49 P2 1.558242 1_555
O49 Zr4 2.182498 1_555
O50 P3 1.540033 1_655
O50 Zr4 2.163282 1_555
O51 P1 1.558242 1_555
O51 Zr5 2.182497 1_555
O52 Si0 1.654127 1_655
O52 Zr5 2.072025 1_555
O53 P0 1.540033 1_555
O53 Zr5 2.163282 1_555
O54 P8 1.556579 1_555
O54 Zr6 2.168209 1_555
O55 P9 1.556781 1_655
O55 Zr6 2.203663 1_555
O56 Si4 1.625456 1_545
O56 Zr6 2.059396 1_555
O57 P10 1.556781 1_545
O57 Zr7 2.203663 1_555
O58 P11 1.556579 1_555
O58 Zr7 2.168209 1_555
O59 Si5 1.625456 1_655
O59 Zr7 2.059396 1_555
O60 P7 1.550130 1_555
O60 Zr8 2.210981 1_555
O61 Si3 1.658189 1_455
O61 Zr8 2.080393 1_555
O62 P6 1.540094 1_565
O62 Zr8 2.131576 1_555
O63 Si2 1.658189 1_565
O63 Zr9 2.080393 1_555
O64 P5 1.550130 1_555
O64 Zr9 2.210981 1_555
O65 P4 1.540094 1_455
O65 Zr9 2.131576 1_555
O66 P0 1.555905 1_565
O66 Zr10 2.198036 1_555
O67 P1 1.533585 1_555
O67 Zr10 2.164659 1_555
O68 Si0 1.654423 1_555
O68 Zr10 2.067505 1_555
O69 P2 1.533584 1_555
O69 Zr11 2.164659 1_555
O70 P3 1.555905 1_555
O70 Zr11 2.198036 1_555
O71 Si1 1.654423 1_565
O71 Zr11 2.067505 1_555
