# generated using pymatgen
data_Na2Mg(NiO2)5
_symmetry_space_group_name_H-M   'P 1'
_cell_length_a   6.88352368
_cell_length_b   4.95140301
_cell_length_c   6.19832044
_cell_angle_alpha   78.05687781
_cell_angle_beta   108.82463300
_cell_angle_gamma   80.92998884
_symmetry_Int_Tables_number   1
_chemical_formula_structural   Na2Mg(NiO2)5
_chemical_formula_sum   'Na2 Mg1 Ni5 O10'
_cell_volume   189.79792044
_cell_formula_units_Z   1
loop_
 _symmetry_equiv_pos_site_id
 _symmetry_equiv_pos_as_xyz
  1  'x, y, z'
loop_
 _atom_site_type_symbol
 _atom_site_label
 _atom_site_symmetry_multiplicity
 _atom_site_fract_x
 _atom_site_fract_y
 _atom_site_fract_z
 _atom_site_occupancy
  Na  Na0  1  0.90774129  0.05251847  0.40111083  1
  Na  Na1  1  0.49268114  0.74772190  0.99885858  1
  Mg  Mg0  1  0.20025472  0.40005825  0.70005900  1
  Ni  Ni0  1  0.01135140  0.00862409  0.98246849  1
  Ni  Ni1  1  0.20018300  0.40021605  0.20000158  1
  Ni  Ni2  1  0.38908055  0.79178367  0.41748690  1
  Ni  Ni3  1  0.59616432  0.19773880  0.60955049  1
  Ni  Ni4  1  0.80423795  0.60251263  0.79044647  1
  O  O0  1  0.27137432  0.10894837  0.06369357  1
  O  O1  1  0.12902709  0.69143058  0.33631195  1
  O  O2  1  0.27921591  0.12832398  0.50139905  1
  O  O3  1  0.47079971  0.46327083  0.30985828  1
  O  O4  1  0.12118724  0.67202693  0.89862366  1
  O  O5  1  0.92957232  0.33706826  0.09014293  1
  O  O6  1  0.50253326  0.48694263  0.73464127  1
  O  O7  1  0.65570977  0.87824197  0.49178189  1
  O  O8  1  0.89787666  0.31332817  0.66531871  1
  O  O9  1  0.74471337  0.92202242  0.90824635  1
loop_
_geom_bond_atom_site_label_1
_geom_bond_atom_site_label_2
_geom_bond_distance
_geom_bond_site_symmetry_2
Na0 O5 2.202846 1_555
Na0 O7 2.229511 1_545
Na0 O8 2.296418 1_555
Na0 O1 2.347656 1_645
Na0 O2 2.537558 1_655
Na1 O3 2.202924 1_556
Na1 O9 2.229415 1_555
Na1 O6 2.296346 1_555
Na1 O0 2.348338 1_566
Na1 O4 2.537505 1_555
Mg0 O2 2.123440 1_555
Mg0 O4 2.124050 1_555
Mg0 O6 2.143142 1_555
Mg0 O8 2.143353 1_455
Mg0 O0 2.262364 1_556
Mg0 O1 2.263281 1_555
Ni0 O0 1.872476 1_556
Ni0 O9 1.883907 1_445
Ni0 O5 1.951940 1_456
Ni0 O4 1.958094 1_545
Ni0 O8 2.039785 1_455
Ni0 O1 2.227062 1_546
Ni1 O3 1.866527 1_555
Ni1 O5 1.866675 1_455
Ni1 O1 1.892486 1_555
Ni1 O0 1.892759 1_555
Ni1 O4 1.915659 1_554
Ni1 O2 1.915896 1_555
Ni2 O1 1.872730 1_555
Ni2 O7 1.883534 1_555
Ni2 O3 1.951949 1_555
Ni2 O2 1.958159 1_565
Ni2 O6 2.040137 1_555
Ni2 O0 2.226760 1_565
Ni3 O3 1.876403 1_555
Ni3 O6 1.886300 1_555
Ni3 O9 1.905019 1_545
Ni3 O7 1.915735 1_545
Ni3 O2 2.171487 1_555
Ni3 O8 2.180292 1_555
Ni4 O5 1.876231 1_556
Ni4 O8 1.886398 1_555
Ni4 O7 1.904905 1_555
Ni4 O9 1.915881 1_555
Ni4 O4 2.171683 1_655
Ni4 O6 2.180178 1_555
