# generated using pymatgen
data_YbIn2Au
_symmetry_space_group_name_H-M   'P 1'
_cell_length_a   4.58889200
_cell_length_b   5.87744743
_cell_length_c   7.72224900
_cell_angle_alpha   90.00000000
_cell_angle_beta   90.00000000
_cell_angle_gamma   112.97823166
_symmetry_Int_Tables_number   1
_chemical_formula_structural   YbIn2Au
_chemical_formula_sum   'Yb2 In4 Au2'
_cell_volume   191.75048691
_cell_formula_units_Z   2
loop_
 _symmetry_equiv_pos_site_id
 _symmetry_equiv_pos_as_xyz
  1  'x, y, z'
loop_
 _atom_site_type_symbol
 _atom_site_label
 _atom_site_symmetry_multiplicity
 _atom_site_fract_x
 _atom_site_fract_y
 _atom_site_fract_z
 _atom_site_occupancy
  Yb  Yb0  1  0.92415000  0.84830000  0.25000000  1
  Yb  Yb1  1  0.07585000  0.15170000  0.75000000  1
  In  In0  1  0.36587200  0.73174400  0.54998000  1
  In  In1  1  0.63412800  0.26825600  0.45002000  1
  In  In2  1  0.36587200  0.73174400  0.95002000  1
  In  In3  1  0.63412800  0.26825600  0.04998000  1
  Au  Au0  1  0.78893500  0.57787000  0.75000000  1
  Au  Au1  1  0.21106500  0.42213000  0.25000000  1
loop_
_geom_bond_atom_site_label_1
_geom_bond_atom_site_label_2
_geom_bond_distance
_geom_bond_site_symmetry_2
In0 Yb0 3.320922 1_555
In0 Yb0 3.320922 1_455
In0 Yb1 3.498151 1_555
In0 Yb1 3.579690 1_665
In0 Yb1 3.579690 1_565
In1 Yb1 3.320922 1_555
In1 Yb1 3.320922 1_655
In1 Yb0 3.498151 1_555
In1 Yb0 3.579690 1_545
In1 Yb0 3.579690 1_445
In2 Yb0 3.320922 1_456
In2 Yb0 3.320922 1_556
In2 Yb1 3.498151 1_555
In2 Yb1 3.579690 1_665
In2 Yb1 3.579690 1_565
In3 Yb1 3.320922 1_554
In3 Yb1 3.320922 1_654
In3 Yb0 3.498151 1_555
In3 Yb0 3.579690 1_545
In3 Yb0 3.579690 1_445
Au0 In3 2.858857 1_556
Au0 In1 2.858857 1_555
Au0 In2 2.888521 1_655
Au0 In0 2.888521 1_655
Au0 In0 2.888521 1_555
Au0 In2 2.888521 1_555
Au0 Yb1 3.105046 1_665
Au0 Yb1 3.253048 1_655
Au0 Yb1 3.253048 1_555
Au1 In0 2.858857 1_555
Au1 In2 2.858857 1_554
Au1 In3 2.888521 1_555
Au1 In3 2.888521 1_455
Au1 In1 2.888521 1_455
Au1 In1 2.888521 1_555
Au1 Yb0 3.105046 1_445
Au1 Yb0 3.253048 1_555
Au1 Yb0 3.253048 1_455
