# generated using pymatgen
data_La2Mn(SeO)2
_symmetry_space_group_name_H-M   'P 1'
_cell_length_a   4.01596748
_cell_length_b   16.51308686
_cell_length_c   17.62837182
_cell_angle_alpha   90.00000000
_cell_angle_beta   90.00000000
_cell_angle_gamma   90.00000000
_symmetry_Int_Tables_number   1
_chemical_formula_structural   La2Mn(SeO)2
_chemical_formula_sum   'La16 Mn8 Se16 O16'
_cell_volume   1169.04345508
_cell_formula_units_Z   8
loop_
 _symmetry_equiv_pos_site_id
 _symmetry_equiv_pos_as_xyz
  1  'x, y, z'
loop_
 _atom_site_type_symbol
 _atom_site_label
 _atom_site_symmetry_multiplicity
 _atom_site_fract_x
 _atom_site_fract_y
 _atom_site_fract_z
 _atom_site_occupancy
  La  La0  1  0.00468284  0.97636020  0.08982599  1
  La  La1  1  0.50468284  0.02363980  0.91017401  1
  La  La2  1  0.50468284  0.47636020  0.41017401  1
  La  La3  1  0.00468284  0.52363980  0.58982599  1
  La  La4  1  0.50561054  0.48328754  0.08976929  1
  La  La5  1  0.00561054  0.51671246  0.91023071  1
  La  La6  1  0.00561054  0.98328754  0.41023071  1
  La  La7  1  0.50561054  0.01671246  0.58976929  1
  La  La8  1  0.00559102  0.67785349  0.08498600  1
  La  La9  1  0.50559102  0.32214651  0.91501400  1
  La  La10  1  0.50559102  0.17785349  0.41501400  1
  La  La11  1  0.00559102  0.82214651  0.58498600  1
  La  La12  1  0.50488589  0.17078122  0.08786764  1
  La  La13  1  0.00488589  0.82921878  0.91213236  1
  La  La14  1  0.00488589  0.67078122  0.41213236  1
  La  La15  1  0.50488589  0.32921878  0.58786764  1
  Mn  Mn0  1  0.00617930  0.38850885  0.75151273  1
  Mn  Mn1  1  0.50617930  0.61149115  0.24848727  1
  Mn  Mn2  1  0.50617930  0.88850885  0.74848727  1
  Mn  Mn3  1  0.00617930  0.11149115  0.25151273  1
  Mn  Mn4  1  0.50566654  0.83618905  0.27980887  1
  Mn  Mn5  1  0.00566654  0.16381095  0.72019113  1
  Mn  Mn6  1  0.00566654  0.33618905  0.22019113  1
  Mn  Mn7  1  0.50566654  0.66381095  0.77980887  1
  Se  Se0  1  0.00474755  0.01178348  0.74848608  1
  Se  Se1  1  0.50474755  0.98821652  0.25151392  1
  Se  Se2  1  0.50474755  0.51178348  0.75151392  1
  Se  Se3  1  0.00474755  0.48821652  0.24848608  1
  Se  Se4  1  0.00539505  0.33100670  0.07413941  1
  Se  Se5  1  0.50539505  0.66899330  0.92586059  1
  Se  Se6  1  0.50539505  0.83100670  0.42586059  1
  Se  Se7  1  0.00539505  0.16899330  0.57413941  1
  Se  Se8  1  0.50483059  0.82781537  0.06111066  1
  Se  Se9  1  0.00483059  0.17218463  0.93888934  1
  Se  Se10  1  0.00483059  0.32781537  0.43888934  1
  Se  Se11  1  0.50483059  0.67218463  0.56111066  1
  Se  Se12  1  0.00518491  0.75362482  0.74830679  1
  Se  Se13  1  0.50518491  0.24637518  0.25169321  1
  Se  Se14  1  0.50518491  0.25362482  0.75169321  1
  Se  Se15  1  0.00518491  0.74637518  0.24830679  1
  O  O0  1  0.00480536  0.11652396  0.13947071  1
  O  O1  1  0.50480536  0.88347604  0.86052929  1
  O  O2  1  0.50480536  0.61652396  0.36052929  1
  O  O3  1  0.00480536  0.38347604  0.63947071  1
  O  O4  1  0.50554591  0.62223395  0.13595059  1
  O  O5  1  0.00554591  0.37776605  0.86404941  1
  O  O6  1  0.00554591  0.12223395  0.36404941  1
  O  O7  1  0.50554591  0.87776605  0.63595059  1
  O  O8  1  0.00467827  0.53752326  0.45359229  1
  O  O9  1  0.50467827  0.46247674  0.54640771  1
  O  O10  1  0.50467827  0.03752326  0.04640771  1
  O  O11  1  0.00467827  0.96247674  0.95359229  1
  O  O12  1  0.50559423  0.04260161  0.45623464  1
  O  O13  1  0.00559423  0.95739839  0.54376536  1
  O  O14  1  0.00559423  0.54260161  0.04376536  1
  O  O15  1  0.50559423  0.45739839  0.95623464  1
loop_
_geom_bond_atom_site_label_1
_geom_bond_atom_site_label_2
_geom_bond_distance
_geom_bond_site_symmetry_2
La0 O10 2.374412 1_565
La0 O10 2.374443 1_465
La0 O11 2.412496 1_554
La0 O0 2.474465 1_565
La0 Se8 3.209789 1_455
La0 Se8 3.210531 1_555
La0 Se1 3.491915 1_455
La0 Se1 3.492214 1_555
La1 O11 2.374412 1_645
La1 O11 2.374443 1_545
La1 O10 2.412496 1_556
La1 O1 2.474465 1_545
La1 Se9 3.209789 1_555
La1 Se9 3.210531 1_655
La1 Se0 3.491915 1_555
La1 Se0 3.492214 1_655
La2 O8 2.374412 1_655
La2 O8 2.374443 1_555
La2 O9 2.412496 1_555
La2 O2 2.474465 1_555
La2 Se10 3.209789 1_555
La2 Se10 3.210531 1_655
La2 Se3 3.491915 1_555
La2 Se3 3.492214 1_655
La3 O9 2.374412 1_555
La3 O9 2.374443 1_455
La3 O8 2.412496 1_555
La3 O3 2.474465 1_555
La3 Se11 3.209789 1_455
La3 Se11 3.210531 1_555
La3 Se2 3.491915 1_455
La3 Se2 3.492214 1_555
La4 O14 2.376711 1_655
La4 O14 2.376821 1_555
La4 O15 2.392504 1_554
La4 O4 2.434582 1_555
La4 Se4 3.229209 1_655
La4 Se4 3.230285 1_555
La4 Se3 3.442828 1_655
La4 Se3 3.446868 1_555
La5 O15 2.376711 1_555
La5 O15 2.376821 1_455
La5 O14 2.392504 1_556
La5 O5 2.434582 1_555
La5 Se5 3.229209 1_555
La5 Se5 3.230285 1_455
La5 Se2 3.442828 1_555
La5 Se2 3.446868 1_455
La6 O12 2.376711 1_565
La6 O12 2.376821 1_465
La6 O13 2.392504 1_555
La6 O6 2.434582 1_565
La6 Se6 3.229209 1_555
La6 Se6 3.230285 1_455
La6 Se1 3.442828 1_555
La6 Se1 3.446868 1_455
La7 O13 2.376711 1_645
La7 O13 2.376821 1_545
La7 O12 2.392504 1_555
La7 O7 2.434582 1_545
La7 Se7 3.229209 1_655
La7 Se7 3.230285 1_555
La7 Se0 3.442828 1_655
La7 Se0 3.446868 1_555
La8 O14 2.348663 1_555
La8 O4 2.383692 1_555
La8 O4 2.383997 1_455
La8 Se15 3.093445 1_555
La8 Se8 3.213894 1_555
La8 Se8 3.217708 1_455
La8 Se5 3.452384 1_554
La8 Se5 3.453299 1_454
La9 O15 2.348663 1_555
La9 O5 2.383692 1_655
La9 O5 2.383997 1_555
La9 Se14 3.093445 1_555
La9 Se9 3.213894 1_655
La9 Se9 3.217708 1_555
La9 Se4 3.452384 1_656
La9 Se4 3.453299 1_556
La10 O12 2.348663 1_555
La10 O6 2.383692 1_655
La10 O6 2.383997 1_555
La10 Se13 3.093445 1_555
La10 Se10 3.213894 1_655
La10 Se10 3.217708 1_555
La10 Se7 3.452384 1_655
La10 Se7 3.453299 1_555
La11 O13 2.348663 1_555
La11 O7 2.383692 1_555
La11 O7 2.383997 1_455
La11 Se12 3.093445 1_555
La11 Se11 3.213894 1_555
La11 Se11 3.217708 1_455
La11 Se6 3.452384 1_555
La11 Se6 3.453299 1_455
La12 O10 2.318701 1_555
La12 O0 2.379275 1_655
La12 O0 2.379821 1_555
La12 Se13 3.146211 1_555
La12 Se9 3.305874 1_654
La12 Se9 3.306144 1_554
La12 Se4 3.329070 1_555
La12 Se4 3.331536 1_655
La13 O11 2.318701 1_555
La13 O1 2.379275 1_555
La13 O1 2.379821 1_455
La13 Se12 3.146211 1_555
La13 Se8 3.305874 1_556
La13 Se8 3.306144 1_456
La13 Se5 3.329070 1_455
La13 Se5 3.331536 1_555
La14 O8 2.318701 1_555
La14 O2 2.379275 1_555
La14 O2 2.379821 1_455
La14 Se15 3.146211 1_555
La14 Se11 3.305874 1_555
La14 Se11 3.306144 1_455
La14 Se6 3.329070 1_455
La14 Se6 3.331536 1_555
La15 O9 2.318701 1_555
La15 O3 2.379275 1_655
La15 O3 2.379821 1_555
La15 Se14 3.146211 1_555
La15 Se10 3.305874 1_655
La15 Se10 3.306144 1_555
La15 Se7 3.329070 1_555
La15 Se7 3.331536 1_655
Mn0 O3 1.976874 1_555
Mn0 O5 1.991756 1_555
Mn0 Se2 2.855309 1_555
Mn0 Se2 2.863385 1_455
Mn0 Se14 2.996178 1_555
Mn0 Se14 3.001526 1_455
Mn1 O2 1.976874 1_555
Mn1 O4 1.991756 1_555
Mn1 Se3 2.855309 1_655
Mn1 Se3 2.863385 1_555
Mn1 Se15 2.996178 1_655
Mn1 Se15 3.001526 1_555
Mn2 O1 1.976874 1_555
Mn2 O7 1.991756 1_555
Mn2 Se0 2.855309 1_665
Mn2 Se0 2.863385 1_565
Mn2 Se12 2.996178 1_655
Mn2 Se12 3.001526 1_555
Mn3 O0 1.976874 1_555
Mn3 O6 1.991756 1_555
Mn3 Se1 2.855309 1_545
Mn3 Se1 2.863385 1_445
Mn3 Se13 2.996178 1_555
Mn3 Se13 3.001526 1_455
Mn4 Se15 2.555822 1_655
Mn4 Se15 2.558859 1_555
Mn4 Se1 2.559518 1_555
Mn4 Se6 2.576076 1_555
Mn5 Se14 2.555822 1_555
Mn5 Se14 2.558859 1_455
Mn5 Se0 2.559518 1_555
Mn5 Se7 2.576076 1_555
Mn6 Se13 2.555822 1_555
Mn6 Se13 2.558859 1_455
Mn6 Se3 2.559518 1_555
Mn6 Se4 2.576076 1_555
Mn7 Se12 2.555822 1_655
Mn7 Se12 2.558859 1_555
Mn7 Se2 2.559518 1_555
Mn7 Se5 2.576076 1_555
