# generated using pymatgen
data_MgTe4MoW3(SeS)2
_symmetry_space_group_name_H-M   'P 1'
_cell_length_a   6.76949000
_cell_length_b   6.76924659
_cell_length_c   77.57477200
_cell_angle_alpha   90.00013688
_cell_angle_beta   90.00003465
_cell_angle_gamma   120.00339421
_symmetry_Int_Tables_number   1
_chemical_formula_structural   MgTe4MoW3(SeS)2
_chemical_formula_sum   'Mg8 Te32 Mo8 W24 Se16 S16'
_cell_volume   3078.45330660
_cell_formula_units_Z   8
loop_
 _symmetry_equiv_pos_site_id
 _symmetry_equiv_pos_as_xyz
  1  'x, y, z'
loop_
 _atom_site_type_symbol
 _atom_site_label
 _atom_site_symmetry_multiplicity
 _atom_site_fract_x
 _atom_site_fract_y
 _atom_site_fract_z
 _atom_site_occupancy
  Mg  Mg0_0  1  0.35396000  0.10491600  0.44107500  1
  Mg  Mg0_1  1  0.35396000  0.10491600  0.94107500  1
  Mg  Mg0_2  1  0.35396000  0.60491600  0.44107500  1
  Mg  Mg0_3  1  0.35396000  0.60491600  0.94107500  1
  Mg  Mg0_4  1  0.85396000  0.10491600  0.44107500  1
  Mg  Mg0_5  1  0.85396000  0.10491600  0.94107500  1
  Mg  Mg0_6  1  0.85396000  0.60491600  0.44107500  1
  Mg  Mg0_7  1  0.85396000  0.60491600  0.94107500  1
  Te  Te0_0  1  0.16668000  0.33336100  0.16511750  1
  Te  Te0_1  1  0.16668000  0.33336100  0.66511750  1
  Te  Te0_2  1  0.16668000  0.83336100  0.16511750  1
  Te  Te0_3  1  0.16668000  0.83336100  0.66511750  1
  Te  Te0_4  1  0.66668000  0.33336100  0.16511750  1
  Te  Te0_5  1  0.66668000  0.33336100  0.66511750  1
  Te  Te0_6  1  0.66668000  0.83336100  0.16511750  1
  Te  Te0_7  1  0.66668000  0.83336100  0.66511750  1
  Te  Te1_0  1  0.16667800  0.33335700  0.35309300  1
  Te  Te1_1  1  0.16667800  0.33335700  0.85309300  1
  Te  Te1_2  1  0.16667800  0.83335700  0.35309300  1
  Te  Te1_3  1  0.16667800  0.83335700  0.85309300  1
  Te  Te1_4  1  0.66667800  0.33335700  0.35309300  1
  Te  Te1_5  1  0.66667800  0.33335700  0.85309300  1
  Te  Te1_6  1  0.66667800  0.83335700  0.35309300  1
  Te  Te1_7  1  0.66667800  0.83335700  0.85309300  1
  Te  Te2_0  1  0.16667650  0.33335450  0.11672300  1
  Te  Te2_1  1  0.16667650  0.33335450  0.61672300  1
  Te  Te2_2  1  0.16667650  0.83335450  0.11672300  1
  Te  Te2_3  1  0.16667650  0.83335450  0.61672300  1
  Te  Te2_4  1  0.66667650  0.33335450  0.11672300  1
  Te  Te2_5  1  0.66667650  0.33335450  0.61672300  1
  Te  Te2_6  1  0.66667650  0.83335450  0.11672300  1
  Te  Te2_7  1  0.66667650  0.83335450  0.61672300  1
  Te  Te3_0  1  0.16668050  0.33336150  0.30442750  1
  Te  Te3_1  1  0.16668050  0.33336150  0.80442750  1
  Te  Te3_2  1  0.16668050  0.83336150  0.30442750  1
  Te  Te3_3  1  0.16668050  0.83336150  0.80442750  1
  Te  Te3_4  1  0.66668050  0.33336150  0.30442750  1
  Te  Te3_5  1  0.66668050  0.33336150  0.80442750  1
  Te  Te3_6  1  0.66668050  0.83336150  0.30442750  1
  Te  Te3_7  1  0.66668050  0.83336150  0.80442750  1
  Mo  Mo0_0  1  0.33334550  0.16669150  0.14089850  1
  Mo  Mo0_1  1  0.33334550  0.16669150  0.64089850  1
  Mo  Mo0_2  1  0.33334550  0.66669150  0.14089850  1
  Mo  Mo0_3  1  0.33334550  0.66669150  0.64089850  1
  Mo  Mo0_4  1  0.83334550  0.16669150  0.14089850  1
  Mo  Mo0_5  1  0.83334550  0.16669150  0.64089850  1
  Mo  Mo0_6  1  0.83334550  0.66669150  0.14089850  1
  Mo  Mo0_7  1  0.83334550  0.66669150  0.64089850  1
  W  W0_0  1  0.16665450  0.33330900  0.04693100  1
  W  W0_1  1  0.16665450  0.33330900  0.54693100  1
  W  W0_2  1  0.16665450  0.83330900  0.04693100  1
  W  W0_3  1  0.16665450  0.83330900  0.54693100  1
  W  W0_4  1  0.66665450  0.33330900  0.04693100  1
  W  W0_5  1  0.66665450  0.33330900  0.54693100  1
  W  W0_6  1  0.66665450  0.83330900  0.04693100  1
  W  W0_7  1  0.66665450  0.83330900  0.54693100  1
  W  W1_0  1  0.16662650  0.33329350  0.23482900  1
  W  W1_1  1  0.16662650  0.33329350  0.73482900  1
  W  W1_2  1  0.16662650  0.83329350  0.23482900  1
  W  W1_3  1  0.16662650  0.83329350  0.73482900  1
  W  W1_4  1  0.66662650  0.33329350  0.23482900  1
  W  W1_5  1  0.66662650  0.33329350  0.73482900  1
  W  W1_6  1  0.66662650  0.83329350  0.23482900  1
  W  W1_7  1  0.66662650  0.83329350  0.73482900  1
  W  W2_0  1  0.33334600  0.16669300  0.32878850  1
  W  W2_1  1  0.33334600  0.16669300  0.82878850  1
  W  W2_2  1  0.33334600  0.66669300  0.32878850  1
  W  W2_3  1  0.33334600  0.66669300  0.82878850  1
  W  W2_4  1  0.83334600  0.16669300  0.32878850  1
  W  W2_5  1  0.83334600  0.16669300  0.82878850  1
  W  W2_6  1  0.83334600  0.66669300  0.32878850  1
  W  W2_7  1  0.83334600  0.66669300  0.82878850  1
  Se  Se0_0  1  0.33331850  0.16663800  0.02555850  1
  Se  Se0_1  1  0.33331850  0.16663800  0.52555850  1
  Se  Se0_2  1  0.33331850  0.66663800  0.02555850  1
  Se  Se0_3  1  0.33331850  0.66663800  0.52555850  1
  Se  Se0_4  1  0.83331850  0.16663800  0.02555850  1
  Se  Se0_5  1  0.83331850  0.16663800  0.52555850  1
  Se  Se0_6  1  0.83331850  0.66663800  0.02555850  1
  Se  Se0_7  1  0.83331850  0.66663800  0.52555850  1
  Se  Se1_0  1  0.33332000  0.16664100  0.06835600  1
  Se  Se1_1  1  0.33332000  0.16664100  0.56835600  1
  Se  Se1_2  1  0.33332000  0.66664100  0.06835600  1
  Se  Se1_3  1  0.33332000  0.66664100  0.56835600  1
  Se  Se1_4  1  0.83332000  0.16664100  0.06835600  1
  Se  Se1_5  1  0.83332000  0.16664100  0.56835600  1
  Se  Se1_6  1  0.83332000  0.66664100  0.06835600  1
  Se  Se1_7  1  0.83332000  0.66664100  0.56835600  1
  S  S0_0  1  0.33334250  0.16665200  0.21537650  1
  S  S0_1  1  0.33334250  0.16665200  0.71537650  1
  S  S0_2  1  0.33334250  0.66665200  0.21537650  1
  S  S0_3  1  0.33334250  0.66665200  0.71537650  1
  S  S0_4  1  0.83334250  0.16665200  0.21537650  1
  S  S0_5  1  0.83334250  0.16665200  0.71537650  1
  S  S0_6  1  0.83334250  0.66665200  0.21537650  1
  S  S0_7  1  0.83334250  0.66665200  0.71537650  1
  S  S1_0  1  0.33334550  0.16665750  0.25427750  1
  S  S1_1  1  0.33334550  0.16665750  0.75427750  1
  S  S1_2  1  0.33334550  0.66665750  0.25427750  1
  S  S1_3  1  0.33334550  0.66665750  0.75427750  1
  S  S1_4  1  0.83334550  0.16665750  0.25427750  1
  S  S1_5  1  0.83334550  0.16665750  0.75427750  1
  S  S1_6  1  0.83334550  0.66665750  0.25427750  1
  S  S1_7  1  0.83334550  0.66665750  0.75427750  1
loop_
_geom_bond_atom_site_label_1
_geom_bond_atom_site_label_2
_geom_bond_distance
_geom_bond_site_symmetry_2
Mg0_0 Mg0_6 3.384511 1_445
Mg0_0 Mg0_6 3.384511 1_555
Mg0_0 Mg0_2 3.384623 1_545
Mg0_0 Mg0_2 3.384623 1_555
Mg0_0 Mg0_4 3.384745 1_455
Mg0_0 Mg0_4 3.384745 1_555
Mg0_1 Mg0_7 3.384511 1_555
Mg0_1 Mg0_7 3.384511 1_445
Mg0_2 Mg0_4 3.384511 1_565
Mg0_2 Mg0_4 3.384511 1_455
Mg0_2 Mg0_6 3.384745 1_455
Mg0_2 Mg0_6 3.384745 1_555
Mg0_3 Mg0_7 3.384745 1_455
Mg0_3 Mg0_7 3.384745 1_555
Mg0_4 Mg0_6 3.384623 1_555
Mg0_4 Mg0_6 3.384623 1_545
Mg0_5 Mg0_7 3.384623 1_555
Mg0_5 Mg0_7 3.384623 1_545
Te1_0 W2_2 2.715359 1_555
Te1_0 W2_4 2.715386 1_455
Te1_0 W2_0 2.715434 1_555
Te1_1 W2_3 2.715359 1_555
Te1_1 W2_5 2.715386 1_455
Te1_1 W2_1 2.715434 1_555
Te1_2 W2_0 2.715359 1_565
Te1_2 W2_6 2.715386 1_455
Te1_2 W2_2 2.715434 1_555
Te1_3 W2_1 2.715359 1_565
Te1_3 W2_7 2.715386 1_455
Te1_3 W2_3 2.715434 1_555
Te1_4 W2_6 2.715359 1_555
Te1_4 W2_0 2.715386 1_555
Te1_4 W2_4 2.715434 1_555
Te1_5 W2_7 2.715359 1_555
Te1_5 W2_1 2.715386 1_555
Te1_5 W2_5 2.715434 1_555
Te1_6 W2_4 2.715359 1_565
Te1_6 W2_2 2.715386 1_555
Te1_6 W2_6 2.715434 1_555
Te1_7 W2_5 2.715359 1_565
Te1_7 W2_3 2.715386 1_555
Te1_7 W2_7 2.715434 1_555
Te3_0 W2_2 2.718377 1_555
Te3_0 W2_4 2.718447 1_455
Te3_0 W2_0 2.718490 1_555
Te3_1 W2_3 2.718377 1_555
Te3_1 W2_5 2.718447 1_455
Te3_1 W2_1 2.718490 1_555
Te3_2 W2_0 2.718377 1_565
Te3_2 W2_6 2.718447 1_455
Te3_2 W2_2 2.718490 1_555
Te3_3 W2_1 2.718377 1_565
Te3_3 W2_7 2.718447 1_455
Te3_3 W2_3 2.718490 1_555
Te3_4 W2_6 2.718377 1_555
Te3_4 W2_0 2.718447 1_555
Te3_4 W2_4 2.718490 1_555
Te3_5 W2_7 2.718377 1_555
Te3_5 W2_1 2.718447 1_555
Te3_5 W2_5 2.718490 1_555
Te3_6 W2_4 2.718377 1_565
Te3_6 W2_2 2.718447 1_555
Te3_6 W2_6 2.718490 1_555
Te3_7 W2_5 2.718377 1_565
Te3_7 W2_3 2.718447 1_555
Te3_7 W2_7 2.718490 1_555
Mo0_0 Te2_2 2.708416 1_545
Mo0_0 Te2_4 2.708448 1_555
Mo0_0 Te2_0 2.708498 1_555
Mo0_0 Te0_2 2.710735 1_545
Mo0_0 Te0_4 2.710795 1_555
Mo0_0 Te0_0 2.710846 1_555
Mo0_1 Te2_3 2.708416 1_545
Mo0_1 Te2_5 2.708448 1_555
Mo0_1 Te2_1 2.708498 1_555
Mo0_1 Te0_3 2.710735 1_545
Mo0_1 Te0_5 2.710795 1_555
Mo0_1 Te0_1 2.710846 1_555
Mo0_2 Te2_0 2.708416 1_555
Mo0_2 Te2_6 2.708448 1_555
Mo0_2 Te2_2 2.708498 1_555
Mo0_2 Te0_0 2.710735 1_555
Mo0_2 Te0_6 2.710795 1_555
Mo0_2 Te0_2 2.710846 1_555
Mo0_3 Te2_1 2.708416 1_555
Mo0_3 Te2_7 2.708448 1_555
Mo0_3 Te2_3 2.708498 1_555
Mo0_3 Te0_1 2.710735 1_555
Mo0_3 Te0_7 2.710795 1_555
Mo0_3 Te0_3 2.710846 1_555
Mo0_4 Te2_6 2.708416 1_545
Mo0_4 Te2_0 2.708448 1_655
Mo0_4 Te2_4 2.708498 1_555
Mo0_4 Te0_6 2.710735 1_545
Mo0_4 Te0_0 2.710795 1_655
Mo0_4 Te0_4 2.710846 1_555
Mo0_5 Te2_7 2.708416 1_545
Mo0_5 Te2_1 2.708448 1_655
Mo0_5 Te2_5 2.708498 1_555
Mo0_5 Te0_7 2.710735 1_545
Mo0_5 Te0_1 2.710795 1_655
Mo0_5 Te0_5 2.710846 1_555
Mo0_6 Te2_4 2.708416 1_555
Mo0_6 Te2_2 2.708448 1_655
Mo0_6 Te2_6 2.708498 1_555
Mo0_6 Te0_4 2.710735 1_555
Mo0_6 Te0_2 2.710795 1_655
Mo0_6 Te0_6 2.710846 1_555
Mo0_7 Te2_5 2.708416 1_555
Mo0_7 Te2_3 2.708448 1_655
Mo0_7 Te2_7 2.708498 1_555
Mo0_7 Te0_5 2.710735 1_555
Mo0_7 Te0_3 2.710795 1_655
Mo0_7 Te0_7 2.710846 1_555
Se0_0 W0_2 2.562630 1_545
Se0_0 W0_4 2.562708 1_555
Se0_0 W0_0 2.562755 1_555
Se0_1 W0_3 2.562630 1_545
Se0_1 W0_5 2.562708 1_555
Se0_1 W0_1 2.562755 1_555
Se0_2 W0_0 2.562630 1_555
Se0_2 W0_6 2.562708 1_555
Se0_2 W0_2 2.562755 1_555
Se0_3 W0_1 2.562630 1_555
Se0_3 W0_7 2.562708 1_555
Se0_3 W0_3 2.562755 1_555
Se0_4 W0_6 2.562630 1_545
Se0_4 W0_0 2.562708 1_655
Se0_4 W0_4 2.562755 1_555
Se0_5 W0_7 2.562630 1_545
Se0_5 W0_1 2.562708 1_655
Se0_5 W0_5 2.562755 1_555
Se0_6 W0_4 2.562630 1_555
Se0_6 W0_2 2.562708 1_655
Se0_6 W0_6 2.562755 1_555
Se0_7 W0_5 2.562630 1_555
Se0_7 W0_3 2.562708 1_655
Se0_7 W0_7 2.562755 1_555
Se1_0 W0_2 2.565272 1_545
Se1_0 W0_4 2.565343 1_555
Se1_0 W0_0 2.565387 1_555
Se1_1 W0_3 2.565272 1_545
Se1_1 W0_5 2.565343 1_555
Se1_1 W0_1 2.565387 1_555
Se1_2 W0_0 2.565272 1_555
Se1_2 W0_6 2.565343 1_555
Se1_2 W0_2 2.565387 1_555
Se1_3 W0_1 2.565272 1_555
Se1_3 W0_7 2.565343 1_555
Se1_3 W0_3 2.565387 1_555
Se1_4 W0_6 2.565272 1_545
Se1_4 W0_0 2.565343 1_655
Se1_4 W0_4 2.565387 1_555
Se1_5 W0_7 2.565272 1_545
Se1_5 W0_1 2.565343 1_655
Se1_5 W0_5 2.565387 1_555
Se1_6 W0_4 2.565272 1_555
Se1_6 W0_2 2.565343 1_655
Se1_6 W0_6 2.565387 1_555
Se1_7 W0_5 2.565272 1_555
Se1_7 W0_3 2.565343 1_655
Se1_7 W0_7 2.565387 1_555
S0_0 W1_4 2.468720 1_555
S0_0 W1_2 2.469017 1_545
S0_0 W1_0 2.469114 1_555
S0_1 W1_5 2.468720 1_555
S0_1 W1_3 2.469017 1_545
S0_1 W1_1 2.469114 1_555
S0_2 W1_6 2.468720 1_555
S0_2 W1_0 2.469017 1_555
S0_2 W1_2 2.469114 1_555
S0_3 W1_7 2.468720 1_555
S0_3 W1_1 2.469017 1_555
S0_3 W1_3 2.469114 1_555
S0_4 W1_0 2.468720 1_655
S0_4 W1_6 2.469017 1_545
S0_4 W1_4 2.469114 1_555
S0_5 W1_1 2.468720 1_655
S0_5 W1_7 2.469017 1_545
S0_5 W1_5 2.469114 1_555
S0_6 W1_2 2.468720 1_655
S0_6 W1_4 2.469017 1_555
S0_6 W1_6 2.469114 1_555
S0_7 W1_3 2.468720 1_655
S0_7 W1_5 2.469017 1_555
S0_7 W1_7 2.469114 1_555
S1_0 W1_4 2.468522 1_555
S1_0 W1_2 2.468845 1_545
S1_0 W1_0 2.468915 1_555
S1_1 W1_5 2.468522 1_555
S1_1 W1_3 2.468845 1_545
S1_1 W1_1 2.468915 1_555
S1_2 W1_6 2.468522 1_555
S1_2 W1_0 2.468845 1_555
S1_2 W1_2 2.468915 1_555
S1_3 W1_7 2.468522 1_555
S1_3 W1_1 2.468845 1_555
S1_3 W1_3 2.468915 1_555
S1_4 W1_0 2.468522 1_655
S1_4 W1_6 2.468845 1_545
S1_4 W1_4 2.468915 1_555
S1_5 W1_1 2.468522 1_655
S1_5 W1_7 2.468845 1_545
S1_5 W1_5 2.468915 1_555
S1_6 W1_2 2.468522 1_655
S1_6 W1_4 2.468845 1_555
S1_6 W1_6 2.468915 1_555
S1_7 W1_3 2.468522 1_655
S1_7 W1_5 2.468845 1_555
S1_7 W1_7 2.468915 1_555
