# generated using pymatgen
data_Na3Y2Sn2P5SO24
_symmetry_space_group_name_H-M   'P 1'
_cell_length_a   8.99057841
_cell_length_b   8.98139599
_cell_length_c   23.31574043
_cell_angle_alpha   90.15884480
_cell_angle_beta   89.94092180
_cell_angle_gamma   119.72165557
_symmetry_Int_Tables_number   1
_chemical_formula_structural   Na3Y2Sn2P5SO24
_chemical_formula_sum   'Na9 Y6 Sn6 P15 S3 O72'
_cell_volume   1635.01183265
_cell_formula_units_Z   3
loop_
 _symmetry_equiv_pos_site_id
 _symmetry_equiv_pos_as_xyz
  1  'x, y, z'
loop_
 _atom_site_type_symbol
 _atom_site_label
 _atom_site_symmetry_multiplicity
 _atom_site_fract_x
 _atom_site_fract_y
 _atom_site_fract_z
 _atom_site_occupancy
  Na  Na0  1  0.00445192  0.36280492  0.75060221  1
  Na  Na1  1  0.66936793  0.96201144  0.58307544  1
  Na  Na2  1  0.03978925  0.33223999  0.08337921  1
  Na  Na3  1  0.00661122  0.99156869  0.49886001  1
  Na  Na4  1  0.00923821  0.99400389  0.99808970  1
  Na  Na5  1  0.65541429  0.32453285  0.83431811  1
  Na  Na6  1  0.68190901  0.33844848  0.33341309  1
  Na  Na7  1  0.34922283  0.67019190  0.16719445  1
  Na  Na8  1  0.33476509  0.66617270  0.66674948  1
  Y  Y0  1  0.01054536  0.99638037  0.64548587  1
  Y  Y1  1  0.99553512  0.99033007  0.14555559  1
  Y  Y2  1  0.33486528  0.67423146  0.01691263  1
  Y  Y3  1  0.32259807  0.66540395  0.51703895  1
  Y  Y4  1  0.33078125  0.66660537  0.31791626  1
  Y  Y5  1  0.33570344  0.67669052  0.81888255  1
  Sn  Sn0  1  0.98178523  0.99055308  0.34842618  1
  Sn  Sn1  1  0.00713122  0.00532079  0.84790797  1
  Sn  Sn2  1  0.66292610  0.33726883  0.68619593  1
  Sn  Sn3  1  0.67074580  0.33816121  0.18600255  1
  Sn  Sn4  1  0.66347267  0.32679134  0.98170431  1
  Sn  Sn5  1  0.67464644  0.33841634  0.48139326  1
  P  P0  1  0.70325517  0.69511967  0.24955782  1
  P  P1  1  0.99144210  0.29152496  0.24854909  1
  P  P2  1  0.30043377  0.29382426  0.75035088  1
  P  P3  1  0.98983045  0.69848153  0.75109148  1
  P  P4  1  0.70889798  0.00662803  0.74766437  1
  P  P5  1  0.95261592  0.33556122  0.58582365  1
  P  P6  1  0.38929918  0.05475225  0.58160414  1
  P  P7  1  0.66249689  0.61752796  0.58257795  1
  P  P8  1  0.94871503  0.61379341  0.08122691  1
  P  P9  1  0.66352617  0.04877897  0.08504869  1
  P  P10  1  0.38404698  0.33573012  0.08376469  1
  P  P11  1  0.02270729  0.35515119  0.91651964  1
  P  P12  1  0.33145476  0.97899224  0.91694165  1
  P  P13  1  0.64030306  0.97556638  0.41858084  1
  P  P14  1  0.02312068  0.67006101  0.41550965  1
  S  S0  1  0.29997216  0.01081236  0.25108277  1
  S  S1  1  0.64496124  0.66821551  0.91630399  1
  S  S2  1  0.33065863  0.35419472  0.41581682  1
  O  O0  1  0.21619678  0.03392363  0.30332355  1
  O  O1  1  0.81663164  0.77522824  0.30467979  1
  O  O2  1  0.96779833  0.17598807  0.30256457  1
  O  O3  1  0.22061291  0.18166186  0.80516635  1
  O  O4  1  0.96395091  0.78410871  0.80588036  1
  O  O5  1  0.83175643  0.04100590  0.80065311  1
  O  O6  1  0.78826440  0.98611139  0.69231379  1
  O  O7  1  0.18784378  0.21320986  0.69783115  1
  O  O8  1  0.01589839  0.80288235  0.69768203  1
  O  O9  1  0.78995327  0.80088738  0.19658241  1
  O  O10  1  0.01422710  0.21260352  0.19335373  1
  O  O11  1  0.19957513  0.98920615  0.19940908  1
  O  O12  1  0.87137912  0.35683905  0.64232359  1
  O  O13  1  0.49728396  0.13596579  0.63663343  1
  O  O14  1  0.64300643  0.51391436  0.63762781  1
  O  O15  1  0.86934556  0.50545540  0.13632732  1
  O  O16  1  0.64068961  0.13330705  0.13988144  1
  O  O17  1  0.48897509  0.35584851  0.13885163  1
  O  O18  1  0.46867019  0.31493252  0.02864437  1
  O  O19  1  0.84079360  0.52843113  0.02688029  1
  O  O20  1  0.69269173  0.15917434  0.03049139  1
  O  O21  1  0.47511630  0.16090681  0.52699718  1
  O  O22  1  0.68333382  0.53199721  0.52755161  1
  O  O23  1  0.83944496  0.30896038  0.53203158  1
  O  O24  1  0.56602819  0.69526872  0.96798441  1
  O  O25  1  0.13143562  0.43548733  0.97085033  1
  O  O26  1  0.30605403  0.87074158  0.97055826  1
  O  O27  1  0.56491337  0.87158124  0.47395288  1
  O  O28  1  0.30260810  0.43205871  0.46768376  1
  O  O29  1  0.12956503  0.69782160  0.46991357  1
  O  O30  1  0.10267748  0.63618354  0.36295038  1
  O  O31  1  0.52873337  0.88833492  0.36631564  1
  O  O32  1  0.35917481  0.46172976  0.36526570  1
  O  O33  1  0.10527869  0.46299797  0.86257128  1
  O  O34  1  0.36563414  0.90177830  0.86357002  1
  O  O35  1  0.53871865  0.64021327  0.86538167  1
  O  O36  1  0.00838593  0.83592499  0.40801053  1
  O  O37  1  0.82523230  0.99985443  0.41121395  1
  O  O38  1  0.17768605  0.18098629  0.40844368  1
  O  O39  1  0.99853504  0.17040946  0.90942472  1
  O  O40  1  0.16593273  0.99337113  0.90979846  1
  O  O41  1  0.81750939  0.82267714  0.90997644  1
  O  O42  1  0.95974035  0.16776914  0.58757212  1
  O  O43  1  0.21117608  0.03522380  0.58334657  1
  O  O44  1  0.82182011  0.79823651  0.58425805  1
  O  O45  1  0.96967485  0.79259896  0.08354587  1
  O  O46  1  0.83186738  0.04231199  0.08780177  1
  O  O47  1  0.20344027  0.17622995  0.08614063  1
  O  O48  1  0.70183069  0.17881646  0.74552889  1
  O  O49  1  0.47995901  0.30937448  0.74521291  1
  O  O50  1  0.82614655  0.51604088  0.74703193  1
  O  O51  1  0.68789133  0.51351873  0.24601135  1
  O  O52  1  0.82136755  0.30123378  0.24647525  1
  O  O53  1  0.47165327  0.16851024  0.24760734  1
  O  O54  1  0.66454302  0.51358800  0.92223391  1
  O  O55  1  0.84046767  0.33743190  0.92237296  1
  O  O56  1  0.49005230  0.16363218  0.92303771  1
  O  O57  1  0.66032377  0.15930814  0.42292948  1
  O  O58  1  0.48563151  0.33488576  0.42194153  1
  O  O59  1  0.83825221  0.51070930  0.42200387  1
  O  O60  1  0.36139359  0.49539914  0.08021706  1
  O  O61  1  0.12378053  0.62075372  0.07736141  1
  O  O62  1  0.50617948  0.87074394  0.08071962  1
  O  O63  1  0.38086436  0.87859422  0.57845118  1
  O  O64  1  0.50282207  0.63937766  0.57905512  1
  O  O65  1  0.12943601  0.49443819  0.58121604  1
  O  O66  1  0.32174871  0.85928631  0.25602842  1
  O  O67  1  0.52510103  0.67582457  0.25603068  1
  O  O68  1  0.14621126  0.47076915  0.25658284  1
  O  O69  1  0.31521936  0.47115672  0.75790978  1
  O  O70  1  0.14235878  0.66538890  0.75719129  1
  O  O71  1  0.53089543  0.85269933  0.75618441  1
loop_
_geom_bond_atom_site_label_1
_geom_bond_atom_site_label_2
_geom_bond_distance
_geom_bond_site_symmetry_2
Na0 O70 2.367138 1_555
Na0 O48 2.385078 1_455
Na0 O69 2.467059 1_555
Na0 O50 2.580594 1_455
Na0 O33 2.762236 1_555
Na0 O5 2.773288 1_455
Na0 O12 2.783837 1_455
Na0 O7 2.867205 1_555
Na1 O63 2.318191 1_555
Na1 O42 2.336049 1_565
Na1 O44 2.458138 1_555
Na1 O64 2.518727 1_555
Na1 O27 2.692966 1_555
Na1 O6 2.729415 1_555
Na2 O61 2.316477 1_555
Na2 O46 2.336682 1_455
Na2 O47 2.485390 1_555
Na2 O60 2.512343 1_555
Na2 O10 2.747976 1_555
Na2 O25 2.770195 1_554
Na2 O15 2.939700 1_455
Na2 O20 2.976985 1_455
Na3 O36 2.539069 1_555
Na3 O43 2.589356 1_565
Na3 O44 2.625194 1_455
Na3 O37 2.639848 1_455
Na3 O38 2.668831 1_565
Na3 O42 2.757082 1_465
Na4 O40 2.494856 1_555
Na4 O45 2.597904 1_456
Na4 O41 2.630484 1_455
Na4 O39 2.638734 1_465
Na4 O47 2.664030 1_566
Na4 O46 2.789368 1_466
Na5 O56 2.541155 1_555
Na5 O49 2.572030 1_555
Na5 O48 2.587925 1_555
Na5 O55 2.609812 1_555
Na5 O50 2.617524 1_555
Na5 O54 2.633345 1_555
Na6 O52 2.489803 1_555
Na6 O59 2.543196 1_555
Na6 O51 2.561585 1_555
Na6 O57 2.586630 1_555
Na6 O53 2.652426 1_555
Na6 O58 2.704146 1_555
Na7 O67 2.592289 1_555
Na7 O60 2.596397 1_555
Na7 O62 2.606686 1_555
Na7 O66 2.762380 1_555
Na7 O68 2.766652 1_555
Na7 O61 2.793482 1_555
Na8 O64 2.621623 1_555
Na8 O65 2.632714 1_555
Na8 O63 2.699260 1_555
Na8 O71 2.706129 1_555
Na8 O69 2.707579 1_555
Na8 O70 2.723892 1_555
O0 S0 1.498570 1_555
O0 Sn0 2.209711 1_445
O1 P0 1.574422 1_555
O1 Sn0 2.032229 1_555
O2 P1 1.579892 1_555
O2 Sn0 2.037352 1_545
O3 P2 1.565778 1_555
O3 Sn1 2.043508 1_555
O4 P3 1.564866 1_555
O4 Sn1 2.069651 1_665
O5 P4 1.582504 1_555
O5 Sn1 2.075890 1_655
O6 P4 1.528319 1_565
O6 Y0 2.237774 1_655
O7 P2 1.522916 1_555
O7 Y0 2.176160 1_545
O8 P3 1.507592 1_455
O8 Y0 2.144389 1_555
O9 P0 1.518516 1_555
O9 Y1 2.148258 1_555
O10 P1 1.529359 1_455
O10 Y1 2.216065 1_445
O11 S0 1.459872 1_565
O11 Y1 2.228242 1_455
O12 P5 1.562163 1_555
O12 Sn2 2.063968 1_555
O13 P6 1.554348 1_555
O13 Sn2 2.035712 1_555
O14 P7 1.545517 1_555
O14 Sn2 2.030660 1_555
O15 P8 1.556601 1_555
O15 Sn3 2.032819 1_555
O16 P9 1.549715 1_555
O16 Sn3 2.027605 1_555
O17 P10 1.550626 1_555
O17 Sn3 2.041226 1_555
O18 P10 1.550148 1_555
O18 Sn4 2.021938 1_554
O19 P8 1.547378 1_555
O19 Sn4 2.015146 1_554
O20 P9 1.555134 1_555
O20 Sn4 2.007863 1_554
O21 P6 1.549396 1_555
O21 Sn5 2.014935 1_555
O22 P7 1.551766 1_555
O22 Sn5 2.010550 1_555
O23 P5 1.557332 1_555
O23 Sn5 2.013261 1_555
O24 S1 1.477221 1_555
O24 Y2 2.294196 1_556
O25 P11 1.542389 1_555
O25 Y2 2.280111 1_556
O26 P12 1.531723 1_555
O26 Y2 2.194234 1_556
O27 P13 1.541305 1_555
O27 Y3 2.278143 1_555
O28 S2 1.478061 1_555
O28 Y3 2.315673 1_555
O29 P14 1.533353 1_555
O29 Y3 2.193327 1_555
O30 P14 1.522448 1_555
O30 Y4 2.196455 1_555
O31 P13 1.524120 1_555
O31 Y4 2.209975 1_555
O32 S2 1.465563 1_555
O32 Y4 2.268792 1_555
O33 P11 1.537309 1_555
O33 Y5 2.253190 1_555
O34 P12 1.526309 1_555
O34 Y5 2.166649 1_555
O35 S1 1.465526 1_555
O35 Y5 2.283236 1_555
O36 P14 1.569864 1_555
O36 Sn0 2.063162 1_455
O37 P13 1.575242 1_555
O37 Sn0 2.059814 1_555
O38 S2 1.489502 1_555
O38 Sn0 2.233911 1_445
O39 P11 1.571199 1_655
O39 Sn1 2.088851 1_655
O40 P12 1.565301 1_555
O40 Sn1 2.071052 1_565
O41 S1 1.489821 1_555
O41 Sn1 2.219608 1_665
O42 P5 1.540421 1_555
O42 Y0 2.260842 1_645
O43 P6 1.522624 1_555
O43 Y0 2.201789 1_545
O44 P7 1.543385 1_555
O44 Y0 2.254047 1_655
O45 P8 1.522134 1_555
O45 Y1 2.208001 1_555
O46 P9 1.544512 1_555
O46 Y1 2.210251 1_545
O47 P10 1.544532 1_555
O47 Y1 2.261313 1_445
O48 P4 1.579881 1_555
O48 Sn2 2.137028 1_555
O49 P2 1.554072 1_555
O49 Sn2 2.061739 1_555
O50 P3 1.570962 1_555
O50 Sn2 2.097317 1_555
O51 P0 1.569094 1_555
O51 Sn3 2.051673 1_555
O52 P1 1.574921 1_555
O52 Sn3 2.093721 1_555
O53 S0 1.492543 1_555
O53 Sn3 2.211606 1_555
O54 S1 1.490753 1_555
O54 Sn4 2.175837 1_555
O55 P11 1.571479 1_655
O55 Sn4 2.073740 1_555
O56 P12 1.567751 1_545
O56 Sn4 2.043802 1_555
O57 P13 1.571814 1_545
O57 Sn5 2.060395 1_555
O58 S2 1.493948 1_555
O58 Sn5 2.182071 1_555
O59 P14 1.573442 1_655
O59 Sn5 2.055788 1_555
O60 P10 1.547619 1_555
O60 Y2 2.282304 1_555
O61 P8 1.546446 1_455
O61 Y2 2.216546 1_555
O62 P9 1.524680 1_565
O62 Y2 2.235009 1_555
O63 P6 1.547493 1_565
O63 Y3 2.232193 1_555
O64 P7 1.544601 1_555
O64 Y3 2.270048 1_555
O65 P5 1.525147 1_455
O65 Y3 2.230684 1_555
O66 S0 1.472697 1_565
O66 Y4 2.288438 1_555
O67 P0 1.530586 1_555
O67 Y4 2.234511 1_555
O68 P1 1.529899 1_455
O68 Y4 2.233632 1_555
O69 P2 1.540766 1_555
O69 Y5 2.260856 1_555
O70 P3 1.547211 1_455
O70 Y5 2.220415 1_555
O71 P4 1.522794 1_565
O71 Y5 2.229878 1_555
