# generated using pymatgen
data_Na4Mg(WO4)2
_symmetry_space_group_name_H-M   'P 1'
_cell_length_a   6.56556425
_cell_length_b   6.56556425
_cell_length_c   6.82050606
_cell_angle_alpha   61.22896313
_cell_angle_beta   61.22896313
_cell_angle_gamma   60.00000000
_symmetry_Int_Tables_number   1
_chemical_formula_structural   Na4Mg(WO4)2
_chemical_formula_sum   'Na4 Mg1 W2 O8'
_cell_volume   211.67428497
_cell_formula_units_Z   1
loop_
 _symmetry_equiv_pos_site_id
 _symmetry_equiv_pos_as_xyz
  1  'x, y, z'
loop_
 _atom_site_type_symbol
 _atom_site_label
 _atom_site_symmetry_multiplicity
 _atom_site_fract_x
 _atom_site_fract_y
 _atom_site_fract_z
 _atom_site_occupancy
  Na  Na0  1  0.00000000  0.00000000  0.50000000  1
  Na  Na1  1  0.00000000  0.50000000  0.00000000  1
  Na  Na2  1  0.50000000  0.00000000  0.00000000  1
  Na  Na3  1  0.00000000  0.00000000  0.00000000  1
  Mg  Mg0  1  0.50000000  0.50000000  0.00000000  1
  W  W0  1  0.34773600  0.34773600  0.45679300  1
  W  W1  1  0.65226400  0.65226400  0.54320700  1
  O  O0  1  0.23944500  0.23944500  0.78166500  1
  O  O1  1  0.27094700  0.69217100  0.26593600  1
  O  O2  1  0.69217100  0.27094700  0.26593600  1
  O  O3  1  0.27094700  0.27094700  0.26593600  1
  O  O4  1  0.76055500  0.76055500  0.21833500  1
  O  O5  1  0.72905300  0.30782900  0.73406400  1
  O  O6  1  0.30782900  0.72905300  0.73406400  1
  O  O7  1  0.72905300  0.72905300  0.73406400  1
loop_
_geom_bond_atom_site_label_1
_geom_bond_atom_site_label_2
_geom_bond_distance
_geom_bond_site_symmetry_2
Na0 O6 2.564117 1_545
Na0 O5 2.564117 1_455
Na0 O2 2.564117 1_455
Na0 O1 2.564117 1_545
Na0 O3 2.564121 1_555
Na0 O7 2.564121 1_445
Na1 O4 2.263810 1_455
Na1 O0 2.263810 1_554
Na1 O6 2.553639 1_554
Na1 O2 2.553639 1_455
Na1 O3 2.553644 1_555
Na1 O7 2.553644 1_454
Na2 O4 2.263810 1_545
Na2 O0 2.263810 1_554
Na2 O5 2.553639 1_554
Na2 O1 2.553639 1_545
Na2 O3 2.553644 1_555
Na2 O7 2.553644 1_544
Na3 O0 2.263810 1_554
Na3 O4 2.263810 1_445
Na3 O2 2.553644 1_455
Na3 O1 2.553644 1_545
Na3 O6 2.553644 1_544
Na3 O5 2.553644 1_454
Mg0 O3 2.196177 1_555
Mg0 O7 2.196177 1_554
Mg0 O1 2.196181 1_555
Mg0 O2 2.196181 1_555
Mg0 O6 2.196181 1_554
Mg0 O5 2.196181 1_554
O0 W0 1.842068 1_555
O1 W0 1.928883 1_555
O2 W0 1.928883 1_555
O3 W0 1.928883 1_555
O4 W1 1.842068 1_555
O5 W1 1.928883 1_555
O6 W1 1.928883 1_555
O7 W1 1.928883 1_555
