# generated using pymatgen
data_Na4MgTaSi2PO12
_symmetry_space_group_name_H-M   'P 1'
_cell_length_a   9.09500836
_cell_length_b   9.09500805
_cell_length_c   22.13486813
_cell_angle_alpha   89.90167382
_cell_angle_beta   90.09832617
_cell_angle_gamma   119.68055163
_symmetry_Int_Tables_number   1
_chemical_formula_structural   Na4MgTaSi2PO12
_chemical_formula_sum   'Na24 Mg6 Ta6 Si12 P6 O72'
_cell_volume   1590.74991018
_cell_formula_units_Z   6
loop_
 _symmetry_equiv_pos_site_id
 _symmetry_equiv_pos_as_xyz
  1  'x, y, z'
loop_
 _atom_site_type_symbol
 _atom_site_label
 _atom_site_symmetry_multiplicity
 _atom_site_fract_x
 _atom_site_fract_y
 _atom_site_fract_z
 _atom_site_occupancy
  Na  Na0  1  0.64913362  0.01718163  0.24911152  1
  Na  Na1  1  0.37822545  0.36291429  0.24207291  1
  Na  Na2  1  0.97346182  0.61610489  0.24519538  1
  Na  Na3  1  0.63708571  0.62177455  0.74207291  1
  Na  Na4  1  0.98281837  0.35086638  0.74911152  1
  Na  Na5  1  0.38389511  0.02653818  0.74519538  1
  Na  Na6  1  0.31580062  0.35051463  0.58244452  1
  Na  Na7  1  0.04489245  0.69624729  0.57540591  1
  Na  Na8  1  0.64012882  0.94943789  0.57852838  1
  Na  Na9  1  0.30375271  0.95510755  0.07540591  1
  Na  Na10  1  0.64948537  0.68419938  0.08244452  1
  Na  Na11  1  0.05056211  0.35987118  0.07852838  1
  Na  Na12  1  0.98246662  0.68384863  0.91577852  1
  Na  Na13  1  0.71155845  0.02958129  0.90873991  1
  Na  Na14  1  0.30679482  0.28277189  0.91186238  1
  Na  Na15  1  0.97041871  0.28844155  0.40873991  1
  Na  Na16  1  0.31615137  0.01753338  0.41577852  1
  Na  Na17  1  0.71722811  0.69320518  0.41186238  1
  Na  Na18  1  0.99327966  0.99074236  0.49154862  1
  Na  Na19  1  0.00925764  0.00672034  0.99154862  1
  Na  Na20  1  0.65994666  0.32407536  0.82488162  1
  Na  Na21  1  0.67592464  0.34005334  0.32488162  1
  Na  Na22  1  0.32661266  0.65740936  0.15821562  1
  Na  Na23  1  0.34259064  0.67338734  0.65821562  1
  Mg  Mg0  1  0.99457052  0.99594766  0.35130091  1
  Mg  Mg1  1  0.00405234  0.00542948  0.85130091  1
  Mg  Mg2  1  0.66123752  0.32928066  0.68463391  1
  Mg  Mg3  1  0.67071934  0.33876248  0.18463391  1
  Mg  Mg4  1  0.32790352  0.66261466  0.01796791  1
  Mg  Mg5  1  0.33738534  0.67209648  0.51796791  1
  Ta  Ta0  1  0.99831132  0.00111589  0.64700934  1
  Ta  Ta1  1  0.99888411  0.00168868  0.14700934  1
  Ta  Ta2  1  0.66497832  0.33444889  0.98034234  1
  Ta  Ta3  1  0.66555111  0.33502168  0.48034234  1
  Ta  Ta4  1  0.33164432  0.66778289  0.31367634  1
  Ta  Ta5  1  0.33221711  0.66835568  0.81367634  1
  Si  Si0  1  0.70469590  0.70423183  0.25325764  1
  Si  Si1  1  0.99974683  0.29379300  0.25350246  1
  Si  Si2  1  0.29576817  0.29530410  0.75325764  1
  Si  Si3  1  0.70620700  0.00025317  0.75350246  1
  Si  Si4  1  0.37136290  0.03756483  0.58659064  1
  Si  Si5  1  0.66641383  0.62712600  0.58683546  1
  Si  Si6  1  0.96243517  0.62863710  0.08659064  1
  Si  Si7  1  0.37287400  0.33358617  0.08683546  1
  Si  Si8  1  0.03802890  0.37089883  0.91992464  1
  Si  Si9  1  0.33307983  0.96046000  0.92016946  1
  Si  Si10  1  0.62910117  0.96197110  0.41992464  1
  Si  Si11  1  0.03954000  0.66692017  0.42016946  1
  P  P0  1  0.28908679  0.99753172  0.25234715  1
  P  P1  1  0.00246828  0.71091321  0.75234715  1
  P  P2  1  0.95575379  0.33086472  0.58568015  1
  P  P3  1  0.66913528  0.04424621  0.08568015  1
  P  P4  1  0.62241979  0.66419872  0.91901415  1
  P  P5  1  0.33580128  0.37758021  0.41901415  1
  O  O0  1  0.21070002  0.02492285  0.30856480  1
  O  O1  1  0.81996552  0.78887786  0.31120141  1
  O  O2  1  0.98125143  0.18495385  0.31211716  1
  O  O3  1  0.21112214  0.18003448  0.81120141  1
  O  O4  1  0.97507715  0.78929998  0.80856480  1
  O  O5  1  0.81504615  0.01874857  0.81211716  1
  O  O6  1  0.80162131  0.96760848  0.69276668  1
  O  O7  1  0.16571893  0.19769259  0.69274588  1
  O  O8  1  0.03100142  0.82983677  0.69514212  1
  O  O9  1  0.80230741  0.83428107  0.19274588  1
  O  O10  1  0.03239152  0.19837869  0.19276668  1
  O  O11  1  0.17016323  0.96899858  0.19514212  1
  O  O12  1  0.87736702  0.35825585  0.64189780  1
  O  O13  1  0.48663252  0.12221086  0.64453441  1
  O  O14  1  0.64791843  0.51828685  0.64545016  1
  O  O15  1  0.87778914  0.51336748  0.14453441  1
  O  O16  1  0.64174415  0.12263298  0.14189780  1
  O  O17  1  0.48171315  0.35208157  0.14545016  1
  O  O18  1  0.46828831  0.30094148  0.02609968  1
  O  O19  1  0.83238593  0.53102559  0.02607888  1
  O  O20  1  0.69766842  0.16316977  0.02847512  1
  O  O21  1  0.46897441  0.16761407  0.52607888  1
  O  O22  1  0.69905852  0.53171169  0.52609968  1
  O  O23  1  0.83683023  0.30233158  0.52847512  1
  O  O24  1  0.54403302  0.69158985  0.97523180  1
  O  O25  1  0.15329852  0.45554486  0.97786841  1
  O  O26  1  0.31458443  0.85162085  0.97878416  1
  O  O27  1  0.54445514  0.84670148  0.47786841  1
  O  O28  1  0.30841015  0.45596698  0.47523180  1
  O  O29  1  0.14837915  0.68541557  0.47878416  1
  O  O30  1  0.13495431  0.63427548  0.35943368  1
  O  O31  1  0.49905193  0.86435959  0.35941288  1
  O  O32  1  0.36433442  0.49650377  0.36180912  1
  O  O33  1  0.13564041  0.50094807  0.85941288  1
  O  O34  1  0.36572452  0.86504569  0.85943368  1
  O  O35  1  0.50349623  0.63566558  0.86180912  1
  O  O36  1  0.01858666  0.83241564  0.41301065  1
  O  O37  1  0.82042728  0.99645498  0.41359514  1
  O  O38  1  0.18969178  0.19786668  0.41035255  1
  O  O39  1  0.00354502  0.17957272  0.91359514  1
  O  O40  1  0.16758436  0.98141334  0.91301065  1
  O  O41  1  0.80213332  0.81030822  0.91035255  1
  O  O42  1  0.96138329  0.15893983  0.58812466  1
  O  O43  1  0.18340033  0.03290938  0.58870530  1
  O  O44  1  0.84523200  0.81744971  0.58832773  1
  O  O45  1  0.96709062  0.81659967  0.08870530  1
  O  O46  1  0.84106017  0.03861671  0.08812466  1
  O  O47  1  0.18255029  0.15476800  0.08832773  1
  O  O48  1  0.68525366  0.16574864  0.74634365  1
  O  O49  1  0.48709428  0.32978798  0.74692814  1
  O  O50  1  0.85635878  0.53119968  0.74368555  1
  O  O51  1  0.67021202  0.51290572  0.24692814  1
  O  O52  1  0.83425136  0.31474634  0.24634365  1
  O  O53  1  0.46880032  0.14364122  0.24368555  1
  O  O54  1  0.62805029  0.49227283  0.92145766  1
  O  O55  1  0.85006733  0.36624238  0.92203830  1
  O  O56  1  0.51189900  0.15078271  0.92166073  1
  O  O57  1  0.63375762  0.14993267  0.42203830  1
  O  O58  1  0.50772717  0.37194971  0.42145766  1
  O  O59  1  0.84921729  0.48810100  0.42166073  1
  O  O60  1  0.35191966  0.49908264  0.07967765  1
  O  O61  1  0.15376028  0.66312198  0.08026214  1
  O  O62  1  0.52302478  0.86453368  0.07701955  1
  O  O63  1  0.33687802  0.84623972  0.58026214  1
  O  O64  1  0.50091736  0.64808034  0.57967765  1
  O  O65  1  0.13546632  0.47697522  0.57701955  1
  O  O66  1  0.29471629  0.82560683  0.25479166  1
  O  O67  1  0.51673333  0.69957638  0.25537230  1
  O  O68  1  0.17856500  0.48411671  0.25499473  1
  O  O69  1  0.30042362  0.48326667  0.75537230  1
  O  O70  1  0.17439317  0.70528371  0.75479166  1
  O  O71  1  0.51588329  0.82143500  0.75499473  1
loop_
_geom_bond_atom_site_label_1
_geom_bond_atom_site_label_2
_geom_bond_distance
_geom_bond_site_symmetry_2
Na0 O52 2.376991 1_555
Na0 O53 2.427820 1_555
Na0 O67 2.523453 1_545
Na0 O16 2.571327 1_555
Na0 O31 2.806589 1_545
Na0 O66 2.807261 1_545
Na0 O9 2.927912 1_545
Na0 O2 2.970812 1_555
Na1 O51 2.310125 1_555
Na1 O17 2.359925 1_555
Na1 O53 2.506731 1_555
Na1 O68 2.565102 1_555
Na1 O67 2.689050 1_555
Na1 O10 2.942153 1_555
Na1 O32 2.946308 1_555
Na2 O52 2.383106 1_555
Na2 O15 2.406253 1_555
Na2 O51 2.434317 1_555
Na2 O66 2.588158 1_655
Na2 O68 2.680154 1_655
Na2 O30 2.885652 1_655
Na2 O1 2.956377 1_555
Na2 O11 3.006256 1_655
Na3 O49 2.310124 1_555
Na3 O14 2.359925 1_555
Na3 O50 2.506731 1_555
Na3 O71 2.565102 1_555
Na3 O69 2.689050 1_555
Na3 O6 2.942153 1_555
Na3 O35 2.946308 1_555
Na4 O48 2.376991 1_555
Na4 O50 2.427820 1_555
Na4 O69 2.523453 1_655
Na4 O12 2.571327 1_555
Na4 O33 2.806589 1_655
Na4 O70 2.807261 1_655
Na4 O7 2.927912 1_655
Na4 O5 2.970812 1_555
Na5 O48 2.383106 1_555
Na5 O13 2.406253 1_555
Na5 O49 2.434317 1_555
Na5 O70 2.588158 1_545
Na5 O71 2.680154 1_545
Na5 O34 2.885652 1_545
Na5 O3 2.956377 1_555
Na5 O8 3.006256 1_545
Na6 O64 2.376996 1_555
Na6 O65 2.427835 1_555
Na6 O43 2.523453 1_555
Na6 O28 2.571312 1_555
Na6 O7 2.806589 1_555
Na6 O42 2.807261 1_455
Na6 O21 2.927912 1_555
Na6 O14 2.970812 1_555
Na7 O63 2.310118 1_555
Na7 O29 2.359899 1_555
Na7 O65 2.506716 1_555
Na7 O44 2.565102 1_455
Na7 O43 2.689050 1_565
Na7 O22 2.942153 1_455
Na7 O8 2.946308 1_555
Na8 O64 2.383097 1_555
Na8 O27 2.406232 1_555
Na8 O63 2.434328 1_555
Na8 O42 2.588158 1_565
Na8 O44 2.680154 1_555
Na8 O6 2.885652 1_555
Na8 O13 2.956377 1_565
Na8 O23 3.006256 1_565
Na9 O61 2.310118 1_555
Na9 O26 2.359899 1_554
Na9 O62 2.506716 1_555
Na9 O47 2.565102 1_565
Na9 O45 2.689050 1_455
Na9 O18 2.942153 1_565
Na9 O11 2.946308 1_555
Na10 O60 2.376996 1_555
Na10 O62 2.427835 1_555
Na10 O45 2.523453 1_555
Na10 O24 2.571312 1_554
Na10 O9 2.806589 1_555
Na10 O46 2.807261 1_565
Na10 O19 2.927912 1_555
Na10 O17 2.970812 1_555
Na11 O60 2.383097 1_555
Na11 O25 2.406232 1_554
Na11 O61 2.434327 1_555
Na11 O46 2.588158 1_455
Na11 O47 2.680154 1_555
Na11 O10 2.885652 1_555
Na11 O15 2.956377 1_455
Na11 O20 3.006256 1_455
Na12 O40 2.376991 1_655
Na12 O41 2.427820 1_555
Na12 O55 2.523461 1_555
Na12 O4 2.571327 1_555
Na12 O19 2.806570 1_556
Na12 O54 2.807252 1_555
Na12 O33 2.927912 1_655
Na12 O26 2.970812 1_655
Na13 O39 2.310125 1_655
Na13 O5 2.359925 1_555
Na13 O41 2.506731 1_545
Na13 O56 2.565084 1_555
Na13 O55 2.689038 1_555
Na13 O34 2.942153 1_545
Na13 O20 2.946281 1_556
Na14 O40 2.383106 1_545
Na14 O3 2.406253 1_555
Na14 O39 2.434317 1_555
Na14 O54 2.588161 1_555
Na14 O56 2.680168 1_555
Na14 O18 2.885638 1_556
Na14 O25 2.956377 1_555
Na14 O35 3.006256 1_555
Na15 O37 2.310124 1_545
Na15 O2 2.359925 1_555
Na15 O38 2.506731 1_655
Na15 O59 2.565084 1_555
Na15 O57 2.689038 1_555
Na15 O30 2.942153 1_655
Na15 O23 2.946281 1_555
Na16 O36 2.376991 1_545
Na16 O38 2.427820 1_555
Na16 O57 2.523461 1_555
Na16 O0 2.571327 1_555
Na16 O21 2.806570 1_555
Na16 O58 2.807252 1_555
Na16 O31 2.927912 1_545
Na16 O29 2.970812 1_545
Na17 O36 2.383106 1_655
Na17 O1 2.406253 1_555
Na17 O37 2.434317 1_555
Na17 O58 2.588161 1_555
Na17 O59 2.680168 1_555
Na17 O22 2.885638 1_555
Na17 O27 2.956377 1_555
Na17 O32 3.006256 1_555
Na18 O36 2.342404 1_655
Na18 O37 2.350057 1_555
Na18 O38 2.576191 1_665
Na18 O44 2.604372 1_555
Na18 O43 2.663689 1_665
Na18 O42 2.728902 1_565
Na19 O40 2.342404 1_545
Na19 O39 2.350057 1_555
Na19 O41 2.576191 1_445
Na19 O47 2.604372 1_556
Na19 O45 2.663689 1_446
Na19 O46 2.728902 1_456
Na20 O48 2.342404 1_555
Na20 O49 2.350057 1_555
Na20 O50 2.576191 1_555
Na20 O56 2.604372 1_555
Na20 O55 2.663689 1_555
Na20 O54 2.728902 1_555
Na21 O52 2.342404 1_555
Na21 O51 2.350057 1_555
Na21 O53 2.576191 1_555
Na21 O59 2.604372 1_555
Na21 O57 2.663689 1_555
Na21 O58 2.728902 1_555
Na22 O60 2.342404 1_555
Na22 O61 2.350057 1_555
Na22 O62 2.576191 1_555
Na22 O68 2.604372 1_555
Na22 O67 2.663689 1_555
Na22 O66 2.728902 1_555
Na23 O64 2.342404 1_555
Na23 O63 2.350057 1_555
Na23 O65 2.576191 1_555
Na23 O71 2.604372 1_555
Na23 O69 2.663689 1_555
Na23 O70 2.728902 1_555
Mg0 O1 1.973724 1_555
Mg0 O2 1.980576 1_565
Mg0 O0 2.078648 1_665
Mg0 O37 2.103474 1_555
Mg0 O36 2.106979 1_655
Mg0 O38 2.236775 1_665
Mg1 O3 1.973724 1_555
Mg1 O5 1.980576 1_455
Mg1 O4 2.078648 1_445
Mg1 O39 2.103474 1_555
Mg1 O40 2.106980 1_545
Mg1 O41 2.236775 1_445
Mg2 O13 1.973724 1_555
Mg2 O14 1.980576 1_555
Mg2 O12 2.078648 1_555
Mg2 O49 2.103474 1_555
Mg2 O48 2.106979 1_555
Mg2 O50 2.236775 1_555
Mg3 O15 1.973724 1_555
Mg3 O17 1.980576 1_555
Mg3 O16 2.078648 1_555
Mg3 O51 2.103474 1_555
Mg3 O52 2.106980 1_555
Mg3 O53 2.236775 1_555
Mg4 O25 1.973724 1_554
Mg4 O26 1.980576 1_554
Mg4 O24 2.078648 1_554
Mg4 O61 2.103474 1_555
Mg4 O60 2.106979 1_555
Mg4 O62 2.236775 1_555
Mg5 O27 1.973724 1_555
Mg5 O29 1.980576 1_555
Mg5 O28 2.078648 1_555
Mg5 O63 2.103474 1_555
Mg5 O64 2.106980 1_555
Mg5 O65 2.236775 1_555
O0 P0 1.516174 1_545
O1 Si0 1.592564 1_555
O2 Si1 1.588377 1_555
O3 Si2 1.592564 1_555
O4 P1 1.516174 1_655
O5 Si3 1.588377 1_555
O6 Si3 1.705610 1_565
O6 Ta0 1.945282 1_565
O7 Si2 1.714627 1_555
O7 Ta0 1.960788 1_455
O8 P1 1.599690 1_555
O8 Ta0 2.025361 1_465
O9 Si0 1.714627 1_555
O9 Ta1 1.960788 1_565
O10 Si1 1.705610 1_455
O10 Ta1 1.945282 1_455
O11 P0 1.599690 1_555
O11 Ta1 2.025361 1_465
O12 P2 1.516174 1_555
O13 Si4 1.592564 1_555
O14 Si5 1.588377 1_555
O15 Si6 1.592564 1_555
O16 P3 1.516174 1_555
O17 Si7 1.588377 1_555
O18 Si7 1.705610 1_555
O18 Ta2 1.945282 1_554
O19 Si6 1.714627 1_555
O19 Ta2 1.960788 1_554
O20 P3 1.599690 1_555
O20 Ta2 2.025361 1_554
O21 Si4 1.714627 1_555
O21 Ta3 1.960788 1_555
O22 Si5 1.705610 1_555
O22 Ta3 1.945282 1_555
O23 P2 1.599690 1_555
O23 Ta3 2.025361 1_555
O24 P4 1.516174 1_555
O25 Si8 1.592564 1_555
O26 Si9 1.588377 1_555
O27 Si10 1.592564 1_555
O28 P5 1.516174 1_555
O29 Si11 1.588377 1_555
O30 Si11 1.705610 1_555
O30 Ta4 1.945282 1_555
O31 Si10 1.714627 1_555
O31 Ta4 1.960788 1_555
O32 P5 1.599690 1_555
O32 Ta4 2.025361 1_555
O33 Si8 1.714627 1_555
O33 Ta5 1.960788 1_555
O34 Si9 1.705610 1_555
O34 Ta5 1.945282 1_555
O35 P4 1.599690 1_555
O35 Ta5 2.025361 1_555
O36 Si11 1.615595 1_555
O37 Si10 1.614372 1_555
O38 P5 1.524272 1_555
O39 Si8 1.614372 1_555
O40 Si9 1.615595 1_555
O41 P4 1.524272 1_555
O42 P2 1.590460 1_555
O42 Ta0 2.083646 1_555
O43 Si4 1.689684 1_555
O43 Ta0 2.026584 1_455
O44 Si5 1.689524 1_555
O44 Ta0 2.028295 1_565
O45 Si6 1.689684 1_555
O45 Ta1 2.026584 1_565
O46 P3 1.590460 1_555
O46 Ta1 2.083646 1_555
O47 Si7 1.689524 1_555
O47 Ta1 2.028295 1_455
O48 Si3 1.615595 1_555
O49 Si2 1.614372 1_555
O50 P1 1.524272 1_655
O51 Si0 1.614372 1_555
O52 Si1 1.615595 1_555
O53 P0 1.524272 1_545
O54 P4 1.590473 1_555
O54 Ta2 2.083646 1_555
O55 Si8 1.689670 1_655
O55 Ta2 2.026584 1_555
O56 Si9 1.689523 1_545
O56 Ta2 2.028295 1_555
O57 Si10 1.689670 1_545
O57 Ta3 2.026584 1_555
O58 P5 1.590473 1_555
O58 Ta3 2.083646 1_555
O59 Si11 1.689523 1_655
O59 Ta3 2.028295 1_555
O60 Si7 1.615608 1_555
O61 Si6 1.614358 1_455
O62 P3 1.524266 1_565
O63 Si4 1.614358 1_565
O64 Si5 1.615608 1_555
O65 P2 1.524266 1_455
O66 P0 1.590460 1_555
O66 Ta4 2.083646 1_555
O67 Si0 1.689684 1_555
O67 Ta4 2.026584 1_555
O68 Si1 1.689524 1_455
O68 Ta4 2.028295 1_555
O69 Si2 1.689684 1_555
O69 Ta5 2.026584 1_555
O70 P1 1.590460 1_555
O70 Ta5 2.083646 1_555
O71 Si3 1.689524 1_565
O71 Ta5 2.028295 1_555
