# generated using pymatgen
data_Sr3MgTi2O7
_symmetry_space_group_name_H-M   'P 1'
_cell_length_a   5.12343528
_cell_length_b   3.88697456
_cell_length_c   10.48111630
_cell_angle_alpha   100.68605803
_cell_angle_beta   104.14712548
_cell_angle_gamma   90.00000270
_symmetry_Int_Tables_number   1
_chemical_formula_structural   Sr3MgTi2O7
_chemical_formula_sum   'Sr3 Mg1 Ti2 O7'
_cell_volume   198.66236958
_cell_formula_units_Z   1
loop_
 _symmetry_equiv_pos_site_id
 _symmetry_equiv_pos_as_xyz
  1  'x, y, z'
loop_
 _atom_site_type_symbol
 _atom_site_label
 _atom_site_symmetry_multiplicity
 _atom_site_fract_x
 _atom_site_fract_y
 _atom_site_fract_z
 _atom_site_occupancy
  Sr  Sr0  1  0.32236539  0.32236539  0.64473077  1
  Sr  Sr1  1  0.50000000  0.50000000  0.00000000  1
  Sr  Sr2  1  0.67763461  0.67763461  0.35526923  1
  Mg  Mg0  1  0.00000000  0.50000000  0.00000000  1
  Ti  Ti0  1  0.11074662  0.11074662  0.22149324  1
  Ti  Ti1  1  0.88925338  0.88925338  0.77850676  1
  O  O0  1  0.90307218  0.40307218  0.80614335  1
  O  O1  1  0.79825793  0.79825793  0.59651587  1
  O  O2  1  0.00000000  0.00000000  0.00000000  1
  O  O3  1  0.59637723  0.09637723  0.19275547  1
  O  O4  1  0.09692782  0.59692782  0.19385665  1
  O  O5  1  0.40362277  0.90362277  0.80724453  1
  O  O6  1  0.20174207  0.20174207  0.40348413  1
loop_
_geom_bond_atom_site_label_1
_geom_bond_atom_site_label_2
_geom_bond_distance
_geom_bond_site_symmetry_2
Mg0 O0 1.933853 1_454
Mg0 O4 1.933853 1_555
Mg0 O2 1.943487 1_565
Mg0 O2 1.943487 1_555
Mg0 Sr1 2.561718 1_555
Mg0 Sr1 2.561718 1_455
O0 Ti1 1.962942 1_555
O0 Ti1 1.962946 1_545
O1 Ti1 1.815484 1_555
O1 Sr2 2.406600 1_555
O2 Ti0 2.209546 1_555
O2 Ti1 2.209546 1_444
O3 Sr2 2.530885 1_545
O3 Sr2 2.530888 1_555
O3 Ti0 2.577706 1_555
O3 Ti0 2.577711 1_655
O3 Sr1 2.733963 1_545
O3 Sr1 2.733966 1_555
O4 Ti0 1.962942 1_555
O4 Ti0 1.962946 1_565
O5 Sr0 2.530885 1_565
O5 Sr0 2.530888 1_555
O5 Ti1 2.577706 1_555
O5 Ti1 2.577711 1_455
O5 Sr1 2.733963 1_566
O5 Sr1 2.733966 1_556
O6 Ti0 1.815484 1_555
O6 Sr0 2.406600 1_555
