# generated using pymatgen
data_DySi
_symmetry_space_group_name_H-M   'P 1'
_cell_length_a   3.81865721
_cell_length_b   4.27441374
_cell_length_c   5.68174049
_cell_angle_alpha   112.09563625
_cell_angle_beta   90.00000000
_cell_angle_gamma   90.00000000
_symmetry_Int_Tables_number   1
_chemical_formula_structural   DySi
_chemical_formula_sum   'Dy2 Si2'
_cell_volume   85.92922600
_cell_formula_units_Z   2
loop_
 _symmetry_equiv_pos_site_id
 _symmetry_equiv_pos_as_xyz
  1  'x, y, z'
loop_
 _atom_site_type_symbol
 _atom_site_label
 _atom_site_symmetry_multiplicity
 _atom_site_fract_x
 _atom_site_fract_y
 _atom_site_fract_z
 _atom_site_occupancy
  Dy  Dy0  1  0.25000000  0.85932531  0.71864862  1
  Dy  Dy1  1  0.75000000  0.14067469  0.28135138  1
  Si  Si0  1  0.25000000  0.57588617  0.15177233  1
  Si  Si1  1  0.75000000  0.42411383  0.84822767  1
loop_
_geom_bond_atom_site_label_1
_geom_bond_atom_site_label_2
_geom_bond_distance
_geom_bond_site_symmetry_2
Dy0 Si1 2.945932 1_465
Dy0 Si1 2.945932 1_565
Dy0 Si1 2.945939 1_555
Dy0 Si1 2.945939 1_455
Dy0 Si0 2.984296 1_555
Dy0 Si0 3.125183 1_566
Dy0 Si0 3.125190 1_556
Dy1 Si0 2.945932 1_645
Dy1 Si0 2.945932 1_545
Dy1 Si0 2.945939 1_555
Dy1 Si0 2.945939 1_655
Dy1 Si1 2.984296 1_555
Dy1 Si1 3.125183 1_544
Dy1 Si1 3.125190 1_554
Si0 Si1 2.489806 1_554
Si0 Si1 2.489806 1_454
