# generated using pymatgen
data_Zr2InCo2
_symmetry_space_group_name_H-M   'P 1'
_cell_length_a   7.20526240
_cell_length_b   7.20526240
_cell_length_c   3.36455598
_cell_angle_alpha   90.00000000
_cell_angle_beta   90.00000000
_cell_angle_gamma   90.00000000
_symmetry_Int_Tables_number   1
_chemical_formula_structural   Zr2InCo2
_chemical_formula_sum   'Zr4 In2 Co4'
_cell_volume   174.67363638
_cell_formula_units_Z   2
loop_
 _symmetry_equiv_pos_site_id
 _symmetry_equiv_pos_as_xyz
  1  'x, y, z'
loop_
 _atom_site_type_symbol
 _atom_site_label
 _atom_site_symmetry_multiplicity
 _atom_site_fract_x
 _atom_site_fract_y
 _atom_site_fract_z
 _atom_site_occupancy
  Zr  Zr0  1  0.67250821  0.17250821  0.50000000  1
  Zr  Zr1  1  0.17250821  0.32749179  0.50000000  1
  Zr  Zr2  1  0.82749179  0.67250821  0.50000000  1
  Zr  Zr3  1  0.32749179  0.82749179  0.50000000  1
  In  In0  1  0.00000000  0.00000000  -0.00000000  1
  In  In1  1  0.50000000  0.50000000  -0.00000000  1
  Co  Co0  1  0.38279477  0.11720523  -0.00000000  1
  Co  Co1  1  0.11720523  0.61720523  -0.00000000  1
  Co  Co2  1  0.61720523  0.88279477  0.00000000  1
  Co  Co3  1  0.88279477  0.38279477  0.00000000  1
loop_
_geom_bond_atom_site_label_1
_geom_bond_atom_site_label_2
_geom_bond_distance
_geom_bond_site_symmetry_2
In0 Zr0 3.153259 1_454
In0 Zr2 3.153259 1_445
In0 Zr2 3.153259 1_444
In0 Zr0 3.153259 1_455
In0 Zr1 3.153259 1_555
In0 Zr1 3.153259 1_554
In0 Zr3 3.153259 1_544
In0 Zr3 3.153259 1_545
In1 Zr2 3.153259 1_554
In1 Zr3 3.153259 1_554
In1 Zr3 3.153259 1_555
In1 Zr2 3.153259 1_555
In1 Zr0 3.153259 1_555
In1 Zr0 3.153259 1_554
In1 Zr1 3.153259 1_555
In1 Zr1 3.153259 1_554
Co0 Co2 2.388591 1_545
Co0 Zr0 2.710412 1_555
Co0 Zr0 2.710412 1_554
Co0 Zr3 2.710412 1_545
Co0 Zr3 2.710412 1_544
Co0 Zr1 2.724250 1_555
Co0 Zr1 2.724250 1_554
Co0 In1 2.884526 1_555
Co0 In0 2.884526 1_555
Co1 Co3 2.388591 1_455
Co1 Zr1 2.710412 1_555
Co1 Zr1 2.710412 1_554
Co1 Zr2 2.710412 1_455
Co1 Zr2 2.710412 1_454
Co1 Zr3 2.724250 1_554
Co1 Zr3 2.724250 1_555
Co1 In0 2.884526 1_565
Co1 In1 2.884526 1_555
Co2 Zr0 2.710412 1_565
Co2 Zr0 2.710412 1_564
Co2 Zr3 2.710412 1_554
Co2 Zr3 2.710412 1_555
Co2 Zr2 2.724250 1_554
Co2 Zr2 2.724250 1_555
Co2 In1 2.884526 1_555
Co2 In0 2.884526 1_665
Co3 Zr1 2.710412 1_655
Co3 Zr1 2.710412 1_654
Co3 Zr2 2.710412 1_555
Co3 Zr2 2.710412 1_554
Co3 Zr0 2.724250 1_554
Co3 Zr0 2.724250 1_555
Co3 In1 2.884526 1_555
Co3 In0 2.884526 1_655
