# generated using pymatgen
data_Mg2Ga5
_symmetry_space_group_name_H-M   'P 1'
_cell_length_a   7.01949303
_cell_length_b   7.01949332
_cell_length_c   7.01225108
_cell_angle_alpha   104.67278928
_cell_angle_beta   104.67278696
_cell_angle_gamma   119.60174872
_symmetry_Int_Tables_number   1
_chemical_formula_structural   Mg2Ga5
_chemical_formula_sum   'Mg4 Ga10'
_cell_volume   259.54918634
_cell_formula_units_Z   2
loop_
 _symmetry_equiv_pos_site_id
 _symmetry_equiv_pos_as_xyz
  1  'x, y, z'
loop_
 _atom_site_type_symbol
 _atom_site_label
 _atom_site_symmetry_multiplicity
 _atom_site_fract_x
 _atom_site_fract_y
 _atom_site_fract_z
 _atom_site_occupancy
  Mg  Mg0  1  0.70085646  0.70085645  0.40198432  1
  Mg  Mg1  1  0.70103048  0.29896943  -0.00000004  1
  Mg  Mg2  1  0.29896947  0.70103051  -0.00000004  1
  Mg  Mg3  1  0.29914351  0.29914353  0.59801500  1
  Ga  Ga0  1  0.81793034  0.52037586  0.70255018  1
  Ga  Ga1  1  0.11539774  0.81776016  0.29719913  1
  Ga  Ga2  1  0.52037586  0.81793035  0.70255020  1
  Ga  Ga3  1  0.81776015  0.11539773  0.29719911  1
  Ga  Ga4  1  0.29418371  0.29418367  -0.00007046  1
  Ga  Ga5  1  0.70581619  0.70581620  0.00007018  1
  Ga  Ga6  1  0.88460233  0.18223980  0.70280090  1
  Ga  Ga7  1  0.18206969  0.47962426  0.29744981  1
  Ga  Ga8  1  0.18223980  0.88460234  0.70280092  1
  Ga  Ga9  1  0.47962428  0.18206971  0.29744980  1
loop_
_geom_bond_atom_site_label_1
_geom_bond_atom_site_label_2
_geom_bond_distance
_geom_bond_site_symmetry_2
Ga0 Ga8 2.571468 1_655
Ga0 Ga9 2.634758 1_555
Ga0 Ga6 2.636639 1_555
Ga0 Ga5 2.671030 1_556
Ga0 Mg2 2.867436 1_656
Ga0 Mg0 2.868152 1_555
Ga0 Mg1 2.947652 1_556
Ga0 Mg3 2.948620 1_555
Ga1 Ga9 2.571469 1_565
Ga1 Ga7 2.636638 1_555
Ga1 Ga8 2.638196 1_555
Ga1 Ga5 2.669932 1_455
Ga1 Mg2 2.865920 1_555
Ga1 Mg3 2.869890 1_565
Ga1 Mg1 2.947026 1_455
Ga1 Mg0 2.951306 1_455
Ga2 Ga6 2.571468 1_565
Ga2 Ga7 2.634758 1_555
Ga2 Ga8 2.636639 1_555
Ga2 Ga5 2.671030 1_556
Ga2 Mg1 2.867436 1_566
Ga2 Mg0 2.868152 1_555
Ga2 Mg2 2.947652 1_556
Ga2 Mg3 2.948620 1_555
Ga3 Ga7 2.571469 1_655
Ga3 Ga9 2.636637 1_555
Ga3 Ga6 2.638196 1_555
Ga3 Ga5 2.669932 1_545
Ga3 Mg1 2.865920 1_555
Ga3 Mg3 2.869889 1_655
Ga3 Mg2 2.947025 1_545
Ga3 Mg0 2.951307 1_545
Ga4 Ga8 2.669930 1_544
Ga4 Ga6 2.669931 1_454
Ga4 Ga9 2.671031 1_555
Ga4 Ga7 2.671031 1_555
Ga4 Mg0 2.835748 1_555
Ga4 Mg3 2.836125 1_554
Ga4 Mg1 2.839287 1_555
Ga4 Mg2 2.839287 1_555
Ga4 Ga5 2.906331 1_555
Ga5 Mg3 2.835749 1_554
Ga5 Mg0 2.836121 1_555
Ga5 Mg2 2.839287 1_555
Ga5 Mg1 2.839288 1_555
Ga6 Mg1 2.865920 1_556
Ga6 Mg0 2.869891 1_545
Ga6 Mg2 2.947025 1_656
Ga6 Mg3 2.951309 1_655
Ga7 Mg1 2.867436 1_455
Ga7 Mg3 2.868149 1_555
Ga7 Mg2 2.947652 1_555
Ga7 Mg0 2.948620 1_555
Ga8 Mg2 2.865920 1_556
Ga8 Mg0 2.869891 1_455
Ga8 Mg1 2.947025 1_566
Ga8 Mg3 2.951309 1_565
Ga9 Mg2 2.867436 1_545
Ga9 Mg3 2.868149 1_555
Ga9 Mg1 2.947651 1_555
Ga9 Mg0 2.948620 1_555
