# generated using pymatgen
data_Na21Mg10Ta2P15(SO24)3
_symmetry_space_group_name_H-M   'P 1'
_cell_length_a   8.98033159
_cell_length_b   8.99373675
_cell_length_c   22.13825228
_cell_angle_alpha   89.86630375
_cell_angle_beta   89.92394053
_cell_angle_gamma   120.05071124
_symmetry_Int_Tables_number   1
_chemical_formula_structural   Na21Mg10Ta2P15(SO24)3
_chemical_formula_sum   'Na21 Mg10 Ta2 P15 S3 O72'
_cell_volume   1547.68070592
_cell_formula_units_Z   1
loop_
 _symmetry_equiv_pos_site_id
 _symmetry_equiv_pos_as_xyz
  1  'x, y, z'
loop_
 _atom_site_type_symbol
 _atom_site_label
 _atom_site_symmetry_multiplicity
 _atom_site_fract_x
 _atom_site_fract_y
 _atom_site_fract_z
 _atom_site_occupancy
  Na  Na0  1  0.36399509  0.35473642  0.24798816  1
  Na  Na1  1  0.98813192  0.35441116  0.74281515  1
  Na  Na2  1  0.36506728  0.01008890  0.74293522  1
  Na  Na3  1  0.29440798  0.32648623  0.58110280  1
  Na  Na4  1  0.03930463  0.69925984  0.58317017  1
  Na  Na5  1  0.66719111  0.97674504  0.58231806  1
  Na  Na6  1  0.30093816  0.97599150  0.08676953  1
  Na  Na7  1  0.66090988  0.69185160  0.08885692  1
  Na  Na8  1  0.04001426  0.33220259  0.08749895  1
  Na  Na9  1  0.96471456  0.66870901  0.91423374  1
  Na  Na10  1  0.70465039  0.03572041  0.91466876  1
  Na  Na11  1  0.33161830  0.29494215  0.91763192  1
  Na  Na12  1  0.96372447  0.29572505  0.41659243  1
  Na  Na13  1  0.33176432  0.03687567  0.41711808  1
  Na  Na14  1  0.70414445  0.66841492  0.41367669  1
  Na  Na15  1  0.00522123  0.00611885  0.49877426  1
  Na  Na16  1  0.00668480  0.00566109  0.99933614  1
  Na  Na17  1  0.66590257  0.34155618  0.82905589  1
  Na  Na18  1  0.67533703  0.33300954  0.32927533  1
  Na  Na19  1  0.33327081  0.66850860  0.16842854  1
  Na  Na20  1  0.33489517  0.66680460  0.65979332  1
  Mg  Mg0  1  0.99807146  0.99945560  0.34786646  1
  Mg  Mg1  1  0.99981983  0.99848271  0.84834029  1
  Mg  Mg2  1  0.00356635  0.00422426  0.65113097  1
  Mg  Mg3  1  0.00441807  0.00421054  0.15810233  1
  Mg  Mg4  1  0.66745251  0.33328797  0.68330081  1
  Mg  Mg5  1  0.66655590  0.33549584  0.18910411  1
  Mg  Mg6  1  0.66008046  0.33158824  0.98138147  1
  Mg  Mg7  1  0.66513470  0.32605385  0.48204782  1
  Mg  Mg8  1  0.33388507  0.66153483  0.01560303  1
  Mg  Mg9  1  0.32861861  0.66711879  0.51604279  1
  Ta  Ta0  1  0.33296758  0.67021767  0.31279330  1
  Ta  Ta1  1  0.33635906  0.66629640  0.81303289  1
  P  P0  1  0.29452101  0.00090120  0.24991850  1
  P  P1  1  0.70841928  0.70615300  0.25019131  1
  P  P2  1  0.99496134  0.29342263  0.25063666  1
  P  P3  1  0.29636140  0.29288650  0.75111044  1
  P  P4  1  0.99397827  0.70430973  0.75142351  1
  P  P5  1  0.70934445  0.00087086  0.75059159  1
  P  P6  1  0.96200214  0.33298811  0.58352844  1
  P  P7  1  0.37094689  0.03829253  0.58378659  1
  P  P8  1  0.37090673  0.33245238  0.08295759  1
  P  P9  1  0.62950063  0.66986087  0.91893575  1
  P  P10  1  0.03895496  0.37158692  0.91856534  1
  P  P11  1  0.33200206  0.95823329  0.91888157  1
  P  P12  1  0.62747305  0.95794495  0.41869782  1
  P  P13  1  0.33302251  0.37353095  0.41833202  1
  P  P14  1  0.03924903  0.66868760  0.41835472  1
  S  S0  1  0.66733552  0.62590477  0.58298076  1
  S  S1  1  0.95876826  0.62537897  0.08242286  1
  S  S2  1  0.66689197  0.04143675  0.08268862  1
  O  O0  1  0.21072883  0.02748964  0.30575957  1
  O  O1  1  0.81147283  0.78963369  0.30677439  1
  O  O2  1  0.97805993  0.19039230  0.30742897  1
  O  O3  1  0.21465969  0.18665525  0.80836472  1
  O  O4  1  0.97726003  0.78617209  0.80928704  1
  O  O5  1  0.81541560  0.02737060  0.80764365  1
  O  O6  1  0.78202644  0.96657235  0.69382118  1
  O  O7  1  0.18122987  0.22298529  0.69541187  1
  O  O8  1  0.03819112  0.81849110  0.69544143  1
  O  O9  1  0.77985814  0.81193941  0.19184281  1
  O  O10  1  0.04076082  0.22525029  0.19346205  1
  O  O11  1  0.18791872  0.96380055  0.19181761  1
  O  O12  1  0.88091479  0.36382983  0.64043345  1
  O  O13  1  0.48090800  0.12118186  0.64077014  1
  O  O14  1  0.63962513  0.51636095  0.63620585  1
  O  O15  1  0.87615138  0.51488458  0.13450015  1
  O  O16  1  0.64236854  0.12558796  0.13471324  1
  O  O17  1  0.48522373  0.36086163  0.13809985  1
  O  O18  1  0.45200621  0.30369932  0.02518638  1
  O  O19  1  0.85723911  0.54832153  0.02615326  1
  O  O20  1  0.69571736  0.14496119  0.02635395  1
  O  O21  1  0.45281261  0.15159444  0.52726576  1
  O  O22  1  0.69438735  0.54995717  0.52760908  1
  O  O23  1  0.85106988  0.30655683  0.52699133  1
  O  O24  1  0.54837478  0.69986982  0.97461688  1
  O  O25  1  0.15076242  0.45501725  0.97378876  1
  O  O26  1  0.30388717  0.84598275  0.97427348  1
  O  O27  1  0.54603160  0.84716594  0.47483119  1
  O  O28  1  0.30501650  0.45711432  0.47391499  1
  O  O29  1  0.14973459  0.69872288  0.47438888  1
  O  O30  1  0.13905221  0.64322567  0.36305011  1
  O  O31  1  0.50320126  0.85797320  0.36340278  1
  O  O32  1  0.35690269  0.49323624  0.36133193  1
  O  O33  1  0.13468488  0.49256622  0.86164214  1
  O  O34  1  0.35604120  0.86203745  0.86207665  1
  O  O35  1  0.50404580  0.64397297  0.86358161  1
  O  O36  1  0.02132457  0.82872098  0.40960186  1
  O  O37  1  0.80640994  0.97748819  0.41022459  1
  O  O38  1  0.17277032  0.19440708  0.41061535  1
  O  O39  1  0.02067009  0.19322616  0.91053953  1
  O  O40  1  0.17237240  0.97776806  0.91101570  1
  O  O41  1  0.80788340  0.82948046  0.91014094  1
  O  O42  1  0.97818601  0.16816650  0.58879318  1
  O  O43  1  0.18669980  0.01485165  0.58909295  1
  O  O44  1  0.82286372  0.80023752  0.58914539  1
  O  O45  1  0.97570367  0.79953763  0.08746040  1
  O  O46  1  0.82094672  0.01870270  0.08779854  1
  O  O47  1  0.18685502  0.16927329  0.08783174  1
  O  O48  1  0.67874522  0.15517307  0.74590806  1
  O  O49  1  0.47586585  0.31586414  0.74407530  1
  O  O50  1  0.84660594  0.51909052  0.74559354  1
  O  O51  1  0.67119958  0.52025547  0.24505178  1
  O  O52  1  0.84377029  0.32232904  0.24286555  1
  O  O53  1  0.47435377  0.15933973  0.24367873  1
  O  O54  1  0.64101525  0.50432479  0.91986526  1
  O  O55  1  0.86136089  0.35995439  0.92050856  1
  O  O56  1  0.49871691  0.13518782  0.91956069  1
  O  O57  1  0.63782609  0.13443968  0.41908980  1
  O  O58  1  0.49941833  0.36287278  0.41972335  1
  O  O59  1  0.86200478  0.50305521  0.41989250  1
  O  O60  1  0.35122190  0.49643296  0.07832604  1
  O  O61  1  0.13625890  0.64866018  0.07756293  1
  O  O62  1  0.50890629  0.86667419  0.07762647  1
  O  O63  1  0.35521595  0.85728079  0.57896007  1
  O  O64  1  0.51178718  0.64563237  0.57830085  1
  O  O65  1  0.14658757  0.49405369  0.57893409  1
  O  O66  1  0.31420380  0.83456261  0.25905740  1
  O  O67  1  0.51732536  0.68449326  0.25811180  1
  O  O68  1  0.16996065  0.47998847  0.25880462  1
  O  O69  1  0.31142336  0.47882026  0.76024036  1
  O  O70  1  0.16835171  0.68697493  0.75948667  1
  O  O71  1  0.51859003  0.83521683  0.75948789  1
loop_
_geom_bond_atom_site_label_1
_geom_bond_atom_site_label_2
_geom_bond_distance
_geom_bond_site_symmetry_2
Na0 O51 2.391059 1_555
Na0 O53 2.413378 1_555
Na0 O68 2.515679 1_555
Na0 O67 2.579893 1_555
Na0 O17 2.653059 1_555
Na0 O10 2.805269 1_555
Na0 O32 2.818781 1_555
Na0 O0 2.848340 1_555
Na1 O50 2.387088 1_555
Na1 O48 2.438802 1_555
Na1 O12 2.481550 1_555
Na1 O69 2.565393 1_655
Na1 O70 2.619193 1_655
Na1 O7 2.749416 1_655
Na1 O5 2.919270 1_555
Na1 O33 2.929643 1_655
Na2 O49 2.411096 1_555
Na2 O48 2.441650 1_555
Na2 O13 2.477548 1_555
Na2 O70 2.559623 1_545
Na2 O71 2.584360 1_545
Na2 O8 2.764477 1_545
Na2 O3 2.932237 1_555
Na2 O34 2.934510 1_545
Na3 O65 2.457479 1_555
Na3 O42 2.463462 1_455
Na3 O43 2.470714 1_555
Na3 O64 2.537797 1_555
Na3 O28 2.625738 1_555
Na3 O7 2.708892 1_555
Na3 O21 2.857171 1_555
Na3 O14 2.955143 1_555
Na4 O63 2.457147 1_555
Na4 O43 2.462707 1_565
Na4 O65 2.474776 1_555
Na4 O44 2.527464 1_455
Na4 O29 2.604142 1_555
Na4 O8 2.711231 1_555
Na4 O12 2.900162 1_455
Na4 O22 2.960164 1_455
Na5 O42 2.443581 1_565
Na5 O63 2.448522 1_555
Na5 O64 2.581264 1_555
Na5 O44 2.592173 1_555
Na5 O27 2.637088 1_555
Na5 O6 2.695455 1_555
Na5 O23 2.845630 1_565
Na5 O13 2.887744 1_565
Na6 O47 2.419859 1_565
Na6 O11 2.516260 1_555
Na6 O62 2.516852 1_555
Na6 O45 2.531177 1_455
Na6 O61 2.557062 1_555
Na6 O26 2.759480 1_554
Na6 O16 2.867357 1_565
Na6 O18 2.890955 1_565
Na7 O60 2.446645 1_555
Na7 O45 2.487597 1_555
Na7 O9 2.523508 1_555
Na7 O46 2.544744 1_565
Na7 O62 2.558504 1_555
Na7 O24 2.738916 1_554
Na7 O17 2.795651 1_555
Na8 O47 2.412769 1_555
Na8 O60 2.428233 1_555
Na8 O46 2.502918 1_455
Na8 O10 2.534605 1_555
Na8 O61 2.535502 1_555
Na8 O25 2.725136 1_554
Na8 O15 2.893599 1_455
Na8 O20 3.005838 1_455
Na9 O55 2.451176 1_555
Na9 O40 2.452780 1_655
Na9 O41 2.474231 1_555
Na9 O54 2.519013 1_555
Na9 O4 2.528889 1_555
Na9 O19 2.679063 1_556
Na9 O33 2.936109 1_655
Na9 O26 2.956865 1_655
Na10 O56 2.426718 1_555
Na10 O41 2.456192 1_545
Na10 O39 2.457932 1_655
Na10 O55 2.528411 1_555
Na10 O5 2.584238 1_555
Na10 O20 2.678579 1_556
Na10 O24 2.930083 1_545
Na10 O34 2.952437 1_545
Na11 O54 2.455432 1_555
Na11 O39 2.470328 1_555
Na11 O40 2.473991 1_545
Na11 O56 2.545039 1_555
Na11 O18 2.601335 1_556
Na11 O3 2.626103 1_555
Na11 O25 2.932730 1_555
Na11 O35 2.965260 1_555
Na12 O59 2.454218 1_555
Na12 O38 2.466835 1_655
Na12 O37 2.481996 1_545
Na12 O57 2.533768 1_555
Na12 O2 2.624195 1_555
Na12 O23 2.664499 1_555
Na12 O28 2.945226 1_655
Na12 O30 2.949768 1_655
Na13 O57 2.431328 1_555
Na13 O36 2.465786 1_545
Na13 O38 2.468263 1_555
Na13 O58 2.538961 1_555
Na13 O21 2.662303 1_555
Na13 O0 2.679995 1_555
Na13 O29 2.919989 1_545
Na13 O31 2.976283 1_545
Na14 O58 2.426330 1_555
Na14 O37 2.453201 1_555
Na14 O36 2.466947 1_655
Na14 O59 2.520220 1_555
Na14 O1 2.578370 1_555
Na14 O22 2.719908 1_555
Na14 O32 2.940541 1_555
Na14 O27 2.953778 1_555
Na15 O38 2.523008 1_555
Na15 O42 2.553654 1_455
Na15 O43 2.557615 1_555
Na15 O37 2.578381 1_445
Na15 O36 2.590099 1_545
Na15 O44 2.655204 1_445
Na16 O47 2.501750 1_556
Na16 O40 2.543288 1_545
Na16 O39 2.549019 1_555
Na16 O45 2.604852 1_446
Na16 O41 2.605367 1_445
Na16 O46 2.611442 1_456
Na17 O50 2.445424 1_555
Na17 O49 2.474032 1_555
Na17 O48 2.533581 1_555
Na17 O54 2.564121 1_555
Na17 O56 2.626260 1_555
Na17 O55 2.632017 1_555
Na18 O52 2.468858 1_555
Na18 O51 2.522333 1_555
Na18 O53 2.547079 1_555
Na18 O59 2.574701 1_555
Na18 O57 2.575941 1_555
Na18 O58 2.645080 1_555
Na19 O67 2.542960 1_555
Na19 O68 2.552378 1_555
Na19 O66 2.560153 1_555
Na19 O60 2.581348 1_555
Na19 O62 2.620029 1_555
Na19 O61 2.627436 1_555
Na20 O63 2.417034 1_555
Na20 O65 2.422318 1_555
Na20 O64 2.472139 1_555
Na20 O70 2.721327 1_555
Na20 O71 2.722026 1_555
Na20 O69 2.733508 1_555
Mg0 O1 2.010391 1_555
Mg0 O2 2.021121 1_565
Mg0 O0 2.022754 1_665
Mg0 O37 2.135213 1_555
Mg0 O36 2.140446 1_655
Mg0 O38 2.174270 1_665
Mg1 O4 2.013782 1_555
Mg1 O5 2.013794 1_565
Mg1 O3 2.021876 1_665
Mg1 O41 2.124442 1_555
Mg1 O40 2.157490 1_655
Mg1 O39 2.163858 1_665
Mg2 O7 2.060774 1_555
Mg2 O6 2.069964 1_445
Mg2 O8 2.088703 1_545
Mg2 O43 2.106197 1_555
Mg2 O42 2.111496 1_455
Mg2 O44 2.217698 1_445
Mg3 O11 2.001645 1_545
Mg3 O10 2.007353 1_555
Mg3 O9 2.027900 1_445
Mg3 O47 2.203330 1_555
Mg3 O46 2.318408 1_455
Mg3 O45 2.332338 1_445
Mg4 O12 2.029137 1_555
Mg4 O13 2.035662 1_555
Mg4 O14 2.065244 1_555
Mg4 O49 2.125505 1_555
Mg4 O50 2.146317 1_555
Mg4 O48 2.156428 1_555
Mg5 O52 2.038718 1_555
Mg5 O53 2.048343 1_555
Mg5 O51 2.058482 1_555
Mg5 O17 2.086749 1_555
Mg5 O15 2.133197 1_555
Mg5 O16 2.159096 1_555
Mg6 O18 2.004889 1_556
Mg6 O20 2.107599 1_556
Mg6 O19 2.115175 1_556
Mg6 O56 2.132138 1_555
Mg6 O54 2.134157 1_555
Mg6 O55 2.162992 1_555
Mg7 O21 2.022589 1_555
Mg7 O23 2.026241 1_555
Mg7 O57 2.135758 1_555
Mg7 O22 2.149848 1_555
Mg7 O59 2.172055 1_555
Mg7 O58 2.173696 1_555
Mg8 O25 1.990991 1_554
Mg8 O24 1.995284 1_554
Mg8 O26 2.025523 1_554
Mg8 O60 2.092786 1_555
Mg8 O61 2.198098 1_555
Mg8 O62 2.207479 1_555
Mg9 O29 1.992939 1_555
Mg9 O27 2.022000 1_555
Mg9 O28 2.022331 1_555
Mg9 O65 2.113996 1_555
Mg9 O63 2.127216 1_555
Mg9 O64 2.228427 1_555
O0 P0 1.526691 1_555
O1 P1 1.516863 1_555
O2 P2 1.521720 1_555
O3 P3 1.532167 1_555
O4 P4 1.523205 1_555
O5 P5 1.528607 1_555
O6 P5 1.517236 1_565
O7 P3 1.529930 1_555
O8 P4 1.527278 1_455
O9 P1 1.538213 1_555
O10 P2 1.549838 1_455
O11 P0 1.538701 1_565
O12 P6 1.547816 1_555
O13 P7 1.546840 1_555
O14 S0 1.472833 1_555
O15 S1 1.456415 1_555
O16 S2 1.455375 1_555
O17 P8 1.533465 1_555
O18 P8 1.555864 1_555
O19 S1 1.495861 1_555
O20 S2 1.497206 1_555
O21 P7 1.544621 1_555
O22 S0 1.482414 1_555
O23 P6 1.543712 1_555
O24 P9 1.522896 1_555
O25 P10 1.522757 1_555
O26 P11 1.524737 1_555
O27 P12 1.527696 1_555
O28 P13 1.528185 1_555
O29 P14 1.527305 1_555
O30 P14 1.599597 1_555
O30 Ta0 1.974732 1_555
O31 P12 1.598809 1_555
O31 Ta0 1.967684 1_555
O32 P13 1.599721 1_555
O32 Ta0 2.017364 1_555
O33 P10 1.601526 1_555
O33 Ta1 2.008061 1_555
O34 P11 1.602492 1_555
O34 Ta1 2.001757 1_555
O35 P9 1.602340 1_555
O35 Ta1 1.966345 1_555
O36 P14 1.538133 1_555
O37 P12 1.537667 1_555
O38 P13 1.541271 1_555
O39 P10 1.539274 1_555
O40 P11 1.539141 1_555
O41 P9 1.536109 1_555
O42 P6 1.564326 1_555
O43 P7 1.563955 1_555
O44 S0 1.495315 1_555
O45 S1 1.500419 1_555
O46 S2 1.500727 1_555
O47 P8 1.570583 1_555
O48 P5 1.547078 1_555
O49 P3 1.526788 1_555
O50 P4 1.528584 1_555
O51 P1 1.536640 1_555
O52 P2 1.514792 1_555
O53 P0 1.533423 1_555
O54 P9 1.543260 1_555
O55 P10 1.545653 1_655
O56 P11 1.545425 1_545
O57 P12 1.542935 1_545
O58 P13 1.544864 1_555
O59 P14 1.542291 1_655
O60 P8 1.573926 1_555
O61 S1 1.503728 1_455
O62 S2 1.504581 1_565
O63 P7 1.565945 1_565
O64 S0 1.497329 1_555
O65 P6 1.565394 1_455
O66 P0 1.604284 1_565
O66 Ta0 1.967248 1_555
O67 P1 1.636423 1_555
O67 Ta0 2.000994 1_555
O68 P2 1.636791 1_455
O68 Ta0 2.001093 1_555
O69 P3 1.621927 1_555
O69 Ta1 1.972510 1_555
O70 P4 1.659347 1_455
O70 Ta1 2.000229 1_555
O71 P5 1.623143 1_565
O71 Ta1 1.971737 1_555
