# generated using pymatgen
data_ZrIN
_symmetry_space_group_name_H-M   'P 1'
_cell_length_a   3.75514487
_cell_length_b   4.11848974
_cell_length_c   9.70430948
_cell_angle_alpha   90.00000000
_cell_angle_beta   90.00000000
_cell_angle_gamma   90.00000000
_symmetry_Int_Tables_number   1
_chemical_formula_structural   ZrIN
_chemical_formula_sum   'Zr2 I2 N2'
_cell_volume   150.08224688
_cell_formula_units_Z   2
loop_
 _symmetry_equiv_pos_site_id
 _symmetry_equiv_pos_as_xyz
  1  'x, y, z'
loop_
 _atom_site_type_symbol
 _atom_site_label
 _atom_site_symmetry_multiplicity
 _atom_site_fract_x
 _atom_site_fract_y
 _atom_site_fract_z
 _atom_site_occupancy
  Zr  Zr0  1  0.25000000  0.75000000  0.91195349  1
  Zr  Zr1  1  0.75000000  0.25000000  0.08804651  1
  I  I0  1  0.75000000  0.75000000  0.67394335  1
  I  I1  1  0.25000000  0.25000000  0.32605665  1
  N  N0  1  0.25000000  0.25000000  0.97602174  1
  N  N1  1  0.75000000  0.75000000  0.02397826  1
loop_
_geom_bond_atom_site_label_1
_geom_bond_atom_site_label_2
_geom_bond_distance
_geom_bond_site_symmetry_2
I0 Zr0 2.976593 1_555
I0 Zr0 2.976593 1_655
I1 Zr1 2.976593 1_455
I1 Zr1 2.976593 1_555
N0 Zr0 2.151057 1_555
N0 Zr0 2.151057 1_545
N0 Zr1 2.169589 1_556
N0 Zr1 2.169589 1_456
N1 Zr1 2.151057 1_565
N1 Zr1 2.151057 1_555
N1 Zr0 2.169589 1_654
N1 Zr0 2.169589 1_554
