# generated using pymatgen
data_Na7CaSc3Si3(SO8)3
_symmetry_space_group_name_H-M   'P 1'
_cell_length_a   9.26269293
_cell_length_b   9.25419291
_cell_length_c   22.78333291
_cell_angle_alpha   90.36484727
_cell_angle_beta   89.83183594
_cell_angle_gamma   119.80067124
_symmetry_Int_Tables_number   1
_chemical_formula_structural   Na7CaSc3Si3(SO8)3
_chemical_formula_sum   'Na21 Ca3 Sc9 Si9 S9 O72'
_cell_volume   1694.66435054
_cell_formula_units_Z   3
loop_
 _symmetry_equiv_pos_site_id
 _symmetry_equiv_pos_as_xyz
  1  'x, y, z'
loop_
 _atom_site_type_symbol
 _atom_site_label
 _atom_site_symmetry_multiplicity
 _atom_site_fract_x
 _atom_site_fract_y
 _atom_site_fract_z
 _atom_site_occupancy
  Na  Na0  1  0.63728931  0.98836979  0.23973716  1
  Na  Na1  1  0.38724255  0.38255557  0.23812865  1
  Na  Na2  1  0.97655624  0.63670764  0.25605868  1
  Na  Na3  1  0.61899297  0.62296841  0.73953013  1
  Na  Na4  1  0.99530101  0.34462390  0.75162220  1
  Na  Na5  1  0.38823315  0.02162158  0.75800322  1
  Na  Na6  1  0.01490051  0.69775144  0.57449176  1
  Na  Na7  1  0.66801349  0.95576799  0.58294242  1
  Na  Na8  1  0.32180572  0.98737579  0.07901749  1
  Na  Na9  1  0.64766690  0.68609656  0.09093267  1
  Na  Na10  1  0.68914316  0.03340201  0.91571275  1
  Na  Na11  1  0.33464749  0.28629902  0.91873985  1
  Na  Na12  1  0.95538540  0.29627288  0.41358888  1
  Na  Na13  1  0.33067862  0.01443042  0.41782949  1
  Na  Na14  1  0.72660466  0.69183206  0.41477957  1
  Na  Na15  1  0.98401339  0.98003591  0.49771541  1
  Na  Na16  1  0.01548725  0.01145784  0.00406391  1
  Na  Na17  1  0.65207387  0.31624046  0.83084619  1
  Na  Na18  1  0.67891871  0.35243074  0.33270926  1
  Na  Na19  1  0.35027753  0.65612669  0.15948726  1
  Na  Na20  1  0.35890430  0.64373365  0.66670041  1
  Ca  Ca0  1  0.99211347  0.99014570  0.35237454  1
  Ca  Ca1  1  0.65524735  0.33528208  0.68278300  1
  Ca  Ca2  1  0.65910780  0.33174674  0.17399265  1
  Sc  Sc0  1  0.01076591  0.00556053  0.85131579  1
  Sc  Sc1  1  0.99199166  0.00477251  0.65232092  1
  Sc  Sc2  1  0.98064077  0.00229593  0.14414652  1
  Sc  Sc3  1  0.64807571  0.30946480  0.98645935  1
  Sc  Sc4  1  0.67925077  0.35217448  0.48178047  1
  Sc  Sc5  1  0.33074408  0.67118204  0.01677298  1
  Sc  Sc6  1  0.34714728  0.67334849  0.51573178  1
  Sc  Sc7  1  0.34686354  0.68405341  0.31941874  1
  Sc  Sc8  1  0.34459806  0.67814658  0.81458861  1
  Si  Si0  1  0.69352828  0.69487775  0.25131557  1
  Si  Si1  1  0.28870073  0.29694961  0.75301491  1
  Si  Si2  1  0.70629932  0.99643989  0.75385767  1
  Si  Si3  1  0.66899911  0.64331037  0.58425149  1
  Si  Si4  1  0.66263872  0.02297760  0.08236283  1
  Si  Si5  1  0.35401701  0.33209726  0.08240526  1
  Si  Si6  1  0.32869948  0.96179488  0.91688821  1
  Si  Si7  1  0.62967231  0.97558374  0.41940875  1
  Si  Si8  1  0.04433005  0.66228832  0.41921268  1
  S  S0  1  0.29630792  0.99487132  0.25055359  1
  S  S1  1  0.00811126  0.30406283  0.25120450  1
  S  S2  1  0.00801410  0.71315909  0.75029210  1
  S  S3  1  0.96846076  0.33473596  0.58234923  1
  S  S4  1  0.36258542  0.02860052  0.58137021  1
  S  S5  1  0.96837551  0.63394485  0.08288177  1
  S  S6  1  0.62821989  0.66615079  0.91648294  1
  S  S7  1  0.03841636  0.37500370  0.91483458  1
  S  S8  1  0.34008786  0.37992986  0.41686313  1
  O  O0  1  0.22384413  0.02042159  0.30463174  1
  O  O1  1  0.79755459  0.77365649  0.31133732  1
  O  O2  1  0.99099952  0.21366861  0.30623103  1
  O  O3  1  0.19964009  0.18305053  0.81137556  1
  O  O4  1  0.98574881  0.79869986  0.80144535  1
  O  O5  1  0.81841175  0.00769051  0.81090155  1
  O  O6  1  0.79023294  0.96918282  0.69329286  1
  O  O7  1  0.16714757  0.19618800  0.69694871  1
  O  O8  1  0.02929979  0.80984398  0.69568899  1
  O  O9  1  0.79263051  0.81835366  0.19424847  1
  O  O10  1  0.02526116  0.21087481  0.20041377  1
  O  O11  1  0.19437105  0.98081202  0.19833077  1
  O  O12  1  0.89464830  0.35955497  0.63627391  1
  O  O13  1  0.46297163  0.09947523  0.63494260  1
  O  O14  1  0.64943055  0.54923217  0.64539196  1
  O  O15  1  0.90607932  0.54657425  0.13891739  1
  O  O16  1  0.62885933  0.09032580  0.14350883  1
  O  O17  1  0.46525208  0.38427603  0.14204791  1
  O  O18  1  0.45651296  0.30160791  0.02716825  1
  O  O19  1  0.85345554  0.54146548  0.03375096  1
  O  O20  1  0.68550549  0.14489781  0.02628906  1
  O  O21  1  0.44881046  0.13148631  0.52937210  1
  O  O22  1  0.69204004  0.54097406  0.52778315  1
  O  O23  1  0.85785272  0.31147829  0.53077110  1
  O  O24  1  0.54411974  0.68781250  0.96842743  1
  O  O25  1  0.14632280  0.46001596  0.96536662  1
  O  O26  1  0.31638429  0.85367401  0.97441433  1
  O  O27  1  0.53403218  0.85065394  0.47419187  1
  O  O28  1  0.31805621  0.46291500  0.46853958  1
  O  O29  1  0.15034554  0.66716365  0.47688011  1
  O  O30  1  0.13046333  0.63520840  0.35950414  1
  O  O31  1  0.51584527  0.88366488  0.36016685  1
  O  O32  1  0.36274110  0.47861046  0.36283218  1
  O  O33  1  0.11751031  0.46704402  0.86014947  1
  O  O34  1  0.35553367  0.87082930  0.85847536  1
  O  O35  1  0.52293770  0.63995913  0.86325056  1
  O  O36  1  0.03426306  0.83378188  0.42058623  1
  O  O37  1  0.81890899  0.00671082  0.41942561  1
  O  O38  1  0.19234701  0.21220484  0.41274437  1
  O  O39  1  0.01901978  0.20283799  0.91292762  1
  O  O40  1  0.16926544  0.99430542  0.91405194  1
  O  O41  1  0.79197607  0.82012766  0.91156554  1
  O  O42  1  0.97830537  0.17865338  0.58521371  1
  O  O43  1  0.19312866  0.00854718  0.58618685  1
  O  O44  1  0.84429913  0.82975810  0.58384085  1
  O  O45  1  0.98315744  0.80323364  0.08615163  1
  O  O46  1  0.82474039  0.99321444  0.08299733  1
  O  O47  1  0.18095031  0.15089308  0.08948213  1
  O  O48  1  0.69266706  0.16575392  0.75213248  1
  O  O49  1  0.47587377  0.32168856  0.75240236  1
  O  O50  1  0.86129928  0.54375160  0.74704605  1
  O  O51  1  0.67354435  0.50807990  0.24801008  1
  O  O52  1  0.85802098  0.32227092  0.24519223  1
  O  O53  1  0.46896187  0.13655328  0.24630145  1
  O  O54  1  0.64508310  0.51518589  0.92176917  1
  O  O55  1  0.86912503  0.35495248  0.92044867  1
  O  O56  1  0.50398656  0.15027441  0.91951911  1
  O  O57  1  0.63165484  0.15447554  0.42522202  1
  O  O58  1  0.49215261  0.36368431  0.42264641  1
  O  O59  1  0.85339894  0.49578832  0.42182490  1
  O  O60  1  0.33470217  0.49430551  0.06790217  1
  O  O61  1  0.13860216  0.66070591  0.07401366  1
  O  O62  1  0.49616030  0.83683335  0.07362350  1
  O  O63  1  0.34053209  0.85686690  0.57558840  1
  O  O64  1  0.50790424  0.67247901  0.57740590  1
  O  O65  1  0.13466017  0.48294852  0.57499918  1
  O  O66  1  0.30042922  0.83414261  0.25375322  1
  O  O67  1  0.50591559  0.68160916  0.25328747  1
  O  O68  1  0.16110921  0.47151336  0.25223962  1
  O  O69  1  0.29806768  0.48054985  0.75654134  1
  O  O70  1  0.16072600  0.69879847  0.75627897  1
  O  O71  1  0.51869498  0.82679239  0.75621084  1
loop_
_geom_bond_atom_site_label_1
_geom_bond_atom_site_label_2
_geom_bond_distance
_geom_bond_site_symmetry_2
Na0 O16 2.409053 1_565
Na0 O67 2.492048 1_555
Na0 O53 2.540692 1_565
Na0 O66 2.729162 1_555
Na0 O52 2.731435 1_565
Na0 O9 2.800112 1_555
Na0 O31 2.943637 1_555
Na1 O17 2.300867 1_555
Na1 O51 2.317537 1_555
Na1 O67 2.439862 1_555
Na1 O68 2.622033 1_555
Na1 O53 2.740323 1_555
Na2 O51 2.451039 1_555
Na2 O52 2.559467 1_555
Na2 O66 2.625423 1_655
Na2 O30 2.761697 1_655
Na2 O15 2.772257 1_555
Na2 O68 2.803898 1_655
Na2 O1 2.827983 1_555
Na3 O14 2.305263 1_555
Na3 O49 2.439517 1_555
Na3 O71 2.509176 1_555
Na3 O69 2.613300 1_555
Na3 O50 2.691355 1_555
Na3 O6 2.978710 1_555
Na3 O35 2.980010 1_555
Na4 O69 2.439951 1_655
Na4 O48 2.446632 1_555
Na4 O50 2.687742 1_555
Na4 O33 2.717487 1_655
Na4 O12 2.818127 1_555
Na4 O70 2.847177 1_655
Na4 O7 2.848188 1_655
Na5 O48 2.451573 1_555
Na5 O49 2.479838 1_555
Na5 O71 2.622430 1_545
Na5 O34 2.625925 1_545
Na5 O70 2.666220 1_545
Na5 O13 2.894445 1_555
Na6 O44 2.438920 1_455
Na6 O43 2.518328 1_565
Na6 O63 2.617607 1_555
Na6 O29 2.632208 1_555
Na6 O65 2.715565 1_555
Na6 O22 2.804855 1_455
Na6 O8 2.923465 1_555
Na7 O64 2.284852 1_555
Na7 O44 2.433043 1_555
Na7 O42 2.573863 1_565
Na7 O63 2.703427 1_555
Na7 O27 2.722648 1_555
Na7 O6 2.736972 1_555
Na8 O47 2.450488 1_565
Na8 O62 2.607140 1_555
Na8 O61 2.632350 1_555
Na8 O26 2.667304 1_554
Na8 O45 2.730791 1_455
Na8 O18 2.799495 1_565
Na8 O16 2.910176 1_565
Na8 O11 2.949314 1_555
Na9 O62 2.454969 1_555
Na9 O46 2.484328 1_555
Na9 O60 2.590758 1_555
Na9 O9 2.681432 1_555
Na9 O17 2.711377 1_555
Na9 O45 2.737702 1_555
Na9 O24 2.956638 1_554
Na10 O56 2.441384 1_555
Na10 O41 2.584053 1_545
Na10 O55 2.590698 1_555
Na10 O39 2.652724 1_655
Na10 O20 2.722786 1_556
Na10 O5 2.729796 1_555
Na11 O40 2.354277 1_545
Na11 O56 2.451163 1_555
Na11 O54 2.589408 1_555
Na11 O39 2.630178 1_555
Na11 O18 2.692564 1_556
Na11 O3 2.694587 1_555
Na12 O37 2.330846 1_555
Na12 O59 2.462693 1_555
Na12 O57 2.621550 1_555
Na12 O2 2.626415 1_555
Na12 O38 2.668348 1_655
Na12 O23 2.840988 1_555
Na13 O36 2.403143 1_545
Na13 O57 2.426686 1_555
Na13 O38 2.709162 1_555
Na13 O21 2.762630 1_555
Na13 O0 2.775793 1_555
Na13 O58 2.808346 1_555
Na13 O31 2.856853 1_545
Na14 O1 2.465480 1_555
Na14 O36 2.478557 1_655
Na14 O37 2.598759 1_565
Na14 O59 2.611365 1_555
Na14 O58 2.723910 1_555
Na14 O22 2.876931 1_555
Na15 O44 2.385393 1_555
Na15 O36 2.393228 1_655
Na15 O37 2.445033 1_565
Na15 O43 2.718929 1_665
Na15 O42 2.721133 1_565
Na15 O38 2.828042 1_665
Na16 O47 2.412707 1_555
Na16 O46 2.464353 1_445
Na16 O40 2.542287 1_544
Na16 O45 2.601848 1_445
Na16 O39 2.727266 1_554
Na16 O41 2.863034 1_444
Na17 O48 2.404507 1_555
Na17 O49 2.441401 1_555
Na17 O56 2.500227 1_555
Na17 O55 2.763463 1_555
Na17 O54 2.784625 1_555
Na17 O50 2.794218 1_555
Na18 O51 2.430708 1_555
Na18 O59 2.519546 1_555
Na18 O57 2.690127 1_555
Na18 O52 2.690644 1_555
Na18 O58 2.712531 1_555
Na18 O53 2.785578 1_555
Na19 O62 2.495900 1_555
Na19 O60 2.522811 1_555
Na19 O67 2.524831 1_555
Na19 O68 2.739237 1_555
Na19 O61 2.782875 1_555
Na19 O66 2.871388 1_555
Na20 O64 2.395815 1_555
Na20 O69 2.444279 1_555
Na20 O71 2.588614 1_555
Na20 O65 2.794146 1_555
Na20 O63 2.935330 1_555
Na20 O70 2.947735 1_555
Ca0 O1 2.129074 1_555
Ca0 O37 2.271167 1_565
Ca0 O36 2.292429 1_655
Ca0 O0 2.293761 1_665
Ca0 O2 2.330903 1_565
Ca0 O38 2.396924 1_665
Ca1 O14 2.185532 1_555
Ca1 O49 2.252016 1_555
Ca1 O13 2.289109 1_555
Ca1 O12 2.363199 1_555
Ca1 O48 2.377631 1_555
Ca1 O50 2.414296 1_555
Ca2 O17 2.206826 1_555
Ca2 O16 2.216191 1_555
Ca2 O51 2.296504 1_555
Ca2 O15 2.305038 1_555
Ca2 O53 2.436720 1_555
Ca2 O52 2.492741 1_555
O0 S0 1.474326 1_545
O1 Si0 1.620739 1_555
O2 S1 1.475476 1_655
O3 Si1 1.645186 1_555
O3 Sc0 1.933930 1_555
O4 S2 1.475313 1_655
O4 Sc0 2.131257 1_665
O5 Si2 1.636174 1_545
O5 Sc0 2.016803 1_655
O6 Si2 1.660207 1_555
O6 Sc1 1.963226 1_565
O7 Si1 1.648814 1_555
O7 Sc1 1.983441 1_455
O8 S2 1.491463 1_555
O8 Sc1 2.234750 1_465
O9 Si0 1.675745 1_555
O9 Sc2 2.073623 1_565
O10 S1 1.493447 1_555
O10 Sc2 2.172246 1_455
O11 S0 1.485471 1_555
O11 Sc2 2.427240 1_465
O12 S3 1.475527 1_555
O13 S4 1.474732 1_555
O14 Si3 1.608832 1_555
O15 S5 1.470271 1_555
O16 Si4 1.614718 1_555
O17 Si5 1.626836 1_555
O18 Si5 1.679122 1_555
O18 Sc3 1.968991 1_554
O19 S5 1.485864 1_555
O19 Sc3 2.304845 1_554
O20 Si4 1.652036 1_555
O20 Sc3 1.951222 1_554
O21 S4 1.483535 1_555
O21 Sc4 2.363128 1_555
O22 Si3 1.667747 1_555
O22 Sc4 1.984157 1_555
O23 S3 1.503848 1_555
O23 Sc4 2.181735 1_555
O24 S6 1.481350 1_555
O24 Sc5 2.197784 1_556
O25 S7 1.468685 1_555
O25 Sc5 2.184750 1_556
O26 Si6 1.623052 1_555
O26 Sc5 2.011452 1_556
O27 Si7 1.634976 1_555
O27 Sc6 1.942033 1_555
O28 S8 1.469843 1_555
O28 Sc6 2.115288 1_555
O29 Si8 1.629521 1_555
O29 Sc6 2.003731 1_555
O30 Si8 1.654668 1_555
O30 Sc7 2.037189 1_555
O31 Si7 1.661104 1_555
O31 Sc7 1.958801 1_555
O32 S8 1.488520 1_555
O32 Sc7 2.217493 1_555
O33 S7 1.484056 1_555
O33 Sc8 2.290635 1_555
O34 Si6 1.653279 1_555
O34 Sc8 1.996978 1_555
O35 S6 1.499641 1_555
O35 Sc8 2.163064 1_555
O36 Si8 1.635481 1_555
O37 Si7 1.628975 1_545
O38 S8 1.475924 1_555
O39 S7 1.512371 1_555
O39 Sc0 2.266830 1_555
O40 Si6 1.648645 1_555
O40 Sc0 2.091764 1_565
O41 S6 1.482038 1_555
O41 Sc0 2.343725 1_665
O42 S3 1.493678 1_555
O42 Sc1 2.275567 1_555
O43 S4 1.489941 1_555
O43 Sc1 2.379509 1_455
O44 Si3 1.681992 1_555
O44 Sc1 2.169546 1_565
O45 S5 1.504657 1_555
O45 Sc2 2.269688 1_565
O46 Si4 1.655843 1_565
O46 Sc2 1.980659 1_565
O47 Si5 1.654619 1_555
O47 Sc2 2.087308 1_455
O48 Si2 1.634021 1_545
O49 Si1 1.632112 1_555
O50 S2 1.480377 1_655
O51 Si0 1.645777 1_555
O52 S1 1.488012 1_655
O53 S0 1.484110 1_545
O54 S6 1.486550 1_555
O54 Sc3 2.426075 1_555
O55 S7 1.489838 1_655
O55 Sc3 2.400965 1_555
O56 Si6 1.693055 1_545
O56 Sc3 2.075226 1_555
O57 Si7 1.650927 1_545
O57 Sc4 2.091327 1_555
O58 S8 1.495239 1_555
O58 Sc4 2.242521 1_555
O59 Si8 1.672538 1_655
O59 Sc4 2.028191 1_555
O60 Si5 1.633436 1_555
O60 Sc5 2.030217 1_555
O61 S5 1.482887 1_455
O61 Sc5 2.166601 1_555
O62 Si4 1.655913 1_565
O62 Sc5 2.006739 1_555
O63 S4 1.503204 1_565
O63 Sc6 2.195733 1_555
O64 Si3 1.651068 1_555
O64 Sc6 2.053307 1_555
O65 S3 1.477114 1_455
O65 Sc6 2.317206 1_555
O66 S0 1.508976 1_555
O66 Sc7 2.230802 1_555
O67 Si0 1.680641 1_555
O67 Sc7 2.112050 1_555
O68 S1 1.492365 1_555
O68 Sc7 2.405207 1_555
O69 Si1 1.659097 1_555
O69 Sc8 2.113704 1_555
O70 S2 1.491763 1_555
O70 Sc8 2.245480 1_555
O71 Si2 1.666175 1_555
O71 Sc8 2.016821 1_555
