# generated using pymatgen
data_CsC8
_symmetry_space_group_name_H-M   'P 1'
_cell_length_a   4.95119725
_cell_length_b   4.95119568
_cell_length_c   18.11483765
_cell_angle_alpha   90.00000000
_cell_angle_beta   90.00000000
_cell_angle_gamma   120.00000388
_symmetry_Int_Tables_number   1
_chemical_formula_structural   CsC8
_chemical_formula_sum   'Cs3 C24'
_cell_volume   384.57883547
_cell_formula_units_Z   3
loop_
 _symmetry_equiv_pos_site_id
 _symmetry_equiv_pos_as_xyz
  1  'x, y, z'
loop_
 _atom_site_type_symbol
 _atom_site_label
 _atom_site_symmetry_multiplicity
 _atom_site_fract_x
 _atom_site_fract_y
 _atom_site_fract_z
 _atom_site_occupancy
  Cs  Cs0  1  0.00000000  0.00000000  0.50000000  1
  Cs  Cs1  1  0.00000000  0.00000000  0.83333300  1
  Cs  Cs2  1  0.00000000  0.00000000  0.16666700  1
  C  C0  1  0.16640529  0.33297837  0.33333497  1
  C  C1  1  0.83342691  0.16640529  0.66666797  1
  C  C2  1  0.33297837  0.16657309  0.00000097  1
  C  C3  1  0.66702163  0.83342691  0.00000097  1
  C  C4  1  0.16657309  0.83359471  0.66666797  1
  C  C5  1  0.83342691  0.66702163  0.66666503  1
  C  C6  1  0.83359471  0.16657309  -0.00000097  1
  C  C7  1  0.83359471  0.66702163  0.33333497  1
  C  C8  1  0.33297837  0.16640529  0.33333203  1
  C  C9  1  0.66702163  0.83359471  0.33333203  1
  C  C10  1  0.16657309  0.33297837  0.66666503  1
  C  C11  1  0.16640529  0.83342691  -0.00000097  1
  C  C12  1  0.16643268  0.33286336  0.00000000  1
  C  C13  1  0.83356732  0.16643268  0.33333300  1
  C  C14  1  0.33286336  0.16643268  0.66666700  1
  C  C15  1  0.66713664  0.83356732  0.66666700  1
  C  C16  1  0.16643268  0.83356732  0.33333300  1
  C  C17  1  0.83356732  0.66713664  0.00000000  1
  C  C18  1  0.33339106  0.66678011  0.00000000  1
  C  C19  1  0.66660894  0.33339106  0.33333300  1
  C  C20  1  0.66678011  0.33339106  0.66666700  1
  C  C21  1  0.33321989  0.66660894  0.66666700  1
  C  C22  1  0.33339106  0.66660894  0.33333300  1
  C  C23  1  0.66660894  0.33321989  0.00000000  1
loop_
_geom_bond_atom_site_label_1
_geom_bond_atom_site_label_2
_geom_bond_distance
_geom_bond_site_symmetry_2
C0 C13 1.427164 1_455
C0 C8 1.428485 1_555
C0 C22 1.430562 1_555
C0 Cs0 3.339691 1_555
C0 Cs2 3.339739 1_555
C1 C15 1.427163 1_545
C1 C10 1.428485 1_655
C1 C20 1.430571 1_555
C1 Cs1 3.339691 1_655
C1 Cs0 3.339740 1_655
C2 C23 1.430562 1_555
C2 Cs2 3.339708 1_555
C2 Cs1 3.339740 1_554
C3 C6 1.428485 1_565
C3 Cs2 3.339708 1_665
C3 Cs1 3.339740 1_664
C4 C5 1.428485 1_455
C4 Cs1 3.339691 1_565
C4 Cs0 3.339740 1_565
C5 Cs0 3.339691 1_665
C5 Cs1 3.339739 1_665
C6 Cs1 3.339708 1_654
C6 Cs2 3.339740 1_655
C7 C9 1.428485 1_555
C7 Cs0 3.339691 1_665
C7 Cs2 3.339739 1_665
C8 Cs2 3.339691 1_555
C8 Cs0 3.339740 1_555
C9 Cs2 3.339691 1_665
C9 Cs0 3.339740 1_665
C10 C14 1.427155 1_555
C10 C21 1.430562 1_555
C10 Cs0 3.339691 1_555
C10 Cs1 3.339739 1_555
C11 C17 1.427164 1_455
C11 C2 1.428485 1_565
C11 C18 1.430571 1_555
C11 Cs1 3.339708 1_564
C11 Cs2 3.339740 1_565
C12 C2 1.427155 1_555
C12 C6 1.427164 1_455
C12 C18 1.431789 1_555
C12 Cs2 3.339513 1_555
C12 Cs1 3.339513 1_554
C13 C9 1.427163 1_545
C13 C19 1.431789 1_555
C13 Cs2 3.339500 1_655
C13 Cs0 3.339517 1_655
C14 C4 1.427163 1_545
C14 C20 1.431789 1_555
C14 Cs1 3.339497 1_555
C14 Cs0 3.339513 1_555
C15 C5 1.427155 1_555
C15 C21 1.431789 1_555
C15 Cs1 3.339497 1_665
C15 Cs0 3.339513 1_665
C16 C8 1.427163 1_565
C16 C7 1.427164 1_455
C16 C22 1.431789 1_555
C16 Cs2 3.339500 1_565
C16 Cs0 3.339517 1_565
C17 C3 1.427155 1_555
C17 C23 1.431789 1_555
C17 Cs2 3.339513 1_665
C17 Cs1 3.339513 1_664
C18 C3 1.430562 1_555
C19 C7 1.430562 1_555
C19 C8 1.430562 1_555
C20 C5 1.430562 1_555
C21 C4 1.430571 1_555
C22 C9 1.430562 1_555
C23 C6 1.430571 1_555
