# generated using pymatgen
data_MgCo5O8
_symmetry_space_group_name_H-M   'P 1'
_cell_length_a   6.69281191
_cell_length_b   7.65603226
_cell_length_c   6.27876043
_cell_angle_alpha   90.00000055
_cell_angle_beta   62.02622512
_cell_angle_gamma   47.61575250
_symmetry_Int_Tables_number   1
_chemical_formula_structural   MgCo5O8
_chemical_formula_sum   'Mg1 Co5 O8'
_cell_volume   183.57169868
_cell_formula_units_Z   1
loop_
 _symmetry_equiv_pos_site_id
 _symmetry_equiv_pos_as_xyz
  1  'x, y, z'
loop_
 _atom_site_type_symbol
 _atom_site_label
 _atom_site_symmetry_multiplicity
 _atom_site_fract_x
 _atom_site_fract_y
 _atom_site_fract_z
 _atom_site_occupancy
  Mg  Mg0  1  0.53968801  0.60057740  0.48015549  1
  Co  Co0  1  0.75115524  0.09450547  0.37442238  1
  Co  Co1  1  0.29541850  0.11554916  0.60228975  1
  Co  Co2  1  0.43002964  0.85119899  0.03498568  1
  Co  Co3  1  0.02999430  0.59070295  0.49741071  1
  Co  Co4  1  0.02999430  0.59070295  0.97259499  1
  O  O0  1  0.03751381  0.72089216  0.23124310  1
  O  O1  1  0.95142378  0.19412648  0.27428811  1
  O  O2  1  0.51191855  0.81790219  0.70023916  1
  O  O3  1  0.51191855  0.81790219  0.28784230  1
  O  O4  1  0.44649587  0.21788185  0.75442426  1
  O  O5  1  0.44649587  0.21788185  0.29907987  1
  O  O6  1  0.14022366  0.67463411  0.67988717  1
  O  O7  1  0.86582393  0.50149329  0.81708704  1
loop_
_geom_bond_atom_site_label_1
_geom_bond_atom_site_label_2
_geom_bond_distance
_geom_bond_site_symmetry_2
Mg0 O6 1.962888 1_555
Mg0 O1 2.011290 1_555
Mg0 O3 2.013598 1_555
Mg0 O2 2.013602 1_555
Co0 O1 1.833370 1_555
Co0 O5 1.892589 1_555
Co0 O4 1.892590 1_555
Co0 O0 1.912040 1_645
Co1 O7 1.930004 1_455
Co1 O3 2.013700 1_545
Co1 O2 2.013708 1_545
Co1 O5 2.126670 1_555
Co1 O4 2.126678 1_555
Co2 O7 1.809820 1_554
Co2 O3 1.874527 1_555
Co2 O2 1.874533 1_554
Co2 O1 1.886220 1_465
Co3 O5 1.866756 1_555
Co3 O6 1.924045 1_555
Co3 O0 1.943619 1_555
Co3 O2 2.096725 1_455
Co3 O7 2.155290 1_455
Co4 O4 1.866756 1_555
Co4 O6 1.924055 1_555
Co4 O0 1.943619 1_556
Co4 O3 2.096725 1_456
Co4 O7 2.155299 1_455
