# generated using pymatgen
data_Na(CoO2)2
_symmetry_space_group_name_H-M   'P 1'
_cell_length_a   4.84017880
_cell_length_b   5.58530613
_cell_length_c   10.99435855
_cell_angle_alpha   90.00000000
_cell_angle_beta   90.00000000
_cell_angle_gamma   90.00000000
_symmetry_Int_Tables_number   1
_chemical_formula_structural   Na(CoO2)2
_chemical_formula_sum   'Na4 Co8 O16'
_cell_volume   297.22017326
_cell_formula_units_Z   4
loop_
 _symmetry_equiv_pos_site_id
 _symmetry_equiv_pos_as_xyz
  1  'x, y, z'
loop_
 _atom_site_type_symbol
 _atom_site_label
 _atom_site_symmetry_multiplicity
 _atom_site_fract_x
 _atom_site_fract_y
 _atom_site_fract_z
 _atom_site_occupancy
  Na  Na0  1  0.64802039  0.00000000  -0.00000000  1
  Na  Na1  1  0.35197961  0.50000000  0.50000000  1
  Na  Na2  1  0.02501536  0.50000000  -0.00000000  1
  Na  Na3  1  0.97498464  0.00000000  0.50000000  1
  Co  Co0  1  0.50000000  0.75000000  0.25000000  1
  Co  Co1  1  0.50000000  0.25000000  0.75000000  1
  Co  Co2  1  0.50000000  0.25000000  0.25000000  1
  Co  Co3  1  0.50000000  0.75000000  0.75000000  1
  Co  Co4  1  0.99788692  0.50000000  0.25323756  1
  Co  Co5  1  0.99788692  0.50000000  0.74676244  1
  Co  Co6  1  0.00211308  0.00000000  0.24676244  1
  Co  Co7  1  0.00211308  0.00000000  0.75323756  1
  O  O0  1  0.83399409  0.74833863  0.16025546  1
  O  O1  1  0.83399409  0.25166137  0.83974454  1
  O  O2  1  0.16600591  0.24833863  0.33974454  1
  O  O3  1  0.16600591  0.75166137  0.66025546  1
  O  O4  1  0.16600591  0.75166137  0.33974454  1
  O  O5  1  0.16600591  0.24833863  0.66025546  1
  O  O6  1  0.83399409  0.25166137  0.16025546  1
  O  O7  1  0.83399409  0.74833863  0.83974454  1
  O  O8  1  0.67121839  0.00000000  0.33499278  1
  O  O9  1  0.67121839  0.00000000  0.66500722  1
  O  O10  1  0.32878161  0.50000000  0.16500722  1
  O  O11  1  0.32878161  0.50000000  0.83499278  1
  O  O12  1  0.33620009  0.00000000  0.83800436  1
  O  O13  1  0.33620009  0.00000000  0.16199564  1
  O  O14  1  0.66379991  0.50000000  0.66199564  1
  O  O15  1  0.66379991  0.50000000  0.33800436  1
loop_
_geom_bond_atom_site_label_1
_geom_bond_atom_site_label_2
_geom_bond_distance
_geom_bond_site_symmetry_2
Na0 O13 2.334519 1_555
Na0 O12 2.334519 1_554
Na0 O1 2.426995 1_554
Na0 O6 2.426995 1_555
Na0 O0 2.426995 1_545
Na0 O7 2.426995 1_544
Na1 O14 2.334519 1_555
Na1 O15 2.334519 1_555
Na1 O2 2.426995 1_555
Na1 O5 2.426995 1_555
Na1 O3 2.426995 1_555
Na1 O4 2.426995 1_555
Na2 O10 2.335137 1_555
Na2 O11 2.335137 1_554
Na2 O6 2.425501 1_455
Na2 O0 2.425501 1_455
Na2 O1 2.425501 1_454
Na2 O7 2.425501 1_454
Na3 O8 2.335137 1_555
Na3 O9 2.335137 1_555
Na3 O5 2.425501 1_655
Na3 O3 2.425501 1_645
Na3 O4 2.425501 1_645
Na3 O2 2.425501 1_655
Co0 O10 1.873419 1_555
Co0 O8 1.873419 1_565
Co0 O13 1.874686 1_565
Co0 O15 1.874686 1_555
Co0 O4 1.893937 1_555
Co0 O0 1.893937 1_555
Co1 O11 1.873419 1_555
Co1 O9 1.873419 1_555
Co1 O12 1.874686 1_555
Co1 O14 1.874686 1_555
Co1 O1 1.893937 1_555
Co1 O5 1.893937 1_555
Co2 O10 1.873419 1_555
Co2 O8 1.873419 1_555
Co2 O13 1.874686 1_555
Co2 O15 1.874686 1_555
Co2 O2 1.893937 1_555
Co2 O6 1.893937 1_555
Co3 O11 1.873419 1_555
Co3 O9 1.873419 1_565
Co3 O12 1.874686 1_565
Co3 O14 1.874686 1_555
Co3 O3 1.893937 1_555
Co3 O7 1.893937 1_555
Co4 O15 1.866377 1_555
Co4 O10 1.872447 1_655
Co4 O4 1.882139 1_655
Co4 O2 1.882139 1_655
Co4 O6 1.896901 1_555
Co4 O0 1.896901 1_555
Co5 O14 1.866377 1_555
Co5 O11 1.872447 1_655
Co5 O5 1.882139 1_655
Co5 O3 1.882139 1_655
Co5 O7 1.896901 1_555
Co5 O1 1.896901 1_555
Co6 O13 1.866377 1_555
Co6 O8 1.872447 1_455
Co6 O6 1.882139 1_455
Co6 O0 1.882139 1_445
Co6 O2 1.896901 1_555
Co6 O4 1.896901 1_545
Co7 O12 1.866377 1_555
Co7 O9 1.872447 1_455
Co7 O7 1.882139 1_445
Co7 O1 1.882139 1_455
Co7 O3 1.896901 1_545
Co7 O5 1.896901 1_555
