# generated using pymatgen
data_Gd2CdSe4
_symmetry_space_group_name_H-M   'P 1'
_cell_length_a   8.07079062
_cell_length_b   8.07079062
_cell_length_c   8.07079062
_cell_angle_alpha   106.28927089
_cell_angle_beta   106.28927089
_cell_angle_gamma   116.04175612
_symmetry_Int_Tables_number   1
_chemical_formula_structural   Gd2CdSe4
_chemical_formula_sum   'Gd4 Cd2 Se8'
_cell_volume   400.65747214
_cell_formula_units_Z   2
loop_
 _symmetry_equiv_pos_site_id
 _symmetry_equiv_pos_as_xyz
  1  'x, y, z'
loop_
 _atom_site_type_symbol
 _atom_site_label
 _atom_site_symmetry_multiplicity
 _atom_site_fract_x
 _atom_site_fract_y
 _atom_site_fract_z
 _atom_site_occupancy
  Gd  Gd0  1  0.10812213  0.62500000  0.98312213  1
  Gd  Gd1  1  0.87500000  0.89187787  0.51687787  1
  Gd  Gd2  1  0.64187787  0.12500000  0.01687787  1
  Gd  Gd3  1  0.37500000  0.35812213  0.48312213  1
  Cd  Cd0  1  0.50000000  0.50000000  0.00000000  1
  Cd  Cd1  1  0.25000000  0.75000000  0.50000000  1
  Se  Se0  1  0.66022566  0.35468231  0.79109801  1
  Se  Se1  1  0.10468231  0.91022566  0.29109801  1
  Se  Se2  1  0.64531769  0.43641570  0.30554334  1
  Se  Se3  1  0.56358430  0.86912765  0.20890199  1
  Se  Se4  1  0.61912765  0.81358430  0.70890199  1
  Se  Se5  1  0.08977434  0.38087235  0.19445666  1
  Se  Se6  1  0.18641570  0.89531769  0.80554334  1
  Se  Se7  1  0.13087235  0.33977434  0.69445666  1
loop_
_geom_bond_atom_site_label_1
_geom_bond_atom_site_label_2
_geom_bond_distance
_geom_bond_site_symmetry_2
Gd0 Se0 2.874835 1_455
Gd0 Se6 2.874835 1_555
Gd0 Se7 2.891923 1_555
Gd0 Se1 2.891923 1_556
Gd0 Se3 2.929837 1_556
Gd0 Se5 2.929837 1_556
Gd1 Se7 2.874835 1_665
Gd1 Se4 2.874835 1_555
Gd1 Se6 2.891923 1_655
Gd1 Se3 2.891923 1_555
Gd1 Se1 2.929837 1_655
Gd1 Se2 2.929837 1_555
Gd2 Se5 2.874835 1_655
Gd2 Se3 2.874835 1_545
Gd2 Se2 2.891923 1_555
Gd2 Se4 2.891923 1_544
Gd2 Se0 2.929837 1_554
Gd2 Se6 2.929837 1_544
Gd3 Se1 2.874835 1_545
Gd3 Se2 2.874835 1_555
Gd3 Se5 2.891923 1_555
Gd3 Se0 2.891923 1_555
Gd3 Se4 2.929837 1_555
Gd3 Se7 2.929837 1_555
Cd0 Se2 2.708479 1_555
Cd0 Se7 2.708479 1_554
Cd0 Se0 2.708479 1_554
Cd0 Se3 2.708479 1_555
Cd1 Se6 2.708479 1_555
Cd1 Se5 2.708479 1_555
Cd1 Se1 2.708479 1_555
Cd1 Se4 2.708479 1_555
