# generated using pymatgen
data_Na3MgZr(PO4)3
_symmetry_space_group_name_H-M   'P 1'
_cell_length_a   9.06368584
_cell_length_b   9.05004713
_cell_length_c   22.33162111
_cell_angle_alpha   89.99999999
_cell_angle_beta   90.20209512
_cell_angle_gamma   119.95023756
_symmetry_Int_Tables_number   1
_chemical_formula_structural   Na3MgZr(PO4)3
_chemical_formula_sum   'Na18 Mg6 Zr6 P18 O72'
_cell_volume   1587.15931589
_cell_formula_units_Z   6
loop_
 _symmetry_equiv_pos_site_id
 _symmetry_equiv_pos_as_xyz
  1  'x, y, z'
loop_
 _atom_site_type_symbol
 _atom_site_label
 _atom_site_symmetry_multiplicity
 _atom_site_fract_x
 _atom_site_fract_y
 _atom_site_fract_z
 _atom_site_occupancy
  Na  Na0  1  0.97907166  0.96081853  0.49090914  1
  Na  Na1  1  0.97907166  0.01825312  0.99090914  1
  Na  Na2  1  0.66659899  0.33875552  0.82408957  1
  Na  Na3  1  0.66659899  0.32784246  0.32408957  1
  Na  Na4  1  0.32730386  0.66049087  0.15743863  1
  Na  Na5  1  0.32730386  0.66681399  0.65743863  1
  Na  Na6  1  0.37125095  0.36082868  0.24437886  1
  Na  Na7  1  0.98851443  0.63348527  0.24467416  1
  Na  Na8  1  0.98851443  0.35502917  0.74467416  1
  Na  Na9  1  0.37125095  0.01042227  0.74437886  1
  Na  Na10  1  0.30845665  0.34380316  0.57769670  1
  Na  Na11  1  0.65745233  0.96558852  0.57791816  1
  Na  Na12  1  0.30845665  0.96465248  0.07769670  1
  Na  Na13  1  0.65745233  0.69186281  0.07791816  1
  Na  Na14  1  0.97821477  0.68137902  0.91051225  1
  Na  Na15  1  0.32341317  0.29681727  0.91204126  1
  Na  Na16  1  0.97821477  0.29683675  0.41051225  1
  Na  Na17  1  0.32341317  0.02659689  0.41204126  1
  Mg  Mg0  1  0.99135911  0.99377023  0.35063162  1
  Mg  Mg1  1  0.99135911  0.99758888  0.85063162  1
  Mg  Mg2  1  0.66920340  0.34218063  0.68407597  1
  Mg  Mg3  1  0.66920340  0.32702177  0.18407597  1
  Mg  Mg4  1  0.33034418  0.66175817  0.01763338  1
  Mg  Mg5  1  0.33034418  0.66858701  0.51763338  1
  Zr  Zr0  1  0.99652780  0.99157729  0.64842428  1
  Zr  Zr1  1  0.99652780  0.00495051  0.14842428  1
  Zr  Zr2  1  0.67218332  0.32703504  0.98152658  1
  Zr  Zr3  1  0.67218332  0.34514728  0.48152658  1
  Zr  Zr4  1  0.34366719  0.67333860  0.31504486  1
  Zr  Zr5  1  0.34366719  0.67032959  0.81504486  1
  P  P0  1  0.29695040  0.00363334  0.25251285  1
  P  P1  1  0.70616192  0.70178649  0.24946438  1
  P  P2  1  0.99769977  0.29821804  0.25594853  1
  P  P3  1  0.29695040  0.29331706  0.75251285  1
  P  P4  1  0.99769977  0.69948173  0.75594853  1
  P  P5  1  0.70616192  0.00437543  0.74946438  1
  P  P6  1  0.96650029  0.33632760  0.58665053  1
  P  P7  1  0.37321361  0.03779636  0.58587783  1
  P  P8  1  0.66005118  0.62786219  0.58583474  1
  P  P9  1  0.96650029  0.63017169  0.08665053  1
  P  P10  1  0.66005118  0.03218799  0.08583474  1
  P  P11  1  0.37321361  0.33541624  0.08587783  1
  P  P12  1  0.63528102  0.67099813  0.92290539  1
  P  P13  1  0.04294796  0.37247544  0.91566199  1
  P  P14  1  0.33076954  0.96362937  0.91919894  1
  P  P15  1  0.63528102  0.96428389  0.42290539  1
  P  P16  1  0.33076954  0.36714117  0.41919894  1
  P  P17  1  0.04294796  0.67047351  0.41566199  1
  O  O0  1  0.20999501  0.02244316  0.30828591  1
  O  O1  1  0.82101426  0.79691476  0.30173176  1
  O  O2  1  0.98561764  0.20390566  0.31386964  1
  O  O3  1  0.20999501  0.18755185  0.80828591  1
  O  O4  1  0.98561764  0.78171198  0.81386964  1
  O  O5  1  0.82101426  0.02409950  0.80173176  1
  O  O6  1  0.78503036  0.98274803  0.68980425  1
  O  O7  1  0.18002247  0.20290799  0.69612446  1
  O  O8  1  0.01733958  0.81943194  0.70193118  1
  O  O9  1  0.78503036  0.80228233  0.18980425  1
  O  O10  1  0.01733958  0.19790764  0.20193118  1
  O  O11  1  0.18002247  0.97711448  0.19612446  1
  O  O12  1  0.87973822  0.34830781  0.64334716  1
  O  O13  1  0.47791047  0.12448819  0.64215130  1
  O  O14  1  0.64024671  0.51737916  0.63943934  1
  O  O15  1  0.87973822  0.53142941  0.14334716  1
  O  O16  1  0.64024671  0.12286655  0.13943934  1
  O  O17  1  0.47791047  0.35342128  0.14215130  1
  O  O18  1  0.46501621  0.30953810  0.03018038  1
  O  O19  1  0.85295343  0.53681822  0.03025089  1
  O  O20  1  0.68212953  0.13864385  0.02763665  1
  O  O21  1  0.46501621  0.15547710  0.53018038  1
  O  O22  1  0.68212953  0.54348468  0.52763665  1
  O  O23  1  0.85295343  0.31613420  0.53025089  1
  O  O24  1  0.55337709  0.68338203  0.98080192  1
  O  O25  1  0.15852510  0.46622829  0.96853870  1
  O  O26  1  0.31618390  0.85933463  0.97495397  1
  O  O27  1  0.55337709  0.86999606  0.48080192  1
  O  O28  1  0.31618390  0.45685027  0.47495397  1
  O  O29  1  0.15852510  0.69229781  0.46853870  1
  O  O30  1  0.12380936  0.64363764  0.35705722  1
  O  O31  1  0.51342333  0.86653266  0.36875495  1
  O  O32  1  0.34800529  0.47530778  0.36192028  1
  O  O33  1  0.12380936  0.48017272  0.85705722  1
  O  O34  1  0.34800529  0.87269851  0.86192028  1
  O  O35  1  0.51342333  0.64689167  0.86875495  1
  O  O36  1  0.01946663  0.82557561  0.40996619  1
  O  O37  1  0.81459271  0.99314011  0.41443922  1
  O  O38  1  0.17345274  0.18698308  0.41443534  1
  O  O39  1  0.01946663  0.19389102  0.90996619  1
  O  O40  1  0.17345274  0.98646966  0.91443534  1
  O  O41  1  0.81459271  0.82145260  0.91443922  1
  O  O42  1  0.97557460  0.16562997  0.58656327  1
  O  O43  1  0.19509674  0.02786431  0.58792924  1
  O  O44  1  0.82262745  0.80981954  0.58756620  1
  O  O45  1  0.97557460  0.80994463  0.08656327  1
  O  O46  1  0.82262745  0.01280791  0.08756620  1
  O  O47  1  0.19509674  0.16723243  0.08792924  1
  O  O48  1  0.68098077  0.16075717  0.74551787  1
  O  O49  1  0.47298860  0.31146534  0.74554781  1
  O  O50  1  0.84893023  0.51792003  0.74785701  1
  O  O51  1  0.68098077  0.52022260  0.24551787  1
  O  O52  1  0.84893023  0.33100920  0.24785701  1
  O  O53  1  0.47298860  0.16152226  0.24554781  1
  O  O54  1  0.64426908  0.50042657  0.92149158  1
  O  O55  1  0.86674802  0.36608007  0.92037465  1
  O  O56  1  0.49162141  0.14742271  0.91976810  1
  O  O57  1  0.64426908  0.14384151  0.42149158  1
  O  O58  1  0.49162141  0.34419770  0.41976810  1
  O  O59  1  0.86674802  0.50066696  0.42037465  1
  O  O60  1  0.35320063  0.49258686  0.07891723  1
  O  O61  1  0.14836280  0.66285829  0.08028764  1
  O  O62  1  0.50372838  0.85206508  0.07987741  1
  O  O63  1  0.35320063  0.86061477  0.57891723  1
  O  O64  1  0.50372838  0.65166430  0.57987741  1
  O  O65  1  0.14836280  0.48550551  0.58028764  1
  O  O66  1  0.30703427  0.83556573  0.25432886  1
  O  O67  1  0.52303689  0.68017273  0.25356784  1
  O  O68  1  0.16951259  0.47617772  0.25373399  1
  O  O69  1  0.30703427  0.47146954  0.75432886  1
  O  O70  1  0.16951259  0.69333588  0.75373399  1
  O  O71  1  0.52303689  0.84286516  0.75356784  1
loop_
_geom_bond_atom_site_label_1
_geom_bond_atom_site_label_2
_geom_bond_distance
_geom_bond_site_symmetry_2
Na0 O36 2.313353 1_655
Na0 O37 2.375225 1_555
Na0 O44 2.573718 1_555
Na0 O38 2.574969 1_665
Na0 O43 2.771265 1_665
Na0 O42 2.838799 1_565
Na1 O39 2.313353 1_655
Na1 O41 2.375224 1_545
Na1 O46 2.573718 1_556
Na1 O40 2.574969 1_645
Na1 O47 2.771265 1_656
Na1 O45 2.838799 1_546
Na2 O50 2.366980 1_555
Na2 O49 2.400486 1_555
Na2 O48 2.429401 1_555
Na2 O54 2.685471 1_555
Na2 O56 2.713064 1_555
Na2 O55 2.738611 1_555
Na3 O52 2.366980 1_555
Na3 O53 2.400486 1_555
Na3 O51 2.429401 1_555
Na3 O57 2.685471 1_555
Na3 O58 2.713064 1_555
Na3 O59 2.738611 1_555
Na4 O61 2.369451 1_555
Na4 O60 2.407888 1_555
Na4 O62 2.411283 1_555
Na4 O68 2.663045 1_555
Na4 O67 2.728561 1_555
Na4 O66 2.742136 1_555
Na5 O65 2.369451 1_555
Na5 O63 2.407888 1_555
Na5 O64 2.411283 1_555
Na5 O70 2.663045 1_555
Na5 O71 2.728561 1_555
Na5 O69 2.742136 1_555
Na6 O53 2.401045 1_555
Na6 O51 2.432781 1_555
Na6 O17 2.496197 1_555
Na6 O67 2.513030 1_555
Na6 O68 2.526935 1_555
Na6 O32 2.868742 1_555
Na6 O10 2.935674 1_555
Na6 O0 3.016089 1_555
Na7 O52 2.375234 1_555
Na7 O51 2.442967 1_555
Na7 O15 2.453642 1_555
Na7 O66 2.539578 1_655
Na7 O68 2.662443 1_655
Na7 O30 2.770658 1_655
Na7 O1 2.893384 1_555
Na7 O11 2.912559 1_655
Na8 O50 2.375226 1_555
Na8 O48 2.442968 1_555
Na8 O12 2.453641 1_555
Na8 O69 2.539577 1_655
Na8 O70 2.662451 1_655
Na8 O33 2.770660 1_655
Na8 O5 2.893384 1_555
Na8 O7 2.912559 1_655
Na9 O49 2.401036 1_555
Na9 O48 2.432781 1_555
Na9 O13 2.496195 1_555
Na9 O71 2.513022 1_545
Na9 O70 2.526928 1_545
Na9 O34 2.868738 1_545
Na9 O8 2.935674 1_545
Na9 O3 3.016089 1_555
Na10 O65 2.368982 1_555
Na10 O64 2.444007 1_555
Na10 O28 2.499103 1_555
Na10 O43 2.520232 1_555
Na10 O42 2.624668 1_455
Na10 O21 2.910304 1_555
Na10 O7 2.918042 1_555
Na10 O14 2.943829 1_555
Na11 O27 2.347874 1_555
Na11 O63 2.427383 1_555
Na11 O64 2.462240 1_555
Na11 O44 2.525875 1_555
Na11 O42 2.532285 1_565
Na11 O6 2.721124 1_555
Na12 O61 2.368966 1_555
Na12 O62 2.443993 1_555
Na12 O26 2.499095 1_554
Na12 O47 2.520240 1_565
Na12 O45 2.624668 1_455
Na12 O18 2.910304 1_565
Na12 O11 2.918044 1_555
Na12 O16 2.943829 1_565
Na13 O24 2.347877 1_554
Na13 O60 2.427380 1_555
Na13 O62 2.462256 1_555
Na13 O46 2.525883 1_565
Na13 O45 2.532284 1_555
Na13 O9 2.721126 1_555
Na14 O4 2.329582 1_555
Na14 O41 2.385812 1_555
Na14 O40 2.425484 1_655
Na14 O55 2.516854 1_555
Na14 O54 2.638046 1_555
Na15 O39 2.428165 1_555
Na15 O40 2.434663 1_545
Na15 O56 2.497688 1_555
Na15 O3 2.524162 1_555
Na15 O54 2.557779 1_555
Na15 O18 2.906779 1_556
Na15 O25 2.911556 1_555
Na15 O35 2.915736 1_555
Na16 O2 2.329586 1_555
Na16 O37 2.385820 1_545
Na16 O38 2.425491 1_655
Na16 O59 2.516837 1_555
Na16 O57 2.638045 1_555
Na17 O36 2.428167 1_545
Na17 O38 2.434655 1_555
Na17 O58 2.497672 1_555
Na17 O0 2.524161 1_555
Na17 O57 2.557782 1_555
Na17 O21 2.906776 1_555
Na17 O29 2.911556 1_545
Na17 O31 2.915736 1_545
Mg0 O1 1.997954 1_555
Mg0 O0 2.094823 1_665
Mg0 O2 2.095659 1_565
Mg0 O36 2.126604 1_655
Mg0 O37 2.145771 1_555
Mg0 O38 2.216639 1_665
Mg1 O5 1.997954 1_565
Mg1 O3 2.094823 1_665
Mg1 O4 2.095659 1_555
Mg1 O39 2.126604 1_665
Mg1 O41 2.145771 1_555
Mg1 O40 2.216640 1_655
Mg2 O14 1.997538 1_555
Mg2 O13 2.083730 1_555
Mg2 O12 2.092424 1_555
Mg2 O50 2.146757 1_555
Mg2 O49 2.155963 1_555
Mg2 O48 2.182618 1_555
Mg3 O16 1.997538 1_555
Mg3 O17 2.083730 1_555
Mg3 O15 2.092424 1_555
Mg3 O52 2.146757 1_555
Mg3 O53 2.155963 1_555
Mg3 O51 2.182618 1_555
Mg4 O25 1.998728 1_554
Mg4 O26 2.085754 1_554
Mg4 O24 2.101904 1_554
Mg4 O60 2.138825 1_555
Mg4 O62 2.156409 1_555
Mg4 O61 2.170495 1_555
Mg5 O29 1.998728 1_555
Mg5 O28 2.085754 1_555
Mg5 O27 2.101904 1_555
Mg5 O63 2.138825 1_555
Mg5 O64 2.156409 1_555
Mg5 O65 2.170495 1_555
O0 P0 1.530458 1_555
O1 P1 1.511223 1_555
O2 P2 1.523565 1_555
O3 P3 1.530458 1_555
O4 P4 1.523565 1_555
O5 P5 1.511223 1_555
O6 P5 1.571868 1_565
O6 Zr0 2.096318 1_555
O7 P3 1.582114 1_555
O7 Zr0 2.090463 1_445
O8 P4 1.572842 1_455
O8 Zr0 2.045073 1_455
O9 P1 1.571868 1_555
O9 Zr1 2.096318 1_565
O10 P2 1.572842 1_455
O10 Zr1 2.045073 1_455
O11 P0 1.582114 1_565
O11 Zr1 2.090463 1_465
O12 P6 1.524923 1_555
O13 P7 1.530840 1_555
O14 P8 1.512374 1_555
O15 P9 1.524923 1_555
O16 P10 1.512374 1_555
O17 P11 1.530840 1_555
O18 P11 1.579918 1_555
O18 Zr2 2.109231 1_554
O19 P9 1.575418 1_555
O19 Zr2 2.086712 1_554
O20 P10 1.570568 1_555
O20 Zr2 2.031773 1_554
O21 P7 1.579918 1_555
O21 Zr3 2.109231 1_555
O22 P8 1.570568 1_555
O22 Zr3 2.031773 1_555
O23 P6 1.575418 1_555
O23 Zr3 2.086712 1_555
O24 P12 1.524842 1_555
O25 P13 1.521646 1_555
O26 P14 1.528141 1_555
O27 P15 1.524842 1_555
O28 P16 1.528141 1_555
O29 P17 1.521646 1_555
O30 P17 1.579058 1_555
O30 Zr4 2.098042 1_555
O31 P15 1.574732 1_555
O31 Zr4 2.040545 1_555
O32 P16 1.570844 1_555
O32 Zr4 2.092691 1_555
O33 P13 1.579058 1_555
O33 Zr5 2.098042 1_555
O34 P14 1.570844 1_555
O34 Zr5 2.092691 1_555
O35 P12 1.574732 1_555
O35 Zr5 2.040545 1_555
O36 P17 1.526400 1_555
O37 P15 1.524362 1_555
O38 P16 1.542850 1_555
O39 P13 1.526409 1_555
O40 P14 1.542845 1_555
O41 P12 1.524358 1_555
O42 P6 1.587485 1_555
O42 Zr0 2.173142 1_545
O43 P7 1.572285 1_555
O43 Zr0 2.144546 1_445
O44 P8 1.568837 1_555
O44 Zr0 2.105526 1_555
O45 P9 1.587494 1_555
O45 Zr1 2.173142 1_565
O46 P10 1.568831 1_555
O46 Zr1 2.105526 1_555
O47 P11 1.572281 1_555
O47 Zr1 2.144546 1_455
O48 P5 1.544412 1_555
O49 P3 1.528742 1_555
O50 P4 1.528644 1_555
O51 P1 1.544421 1_555
O52 P2 1.528638 1_555
O53 P0 1.528738 1_555
O54 P12 1.586243 1_555
O54 Zr2 2.172062 1_555
O55 P13 1.572830 1_655
O55 Zr2 2.120002 1_555
O56 P14 1.571903 1_545
O56 Zr2 2.133196 1_555
O57 P15 1.586225 1_545
O57 Zr3 2.172062 1_555
O58 P16 1.571914 1_555
O58 Zr3 2.133196 1_555
O59 P17 1.572838 1_655
O59 Zr3 2.120002 1_555
O60 P11 1.528959 1_555
O61 P9 1.529548 1_455
O62 P10 1.541097 1_565
O63 P7 1.528941 1_565
O64 P8 1.541107 1_555
O65 P6 1.529554 1_455
O66 P0 1.569166 1_565
O66 Zr4 2.141901 1_555
O67 P1 1.574310 1_555
O67 Zr4 2.108800 1_555
O68 P2 1.586705 1_455
O68 Zr4 2.173131 1_555
O69 P3 1.569175 1_555
O69 Zr5 2.141901 1_555
O70 P4 1.586700 1_455
O70 Zr5 2.173131 1_555
O71 P5 1.574306 1_565
O71 Zr5 2.108800 1_555
