# generated using pymatgen
data_GdBrO
_symmetry_space_group_name_H-M   'P 1'
_cell_length_a   3.89157265
_cell_length_b   3.89157265
_cell_length_c   8.50039584
_cell_angle_alpha   90.00000000
_cell_angle_beta   90.00000000
_cell_angle_gamma   90.00000000
_symmetry_Int_Tables_number   1
_chemical_formula_structural   GdBrO
_chemical_formula_sum   'Gd2 Br2 O2'
_cell_volume   128.73286510
_cell_formula_units_Z   2
loop_
 _symmetry_equiv_pos_site_id
 _symmetry_equiv_pos_as_xyz
  1  'x, y, z'
loop_
 _atom_site_type_symbol
 _atom_site_label
 _atom_site_symmetry_multiplicity
 _atom_site_fract_x
 _atom_site_fract_y
 _atom_site_fract_z
 _atom_site_occupancy
  Gd  Gd0  1  0.25000000  0.25000000  0.86302867  1
  Gd  Gd1  1  0.75000000  0.75000000  0.13697133  1
  Br  Br0  1  0.75000000  0.75000000  0.67182230  1
  Br  Br1  1  0.25000000  0.25000000  0.32817770  1
  O  O0  1  0.75000000  0.25000000  0.00000000  1
  O  O1  1  0.25000000  0.75000000  0.00000000  1
loop_
_geom_bond_atom_site_label_1
_geom_bond_atom_site_label_2
_geom_bond_distance
_geom_bond_site_symmetry_2
Gd0 O0 2.267532 1_456
Gd0 O0 2.267532 1_556
Gd0 O1 2.267532 1_556
Gd0 O1 2.267532 1_546
Gd1 O0 2.267532 1_565
Gd1 O1 2.267532 1_655
Gd1 O0 2.267532 1_555
Gd1 O1 2.267532 1_555
Br0 Gd0 3.195914 1_555
Br0 Gd0 3.195914 1_565
Br0 Gd0 3.195914 1_665
Br0 Gd0 3.195914 1_655
Br1 Gd1 3.195914 1_445
Br1 Gd1 3.195914 1_555
Br1 Gd1 3.195914 1_545
Br1 Gd1 3.195914 1_455
