# generated using pymatgen
data_Ba2MgTiO4
_symmetry_space_group_name_H-M   'P 1'
_cell_length_a   3.94747000
_cell_length_b   3.94746600
_cell_length_c   10.45042800
_cell_angle_alpha   90.00000000
_cell_angle_beta   90.00000000
_cell_angle_gamma   90.00000000
_symmetry_Int_Tables_number   1
_chemical_formula_structural   Ba2MgTiO4
_chemical_formula_sum   'Ba2 Mg1 Ti1 O4'
_cell_volume   162.84383205
_cell_formula_units_Z   1
loop_
 _symmetry_equiv_pos_site_id
 _symmetry_equiv_pos_as_xyz
  1  'x, y, z'
loop_
 _atom_site_type_symbol
 _atom_site_label
 _atom_site_symmetry_multiplicity
 _atom_site_fract_x
 _atom_site_fract_y
 _atom_site_fract_z
 _atom_site_occupancy
  Ba  Ba0  1  0.99161700  0.00000000  0.04551600  1
  Ba  Ba1  1  0.99161700  0.00000000  0.45448400  1
  Mg  Mg0  1  0.99587100  0.00000000  0.75000000  1
  Ti  Ti0  1  0.49544100  0.50000000  0.75000000  1
  O  O0  1  0.99521700  0.50000000  0.75000000  1
  O  O1  1  0.49419600  0.50000000  0.94606300  1
  O  O2  1  0.49419600  0.50000000  0.55393700  1
  O  O3  1  0.49584600  0.00000000  0.75000000  1
loop_
_geom_bond_atom_site_label_1
_geom_bond_atom_site_label_2
_geom_bond_distance
_geom_bond_site_symmetry_2
Ba0 O1 2.971762 1_554
Ba0 O1 2.971762 1_544
Ba0 O1 2.985254 1_654
Ba0 O1 2.985254 1_644
Ba1 O2 2.971762 1_545
Ba1 O2 2.971762 1_555
Ba1 O2 2.985254 1_645
Ba1 O2 2.985254 1_655
Mg0 O3 1.973636 1_655
Mg0 O0 1.973735 1_545
Mg0 O0 1.973735 1_555
Mg0 O3 1.973834 1_555
O0 Ti0 1.972851 1_555
O0 Ti0 1.974619 1_655
O1 Ti0 2.048948 1_555
O2 Ti0 2.048948 1_555
O3 Ti0 1.973734 1_555
O3 Ti0 1.973734 1_545
