# generated using pymatgen
data_K2AlH2OF5
_symmetry_space_group_name_H-M   'P 1'
_cell_length_a   6.21545951
_cell_length_b   6.21545951
_cell_length_c   7.60903600
_cell_angle_alpha   90.00000000
_cell_angle_beta   90.00000000
_cell_angle_gamma   98.60199965
_symmetry_Int_Tables_number   1
_chemical_formula_structural   K2AlH2OF5
_chemical_formula_sum   'K4 Al2 H4 O2 F10'
_cell_volume   290.64518295
_cell_formula_units_Z   2
loop_
 _symmetry_equiv_pos_site_id
 _symmetry_equiv_pos_as_xyz
  1  'x, y, z'
loop_
 _atom_site_type_symbol
 _atom_site_label
 _atom_site_symmetry_multiplicity
 _atom_site_fract_x
 _atom_site_fract_y
 _atom_site_fract_z
 _atom_site_occupancy
  K  K0  1  0.07614500  0.49717200  0.25000000  1
  K  K1  1  0.92385500  0.50282800  0.75000000  1
  K  K2  1  0.49717200  0.07614500  0.25000000  1
  K  K3  1  0.50282800  0.92385500  0.75000000  1
  Al  Al0  1  0.00000000  0.00000000  0.50000000  1
  Al  Al1  1  0.00000000  0.00000000  0.00000000  1
  H  H0  1  0.60798300  0.60798300  0.14807500  1
  H  H1  1  0.39201700  0.39201700  0.64807500  1
  H  H2  1  0.39201700  0.39201700  0.85192500  1
  H  H3  1  0.60798300  0.60798300  0.35192500  1
  O  O0  1  0.53287300  0.53287300  0.25000000  1
  O  O1  1  0.46712700  0.46712700  0.75000000  1
  F  F0  1  0.99443600  0.99443600  0.75000000  1
  F  F1  1  0.00556400  0.00556400  0.25000000  1
  F  F2  1  0.80899900  0.19100100  0.00000000  1
  F  F3  1  0.19100100  0.80899900  0.50000000  1
  F  F4  1  0.19100100  0.80899900  0.00000000  1
  F  F5  1  0.80899900  0.19100100  0.50000000  1
  F  F6  1  0.77586600  0.77586600  0.00228600  1
  F  F7  1  0.22413400  0.22413400  0.50228600  1
  F  F8  1  0.22413400  0.22413400  0.99771400  1
  F  F9  1  0.77586600  0.77586600  0.49771400  1
loop_
_geom_bond_atom_site_label_1
_geom_bond_atom_site_label_2
_geom_bond_distance
_geom_bond_site_symmetry_2
K0 O0 2.814151 1_555
K1 O1 2.814151 1_555
K2 O0 2.814151 1_555
K3 O1 2.814151 1_555
Al0 F3 1.800079 1_545
Al0 F5 1.800079 1_455
Al0 F7 1.816918 1_555
Al0 F9 1.816918 1_445
Al0 F0 1.902794 1_445
Al0 F1 1.902794 1_555
Al1 F4 1.800079 1_545
Al1 F2 1.800079 1_455
Al1 F8 1.816918 1_554
Al1 F6 1.816918 1_445
Al1 F1 1.902794 1_555
Al1 F0 1.902794 1_444
H0 O0 0.985986 1_555
H1 O1 0.985986 1_555
H2 O1 0.985986 1_555
H3 O0 0.985986 1_555
F0 K1 3.021254 1_555
F0 K3 3.021254 1_555
F1 K0 3.021254 1_555
F1 K2 3.021254 1_555
F2 K2 2.733266 1_555
F2 K1 2.733266 1_554
F2 K0 3.008621 1_655
F2 K3 3.008621 1_544
F3 K0 2.733266 1_555
F3 K3 2.733266 1_555
F3 K1 3.008621 1_455
F3 K2 3.008621 1_565
F4 K0 2.733266 1_555
F4 K3 2.733266 1_554
F4 K2 3.008621 1_565
F4 K1 3.008621 1_454
F5 K2 2.733266 1_555
F5 K1 2.733266 1_555
F5 K0 3.008621 1_655
F5 K3 3.008621 1_545
F6 K3 2.806794 1_554
F6 K1 2.806794 1_554
F7 K2 2.806794 1_555
F7 K0 2.806794 1_555
F8 K0 2.806794 1_556
F8 K2 2.806794 1_556
F9 K1 2.806794 1_555
F9 K3 2.806794 1_555
