# generated using pymatgen
data_LiNi2P5O16
_symmetry_space_group_name_H-M   'P 1'
_cell_length_a   18.46594032
_cell_length_b   6.81288900
_cell_length_c   5.03646382
_cell_angle_alpha   90.00000000
_cell_angle_beta   90.95676385
_cell_angle_gamma   90.00000000
_symmetry_Int_Tables_number   1
_chemical_formula_structural   LiNi2P5O16
_chemical_formula_sum   'Li2 Ni4 P10 O32'
_cell_volume   633.53105071
_cell_formula_units_Z   2
loop_
 _symmetry_equiv_pos_site_id
 _symmetry_equiv_pos_as_xyz
  1  'x, y, z'
loop_
 _atom_site_type_symbol
 _atom_site_label
 _atom_site_symmetry_multiplicity
 _atom_site_fract_x
 _atom_site_fract_y
 _atom_site_fract_z
 _atom_site_occupancy
  Li  Li0  1  0.96814300  0.64418500  0.73571900  1
  Li  Li1  1  0.46814300  0.35581500  0.73571900  1
  Ni  Ni0  1  0.09291500  0.81422000  0.26109100  1
  Ni  Ni1  1  0.59291500  0.18578000  0.26109100  1
  Ni  Ni2  1  0.40654000  0.81993800  0.73853500  1
  Ni  Ni3  1  0.90654000  0.18006200  0.73853500  1
  P  P0  1  0.12802700  0.53693000  0.74380200  1
  P  P1  1  0.24999800  0.75279500  0.00563400  1
  P  P2  1  0.62802700  0.46307000  0.74380200  1
  P  P3  1  0.41869900  0.12605800  0.22756000  1
  P  P4  1  0.58132300  0.87332100  0.77388900  1
  P  P5  1  0.08132300  0.12667900  0.77388900  1
  P  P6  1  0.37176800  0.53273500  0.25101500  1
  P  P7  1  0.74999800  0.24720500  0.00563400  1
  P  P8  1  0.91869900  0.87394200  0.22756000  1
  P  P9  1  0.87176800  0.46726500  0.25101500  1
  O  O0  1  0.29018700  0.60524600  0.20930200  1
  O  O1  1  0.57157900  0.94059600  0.06152100  1
  O  O2  1  0.51148100  0.78764000  0.65676700  1
  O  O3  1  0.11700900  0.97466200  0.60057200  1
  O  O4  1  0.30386100  0.86513100  0.84566400  1
  O  O5  1  0.88324100  0.03620900  0.38465400  1
  O  O6  1  0.11275800  0.56270100  0.44959900  1
  O  O7  1  0.01148100  0.21236000  0.65676700  1
  O  O8  1  0.35877000  0.30267100  0.20810700  1
  O  O9  1  0.61275800  0.43729900  0.44959900  1
  O  O10  1  0.61700900  0.02533800  0.60057200  1
  O  O11  1  0.43264600  0.08215000  0.93386100  1
  O  O12  1  0.57268700  0.36881100  0.92292000  1
  O  O13  1  0.07157900  0.05940400  0.06152100  1
  O  O14  1  0.85877000  0.69732900  0.20810700  1
  O  O15  1  0.42220600  0.61386400  0.04607900  1
  O  O16  1  0.63839600  0.69192900  0.79899000  1
  O  O17  1  0.19584600  0.86710500  0.16026600  1
  O  O18  1  0.93264600  0.91785000  0.93386100  1
  O  O19  1  0.70918500  0.39820900  0.80934600  1
  O  O20  1  0.38324100  0.96379100  0.38465400  1
  O  O21  1  0.07268700  0.63118900  0.92292000  1
  O  O22  1  0.69584600  0.13289500  0.16026600  1
  O  O23  1  0.39312600  0.55692800  0.54147100  1
  O  O24  1  0.48561200  0.21132400  0.37365600  1
  O  O25  1  0.98561200  0.78867500  0.37365600  1
  O  O26  1  0.89312600  0.44307200  0.54147100  1
  O  O27  1  0.79018700  0.39475400  0.20930200  1
  O  O28  1  0.92220600  0.38613600  0.04607900  1
  O  O29  1  0.80386100  0.13486900  0.84566400  1
  O  O30  1  0.20918500  0.60179100  0.80934600  1
  O  O31  1  0.13839600  0.30807100  0.79899000  1
loop_
_geom_bond_atom_site_label_1
_geom_bond_atom_site_label_2
_geom_bond_distance
_geom_bond_site_symmetry_2
Li0 O25 2.101892 1_555
Li0 O21 2.136078 1_655
Li0 O26 2.169825 1_555
Li0 O18 2.218908 1_555
Li0 O28 2.509572 1_556
Li1 O24 2.101895 1_555
Li1 O12 2.136078 1_555
Li1 O23 2.169825 1_555
Li1 O11 2.218908 1_555
Li1 O15 2.509572 1_556
Ni0 O13 1.985587 1_565
Ni0 O6 1.990065 1_555
Ni0 O17 2.008143 1_555
Ni0 O3 2.071405 1_555
Ni0 O25 2.077344 1_455
Ni0 O21 2.138704 1_554
Ni1 O1 1.985587 1_545
Ni1 O9 1.990065 1_555
Ni1 O22 2.008143 1_555
Ni1 O10 2.071405 1_555
Ni1 O24 2.077344 1_555
Ni1 O12 2.138704 1_554
Ni2 O2 1.999967 1_555
Ni2 O4 2.003781 1_555
Ni2 O23 2.061303 1_555
Ni2 O20 2.072831 1_555
Ni2 O11 2.091800 1_565
Ni2 O15 2.106899 1_556
Ni3 O7 1.999967 1_655
Ni3 O29 2.003781 1_555
Ni3 O26 2.061303 1_555
Ni3 O5 2.072831 1_555
Ni3 O18 2.091800 1_545
Ni3 O28 2.106899 1_556
O0 P6 1.595952 1_555
O0 P1 1.608734 1_555
O1 P4 1.532884 1_554
O2 P4 1.525327 1_555
O3 P5 1.512628 1_565
O4 P1 1.500304 1_556
O5 P8 1.514648 1_545
O6 P0 1.513914 1_555
O7 P5 1.525327 1_555
O8 P6 1.599788 1_555
O8 P3 1.636594 1_555
O9 P2 1.513914 1_555
O10 P4 1.512628 1_545
O11 P3 1.535116 1_556
O12 P2 1.517000 1_555
O13 P5 1.532884 1_554
O14 P9 1.599788 1_555
O14 P8 1.636594 1_555
O15 P6 1.506793 1_555
O16 P2 1.594747 1_555
O16 P4 1.627717 1_555
O17 P1 1.496319 1_555
O18 P8 1.535116 1_556
O19 P2 1.591759 1_555
O19 P7 1.605866 1_556
O20 P3 1.514648 1_565
O21 P0 1.517000 1_555
O22 P7 1.496319 1_555
O23 P6 1.517709 1_555
O24 P3 1.541181 1_555
O25 P8 1.541184 1_555
O26 P9 1.517709 1_555
O27 P9 1.595952 1_555
O27 P7 1.608734 1_555
O28 P9 1.506793 1_555
O29 P7 1.500304 1_556
O30 P0 1.591759 1_555
O30 P1 1.605866 1_556
O31 P0 1.594747 1_555
O31 P5 1.627717 1_555
