# generated using pymatgen
data_Na3Ca4Nb2P3(SO6)6
_symmetry_space_group_name_H-M   'P 1'
_cell_length_a   9.08239666
_cell_length_b   9.08239634
_cell_length_c   23.70497886
_cell_angle_alpha   90.00000000
_cell_angle_beta   90.00000000
_cell_angle_gamma   120.00000115
_symmetry_Int_Tables_number   1
_chemical_formula_structural   Na3Ca4Nb2P3(SO6)6
_chemical_formula_sum   'Na6 Ca8 Nb4 P6 S12 O72'
_cell_volume   1693.44507043
_cell_formula_units_Z   2
loop_
 _symmetry_equiv_pos_site_id
 _symmetry_equiv_pos_as_xyz
  1  'x, y, z'
loop_
 _atom_site_type_symbol
 _atom_site_label
 _atom_site_symmetry_multiplicity
 _atom_site_fract_x
 _atom_site_fract_y
 _atom_site_fract_z
 _atom_site_occupancy
  Na  Na0  1  0.00000000  0.00000000  0.49468854  1
  Na  Na1  1  0.00000000  0.00000000  0.99468854  1
  Na  Na2  1  0.66666700  0.33333300  0.82945175  1
  Na  Na3  1  0.66666700  0.33333300  0.32945175  1
  Na  Na4  1  0.33333300  0.66666700  0.16504333  1
  Na  Na5  1  0.33333300  0.66666700  0.66504333  1
  Ca  Ca0  1  0.00000000  0.00000000  0.35203025  1
  Ca  Ca1  1  0.00000000  0.00000000  0.85203025  1
  Ca  Ca2  1  0.00000000  0.00000000  0.64819202  1
  Ca  Ca3  1  0.00000000  0.00000000  0.14819202  1
  Ca  Ca4  1  0.66666700  0.33333300  0.68687160  1
  Ca  Ca5  1  0.66666700  0.33333300  0.18687160  1
  Ca  Ca6  1  0.33333300  0.66666700  0.01875446  1
  Ca  Ca7  1  0.33333300  0.66666700  0.51875446  1
  Nb  Nb0  1  0.66666700  0.33333300  0.97599327  1
  Nb  Nb1  1  0.66666700  0.33333300  0.47599327  1
  Nb  Nb2  1  0.33333300  0.66666700  0.32319715  1
  Nb  Nb3  1  0.33333300  0.66666700  0.82319715  1
  P  P0  1  0.62503816  0.66046898  0.91967062  1
  P  P1  1  0.03542983  0.37496184  0.91967062  1
  P  P2  1  0.33953102  0.96457017  0.91967062  1
  P  P3  1  0.62503816  0.96457017  0.41967062  1
  P  P4  1  0.33953102  0.37496184  0.41967062  1
  P  P5  1  0.03542983  0.66046898  0.41967062  1
  S  S0  1  0.30008636  0.98846963  0.25347866  1
  S  S1  1  0.68838327  0.69991364  0.25347866  1
  S  S2  1  0.01153037  0.31161673  0.25347866  1
  S  S3  1  0.30008636  0.31161673  0.75347866  1
  S  S4  1  0.01153037  0.69991364  0.75347866  1
  S  S5  1  0.68838327  0.98846963  0.75347866  1
  S  S6  1  0.95066159  0.32825116  0.58042289  1
  S  S7  1  0.37759057  0.04933841  0.58042289  1
  S  S8  1  0.67174884  0.62240943  0.58042289  1
  S  S9  1  0.95066159  0.62240943  0.08042289  1
  S  S10  1  0.67174884  0.04933841  0.08042289  1
  S  S11  1  0.37759057  0.32825116  0.08042289  1
  O  O0  1  0.21786506  0.01076654  0.30228897  1
  O  O1  1  0.79290148  0.78213494  0.30228897  1
  O  O2  1  0.98923346  0.20709852  0.30228897  1
  O  O3  1  0.21786506  0.20709852  0.80228897  1
  O  O4  1  0.98923346  0.78213494  0.80228897  1
  O  O5  1  0.79290148  0.01076654  0.80228897  1
  O  O6  1  0.75576945  0.95858521  0.70055440  1
  O  O7  1  0.20281576  0.24423055  0.70055440  1
  O  O8  1  0.04141479  0.79718424  0.70055440  1
  O  O9  1  0.75576945  0.79718424  0.20055440  1
  O  O10  1  0.04141479  0.24423055  0.20055440  1
  O  O11  1  0.20281576  0.95858521  0.20055440  1
  O  O12  1  0.86707849  0.33794286  0.63132914  1
  O  O13  1  0.47086537  0.13292151  0.63132914  1
  O  O14  1  0.66205714  0.52913463  0.63132914  1
  O  O15  1  0.86707849  0.52913463  0.13132914  1
  O  O16  1  0.66205714  0.13292151  0.13132914  1
  O  O17  1  0.47086537  0.33794286  0.13132914  1
  O  O18  1  0.47981833  0.32376999  0.02844283  1
  O  O19  1  0.84395265  0.52018167  0.02844283  1
  O  O20  1  0.67623001  0.15604735  0.02844283  1
  O  O21  1  0.47981833  0.15604735  0.52844283  1
  O  O22  1  0.67623001  0.52018167  0.52844283  1
  O  O23  1  0.84395265  0.32376999  0.52844283  1
  O  O24  1  0.54621824  0.68308971  0.97173911  1
  O  O25  1  0.13687047  0.45378176  0.97173911  1
  O  O26  1  0.31691029  0.86312953  0.97173911  1
  O  O27  1  0.54621824  0.86312953  0.47173911  1
  O  O28  1  0.31691029  0.45378176  0.47173911  1
  O  O29  1  0.13687047  0.68308971  0.47173911  1
  O  O30  1  0.13329643  0.63257392  0.36613708  1
  O  O31  1  0.49927649  0.86670357  0.36613708  1
  O  O32  1  0.36742608  0.50072351  0.36613708  1
  O  O33  1  0.13329643  0.50072351  0.86613708  1
  O  O34  1  0.36742608  0.86670357  0.86613708  1
  O  O35  1  0.49927649  0.63257392  0.86613708  1
  O  O36  1  -0.00156948  0.80060614  0.40743315  1
  O  O37  1  0.80217563  0.00156948  0.40743315  1
  O  O38  1  0.19939386  0.19782437  0.40743315  1
  O  O39  1  -0.00156948  0.19782437  0.90743315  1
  O  O40  1  0.19939386  0.00156948  0.90743315  1
  O  O41  1  0.80217563  0.80060614  0.90743315  1
  O  O42  1  0.95817367  0.16960238  0.57763638  1
  O  O43  1  0.21142871  0.04182633  0.57763638  1
  O  O44  1  0.83039762  0.78857129  0.57763638  1
  O  O45  1  0.95817367  0.78857129  0.07763638  1
  O  O46  1  0.83039762  0.04182633  0.07763638  1
  O  O47  1  0.21142871  0.16960238  0.07763638  1
  O  O48  1  0.65663658  0.13275215  0.74899156  1
  O  O49  1  0.47611657  0.34336342  0.74899156  1
  O  O50  1  0.86724785  0.52388343  0.74899156  1
  O  O51  1  0.65663658  0.52388343  0.24899156  1
  O  O52  1  0.86724785  0.34336342  0.24899156  1
  O  O53  1  0.47611657  0.13275215  0.24899156  1
  O  O54  1  0.62792121  0.48506110  0.92410619  1
  O  O55  1  0.85714089  0.37207879  0.92410619  1
  O  O56  1  0.51493890  0.14285911  0.92410619  1
  O  O57  1  0.62792121  0.14285911  0.42410619  1
  O  O58  1  0.51493890  0.37207879  0.42410619  1
  O  O59  1  0.85714089  0.48506110  0.42410619  1
  O  O60  1  0.36051279  0.48014949  0.07729293  1
  O  O61  1  0.11963570  0.63948721  0.07729293  1
  O  O62  1  0.51985051  0.88036430  0.07729293  1
  O  O63  1  0.36051279  0.88036430  0.57729293  1
  O  O64  1  0.51985051  0.63948721  0.57729293  1
  O  O65  1  0.11963570  0.48014949  0.57729293  1
  O  O66  1  0.31425220  0.82741934  0.26240196  1
  O  O67  1  0.51316614  0.68574780  0.26240196  1
  O  O68  1  0.17258066  0.48683386  0.26240196  1
  O  O69  1  0.31425220  0.48683386  0.76240196  1
  O  O70  1  0.17258066  0.68574780  0.76240196  1
  O  O71  1  0.51316614  0.82741934  0.76240196  1
loop_
_geom_bond_atom_site_label_1
_geom_bond_atom_site_label_2
_geom_bond_distance
_geom_bond_site_symmetry_2
Na0 O44 2.639800 1_445
Na0 O42 2.639800 1_455
Na0 O43 2.639800 1_555
Na0 O38 2.744493 1_555
Na0 O37 2.744493 1_455
Na0 O36 2.744493 1_545
Na1 O45 2.639800 1_446
Na1 O47 2.639800 1_556
Na1 O46 2.639800 1_456
Na1 O39 2.744493 1_555
Na1 O41 2.744493 1_445
Na1 O40 2.744493 1_555
Na2 O48 2.607479 1_555
Na2 O50 2.607479 1_555
Na2 O49 2.607479 1_555
Na2 O56 2.746338 1_555
Na2 O54 2.746338 1_555
Na2 O55 2.746338 1_555
Na3 O53 2.607479 1_555
Na3 O51 2.607479 1_555
Na3 O52 2.607479 1_555
Na3 O57 2.746338 1_555
Na3 O59 2.746338 1_555
Na3 O58 2.746338 1_555
Na4 O62 2.770515 1_555
Na4 O60 2.770515 1_555
Na4 O61 2.770515 1_555
Na4 O68 2.782271 1_555
Na4 O66 2.782271 1_555
Na4 O67 2.782271 1_555
Na5 O63 2.770515 1_555
Na5 O65 2.770515 1_555
Na5 O64 2.770515 1_555
Na5 O69 2.782271 1_555
Na5 O71 2.782271 1_555
Na5 O70 2.782271 1_555
Ca0 O38 2.231331 1_555
Ca0 O37 2.231331 1_455
Ca0 O36 2.231331 1_545
Ca0 O1 2.263136 1_445
Ca0 O2 2.263136 1_455
Ca0 O0 2.263136 1_555
Ca1 O39 2.231331 1_555
Ca1 O41 2.231331 1_445
Ca1 O40 2.231331 1_555
Ca1 O4 2.263136 1_445
Ca1 O3 2.263136 1_555
Ca1 O5 2.263136 1_455
Ca2 O7 2.401713 1_555
Ca2 O8 2.401713 1_545
Ca2 O6 2.401713 1_445
Ca2 O44 2.428914 1_445
Ca2 O42 2.428914 1_455
Ca2 O43 2.428914 1_555
Ca3 O10 2.401713 1_555
Ca3 O9 2.401713 1_445
Ca3 O11 2.401713 1_545
Ca3 O45 2.428914 1_445
Ca3 O47 2.428914 1_555
Ca3 O46 2.428914 1_455
Ca4 O13 2.229855 1_555
Ca4 O14 2.229855 1_555
Ca4 O12 2.229855 1_555
Ca4 O48 2.308579 1_555
Ca4 O50 2.308579 1_555
Ca4 O49 2.308579 1_555
Ca5 O16 2.229855 1_555
Ca5 O15 2.229855 1_555
Ca5 O17 2.229855 1_555
Ca5 O53 2.308579 1_555
Ca5 O51 2.308579 1_555
Ca5 O52 2.308579 1_555
Ca6 O25 2.171269 1_554
Ca6 O26 2.171269 1_554
Ca6 O24 2.171269 1_554
Ca6 O62 2.296612 1_555
Ca6 O60 2.296612 1_555
Ca6 O61 2.296612 1_555
Ca7 O28 2.171269 1_555
Ca7 O27 2.171269 1_555
Ca7 O29 2.171269 1_555
Ca7 O63 2.296612 1_555
Ca7 O65 2.296612 1_555
Ca7 O64 2.296612 1_555
Nb0 O56 2.005161 1_555
Nb0 O54 2.005161 1_555
Nb0 O55 2.005161 1_555
Nb0 O20 2.070243 1_556
Nb0 O19 2.070243 1_556
Nb0 O18 2.070243 1_556
Nb1 O57 2.005161 1_555
Nb1 O59 2.005161 1_555
Nb1 O58 2.005161 1_555
Nb1 O21 2.070243 1_555
Nb1 O23 2.070243 1_555
Nb1 O22 2.070243 1_555
Nb2 O31 1.967286 1_555
Nb2 O32 1.967286 1_555
Nb2 O30 1.967286 1_555
Nb2 O68 2.119342 1_555
Nb2 O66 2.119342 1_555
Nb2 O67 2.119342 1_555
Nb3 O34 1.967286 1_555
Nb3 O33 1.967286 1_555
Nb3 O35 1.967286 1_555
Nb3 O69 2.119342 1_555
Nb3 O71 2.119342 1_555
Nb3 O70 2.119342 1_555
O0 S0 1.445218 1_545
O1 S1 1.445218 1_555
O2 S2 1.445218 1_655
O3 S3 1.445218 1_555
O4 S4 1.445218 1_655
O5 S5 1.445218 1_545
O6 S5 1.479293 1_555
O7 S3 1.479293 1_555
O8 S4 1.479293 1_555
O9 S1 1.479293 1_555
O10 S2 1.479293 1_555
O11 S0 1.479293 1_555
O12 S6 1.451571 1_555
O13 S7 1.451571 1_555
O14 S8 1.451571 1_555
O15 S9 1.451571 1_555
O16 S10 1.451571 1_555
O17 S11 1.451571 1_555
O18 S11 1.555567 1_555
O19 S9 1.555568 1_555
O20 S10 1.555568 1_555
O21 S7 1.555568 1_555
O22 S8 1.555567 1_555
O23 S6 1.555568 1_555
O24 P0 1.491715 1_555
O25 P1 1.491715 1_555
O26 P2 1.491715 1_555
O27 P3 1.491715 1_555
O28 P4 1.491715 1_555
O29 P5 1.491715 1_555
O30 P5 1.640077 1_555
O31 P3 1.640077 1_555
O32 P4 1.640077 1_555
O33 P1 1.640077 1_555
O34 P2 1.640077 1_555
O35 P0 1.640077 1_555
O36 P5 1.498251 1_555
O37 P3 1.498260 1_545
O38 P4 1.498257 1_555
O39 P1 1.498260 1_555
O40 P2 1.498251 1_545
O41 P0 1.498257 1_555
O42 S6 1.477685 1_555
O43 S7 1.477694 1_555
O44 S8 1.477690 1_555
O45 S9 1.477694 1_555
O46 S10 1.477685 1_555
O47 S11 1.477690 1_555
O48 S5 1.479705 1_545
O49 S3 1.479714 1_555
O50 S4 1.479710 1_655
O51 S1 1.479713 1_555
O52 S2 1.479705 1_655
O53 S0 1.479710 1_545
O54 P0 1.609814 1_555
O55 P1 1.609796 1_655
O56 P2 1.609805 1_545
O57 P3 1.609796 1_545
O58 P4 1.609814 1_555
O59 P5 1.609805 1_655
O60 S11 1.465213 1_555
O61 S9 1.465194 1_455
O62 S10 1.465202 1_565
O63 S7 1.465194 1_565
O64 S8 1.465213 1_555
O65 S6 1.465202 1_455
O66 S0 1.545654 1_555
O67 S1 1.545663 1_555
O68 S2 1.545660 1_555
O69 S3 1.545663 1_555
O70 S4 1.545655 1_555
O71 S5 1.545660 1_555
