# generated using pymatgen
data_KHF2
_symmetry_space_group_name_H-M   'P 1'
_cell_length_a   5.18800893
_cell_length_b   5.18800805
_cell_length_c   5.18800787
_cell_angle_alpha   99.47861031
_cell_angle_beta   114.68696452
_cell_angle_gamma   114.68696299
_symmetry_Int_Tables_number   1
_chemical_formula_structural   KHF2
_chemical_formula_sum   'K2 H2 F4'
_cell_volume   105.10416729
_cell_formula_units_Z   2
loop_
 _symmetry_equiv_pos_site_id
 _symmetry_equiv_pos_as_xyz
  1  'x, y, z'
loop_
 _atom_site_type_symbol
 _atom_site_label
 _atom_site_symmetry_multiplicity
 _atom_site_fract_x
 _atom_site_fract_y
 _atom_site_fract_z
 _atom_site_occupancy
  K  K0  1  -0.00000000  0.75000000  0.75000000  1
  K  K1  1  -0.00000000  0.25000000  0.25000000  1
  H  H0  1  0.50000000  0.50000000  -0.00000000  1
  H  H1  1  0.50000000  -0.00000000  0.50000000  1
  F  F0  1  0.21187717  0.35593758  0.85593758  1
  F  F1  1  0.50000000  0.85593758  0.64406242  1
  F  F2  1  0.78812283  0.64406242  0.14406242  1
  F  F3  1  0.50000000  0.14406242  0.35593758  1
loop_
_geom_bond_atom_site_label_1
_geom_bond_atom_site_label_2
_geom_bond_distance
_geom_bond_site_symmetry_2
F0 H0 1.140687 1_556
F0 K1 2.726255 1_555
F0 K0 2.726255 1_545
F0 K1 2.726263 1_556
F0 K0 2.726264 1_555
F1 H1 1.140695 1_565
F1 K1 2.726257 1_666
F1 K1 2.726257 1_555
F1 K0 2.726257 1_655
F1 K0 2.726257 1_555
F2 H0 1.140687 1_555
F2 K0 2.726255 1_655
F2 K1 2.726255 1_665
F2 K0 2.726263 1_654
F2 K1 2.726264 1_655
F3 H1 1.140695 1_555
F3 K0 2.726257 1_544
F3 K0 2.726257 1_655
F3 K1 2.726257 1_555
F3 K1 2.726257 1_655
