# generated using pymatgen
data_Na2Ta5Al3(PO4)12
_symmetry_space_group_name_H-M   'P 1'
_cell_length_a   17.22272314
_cell_length_b   8.61332589
_cell_length_c   22.28740776
_cell_angle_alpha   89.97506428
_cell_angle_beta   89.98704486
_cell_angle_gamma   119.99720851
_symmetry_Int_Tables_number   1
_chemical_formula_structural   Na2Ta5Al3(PO4)12
_chemical_formula_sum   'Na6 Ta15 Al9 P36 O144'
_cell_volume   2863.35375911
_cell_formula_units_Z   3
loop_
 _symmetry_equiv_pos_site_id
 _symmetry_equiv_pos_as_xyz
  1  'x, y, z'
loop_
 _atom_site_type_symbol
 _atom_site_label
 _atom_site_symmetry_multiplicity
 _atom_site_fract_x
 _atom_site_fract_y
 _atom_site_fract_z
 _atom_site_occupancy
  Na  Na0  1  0.33188831  0.33068437  0.82754007  1
  Na  Na1  1  0.83481622  0.33614363  0.82846900  1
  Na  Na2  1  0.33105281  0.32954315  0.32812556  1
  Na  Na3  1  0.83530170  0.33725116  0.32707730  1
  Na  Na4  1  0.66862753  0.66723191  0.16838870  1
  Na  Na5  1  0.16640222  0.66643018  0.66555777  1
  Ta  Ta0  1  0.50013728  0.00177783  0.35580221  1
  Ta  Ta1  1  0.00080227  0.99887990  0.85551232  1
  Ta  Ta2  1  0.49933853  0.00123098  0.85627952  1
  Ta  Ta3  1  0.00318992  0.00314661  0.64189319  1
  Ta  Ta4  1  0.49674872  0.99700447  0.64155557  1
  Ta  Ta5  1  0.99644090  0.99656679  0.14632302  1
  Ta  Ta6  1  0.50329868  0.00242564  0.14387510  1
  Ta  Ta7  1  0.33392890  0.33605109  0.97928994  1
  Ta  Ta8  1  0.83270955  0.33050817  0.97992014  1
  Ta  Ta9  1  0.33033087  0.33387411  0.47740957  1
  Ta  Ta10  1  0.83635591  0.33251361  0.47624578  1
  Ta  Ta11  1  0.16614199  0.66556058  0.02571655  1
  Ta  Ta12  1  0.66913570  0.67124263  0.52350814  1
  Ta  Ta13  1  0.16346554  0.66303837  0.30845407  1
  Ta  Ta14  1  0.66715297  0.66687522  0.80785688  1
  Al  Al0  1  0.99971380  0.99812979  0.35494939  1
  Al  Al1  1  0.33053928  0.32999092  0.68610917  1
  Al  Al2  1  0.83630045  0.33691161  0.68648377  1
  Al  Al3  1  0.33376715  0.33241903  0.18858267  1
  Al  Al4  1  0.83262188  0.33446472  0.18877841  1
  Al  Al5  1  0.66722345  0.66782796  0.02306184  1
  Al  Al6  1  0.16471545  0.66266371  0.51938263  1
  Al  Al7  1  0.66980232  0.66997689  0.31078373  1
  Al  Al8  1  0.16615709  0.66631639  0.81036128  1
  P  P0  1  0.14523321  0.01244567  0.25199081  1
  P  P1  1  0.64945500  0.00005389  0.25038822  1
  P  P2  1  0.35656176  0.70381102  0.24863451  1
  P  P3  1  0.85393958  0.70574555  0.25417975  1
  P  P4  1  0.99272825  0.27712966  0.25232891  1
  P  P5  1  0.50048460  0.29877629  0.24963065  1
  P  P6  1  0.14891429  0.29821209  0.74967331  1
  P  P7  1  0.64795797  0.28412793  0.74799595  1
  P  P8  1  0.00028552  0.70283529  0.74922127  1
  P  P9  1  0.49404683  0.70350566  0.74854089  1
  P  P10  1  0.35077994  0.00009294  0.74964204  1
  P  P11  1  0.85824669  0.01196096  0.74813189  1
  P  P12  1  0.47325866  0.33785810  0.58583029  1
  P  P13  1  0.97990815  0.34608213  0.58565423  1
  P  P14  1  0.19419611  0.03942830  0.58522109  1
  P  P15  1  0.69468340  0.05556844  0.58654409  1
  P  P16  1  0.32553542  0.61042748  0.58554334  1
  P  P17  1  0.83311891  0.61126863  0.58614276  1
  P  P18  1  0.47986256  0.61469325  0.08640661  1
  P  P19  1  0.97287233  0.61424481  0.08699034  1
  P  P20  1  0.33382950  0.05334105  0.08683160  1
  P  P21  1  0.82756924  0.04036130  0.08669787  1
  P  P22  1  0.19199341  0.33049403  0.08746531  1
  P  P23  1  0.69351152  0.34637431  0.08595556  1
  P  P24  1  0.30510123  0.66477715  0.91366039  1
  P  P25  1  0.80673169  0.66662818  0.91929350  1
  P  P26  1  0.02660910  0.38802681  0.91357761  1
  P  P27  1  0.52736478  0.38830564  0.91925474  1
  P  P28  1  0.16828330  0.94673930  0.91386211  1
  P  P29  1  0.66608299  0.94546146  0.91899651  1
  P  P30  1  0.30575734  0.94450384  0.41893406  1
  P  P31  1  0.81233386  0.94612835  0.41153255  1
  P  P32  1  0.15880335  0.37485719  0.41752052  1
  P  P33  1  0.66798596  0.38891132  0.41387741  1
  P  P34  1  0.02787929  0.68180092  0.41817341  1
  P  P35  1  0.52698776  0.66520859  0.41332146  1
  O  O0  1  0.10041456  0.03631656  0.30635026  1
  O  O1  1  0.60132154  0.03041251  0.30525609  1
  O  O2  1  0.41525180  0.79554471  0.30487610  1
  O  O3  1  0.91561677  0.79886134  0.30668344  1
  O  O4  1  0.48471119  0.17262757  0.30504125  1
  O  O5  1  0.98188228  0.16451380  0.30668243  1
  O  O6  1  0.10145764  0.17261735  0.80533689  1
  O  O7  1  0.60214640  0.16948123  0.80501307  1
  O  O8  1  0.48301628  0.79631014  0.80526847  1
  O  O9  1  0.98477823  0.79677378  0.80520215  1
  O  O10  1  0.41384322  0.02993271  0.80524137  1
  O  O11  1  0.91487643  0.03475113  0.80520852  1
  O  O12  1  0.39843677  0.96979915  0.69489499  1
  O  O13  1  0.89990262  0.97178459  0.69414066  1
  O  O14  1  0.08668673  0.20365823  0.69492011  1
  O  O15  1  0.58590799  0.19950212  0.69405973  1
  O  O16  1  0.01507203  0.82753069  0.69468359  1
  O  O17  1  0.51415290  0.82785135  0.69432048  1
  O  O18  1  0.40037071  0.82771685  0.19410636  1
  O  O19  1  0.89829199  0.82643608  0.19538631  1
  O  O20  1  0.01344687  0.19998647  0.19465169  1
  O  O21  1  0.51480315  0.20231490  0.19451628  1
  O  O22  1  0.08624985  0.97329171  0.19445147  1
  O  O23  1  0.58701337  0.97041782  0.19484059  1
  O  O24  1  0.43118532  0.36593232  0.64073417  1
  O  O25  1  0.93412788  0.36939918  0.64035989  1
  O  O26  1  0.25078219  0.13161403  0.64012877  1
  O  O27  1  0.75176058  0.13823094  0.64121811  1
  O  O28  1  0.31550948  0.49800513  0.64050346  1
  O  O29  1  0.81690353  0.49660504  0.64086628  1
  O  O30  1  0.43307683  0.49688745  0.13994310  1
  O  O31  1  0.93073238  0.49589427  0.14037936  1
  O  O32  1  0.31700121  0.13786830  0.14032457  1
  O  O33  1  0.81529657  0.13394364  0.14002280  1
  O  O34  1  0.25234684  0.36637576  0.14057514  1
  O  O35  1  0.75123503  0.36892415  0.13969396  1
  O  O36  1  0.23349807  0.30309257  0.02849743  1
  O  O37  1  0.73379022  0.30703118  0.02791414  1
  O  O38  1  0.41956152  0.53230994  0.02830219  1
  O  O39  1  0.91829301  0.53347192  0.02799949  1
  O  O40  1  0.34839164  0.16379926  0.02809287  1
  O  O41  1  0.84633775  0.16024165  0.02830511  1
  O  O42  1  0.23392512  0.16135469  0.52834529  1
  O  O43  1  0.73351914  0.16552652  0.52856505  1
  O  O44  1  0.34730314  0.53311419  0.52849891  1
  O  O45  1  0.84844977  0.53137747  0.52841044  1
  O  O46  1  0.41744044  0.30309665  0.52814824  1
  O  O47  1  0.91931175  0.30516062  0.52873060  1
  O  O48  1  0.26626933  0.69476319  0.97183801  1
  O  O49  1  0.76422731  0.69504928  0.97398978  1
  O  O50  1  0.08119005  0.46759282  0.97163685  1
  O  O51  1  0.58337332  0.47194254  0.97424182  1
  O  O52  1  0.15305656  0.83751829  0.97188569  1
  O  O53  1  0.65197921  0.83322231  0.97399907  1
  O  O54  1  0.26493611  0.83444082  0.47425092  1
  O  O55  1  0.76671488  0.83659207  0.47096546  1
  O  O56  1  0.15119431  0.46726606  0.47331970  1
  O  O57  1  0.65250442  0.46735844  0.47206494  1
  O  O58  1  0.08279075  0.69817051  0.47343136  1
  O  O59  1  0.58099993  0.69480224  0.47181883  1
  O  O60  1  0.06654239  0.63461798  0.36162319  1
  O  O61  1  0.56864669  0.63311194  0.35896605  1
  O  O62  1  0.25094475  0.86856999  0.36110043  1
  O  O63  1  0.74787775  0.86394059  0.35939354  1
  O  O64  1  0.18310265  0.50026483  0.36127002  1
  O  O65  1  0.68307553  0.50255432  0.35923336  1
  O  O66  1  0.06846588  0.50333252  0.85913745  1
  O  O67  1  0.56647118  0.49878442  0.86123267  1
  O  O68  1  0.18367666  0.86376076  0.85915053  1
  O  O69  1  0.68248251  0.86615153  0.86122235  1
  O  O70  1  0.24835870  0.63370019  0.85890484  1
  O  O71  1  0.75053141  0.63445261  0.86141406  1
  O  O72  1  0.01395333  0.83682525  0.40599765  1
  O  O73  1  0.51428682  0.83022302  0.40687789  1
  O  O74  1  0.40087872  0.97060144  0.40779222  1
  O  O75  1  0.90430241  0.97211968  0.40536332  1
  O  O76  1  0.08167758  0.19132647  0.40560118  1
  O  O77  1  0.58480634  0.19840329  0.40731068  1
  O  O78  1  0.01421228  0.19807425  0.90680187  1
  O  O79  1  0.51473918  0.19925225  0.90807373  1
  O  O80  1  0.08527932  0.97121928  0.90727144  1
  O  O81  1  0.58446722  0.97101917  0.90752676  1
  O  O82  1  0.40063238  0.82967054  0.90711140  1
  O  O83  1  0.90064480  0.83068200  0.90761096  1
  O  O84  1  0.48575339  0.17172746  0.59289063  1
  O  O85  1  0.98694568  0.17227526  0.59362884  1
  O  O86  1  0.10032360  0.02676046  0.59285916  1
  O  O87  1  0.59898804  0.02873160  0.59361888  1
  O  O88  1  0.41313752  0.79983567  0.59306470  1
  O  O89  1  0.91529482  0.80157539  0.59347131  1
  O  O90  1  0.48691116  0.80178891  0.09284045  1
  O  O91  1  0.98635505  0.80342683  0.09194336  1
  O  O92  1  0.41584564  0.02826050  0.09257678  1
  O  O93  1  0.91386090  0.02625277  0.09242829  1
  O  O94  1  0.09789047  0.16802562  0.09260747  1
  O  O95  1  0.59970018  0.17308799  0.09228634  1
  O  O96  1  0.34583718  0.17044206  0.74196953  1
  O  O97  1  0.84640487  0.17352167  0.74154452  1
  O  O98  1  0.23937862  0.30882432  0.74192826  1
  O  O99  1  0.74053750  0.30745152  0.74158329  1
  O  O100  1  0.41306824  0.51925610  0.74153992  1
  O  O101  1  0.91507724  0.52138881  0.74199363  1
  O  O102  1  0.34710298  0.52052280  0.24128119  1
  O  O103  1  0.84573544  0.52227841  0.24173712  1
  O  O104  1  0.41491859  0.30810417  0.24164542  1
  O  O105  1  0.91316703  0.30540140  0.24155659  1
  O  O106  1  0.23935472  0.17279737  0.24152287  1
  O  O107  1  0.73921820  0.16993322  0.24179830  1
  O  O108  1  0.31904375  0.50033490  0.92254868  1
  O  O109  1  0.81953416  0.50055874  0.92377384  1
  O  O110  1  0.43106003  0.36101531  0.92378058  1
  O  O111  1  0.93086471  0.36186379  0.92277508  1
  O  O112  1  0.25033324  0.13882829  0.92300690  1
  O  O113  1  0.74931240  0.13757121  0.92343699  1
  O  O114  1  0.32034078  0.13843677  0.42443296  1
  O  O115  1  0.81964601  0.13582501  0.42382470  1
  O  O116  1  0.24790783  0.35982460  0.42453815  1
  O  O117  1  0.74982822  0.36106202  0.42327857  1
  O  O118  1  0.43107495  0.50043173  0.42299738  1
  O  O119  1  0.93186773  0.50408911  0.42476904  1
  O  O120  1  0.18192704  0.49741707  0.07465914  1
  O  O121  1  0.68048646  0.50624378  0.07499493  1
  O  O122  1  0.06706069  0.63637389  0.07466863  1
  O  O123  1  0.57238641  0.63888096  0.07514815  1
  O  O124  1  0.25133967  0.86539898  0.07464420  1
  O  O125  1  0.74681565  0.85508082  0.07516087  1
  O  O126  1  0.18048780  0.85365197  0.57516796  1
  O  O127  1  0.68150232  0.86615419  0.57549269  1
  O  O128  1  0.24653154  0.63864779  0.57537884  1
  O  O129  1  0.75127124  0.63710625  0.57524656  1
  O  O130  1  0.07263536  0.50581807  0.57540647  1
  O  O131  1  0.56803893  0.49937259  0.57459881  1
  O  O132  1  0.15401261  0.84034015  0.25935124  1
  O  O133  1  0.65393121  0.82940814  0.25801823  1
  O  O134  1  0.26521615  0.69176475  0.25834565  1
  O  O135  1  0.76121728  0.69173496  0.25836571  1
  O  O136  1  0.07966327  0.46721454  0.25881531  1
  O  O137  1  0.58501455  0.47886777  0.25807450  1
  O  O138  1  0.15444008  0.47874607  0.75841948  1
  O  O139  1  0.65399970  0.46824257  0.75879542  1
  O  O140  1  0.08483656  0.69123490  0.75829624  1
  O  O141  1  0.58021994  0.69123394  0.75894041  1
  O  O142  1  0.26072449  0.83014770  0.75838344  1
  O  O143  1  0.76556187  0.84013688  0.75875283  1
loop_
_geom_bond_atom_site_label_1
_geom_bond_atom_site_label_2
_geom_bond_distance
_geom_bond_site_symmetry_2
Na0 O98 2.432363 1_555
Na0 O96 2.435890 1_555
Na0 O100 2.447877 1_555
Na0 O112 2.627835 1_555
Na0 O108 2.644561 1_555
Na0 O110 2.672512 1_555
Na1 O101 2.441701 1_555
Na1 O97 2.456987 1_555
Na1 O99 2.459279 1_555
Na1 O111 2.615105 1_555
Na1 O109 2.638492 1_555
Na1 O113 2.655342 1_555
Na2 O106 2.431879 1_555
Na2 O102 2.463929 1_555
Na2 O104 2.470036 1_555
Na2 O114 2.654027 1_555
Na2 O118 2.659686 1_555
Na2 O116 2.666167 1_555
Na3 O105 2.423595 1_555
Na3 O103 2.429129 1_555
Na3 O107 2.459062 1_555
Na3 O117 2.665897 1_555
Na3 O119 2.680721 1_555
Na3 O115 2.694602 1_555
Na4 O135 2.504831 1_555
Na4 O137 2.522139 1_555
Na4 O133 2.522203 1_555
Na4 O125 2.562372 1_555
Na4 O121 2.565671 1_555
Na4 O123 2.592832 1_555
Na5 O126 2.514666 1_555
Na5 O130 2.515711 1_555
Na5 O128 2.516085 1_555
Na5 O140 2.567161 1_555
Na5 O138 2.569650 1_555
Na5 O142 2.573146 1_555
Al0 O72 1.903781 1_655
Al0 O75 1.908859 1_555
Al0 O76 1.920870 1_665
Al0 O3 1.928073 1_555
Al0 O0 1.928153 1_665
Al0 O5 1.935011 1_565
Al1 O26 1.874008 1_555
Al1 O28 1.888869 1_555
Al1 O24 1.893563 1_555
Al1 O98 1.938722 1_555
Al1 O96 1.966890 1_555
Al1 O100 1.972235 1_555
Al2 O29 1.869667 1_555
Al2 O25 1.871183 1_555
Al2 O27 1.891297 1_555
Al2 O101 1.934681 1_555
Al2 O97 1.939143 1_555
Al2 O99 1.967984 1_555
Al3 O32 1.888419 1_555
Al3 O34 1.899280 1_555
Al3 O30 1.918972 1_555
Al3 O102 1.920147 1_555
Al3 O106 1.920613 1_555
Al3 O104 1.920708 1_555
Al4 O31 1.897548 1_555
Al4 O35 1.914692 1_555
Al4 O103 1.922903 1_555
Al4 O107 1.926304 1_555
Al4 O105 1.928310 1_555
Al4 O33 1.933736 1_555
Al5 O125 1.902715 1_555
Al5 O121 1.909327 1_555
Al5 O49 1.910376 1_554
Al5 O53 1.914908 1_554
Al5 O123 1.915542 1_555
Al5 O51 1.918874 1_554
Al6 O56 1.884269 1_555
Al6 O58 1.888140 1_555
Al6 O54 1.903817 1_555
Al6 O130 1.937658 1_555
Al6 O128 1.969238 1_555
Al6 O126 1.969997 1_555
Al7 O63 1.878545 1_555
Al7 O135 1.892797 1_555
Al7 O65 1.904258 1_555
Al7 O133 1.928095 1_555
Al7 O61 1.932585 1_555
Al7 O137 1.954730 1_555
Al8 O66 1.902482 1_555
Al8 O70 1.910990 1_555
Al8 O68 1.911629 1_555
Al8 O140 1.911871 1_555
Al8 O138 1.914885 1_555
Al8 O142 1.919789 1_555
O0 P0 1.504792 1_555
O1 P1 1.570849 1_555
O1 Ta0 1.983914 1_555
O2 P2 1.555659 1_555
O2 Ta0 1.996691 1_565
O3 P3 1.513415 1_555
O4 P5 1.575774 1_555
O4 Ta0 1.976279 1_555
O5 P4 1.503653 1_555
O6 P6 1.578495 1_555
O6 Ta1 1.974551 1_545
O7 P7 1.559451 1_555
O7 Ta2 1.993163 1_555
O8 P9 1.557613 1_555
O8 Ta2 1.998182 1_565
O9 P8 1.580979 1_655
O9 Ta1 1.971117 1_655
O10 P10 1.582088 1_555
O10 Ta2 1.971721 1_555
O11 P11 1.554777 1_555
O11 Ta1 2.000026 1_645
O12 P10 1.563506 1_565
O12 Ta4 1.984235 1_555
O13 P11 1.526651 1_565
O13 Ta3 2.027728 1_665
O14 P6 1.558758 1_555
O14 Ta3 1.991638 1_555
O15 P7 1.529984 1_555
O15 Ta4 2.023353 1_545
O16 P8 1.555987 1_555
O16 Ta3 2.005574 1_565
O17 P9 1.534654 1_555
O17 Ta4 2.007717 1_555
O18 P2 1.542239 1_555
O18 Ta6 1.997637 1_565
O19 P3 1.607959 1_555
O19 Ta5 1.929097 1_555
O20 P4 1.568087 1_455
O20 Ta5 1.950525 1_445
O21 P5 1.570228 1_555
O21 Ta6 1.984467 1_555
O22 P0 1.564817 1_565
O22 Ta5 1.973287 1_455
O23 P1 1.575036 1_565
O23 Ta6 1.960345 1_565
O24 P12 1.501987 1_555
O25 P13 1.518778 1_555
O26 P14 1.518367 1_555
O27 P15 1.503186 1_555
O28 P16 1.516439 1_555
O29 P17 1.504643 1_555
O30 P18 1.511143 1_555
O31 P19 1.496843 1_555
O32 P20 1.499018 1_555
O33 P21 1.509289 1_555
O34 P22 1.502240 1_555
O35 P23 1.506053 1_555
O36 P22 1.569219 1_555
O36 Ta7 1.945013 1_554
O37 P23 1.582557 1_555
O37 Ta8 1.934434 1_554
O38 P18 1.588599 1_555
O38 Ta7 1.932715 1_554
O39 P19 1.563215 1_555
O39 Ta8 1.950079 1_554
O40 P20 1.562719 1_555
O40 Ta7 1.953104 1_554
O41 P21 1.590372 1_555
O41 Ta8 1.926582 1_554
O42 P14 1.567756 1_555
O42 Ta9 1.945326 1_555
O43 P15 1.542493 1_555
O43 Ta10 2.003927 1_555
O44 P16 1.565423 1_555
O44 Ta9 1.956346 1_555
O45 P17 1.543094 1_555
O45 Ta10 1.993518 1_555
O46 P12 1.542605 1_555
O46 Ta9 1.999510 1_555
O47 P13 1.567204 1_555
O47 Ta10 1.949917 1_555
O48 P24 1.538784 1_555
O48 Ta11 2.010990 1_556
O49 P25 1.503632 1_555
O50 P26 1.544309 1_555
O50 Ta11 2.002237 1_556
O51 P27 1.502601 1_555
O52 P28 1.542157 1_555
O52 Ta11 2.004065 1_556
O53 P29 1.503456 1_555
O54 P30 1.498372 1_555
O55 P31 1.587215 1_555
O55 Ta12 1.956634 1_555
O56 P32 1.517360 1_555
O57 P33 1.546035 1_555
O57 Ta12 1.994863 1_555
O58 P34 1.516032 1_555
O59 P35 1.547201 1_555
O59 Ta12 1.995259 1_555
O60 P34 1.570900 1_555
O60 Ta13 1.959824 1_555
O61 P35 1.502342 1_555
O62 P30 1.537621 1_555
O62 Ta13 2.028871 1_555
O63 P31 1.516355 1_555
O64 P32 1.568503 1_555
O64 Ta13 1.984580 1_555
O65 P33 1.501116 1_555
O66 P26 1.503623 1_555
O67 P27 1.545669 1_555
O67 Ta14 2.001349 1_555
O68 P28 1.502690 1_555
O69 P29 1.548537 1_555
O69 Ta14 1.994807 1_555
O70 P24 1.501740 1_555
O71 P25 1.552541 1_555
O71 Ta14 1.991577 1_555
O72 P34 1.494680 1_555
O73 P35 1.548983 1_555
O73 Ta0 1.974187 1_565
O74 P30 1.558074 1_555
O74 Ta0 1.969000 1_565
O75 P31 1.491047 1_555
O76 P32 1.494938 1_555
O77 P33 1.554366 1_555
O77 Ta0 1.961019 1_555
O78 P26 1.547975 1_555
O78 Ta1 1.977210 1_545
O79 P27 1.551554 1_555
O79 Ta2 1.965078 1_555
O80 P28 1.552782 1_555
O80 Ta1 1.962507 1_555
O81 P29 1.548925 1_555
O81 Ta2 1.975816 1_565
O82 P24 1.551981 1_555
O82 Ta2 1.960322 1_565
O83 P25 1.547506 1_555
O83 Ta1 1.980269 1_655
O84 P12 1.557682 1_555
O84 Ta4 1.939266 1_545
O85 P13 1.571200 1_555
O85 Ta3 1.940057 1_655
O86 P14 1.574231 1_555
O86 Ta3 1.921728 1_555
O87 P15 1.553561 1_555
O87 Ta4 1.958168 1_545
O88 P16 1.582762 1_555
O88 Ta4 1.919047 1_555
O89 P17 1.548304 1_555
O89 Ta3 1.960859 1_665
O90 P18 1.561050 1_555
O90 Ta6 1.968262 1_565
O91 P19 1.530736 1_555
O91 Ta5 1.994860 1_555
O92 P20 1.537373 1_555
O92 Ta6 1.990209 1_555
O93 P21 1.555783 1_555
O93 Ta5 1.973610 1_545
O94 P22 1.526464 1_555
O94 Ta5 2.021007 1_445
O95 P23 1.564133 1_555
O95 Ta6 1.948506 1_555
O96 P10 1.521203 1_555
O97 P11 1.511043 1_555
O98 P6 1.524175 1_555
O99 P7 1.510862 1_555
O100 P9 1.508371 1_555
O101 P8 1.526132 1_655
O102 P2 1.512889 1_555
O103 P3 1.539879 1_555
O104 P5 1.525896 1_555
O105 P4 1.525878 1_555
O106 P0 1.533169 1_555
O107 P1 1.518358 1_555
O108 P24 1.562992 1_555
O108 Ta7 2.007138 1_555
O109 P25 1.555608 1_555
O109 Ta8 2.023265 1_555
O110 P27 1.557735 1_555
O110 Ta7 2.003603 1_555
O111 P26 1.562106 1_655
O111 Ta8 2.023617 1_555
O112 P28 1.561565 1_545
O112 Ta7 2.022188 1_555
O113 P29 1.559190 1_545
O113 Ta8 2.006329 1_555
O114 P30 1.564942 1_545
O114 Ta9 1.992389 1_555
O115 P31 1.598518 1_545
O115 Ta10 1.957625 1_555
O116 P32 1.610922 1_555
O116 Ta9 1.942016 1_555
O117 P33 1.557703 1_555
O117 Ta10 2.010430 1_555
O118 P35 1.563603 1_555
O118 Ta9 2.011931 1_555
O119 P34 1.602416 1_655
O119 Ta10 1.942439 1_555
O120 P22 1.558073 1_555
O120 Ta11 1.937451 1_555
O121 P23 1.521432 1_555
O122 P19 1.560063 1_455
O122 Ta11 1.932731 1_555
O123 P18 1.521007 1_555
O124 P20 1.553581 1_565
O124 Ta11 1.944702 1_555
O125 P21 1.525919 1_565
O126 P14 1.512948 1_565
O127 P15 1.550480 1_565
O127 Ta12 1.962263 1_555
O128 P16 1.514135 1_555
O129 P17 1.552218 1_555
O129 Ta12 1.957946 1_555
O130 P13 1.515945 1_455
O131 P12 1.546435 1_555
O131 Ta12 1.984949 1_555
O132 P0 1.572009 1_565
O132 Ta13 1.950284 1_555
O133 P1 1.519324 1_565
O134 P2 1.539233 1_555
O134 Ta13 1.986134 1_555
O135 P3 1.542945 1_555
O136 P4 1.578739 1_455
O136 Ta13 1.928768 1_555
O137 P5 1.517679 1_555
O138 P6 1.522291 1_555
O139 P7 1.555310 1_555
O139 Ta14 1.946353 1_555
O140 P8 1.522173 1_555
O141 P9 1.557096 1_555
O141 Ta14 1.946516 1_555
O142 P10 1.521746 1_565
O143 P11 1.559407 1_565
O143 Ta14 1.940627 1_555
