# generated using pymatgen
data_CaAs2(HO2)4
_symmetry_space_group_name_H-M   'P 1'
_cell_length_a   5.77458000
_cell_length_b   7.94509998
_cell_length_c   8.75632895
_cell_angle_alpha   111.40361713
_cell_angle_beta   109.15302599
_cell_angle_gamma   92.84010604
_symmetry_Int_Tables_number   1
_chemical_formula_structural   CaAs2(HO2)4
_chemical_formula_sum   'Ca2 As4 H8 O16'
_cell_volume   346.71955393
_cell_formula_units_Z   2
loop_
 _symmetry_equiv_pos_site_id
 _symmetry_equiv_pos_as_xyz
  1  'x, y, z'
loop_
 _atom_site_type_symbol
 _atom_site_label
 _atom_site_symmetry_multiplicity
 _atom_site_fract_x
 _atom_site_fract_y
 _atom_site_fract_z
 _atom_site_occupancy
  Ca  Ca0  1  0.30903400  0.18473600  0.08234200  1
  Ca  Ca1  1  0.69096600  0.81526400  0.91765800  1
  As  As0  1  0.32834800  0.77047700  0.18399700  1
  As  As1  1  0.67165200  0.22952300  0.81600300  1
  As  As2  1  0.97772500  0.24079600  0.34290100  1
  As  As3  1  0.02227500  0.75920400  0.65709900  1
  H  H0  1  0.50000000  0.00000000  0.50000000  1
  H  H1  1  0.00000000  0.50000000  0.00000000  1
  H  H2  1  0.64884900  0.62815700  0.27159800  1
  H  H3  1  0.35115100  0.37184300  0.72840200  1
  H  H4  1  0.26985500  0.51665300  0.49817000  1
  H  H5  1  0.73014500  0.48334700  0.50183000  1
  H  H6  1  0.91495800  0.17858200  0.56824600  1
  H  H7  1  0.08504200  0.82141800  0.43175400  1
  O  O0  1  0.99912700  0.06384600  0.17124100  1
  O  O1  1  0.23001300  0.40470000  0.38219900  1
  O  O2  1  0.93136900  0.78689800  0.45529000  1
  O  O3  1  0.76998700  0.59530000  0.61780100  1
  O  O4  1  0.29283100  0.67907600  0.68518900  1
  O  O5  1  0.70716900  0.32092400  0.31481100  1
  O  O6  1  0.97323200  0.33542300  0.95933300  1
  O  O7  1  0.02676800  0.66457700  0.04066700  1
  O  O8  1  0.52850200  0.09191500  0.88047200  1
  O  O9  1  0.47149800  0.90808500  0.11952800  1
  O  O10  1  0.52121700  0.42017700  0.82237300  1
  O  O11  1  0.47878300  0.57982300  0.17762700  1
  O  O12  1  0.67089300  0.12581000  0.60570100  1
  O  O13  1  0.32910700  0.87419000  0.39429900  1
  O  O14  1  0.06863100  0.21310200  0.54471000  1
  O  O15  1  0.00087300  0.93615400  0.82875900  1
loop_
_geom_bond_atom_site_label_1
_geom_bond_atom_site_label_2
_geom_bond_distance
_geom_bond_site_symmetry_2
Ca0 O5 2.382237 1_555
Ca0 O15 2.419886 1_544
Ca0 O8 2.426047 1_554
Ca0 O0 2.453682 1_455
Ca0 O6 2.480806 1_454
Ca0 O9 2.518677 1_545
Ca0 O1 2.769936 1_555
Ca0 O11 2.959259 1_555
Ca1 O4 2.382237 1_555
Ca1 O0 2.419886 1_566
Ca1 O9 2.426047 1_556
Ca1 O15 2.453682 1_655
Ca1 O7 2.480806 1_656
Ca1 O8 2.518677 1_565
Ca1 O3 2.769936 1_555
Ca1 O10 2.959259 1_555
As0 O9 1.692462 1_555
As0 O13 1.719558 1_555
As0 O7 1.722137 1_555
As0 O11 1.775610 1_555
As1 O8 1.692462 1_555
As1 O12 1.719558 1_555
As1 O6 1.722137 1_555
As1 O10 1.775610 1_555
As2 O0 1.687567 1_555
As2 O5 1.693344 1_555
As2 O1 1.758589 1_655
As2 O14 1.770079 1_655
As3 O15 1.687567 1_555
As3 O4 1.693344 1_555
As3 O3 1.758589 1_455
As3 O2 1.770079 1_455
H0 O12 1.207188 1_555
H0 O13 1.207188 1_545
H1 O7 1.210154 1_555
H1 O6 1.210154 1_454
H2 O11 0.995353 1_555
H3 O10 0.995353 1_555
H4 O1 1.021011 1_555
H4 O4 1.631775 1_555
H5 O3 1.021011 1_555
H5 O5 1.631775 1_555
H6 O14 1.020935 1_655
H6 O12 1.617035 1_555
H7 O2 1.020935 1_455
H7 O13 1.617035 1_555
