# generated using pymatgen
data_K3NaZr2(SiO4)3
_symmetry_space_group_name_H-M   'P 1'
_cell_length_a   9.49498577
_cell_length_b   9.49498541
_cell_length_c   22.72415491
_cell_angle_alpha   90.00000000
_cell_angle_beta   90.00000000
_cell_angle_gamma   120.00000123
_symmetry_Int_Tables_number   1
_chemical_formula_structural   K3NaZr2(SiO4)3
_chemical_formula_sum   'K18 Na6 Zr12 Si18 O72'
_cell_volume   1774.21802601
_cell_formula_units_Z   6
loop_
 _symmetry_equiv_pos_site_id
 _symmetry_equiv_pos_as_xyz
  1  'x, y, z'
loop_
 _atom_site_type_symbol
 _atom_site_label
 _atom_site_symmetry_multiplicity
 _atom_site_fract_x
 _atom_site_fract_y
 _atom_site_fract_z
 _atom_site_occupancy
  K  K0  1  0.65828409  -0.00000000  0.25000000  1
  K  K1  1  0.34171591  0.34171591  0.25000000  1
  K  K2  1  1.00000000  0.65828409  0.25000000  1
  K  K3  1  0.65828409  0.65828409  0.75000000  1
  K  K4  1  0.00000000  0.34171591  0.75000000  1
  K  K5  1  0.34171591  0.00000000  0.75000000  1
  K  K6  1  0.32495109  0.33333300  0.58333300  1
  K  K7  1  0.00838291  0.67504891  0.58333300  1
  K  K8  1  0.66666700  0.99161709  0.58333300  1
  K  K9  1  0.32495109  0.99161709  0.08333300  1
  K  K10  1  0.66666700  0.67504891  0.08333300  1
  K  K11  1  0.00838291  0.33333300  0.08333300  1
  K  K12  1  0.99161709  0.66666700  0.91666700  1
  K  K13  1  0.67504891  0.00838291  0.91666700  1
  K  K14  1  0.33333300  0.32495109  0.91666700  1
  K  K15  1  0.99161709  0.32495109  0.41666700  1
  K  K16  1  0.33333300  0.00838291  0.41666700  1
  K  K17  1  0.67504891  0.66666700  0.41666700  1
  Na  Na0  1  -0.00000000  0.00000000  0.50000000  1
  Na  Na1  1  -0.00000000  0.00000000  -0.00000000  1
  Na  Na2  1  0.66666700  0.33333300  0.83333300  1
  Na  Na3  1  0.66666700  0.33333300  0.33333300  1
  Na  Na4  1  0.33333300  0.66666700  0.16666700  1
  Na  Na5  1  0.33333300  0.66666700  0.66666700  1
  Zr  Zr0  1  -0.00000000  0.00000000  0.35129311  1
  Zr  Zr1  1  -0.00000000  0.00000000  0.85129311  1
  Zr  Zr2  1  -0.00000000  -0.00000000  0.64870689  1
  Zr  Zr3  1  -0.00000000  0.00000000  0.14870689  1
  Zr  Zr4  1  0.66666700  0.33333300  0.68462611  1
  Zr  Zr5  1  0.66666700  0.33333300  0.18462611  1
  Zr  Zr6  1  0.66666700  0.33333300  0.98203989  1
  Zr  Zr7  1  0.66666700  0.33333300  0.48203989  1
  Zr  Zr8  1  0.33333300  0.66666700  0.01796011  1
  Zr  Zr9  1  0.33333300  0.66666700  0.51796011  1
  Zr  Zr10  1  0.33333300  0.66666700  0.31537389  1
  Zr  Zr11  1  0.33333300  0.66666700  0.81537389  1
  Si  Si0  1  0.29994892  -0.00000000  0.25000000  1
  Si  Si1  1  0.70005108  0.70005108  0.25000000  1
  Si  Si2  1  0.00000000  0.29994892  0.25000000  1
  Si  Si3  1  0.29994892  0.29994892  0.75000000  1
  Si  Si4  1  1.00000000  0.70005108  0.75000000  1
  Si  Si5  1  0.70005108  0.00000000  0.75000000  1
  Si  Si6  1  0.96661592  0.33333300  0.58333300  1
  Si  Si7  1  0.36671808  0.03338408  0.58333300  1
  Si  Si8  1  0.66666700  0.63328192  0.58333300  1
  Si  Si9  1  0.96661592  0.63328192  0.08333300  1
  Si  Si10  1  0.66666700  0.03338408  0.08333300  1
  Si  Si11  1  0.36671808  0.33333300  0.08333300  1
  Si  Si12  1  0.63328192  0.66666700  0.91666700  1
  Si  Si13  1  0.03338408  0.36671808  0.91666700  1
  Si  Si14  1  0.33333300  0.96661592  0.91666700  1
  Si  Si15  1  0.63328192  0.96661592  0.41666700  1
  Si  Si16  1  0.33333300  0.36671808  0.41666700  1
  Si  Si17  1  0.03338408  0.66666700  0.41666700  1
  O  O0  1  0.20136551  0.01940681  0.30669086  1
  O  O1  1  0.81804131  0.79863449  0.30669086  1
  O  O2  1  0.98059319  0.18195869  0.30669086  1
  O  O3  1  0.20136551  0.18195869  0.80669086  1
  O  O4  1  0.98059319  0.79863449  0.80669086  1
  O  O5  1  0.81804131  0.01940681  0.80669086  1
  O  O6  1  0.79863449  0.98059319  0.69330914  1
  O  O7  1  0.18195869  0.20136551  0.69330914  1
  O  O8  1  0.01940681  0.81804131  0.69330914  1
  O  O9  1  0.79863449  0.81804131  0.19330914  1
  O  O10  1  0.01940681  0.20136551  0.19330914  1
  O  O11  1  0.18195869  0.98059319  0.19330914  1
  O  O12  1  0.86803251  0.35273981  0.64002386  1
  O  O13  1  0.48470831  0.13196749  0.64002386  1
  O  O14  1  0.64726019  0.51529169  0.64002386  1
  O  O15  1  0.86803251  0.51529169  0.14002386  1
  O  O16  1  0.64726019  0.13196749  0.14002386  1
  O  O17  1  0.48470831  0.35273981  0.14002386  1
  O  O18  1  0.46530149  0.31392619  0.02664214  1
  O  O19  1  0.84862569  0.53469851  0.02664214  1
  O  O20  1  0.68607381  0.15137431  0.02664214  1
  O  O21  1  0.46530149  0.15137431  0.52664214  1
  O  O22  1  0.68607381  0.53469851  0.52664214  1
  O  O23  1  0.84862569  0.31392619  0.52664214  1
  O  O24  1  0.53469851  0.68607381  0.97335786  1
  O  O25  1  0.15137431  0.46530149  0.97335786  1
  O  O26  1  0.31392619  0.84862569  0.97335786  1
  O  O27  1  0.53469851  0.84862569  0.47335786  1
  O  O28  1  0.31392619  0.46530149  0.47335786  1
  O  O29  1  0.15137431  0.68607381  0.47335786  1
  O  O30  1  0.13196749  0.64726019  0.35997614  1
  O  O31  1  0.51529169  0.86803251  0.35997614  1
  O  O32  1  0.35273981  0.48470831  0.35997614  1
  O  O33  1  0.13196749  0.48470831  0.85997614  1
  O  O34  1  0.35273981  0.86803251  0.85997614  1
  O  O35  1  0.51529169  0.64726019  0.85997614  1
  O  O36  1  0.01285312  0.82857813  0.41170854  1
  O  O37  1  0.81572501  0.98714688  0.41170854  1
  O  O38  1  0.17142187  0.18427499  0.41170854  1
  O  O39  1  0.01285312  0.18427499  0.91170854  1
  O  O40  1  0.17142187  0.98714688  0.91170854  1
  O  O41  1  0.81572501  0.82857813  0.91170854  1
  O  O42  1  0.98714688  0.17142187  0.58829146  1
  O  O43  1  0.18427499  0.01285312  0.58829146  1
  O  O44  1  0.82857813  0.81572501  0.58829146  1
  O  O45  1  0.98714688  0.81572501  0.08829146  1
  O  O46  1  0.82857813  0.01285312  0.08829146  1
  O  O47  1  0.18427499  0.17142187  0.08829146  1
  O  O48  1  0.67952012  0.16191113  0.74504154  1
  O  O49  1  0.48239201  0.32047988  0.74504154  1
  O  O50  1  0.83808887  0.51760799  0.74504154  1
  O  O51  1  0.67952012  0.51760799  0.24504154  1
  O  O52  1  0.83808887  0.32047988  0.24504154  1
  O  O53  1  0.48239201  0.16191113  0.24504154  1
  O  O54  1  0.65381388  0.50475487  0.92162446  1
  O  O55  1  0.85094199  0.34618612  0.92162446  1
  O  O56  1  0.49524513  0.14905801  0.92162446  1
  O  O57  1  0.65381388  0.14905801  0.42162446  1
  O  O58  1  0.49524513  0.34618612  0.42162446  1
  O  O59  1  0.85094199  0.50475487  0.42162446  1
  O  O60  1  0.34618612  0.49524513  0.07837554  1
  O  O61  1  0.14905801  0.65381388  0.07837554  1
  O  O62  1  0.50475487  0.85094199  0.07837554  1
  O  O63  1  0.34618612  0.85094199  0.57837554  1
  O  O64  1  0.50475487  0.65381388  0.57837554  1
  O  O65  1  0.14905801  0.49524513  0.57837554  1
  O  O66  1  0.32047988  0.83808887  0.25495846  1
  O  O67  1  0.51760799  0.67952012  0.25495846  1
  O  O68  1  0.16191113  0.48239201  0.25495846  1
  O  O69  1  0.32047988  0.48239201  0.75495846  1
  O  O70  1  0.16191113  0.67952012  0.75495846  1
  O  O71  1  0.51760799  0.83808887  0.75495846  1
loop_
_geom_bond_atom_site_label_1
_geom_bond_atom_site_label_2
_geom_bond_distance
_geom_bond_site_symmetry_2
K0 O67 2.644214 1_545
K0 O52 2.644215 1_555
K0 O53 2.780798 1_555
K0 O66 2.780807 1_545
K0 O16 2.820952 1_555
K0 O31 2.820955 1_545
K0 O9 2.953436 1_545
K0 O2 2.953436 1_555
K1 O53 2.644223 1_555
K1 O68 2.644223 1_555
K1 O67 2.780806 1_555
K1 O51 2.780806 1_555
K1 O32 2.820957 1_555
K1 O17 2.820957 1_555
K1 O0 2.953436 1_555
K1 O10 2.953436 1_555
K2 O51 2.644214 1_555
K2 O66 2.644215 1_655
K2 O68 2.780798 1_655
K2 O52 2.780806 1_555
K2 O30 2.820952 1_655
K2 O15 2.820955 1_555
K2 O11 2.953436 1_655
K2 O1 2.953436 1_555
K3 O71 2.644223 1_555
K3 O50 2.644223 1_555
K3 O49 2.780806 1_555
K3 O69 2.780806 1_555
K3 O14 2.820957 1_555
K3 O35 2.820957 1_555
K3 O6 2.953436 1_555
K3 O4 2.953436 1_555
K4 O69 2.644214 1_555
K4 O48 2.644215 1_455
K4 O50 2.780798 1_455
K4 O70 2.780806 1_555
K4 O12 2.820952 1_455
K4 O33 2.820955 1_555
K4 O5 2.953436 1_455
K4 O7 2.953436 1_555
K5 O49 2.644214 1_555
K5 O70 2.644215 1_545
K5 O71 2.780798 1_545
K5 O48 2.780807 1_555
K5 O34 2.820952 1_545
K5 O13 2.820955 1_555
K5 O3 2.953436 1_555
K5 O8 2.953436 1_545
K6 O43 2.644214 1_555
K6 O64 2.644221 1_555
K6 O42 2.780807 1_455
K6 O65 2.780814 1_555
K6 O28 2.820939 1_555
K6 O7 2.820955 1_555
K6 O21 2.953436 1_555
K6 O14 2.953436 1_555
K7 O65 2.644205 1_555
K7 O44 2.644223 1_455
K7 O63 2.780798 1_555
K7 O43 2.780806 1_565
K7 O29 2.820930 1_555
K7 O8 2.820957 1_555
K7 O12 2.953436 1_455
K7 O22 2.953436 1_455
K8 O42 2.644215 1_565
K8 O63 2.644223 1_555
K8 O64 2.780797 1_555
K8 O44 2.780798 1_555
K8 O27 2.820934 1_555
K8 O6 2.820952 1_555
K8 O23 2.953436 1_565
K8 O13 2.953436 1_565
K9 O62 2.644205 1_555
K9 O47 2.644223 1_565
K9 O61 2.780797 1_555
K9 O45 2.780806 1_455
K9 O26 2.820930 1_554
K9 O11 2.820957 1_555
K9 O18 2.953436 1_565
K9 O16 2.953436 1_565
K10 O45 2.644214 1_555
K10 O60 2.644221 1_555
K10 O46 2.780806 1_565
K10 O62 2.780814 1_555
K10 O24 2.820939 1_554
K10 O9 2.820955 1_555
K10 O17 2.953436 1_555
K10 O19 2.953436 1_555
K11 O46 2.644215 1_455
K11 O61 2.644222 1_555
K11 O60 2.780797 1_555
K11 O47 2.780798 1_555
K11 O25 2.820934 1_554
K11 O10 2.820952 1_555
K11 O15 2.953436 1_455
K11 O20 2.953436 1_455
K12 O40 2.644215 1_655
K12 O55 2.644222 1_555
K12 O54 2.780797 1_555
K12 O41 2.780798 1_555
K12 O19 2.820934 1_556
K12 O4 2.820952 1_555
K12 O33 2.953436 1_655
K12 O26 2.953436 1_655
K13 O56 2.644205 1_555
K13 O41 2.644223 1_545
K13 O55 2.780797 1_555
K13 O39 2.780806 1_655
K13 O20 2.820930 1_556
K13 O5 2.820957 1_555
K13 O24 2.953436 1_545
K13 O34 2.953436 1_545
K14 O39 2.644214 1_555
K14 O54 2.644221 1_555
K14 O40 2.780806 1_545
K14 O56 2.780814 1_555
K14 O18 2.820939 1_556
K14 O3 2.820955 1_555
K14 O35 2.953436 1_555
K14 O25 2.953436 1_555
K15 O59 2.644205 1_555
K15 O38 2.644223 1_655
K15 O57 2.780798 1_555
K15 O37 2.780806 1_545
K15 O23 2.820930 1_555
K15 O2 2.820957 1_555
K15 O30 2.953436 1_655
K15 O28 2.953436 1_655
K16 O36 2.644215 1_545
K16 O57 2.644223 1_555
K16 O58 2.780797 1_555
K16 O38 2.780798 1_555
K16 O21 2.820934 1_555
K16 O0 2.820952 1_555
K16 O29 2.953436 1_545
K16 O31 2.953436 1_545
K17 O37 2.644214 1_555
K17 O58 2.644221 1_555
K17 O36 2.780807 1_655
K17 O59 2.780814 1_555
K17 O22 2.820939 1_555
K17 O1 2.820955 1_555
K17 O27 2.953436 1_555
K17 O32 2.953436 1_555
Na0 O44 2.624539 1_445
Na0 O38 2.624539 1_555
Na0 O36 2.624539 1_545
Na0 O42 2.624539 1_455
Na0 O37 2.624539 1_445
Na0 O43 2.624539 1_555
Na1 O39 2.624539 1_554
Na1 O45 2.624539 1_445
Na1 O47 2.624539 1_555
Na1 O41 2.624539 1_444
Na1 O40 2.624539 1_544
Na1 O46 2.624539 1_455
Na2 O56 2.624539 1_555
Na2 O50 2.624539 1_555
Na2 O54 2.624539 1_555
Na2 O48 2.624539 1_555
Na2 O55 2.624539 1_555
Na2 O49 2.624539 1_555
Na3 O51 2.624539 1_555
Na3 O57 2.624539 1_555
Na3 O53 2.624539 1_555
Na3 O59 2.624539 1_555
Na3 O52 2.624539 1_555
Na3 O58 2.624539 1_555
Na4 O62 2.624539 1_555
Na4 O68 2.624539 1_555
Na4 O60 2.624539 1_555
Na4 O66 2.624539 1_555
Na4 O61 2.624539 1_555
Na4 O67 2.624539 1_555
Na5 O69 2.624539 1_555
Na5 O63 2.624539 1_555
Na5 O65 2.624539 1_555
Na5 O71 2.624539 1_555
Na5 O70 2.624539 1_555
Na5 O64 2.624539 1_555
O0 Si0 1.655964 1_555
O0 Zr0 2.089144 1_555
O1 Si1 1.655964 1_555
O1 Zr0 2.089144 1_665
O2 Si2 1.655964 1_655
O2 Zr0 2.089144 1_655
O3 Si3 1.655964 1_555
O3 Zr1 2.089144 1_555
O4 Si4 1.655964 1_555
O4 Zr1 2.089144 1_665
O5 Si5 1.655964 1_555
O5 Zr1 2.089144 1_655
O6 Si5 1.655964 1_565
O6 Zr2 2.089144 1_665
O7 Si3 1.655964 1_555
O7 Zr2 2.089144 1_555
O8 Si4 1.655964 1_455
O8 Zr2 2.089144 1_565
O9 Si1 1.655964 1_555
O9 Zr3 2.089144 1_665
O10 Si2 1.655964 1_555
O10 Zr3 2.089144 1_555
O11 Si0 1.655964 1_565
O11 Zr3 2.089144 1_565
O12 Si6 1.655964 1_555
O12 Zr4 2.089144 1_555
O13 Si7 1.655964 1_555
O13 Zr4 2.089144 1_555
O14 Si8 1.655964 1_555
O14 Zr4 2.089144 1_555
O15 Si9 1.655964 1_555
O15 Zr5 2.089144 1_555
O16 Si10 1.655964 1_555
O16 Zr5 2.089144 1_555
O17 Si11 1.655964 1_555
O17 Zr5 2.089144 1_555
O18 Si11 1.655964 1_555
O18 Zr6 2.089144 1_554
O19 Si9 1.655964 1_555
O19 Zr6 2.089144 1_554
O20 Si10 1.655964 1_555
O20 Zr6 2.089144 1_554
O21 Si7 1.655964 1_555
O21 Zr7 2.089144 1_555
O22 Si8 1.655964 1_555
O22 Zr7 2.089144 1_555
O23 Si6 1.655964 1_555
O23 Zr7 2.089144 1_555
O24 Si12 1.655964 1_555
O24 Zr8 2.089144 1_556
O25 Si13 1.655964 1_555
O25 Zr8 2.089144 1_556
O26 Si14 1.655964 1_555
O26 Zr8 2.089144 1_556
O27 Si15 1.655964 1_555
O27 Zr9 2.089144 1_555
O28 Si16 1.655964 1_555
O28 Zr9 2.089144 1_555
O29 Si17 1.655964 1_555
O29 Zr9 2.089144 1_555
O30 Si17 1.655964 1_555
O30 Zr10 2.089144 1_555
O31 Si15 1.655964 1_555
O31 Zr10 2.089144 1_555
O32 Si16 1.655964 1_555
O32 Zr10 2.089144 1_555
O33 Si13 1.655964 1_555
O33 Zr11 2.089144 1_555
O34 Si14 1.655964 1_555
O34 Zr11 2.089144 1_555
O35 Si12 1.655964 1_555
O35 Zr11 2.089144 1_555
O36 Si17 1.647366 1_555
O36 Zr0 2.178898 1_565
O37 Si15 1.647376 1_555
O37 Zr0 2.178898 1_665
O38 Si16 1.647372 1_555
O38 Zr0 2.178898 1_555
O39 Si13 1.647376 1_555
O39 Zr1 2.178898 1_555
O40 Si14 1.647366 1_555
O40 Zr1 2.178898 1_565
O41 Si12 1.647372 1_555
O41 Zr1 2.178898 1_665
O42 Si6 1.647366 1_555
O42 Zr2 2.178898 1_655
O43 Si7 1.647376 1_555
O43 Zr2 2.178898 1_555
O44 Si8 1.647372 1_555
O44 Zr2 2.178898 1_665
O45 Si9 1.647376 1_555
O45 Zr3 2.178898 1_665
O46 Si10 1.647366 1_555
O46 Zr3 2.178898 1_655
O47 Si11 1.647372 1_555
O47 Zr3 2.178898 1_555
O48 Si5 1.647366 1_555
O48 Zr4 2.178898 1_555
O49 Si3 1.647376 1_555
O49 Zr4 2.178898 1_555
O50 Si4 1.647372 1_555
O50 Zr4 2.178898 1_555
O51 Si1 1.647376 1_555
O51 Zr5 2.178898 1_555
O52 Si2 1.647366 1_655
O52 Zr5 2.178898 1_555
O53 Si0 1.647372 1_555
O53 Zr5 2.178898 1_555
O54 Si12 1.647380 1_555
O54 Zr6 2.178898 1_555
O55 Si13 1.647361 1_655
O55 Zr6 2.178898 1_555
O56 Si14 1.647369 1_545
O56 Zr6 2.178898 1_555
O57 Si15 1.647361 1_545
O57 Zr7 2.178898 1_555
O58 Si16 1.647380 1_555
O58 Zr7 2.178898 1_555
O59 Si17 1.647369 1_655
O59 Zr7 2.178898 1_555
O60 Si11 1.647380 1_555
O60 Zr8 2.178898 1_555
O61 Si9 1.647361 1_455
O61 Zr8 2.178898 1_555
O62 Si10 1.647369 1_565
O62 Zr8 2.178898 1_555
O63 Si7 1.647361 1_565
O63 Zr9 2.178898 1_555
O64 Si8 1.647380 1_555
O64 Zr9 2.178898 1_555
O65 Si6 1.647369 1_455
O65 Zr9 2.178898 1_555
O66 Si0 1.647366 1_565
O66 Zr10 2.178898 1_555
O67 Si1 1.647376 1_555
O67 Zr10 2.178898 1_555
O68 Si2 1.647372 1_555
O68 Zr10 2.178898 1_555
O69 Si3 1.647376 1_555
O69 Zr11 2.178898 1_555
O70 Si4 1.647366 1_455
O70 Zr11 2.178898 1_555
O71 Si5 1.647372 1_565
O71 Zr11 2.178898 1_555
