# generated using pymatgen
data_Na5Sc3TaSiP5O24
_symmetry_space_group_name_H-M   'P 1'
_cell_length_a   8.99837119
_cell_length_b   9.00475593
_cell_length_c   22.54073587
_cell_angle_alpha   90.02494467
_cell_angle_beta   89.97401481
_cell_angle_gamma   120.02518681
_symmetry_Int_Tables_number   1
_chemical_formula_structural   Na5Sc3TaSiP5O24
_chemical_formula_sum   'Na15 Sc9 Ta3 Si3 P15 O72'
_cell_volume   1581.33628242
_cell_formula_units_Z   3
loop_
 _symmetry_equiv_pos_site_id
 _symmetry_equiv_pos_as_xyz
  1  'x, y, z'
loop_
 _atom_site_type_symbol
 _atom_site_label
 _atom_site_symmetry_multiplicity
 _atom_site_fract_x
 _atom_site_fract_y
 _atom_site_fract_z
 _atom_site_occupancy
  Na  Na0  1  0.63712735  0.99954700  0.25181969  1
  Na  Na1  1  0.36203682  0.36117268  0.25101623  1
  Na  Na2  1  0.00140445  0.63798906  0.25121631  1
  Na  Na3  1  0.30463597  0.34082019  0.58904728  1
  Na  Na4  1  0.03496613  0.70253333  0.58538031  1
  Na  Na5  1  0.66477586  0.96149943  0.58609518  1
  Na  Na6  1  0.29515300  0.95796184  0.07955246  1
  Na  Na7  1  0.97565733  0.67632747  0.91222532  1
  Na  Na8  1  0.69532112  0.01859839  0.90962971  1
  Na  Na9  1  0.99664640  0.99653818  0.49569438  1
  Na  Na10  1  0.01015904  0.02262167  0.99685473  1
  Na  Na11  1  0.65216313  0.32915271  0.82344074  1
  Na  Na12  1  0.66662608  0.33099603  0.33503851  1
  Na  Na13  1  0.33431790  0.65206425  0.16104616  1
  Na  Na14  1  0.34106093  0.66588113  0.66899807  1
  Sc  Sc0  1  0.99942746  0.99930400  0.35449329  1
  Sc  Sc1  1  0.00946369  0.00924931  0.85071005  1
  Sc  Sc2  1  0.99683771  0.99725418  0.65210852  1
  Sc  Sc3  1  0.99355607  0.00054720  0.14427373  1
  Sc  Sc4  1  0.66520110  0.33658694  0.68794875  1
  Sc  Sc5  1  0.66888955  0.33598733  0.18356138  1
  Sc  Sc6  1  0.32740955  0.65682484  0.01894860  1
  Sc  Sc7  1  0.33689642  0.66695308  0.51515119  1
  Sc  Sc8  1  0.33408069  0.66718186  0.32017938  1
  Ta  Ta0  1  0.66535133  0.33294737  0.97894237  1
  Ta  Ta1  1  0.66838640  0.33866574  0.47886301  1
  Ta  Ta2  1  0.33016881  0.66581980  0.81368847  1
  Si  Si0  1  0.66636899  0.62820459  0.58473082  1
  Si  Si1  1  0.04194449  0.37124858  0.91829601  1
  Si  Si2  1  0.33144745  0.95767318  0.92016989  1
  P  P0  1  0.29184521  0.99819238  0.24833257  1
  P  P1  1  0.70695471  0.70855829  0.25028598  1
  P  P2  1  0.00170056  0.29272853  0.25024691  1
  P  P3  1  0.29629144  0.30069934  0.74875642  1
  P  P4  1  0.00264878  0.70371546  0.75142732  1
  P  P5  1  0.69959168  0.99635550  0.75138128  1
  P  P6  1  0.95608837  0.33402990  0.58296763  1
  P  P7  1  0.37835830  0.04447441  0.58294850  1
  P  P8  1  0.96057516  0.62896228  0.08380703  1
  P  P9  1  0.66910094  0.04196261  0.08324970  1
  P  P10  1  0.37488088  0.33451428  0.08504662  1
  P  P11  1  0.61909445  0.66233056  0.91696354  1
  P  P12  1  0.63299409  0.96840458  0.41723637  1
  P  P13  1  0.33387970  0.36673978  0.41726777  1
  P  P14  1  0.03436823  0.66566553  0.41748910  1
  O  O0  1  0.20197210  0.02723140  0.30121868  1
  O  O1  1  0.82058675  0.79232325  0.30466903  1
  O  O2  1  0.97006429  0.17806356  0.30449455  1
  O  O3  1  0.19913302  0.18905798  0.80189257  1
  O  O4  1  0.98632343  0.79093751  0.80722254  1
  O  O5  1  0.80310147  0.00971324  0.80701374  1
  O  O6  1  0.78327164  0.97331088  0.69412996  1
  O  O7  1  0.19513506  0.22578642  0.69022755  1
  O  O8  1  0.02858917  0.81061559  0.69428768  1
  O  O9  1  0.79069503  0.82142395  0.19492995  1
  O  O10  1  0.03058420  0.20942557  0.19475130  1
  O  O11  1  0.18684420  0.97123584  0.19070177  1
  O  O12  1  0.87159185  0.36262723  0.63695176  1
  O  O13  1  0.49415610  0.12234881  0.63689970  1
  O  O14  1  0.62887877  0.49923425  0.63910600  1
  O  O15  1  0.87177397  0.52836376  0.14062275  1
  O  O16  1  0.65037559  0.13043680  0.13928756  1
  O  O17  1  0.47164375  0.34580894  0.14296858  1
  O  O18  1  0.48380604  0.32233519  0.03157783  1
  O  O19  1  0.84812155  0.52721012  0.02838855  1
  O  O20  1  0.68102021  0.15782407  0.02767710  1
  O  O21  1  0.47512754  0.15996254  0.52739956  1
  O  O22  1  0.68975795  0.52416245  0.52577009  1
  O  O23  1  0.83943505  0.30972884  0.52710647  1
  O  O24  1  0.54192654  0.69911485  0.97096225  1
  O  O25  1  0.15534719  0.45828424  0.97575740  1
  O  O26  1  0.30670711  0.84928146  0.97973253  1
  O  O27  1  0.54284029  0.86193774  0.47279230  1
  O  O28  1  0.31880618  0.45640275  0.47304487  1
  O  O29  1  0.13782097  0.68044464  0.47339494  1
  O  O30  1  0.11661199  0.63993205  0.36086027  1
  O  O31  1  0.52460253  0.88580897  0.36062018  1
  O  O32  1  0.36188614  0.47550965  0.36077337  1
  O  O33  1  0.13744090  0.50175976  0.86100485  1
  O  O34  1  0.37217882  0.86062107  0.86416310  1
  O  O35  1  0.50332977  0.63065415  0.86146645  1
  O  O36  1  0.00689005  0.81939476  0.41322561  1
  O  O37  1  0.81279772  0.99166383  0.41320366  1
  O  O38  1  0.17912899  0.18617258  0.41303277  1
  O  O39  1  0.99065790  0.17352161  0.91063128  1
  O  O40  1  0.16353611  0.97461938  0.91050624  1
  O  O41  1  0.80174987  0.81302309  0.90797038  1
  O  O42  1  0.97103090  0.17035867  0.58587697  1
  O  O43  1  0.20370450  0.03849012  0.58612551  1
  O  O44  1  0.84316744  0.81446127  0.58702240  1
  O  O45  1  0.97627929  0.80800891  0.08300497  1
  O  O46  1  0.83411590  0.03299695  0.08285444  1
  O  O47  1  0.20293829  0.16284631  0.08302776  1
  O  O48  1  0.67261026  0.15083046  0.74708194  1
  O  O49  1  0.47632830  0.32270284  0.74701125  1
  O  O50  1  0.84977335  0.52095917  0.74699808  1
  O  O51  1  0.68510141  0.52534576  0.24527299  1
  O  O52  1  0.84092300  0.31584116  0.24491706  1
  O  O53  1  0.47659723  0.15909578  0.24532703  1
  O  O54  1  0.63626550  0.49760866  0.92503698  1
  O  O55  1  0.85335807  0.37095486  0.92437737  1
  O  O56  1  0.51136882  0.14831916  0.92489528  1
  O  O57  1  0.64808346  0.14968361  0.42331082  1
  O  O58  1  0.50087499  0.35043666  0.42339571  1
  O  O59  1  0.85211702  0.49619089  0.42275157  1
  O  O60  1  0.35857718  0.49381624  0.08067818  1
  O  O61  1  0.14097722  0.64953378  0.08173511  1
  O  O62  1  0.50438815  0.86737879  0.07929444  1
  O  O63  1  0.34824873  0.86074134  0.57486793  1
  O  O64  1  0.49890217  0.65247931  0.57755778  1
  O  O65  1  0.13599571  0.49452527  0.57555902  1
  O  O66  1  0.31124939  0.83597536  0.25565836  1
  O  O67  1  0.52424155  0.68740950  0.25603133  1
  O  O68  1  0.16392134  0.47483605  0.25628830  1
  O  O69  1  0.31345500  0.48300674  0.75724488  1
  O  O70  1  0.17298293  0.69201716  0.75757038  1
  O  O71  1  0.51835540  0.82701563  0.75692717  1
loop_
_geom_bond_atom_site_label_1
_geom_bond_atom_site_label_2
_geom_bond_distance
_geom_bond_site_symmetry_2
Na0 O67 2.466550 1_555
Na0 O53 2.499881 1_565
Na0 O52 2.504443 1_565
Na0 O66 2.540320 1_555
Na0 O31 2.655331 1_555
Na0 O16 2.774746 1_565
Na0 O2 2.855026 1_565
Na0 O9 2.888134 1_555
Na1 O68 2.462823 1_555
Na1 O53 2.503429 1_555
Na1 O51 2.520348 1_555
Na1 O67 2.545967 1_555
Na1 O17 2.656597 1_555
Na1 O32 2.679536 1_555
Na1 O0 2.839808 1_555
Na1 O10 2.880017 1_555
Na2 O66 2.446958 1_555
Na2 O51 2.501754 1_455
Na2 O52 2.515571 1_455
Na2 O68 2.541744 1_555
Na2 O30 2.677170 1_555
Na2 O15 2.719852 1_455
Na2 O1 2.879254 1_455
Na2 O11 2.939428 1_555
Na3 O43 2.401287 1_555
Na3 O64 2.467684 1_555
Na3 O7 2.494783 1_555
Na3 O65 2.532504 1_555
Na3 O42 2.600273 1_455
Na3 O14 2.767165 1_555
Na3 O28 2.793893 1_555
Na4 O44 2.395112 1_455
Na4 O63 2.452186 1_555
Na4 O65 2.467264 1_555
Na4 O43 2.619296 1_565
Na4 O8 2.651509 1_555
Na4 O29 2.729393 1_555
Na4 O12 2.894703 1_455
Na4 O22 3.007194 1_455
Na5 O64 2.418942 1_555
Na5 O42 2.438180 1_565
Na5 O63 2.532574 1_555
Na5 O44 2.541136 1_555
Na5 O6 2.639507 1_555
Na5 O27 2.747058 1_555
Na5 O13 2.826455 1_565
Na6 O47 2.372832 1_565
Na6 O62 2.397312 1_555
Na6 O61 2.405135 1_555
Na6 O26 2.476047 1_554
Na6 O45 2.486959 1_455
Na6 O11 2.712049 1_555
Na7 O40 2.351599 1_655
Na7 O55 2.412360 1_555
Na7 O41 2.429226 1_555
Na7 O4 2.564963 1_555
Na7 O54 2.661034 1_555
Na7 O33 2.865370 1_655
Na7 O19 2.904181 1_556
Na7 O26 2.995666 1_655
Na8 O39 2.301963 1_555
Na8 O41 2.473746 1_545
Na8 O56 2.481315 1_555
Na8 O5 2.524404 1_555
Na8 O34 2.718614 1_545
Na8 O55 2.772001 1_555
Na8 O24 2.849672 1_545
Na8 O20 2.970993 1_556
Na9 O37 2.475114 1_555
Na9 O36 2.480502 1_655
Na9 O38 2.505564 1_665
Na9 O44 2.562738 1_555
Na9 O42 2.644442 1_565
Na9 O43 2.658490 1_665
Na10 O39 2.428118 1_455
Na10 O47 2.487039 1_556
Na10 O46 2.533978 1_456
Na10 O40 2.544366 1_545
Na10 O45 2.647961 1_446
Na10 O41 2.747935 1_445
Na11 O49 2.320603 1_555
Na11 O48 2.422339 1_555
Na11 O50 2.457694 1_555
Na11 O56 2.724411 1_555
Na11 O54 2.789203 1_555
Na11 O55 2.813681 1_555
Na12 O57 2.526334 1_555
Na12 O59 2.534439 1_555
Na12 O58 2.545604 1_555
Na12 O53 2.600126 1_555
Na12 O52 2.610772 1_555
Na12 O51 2.626037 1_555
Na13 O60 2.380894 1_555
Na13 O61 2.487236 1_555
Na13 O62 2.554997 1_555
Na13 O68 2.656671 1_555
Na13 O67 2.657895 1_555
Na13 O66 2.770258 1_555
Na14 O71 2.502509 1_555
Na14 O69 2.514596 1_555
Na14 O64 2.539445 1_555
Na14 O70 2.584928 1_555
Na14 O65 2.715354 1_555
Na14 O63 2.733947 1_555
O0 P0 1.534262 1_545
O0 Sc0 2.089650 1_445
O1 P1 1.531539 1_555
O1 Sc0 2.079184 1_555
O2 P2 1.532638 1_655
O2 Sc0 2.087711 1_545
O3 P3 1.526452 1_555
O3 Sc1 1.994907 1_555
O4 P4 1.527945 1_655
O4 Sc1 2.111310 1_665
O5 P5 1.530793 1_545
O5 Sc1 2.104217 1_655
O6 P5 1.559057 1_555
O6 Sc2 2.054422 1_555
O7 P3 1.552392 1_555
O7 Sc2 2.117104 1_445
O8 P4 1.554320 1_555
O8 Sc2 2.071779 1_455
O9 P1 1.546442 1_555
O9 Sc3 2.071403 1_565
O10 P2 1.545643 1_555
O10 Sc3 2.077183 1_455
O11 P0 1.552567 1_555
O11 Sc3 2.156681 1_465
O12 P6 1.523139 1_555
O12 Sc4 2.094746 1_555
O13 P7 1.524974 1_555
O13 Sc4 2.107804 1_555
O14 Si0 1.604229 1_555
O14 Sc4 1.986142 1_555
O15 P8 1.541069 1_555
O15 Sc5 2.026196 1_555
O16 P9 1.546572 1_555
O16 Sc5 2.034598 1_555
O17 P10 1.544464 1_555
O17 Sc5 2.038113 1_555
O18 P10 1.591124 1_555
O18 Ta0 1.981812 1_554
O19 P8 1.579931 1_555
O19 Ta0 2.031723 1_554
O20 P9 1.599420 1_555
O20 Ta0 1.984320 1_554
O21 P7 1.581585 1_555
O21 Ta1 2.002465 1_555
O22 Si0 1.698325 1_555
O22 Ta1 1.903198 1_555
O23 P6 1.583124 1_555
O23 Ta1 2.005634 1_555
O24 P11 1.517383 1_555
O24 Sc6 2.074578 1_556
O25 Si1 1.591568 1_555
O25 Sc6 1.941899 1_556
O26 Si2 1.608779 1_555
O26 Sc6 2.035690 1_556
O27 P12 1.538572 1_555
O27 Sc7 2.042611 1_555
O28 P13 1.536077 1_555
O28 Sc7 2.052232 1_555
O29 P14 1.532721 1_555
O29 Sc7 2.080630 1_555
O30 P14 1.549590 1_555
O30 Sc8 2.061166 1_555
O31 P12 1.551585 1_555
O31 Sc8 2.065911 1_555
O32 P13 1.548616 1_555
O32 Sc8 2.076670 1_555
O33 Si1 1.666404 1_555
O33 Ta2 1.939921 1_555
O34 Si2 1.676604 1_555
O34 Ta2 1.961986 1_555
O35 P11 1.560405 1_555
O35 Ta2 2.045380 1_555
O36 P14 1.526211 1_555
O36 Sc0 2.119548 1_455
O37 P12 1.526636 1_555
O37 Sc0 2.111577 1_555
O38 P13 1.525136 1_555
O38 Sc0 2.112902 1_445
O39 Si1 1.609485 1_655
O39 Sc1 2.071142 1_655
O40 Si2 1.607701 1_555
O40 Sc1 2.066583 1_565
O41 P11 1.533553 1_555
O41 Sc1 2.230742 1_665
O42 P6 1.546911 1_555
O42 Sc2 2.253228 1_545
O43 P7 1.546967 1_555
O43 Sc2 2.263018 1_445
O44 Si0 1.635950 1_555
O44 Sc2 2.120309 1_555
O45 P8 1.546522 1_555
O45 Sc3 2.160033 1_565
O46 P9 1.526886 1_555
O46 Sc3 2.117100 1_555
O47 P10 1.546598 1_555
O47 Sc3 2.198937 1_455
O48 P5 1.530151 1_545
O48 Sc4 2.166242 1_555
O49 P3 1.531028 1_555
O49 Sc4 2.112329 1_555
O50 P4 1.531336 1_655
O50 Sc4 2.127668 1_555
O51 P1 1.564741 1_555
O51 Sc5 2.147760 1_555
O52 P2 1.565983 1_655
O52 Sc5 2.150622 1_555
O53 P0 1.567512 1_545
O53 Sc5 2.170494 1_555
O54 P11 1.576937 1_555
O54 Ta0 2.033129 1_555
O55 Si1 1.701119 1_655
O55 Ta0 1.977611 1_555
O56 Si2 1.672766 1_545
O56 Ta0 1.965314 1_555
O57 P12 1.574750 1_545
O57 Ta1 2.045600 1_555
O58 P13 1.587347 1_555
O58 Ta1 2.002043 1_555
O59 P14 1.589915 1_655
O59 Ta1 1.999461 1_555
O60 P10 1.516470 1_555
O60 Sc6 2.140898 1_555
O61 P8 1.539702 1_455
O61 Sc6 2.170082 1_555
O62 P9 1.531118 1_565
O62 Sc6 2.226917 1_555
O63 P7 1.547592 1_565
O63 Sc7 2.164966 1_555
O64 Si0 1.635437 1_555
O64 Sc7 2.076794 1_555
O65 P6 1.547855 1_455
O65 Sc7 2.173360 1_555
O66 P0 1.564274 1_555
O66 Sc8 2.186841 1_555
O67 P1 1.562900 1_555
O67 Sc8 2.176694 1_555
O68 P2 1.562962 1_555
O68 Sc8 2.182705 1_555
O69 P3 1.581595 1_555
O69 Ta2 2.025297 1_555
O70 P4 1.594151 1_555
O70 Ta2 1.998025 1_555
O71 P5 1.584847 1_555
O71 Ta2 2.037454 1_555
