# generated using pymatgen
data_Na10La7Ta(PO4)12
_symmetry_space_group_name_H-M   'P 1'
_cell_length_a   18.99921114
_cell_length_b   9.51838098
_cell_length_c   24.24065917
_cell_angle_alpha   90.01499273
_cell_angle_beta   90.08286716
_cell_angle_gamma   120.25611954
_symmetry_Int_Tables_number   1
_chemical_formula_structural   Na10La7Ta(PO4)12
_chemical_formula_sum   'Na30 La21 Ta3 P36 O144'
_cell_volume   3786.57300618
_cell_formula_units_Z   3
loop_
 _symmetry_equiv_pos_site_id
 _symmetry_equiv_pos_as_xyz
  1  'x, y, z'
loop_
 _atom_site_type_symbol
 _atom_site_label
 _atom_site_symmetry_multiplicity
 _atom_site_fract_x
 _atom_site_fract_y
 _atom_site_fract_z
 _atom_site_occupancy
  Na  Na0  1  0.31567769  0.99819522  0.25311831  1
  Na  Na1  1  0.68535199  0.36796625  0.25270130  1
  Na  Na2  1  0.31249936  0.63016916  0.75713805  1
  Na  Na3  1  0.81254753  0.62989727  0.75646429  1
  Na  Na4  1  0.15301616  0.33476656  0.58147028  1
  Na  Na5  1  0.65263417  0.33566186  0.58192601  1
  Na  Na6  1  0.01340706  0.69872222  0.58306335  1
  Na  Na7  1  0.51492283  0.69573071  0.58160398  1
  Na  Na8  1  0.33180310  0.96585026  0.58164630  1
  Na  Na9  1  0.83480862  0.97144097  0.58163658  1
  Na  Na10  1  0.15206329  0.97007459  0.08078169  1
  Na  Na11  1  0.65319770  0.97280838  0.08224573  1
  Na  Na12  1  0.33267010  0.69548485  0.08200860  1
  Na  Na13  1  0.83262287  0.69507732  0.08192175  1
  Na  Na14  1  0.01429125  0.33219506  0.08047829  1
  Na  Na15  1  0.51463284  0.33212744  0.08293694  1
  Na  Na16  1  0.66752555  0.03363258  0.41435536  1
  Na  Na17  1  0.34721098  0.66589377  0.41301394  1
  Na  Na18  1  0.00011486  0.99878132  0.49318349  1
  Na  Na19  1  0.49978604  0.01243185  0.49360441  1
  Na  Na20  1  0.99998047  0.00035528  0.99597458  1
  Na  Na21  1  0.50016144  0.99976337  0.99583377  1
  Na  Na22  1  0.33291191  0.32123649  0.83686996  1
  Na  Na23  1  0.83304858  0.32158424  0.83707702  1
  Na  Na24  1  0.33154980  0.33224702  0.33247169  1
  Na  Na25  1  0.84617908  0.34728774  0.33345686  1
  Na  Na26  1  0.16334017  0.65354869  0.17027830  1
  Na  Na27  1  0.66499500  0.68092955  0.17078441  1
  Na  Na28  1  0.16025857  0.66620170  0.66966749  1
  Na  Na29  1  0.66002345  0.66485693  0.66980235  1
  La  La0  1  0.49980104  0.00651981  0.34758492  1
  La  La1  1  0.00298076  0.00590717  0.65649936  1
  La  La2  1  0.50273103  0.00463337  0.65504293  1
  La  La3  1  0.99973449  0.99769051  0.15592105  1
  La  La4  1  0.50046736  0.99613163  0.15443282  1
  La  La5  1  0.33371045  0.32269858  0.69075159  1
  La  La6  1  0.83331008  0.32223143  0.69142799  1
  La  La7  1  0.32958726  0.34064543  0.18486773  1
  La  La8  1  0.84295373  0.33531922  0.18789423  1
  La  La9  1  0.33349294  0.33439640  0.97795544  1
  La  La10  1  0.83312562  0.33462388  0.97819843  1
  La  La11  1  0.33188203  0.32131024  0.48115822  1
  La  La12  1  0.83995336  0.34665327  0.48020674  1
  La  La13  1  0.16655358  0.66761838  0.00224979  1
  La  La14  1  0.66644509  0.66626033  0.00330072  1
  La  La15  1  0.15716776  0.65656179  0.50532349  1
  La  La16  1  0.67259405  0.67017959  0.50719564  1
  La  La17  1  0.16096265  0.65757850  0.31777675  1
  La  La18  1  0.66380986  0.67001656  0.31794781  1
  La  La19  1  0.16177601  0.66773985  0.81930872  1
  La  La20  1  0.66173519  0.66761601  0.81939397  1
  Ta  Ta0  1  0.00033122  0.99975493  0.34699482  1
  Ta  Ta1  1  0.00172932  0.00339419  0.84937770  1
  Ta  Ta2  1  0.50177639  0.00332235  0.84932231  1
  P  P0  1  0.14766173  0.00329082  0.25426616  1
  P  P1  1  0.65564042  0.00570246  0.24968013  1
  P  P2  1  0.34376292  0.69593331  0.25068026  1
  P  P3  1  0.85424072  0.70319401  0.25456277  1
  P  P4  1  0.99770287  0.28456830  0.25353621  1
  P  P5  1  0.49980145  0.30554473  0.24581920  1
  P  P6  1  0.14856089  0.29398635  0.75457057  1
  P  P7  1  0.64818779  0.29332276  0.75445889  1
  P  P8  1  0.99676532  0.71050067  0.75333804  1
  P  P9  1  0.49682567  0.71076586  0.75323999  1
  P  P10  1  0.35645816  0.99844145  0.75423814  1
  P  P11  1  0.85618564  0.99822913  0.75438590  1
  P  P12  1  0.48574380  0.33692858  0.58394976  1
  P  P13  1  0.98472221  0.33535818  0.58450366  1
  P  P14  1  0.18213919  0.02678880  0.58405515  1
  P  P15  1  0.68441853  0.03198852  0.58069883  1
  P  P16  1  0.33079224  0.63160467  0.58350869  1
  P  P17  1  0.83262073  0.63345925  0.58781009  1
  P  P18  1  0.48557353  0.63357215  0.08179160  1
  P  P19  1  0.98686876  0.63579482  0.08163428  1
  P  P20  1  0.33065390  0.02785774  0.08452305  1
  P  P21  1  0.83178158  0.02967296  0.08193373  1
  P  P22  1  0.18120871  0.33706983  0.08069424  1
  P  P23  1  0.68485384  0.33893352  0.08534110  1
  P  P24  1  0.32834816  0.68366830  0.91086165  1
  P  P25  1  0.82823740  0.68358543  0.91087335  1
  P  P26  1  0.01278558  0.34182749  0.91427916  1
  P  P27  1  0.51295956  0.34165140  0.91428917  1
  P  P28  1  0.15835906  0.97459766  0.91413972  1
  P  P29  1  0.65832949  0.97424521  0.91417841  1
  P  P30  1  0.31990637  0.96546989  0.41650470  1
  P  P31  1  0.82843850  0.97565662  0.41431362  1
  P  P32  1  0.15926278  0.34512476  0.41469194  1
  P  P33  1  0.66652518  0.35334377  0.41645084  1
  P  P34  1  0.01268942  0.68752265  0.41385670  1
  P  P35  1  0.51314314  0.67261833  0.41976743  1
  O  O0  1  0.08765448  0.00115318  0.30095606  1
  O  O1  1  0.60972635  0.01380535  0.30143878  1
  O  O2  1  0.39322895  0.78343265  0.30308203  1
  O  O3  1  0.91367481  0.82325217  0.30141197  1
  O  O4  1  0.49179023  0.19553714  0.29506176  1
  O  O5  1  0.99962960  0.16717010  0.29997840  1
  O  O6  1  0.08994252  0.17629774  0.80120033  1
  O  O7  1  0.58978997  0.17614343  0.80126473  1
  O  O8  1  0.49811280  0.82901675  0.80003792  1
  O  O9  1  0.99814830  0.82914920  0.80006267  1
  O  O10  1  0.41652257  0.00464647  0.80098955  1
  O  O11  1  0.91653546  0.00459513  0.80093265  1
  O  O12  1  0.39092507  0.98728615  0.69779154  1
  O  O13  1  0.89021635  0.98733458  0.69780969  1
  O  O14  1  0.10877173  0.22682245  0.69806920  1
  O  O15  1  0.60809030  0.22504644  0.69802958  1
  O  O16  1  0.00278784  0.78872936  0.69674719  1
  O  O17  1  0.50290459  0.78944522  0.69664466  1
  O  O18  1  0.38835879  0.79104954  0.19760074  1
  O  O19  1  0.88845959  0.78465269  0.19851375  1
  O  O20  1  0.00042067  0.21545022  0.19666985  1
  O  O21  1  0.50716254  0.22775287  0.19155181  1
  O  O22  1  0.10803945  0.99487294  0.19803334  1
  O  O23  1  0.60771455  0.99224328  0.19612252  1
  O  O24  1  0.44328703  0.35633670  0.63550800  1
  O  O25  1  0.94191270  0.35430094  0.63564202  1
  O  O26  1  0.23561338  0.11103767  0.63543607  1
  O  O27  1  0.73885235  0.12283828  0.63101123  1
  O  O28  1  0.32178817  0.52834869  0.63566493  1
  O  O29  1  0.82311533  0.53452114  0.64090206  1
  O  O30  1  0.44489203  0.53129937  0.13394197  1
  O  O31  1  0.94796154  0.53308157  0.13413710  1
  O  O32  1  0.31897054  0.09944030  0.13917665  1
  O  O33  1  0.82083375  0.11080047  0.13403353  1
  O  O34  1  0.23250277  0.36230941  0.13324252  1
  O  O35  1  0.73347276  0.36104245  0.13947887  1
  O  O36  1  0.22430349  0.31342656  0.03110304  1
  O  O37  1  0.72939945  0.31580169  0.03627583  1
  O  O38  1  0.43145065  0.54960238  0.03134778  1
  O  O39  1  0.93186627  0.55091582  0.03174263  1
  O  O40  1  0.34214469  0.14262634  0.03629826  1
  O  O41  1  0.84418772  0.13780789  0.03162821  1
  O  O42  1  0.22296917  0.13242999  0.53304605  1
  O  O43  1  0.72324562  0.12695047  0.52696793  1
  O  O44  1  0.34110284  0.54966742  0.53139660  1
  O  O45  1  0.84269867  0.54547485  0.53768768  1
  O  O46  1  0.43261747  0.31235251  0.53292780  1
  O  O47  1  0.93395084  0.31455566  0.53249580  1
  O  O48  1  0.29510975  0.71590483  0.96528908  1
  O  O49  1  0.79490954  0.71549892  0.96534191  1
  O  O50  1  0.05923345  0.40174116  0.97009393  1
  O  O51  1  0.55947399  0.40175962  0.97008422  1
  O  O52  1  0.14130538  0.88166718  0.96980712  1
  O  O53  1  0.64134628  0.88051702  0.96965843  1
  O  O54  1  0.27398471  0.86769364  0.46961552  1
  O  O55  1  0.80197789  0.88528205  0.47076459  1
  O  O56  1  0.13984917  0.39912549  0.47066691  1
  O  O57  1  0.66447014  0.44047604  0.47045280  1
  O  O58  1  0.05626049  0.71812917  0.47086089  1
  O  O59  1  0.55966350  0.68278568  0.47416880  1
  O  O60  1  0.06188256  0.66477529  0.36899874  1
  O  O61  1  0.56021382  0.65901850  0.37068308  1
  O  O62  1  0.27136393  0.87679135  0.36438455  1
  O  O63  1  0.76423105  0.87673163  0.37031444  1
  O  O64  1  0.17461494  0.47119817  0.37022166  1
  O  O65  1  0.66882259  0.45060906  0.36501688  1
  O  O66  1  0.06083790  0.46097757  0.86848576  1
  O  O67  1  0.56063288  0.46085369  0.86845592  1
  O  O68  1  0.17015803  0.87957409  0.86822279  1
  O  O69  1  0.67035750  0.88020177  0.86798859  1
  O  O70  1  0.27276059  0.66040745  0.86183675  1
  O  O71  1  0.77271091  0.66039795  0.86184843  1
  O  O72  1  0.00552052  0.84327251  0.40010640  1
  O  O73  1  0.51033241  0.83285982  0.41722043  1
  O  O74  1  0.40166700  0.96509344  0.41817354  1
  O  O75  1  0.91387773  0.99462166  0.39825715  1
  O  O76  1  0.08327360  0.17395793  0.39874328  1
  O  O77  1  0.59030364  0.17982384  0.41815831  1
  O  O78  1  0.00673673  0.17219448  0.89989796  1
  O  O79  1  0.50688253  0.17212731  0.89995860  1
  O  O80  1  0.08005807  0.98820162  0.89960229  1
  O  O81  1  0.57993833  0.98780124  0.89964495  1
  O  O82  1  0.41493813  0.84210300  0.89907879  1
  O  O83  1  0.91490565  0.84209032  0.89906399  1
  O  O84  1  0.49610819  0.18447071  0.58713521  1
  O  O85  1  0.99563835  0.18407911  0.58750219  1
  O  O86  1  0.09577729  0.00729135  0.58769728  1
  O  O87  1  0.59813053  0.01279582  0.58555530  1
  O  O88  1  0.40743011  0.80604538  0.58710235  1
  O  O89  1  0.90888534  0.80778201  0.58867322  1
  O  O90  1  0.49617677  0.80739024  0.08544801  1
  O  O91  1  0.99689963  0.80875251  0.08626634  1
  O  O92  1  0.40725814  0.00703774  0.08633586  1
  O  O93  1  0.90775832  0.00738552  0.08646930  1
  O  O94  1  0.09452118  0.18334280  0.08540047  1
  O  O95  1  0.59739890  0.18531103  0.08703666  1
  O  O96  1  0.34978860  0.15243319  0.75846589  1
  O  O97  1  0.84953568  0.15218572  0.75876442  1
  O  O98  1  0.23269206  0.30490902  0.75857295  1
  O  O99  1  0.73221079  0.30386968  0.75858073  1
  O  O100  1  0.41319559  0.55106130  0.75770287  1
  O  O101  1  0.91336307  0.55068571  0.75804154  1
  O  O102  1  0.33212116  0.52381607  0.25034158  1
  O  O103  1  0.84984440  0.53706902  0.25915158  1
  O  O104  1  0.42036901  0.31350817  0.24643546  1
  O  O105  1  0.91876521  0.28969804  0.26089344  1
  O  O106  1  0.23223832  0.15832981  0.25990949  1
  O  O107  1  0.73659532  0.17254731  0.24913009  1
  O  O108  1  0.34208409  0.53857862  0.91602578  1
  O  O109  1  0.84202381  0.53859437  0.91600654  1
  O  O110  1  0.42591699  0.31223709  0.91687560  1
  O  O111  1  0.92594809  0.31318726  0.91676311  1
  O  O112  1  0.23149960  0.14781753  0.91675735  1
  O  O113  1  0.73108029  0.14796051  0.91701057  1
  O  O114  1  0.33290771  0.13831650  0.41693405  1
  O  O115  1  0.83549526  0.14405751  0.41764127  1
  O  O116  1  0.23707214  0.33321080  0.41843257  1
  O  O117  1  0.74124799  0.32788754  0.41564547  1
  O  O118  1  0.42405165  0.52867345  0.41858280  1
  O  O119  1  0.92627936  0.53969219  0.41528205  1
  O  O120  1  0.17284635  0.49193468  0.07479302  1
  O  O121  1  0.67657289  0.49369061  0.07728697  1
  O  O122  1  0.07286751  0.65326227  0.07555389  1
  O  O123  1  0.57187038  0.65145077  0.07613067  1
  O  O124  1  0.25325907  0.85558954  0.07632174  1
  O  O125  1  0.75367371  0.85715431  0.07603796  1
  O  O126  1  0.17261950  0.85402078  0.57926821  1
  O  O127  1  0.67543941  0.85918729  0.57923967  1
  O  O128  1  0.25267364  0.64734522  0.57849980  1
  O  O129  1  0.75473829  0.64967144  0.58218076  1
  O  O130  1  0.07082175  0.49245442  0.58086372  1
  O  O131  1  0.57218094  0.49224397  0.57965458  1
  O  O132  1  0.15891788  0.85452894  0.25871439  1
  O  O133  1  0.66826015  0.85812692  0.25086564  1
  O  O134  1  0.26240301  0.69816573  0.24991802  1
  O  O135  1  0.76745913  0.67578477  0.26056759  1
  O  O136  1  0.07397277  0.45223953  0.25807170  1
  O  O137  1  0.57995393  0.47158737  0.25009209  1
  O  O138  1  0.16178400  0.46750781  0.75920312  1
  O  O139  1  0.66157082  0.46694941  0.75905058  1
  O  O140  1  0.06991741  0.68446971  0.75811402  1
  O  O141  1  0.56981465  0.68451050  0.75805579  1
  O  O142  1  0.27431731  0.83798672  0.75939918  1
  O  O143  1  0.77408548  0.83779610  0.75954139  1
loop_
_geom_bond_atom_site_label_1
_geom_bond_atom_site_label_2
_geom_bond_distance
_geom_bond_site_symmetry_2
Na0 O134 2.504560 1_555
Na0 O132 2.579873 1_555
Na0 O104 2.641123 1_565
Na0 O106 2.701685 1_565
Na0 O62 2.889059 1_555
Na0 O32 2.915906 1_565
Na1 O107 2.498064 1_555
Na1 O135 2.539149 1_555
Na1 O137 2.641348 1_555
Na1 O103 2.703977 1_555
Na1 O65 2.894870 1_555
Na1 O35 2.905313 1_555
Na2 O100 2.383051 1_555
Na2 O142 2.426560 1_555
Na2 O138 2.476261 1_555
Na2 O98 2.674847 1_555
Na2 O70 2.705233 1_555
Na3 O101 2.386184 1_555
Na3 O143 2.431616 1_555
Na3 O139 2.480865 1_555
Na3 O99 2.681343 1_555
Na3 O71 2.722067 1_555
Na3 O29 2.982574 1_555
Na4 O85 2.588165 1_455
Na4 O128 2.601125 1_555
Na4 O130 2.655875 1_555
Na4 O86 2.739723 1_555
Na4 O56 2.793834 1_555
Na4 O14 2.981450 1_555
Na5 O84 2.572790 1_555
Na5 O129 2.617934 1_555
Na5 O131 2.618470 1_555
Na5 O87 2.705150 1_555
Na5 O57 2.850400 1_555
Na5 O15 2.975950 1_555
Na6 O86 2.540771 1_565
Na6 O126 2.615053 1_555
Na6 O89 2.667900 1_455
Na6 O130 2.684361 1_555
Na6 O58 2.819533 1_555
Na6 O16 2.922929 1_555
Na7 O87 2.609189 1_565
Na7 O127 2.635063 1_555
Na7 O131 2.657168 1_555
Na7 O88 2.730003 1_555
Na7 O59 2.762590 1_555
Na7 O17 2.971574 1_555
Na8 O88 2.568612 1_555
Na8 O128 2.619821 1_555
Na8 O126 2.653007 1_555
Na8 O84 2.746855 1_565
Na8 O54 2.900073 1_555
Na8 O12 2.998274 1_555
Na9 O89 2.577850 1_555
Na9 O129 2.645665 1_555
Na9 O127 2.655626 1_555
Na9 O85 2.686977 1_565
Na9 O55 2.786284 1_555
Na9 O13 2.981992 1_555
Na10 O91 2.550622 1_455
Na10 O122 2.607747 1_555
Na10 O124 2.647182 1_555
Na10 O94 2.750487 1_565
Na10 O52 2.794711 1_554
Na11 O90 2.579195 1_555
Na11 O125 2.645203 1_555
Na11 O123 2.646127 1_555
Na11 O95 2.718407 1_565
Na11 O53 2.840513 1_554
Na11 O23 2.927246 1_555
Na12 O92 2.564717 1_565
Na12 O124 2.633292 1_555
Na12 O120 2.659791 1_555
Na12 O90 2.730668 1_555
Na12 O48 2.947290 1_554
Na12 O18 2.969590 1_555
Na13 O93 2.570942 1_565
Na13 O121 2.597885 1_555
Na13 O125 2.642277 1_555
Na13 O91 2.742093 1_555
Na13 O49 2.944842 1_554
Na13 O19 2.986422 1_555
Na14 O94 2.553645 1_555
Na14 O120 2.605975 1_555
Na14 O122 2.676823 1_555
Na14 O93 2.715005 1_455
Na14 O50 2.786588 1_554
Na15 O95 2.578677 1_555
Na15 O121 2.661431 1_555
Na15 O123 2.667946 1_555
Na15 O92 2.717106 1_555
Na15 O21 2.792783 1_555
Na15 O51 2.843836 1_554
Na16 O117 2.419496 1_555
Na16 O77 2.480925 1_555
Na16 O73 2.612561 1_545
Na16 O115 2.813264 1_555
Na16 O43 2.899014 1_555
Na16 O1 2.918189 1_555
Na17 O118 2.403452 1_555
Na17 O74 2.495348 1_555
Na17 O73 2.678911 1_555
Na17 O116 2.783325 1_555
Na17 O2 2.853057 1_555
Na18 O72 2.728424 1_555
Na18 O76 2.806244 1_565
Na18 O75 2.811525 1_455
Na18 O86 2.898006 1_565
Na18 O85 2.914618 1_465
Na18 O89 2.916460 1_455
Na19 O77 2.467847 1_555
Na19 O74 2.482910 1_545
Na19 O73 2.595110 1_545
Na19 O84 2.817913 1_555
Na19 O87 2.905310 1_555
Na19 O88 2.935135 1_545
Na20 O94 2.791624 1_656
Na20 O78 2.811957 1_655
Na20 O83 2.816730 1_545
Na20 O80 2.823663 1_645
Na20 O91 2.831062 1_546
Na20 O93 2.831220 1_556
Na21 O79 2.810877 1_565
Na21 O82 2.813041 1_555
Na21 O81 2.816209 1_555
Na21 O90 2.817867 1_556
Na21 O92 2.840336 1_566
Na21 O95 2.849214 1_566
Na22 O96 2.610727 1_555
Na22 O98 2.635000 1_555
Na22 O112 2.644740 1_555
Na22 O110 2.652102 1_555
Na22 O100 2.728179 1_555
Na22 O108 2.761428 1_555
Na23 O97 2.609747 1_555
Na23 O99 2.642589 1_555
Na23 O111 2.642972 1_555
Na23 O113 2.650459 1_555
Na23 O101 2.722446 1_555
Na23 O109 2.756535 1_555
Na24 O106 2.497139 1_555
Na24 O102 2.696415 1_555
Na24 O104 2.746339 1_555
Na24 O116 2.755272 1_555
Na24 O118 2.759997 1_555
Na24 O114 2.765825 1_555
Na25 O105 2.462658 1_555
Na25 O103 2.527374 1_555
Na25 O119 2.604795 1_555
Na25 O115 2.748666 1_555
Na25 O117 2.760173 1_555
Na25 O107 2.788525 1_555
Na26 O134 2.575500 1_555
Na26 O136 2.795995 1_555
Na26 O120 2.834752 1_555
Na26 O122 2.865478 1_555
Na26 O132 2.902182 1_555
Na26 O124 2.916671 1_555
Na27 O133 2.551356 1_555
Na27 O137 2.653959 1_555
Na27 O123 2.821588 1_555
Na27 O125 2.844715 1_555
Na27 O135 2.934755 1_555
Na27 O121 2.959021 1_555
Na28 O130 2.722502 1_555
Na28 O126 2.762889 1_555
Na28 O140 2.807892 1_555
Na28 O128 2.885764 1_555
Na28 O138 2.888857 1_555
Na28 O142 2.917991 1_555
Na29 O131 2.735760 1_555
Na29 O127 2.790087 1_555
Na29 O141 2.807601 1_555
Na29 O129 2.836111 1_555
Na29 O139 2.878824 1_555
Na29 O143 2.920215 1_555
La0 O4 2.271052 1_555
La0 O2 2.330712 1_545
La0 O1 2.340675 1_555
La0 O77 2.395000 1_555
La0 O74 2.414199 1_545
La0 O73 2.440384 1_545
La1 O14 2.282720 1_555
La1 O16 2.284413 1_545
La1 O13 2.291001 1_445
La1 O86 2.423891 1_555
La1 O85 2.435603 1_455
La1 O89 2.459275 1_445
La2 O17 2.284768 1_545
La2 O15 2.292386 1_555
La2 O12 2.294868 1_545
La2 O84 2.423556 1_555
La2 O87 2.448577 1_555
La2 O88 2.470732 1_545
La3 O20 2.289913 1_665
La3 O22 2.307927 1_655
La3 O19 2.309700 1_555
La3 O91 2.447156 1_555
La3 O93 2.459801 1_565
La3 O94 2.468122 1_665
La4 O23 2.290104 1_555
La4 O18 2.293432 1_555
La4 O21 2.324295 1_565
La4 O90 2.425063 1_555
La4 O95 2.443669 1_565
La4 O92 2.459394 1_565
La5 O26 2.353283 1_555
La5 O24 2.359354 1_555
La5 O96 2.431662 1_555
La5 O98 2.469188 1_555
La5 O28 2.472525 1_555
La5 O100 2.514435 1_555
La6 O27 2.350781 1_555
La6 O25 2.356461 1_555
La6 O97 2.425252 1_555
La6 O29 2.452687 1_555
La6 O99 2.457795 1_555
La6 O101 2.511452 1_555
La7 O34 2.321128 1_555
La7 O102 2.339828 1_555
La7 O30 2.370452 1_555
La7 O104 2.389706 1_555
La7 O32 2.463705 1_555
La7 O106 2.553079 1_555
La8 O31 2.333671 1_555
La8 O33 2.353752 1_555
La8 O107 2.354164 1_555
La8 O105 2.453126 1_555
La8 O35 2.504049 1_555
La8 O103 2.536282 1_555
La9 O38 2.341945 1_556
La9 O36 2.365130 1_556
La9 O112 2.373183 1_555
La9 O40 2.379513 1_556
La9 O110 2.387632 1_555
La9 O108 2.395825 1_555
La10 O39 2.354137 1_556
La10 O37 2.355881 1_556
La10 O41 2.372428 1_556
La10 O113 2.373732 1_555
La10 O111 2.395752 1_555
La10 O109 2.396282 1_555
La11 O42 2.314271 1_555
La11 O46 2.324362 1_555
La11 O114 2.343261 1_555
La11 O116 2.401521 1_555
La11 O118 2.406102 1_555
La11 O44 2.419198 1_555
La12 O45 2.329068 1_555
La12 O47 2.330837 1_555
La12 O119 2.348425 1_555
La12 O117 2.377351 1_555
La12 O115 2.420640 1_555
La12 O43 2.431132 1_555
La13 O48 2.419689 1_554
La13 O50 2.442127 1_554
La13 O52 2.446264 1_554
La13 O120 2.470899 1_555
La13 O122 2.471562 1_555
La13 O124 2.481629 1_555
La14 O49 2.424341 1_554
La14 O51 2.440321 1_554
La14 O53 2.455864 1_554
La14 O125 2.472294 1_555
La14 O123 2.473738 1_555
La14 O121 2.504140 1_555
La15 O54 2.285929 1_555
La15 O58 2.417563 1_555
La15 O130 2.431492 1_555
La15 O56 2.450305 1_555
La15 O126 2.504455 1_555
La15 O128 2.568645 1_555
La16 O57 2.292596 1_555
La16 O59 2.348069 1_555
La16 O55 2.439240 1_555
La16 O129 2.465115 1_555
La16 O127 2.487863 1_555
La16 O131 2.519592 1_555
La17 O60 2.286188 1_555
La17 O64 2.301007 1_555
La17 O136 2.320042 1_555
La17 O62 2.368811 1_555
La17 O132 2.374921 1_555
La17 O134 2.414269 1_555
La18 O61 2.306252 1_555
La18 O63 2.309029 1_555
La18 O133 2.388865 1_555
La18 O135 2.390540 1_555
La18 O137 2.401991 1_555
La18 O65 2.423575 1_555
La19 O68 2.274077 1_555
La19 O66 2.275182 1_555
La19 O140 2.354654 1_555
La19 O70 2.378229 1_555
La19 O138 2.398767 1_555
La19 O142 2.413580 1_555
La20 O69 2.274430 1_555
La20 O67 2.274992 1_555
La20 O141 2.358445 1_555
La20 O71 2.376788 1_555
La20 O139 2.404242 1_555
La20 O143 2.410615 1_555
O0 P0 1.600483 1_555
O0 Ta0 1.995317 1_545
O1 P1 1.553064 1_555
O2 P2 1.548436 1_555
O3 P3 1.601854 1_555
O3 Ta0 1.990084 1_655
O4 P5 1.544344 1_555
O5 P4 1.599743 1_555
O5 Ta0 1.964876 1_645
O6 P6 1.587430 1_555
O6 Ta1 2.026918 1_555
O7 P7 1.587325 1_555
O7 Ta2 2.023344 1_555
O8 P9 1.589303 1_555
O8 Ta2 2.016706 1_565
O9 P8 1.590066 1_555
O9 Ta1 2.017279 1_665
O10 P10 1.586950 1_545
O10 Ta2 2.002884 1_555
O11 P11 1.586721 1_545
O11 Ta1 2.003067 1_655
O12 P10 1.544323 1_555
O13 P11 1.542629 1_555
O14 P6 1.538047 1_555
O15 P7 1.539942 1_555
O16 P8 1.537693 1_455
O17 P9 1.539531 1_555
O18 P2 1.556871 1_555
O19 P3 1.537837 1_555
O20 P4 1.539368 1_455
O21 P5 1.550061 1_555
O22 P0 1.538637 1_565
O23 P1 1.552408 1_565
O24 P12 1.549122 1_555
O25 P13 1.543147 1_555
O26 P14 1.549627 1_555
O27 P15 1.548985 1_555
O28 P16 1.557408 1_555
O29 P17 1.551038 1_555
O30 P18 1.545440 1_555
O31 P19 1.548262 1_555
O32 P20 1.556117 1_555
O33 P21 1.548119 1_555
O34 P22 1.546075 1_555
O35 P23 1.555708 1_555
O36 P22 1.534443 1_555
O37 P23 1.539456 1_555
O38 P18 1.535917 1_555
O39 P19 1.533770 1_555
O40 P20 1.539045 1_555
O41 P21 1.535901 1_555
O42 P14 1.535952 1_555
O43 P15 1.545664 1_555
O44 P16 1.548079 1_555
O45 P17 1.541420 1_555
O46 P12 1.536721 1_555
O47 P13 1.537186 1_555
O48 P24 1.559204 1_555
O49 P25 1.559677 1_555
O50 P26 1.556774 1_555
O51 P27 1.556991 1_555
O52 P28 1.556084 1_555
O53 P29 1.555797 1_555
O54 P30 1.571775 1_555
O55 P31 1.559507 1_555
O56 P32 1.559959 1_555
O57 P33 1.560501 1_555
O58 P34 1.559816 1_555
O59 P35 1.562036 1_555
O60 P34 1.519727 1_555
O61 P35 1.533594 1_555
O62 P30 1.539765 1_555
O63 P31 1.533133 1_555
O64 P32 1.528409 1_555
O65 P33 1.540635 1_555
O66 P26 1.520570 1_555
O67 P27 1.519890 1_555
O68 P28 1.520439 1_555
O69 P29 1.521027 1_555
O70 P24 1.528819 1_555
O71 P25 1.528246 1_555
O72 P34 1.590920 1_555
O72 Ta0 2.008577 1_555
O73 P35 1.554072 1_555
O74 P30 1.555664 1_555
O75 P31 1.589239 1_555
O75 Ta0 2.041947 1_655
O76 P32 1.586165 1_555
O76 Ta0 2.041144 1_545
O77 P33 1.554553 1_555
O78 P26 1.598239 1_555
O78 Ta1 1.983659 1_555
O79 P27 1.596728 1_555
O79 Ta2 1.984755 1_555
O80 P28 1.595840 1_555
O80 Ta1 1.982316 1_565
O81 P29 1.597234 1_555
O81 Ta2 1.982695 1_565
O82 P24 1.601162 1_555
O82 Ta2 1.996742 1_565
O83 P25 1.602384 1_555
O83 Ta1 1.995874 1_665
O84 P12 1.561589 1_555
O85 P13 1.556490 1_555
O86 P14 1.558221 1_555
O87 P15 1.560013 1_555
O88 P16 1.564556 1_555
O89 P17 1.558909 1_555
O90 P18 1.565151 1_555
O91 P19 1.562954 1_555
O92 P20 1.565224 1_555
O93 P21 1.564904 1_555
O94 P22 1.561639 1_555
O95 P23 1.566041 1_555
O96 P10 1.536919 1_545
O97 P11 1.536624 1_545
O98 P6 1.551537 1_555
O99 P7 1.551288 1_555
O100 P9 1.553603 1_555
O101 P8 1.552231 1_555
O102 P2 1.538755 1_555
O103 P3 1.544893 1_555
O104 P5 1.548824 1_555
O105 P4 1.535583 1_555
O106 P0 1.545367 1_555
O107 P1 1.557715 1_555
O108 P24 1.534334 1_555
O109 P25 1.533945 1_555
O110 P27 1.533263 1_555
O111 P26 1.531986 1_655
O112 P28 1.531117 1_545
O113 P29 1.531589 1_545
O114 P30 1.535682 1_545
O115 P31 1.541790 1_545
O116 P32 1.541123 1_555
O117 P33 1.556051 1_555
O118 P35 1.551106 1_555
O119 P34 1.532529 1_655
O120 P22 1.566722 1_555
O121 P23 1.570451 1_555
O122 P19 1.563962 1_455
O123 P18 1.566996 1_555
O124 P20 1.568318 1_565
O125 P21 1.569299 1_565
O126 P14 1.565431 1_565
O127 P15 1.566164 1_565
O128 P16 1.569583 1_555
O129 P17 1.568914 1_555
O130 P13 1.566893 1_455
O131 P12 1.564386 1_555
O132 P0 1.538672 1_565
O133 P1 1.539753 1_565
O134 P2 1.556672 1_555
O135 P3 1.541093 1_555
O136 P4 1.525740 1_455
O137 P5 1.549732 1_555
O138 P6 1.544450 1_555
O139 P7 1.544226 1_555
O140 P8 1.533950 1_455
O141 P9 1.532284 1_555
O142 P10 1.543526 1_555
O143 P11 1.543019 1_555
