# generated using pymatgen
data_Na3Hf2Si2PO12
_symmetry_space_group_name_H-M   'P 1'
_cell_length_a   15.86015436
_cell_length_b   9.11825379
_cell_length_c   9.11995718
_cell_angle_alpha   90.00000000
_cell_angle_beta   124.81715211
_cell_angle_gamma   90.00000000
_symmetry_Int_Tables_number   1
_chemical_formula_structural   Na3Hf2Si2PO12
_chemical_formula_sum   'Na12 Hf8 Si8 P4 O48'
_cell_volume   1082.78835190
_cell_formula_units_Z   4
loop_
 _symmetry_equiv_pos_site_id
 _symmetry_equiv_pos_as_xyz
  1  'x, y, z'
loop_
 _atom_site_type_symbol
 _atom_site_label
 _atom_site_symmetry_multiplicity
 _atom_site_fract_x
 _atom_site_fract_y
 _atom_site_fract_z
 _atom_site_occupancy
  Na  Na0  1  0.24253845  0.77546535  0.99538988  1
  Na  Na1  1  0.74253845  0.72453465  0.49538988  1
  Na  Na2  1  0.74253845  0.27546535  0.99538988  1
  Na  Na3  1  0.24253845  0.22453465  0.49538988  1
  Na  Na4  1  0.50299164  0.10547802  0.75128000  1
  Na  Na5  1  0.50299164  0.89452198  0.25128000  1
  Na  Na6  1  0.00299164  0.60547802  0.75128000  1
  Na  Na7  1  0.00299164  0.39452198  0.25128000  1
  Na  Na8  1  0.80773909  0.93519871  0.21077890  1
  Na  Na9  1  0.80773909  0.06480129  0.71077890  1
  Na  Na10  1  0.30773909  0.43519871  0.21077890  1
  Na  Na11  1  0.30773909  0.56480129  0.71077890  1
  Hf  Hf0  1  0.10550801  0.75001130  0.56142735  1
  Hf  Hf1  1  0.89545037  0.74478555  0.93563903  1
  Hf  Hf2  1  0.89545037  0.25521445  0.43563903  1
  Hf  Hf3  1  0.10550801  0.24998870  0.06142735  1
  Hf  Hf4  1  0.60550801  0.25001130  0.56142735  1
  Hf  Hf5  1  0.39545037  0.24478555  0.93563903  1
  Hf  Hf6  1  0.39545037  0.75521445  0.43563903  1
  Hf  Hf7  1  0.60550801  0.74998870  0.06142735  1
  Si  Si0  1  0.35481864  0.89569783  0.75839701  1
  Si  Si1  1  0.64865391  0.89534216  0.74395849  1
  Si  Si2  1  0.64865391  0.10465784  0.24395849  1
  Si  Si3  1  0.35481864  0.10430217  0.25839701  1
  Si  Si4  1  0.85481864  0.39569783  0.75839701  1
  Si  Si5  1  0.14865391  0.39534216  0.74395849  1
  Si  Si6  1  0.14865391  0.60465784  0.24395849  1
  Si  Si7  1  0.85481864  0.60430217  0.25839701  1
  P  P0  1  0.00100891  0.95960418  0.74638998  1
  P  P1  1  0.00100891  0.04039582  0.24638998  1
  P  P2  1  0.50100891  0.45960418  0.74638998  1
  P  P3  1  0.50100891  0.54039582  0.24638998  1
  O  O0  1  0.15238015  0.57687035  0.74279028  1
  O  O1  1  0.85158479  0.57549636  0.75468706  1
  O  O2  1  0.85158479  0.42450364  0.25468706  1
  O  O3  1  0.15238015  0.42312965  0.24279028  1
  O  O4  1  0.65238015  0.07687035  0.74279028  1
  O  O5  1  0.35158479  0.07549636  0.75468706  1
  O  O6  1  0.35158479  0.92450364  0.25468706  1
  O  O7  1  0.65238015  0.92312965  0.24279028  1
  O  O8  1  0.43656453  0.55216567  0.57400627  1
  O  O9  1  0.56031114  0.56141248  0.91020904  1
  O  O10  1  0.56031114  0.43858752  0.41020904  1
  O  O11  1  0.43656453  0.44783433  0.07400627  1
  O  O12  1  0.93656453  0.05216567  0.57400627  1
  O  O13  1  0.06031114  0.06141248  0.91020904  1
  O  O14  1  0.06031114  0.93858752  0.41020904  1
  O  O15  1  0.93656453  0.94783433  0.07400627  1
  O  O16  1  0.25656925  0.82008070  0.74225000  1
  O  O17  1  0.74986232  0.83707740  0.75522260  1
  O  O18  1  0.74986232  0.16292260  0.25522260  1
  O  O19  1  0.25656925  0.17991930  0.24225000  1
  O  O20  1  0.75656925  0.32008070  0.74225000  1
  O  O21  1  0.24986232  0.33707740  0.75522260  1
  O  O22  1  0.24986232  0.66292260  0.25522260  1
  O  O23  1  0.75656925  0.67991930  0.24225000  1
  O  O24  1  0.36054484  0.84421249  0.59099518  1
  O  O25  1  0.64888011  0.85572952  0.92083900  1
  O  O26  1  0.64888011  0.14427048  0.42083900  1
  O  O27  1  0.36054484  0.15578751  0.09099518  1
  O  O28  1  0.86054484  0.34421249  0.59099518  1
  O  O29  1  0.14888011  0.35572952  0.92083900  1
  O  O30  1  0.14888011  0.64427048  0.42083900  1
  O  O31  1  0.86054484  0.65578751  0.09099518  1
  O  O32  1  0.46076501  0.83502842  0.94044614  1
  O  O33  1  0.54260943  0.83263483  0.56480430  1
  O  O34  1  0.54260943  0.16736517  0.06480430  1
  O  O35  1  0.46076501  0.16497158  0.44044614  1
  O  O36  1  0.96076501  0.33502842  0.94044614  1
  O  O37  1  0.04260943  0.33263483  0.56480430  1
  O  O38  1  0.04260943  0.66736517  0.06480430  1
  O  O39  1  0.96076501  0.66497158  0.44044614  1
  O  O40  1  0.07792749  0.85671923  0.74388684  1
  O  O41  1  0.92329191  0.86348260  0.75660265  1
  O  O42  1  0.92329191  0.13651740  0.25660265  1
  O  O43  1  0.07792749  0.14328077  0.24388684  1
  O  O44  1  0.57792749  0.35671923  0.74388684  1
  O  O45  1  0.42329191  0.36348260  0.75660265  1
  O  O46  1  0.42329191  0.63651740  0.25660265  1
  O  O47  1  0.57792749  0.64328077  0.24388684  1
loop_
_geom_bond_atom_site_label_1
_geom_bond_atom_site_label_2
_geom_bond_distance
_geom_bond_site_symmetry_2
Na0 O6 2.399963 1_556
Na0 O40 2.405802 1_555
Na0 O16 2.476170 1_555
Na0 O22 2.523401 1_556
Na0 O0 2.620923 1_555
Na0 O46 2.774910 1_556
Na1 O1 2.399963 1_555
Na1 O47 2.405802 1_555
Na1 O23 2.476170 1_555
Na1 O17 2.523401 1_555
Na1 O7 2.620923 1_555
Na1 O41 2.774910 1_555
Na2 O2 2.399963 1_556
Na2 O44 2.405802 1_555
Na2 O20 2.476170 1_555
Na2 O18 2.523401 1_556
Na2 O4 2.620923 1_555
Na2 O42 2.774910 1_556
Na3 O5 2.399963 1_555
Na3 O43 2.405802 1_555
Na3 O19 2.476170 1_555
Na3 O21 2.523401 1_555
Na3 O3 2.620923 1_555
Na3 O45 2.774910 1_555
Na4 O4 2.428419 1_555
Na4 O5 2.434609 1_555
Na4 O35 2.571166 1_555
Na4 O44 2.599367 1_555
Na4 O34 2.614841 1_556
Na4 O45 2.684165 1_555
Na5 O7 2.428419 1_555
Na5 O6 2.434609 1_555
Na5 O32 2.571166 1_554
Na5 O47 2.599367 1_555
Na5 O33 2.614841 1_555
Na5 O46 2.684165 1_555
Na6 O0 2.428419 1_555
Na6 O1 2.434609 1_455
Na6 O39 2.571166 1_455
Na6 O40 2.599367 1_555
Na6 O38 2.614841 1_556
Na6 O41 2.684165 1_455
Na7 O3 2.428419 1_555
Na7 O2 2.434609 1_455
Na7 O36 2.571166 1_454
Na7 O43 2.599367 1_555
Na7 O37 2.614841 1_555
Na7 O42 2.684165 1_455
Na8 O18 2.396534 1_565
Na8 O42 2.455299 1_565
Na8 O25 2.501473 1_554
Na8 O23 2.534797 1_555
Na8 O7 2.643891 1_555
Na8 O12 2.925184 1_565
Na8 O15 2.941786 1_555
Na9 O17 2.396534 1_545
Na9 O41 2.455299 1_545
Na9 O26 2.501473 1_555
Na9 O20 2.534797 1_555
Na9 O4 2.643891 1_555
Na9 O15 2.925184 1_546
Na9 O12 2.941786 1_555
Na10 O22 2.396534 1_555
Na10 O46 2.455299 1_555
Na10 O29 2.501473 1_554
Na10 O19 2.534797 1_555
Na10 O3 2.643891 1_555
Na10 O8 2.925184 1_555
Na10 O11 2.941786 1_555
Na11 O21 2.396534 1_555
Na11 O45 2.455299 1_555
Na11 O30 2.501473 1_555
Na11 O16 2.534797 1_555
Na11 O0 2.643891 1_555
Na11 O11 2.925184 1_556
Na11 O8 2.941786 1_555
Hf0 O30 2.013431 1_555
Hf0 O39 2.048481 1_455
Hf0 O14 2.059982 1_555
Hf0 O16 2.087134 1_555
Hf0 O0 2.092071 1_555
Hf0 O40 2.176746 1_555
Hf1 O31 1.966762 1_556
Hf1 O38 2.047884 1_656
Hf1 O1 2.068606 1_555
Hf1 O17 2.099698 1_555
Hf1 O15 2.122695 1_556
Hf1 O41 2.203577 1_555
Hf2 O28 1.966762 1_555
Hf2 O37 2.047884 1_655
Hf2 O2 2.068606 1_555
Hf2 O18 2.099698 1_555
Hf2 O12 2.122695 1_555
Hf2 O42 2.203577 1_555
Hf3 O29 2.013431 1_554
Hf3 O36 2.048481 1_454
Hf3 O13 2.059982 1_554
Hf3 O19 2.087134 1_555
Hf3 O3 2.092071 1_555
Hf3 O43 2.176746 1_555
Hf4 O26 2.013431 1_555
Hf4 O35 2.048481 1_555
Hf4 O10 2.059982 1_555
Hf4 O20 2.087134 1_555
Hf4 O4 2.092071 1_555
Hf4 O44 2.176746 1_555
Hf5 O27 1.966762 1_556
Hf5 O34 2.047884 1_556
Hf5 O5 2.068606 1_555
Hf5 O21 2.099698 1_555
Hf5 O11 2.122695 1_556
Hf5 O45 2.203577 1_555
Hf6 O24 1.966762 1_555
Hf6 O33 2.047884 1_555
Hf6 O6 2.068606 1_555
Hf6 O22 2.099698 1_555
Hf6 O8 2.122695 1_555
Hf6 O46 2.203577 1_555
Hf7 O25 2.013431 1_554
Hf7 O32 2.048481 1_554
Hf7 O9 2.059982 1_554
Hf7 O23 2.087134 1_555
Hf7 O7 2.092071 1_555
Hf7 O47 2.176746 1_555
O0 Si5 1.656526 1_555
O1 Si4 1.639996 1_555
O2 Si7 1.639996 1_555
O3 Si6 1.656526 1_555
O4 Si1 1.656526 1_545
O5 Si0 1.639996 1_545
O6 Si3 1.639996 1_565
O7 Si2 1.656526 1_565
O8 P2 1.547159 1_555
O9 P2 1.540739 1_555
O10 P3 1.540739 1_555
O11 P3 1.547159 1_555
O12 P0 1.547159 1_645
O13 P0 1.540739 1_545
O14 P1 1.540739 1_565
O15 P1 1.547159 1_665
O16 Si0 1.631932 1_555
O17 Si1 1.637410 1_555
O18 Si2 1.637410 1_555
O19 Si3 1.631932 1_555
O20 Si4 1.631932 1_555
O21 Si5 1.637410 1_555
O22 Si6 1.637410 1_555
O23 Si7 1.631932 1_555
O24 Si0 1.648567 1_555
O25 Si1 1.651090 1_555
O26 Si2 1.651090 1_555
O27 Si3 1.648567 1_555
O28 Si4 1.648567 1_555
O29 Si5 1.651090 1_555
O30 Si6 1.651090 1_555
O31 Si7 1.648567 1_555
O32 Si0 1.643264 1_555
O33 Si1 1.639280 1_555
O34 Si2 1.639280 1_555
O35 Si3 1.643264 1_555
O36 Si4 1.643264 1_555
O37 Si5 1.639280 1_555
O38 Si6 1.639280 1_555
O39 Si7 1.643264 1_555
O40 P0 1.549409 1_555
O41 P0 1.557969 1_655
O42 P1 1.557969 1_655
O43 P1 1.549409 1_555
O44 P2 1.549409 1_555
O45 P2 1.557969 1_555
O46 P3 1.557969 1_555
O47 P3 1.549409 1_555
