# generated using pymatgen
data_Na3AlZnSi(SO6)2
_symmetry_space_group_name_H-M   'P 1'
_cell_length_a   8.83758430
_cell_length_b   8.90457687
_cell_length_c   21.77738784
_cell_angle_alpha   89.81870941
_cell_angle_beta   90.00000000
_cell_angle_gamma   119.75143887
_symmetry_Int_Tables_number   1
_chemical_formula_structural   Na3AlZnSi(SO6)2
_chemical_formula_sum   'Na18 Al6 Zn6 Si6 S12 O72'
_cell_volume   1487.86220988
_cell_formula_units_Z   6
loop_
 _symmetry_equiv_pos_site_id
 _symmetry_equiv_pos_as_xyz
  1  'x, y, z'
loop_
 _atom_site_type_symbol
 _atom_site_label
 _atom_site_symmetry_multiplicity
 _atom_site_fract_x
 _atom_site_fract_y
 _atom_site_fract_z
 _atom_site_occupancy
  Na  Na0  1  0.63648402  0.00850538  0.25240318  1
  Na  Na1  1  0.00091888  0.63684092  0.23890636  1
  Na  Na2  1  0.63592204  0.63684092  0.73890636  1
  Na  Na3  1  0.37202136  0.00850538  0.75240318  1
  Na  Na4  1  0.31723453  0.34735997  0.58563338  1
  Na  Na5  1  0.66014424  0.95153593  0.58075659  1
  Na  Na6  1  0.29139268  0.95153593  0.08075659  1
  Na  Na7  1  0.03012644  0.34735997  0.08563338  1
  Na  Na8  1  0.98381031  0.68337025  0.92363887  1
  Na  Na9  1  0.69449674  0.02946866  0.90796620  1
  Na  Na10  1  0.33497092  0.02946866  0.40796620  1
  Na  Na11  1  0.69955893  0.68337025  0.42363887  1
  Na  Na12  1  0.98328806  0.99498035  0.49711899  1
  Na  Na13  1  0.01169229  0.99498035  0.99711899  1
  Na  Na14  1  0.66549669  0.31790905  0.83062297  1
  Na  Na15  1  0.65241337  0.31790905  0.33062297  1
  Na  Na16  1  0.33248862  0.66121188  0.16458148  1
  Na  Na17  1  0.32872226  0.66121188  0.66458148  1
  Al  Al0  1  0.97595406  0.97119741  0.64812552  1
  Al  Al1  1  0.99524336  0.97119741  0.14812552  1
  Al  Al2  1  0.65277741  0.33859414  0.98208910  1
  Al  Al3  1  0.68581773  0.33859414  0.48208910  1
  Al  Al4  1  0.34065161  0.69346358  0.31751960  1
  Al  Al5  1  0.35281097  0.69346358  0.81751960  1
  Zn  Zn0  1  0.00715932  0.01158168  0.34894347  1
  Zn  Zn1  1  0.00442236  0.01158168  0.84894347  1
  Zn  Zn2  1  0.67450237  0.32806762  0.68253578  1
  Zn  Zn3  1  0.65356625  0.32806762  0.18253578  1
  Zn  Zn4  1  0.31682132  0.67603484  0.01504796  1
  Zn  Zn5  1  0.35921252  0.67603484  0.51504796  1
  Si  Si0  1  0.29292225  0.99901086  0.25165811  1
  Si  Si1  1  0.70608861  0.99901086  0.75165811  1
  Si  Si2  1  0.67547599  0.62079954  0.58374393  1
  Si  Si3  1  0.94532455  0.62079954  0.08374393  1
  Si  Si4  1  0.33818785  0.97791778  0.91823012  1
  Si  Si5  1  0.63972892  0.97791778  0.41823012  1
  S  S0  1  0.70106905  0.70897625  0.25189802  1
  S  S1  1  0.01277271  0.29861947  0.24868433  1
  S  S2  1  0.28584676  0.29861947  0.74868433  1
  S  S3  1  0.00790720  0.70897625  0.75189802  1
  S  S4  1  0.96179800  0.33013466  0.58314844  1
  S  S5  1  0.36032772  0.03724415  0.58412386  1
  S  S6  1  0.67691743  0.03724415  0.08412386  1
  S  S7  1  0.36833765  0.33013466  0.08314844  1
  S  S8  1  0.61208465  0.65224632  0.91747354  1
  S  S9  1  0.04600060  0.38260820  0.91608886  1
  S  S10  1  0.33660661  0.38260820  0.41608886  1
  S  S11  1  0.04016068  0.65224632  0.41747354  1
  O  O0  1  0.21131888  0.01900964  0.31515642  1
  O  O1  1  0.80128514  0.78304337  0.30852272  1
  O  O2  1  0.97783116  0.18785278  0.30266739  1
  O  O3  1  0.21002161  0.18785278  0.80266739  1
  O  O4  1  0.98175823  0.78304337  0.80852272  1
  O  O5  1  0.80769076  0.01900964  0.81515642  1
  O  O6  1  0.80326530  0.96437515  0.69227079  1
  O  O7  1  0.18551478  0.21218475  0.69142519  1
  O  O8  1  0.03989993  0.82880794  0.69784636  1
  O  O9  1  0.78890801  0.82880794  0.19784636  1
  O  O10  1  0.02666996  0.21218475  0.19142519  1
  O  O11  1  0.16110985  0.96437515  0.19227079  1
  O  O12  1  0.88902087  0.35169643  0.64013629  1
  O  O13  1  0.46749379  0.10700826  0.63996975  1
  O  O14  1  0.64095734  0.50541134  0.64501739  1
  O  O15  1  0.86445500  0.50541134  0.14501739  1
  O  O16  1  0.63951547  0.10700826  0.13996975  1
  O  O17  1  0.46267655  0.35169643  0.14013629  1
  O  O18  1  0.45601216  0.29780062  0.02951343  1
  O  O19  1  0.82802895  0.51871139  0.02180612  1
  O  O20  1  0.70162237  0.15026099  0.02938304  1
  O  O21  1  0.44863962  0.15026099  0.52938304  1
  O  O22  1  0.69068343  0.51871139  0.52180612  1
  O  O23  1  0.84178946  0.29780062  0.52951343  1
  O  O24  1  0.52389722  0.67127723  0.97105483  1
  O  O25  1  0.13559536  0.45063572  0.97515642  1
  O  O26  1  0.29756708  0.86352090  0.98029617  1
  O  O27  1  0.56595282  0.86352090  0.48029617  1
  O  O28  1  0.31503936  0.45063572  0.47515642  1
  O  O29  1  0.14737901  0.67127723  0.47105483  1
  O  O30  1  0.12218257  0.63520356  0.35908049  1
  O  O31  1  0.50190241  0.87691476  0.35997767  1
  O  O32  1  0.35082687  0.49843603  0.36370479  1
  O  O33  1  0.14760816  0.49843603  0.86370479  1
  O  O34  1  0.37501136  0.87691476  0.85997767  1
  O  O35  1  0.51301999  0.63520356  0.85908049  1
  O  O36  1  0.01588476  0.80586071  0.41470597  1
  O  O37  1  0.82813702  0.98963577  0.40849573  1
  O  O38  1  0.19101262  0.20398153  0.41213181  1
  O  O39  1  0.01296890  0.20398153  0.91213181  1
  O  O40  1  0.16149875  0.98963577  0.90849573  1
  O  O41  1  0.78997595  0.80586071  0.91470597  1
  O  O42  1  0.97895588  0.16860925  0.58579131  1
  O  O43  1  0.19013090  0.03805308  0.59107899  1
  O  O44  1  0.84939842  0.81914575  0.58832841  1
  O  O45  1  0.96974734  0.81914575  0.08832841  1
  O  O46  1  0.84792218  0.03805308  0.09107899  1
  O  O47  1  0.18965337  0.16860925  0.08579131  1
  O  O48  1  0.66783156  0.16019756  0.74412622  1
  O  O49  1  0.46712535  0.32729494  0.74579006  1
  O  O50  1  0.85410213  0.53808405  0.74397602  1
  O  O51  1  0.68398292  0.53808405  0.24397602  1
  O  O52  1  0.86017059  0.32729494  0.24579006  1
  O  O53  1  0.49236700  0.16019756  0.24412622  1
  O  O54  1  0.63151590  0.49397475  0.92036343  1
  O  O55  1  0.87143650  0.37630611  0.91577845  1
  O  O56  1  0.52557966  0.16476168  0.92685916  1
  O  O57  1  0.63918302  0.16476168  0.42685916  1
  O  O58  1  0.50487061  0.37630611  0.41577845  1
  O  O59  1  0.86245986  0.49397475  0.42036343  1
  O  O60  1  0.34513671  0.48126715  0.07420910  1
  O  O61  1  0.14494407  0.64630945  0.08198286  1
  O  O62  1  0.53162702  0.85939802  0.07651638  1
  O  O63  1  0.32777001  0.85939802  0.57651638  1
  O  O64  1  0.50136438  0.64630945  0.58198286  1
  O  O65  1  0.13612944  0.48126715  0.57420910  1
  O  O66  1  0.30519035  0.81422128  0.25579247  1
  O  O67  1  0.52489354  0.69654861  0.25582135  1
  O  O68  1  0.17508813  0.47122056  0.25432836  1
  O  O69  1  0.29613143  0.47122056  0.75432836  1
  O  O70  1  0.17165407  0.69654861  0.75582135  1
  O  O71  1  0.50902993  0.81422128  0.75579247  1
loop_
_geom_bond_atom_site_label_1
_geom_bond_atom_site_label_2
_geom_bond_distance
_geom_bond_site_symmetry_2
Na0 O53 2.277082 1_555
Na0 O67 2.444247 1_545
Na0 O52 2.532743 1_555
Na0 O66 2.557875 1_545
Na0 O16 2.593904 1_555
Na0 O31 2.622077 1_545
Na0 O9 2.817421 1_545
Na0 O2 2.842298 1_555
Na1 O15 2.370460 1_455
Na1 O66 2.376808 1_555
Na1 O52 2.400396 1_455
Na1 O51 2.487091 1_455
Na1 O68 2.628086 1_555
Na1 O11 2.724939 1_555
Na1 O30 2.830737 1_555
Na2 O14 2.370462 1_555
Na2 O71 2.376815 1_555
Na2 O49 2.400395 1_555
Na2 O50 2.487099 1_555
Na2 O69 2.628093 1_555
Na2 O6 2.724939 1_555
Na2 O35 2.830741 1_555
Na3 O48 2.277090 1_555
Na3 O70 2.444249 1_545
Na3 O49 2.532741 1_555
Na3 O71 2.557868 1_545
Na3 O13 2.593906 1_555
Na3 O34 2.622075 1_545
Na3 O8 2.817421 1_545
Na3 O3 2.842298 1_555
Na4 O64 2.332401 1_555
Na4 O43 2.406057 1_555
Na4 O65 2.436719 1_555
Na4 O28 2.576460 1_555
Na4 O7 2.589123 1_555
Na4 O42 2.597749 1_455
Na4 O14 2.802403 1_555
Na4 O21 2.822408 1_555
Na5 O27 2.335990 1_555
Na5 O64 2.360338 1_555
Na5 O44 2.483956 1_555
Na5 O42 2.506579 1_565
Na5 O63 2.630310 1_555
Na5 O6 2.714534 1_555
Na5 O23 2.897427 1_565
Na5 O13 2.971327 1_565
Na6 O26 2.335987 1_554
Na6 O61 2.360337 1_555
Na6 O45 2.483964 1_455
Na6 O47 2.506586 1_565
Na6 O62 2.630293 1_555
Na6 O11 2.714538 1_555
Na6 O18 2.897427 1_565
Na6 O16 2.971327 1_565
Na7 O61 2.332403 1_555
Na7 O46 2.406058 1_455
Na7 O60 2.436704 1_555
Na7 O25 2.576457 1_554
Na7 O10 2.589121 1_555
Na7 O47 2.597741 1_555
Na7 O15 2.802403 1_455
Na7 O20 2.822408 1_455
Na8 O40 2.399187 1_655
Na8 O55 2.408275 1_555
Na8 O41 2.452556 1_555
Na8 O19 2.567537 1_556
Na8 O4 2.659823 1_555
Na8 O54 2.707819 1_555
Na8 O26 2.717041 1_655
Na9 O5 2.277745 1_555
Na9 O56 2.374280 1_555
Na9 O39 2.450451 1_655
Na9 O41 2.522659 1_545
Na9 O34 2.666808 1_545
Na9 O55 2.687533 1_555
Na9 O20 2.846603 1_556
Na10 O0 2.277740 1_555
Na10 O57 2.374295 1_555
Na10 O38 2.450443 1_555
Na10 O36 2.522652 1_545
Na10 O31 2.666809 1_545
Na10 O58 2.687533 1_555
Na10 O21 2.846606 1_555
Na11 O37 2.399187 1_555
Na11 O58 2.408272 1_555
Na11 O36 2.452565 1_655
Na11 O22 2.567542 1_555
Na11 O1 2.659824 1_555
Na11 O59 2.707834 1_555
Na11 O27 2.717041 1_555
Na12 O37 2.354357 1_555
Na12 O44 2.436927 1_555
Na12 O42 2.489672 1_565
Na12 O36 2.576945 1_655
Na12 O38 2.616585 1_665
Na12 O43 2.642864 1_665
Na13 O40 2.354357 1_555
Na13 O45 2.436927 1_456
Na13 O47 2.489672 1_566
Na13 O41 2.576945 1_455
Na13 O39 2.616585 1_565
Na13 O46 2.642864 1_466
Na14 O48 2.359314 1_555
Na14 O55 2.467527 1_555
Na14 O56 2.467653 1_555
Na14 O49 2.576412 1_555
Na14 O54 2.618045 1_555
Na14 O50 2.629814 1_555
Na15 O53 2.359314 1_555
Na15 O58 2.467527 1_555
Na15 O57 2.467653 1_555
Na15 O52 2.576412 1_555
Na15 O59 2.618045 1_555
Na15 O51 2.629814 1_555
Na16 O61 2.404903 1_555
Na16 O66 2.490673 1_555
Na16 O68 2.502093 1_555
Na16 O67 2.532059 1_555
Na16 O60 2.578952 1_555
Na16 O62 2.604966 1_555
Na17 O64 2.404903 1_555
Na17 O71 2.490673 1_555
Na17 O69 2.502093 1_555
Na17 O70 2.532059 1_555
Na17 O65 2.578952 1_555
Na17 O63 2.604966 1_555
Al0 O6 1.778953 1_555
Al0 O44 1.813321 1_555
Al0 O8 1.949840 1_655
Al0 O43 2.087453 1_665
Al0 O42 2.207298 1_565
Al0 O7 2.234378 1_665
Al1 O11 1.778953 1_655
Al1 O45 1.813321 1_555
Al1 O9 1.949840 1_555
Al1 O46 2.087453 1_565
Al1 O47 2.207298 1_665
Al1 O10 2.234378 1_665
Al2 O19 1.806289 1_556
Al2 O56 1.841504 1_555
Al2 O18 1.895566 1_556
Al2 O54 2.000711 1_555
Al2 O20 2.183365 1_556
Al2 O55 2.298966 1_555
Al3 O22 1.806289 1_555
Al3 O57 1.841504 1_555
Al3 O23 1.895566 1_555
Al3 O59 2.000711 1_555
Al3 O21 2.183365 1_555
Al3 O58 2.298966 1_555
Al4 O31 1.803718 1_555
Al4 O66 1.840328 1_555
Al4 O30 1.954227 1_555
Al4 O32 2.044396 1_555
Al4 O67 2.100636 1_555
Al4 O68 2.257086 1_555
Al5 O34 1.803718 1_555
Al5 O71 1.840328 1_555
Al5 O35 1.954227 1_555
Al5 O33 2.044396 1_555
Al5 O70 2.100636 1_555
Al5 O69 2.257086 1_555
O0 Si0 1.610292 1_545
O0 Zn0 1.918967 1_555
O1 S0 1.471542 1_555
O1 Zn0 2.136151 1_665
O2 S1 1.463092 1_655
O2 Zn0 1.985006 1_655
O3 S2 1.463092 1_555
O3 Zn1 1.985006 1_555
O4 S3 1.471542 1_655
O4 Zn1 2.136151 1_665
O5 Si1 1.610292 1_545
O5 Zn1 1.918967 1_655
O6 Si1 1.664542 1_555
O7 S2 1.504079 1_555
O8 S3 1.515499 1_555
O9 S0 1.515499 1_555
O10 S1 1.504079 1_555
O11 Si0 1.664542 1_555
O12 S4 1.454235 1_555
O12 Zn2 2.023334 1_555
O13 S5 1.477443 1_555
O13 Zn2 2.125657 1_555
O14 Si2 1.615419 1_555
O14 Zn2 1.925022 1_555
O15 Si3 1.615419 1_555
O15 Zn3 1.925022 1_555
O16 S6 1.477443 1_555
O16 Zn3 2.125657 1_555
O17 S7 1.454235 1_555
O17 Zn3 2.023334 1_555
O18 S7 1.507016 1_555
O19 Si3 1.671177 1_555
O20 S6 1.501970 1_555
O21 S5 1.501970 1_555
O22 Si2 1.671177 1_555
O23 S4 1.507016 1_555
O24 S8 1.459459 1_555
O24 Zn4 2.084695 1_556
O25 S9 1.475620 1_555
O25 Zn4 2.041783 1_556
O26 Si4 1.619199 1_555
O26 Zn4 1.913852 1_556
O27 Si5 1.619199 1_555
O27 Zn5 1.913852 1_555
O28 S10 1.475620 1_555
O28 Zn5 2.041783 1_555
O29 S11 1.459459 1_555
O29 Zn5 2.084695 1_555
O30 S11 1.508630 1_555
O31 Si5 1.679829 1_555
O32 S10 1.498294 1_555
O33 S9 1.498294 1_555
O34 Si4 1.679829 1_555
O35 S8 1.508630 1_555
O36 S11 1.487100 1_555
O36 Zn0 2.352925 1_565
O37 Si5 1.629638 1_555
O37 Zn0 1.978581 1_665
O38 S10 1.470599 1_555
O38 Zn0 2.172780 1_555
O39 S9 1.470602 1_555
O39 Zn1 2.172780 1_555
O40 Si4 1.629629 1_555
O40 Zn1 1.978581 1_565
O41 S8 1.487105 1_555
O41 Zn1 2.352925 1_665
O42 S4 1.520194 1_555
O43 S5 1.515307 1_555
O44 Si2 1.672943 1_555
O45 Si3 1.672947 1_555
O46 S6 1.515299 1_555
O47 S7 1.520199 1_555
O48 Si1 1.637508 1_545
O48 Zn2 1.984141 1_555
O49 S2 1.493213 1_555
O49 Zn2 2.289945 1_555
O50 S3 1.463490 1_655
O50 Zn2 2.208334 1_555
O51 S0 1.463494 1_555
O51 Zn3 2.208334 1_555
O52 S1 1.493204 1_655
O52 Zn3 2.289945 1_555
O53 Si0 1.637514 1_545
O53 Zn3 1.984141 1_555
O54 S8 1.503107 1_555
O55 S9 1.515676 1_655
O56 Si4 1.677328 1_545
O57 Si5 1.677319 1_545
O58 S10 1.515694 1_555
O59 S11 1.503097 1_655
O60 S7 1.470797 1_555
O60 Zn4 2.268700 1_555
O61 Si3 1.663591 1_455
O61 Zn4 2.025013 1_555
O62 S6 1.472280 1_565
O62 Zn4 2.235887 1_555
O63 S5 1.472274 1_565
O63 Zn5 2.235887 1_555
O64 Si2 1.663608 1_555
O64 Zn5 2.025013 1_555
O65 S4 1.470786 1_455
O65 Zn5 2.268700 1_555
O66 Si0 1.703985 1_555
O67 S0 1.507524 1_555
O68 S1 1.499364 1_555
O69 S2 1.499368 1_555
O70 S3 1.507515 1_555
O71 Si1 1.703990 1_555
