# generated using pymatgen
data_Na2Y4Ta4Si5S7O48
_symmetry_space_group_name_H-M   'P 1'
_cell_length_a   18.08096355
_cell_length_b   9.05700801
_cell_length_c   23.60712939
_cell_angle_alpha   89.92274047
_cell_angle_beta   90.04965228
_cell_angle_gamma   120.18403083
_symmetry_Int_Tables_number   1
_chemical_formula_structural   Na2Y4Ta4Si5S7O48
_chemical_formula_sum   'Na6 Y12 Ta12 Si15 S21 O144'
_cell_volume   3341.73014031
_cell_formula_units_Z   3
loop_
 _symmetry_equiv_pos_site_id
 _symmetry_equiv_pos_as_xyz
  1  'x, y, z'
loop_
 _atom_site_type_symbol
 _atom_site_label
 _atom_site_symmetry_multiplicity
 _atom_site_fract_x
 _atom_site_fract_y
 _atom_site_fract_z
 _atom_site_occupancy
  Na  Na0  1  0.00135234  0.98741021  0.49584159  1
  Na  Na1  1  0.49647768  0.00846011  0.99396250  1
  Na  Na2  1  0.33116257  0.30915463  0.84538899  1
  Na  Na3  1  0.83263919  0.33957754  0.83441808  1
  Na  Na4  1  0.32853867  0.32100106  0.32904920  1
  Na  Na5  1  0.84655172  0.35538308  0.33477055  1
  Y  Y0  1  0.00795061  0.99167123  0.35520517  1
  Y  Y1  1  0.50517188  0.02268448  0.85594453  1
  Y  Y2  1  0.00341669  0.00538279  0.64992525  1
  Y  Y3  1  0.50363566  0.00279646  0.14822570  1
  Y  Y4  1  0.32475507  0.32329699  0.97881879  1
  Y  Y5  1  0.84354607  0.33556870  0.98413501  1
  Y  Y6  1  0.34231221  0.35062871  0.48458471  1
  Y  Y7  1  0.82806130  0.32795402  0.48071760  1
  Y  Y8  1  0.15645741  0.67180059  0.30497529  1
  Y  Y9  1  0.67154468  0.67164631  0.30315236  1
  Y  Y10  1  0.17063438  0.67585364  0.80327660  1
  Y  Y11  1  0.65687652  0.64146646  0.80469339  1
  Ta  Ta0  1  0.50303077  0.01330366  0.34947128  1
  Ta  Ta1  1  0.00906576  0.99176800  0.85335527  1
  Ta  Ta2  1  0.50372514  0.00834081  0.64214031  1
  Ta  Ta3  1  0.00520410  0.00288695  0.14156573  1
  Ta  Ta4  1  0.33273157  0.34418820  0.68341931  1
  Ta  Ta5  1  0.83135734  0.32818610  0.68840683  1
  Ta  Ta6  1  0.33140858  0.32911330  0.18388190  1
  Ta  Ta7  1  0.83141488  0.32172444  0.18166866  1
  Ta  Ta8  1  0.15817060  0.66148525  0.02243756  1
  Ta  Ta9  1  0.67064063  0.66777647  0.02016829  1
  Ta  Ta10  1  0.16954080  0.67238581  0.52091078  1
  Ta  Ta11  1  0.66018609  0.66883147  0.52632824  1
  Si  Si0  1  0.14520509  0.01270335  0.24732408  1
  Si  Si1  1  0.65367156  0.02661173  0.25004838  1
  Si  Si2  1  0.49041100  0.28401045  0.24836334  1
  Si  Si3  1  0.15304180  0.28214429  0.75076428  1
  Si  Si4  1  0.64395400  0.27715511  0.74776164  1
  Si  Si5  1  0.99131617  0.70095079  0.74911261  1
  Si  Si6  1  0.47673299  0.32965802  0.58428690  1
  Si  Si7  1  0.68903081  0.04356333  0.58531000  1
  Si  Si8  1  0.33148910  0.62971049  0.58556424  1
  Si  Si9  1  0.97804441  0.62560252  0.08441289  1
  Si  Si10  1  0.83160070  0.03214488  0.08552206  1
  Si  Si11  1  0.18997925  0.34592015  0.08469169  1
  Si  Si12  1  0.52198323  0.37546794  0.91939327  1
  Si  Si13  1  0.16528390  0.94768815  0.91515496  1
  Si  Si14  1  0.02020170  0.66635698  0.41919294  1
  S  S0  1  0.35984729  0.69948916  0.25311615  1
  S  S1  1  0.86241228  0.70334759  0.24450471  1
  S  S2  1  0.99047702  0.27589505  0.24613066  1
  S  S3  1  0.49156093  0.70736218  0.74589448  1
  S  S4  1  0.36225300  0.02037141  0.74291703  1
  S  S5  1  0.85743082  0.01685548  0.75189829  1
  S  S6  1  0.98496496  0.34781869  0.58183755  1
  S  S7  1  0.18907907  0.03518972  0.58060781  1
  S  S8  1  0.82655417  0.62278869  0.58161763  1
  S  S9  1  0.48519304  0.62083114  0.08157356  1
  S  S10  1  0.32682841  0.03367571  0.08309573  1
  S  S11  1  0.69018128  0.34389000  0.08079422  1
  S  S12  1  0.30998144  0.67742308  0.92107645  1
  S  S13  1  0.81315661  0.67843720  0.91570352  1
  S  S14  1  0.02612876  0.37060233  0.91518556  1
  S  S15  1  0.66572679  0.94660732  0.91925643  1
  S  S16  1  0.31429858  0.94945068  0.41558991  1
  S  S17  1  0.80876581  0.94142127  0.42149665  1
  S  S18  1  0.16580548  0.38524977  0.41959321  1
  S  S19  1  0.65813144  0.37028119  0.41589121  1
  S  S20  1  0.52837251  0.68184951  0.41597697  1
  O  O0  1  0.11751740  0.06104531  0.30644547  1
  O  O1  1  0.59555194  0.04523768  0.30632664  1
  O  O2  1  0.41861481  0.79097924  0.30361921  1
  O  O3  1  0.91115777  0.77158559  0.29804097  1
  O  O4  1  0.47446871  0.14816945  0.30630580  1
  O  O5  1  0.97393095  0.17964867  0.29944602  1
  O  O6  1  0.09661702  0.14868253  0.80635858  1
  O  O7  1  0.61509777  0.17154253  0.80618079  1
  O  O8  1  0.47544864  0.77091911  0.79890788  1
  O  O9  1  0.97513230  0.79953765  0.80586679  1
  O  O10  1  0.41078158  0.05147036  0.79641711  1
  O  O11  1  0.91298631  0.04548935  0.80136803  1
  O  O12  1  0.40895791  0.00273716  0.69488895  1
  O  O13  1  0.89162881  0.99093272  0.69891782  1
  O  O14  1  0.09780105  0.20593190  0.69445636  1
  O  O15  1  0.58105303  0.16279800  0.69654078  1
  O  O16  1  0.99750906  0.80293492  0.69277035  1
  O  O17  1  0.49552977  0.80943669  0.69687151  1
  O  O18  1  0.39407747  0.79833423  0.20133548  1
  O  O19  1  0.90615791  0.81419479  0.19615131  1
  O  O20  1  0.99491292  0.18178918  0.19753838  1
  O  O21  1  0.49949628  0.19390925  0.19370012  1
  O  O22  1  0.07978174  0.99826073  0.19766466  1
  O  O23  1  0.59713655  0.98975040  0.19485949  1
  O  O24  1  0.42676894  0.36378608  0.63643914  1
  O  O25  1  0.94564666  0.37288913  0.63363346  1
  O  O26  1  0.24062404  0.11654259  0.63207794  1
  O  O27  1  0.76080598  0.14361503  0.63595078  1
  O  O28  1  0.31021730  0.48889278  0.63881307  1
  O  O29  1  0.81441107  0.51574273  0.63236640  1
  O  O30  1  0.44530739  0.51547445  0.13405461  1
  O  O31  1  0.92505591  0.49136406  0.13755784  1
  O  O32  1  0.31903722  0.12807147  0.13452973  1
  O  O33  1  0.81005839  0.13020502  0.13956933  1
  O  O34  1  0.26112743  0.38328218  0.13776312  1
  O  O35  1  0.74186524  0.36284753  0.13292141  1
  O  O36  1  0.22217946  0.28565943  0.03265903  1
  O  O37  1  0.72831342  0.31626850  0.03045350  1
  O  O38  1  0.43254196  0.53968919  0.03215492  1
  O  O39  1  0.92176071  0.55905477  0.02882512  1
  O  O40  1  0.34566192  0.14077423  0.03331963  1
  O  O41  1  0.85540356  0.15341860  0.03176704  1
  O  O42  1  0.22749958  0.13824477  0.52977437  1
  O  O43  1  0.72017597  0.15259098  0.52913474  1
  O  O44  1  0.35540308  0.55848356  0.53110436  1
  O  O45  1  0.84346371  0.55075049  0.53108671  1
  O  O46  1  0.42388242  0.28833915  0.52719457  1
  O  O47  1  0.93234752  0.32608889  0.53173697  1
  O  O48  1  0.26023275  0.68230561  0.97191702  1
  O  O49  1  0.76947344  0.69239067  0.96963741  1
  O  O50  1  0.07380582  0.45191888  0.97021029  1
  O  O51  1  0.58596440  0.49370382  0.97525870  1
  O  O52  1  0.15541516  0.82821506  0.97318853  1
  O  O53  1  0.66733397  0.84787365  0.97173286  1
  O  O54  1  0.27169104  0.84815513  0.46916108  1
  O  O55  1  0.75826980  0.83265880  0.47197951  1
  O  O56  1  0.16713894  0.48681219  0.47157949  1
  O  O57  1  0.64702982  0.45044643  0.46777923  1
  O  O58  1  0.08350786  0.67336527  0.47482421  1
  O  O59  1  0.57754274  0.69488100  0.47051298  1
  O  O60  1  0.06548695  0.65701734  0.36176070  1
  O  O61  1  0.57188590  0.65883850  0.36828722  1
  O  O62  1  0.26170383  0.86440482  0.36603755  1
  O  O63  1  0.76463782  0.85873430  0.36955146  1
  O  O64  1  0.17452264  0.48043269  0.36799062  1
  O  O65  1  0.67280522  0.47511033  0.36598299  1
  O  O66  1  0.06927233  0.47787464  0.86709925  1
  O  O67  1  0.56822156  0.47330807  0.86174375  1
  O  O68  1  0.17726931  0.86166440  0.86077633  1
  O  O69  1  0.67463720  0.86900185  0.86792886  1
  O  O70  1  0.26623217  0.66592754  0.86852982  1
  O  O71  1  0.76010199  0.65667830  0.86631289  1
  O  O72  1  0.01898868  0.84550762  0.42329779  1
  O  O73  1  0.52284616  0.84006100  0.41022011  1
  O  O74  1  0.39880579  0.95577406  0.40967463  1
  O  O75  1  0.89458109  0.95938873  0.42401468  1
  O  O76  1  0.08293213  0.22202330  0.42253375  1
  O  O77  1  0.57520758  0.19779637  0.40754992  1
  O  O78  1  0.01774519  0.19860739  0.90960462  1
  O  O79  1  0.52074822  0.19377174  0.92362870  1
  O  O80  1  0.07168207  0.95000679  0.90614661  1
  O  O81  1  0.58299799  0.94343275  0.92235186  1
  O  O82  1  0.39537892  0.83674113  0.92295232  1
  O  O83  1  0.89630096  0.84040619  0.91104286  1
  O  O84  1  0.49967704  0.18235901  0.60054895  1
  O  O85  1  0.99671346  0.19876167  0.58563454  1
  O  O86  1  0.10014021  0.99847842  0.58526154  1
  O  O87  1  0.59260580  0.99593291  0.60337485  1
  O  O88  1  0.40696694  0.81486557  0.60644836  1
  O  O89  1  0.89535985  0.80100100  0.58768124  1
  O  O90  1  0.49743659  0.79386944  0.08737500  1
  O  O91  1  0.99929437  0.81783930  0.10149159  1
  O  O92  1  0.39672258  0.99757583  0.09148215  1
  O  O93  1  0.90745259  0.00038720  0.10712673  1
  O  O94  1  0.09340261  0.19366160  0.10441382  1
  O  O95  1  0.60171204  0.20198203  0.08633741  1
  O  O96  1  0.35334412  0.17393146  0.73297122  1
  O  O97  1  0.85464187  0.18451191  0.74446647  1
  O  O98  1  0.24479186  0.28002422  0.73941898  1
  O  O99  1  0.73878858  0.29339816  0.73028135  1
  O  O100  1  0.41460153  0.52644343  0.73704735  1
  O  O101  1  0.90173838  0.51090261  0.73870896  1
  O  O102  1  0.35842973  0.53159867  0.24736478  1
  O  O103  1  0.85341440  0.53146335  0.23572062  1
  O  O104  1  0.40359277  0.29967897  0.24000551  1
  O  O105  1  0.91363397  0.30284217  0.23755535  1
  O  O106  1  0.24034291  0.18453083  0.22954486  1
  O  O107  1  0.74510571  0.21072024  0.24160099  1
  O  O108  1  0.32158444  0.52795044  0.92602157  1
  O  O109  1  0.82438387  0.52836825  0.92163120  1
  O  O110  1  0.42896615  0.35595780  0.92358761  1
  O  O111  1  0.93831152  0.34733589  0.91917808  1
  O  O112  1  0.23903768  0.14346305  0.91954342  1
  O  O113  1  0.73878288  0.12316181  0.92451263  1
  O  O114  1  0.32716546  0.12306117  0.42078817  1
  O  O115  1  0.81493922  0.11012048  0.42556883  1
  O  O116  1  0.23868664  0.35491958  0.42459558  1
  O  O117  1  0.72864748  0.33430851  0.42136634  1
  O  O118  1  0.44111648  0.53157724  0.42033793  1
  O  O119  1  0.92416261  0.50112554  0.42163774  1
  O  O120  1  0.18237075  0.51569864  0.07011863  1
  O  O121  1  0.68839710  0.50752987  0.07445824  1
  O  O122  1  0.07002364  0.63316031  0.07163659  1
  O  O123  1  0.57278237  0.63918614  0.07469612  1
  O  O124  1  0.24459914  0.86895575  0.07762965  1
  O  O125  1  0.74687330  0.84595055  0.07138499  1
  O  O126  1  0.18649715  0.86622514  0.57288905  1
  O  O127  1  0.68021216  0.85147172  0.57141896  1
  O  O128  1  0.24655844  0.64644625  0.57029420  1
  O  O129  1  0.74374013  0.62494612  0.57120184  1
  O  O130  1  0.07275103  0.50469364  0.57425202  1
  O  O131  1  0.57131181  0.50569098  0.56975394  1
  O  O132  1  0.15953538  0.85269819  0.24770124  1
  O  O133  1  0.67550239  0.88499863  0.26803967  1
  O  O134  1  0.27456099  0.66754062  0.26562863  1
  O  O135  1  0.77649753  0.68116656  0.24875584  1
  O  O136  1  0.06778102  0.44479874  0.24853987  1
  O  O137  1  0.56827581  0.46284822  0.26579385  1
  O  O138  1  0.17867380  0.46957189  0.76700832  1
  O  O139  1  0.65951391  0.46648494  0.74690746  1
  O  O140  1  0.06509893  0.66114647  0.76067254  1
  O  O141  1  0.56847137  0.69244644  0.74785507  1
  O  O142  1  0.27767267  0.86848643  0.74477017  1
  O  O143  1  0.76997648  0.88019776  0.76112601  1
loop_
_geom_bond_atom_site_label_1
_geom_bond_atom_site_label_2
_geom_bond_distance
_geom_bond_site_symmetry_2
Na0 O72 2.259487 1_555
Na0 O75 2.483810 1_455
Na0 O76 2.555119 1_565
Na0 O86 2.733235 1_555
Na0 O89 2.822672 1_455
Na0 O85 2.887438 1_465
Na1 O79 2.240421 1_555
Na1 O82 2.390268 1_545
Na1 O81 2.566265 1_545
Na1 O95 2.845619 1_556
Na1 O92 2.896665 1_546
Na1 O90 2.943273 1_546
Na2 O112 2.361249 1_555
Na2 O110 2.440783 1_555
Na2 O108 2.817096 1_555
Na2 O98 2.889178 1_555
Na3 O101 2.668272 1_555
Na3 O97 2.685383 1_555
Na3 O109 2.729744 1_555
Na3 O111 2.741908 1_555
Na3 O113 2.809911 1_555
Na3 O99 2.894803 1_555
Na4 O104 2.562640 1_555
Na4 O102 2.569821 1_555
Na4 O106 2.758241 1_555
Na4 O114 2.801720 1_555
Na4 O116 2.886422 1_555
Na4 O118 2.919724 1_555
Na5 O119 2.461012 1_555
Na5 O107 2.739147 1_555
Na5 O105 2.748209 1_555
Na5 O103 2.796014 1_555
Na5 O117 2.890935 1_555
Na5 O115 2.927142 1_555
O0 Si0 1.616640 1_555
O0 Y0 2.096366 1_545
O1 Si1 1.754748 1_555
O1 Ta0 1.853421 1_555
O2 S0 1.533688 1_555
O2 Ta0 2.113865 1_565
O3 S1 1.486099 1_555
O3 Y0 2.313557 1_655
O4 Si2 1.762759 1_555
O4 Ta0 1.851256 1_555
O5 S2 1.472738 1_555
O5 Y0 2.460730 1_645
O6 Si3 1.726959 1_555
O6 Ta1 1.868986 1_545
O7 Si4 1.607782 1_555
O7 Y1 2.110313 1_555
O8 S3 1.467538 1_555
O8 Y1 2.464968 1_565
O9 Si5 1.715987 1_555
O9 Ta1 1.895877 1_655
O10 S4 1.481516 1_555
O10 Y1 2.323307 1_555
O11 S5 1.475449 1_555
O11 Ta1 2.367585 1_645
O12 S4 1.470348 1_555
O12 Ta2 2.098884 1_555
O13 S5 1.466241 1_565
O13 Y2 2.275482 1_665
O14 Si3 1.596224 1_555
O14 Y2 2.049818 1_555
O15 Si4 1.626292 1_555
O15 Ta2 1.896325 1_555
O16 Si5 1.589893 1_555
O16 Y2 2.048089 1_665
O17 S3 1.459350 1_555
O17 Ta2 2.159233 1_565
O18 S0 1.456008 1_555
O18 Y3 2.287915 1_565
O19 S1 1.461674 1_555
O19 Ta3 2.169978 1_665
O20 S2 1.456128 1_555
O20 Ta3 2.171499 1_655
O21 Si2 1.579925 1_555
O21 Y3 2.071115 1_555
O22 Si0 1.622697 1_565
O22 Ta3 1.904590 1_565
O23 Si1 1.584136 1_565
O23 Y3 2.069128 1_565
O24 Si6 1.646566 1_555
O24 Ta4 1.962593 1_555
O25 S6 1.488843 1_555
O25 Ta5 2.295224 1_555
O26 S7 1.482498 1_555
O26 Ta4 2.245879 1_555
O27 Si7 1.658981 1_555
O27 Ta5 1.952880 1_555
O28 Si8 1.690555 1_555
O28 Ta4 1.877296 1_555
O29 S8 1.485505 1_555
O29 Ta5 2.290480 1_555
O30 S9 1.507295 1_555
O30 Ta6 2.230963 1_555
O31 Si9 1.672354 1_555
O31 Ta7 1.922124 1_555
O32 S10 1.532736 1_555
O32 Ta6 2.078116 1_555
O33 Si10 1.708856 1_555
O33 Ta7 1.864431 1_555
O34 Si11 1.702848 1_555
O34 Ta6 1.914134 1_555
O35 S11 1.501435 1_555
O35 Ta7 2.164871 1_555
O36 Si11 1.571065 1_555
O36 Y4 2.130409 1_554
O37 S11 1.458048 1_555
O37 Y5 2.281322 1_554
O38 S9 1.450609 1_555
O38 Y4 2.320824 1_554
O39 Si9 1.582403 1_555
O39 Y5 2.082017 1_554
O40 S10 1.450210 1_555
O40 Y4 2.269984 1_554
O41 Si10 1.588668 1_555
O41 Y5 2.093378 1_554
O42 S7 1.462964 1_555
O42 Y6 2.265072 1_555
O43 Si7 1.577796 1_555
O43 Y7 2.125487 1_555
O44 Si8 1.593636 1_555
O44 Y6 2.088800 1_555
O45 S8 1.464744 1_555
O45 Y7 2.236975 1_555
O46 Si6 1.584064 1_555
O46 Y6 2.082767 1_555
O47 S6 1.467344 1_555
O47 Y7 2.243752 1_555
O48 S12 1.514449 1_555
O48 Ta8 2.125249 1_556
O49 S13 1.537354 1_555
O49 Ta9 2.066013 1_556
O50 S14 1.528103 1_555
O50 Ta8 2.131015 1_556
O51 Si12 1.726205 1_555
O51 Ta9 1.878332 1_556
O52 Si13 1.697616 1_555
O52 Ta8 1.924922 1_556
O53 S15 1.535658 1_555
O53 Ta9 2.016067 1_556
O54 S16 1.523943 1_555
O54 Ta10 2.116625 1_555
O55 S17 1.522685 1_555
O55 Ta11 2.084620 1_555
O56 S18 1.527591 1_555
O56 Ta10 2.028496 1_555
O57 S19 1.489051 1_555
O57 Ta11 2.326548 1_555
O58 Si14 1.721489 1_555
O58 Ta10 1.901168 1_555
O59 S20 1.534517 1_555
O59 Ta11 2.091634 1_555
O60 Si14 1.608630 1_555
O60 Y8 2.074208 1_555
O61 S20 1.448084 1_555
O61 Y9 2.327851 1_555
O62 S16 1.459445 1_555
O62 Y8 2.325123 1_555
O63 S17 1.449531 1_555
O63 Y9 2.301310 1_555
O64 S18 1.453570 1_555
O64 Y8 2.425946 1_555
O65 S19 1.450579 1_555
O65 Y9 2.324364 1_555
O66 S14 1.441369 1_555
O66 Y10 2.353106 1_555
O67 Si12 1.609382 1_555
O67 Y11 2.060638 1_555
O68 Si13 1.573179 1_555
O68 Y10 2.119415 1_555
O69 S15 1.450758 1_555
O69 Y11 2.433200 1_555
O70 S12 1.446090 1_555
O70 Y10 2.349473 1_555
O71 S13 1.458467 1_555
O71 Y11 2.314257 1_555
O72 Si14 1.636708 1_555
O72 Y0 2.153052 1_555
O73 S20 1.491693 1_555
O73 Ta0 2.281514 1_565
O74 S16 1.506596 1_555
O74 Ta0 2.204077 1_565
O75 S17 1.477672 1_555
O75 Y0 2.515507 1_655
O76 S18 1.485937 1_555
O76 Y0 2.424456 1_545
O77 S19 1.540225 1_555
O77 Ta0 2.045807 1_555
O78 S14 1.493327 1_555
O78 Ta1 2.237869 1_545
O79 Si12 1.637432 1_555
O79 Y1 2.144881 1_555
O80 Si13 1.716107 1_555
O80 Ta1 1.845232 1_555
O81 S15 1.483432 1_555
O81 Y1 2.441677 1_565
O82 S12 1.492603 1_555
O82 Y1 2.432242 1_565
O83 S13 1.485375 1_555
O83 Ta1 2.253925 1_655
O84 Si6 1.629153 1_555
O84 Ta2 1.888157 1_555
O85 S6 1.470951 1_555
O85 Y2 2.364667 1_655
O86 S7 1.473486 1_565
O86 Y2 2.346813 1_565
O87 Si7 1.628530 1_565
O87 Ta2 1.901879 1_565
O88 Si8 1.617855 1_555
O88 Ta2 1.939065 1_565
O89 S8 1.467843 1_555
O89 Y2 2.401780 1_665
O90 S9 1.474980 1_555
O90 Y3 2.334637 1_565
O91 Si9 1.634172 1_555
O91 Ta3 1.881309 1_665
O92 S10 1.469031 1_565
O92 Y3 2.331791 1_565
O93 Si10 1.618290 1_555
O93 Ta3 1.934596 1_655
O94 Si11 1.657079 1_555
O94 Ta3 1.877601 1_555
O95 S11 1.469808 1_555
O95 Y3 2.305252 1_555
O96 S4 1.496567 1_555
O96 Ta4 2.111249 1_555
O97 S5 1.554131 1_555
O97 Ta5 2.041372 1_555
O98 Si3 1.690255 1_555
O98 Ta4 1.919896 1_555
O99 Si4 1.696919 1_555
O99 Ta5 1.830192 1_555
O100 S3 1.540294 1_555
O100 Ta4 2.015961 1_555
O101 Si5 1.686255 1_555
O101 Ta5 1.911328 1_555
O102 S0 1.514144 1_555
O102 Ta6 2.225545 1_555
O103 S1 1.496361 1_555
O103 Ta7 2.154247 1_555
O104 Si2 1.657285 1_555
O104 Ta6 1.968715 1_555
O105 S2 1.539912 1_555
O105 Ta7 2.057057 1_555
O106 Si0 1.692534 1_555
O106 Ta6 1.849071 1_555
O107 Si1 1.667638 1_555
O107 Ta7 1.967276 1_555
O108 S12 1.474948 1_555
O108 Y4 2.256748 1_555
O109 S13 1.478186 1_555
O109 Y5 2.438636 1_555
O110 Si12 1.603437 1_555
O110 Y4 2.186463 1_555
O111 S14 1.496067 1_655
O111 Y5 2.262569 1_555
O112 Si13 1.598636 1_545
O112 Y4 2.115896 1_555
O113 S15 1.481046 1_545
O113 Y5 2.368214 1_555
O114 S16 1.474526 1_545
O114 Y6 2.455873 1_555
O115 S17 1.478206 1_545
O115 Y7 2.275820 1_555
O116 S18 1.479712 1_555
O116 Y6 2.363491 1_555
O117 S19 1.471661 1_555
O117 Y7 2.301493 1_555
O118 S20 1.480793 1_555
O118 Y6 2.287271 1_555
O119 Si14 1.626365 1_655
O119 Y7 2.163855 1_555
O120 Si11 1.647107 1_555
O120 Ta8 1.943707 1_555
O121 S11 1.505811 1_555
O121 Ta9 2.077235 1_555
O122 Si9 1.657652 1_455
O122 Ta8 1.883130 1_555
O123 S9 1.515828 1_555
O123 Ta9 2.096918 1_555
O124 S10 1.490847 1_565
O124 Ta8 2.172759 1_555
O125 Si10 1.644665 1_565
O125 Ta9 1.931728 1_555
O126 S7 1.518599 1_565
O126 Ta10 2.036107 1_555
O127 Si7 1.697727 1_565
O127 Ta11 1.844525 1_555
O128 Si8 1.656511 1_555
O128 Ta10 1.918050 1_555
O129 S8 1.526988 1_555
O129 Ta11 2.040198 1_555
O130 S6 1.517314 1_455
O130 Ta10 2.069058 1_555
O131 Si6 1.685799 1_555
O131 Ta11 1.851378 1_555
O132 Si0 1.595255 1_565
O132 Y8 2.101904 1_555
O133 Si1 1.577516 1_565
O133 Y9 2.069508 1_555
O134 S0 1.449412 1_555
O134 Y8 2.347488 1_555
O135 S1 1.466273 1_555
O135 Y9 2.257637 1_555
O136 S2 1.465290 1_455
O136 Y8 2.293819 1_555
O137 Si2 1.575659 1_555
O137 Y9 2.071575 1_555
O138 Si3 1.566464 1_555
O138 Y10 2.126578 1_555
O139 Si4 1.592097 1_555
O139 Y11 2.111105 1_555
O140 Si5 1.570631 1_455
O140 Y10 2.100453 1_555
O141 S3 1.463892 1_555
O141 Y11 2.303344 1_555
O142 S4 1.455171 1_565
O142 Y10 2.302156 1_555
O143 S5 1.453139 1_565
O143 Y11 2.337994 1_555
