# generated using pymatgen
data_Cs(BH)6
_symmetry_space_group_name_H-M   'P 1'
_cell_length_a   7.91915456
_cell_length_b   7.91915456
_cell_length_c   7.91915456
_cell_angle_alpha   60.00000000
_cell_angle_beta   60.00000000
_cell_angle_gamma   60.00000000
_symmetry_Int_Tables_number   1
_chemical_formula_structural   Cs(BH)6
_chemical_formula_sum   'Cs2 B12 H12'
_cell_volume   351.17327666
_cell_formula_units_Z   2
loop_
 _symmetry_equiv_pos_site_id
 _symmetry_equiv_pos_as_xyz
  1  'x, y, z'
loop_
 _atom_site_type_symbol
 _atom_site_label
 _atom_site_symmetry_multiplicity
 _atom_site_fract_x
 _atom_site_fract_y
 _atom_site_fract_z
 _atom_site_occupancy
  Cs  Cs0  1  0.75000000  0.75000000  0.75000000  1
  Cs  Cs1  1  0.25000000  0.25000000  0.25000000  1
  B  B0  1  0.95071859  0.79250104  0.04928141  1
  B  B1  1  0.79250104  0.95071859  0.20749896  1
  B  B2  1  0.79250104  0.20749896  0.04928141  1
  B  B3  1  0.79250104  0.04928141  0.95071859  1
  B  B4  1  0.20749896  0.79250104  0.95071859  1
  B  B5  1  0.04928141  0.95071859  0.79250104  1
  B  B6  1  0.04928141  0.79250104  0.20749896  1
  B  B7  1  0.20749896  0.95071859  0.04928141  1
  B  B8  1  0.95071859  0.04928141  0.20749896  1
  B  B9  1  0.04928141  0.20749896  0.95071859  1
  B  B10  1  0.20749896  0.04928141  0.79250104  1
  B  B11  1  0.95071859  0.20749896  0.79250104  1
  H  H0  1  0.64559711  0.91425487  0.35440289  1
  H  H1  1  0.91425487  0.64559711  0.08574513  1
  H  H2  1  0.64559711  0.35440289  0.08574513  1
  H  H3  1  0.64559711  0.08574513  0.91425487  1
  H  H4  1  0.35440289  0.64559711  0.91425487  1
  H  H5  1  0.08574513  0.91425487  0.64559711  1
  H  H6  1  0.08574513  0.64559711  0.35440289  1
  H  H7  1  0.35440289  0.91425487  0.08574513  1
  H  H8  1  0.91425487  0.08574513  0.35440289  1
  H  H9  1  0.08574513  0.35440289  0.91425487  1
  H  H10  1  0.35440289  0.08574513  0.64559711  1
  H  H11  1  0.91425487  0.35440289  0.64559711  1
loop_
_geom_bond_atom_site_label_1
_geom_bond_atom_site_label_2
_geom_bond_distance
_geom_bond_site_symmetry_2
Cs0 H4 3.103164 1_555
Cs0 H6 3.103164 1_655
Cs0 H0 3.103164 1_555
Cs0 H11 3.103164 1_555
Cs0 H8 3.103164 1_565
Cs0 H10 3.103164 1_565
Cs0 H2 3.103164 1_556
Cs0 H9 3.103164 1_655
Cs0 H7 3.103164 1_556
Cs0 H1 3.103164 1_556
Cs0 H3 3.103164 1_565
Cs0 H5 3.103164 1_655
Cs1 H7 3.103164 1_545
Cs1 H9 3.103164 1_554
Cs1 H8 3.103164 1_455
Cs1 H11 3.103164 1_455
Cs1 H10 3.103164 1_555
Cs1 H0 3.103164 1_545
Cs1 H5 3.103164 1_545
Cs1 H4 3.103164 1_554
Cs1 H3 3.103164 1_554
Cs1 H2 3.103164 1_555
Cs1 H6 3.103164 1_555
Cs1 H1 3.103164 1_455
B0 H1 1.198657 1_555
B1 H0 1.198657 1_555
B2 H2 1.198657 1_555
B3 H3 1.198657 1_555
B4 H4 1.198657 1_555
B5 H5 1.198657 1_555
B6 H6 1.198657 1_555
B7 H7 1.198657 1_555
B8 H8 1.198657 1_555
B9 H9 1.198657 1_555
B10 H10 1.198657 1_555
B11 H11 1.198657 1_555
