# generated using pymatgen
data_NaMg2Ti2PS5O24
_symmetry_space_group_name_H-M   'P 1'
_cell_length_a   8.62112495
_cell_length_b   8.63671133
_cell_length_c   22.40297969
_cell_angle_alpha   89.79470693
_cell_angle_beta   89.91227941
_cell_angle_gamma   120.09319653
_symmetry_Int_Tables_number   1
_chemical_formula_structural   NaMg2Ti2PS5O24
_chemical_formula_sum   'Na3 Mg6 Ti6 P3 S15 O72'
_cell_volume   1443.22533363
_cell_formula_units_Z   3
loop_
 _symmetry_equiv_pos_site_id
 _symmetry_equiv_pos_as_xyz
  1  'x, y, z'
loop_
 _atom_site_type_symbol
 _atom_site_label
 _atom_site_symmetry_multiplicity
 _atom_site_fract_x
 _atom_site_fract_y
 _atom_site_fract_z
 _atom_site_occupancy
  Na  Na0  1  0.66695820  0.33211273  0.82827384  1
  Na  Na1  1  0.66285287  0.33403898  0.33182795  1
  Na  Na2  1  0.33498385  0.66712032  0.16364121  1
  Mg  Mg0  1  0.99864330  0.00170123  0.85500278  1
  Mg  Mg1  1  0.66621399  0.33167077  0.68427447  1
  Mg  Mg2  1  0.66214052  0.33298727  0.18851726  1
  Mg  Mg3  1  0.66608874  0.33406537  0.48471161  1
  Mg  Mg4  1  0.33356130  0.66479076  0.01785007  1
  Mg  Mg5  1  0.33357309  0.66671747  0.52432657  1
  Ti  Ti0  1  0.00321142  0.99288699  0.35454389  1
  Ti  Ti1  1  0.99692936  0.99958755  0.64141281  1
  Ti  Ti2  1  0.99902184  0.99041395  0.14300187  1
  Ti  Ti3  1  0.67091685  0.33168153  0.97473098  1
  Ti  Ti4  1  0.34212467  0.67415580  0.31179442  1
  Ti  Ti5  1  0.31963942  0.65595178  0.80957088  1
  P  P0  1  0.28698665  0.99954972  0.25011781  1
  P  P1  1  0.71598224  0.71360506  0.25036411  1
  P  P2  1  0.04908292  0.37654159  0.91825090  1
  S  S0  1  0.00126761  0.28670886  0.25045766  1
  S  S1  1  0.28983464  0.28673229  0.75063684  1
  S  S2  1  0.99732465  0.71189842  0.75097665  1
  S  S3  1  0.70951431  0.99902545  0.75113089  1
  S  S4  1  0.95747579  0.33411359  0.58388975  1
  S  S5  1  0.37538328  0.04183138  0.58414078  1
  S  S6  1  0.66593144  0.62349784  0.58404299  1
  S  S7  1  0.95580429  0.61914893  0.08426841  1
  S  S8  1  0.66648568  0.04449447  0.08461351  1
  S  S9  1  0.37793643  0.33474992  0.08447403  1
  S  S10  1  0.62165056  0.66712036  0.91683082  1
  S  S11  1  0.33158206  0.95338410  0.91675403  1
  S  S12  1  0.62476285  0.95816675  0.41655242  1
  S  S13  1  0.33225921  0.37751497  0.41583600  1
  S  S14  1  0.04434628  0.66387606  0.41624794  1
  O  O0  1  0.19209582  0.02113917  0.30601070  1
  O  O1  1  0.82937085  0.81111360  0.30608219  1
  O  O2  1  0.97743225  0.17846567  0.30476437  1
  O  O3  1  0.21071772  0.18023520  0.80407720  1
  O  O4  1  0.97205873  0.79099378  0.80449024  1
  O  O5  1  0.81874787  0.02734842  0.80373193  1
  O  O6  1  0.79246287  0.96996689  0.69668818  1
  O  O7  1  0.17835381  0.20903471  0.69674500  1
  O  O8  1  0.02953606  0.82312000  0.69684640  1
  O  O9  1  0.79999961  0.83364769  0.19406381  1
  O  O10  1  0.03272703  0.20768930  0.19631113  1
  O  O11  1  0.16644017  0.96839234  0.19451770  1
  O  O12  1  0.87650718  0.36011409  0.63719373  1
  O  O13  1  0.48339913  0.12278366  0.63713676  1
  O  O14  1  0.63956159  0.51598504  0.63739486  1
  O  O15  1  0.87529157  0.51340736  0.13788788  1
  O  O16  1  0.63878821  0.12456893  0.13766520  1
  O  O17  1  0.48465033  0.36080889  0.13784808  1
  O  O18  1  0.45863088  0.30346782  0.03037870  1
  O  O19  1  0.84399332  0.53931096  0.03019105  1
  O  O20  1  0.69588785  0.15751669  0.02990505  1
  O  O21  1  0.44459961  0.15397048  0.53032005  1
  O  O22  1  0.70962400  0.55557028  0.53042806  1
  O  O23  1  0.84573735  0.29102099  0.53033527  1
  O  O24  1  0.54491886  0.69284157  0.97100516  1
  O  O25  1  0.15329736  0.46311749  0.97327715  1
  O  O26  1  0.31131719  0.85353127  0.97128004  1
  O  O27  1  0.54574502  0.84731472  0.46879202  1
  O  O28  1  0.30125552  0.45427921  0.46854860  1
  O  O29  1  0.15255278  0.69686634  0.46900478  1
  O  O30  1  0.13354038  0.64266886  0.36145727  1
  O  O31  1  0.50838658  0.86693771  0.36147610  1
  O  O32  1  0.35710033  0.49341005  0.36110674  1
  O  O33  1  0.13463622  0.50424766  0.86119633  1
  O  O34  1  0.37269665  0.87731435  0.86317485  1
  O  O35  1  0.50484678  0.62963118  0.86344810  1
  O  O36  1  0.02654620  0.82798048  0.40646766  1
  O  O37  1  0.80288281  0.97555593  0.40506584  1
  O  O38  1  0.16940192  0.19921220  0.40458116  1
  O  O39  1  0.01342843  0.19272532  0.90581357  1
  O  O40  1  0.18063778  0.97967900  0.90752426  1
  O  O41  1  0.80112513  0.81491993  0.90725032  1
  O  O42  1  0.97596002  0.16792213  0.59466071  1
  O  O43  1  0.19093423  0.02395050  0.59532795  1
  O  O44  1  0.83267973  0.80824066  0.59471934  1
  O  O45  1  0.96827240  0.80091634  0.09078155  1
  O  O46  1  0.83370316  0.03208794  0.09158582  1
  O  O47  1  0.19567581  0.16833193  0.09259929  1
  O  O48  1  0.68384286  0.15432424  0.74314691  1
  O  O49  1  0.47255336  0.31694861  0.74312724  1
  O  O50  1  0.84531773  0.52907191  0.74383108  1
  O  O51  1  0.69637330  0.53083780  0.24657599  1
  O  O52  1  0.84352884  0.30677454  0.24523006  1
  O  O53  1  0.47173126  0.16105164  0.24631582  1
  O  O54  1  0.63436725  0.49601402  0.92425185  1
  O  O55  1  0.85614361  0.36551465  0.92549551  1
  O  O56  1  0.50133119  0.13972978  0.92356029  1
  O  O57  1  0.64136081  0.13532699  0.41918401  1
  O  O58  1  0.49161917  0.35765983  0.41868641  1
  O  O59  1  0.86404754  0.50648398  0.41948563  1
  O  O60  1  0.35188680  0.48963171  0.07779230  1
  O  O61  1  0.13900639  0.65149289  0.07778388  1
  O  O62  1  0.51202380  0.86352840  0.07681915  1
  O  O63  1  0.34629284  0.86235938  0.57580958  1
  O  O64  1  0.51581655  0.65336175  0.57585961  1
  O  O65  1  0.13780308  0.48430702  0.57567293  1
  O  O66  1  0.29602726  0.82416260  0.25858481  1
  O  O67  1  0.52803711  0.69958084  0.25861998  1
  O  O68  1  0.16707584  0.46756863  0.25712563  1
  O  O69  1  0.30567023  0.46967658  0.75856363  1
  O  O70  1  0.16692355  0.69948154  0.75821253  1
  O  O71  1  0.52926122  0.83324669  0.75937391  1
loop_
_geom_bond_atom_site_label_1
_geom_bond_atom_site_label_2
_geom_bond_distance
_geom_bond_site_symmetry_2
Na0 O50 2.486332 1_555
Na0 O49 2.501250 1_555
Na0 O48 2.502054 1_555
Na0 O56 2.634888 1_555
Na0 O55 2.651569 1_555
Na0 O54 2.669255 1_555
Na1 O51 2.470357 1_555
Na1 O53 2.485672 1_555
Na1 O58 2.510658 1_555
Na1 O57 2.542766 1_555
Na1 O59 2.554219 1_555
Na1 O52 2.570466 1_555
Na2 O60 2.512832 1_555
Na2 O61 2.521034 1_555
Na2 O62 2.522154 1_555
Na2 O68 2.629637 1_555
Na2 O67 2.631232 1_555
Na2 O66 2.636651 1_555
Mg0 O39 1.958807 1_655
Mg0 O41 2.024278 1_545
Mg0 O5 2.030227 1_555
Mg0 O3 2.043494 1_655
Mg0 O40 2.045902 1_645
Mg0 O4 2.059649 1_545
Mg1 O12 2.001336 1_555
Mg1 O13 2.005321 1_555
Mg1 O14 2.011321 1_555
Mg1 O49 2.078748 1_555
Mg1 O48 2.080457 1_555
Mg1 O50 2.110393 1_555
Mg2 O17 2.014886 1_555
Mg2 O53 2.027721 1_555
Mg2 O15 2.049603 1_555
Mg2 O51 2.051875 1_555
Mg2 O16 2.056831 1_555
Mg2 O52 2.114223 1_555
Mg3 O21 2.028226 1_555
Mg3 O22 2.035890 1_555
Mg3 O23 2.039884 1_555
Mg3 O59 2.166467 1_555
Mg3 O57 2.190609 1_555
Mg3 O58 2.191770 1_555
Mg4 O25 1.936194 1_554
Mg4 O24 2.007461 1_554
Mg4 O26 2.020988 1_554
Mg4 O60 2.083896 1_555
Mg4 O61 2.104310 1_555
Mg4 O62 2.105414 1_555
Mg5 O65 1.992073 1_555
Mg5 O64 2.000249 1_555
Mg5 O63 2.006472 1_555
Mg5 O27 2.108225 1_555
Mg5 O29 2.109604 1_555
Mg5 O28 2.123757 1_555
O0 P0 1.556736 1_545
O0 Ti0 1.867519 1_545
O1 P1 1.551982 1_555
O1 Ti0 1.883403 1_655
O2 S0 1.481496 1_655
O2 Ti0 2.051142 1_645
O3 S1 1.450880 1_555
O4 S2 1.451091 1_555
O5 S3 1.452514 1_545
O6 S3 1.497159 1_555
O6 Ti1 2.060330 1_555
O7 S1 1.481307 1_555
O7 Ti1 2.107116 1_445
O8 S2 1.481065 1_455
O8 Ti1 2.088374 1_455
O9 P1 1.557294 1_555
O9 Ti2 1.933643 1_555
O10 S0 1.483691 1_555
O10 Ti2 2.121905 1_445
O11 P0 1.558815 1_555
O11 Ti2 1.931364 1_455
O12 S4 1.456120 1_555
O13 S5 1.456718 1_555
O14 S6 1.456717 1_555
O15 S7 1.453512 1_555
O16 S8 1.455505 1_555
O17 S9 1.457562 1_555
O18 S9 1.487919 1_555
O18 Ti3 2.122881 1_554
O19 S7 1.488413 1_555
O19 Ti3 2.079478 1_554
O20 S8 1.503870 1_555
O20 Ti3 2.036928 1_554
O21 S5 1.468939 1_555
O22 S6 1.467674 1_555
O23 S4 1.467366 1_555
O24 S10 1.451474 1_555
O25 P2 1.490736 1_555
O26 S11 1.451597 1_555
O27 S12 1.444237 1_555
O28 S13 1.444964 1_555
O29 S14 1.444842 1_555
O30 S14 1.507146 1_555
O30 Ti4 2.011658 1_555
O31 S12 1.538791 1_555
O31 Ti4 1.921058 1_555
O32 S13 1.525294 1_555
O32 Ti4 1.965754 1_555
O33 P2 1.601722 1_555
O33 Ti5 1.867092 1_555
O34 S11 1.495311 1_555
O34 Ti5 2.108952 1_555
O35 S10 1.492849 1_555
O35 Ti5 2.103785 1_555
O36 S14 1.515371 1_555
O36 Ti0 1.923089 1_555
O37 S12 1.487974 1_555
O37 Ti0 2.004934 1_655
O38 S13 1.497311 1_555
O38 Ti0 1.985881 1_545
O39 P2 1.485450 1_555
O40 S11 1.443810 1_555
O41 S10 1.444278 1_555
O42 S4 1.539757 1_555
O42 Ti1 1.869929 1_545
O43 S5 1.538670 1_555
O43 Ti1 1.883568 1_445
O44 S6 1.540529 1_555
O44 Ti1 1.871015 1_555
O45 S7 1.526373 1_555
O45 Ti2 1.922780 1_555
O46 S8 1.506510 1_555
O46 Ti2 2.001031 1_545
O47 S9 1.516707 1_555
O47 Ti2 1.969709 1_445
O48 S3 1.475149 1_545
O49 S1 1.471196 1_555
O50 S2 1.470929 1_555
O51 P1 1.503620 1_555
O52 S0 1.459354 1_655
O53 P0 1.503483 1_545
O54 S10 1.544120 1_555
O54 Ti3 1.957202 1_555
O55 P2 1.625534 1_655
O55 Ti3 1.837493 1_555
O56 S11 1.547783 1_545
O56 Ti3 1.946337 1_555
O57 S12 1.464996 1_545
O58 S13 1.468819 1_555
O59 S14 1.466028 1_655
O60 S9 1.470417 1_555
O61 S7 1.466367 1_455
O62 S8 1.470404 1_565
O63 S5 1.453535 1_565
O64 S6 1.452622 1_555
O65 S4 1.452075 1_455
O66 P0 1.566192 1_555
O66 Ti4 1.940135 1_555
O67 P1 1.573646 1_555
O67 Ti4 1.917174 1_555
O68 S0 1.506249 1_555
O68 Ti4 2.069309 1_555
O69 S1 1.527240 1_555
O69 Ti5 1.930765 1_555
O70 S2 1.527565 1_455
O70 Ti5 1.922621 1_555
O71 S3 1.504980 1_555
O71 Ti5 2.020309 1_555
