# generated using pymatgen
data_Na4CaGa(PO4)3
_symmetry_space_group_name_H-M   'P 1'
_cell_length_a   9.22221426
_cell_length_b   9.22221392
_cell_length_c   21.92073613
_cell_angle_alpha   90.00000000
_cell_angle_beta   90.00000000
_cell_angle_gamma   120.00000121
_symmetry_Int_Tables_number   1
_chemical_formula_structural   Na4CaGa(PO4)3
_chemical_formula_sum   'Na24 Ca6 Ga6 P18 O72'
_cell_volume   1614.56733125
_cell_formula_units_Z   6
loop_
 _symmetry_equiv_pos_site_id
 _symmetry_equiv_pos_as_xyz
  1  'x, y, z'
loop_
 _atom_site_type_symbol
 _atom_site_label
 _atom_site_symmetry_multiplicity
 _atom_site_fract_x
 _atom_site_fract_y
 _atom_site_fract_z
 _atom_site_occupancy
  Na  Na0  1  0.63723218  0.00452654  0.24853338  1
  Na  Na1  1  0.36729437  0.36276782  0.24853338  1
  Na  Na2  1  0.99547346  0.63270563  0.24853338  1
  Na  Na3  1  0.63723218  0.63270563  0.74853338  1
  Na  Na4  1  0.99547346  0.36276782  0.74853338  1
  Na  Na5  1  0.36729437  0.00452654  0.74853338  1
  Na  Na6  1  0.30389918  0.33785954  0.58186638  1
  Na  Na7  1  0.03396137  0.69610082  0.58186638  1
  Na  Na8  1  0.66214046  0.96603863  0.58186638  1
  Na  Na9  1  0.30389918  0.96603863  0.08186638  1
  Na  Na10  1  0.66214046  0.69610082  0.08186638  1
  Na  Na11  1  0.03396137  0.33785954  0.08186638  1
  Na  Na12  1  0.97056518  0.67119354  0.91520038  1
  Na  Na13  1  0.70062737  0.02943482  0.91520038  1
  Na  Na14  1  0.32880646  0.29937263  0.91520038  1
  Na  Na15  1  0.97056518  0.29937263  0.41520038  1
  Na  Na16  1  0.32880646  0.02943482  0.41520038  1
  Na  Na17  1  0.70062737  0.67119354  0.41520038  1
  Na  Na18  1  -0.00000000  -0.00000000  0.50137369  1
  Na  Na19  1  -0.00000000  -0.00000000  0.00137369  1
  Na  Na20  1  0.66666700  0.33333300  0.83470669  1
  Na  Na21  1  0.66666700  0.33333300  0.33470669  1
  Na  Na22  1  0.33333300  0.66666700  0.16804069  1
  Na  Na23  1  0.33333300  0.66666700  0.66804069  1
  Ca  Ca0  1  -0.00000000  -0.00000000  0.34897605  1
  Ca  Ca1  1  -0.00000000  -0.00000000  0.84897605  1
  Ca  Ca2  1  0.66666700  0.33333300  0.68230905  1
  Ca  Ca3  1  0.66666700  0.33333300  0.18230905  1
  Ca  Ca4  1  0.33333300  0.66666700  0.01564305  1
  Ca  Ca5  1  0.33333300  0.66666700  0.51564305  1
  Ga  Ga0  1  -0.00000000  -0.00000000  0.64972091  1
  Ga  Ga1  1  -0.00000000  -0.00000000  0.14972091  1
  Ga  Ga2  1  0.66666700  0.33333300  0.98305391  1
  Ga  Ga3  1  0.66666700  0.33333300  0.48305391  1
  Ga  Ga4  1  0.33333300  0.66666700  0.31638791  1
  Ga  Ga5  1  0.33333300  0.66666700  0.81638791  1
  P  P0  1  0.29268687  0.98510282  0.25047626  1
  P  P1  1  0.69241594  0.70731313  0.25047626  1
  P  P2  1  0.01489718  0.30758406  0.25047626  1
  P  P3  1  0.29268687  0.30758406  0.75047626  1
  P  P4  1  0.01489718  0.70731313  0.75047626  1
  P  P5  1  0.69241594  0.98510282  0.75047626  1
  P  P6  1  0.95935387  0.31843582  0.58380926  1
  P  P7  1  0.35908294  0.04064613  0.58380926  1
  P  P8  1  0.68156418  0.64091706  0.58380926  1
  P  P9  1  0.95935387  0.64091706  0.08380926  1
  P  P10  1  0.68156418  0.04064613  0.08380926  1
  P  P11  1  0.35908294  0.31843582  0.08380926  1
  P  P12  1  0.62601987  0.65176982  0.91714326  1
  P  P13  1  0.02574894  0.37398013  0.91714326  1
  P  P14  1  0.34823018  0.97425106  0.91714326  1
  P  P15  1  0.62601987  0.97425106  0.41714326  1
  P  P16  1  0.34823018  0.37398013  0.41714326  1
  P  P17  1  0.02574894  0.65176982  0.41714326  1
  O  O0  1  0.22126191  0.01173794  0.30912459  1
  O  O1  1  0.79047603  0.77873809  0.30912459  1
  O  O2  1  0.98826206  0.20952397  0.30912459  1
  O  O3  1  0.22126191  0.20952397  0.80912459  1
  O  O4  1  0.98826206  0.77873809  0.80912459  1
  O  O5  1  0.79047603  0.01173794  0.80912459  1
  O  O6  1  0.78653234  0.96402048  0.69375952  1
  O  O7  1  0.17748814  0.21346766  0.69375952  1
  O  O8  1  0.03597952  0.82251186  0.69375952  1
  O  O9  1  0.78653234  0.82251186  0.19375952  1
  O  O10  1  0.03597952  0.21346766  0.19375952  1
  O  O11  1  0.17748814  0.96402048  0.19375952  1
  O  O12  1  0.88792891  0.34507094  0.64245759  1
  O  O13  1  0.45714303  0.11207109  0.64245759  1
  O  O14  1  0.65492906  0.54285697  0.64245759  1
  O  O15  1  0.88792891  0.54285697  0.14245759  1
  O  O16  1  0.65492906  0.11207109  0.14245759  1
  O  O17  1  0.45714303  0.34507094  0.14245759  1
  O  O18  1  0.45319934  0.29735348  0.02709252  1
  O  O19  1  0.84415514  0.54680066  0.02709252  1
  O  O20  1  0.70264652  0.15584486  0.02709252  1
  O  O21  1  0.45319934  0.15584486  0.52709252  1
  O  O22  1  0.70264652  0.54680066  0.52709252  1
  O  O23  1  0.84415514  0.29735348  0.52709252  1
  O  O24  1  0.55459491  0.67840494  0.97579159  1
  O  O25  1  0.12380903  0.44540509  0.97579159  1
  O  O26  1  0.32159506  0.87619097  0.97579159  1
  O  O27  1  0.55459491  0.87619097  0.47579159  1
  O  O28  1  0.32159506  0.44540509  0.47579159  1
  O  O29  1  0.12380903  0.67840494  0.47579159  1
  O  O30  1  0.11986534  0.63068748  0.36042652  1
  O  O31  1  0.51082114  0.88013466  0.36042652  1
  O  O32  1  0.36931252  0.48917886  0.36042652  1
  O  O33  1  0.11986534  0.48917886  0.86042652  1
  O  O34  1  0.36931252  0.88013466  0.86042652  1
  O  O35  1  0.51082114  0.63068748  0.86042652  1
  O  O36  1  0.99595343  0.80119030  0.41146125  1
  O  O37  1  0.80523687  0.00404657  0.41146125  1
  O  O38  1  0.19880970  0.19476313  0.41146125  1
  O  O39  1  0.99595343  0.19476313  0.91146125  1
  O  O40  1  0.19880970  0.00404657  0.91146125  1
  O  O41  1  0.80523687  0.80119030  0.91146125  1
  O  O42  1  0.96657148  0.15058008  0.58662145  1
  O  O43  1  0.18400860  0.03342852  0.58662145  1
  O  O44  1  0.84941992  0.81599140  0.58662145  1
  O  O45  1  0.96657148  0.81599140  0.08662145  1
  O  O46  1  0.84941992  0.03342852  0.08662145  1
  O  O47  1  0.18400860  0.15058008  0.08662145  1
  O  O48  1  0.66262043  0.13452330  0.74479425  1
  O  O49  1  0.47190387  0.33737957  0.74479425  1
  O  O50  1  0.86547670  0.52809613  0.74479425  1
  O  O51  1  0.66262043  0.52809613  0.24479425  1
  O  O52  1  0.86547670  0.33737957  0.24479425  1
  O  O53  1  0.47190387  0.13452330  0.24479425  1
  O  O54  1  0.63323848  0.48391308  0.91995445  1
  O  O55  1  0.85067560  0.36676152  0.91995445  1
  O  O56  1  0.51608692  0.14932440  0.91995445  1
  O  O57  1  0.63323848  0.14932440  0.41995445  1
  O  O58  1  0.51608692  0.36676152  0.41995445  1
  O  O59  1  0.85067560  0.48391308  0.41995445  1
  O  O60  1  0.32928643  0.46785730  0.07812825  1
  O  O61  1  0.13856987  0.67071357  0.07812825  1
  O  O62  1  0.53214270  0.86143013  0.07812825  1
  O  O63  1  0.32928643  0.86143013  0.57812825  1
  O  O64  1  0.53214270  0.67071357  0.57812825  1
  O  O65  1  0.13856987  0.46785730  0.57812825  1
  O  O66  1  0.29990448  0.81724708  0.25328845  1
  O  O67  1  0.51734160  0.70009552  0.25328845  1
  O  O68  1  0.18275292  0.48265840  0.25328845  1
  O  O69  1  0.29990448  0.48265840  0.75328845  1
  O  O70  1  0.18275292  0.70009552  0.75328845  1
  O  O71  1  0.51734160  0.81724708  0.75328845  1
loop_
_geom_bond_atom_site_label_1
_geom_bond_atom_site_label_2
_geom_bond_distance
_geom_bond_site_symmetry_2
Na0 O53 2.365705 1_555
Na0 O67 2.451814 1_545
Na0 O16 2.501053 1_555
Na0 O66 2.701601 1_545
Na0 O31 2.711795 1_545
Na0 O52 2.720066 1_555
Na0 O9 2.909683 1_545
Na1 O51 2.365712 1_555
Na1 O68 2.451823 1_555
Na1 O17 2.501056 1_555
Na1 O67 2.701602 1_555
Na1 O32 2.711797 1_555
Na1 O53 2.720072 1_555
Na1 O10 2.909683 1_555
Na2 O52 2.365713 1_555
Na2 O66 2.451815 1_655
Na2 O15 2.501054 1_555
Na2 O68 2.701594 1_655
Na2 O30 2.711793 1_655
Na2 O51 2.720064 1_555
Na2 O11 2.909683 1_655
Na3 O49 2.365712 1_555
Na3 O71 2.451823 1_555
Na3 O14 2.501056 1_555
Na3 O69 2.701602 1_555
Na3 O35 2.711797 1_555
Na3 O50 2.720072 1_555
Na3 O6 2.909683 1_555
Na4 O50 2.365705 1_555
Na4 O69 2.451814 1_655
Na4 O12 2.501053 1_555
Na4 O70 2.701601 1_655
Na4 O33 2.711795 1_655
Na4 O48 2.720066 1_555
Na4 O7 2.909683 1_655
Na5 O48 2.365713 1_555
Na5 O70 2.451815 1_545
Na5 O13 2.501054 1_555
Na5 O71 2.701594 1_545
Na5 O34 2.711793 1_545
Na5 O49 2.720064 1_555
Na5 O8 2.909683 1_545
Na6 O65 2.365720 1_555
Na6 O43 2.451814 1_555
Na6 O28 2.501037 1_555
Na6 O42 2.701601 1_455
Na6 O7 2.711795 1_555
Na6 O64 2.720070 1_555
Na6 O21 2.909683 1_555
Na7 O63 2.365704 1_555
Na7 O44 2.451823 1_455
Na7 O29 2.501030 1_555
Na7 O43 2.701602 1_565
Na7 O8 2.711797 1_555
Na7 O65 2.720056 1_555
Na7 O22 2.909683 1_455
Na8 O64 2.365703 1_555
Na8 O42 2.451815 1_565
Na8 O27 2.501035 1_555
Na8 O44 2.701594 1_555
Na8 O6 2.711793 1_555
Na8 O63 2.720074 1_555
Na8 O23 2.909683 1_565
Na9 O61 2.365704 1_555
Na9 O47 2.451823 1_565
Na9 O26 2.501030 1_554
Na9 O45 2.701602 1_455
Na9 O11 2.711797 1_555
Na9 O62 2.720056 1_555
Na9 O18 2.909683 1_565
Na10 O62 2.365720 1_555
Na10 O45 2.451814 1_555
Na10 O24 2.501037 1_554
Na10 O46 2.701601 1_565
Na10 O9 2.711795 1_555
Na10 O60 2.720070 1_555
Na10 O19 2.909683 1_555
Na11 O60 2.365703 1_555
Na11 O46 2.451815 1_455
Na11 O25 2.501035 1_554
Na11 O47 2.701594 1_555
Na11 O10 2.711793 1_555
Na11 O61 2.720074 1_555
Na11 O20 2.909683 1_455
Na12 O41 2.365705 1_555
Na12 O55 2.451823 1_555
Na12 O4 2.501053 1_555
Na12 O54 2.701594 1_555
Na12 O19 2.711775 1_556
Na12 O40 2.720066 1_665
Na12 O33 2.909683 1_655
Na13 O39 2.365712 1_555
Na13 O56 2.451806 1_555
Na13 O5 2.501056 1_555
Na13 O55 2.701592 1_555
Na13 O20 2.711772 1_556
Na13 O41 2.720072 1_545
Na13 O34 2.909683 1_545
Na14 O40 2.365713 1_555
Na14 O54 2.451821 1_555
Na14 O3 2.501054 1_555
Na14 O56 2.701609 1_555
Na14 O18 2.711779 1_556
Na14 O39 2.720064 1_455
Na14 O35 2.909683 1_555
Na15 O37 2.365712 1_555
Na15 O59 2.451806 1_555
Na15 O2 2.501056 1_555
Na15 O57 2.701592 1_555
Na15 O23 2.711772 1_555
Na15 O38 2.720072 1_655
Na15 O30 2.909683 1_655
Na16 O38 2.365705 1_555
Na16 O57 2.451823 1_555
Na16 O0 2.501053 1_555
Na16 O58 2.701593 1_555
Na16 O21 2.711775 1_555
Na16 O36 2.720066 1_445
Na16 O31 2.909683 1_545
Na17 O36 2.365713 1_555
Na17 O58 2.451821 1_555
Na17 O1 2.501054 1_555
Na17 O59 2.701609 1_555
Na17 O22 2.711779 1_555
Na17 O37 2.720064 1_565
Na17 O32 2.909683 1_555
Na18 O44 2.437950 1_445
Na18 O42 2.437950 1_455
Na18 O43 2.437950 1_555
Na18 O36 2.679403 1_445
Na18 O38 2.679403 1_555
Na18 O37 2.679403 1_455
Na19 O45 2.437950 1_445
Na19 O47 2.437950 1_555
Na19 O46 2.437950 1_455
Na19 O41 2.679403 1_444
Na19 O39 2.679403 1_454
Na19 O40 2.679403 1_554
Na20 O56 2.437950 1_555
Na20 O54 2.437950 1_555
Na20 O55 2.437950 1_555
Na20 O48 2.679403 1_555
Na20 O50 2.679403 1_555
Na20 O49 2.679403 1_555
Na21 O57 2.437950 1_555
Na21 O59 2.437950 1_555
Na21 O58 2.437950 1_555
Na21 O53 2.679403 1_555
Na21 O51 2.679403 1_555
Na21 O52 2.679403 1_555
Na22 O68 2.437950 1_555
Na22 O66 2.437950 1_555
Na22 O67 2.437950 1_555
Na22 O60 2.679403 1_555
Na22 O62 2.679403 1_555
Na22 O61 2.679403 1_555
Na23 O69 2.437950 1_555
Na23 O71 2.437950 1_555
Na23 O70 2.437950 1_555
Na23 O65 2.679403 1_555
Na23 O63 2.679403 1_555
Na23 O64 2.679403 1_555
Ca0 O1 2.172027 1_445
Ca0 O2 2.172027 1_455
Ca0 O0 2.172027 1_555
Ca0 O36 2.273918 1_445
Ca0 O38 2.273918 1_555
Ca0 O37 2.273918 1_455
Ca1 O4 2.172027 1_445
Ca1 O3 2.172027 1_555
Ca1 O5 2.172027 1_455
Ca1 O41 2.273918 1_445
Ca1 O39 2.273918 1_455
Ca1 O40 2.273918 1_555
Ca2 O13 2.172027 1_555
Ca2 O14 2.172027 1_555
Ca2 O12 2.172027 1_555
Ca2 O48 2.273918 1_555
Ca2 O50 2.273918 1_555
Ca2 O49 2.273918 1_555
Ca3 O16 2.172027 1_555
Ca3 O15 2.172027 1_555
Ca3 O17 2.172027 1_555
Ca3 O53 2.273918 1_555
Ca3 O51 2.273918 1_555
Ca3 O52 2.273918 1_555
Ca4 O25 2.172027 1_554
Ca4 O26 2.172027 1_554
Ca4 O24 2.172027 1_554
Ca4 O60 2.273918 1_555
Ca4 O62 2.273918 1_555
Ca4 O61 2.273918 1_555
Ca5 O28 2.172027 1_555
Ca5 O27 2.172027 1_555
Ca5 O29 2.172027 1_555
Ca5 O65 2.273918 1_555
Ca5 O63 2.273918 1_555
Ca5 O64 2.273918 1_555
Ga0 O7 2.065033 1_555
Ga0 O8 2.065033 1_545
Ga0 O6 2.065033 1_445
Ga0 O44 2.089208 1_445
Ga0 O42 2.089208 1_455
Ga0 O43 2.089208 1_555
Ga1 O10 2.065033 1_555
Ga1 O9 2.065033 1_445
Ga1 O11 2.065033 1_545
Ga1 O45 2.089208 1_445
Ga1 O47 2.089208 1_555
Ga1 O46 2.089208 1_455
Ga2 O19 2.065033 1_556
Ga2 O20 2.065033 1_556
Ga2 O18 2.065033 1_556
Ga2 O56 2.089208 1_555
Ga2 O54 2.089208 1_555
Ga2 O55 2.089208 1_555
Ga3 O22 2.065033 1_555
Ga3 O21 2.065033 1_555
Ga3 O23 2.065033 1_555
Ga3 O57 2.089208 1_555
Ga3 O59 2.089208 1_555
Ga3 O58 2.089208 1_555
Ga4 O31 2.065033 1_555
Ga4 O32 2.065033 1_555
Ga4 O30 2.065033 1_555
Ga4 O68 2.089208 1_555
Ga4 O66 2.089208 1_555
Ga4 O67 2.089208 1_555
Ga5 O34 2.065033 1_555
Ga5 O33 2.065033 1_555
Ga5 O35 2.065033 1_555
Ga5 O69 2.089208 1_555
Ga5 O71 2.089208 1_555
Ga5 O70 2.089208 1_555
O0 P0 1.519480 1_545
O1 P1 1.519480 1_555
O2 P2 1.519480 1_655
O3 P3 1.519480 1_555
O4 P4 1.519480 1_655
O5 P5 1.519480 1_545
O6 P5 1.582921 1_555
O7 P3 1.582921 1_555
O8 P4 1.582921 1_555
O9 P1 1.582921 1_555
O10 P2 1.582921 1_555
O11 P0 1.582921 1_555
O12 P6 1.519480 1_555
O13 P7 1.519480 1_555
O14 P8 1.519480 1_555
O15 P9 1.519480 1_555
O16 P10 1.519480 1_555
O17 P11 1.519480 1_555
O18 P11 1.582921 1_555
O19 P9 1.582921 1_555
O20 P10 1.582921 1_555
O21 P7 1.582921 1_555
O22 P8 1.582921 1_555
O23 P6 1.582921 1_555
O24 P12 1.519480 1_555
O25 P13 1.519480 1_555
O26 P14 1.519480 1_555
O27 P15 1.519480 1_555
O28 P16 1.519480 1_555
O29 P17 1.519480 1_555
O30 P17 1.582921 1_555
O31 P15 1.582921 1_555
O32 P16 1.582921 1_555
O33 P13 1.582921 1_555
O34 P14 1.582921 1_555
O35 P12 1.582921 1_555
O36 P17 1.538997 1_655
O37 P15 1.539006 1_545
O38 P16 1.539003 1_555
O39 P13 1.539006 1_655
O40 P14 1.538997 1_545
O41 P12 1.539003 1_555
O42 P6 1.583533 1_555
O43 P7 1.583543 1_555
O44 P8 1.583538 1_555
O45 P9 1.583543 1_555
O46 P10 1.583533 1_555
O47 P11 1.583538 1_555
O48 P5 1.538997 1_545
O49 P3 1.539006 1_555
O50 P4 1.539003 1_655
O51 P1 1.539006 1_555
O52 P2 1.538997 1_655
O53 P0 1.539003 1_545
O54 P12 1.583547 1_555
O55 P13 1.583528 1_655
O56 P14 1.583537 1_545
O57 P15 1.583528 1_545
O58 P16 1.583547 1_555
O59 P17 1.583537 1_655
O60 P11 1.539010 1_555
O61 P9 1.538992 1_455
O62 P10 1.538999 1_565
O63 P7 1.538992 1_565
O64 P8 1.539010 1_555
O65 P6 1.538999 1_455
O66 P0 1.583533 1_555
O67 P1 1.583543 1_555
O68 P2 1.583538 1_555
O69 P3 1.583543 1_555
O70 P4 1.583533 1_555
O71 P5 1.583538 1_555
