# generated using pymatgen
data_Li(FeO2)2
_symmetry_space_group_name_H-M   'P 1'
_cell_length_a   5.97529589
_cell_length_b   5.97529609
_cell_length_c   5.97529500
_cell_angle_alpha   60.00000051
_cell_angle_beta   59.99999937
_cell_angle_gamma   60.00000392
_symmetry_Int_Tables_number   1
_chemical_formula_structural   Li(FeO2)2
_chemical_formula_sum   'Li2 Fe4 O8'
_cell_volume   150.85621679
_cell_formula_units_Z   2
loop_
 _symmetry_equiv_pos_site_id
 _symmetry_equiv_pos_as_xyz
  1  'x, y, z'
loop_
 _atom_site_type_symbol
 _atom_site_label
 _atom_site_symmetry_multiplicity
 _atom_site_fract_x
 _atom_site_fract_y
 _atom_site_fract_z
 _atom_site_occupancy
  Li  Li0  1  0.12500000  0.12500000  0.12500100  1
  Li  Li1  1  0.87499900  0.87499900  0.87500200  1
  Fe  Fe0  1  0.49999800  0.50000100  0.50000000  1
  Fe  Fe1  1  0.50000000  0.00000000  0.50000000  1
  Fe  Fe2  1  0.00000200  0.50000100  0.50000000  1
  Fe  Fe3  1  0.49999800  0.50000100  0.00000100  1
  O  O0  1  0.26182000  0.26181900  0.71454100  1
  O  O1  1  0.73818100  0.73818000  0.73818000  1
  O  O2  1  0.73818100  0.73818000  0.28546000  1
  O  O3  1  0.26182000  0.71454100  0.26181900  1
  O  O4  1  0.26182000  0.26181900  0.26182000  1
  O  O5  1  0.28546000  0.73818000  0.73818200  1
  O  O6  1  0.73818100  0.28545800  0.73818100  1
  O  O7  1  0.71454200  0.26181900  0.26182000  1
loop_
_geom_bond_atom_site_label_1
_geom_bond_atom_site_label_2
_geom_bond_distance
_geom_bond_site_symmetry_2
Li0 O4 2.002546 1_555
Li0 O7 2.002546 1_455
Li0 O3 2.002551 1_545
Li0 O0 2.002555 1_554
Li1 O2 2.002546 1_556
Li1 O1 2.002551 1_555
Li1 O6 2.002551 1_565
Li1 O5 2.002561 1_655
Fe0 O3 2.017649 1_555
Fe0 O0 2.017653 1_555
Fe0 O5 2.017659 1_555
Fe0 O7 2.017661 1_555
Fe0 O2 2.017663 1_555
Fe0 O6 2.017670 1_555
Fe1 O4 2.017653 1_555
Fe1 O0 2.017653 1_555
Fe1 O2 2.017654 1_545
Fe1 O5 2.017654 1_545
Fe1 O7 2.017657 1_555
Fe1 O1 2.017658 1_545
Fe2 O3 2.017645 1_555
Fe2 O0 2.017649 1_555
Fe2 O1 2.017650 1_455
Fe2 O2 2.017658 1_455
Fe2 O4 2.017661 1_555
Fe2 O6 2.017670 1_455
Fe3 O5 2.017641 1_554
Fe3 O3 2.017645 1_555
Fe3 O4 2.017653 1_555
Fe3 O1 2.017662 1_554
Fe3 O7 2.017665 1_555
Fe3 O6 2.017666 1_554
