# generated using pymatgen
data_Cr3(P2O7)2
_symmetry_space_group_name_H-M   'P 1'
_cell_length_a   5.91531100
_cell_length_b   7.04445539
_cell_length_c   7.63909822
_cell_angle_alpha   80.87530048
_cell_angle_beta   73.58494205
_cell_angle_gamma   75.27679515
_symmetry_Int_Tables_number   1
_chemical_formula_structural   Cr3(P2O7)2
_chemical_formula_sum   'Cr3 P4 O14'
_cell_volume   294.02703358
_cell_formula_units_Z   1
loop_
 _symmetry_equiv_pos_site_id
 _symmetry_equiv_pos_as_xyz
  1  'x, y, z'
loop_
 _atom_site_type_symbol
 _atom_site_label
 _atom_site_symmetry_multiplicity
 _atom_site_fract_x
 _atom_site_fract_y
 _atom_site_fract_z
 _atom_site_occupancy
  Cr  Cr0  1  0.75797100  0.52823500  0.66778500  1
  Cr  Cr1  1  0.24202900  0.47176500  0.33221500  1
  Cr  Cr2  1  0.00000000  0.00000000  0.00000000  1
  P  P0  1  0.21549300  0.69757700  0.68576400  1
  P  P1  1  0.35162200  0.32516900  0.91964900  1
  P  P2  1  0.64837800  0.67483100  0.08035100  1
  P  P3  1  0.78450700  0.30242300  0.31423600  1
  O  O0  1  0.48243400  0.67849700  0.58115300  1
  O  O1  1  0.91488200  0.38414200  0.43332900  1
  O  O2  1  0.66651100  0.68057500  0.87614100  1
  O  O3  1  0.08511800  0.61585800  0.56667100  1
  O  O4  1  0.33348900  0.31942500  0.12385900  1
  O  O5  1  0.23480400  0.17792500  0.87657400  1
  O  O6  1  0.07878000  0.89563000  0.74633700  1
  O  O7  1  0.20292100  0.54659300  0.86804900  1
  O  O8  1  0.92122000  0.10437000  0.25366300  1
  O  O9  1  0.51756600  0.32150300  0.41884700  1
  O  O10  1  0.76519600  0.82207500  0.12342600  1
  O  O11  1  0.61472500  0.31247700  0.80191300  1
  O  O12  1  0.79707900  0.45340700  0.13195100  1
  O  O13  1  0.38527500  0.68752300  0.19808700  1
loop_
_geom_bond_atom_site_label_1
_geom_bond_atom_site_label_2
_geom_bond_distance
_geom_bond_site_symmetry_2
Cr0 O0 1.930144 1_555
Cr0 O2 1.933302 1_555
Cr0 O11 1.935955 1_555
Cr0 O1 2.063444 1_555
Cr0 O3 2.081746 1_655
Cr1 O9 1.930144 1_555
Cr1 O4 1.933302 1_555
Cr1 O13 1.935955 1_555
Cr1 O3 2.063444 1_555
Cr1 O1 2.081746 1_455
Cr2 O10 2.039369 1_445
Cr2 O5 2.039369 1_554
Cr2 O6 2.068809 1_544
Cr2 O8 2.068809 1_455
O0 P0 1.537219 1_555
O1 P3 1.594409 1_555
O2 P2 1.527840 1_556
O3 P0 1.594409 1_555
O4 P1 1.527840 1_554
O5 P1 1.504250 1_555
O6 P0 1.494785 1_555
O7 P0 1.608647 1_555
O7 P1 1.632685 1_555
O8 P3 1.494785 1_555
O9 P3 1.537219 1_555
O10 P2 1.504250 1_555
O11 P1 1.550076 1_555
O12 P3 1.608647 1_555
O12 P2 1.632685 1_555
O13 P2 1.550076 1_555
