# generated using pymatgen
data_Na5Zr2Ti2Si3(PO8)3
_symmetry_space_group_name_H-M   'P 1'
_cell_length_a   9.01067081
_cell_length_b   9.02400398
_cell_length_c   22.58151723
_cell_angle_alpha   89.91483656
_cell_angle_beta   90.14523105
_cell_angle_gamma   120.01745856
_symmetry_Int_Tables_number   1
_chemical_formula_structural   Na5Zr2Ti2Si3(PO8)3
_chemical_formula_sum   'Na15 Zr6 Ti6 Si9 P9 O72'
_cell_volume   1589.87255950
_cell_formula_units_Z   3
loop_
 _symmetry_equiv_pos_site_id
 _symmetry_equiv_pos_as_xyz
  1  'x, y, z'
loop_
 _atom_site_type_symbol
 _atom_site_label
 _atom_site_symmetry_multiplicity
 _atom_site_fract_x
 _atom_site_fract_y
 _atom_site_fract_z
 _atom_site_occupancy
  Na  Na0  1  0.00047112  0.63559016  0.24931102  1
  Na  Na1  1  0.36548940  0.99587079  0.75251536  1
  Na  Na2  1  0.02993044  0.69997096  0.58033055  1
  Na  Na3  1  0.66069867  0.96565345  0.58633593  1
  Na  Na4  1  0.29616775  0.96389817  0.08045135  1
  Na  Na5  1  0.03831502  0.33936530  0.08332268  1
  Na  Na6  1  0.96417911  0.66632710  0.91747141  1
  Na  Na7  1  0.96505593  0.29915680  0.41192676  1
  Na  Na8  1  0.33435971  0.02896420  0.41689813  1
  Na  Na9  1  0.99608934  0.99009606  0.49969209  1
  Na  Na10  1  0.99229421  0.99975459  0.99597033  1
  Na  Na11  1  0.66804704  0.32771524  0.83801582  1
  Na  Na12  1  0.65988391  0.32936606  0.32761501  1
  Na  Na13  1  0.35553541  0.66426217  0.16853431  1
  Na  Na14  1  0.33778371  0.64468207  0.67114673  1
  Zr  Zr0  1  0.98975353  0.99493126  0.34872516  1
  Zr  Zr1  1  0.00046956  0.00265381  0.65076368  1
  Zr  Zr2  1  0.99637538  -0.00010667  0.14636679  1
  Zr  Zr3  1  0.66614338  0.33457847  0.69099202  1
  Zr  Zr4  1  0.66501174  0.34141340  0.47808035  1
  Zr  Zr5  1  0.34039533  0.66894432  0.51953974  1
  Ti  Ti0  1  0.00104510  0.00931135  0.85497675  1
  Ti  Ti1  1  0.66999619  0.33637622  0.18301879  1
  Ti  Ti2  1  0.65343912  0.32827565  0.98003385  1
  Ti  Ti3  1  0.33017008  0.66291050  0.01821316  1
  Ti  Ti4  1  0.33086747  0.66754534  0.31334588  1
  Ti  Ti5  1  0.34500770  0.67627915  0.81770043  1
  Si  Si0  1  0.00028735  0.30393650  0.24827683  1
  Si  Si1  1  0.70497278  0.99390758  0.75385900  1
  Si  Si2  1  0.37057117  0.04114590  0.58365230  1
  Si  Si3  1  0.66553452  0.62657607  0.58586976  1
  Si  Si4  1  0.95197988  0.61833640  0.07927001  1
  Si  Si5  1  0.38598208  0.34368556  0.08269728  1
  Si  Si6  1  0.33558684  0.95947735  0.91769763  1
  Si  Si7  1  0.62514291  0.95613586  0.41478038  1
  Si  Si8  1  0.04279046  0.66802515  0.41477026  1
  P  P0  1  0.30408310  0.00359509  0.24942271  1
  P  P1  1  0.69519933  0.69649695  0.24803894  1
  P  P2  1  0.28656923  0.29657818  0.75571144  1
  P  P3  1  0.00543284  0.71031428  0.75609391  1
  P  P4  1  0.95711103  0.33237025  0.58298991  1
  P  P5  1  0.66113086  0.04771859  0.08108879  1
  P  P6  1  0.62080432  0.66766370  0.91773581  1
  P  P7  1  0.04774538  0.37906324  0.91618729  1
  P  P8  1  0.33294876  0.37968811  0.41231037  1
  O  O0  1  0.21735998  0.02637562  0.30532794  1
  O  O1  1  0.81712563  0.78079710  0.30232898  1
  O  O2  1  0.97188048  0.18577845  0.30706247  1
  O  O3  1  0.19315228  0.17207022  0.80844280  1
  O  O4  1  0.98709989  0.80577648  0.80994708  1
  O  O5  1  0.83769228  0.01344256  0.80805637  1
  O  O6  1  0.78331428  0.97125496  0.69149478  1
  O  O7  1  0.18305659  0.21387928  0.69834833  1
  O  O8  1  0.03437583  0.81969634  0.69859692  1
  O  O9  1  0.78746728  0.81320144  0.19409944  1
  O  O10  1  0.02605044  0.21020459  0.19002317  1
  O  O11  1  0.18100696  0.96883002  0.19526354  1
  O  O12  1  0.86675571  0.35726490  0.63687252  1
  O  O13  1  0.49071859  0.12864546  0.64245649  1
  O  O14  1  0.64889437  0.51193032  0.64348374  1
  O  O15  1  0.86436773  0.49804009  0.13885513  1
  O  O16  1  0.63437267  0.13213356  0.13686651  1
  O  O17  1  0.50472246  0.36061428  0.14015749  1
  O  O18  1  0.47637909  0.30524891  0.02527205  1
  O  O19  1  0.83631001  0.52202614  0.02078678  1
  O  O20  1  0.69278172  0.16408291  0.02652034  1
  O  O21  1  0.46175661  0.14929959  0.52327975  1
  O  O22  1  0.70274146  0.54188982  0.52756165  1
  O  O23  1  0.85089872  0.30517236  0.52550353  1
  O  O24  1  0.52767209  0.68837319  0.97214375  1
  O  O25  1  0.15590374  0.45975567  0.97425592  1
  O  O26  1  0.30333775  0.82999306  0.97507828  1
  O  O27  1  0.54681454  0.85328703  0.47699859  1
  O  O28  1  0.30394398  0.45639415  0.46918580  1
  O  O29  1  0.15150907  0.69173160  0.47561634  1
  O  O30  1  0.14321181  0.64491923  0.35716903  1
  O  O31  1  0.49621549  0.84712040  0.36006418  1
  O  O32  1  0.34958455  0.48963173  0.35814510  1
  O  O33  1  0.14327106  0.50002082  0.86392908  1
  O  O34  1  0.35982773  0.86146917  0.85937356  1
  O  O35  1  0.50979833  0.64463191  0.86205339  1
  O  O36  1  0.03575572  0.84434401  0.40951182  1
  O  O37  1  0.82070034  0.98938452  0.41116615  1
  O  O38  1  0.17385360  0.19704689  0.40796895  1
  O  O39  1  0.02866792  0.19798983  0.90968939  1
  O  O40  1  0.15719900  0.96814275  0.91069825  1
  O  O41  1  0.80419059  0.82753074  0.91250346  1
  O  O42  1  0.97009225  0.16912158  0.58897190  1
  O  O43  1  0.17795977  0.01366317  0.58811800  1
  O  O44  1  0.83642862  0.81835519  0.58910827  1
  O  O45  1  0.98476553  0.81333468  0.08560267  1
  O  O46  1  0.82600972  0.03375915  0.08672103  1
  O  O47  1  0.19422645  0.16961846  0.08735902  1
  O  O48  1  0.67727007  0.16008005  0.75333415  1
  O  O49  1  0.46232486  0.30265791  0.75147456  1
  O  O50  1  0.84469604  0.53180901  0.75134541  1
  O  O51  1  0.68725178  0.52176215  0.24128663  1
  O  O52  1  0.83060895  0.32717112  0.24115512  1
  O  O53  1  0.48112607  0.16228233  0.24133734  1
  O  O54  1  0.64450647  0.50793900  0.92238496  1
  O  O55  1  0.87052267  0.36698645  0.92071474  1
  O  O56  1  0.50791182  0.14861970  0.92443296  1
  O  O57  1  0.63652061  0.14353271  0.41583341  1
  O  O58  1  0.49232718  0.35784751  0.41612191  1
  O  O59  1  0.85833424  0.49135050  0.41587171  1
  O  O60  1  0.35890323  0.50895106  0.07497850  1
  O  O61  1  0.14597848  0.63664262  0.07392983  1
  O  O62  1  0.49851128  0.86914119  0.07517446  1
  O  O63  1  0.34907310  0.84865847  0.58123115  1
  O  O64  1  0.49840346  0.64977358  0.58284886  1
  O  O65  1  0.13398152  0.49443497  0.57947672  1
  O  O66  1  0.31349349  0.83653814  0.25510784  1
  O  O67  1  0.51968675  0.68085683  0.25605752  1
  O  O68  1  0.16930533  0.49700154  0.25505213  1
  O  O69  1  0.30632824  0.47398538  0.76254930  1
  O  O70  1  0.16974405  0.69580363  0.76074222  1
  O  O71  1  0.51178844  0.82313216  0.76110517  1
loop_
_geom_bond_atom_site_label_1
_geom_bond_atom_site_label_2
_geom_bond_distance
_geom_bond_site_symmetry_2
Na0 O68 2.407771 1_555
Na0 O52 2.420874 1_455
Na0 O66 2.478374 1_555
Na0 O51 2.480081 1_455
Na0 O30 2.733111 1_555
Na0 O15 2.781493 1_455
Na0 O1 2.839066 1_455
Na0 O11 2.878116 1_555
Na1 O70 2.387328 1_555
Na1 O48 2.433775 1_565
Na1 O49 2.451372 1_565
Na1 O71 2.501805 1_555
Na1 O34 2.688172 1_555
Na1 O13 2.745581 1_565
Na1 O8 2.855363 1_555
Na1 O3 3.003481 1_565
Na2 O43 2.458815 1_565
Na2 O65 2.461629 1_555
Na2 O44 2.467116 1_455
Na2 O63 2.491904 1_555
Na2 O29 2.625294 1_555
Na2 O22 2.815329 1_455
Na2 O8 2.875047 1_555
Na2 O12 2.967224 1_455
Na3 O42 2.454567 1_565
Na3 O63 2.458690 1_555
Na3 O64 2.469713 1_555
Na3 O44 2.526490 1_555
Na3 O6 2.606410 1_555
Na3 O27 2.670338 1_555
Na3 O13 2.895627 1_565
Na3 O23 2.992826 1_565
Na4 O62 2.372948 1_555
Na4 O45 2.433034 1_455
Na4 O47 2.453997 1_565
Na4 O61 2.564352 1_555
Na4 O26 2.685831 1_554
Na4 O11 2.803692 1_555
Na4 O16 2.927765 1_565
Na4 O18 2.944863 1_565
Na5 O61 2.361808 1_555
Na5 O46 2.447971 1_455
Na5 O60 2.510174 1_555
Na5 O47 2.545663 1_555
Na5 O10 2.653362 1_555
Na5 O25 2.687440 1_554
Na5 O15 2.887957 1_455
Na5 O20 2.983193 1_455
Na6 O40 2.393096 1_655
Na6 O55 2.394414 1_555
Na6 O54 2.496841 1_555
Na6 O41 2.510751 1_555
Na6 O19 2.640003 1_556
Na6 O4 2.693532 1_555
Na6 O26 2.946619 1_655
Na6 O33 2.959159 1_655
Na7 O59 2.368599 1_555
Na7 O37 2.422487 1_545
Na7 O38 2.476358 1_655
Na7 O57 2.566111 1_555
Na7 O2 2.594004 1_555
Na7 O23 2.776429 1_555
Na7 O28 2.942792 1_655
Na7 O30 2.971282 1_655
Na8 O36 2.357211 1_545
Na8 O57 2.380398 1_555
Na8 O58 2.570562 1_555
Na8 O38 2.573986 1_555
Na8 O21 2.648463 1_555
Na8 O0 2.724252 1_555
Na9 O44 2.514594 1_555
Na9 O43 2.520706 1_665
Na9 O37 2.543165 1_555
Na9 O36 2.546887 1_655
Na9 O42 2.668346 1_565
Na9 O38 2.712155 1_665
Na10 O41 2.489505 1_555
Na10 O40 2.537194 1_655
Na10 O39 2.551439 1_665
Na10 O45 2.609155 1_556
Na10 O46 2.648812 1_566
Na10 O47 2.668149 1_666
Na11 O48 2.467214 1_555
Na11 O56 2.484704 1_555
Na11 O55 2.505875 1_555
Na11 O54 2.583818 1_555
Na11 O50 2.613049 1_555
Na11 O49 2.621052 1_555
Na12 O52 2.494911 1_555
Na12 O53 2.495303 1_555
Na12 O51 2.537599 1_555
Na12 O57 2.542435 1_555
Na12 O59 2.584870 1_555
Na12 O58 2.597134 1_555
Na13 O67 2.425043 1_555
Na13 O68 2.526802 1_555
Na13 O60 2.545603 1_555
Na13 O66 2.642774 1_555
Na13 O62 2.672360 1_555
Na13 O61 2.775193 1_555
Na14 O64 2.453615 1_555
Na14 O69 2.503975 1_555
Na14 O71 2.577880 1_555
Na14 O65 2.644549 1_555
Na14 O70 2.704810 1_555
Na14 O63 2.706235 1_555
O0 P0 1.553420 1_555
O0 Zr0 2.161969 1_445
O1 P1 1.564739 1_555
O1 Zr0 2.059517 1_555
O2 Si0 1.639831 1_655
O2 Zr0 2.036901 1_545
O3 P2 1.563225 1_555
O3 Ti0 1.928388 1_555
O4 P3 1.547503 1_655
O4 Ti0 2.048708 1_665
O5 Si1 1.655705 1_545
O5 Ti0 1.826862 1_655
O6 Si1 1.635119 1_555
O6 Zr1 2.051494 1_665
O7 P2 1.550848 1_555
O7 Zr1 2.086653 1_555
O8 P3 1.571121 1_555
O8 Zr1 2.117450 1_565
O9 P1 1.552166 1_555
O9 Zr2 2.091748 1_565
O10 Si0 1.643493 1_555
O10 Zr2 2.035111 1_455
O11 P0 1.571682 1_565
O11 Zr2 2.126466 1_465
O12 P4 1.543581 1_555
O12 Zr3 2.107899 1_555
O13 Si2 1.642968 1_555
O13 Zr3 2.052196 1_555
O14 Si3 1.620870 1_555
O14 Zr3 1.994833 1_555
O15 Si4 1.660026 1_555
O15 Ti1 1.907462 1_555
O16 P5 1.553391 1_555
O16 Ti1 1.999562 1_555
O17 Si5 1.637593 1_555
O17 Ti1 1.876268 1_555
O18 Si5 1.659729 1_555
O18 Ti2 1.818810 1_554
O19 Si4 1.635807 1_555
O19 Ti2 1.932249 1_554
O20 P5 1.549419 1_555
O20 Ti2 1.985449 1_554
O21 Si2 1.638787 1_555
O21 Zr4 2.056447 1_555
O22 Si3 1.640624 1_555
O22 Zr4 2.006400 1_555
O23 P4 1.555939 1_555
O23 Zr4 2.144109 1_555
O24 P6 1.552890 1_555
O24 Ti3 1.975264 1_556
O25 P7 1.576646 1_555
O25 Ti3 1.982212 1_556
O26 Si6 1.669249 1_555
O26 Ti3 1.907807 1_556
O27 Si7 1.636843 1_555
O27 Zr5 2.014497 1_555
O28 P8 1.543470 1_555
O28 Zr5 2.110451 1_555
O29 Si8 1.636360 1_555
O29 Zr5 2.064908 1_555
O30 Si8 1.658215 1_555
O30 Ti4 1.882178 1_555
O31 Si7 1.642225 1_555
O31 Ti4 1.881545 1_555
O32 P8 1.533419 1_555
O32 Ti4 1.973494 1_555
O33 P7 1.544724 1_555
O33 Ti5 2.008937 1_555
O34 Si6 1.662148 1_555
O34 Ti5 1.864648 1_555
O35 P6 1.552777 1_555
O35 Ti5 1.924946 1_555
O36 Si8 1.627892 1_555
O36 Zr0 2.111340 1_455
O37 Si7 1.635046 1_555
O37 Zr0 2.060442 1_555
O38 P8 1.554640 1_555
O38 Zr0 2.199313 1_445
O39 P7 1.562245 1_555
O39 Ti0 2.016941 1_555
O40 Si6 1.655067 1_555
O40 Ti0 2.052732 1_565
O41 P6 1.562391 1_555
O41 Ti0 2.149144 1_665
O42 P4 1.540731 1_555
O42 Zr1 2.163743 1_655
O43 Si2 1.629109 1_555
O43 Zr1 2.102598 1_555
O44 Si3 1.644705 1_555
O44 Zr1 2.103824 1_665
O45 Si4 1.638463 1_555
O45 Zr2 2.134913 1_565
O46 P5 1.557402 1_555
O46 Zr2 2.172959 1_555
O47 Si5 1.657957 1_555
O47 Zr2 2.138605 1_455
O48 Si1 1.638755 1_545
O48 Zr3 2.149918 1_555
O49 P2 1.560133 1_555
O49 Zr3 2.191685 1_555
O50 P3 1.539298 1_655
O50 Zr3 2.178237 1_555
O51 P1 1.549961 1_555
O51 Ti1 2.073492 1_555
O52 Si0 1.651302 1_655
O52 Ti1 1.983723 1_555
O53 P0 1.530985 1_555
O53 Ti1 2.104481 1_555
O54 P6 1.562554 1_555
O54 Ti2 2.110326 1_555
O55 P7 1.548895 1_655
O55 Ti2 2.251835 1_555
O56 Si6 1.641747 1_545
O56 Ti2 1.948061 1_555
O57 Si7 1.642388 1_545
O57 Zr4 2.185705 1_555
O58 P8 1.546340 1_555
O58 Zr4 2.149393 1_555
O59 Si8 1.629040 1_655
O59 Zr4 2.118273 1_555
O60 Si5 1.636201 1_555
O60 Ti3 1.998330 1_555
O61 Si4 1.676193 1_455
O61 Ti3 2.002453 1_555
O62 P5 1.548848 1_565
O62 Ti3 2.142804 1_555
O63 Si2 1.649630 1_565
O63 Zr5 2.110956 1_555
O64 Si3 1.622113 1_555
O64 Zr5 2.082355 1_555
O65 P4 1.534067 1_455
O65 Zr5 2.201597 1_555
O66 P0 1.556779 1_565
O66 Ti4 2.076407 1_555
O67 P1 1.527042 1_555
O67 Ti4 2.094974 1_555
O68 Si0 1.650161 1_555
O68 Ti4 1.993812 1_555
O69 P2 1.527714 1_555
O69 Ti5 2.091152 1_555
O70 P3 1.553496 1_555
O70 Ti5 2.108741 1_555
O71 Si1 1.657859 1_555
O71 Ti5 1.913117 1_555
