# generated using pymatgen
data_Na5YNb3Si5PO24
_symmetry_space_group_name_H-M   'P 1'
_cell_length_a   9.12069073
_cell_length_b   9.13607696
_cell_length_c   22.75133983
_cell_angle_alpha   90.07846062
_cell_angle_beta   90.04840318
_cell_angle_gamma   119.90966367
_symmetry_Int_Tables_number   1
_chemical_formula_structural   Na5YNb3Si5PO24
_chemical_formula_sum   'Na15 Y3 Nb9 Si15 P3 O72'
_cell_volume   1643.30667846
_cell_formula_units_Z   3
loop_
 _symmetry_equiv_pos_site_id
 _symmetry_equiv_pos_as_xyz
  1  'x, y, z'
loop_
 _atom_site_type_symbol
 _atom_site_label
 _atom_site_symmetry_multiplicity
 _atom_site_fract_x
 _atom_site_fract_y
 _atom_site_fract_z
 _atom_site_occupancy
  Na  Na0  1  0.99316760  0.63389240  0.24259337  1
  Na  Na1  1  0.62948761  0.62053937  0.74750058  1
  Na  Na2  1  0.99055818  0.36825758  0.74701944  1
  Na  Na3  1  0.37611851  0.00863626  0.74979960  1
  Na  Na4  1  0.32052196  0.97482975  0.08316994  1
  Na  Na5  1  0.66124741  0.68522108  0.08399215  1
  Na  Na6  1  0.96637537  0.29104798  0.41532477  1
  Na  Na7  1  0.32282154  0.03364678  0.41351126  1
  Na  Na8  1  0.70761833  0.67613354  0.41592435  1
  Na  Na9  1  0.00078531  0.99981701  0.50334950  1
  Na  Na10  1  0.99856941  0.01062227  0.99527706  1
  Na  Na11  1  0.66598289  0.33401854  0.83544204  1
  Na  Na12  1  0.64559214  0.31467197  0.32467292  1
  Na  Na13  1  0.33278250  0.65336107  0.16491435  1
  Na  Na14  1  0.33148212  0.66139709  0.66397401  1
  Y  Y0  1  0.00206460  0.00350570  0.35235033  1
  Y  Y1  1  0.66802080  0.33654952  0.68331098  1
  Y  Y2  1  0.66016786  0.32474877  0.18039950  1
  Nb  Nb0  1  0.00000989  0.99900936  0.85803504  1
  Nb  Nb1  1  0.99501920  0.99922982  0.64536717  1
  Nb  Nb2  1  0.00556456  0.00462353  0.14590172  1
  Nb  Nb3  1  0.66713914  0.33162606  0.97817390  1
  Nb  Nb4  1  0.67174474  0.33660712  0.48355047  1
  Nb  Nb5  1  0.32923260  0.66351011  0.01547350  1
  Nb  Nb6  1  0.33356043  0.66434632  0.52161676  1
  Nb  Nb7  1  0.33731661  0.67042209  0.31199590  1
  Nb  Nb8  1  0.33252293  0.66537519  0.81485855  1
  Si  Si0  1  0.30005900  0.99699096  0.25297422  1
  Si  Si1  1  0.28044527  0.28630718  0.75191515  1
  Si  Si2  1  0.00671556  0.71900094  0.75143886  1
  Si  Si3  1  0.71046241  0.99296340  0.75242912  1
  Si  Si4  1  0.96741726  0.33160445  0.58536905  1
  Si  Si5  1  0.66944655  0.63576562  0.58530071  1
  Si  Si6  1  0.96430687  0.62755651  0.08440407  1
  Si  Si7  1  0.66696528  0.03584516  0.08031772  1
  Si  Si8  1  0.37208806  0.33657277  0.08105146  1
  Si  Si9  1  0.62446331  0.66405082  0.91653151  1
  Si  Si10  1  0.03839144  0.37480049  0.91504135  1
  Si  Si11  1  0.33695747  0.96142126  0.91606325  1
  Si  Si12  1  0.61521029  0.95863697  0.41849906  1
  Si  Si13  1  0.34160022  0.38424529  0.41771379  1
  Si  Si14  1  0.04214982  0.65831767  0.41718576  1
  P  P0  1  0.70085998  0.70775916  0.25026832  1
  P  P1  1  0.00874570  0.30112462  0.25133462  1
  P  P2  1  0.36675873  0.03543447  0.58255417  1
  O  O0  1  0.21482537  0.00351103  0.31422498  1
  O  O1  1  0.79568588  0.78701975  0.30782782  1
  O  O2  1  0.98795340  0.21159158  0.31011147  1
  O  O3  1  0.18150659  0.16890184  0.80847321  1
  O  O4  1  0.98722664  0.81792246  0.80816410  1
  O  O5  1  0.83072670  0.01409242  0.80828621  1
  O  O6  1  0.80525284  0.96782493  0.69321256  1
  O  O7  1  0.16072341  0.19310269  0.69327995  1
  O  O8  1  0.03341653  0.83949722  0.69315810  1
  O  O9  1  0.79858677  0.82264624  0.19573027  1
  O  O10  1  0.01641842  0.19163082  0.19894770  1
  O  O11  1  0.16902752  0.97791593  0.19595622  1
  O  O12  1  0.90019116  0.36547090  0.64593241  1
  O  O13  1  0.46501754  0.10154612  0.64006683  1
  O  O14  1  0.63040382  0.53435609  0.64594062  1
  O  O15  1  0.90552560  0.53503113  0.14638471  1
  O  O16  1  0.60168591  0.09390114  0.13585145  1
  O  O17  1  0.49123030  0.39513908  0.13773709  1
  O  O18  1  0.46479404  0.29382452  0.02658540  1
  O  O19  1  0.82567578  0.52546168  0.03137356  1
  O  O20  1  0.69659251  0.16503467  0.02508232  1
  O  O21  1  0.46996951  0.15620422  0.52944715  1
  O  O22  1  0.68700043  0.52319907  0.52878827  1
  O  O23  1  0.83653654  0.30920003  0.52842844  1
  O  O24  1  0.52841872  0.68742980  0.97291331  1
  O  O25  1  0.16258293  0.47816427  0.96999770  1
  O  O26  1  0.31514102  0.84473493  0.97313063  1
  O  O27  1  0.51510637  0.83653565  0.47270838  1
  O  O28  1  0.32217170  0.48508244  0.47319829  1
  O  O29  1  0.16639691  0.68155026  0.47149289  1
  O  O30  1  0.13150987  0.62932319  0.35718704  1
  O  O31  1  0.49433689  0.86232795  0.35904353  1
  O  O32  1  0.36822847  0.50565278  0.35964365  1
  O  O33  1  0.13400714  0.49296135  0.85636487  1
  O  O34  1  0.35783069  0.86235659  0.85774186  1
  O  O35  1  0.50385286  0.64102433  0.85804806  1
  O  O36  1  0.01192718  0.81834468  0.41734797  1
  O  O37  1  0.80253972  0.98195931  0.41731992  1
  O  O38  1  0.17491205  0.19887683  0.41820107  1
  O  O39  1  0.02201108  0.18870388  0.91110056  1
  O  O40  1  0.16670966  0.97790050  0.91083456  1
  O  O41  1  0.81094124  0.83357888  0.91069767  1
  O  O42  1  0.98128291  0.15901060  0.58678392  1
  O  O43  1  0.19246698  0.02550184  0.58422939  1
  O  O44  1  0.84630885  0.81849582  0.58685413  1
  O  O45  1  0.97703850  0.81897112  0.09047180  1
  O  O46  1  0.83555629  0.01427909  0.09089480  1
  O  O47  1  0.18657739  0.16014061  0.09163025  1
  O  O48  1  0.68683743  0.15685576  0.75005514  1
  O  O49  1  0.46647517  0.30528311  0.75059035  1
  O  O50  1  0.84092995  0.53260227  0.75063687  1
  O  O51  1  0.68988636  0.53587261  0.24555075  1
  O  O52  1  0.86392927  0.33885854  0.24530922  1
  O  O53  1  0.48627840  0.15480584  0.24847080  1
  O  O54  1  0.63978910  0.49366091  0.92402889  1
  O  O55  1  0.85453457  0.36306883  0.92327555  1
  O  O56  1  0.50782160  0.14734312  0.92217882  1
  O  O57  1  0.62287974  0.14288931  0.42379623  1
  O  O58  1  0.51526383  0.37051394  0.42398277  1
  O  O59  1  0.85616809  0.48117749  0.42433938  1
  O  O60  1  0.34102845  0.49579939  0.06866869  1
  O  O61  1  0.15972074  0.67263700  0.07138841  1
  O  O62  1  0.50926989  0.84191872  0.06885897  1
  O  O63  1  0.34314748  0.85778340  0.57177239  1
  O  O64  1  0.50990181  0.66595776  0.57215587  1
  O  O65  1  0.15319155  0.49687231  0.57245294  1
  O  O66  1  0.29379779  0.80917237  0.25286494  1
  O  O67  1  0.52346480  0.69526867  0.25277279  1
  O  O68  1  0.18053409  0.47454571  0.25160086  1
  O  O69  1  0.29349142  0.47426184  0.75592595  1
  O  O70  1  0.18259431  0.70701425  0.75559136  1
  O  O71  1  0.52475108  0.81622756  0.75568058  1
loop_
_geom_bond_atom_site_label_1
_geom_bond_atom_site_label_2
_geom_bond_distance
_geom_bond_site_symmetry_2
Na0 O52 2.343231 1_555
Na0 O15 2.348946 1_555
Na0 O66 2.399233 1_655
Na0 O51 2.447060 1_555
Na0 O68 2.750093 1_655
Na0 O30 2.904888 1_655
Na0 O11 2.926027 1_655
Na1 O71 2.417863 1_555
Na1 O50 2.432017 1_555
Na1 O14 2.441441 1_555
Na1 O49 2.498247 1_555
Na1 O69 2.670475 1_555
Na1 O35 2.809137 1_555
Na2 O69 2.437813 1_655
Na2 O12 2.438250 1_555
Na2 O48 2.464508 1_555
Na2 O50 2.483332 1_555
Na2 O70 2.697422 1_655
Na2 O33 2.774694 1_655
Na3 O49 2.407706 1_555
Na3 O70 2.424289 1_545
Na3 O48 2.457227 1_555
Na3 O13 2.633182 1_555
Na3 O71 2.706022 1_545
Na3 O34 2.762667 1_545
Na4 O61 2.409231 1_555
Na4 O16 2.530882 1_565
Na4 O47 2.541254 1_565
Na4 O62 2.574619 1_555
Na4 O45 2.724420 1_455
Na4 O26 2.759758 1_554
Na4 O18 2.840958 1_565
Na4 O11 2.922188 1_555
Na5 O62 2.463520 1_555
Na5 O45 2.509888 1_555
Na5 O60 2.569538 1_555
Na5 O46 2.611876 1_565
Na5 O17 2.614779 1_555
Na5 O24 2.806094 1_554
Na5 O19 2.827331 1_555
Na5 O9 2.832955 1_555
Na6 O59 2.410464 1_555
Na6 O38 2.434787 1_655
Na6 O37 2.449790 1_545
Na6 O2 2.536575 1_555
Na6 O57 2.730780 1_555
Na6 O23 2.872521 1_555
Na7 O57 2.411417 1_555
Na7 O0 2.423370 1_555
Na7 O38 2.478048 1_555
Na7 O36 2.521061 1_545
Na7 O58 2.686921 1_555
Na7 O21 2.915420 1_555
Na7 O31 2.978649 1_545
Na8 O36 2.407498 1_655
Na8 O58 2.454480 1_555
Na8 O37 2.478832 1_555
Na8 O1 2.630304 1_555
Na8 O59 2.729817 1_555
Na8 O22 2.886144 1_555
Na8 O32 2.971050 1_555
Na9 O42 2.449749 1_465
Na9 O44 2.454430 1_455
Na9 O43 2.466137 1_565
Na9 O38 2.591721 1_565
Na9 O36 2.597511 1_555
Na9 O37 2.612644 1_455
Na10 O39 2.454134 1_655
Na10 O41 2.544244 1_545
Na10 O40 2.567626 1_645
Na10 O46 2.645557 1_556
Na10 O47 2.694707 1_656
Na10 O45 2.731900 1_546
Na11 O56 2.538569 1_555
Na11 O55 2.561009 1_555
Na11 O54 2.566454 1_555
Na11 O49 2.573539 1_555
Na11 O50 2.586143 1_555
Na11 O48 2.594021 1_555
Na12 O53 2.263323 1_555
Na12 O51 2.585488 1_555
Na12 O52 2.615928 1_555
Na12 O57 2.697800 1_555
Na12 O58 2.717434 1_555
Na12 O59 2.866022 1_555
Na13 O68 2.497588 1_555
Na13 O67 2.548493 1_555
Na13 O66 2.579717 1_555
Na13 O60 2.640508 1_555
Na13 O61 2.706061 1_555
Na13 O62 2.754177 1_555
Na14 O65 2.605273 1_555
Na14 O69 2.615320 1_555
Na14 O70 2.632365 1_555
Na14 O64 2.636684 1_555
Na14 O71 2.638277 1_555
Na14 O63 2.729684 1_555
Nb0 O4 1.959686 1_455
Nb0 O3 1.966340 1_565
Nb0 O5 1.973222 1_465
Nb0 O40 2.020358 1_555
Nb0 O41 2.025538 1_455
Nb0 O39 2.036767 1_565
Nb1 O6 1.942093 1_555
Nb1 O7 1.982927 1_665
Nb1 O8 1.986934 1_655
Nb1 O44 2.023810 1_555
Nb1 O42 2.027446 1_565
Nb1 O43 2.193074 1_665
Nb2 O47 1.984425 1_555
Nb2 O11 1.984910 1_545
Nb2 O45 2.021991 1_445
Nb2 O46 2.027747 1_455
Nb2 O10 2.052029 1_555
Nb2 O9 2.119392 1_445
Nb3 O20 1.984769 1_556
Nb3 O55 2.019598 1_555
Nb3 O18 2.026631 1_556
Nb3 O56 2.029842 1_555
Nb3 O19 2.032088 1_556
Nb3 O54 2.035670 1_555
Nb4 O23 1.933309 1_555
Nb4 O22 1.934715 1_555
Nb4 O21 2.043705 1_555
Nb4 O59 2.044928 1_555
Nb4 O57 2.094009 1_555
Nb4 O58 2.099614 1_555
Nb5 O25 1.916743 1_554
Nb5 O24 1.973181 1_554
Nb5 O26 1.975409 1_554
Nb5 O60 1.998313 1_555
Nb5 O61 2.036469 1_555
Nb5 O62 2.037250 1_555
Nb6 O28 1.931780 1_555
Nb6 O27 1.965927 1_555
Nb6 O64 1.970369 1_555
Nb6 O65 1.970521 1_555
Nb6 O29 1.971362 1_555
Nb6 O63 2.067164 1_555
Nb7 O31 1.938793 1_555
Nb7 O32 1.986938 1_555
Nb7 O30 2.005748 1_555
Nb7 O66 2.019862 1_555
Nb7 O67 2.090433 1_555
Nb7 O68 2.138522 1_555
Nb8 O35 1.949769 1_555
Nb8 O33 1.952936 1_555
Nb8 O34 1.955612 1_555
Nb8 O69 2.084701 1_555
Nb8 O70 2.085646 1_555
Nb8 O71 2.094136 1_555
O0 Si0 1.611711 1_545
O0 Y0 2.126212 1_555
O1 P0 1.535653 1_555
O1 Y0 2.181640 1_665
O2 P1 1.530368 1_655
O2 Y0 2.191577 1_655
O3 Si1 1.631279 1_555
O4 Si2 1.634427 1_655
O5 Si3 1.625190 1_545
O6 Si3 1.677629 1_555
O7 Si1 1.662595 1_555
O8 Si2 1.663302 1_555
O9 P0 1.583738 1_555
O10 P1 1.578871 1_555
O11 Si0 1.711873 1_555
O12 Si4 1.599918 1_555
O12 Y1 2.173183 1_555
O13 P2 1.528447 1_555
O13 Y1 2.243333 1_555
O14 Si5 1.601218 1_555
O14 Y1 2.174519 1_555
O15 Si6 1.594704 1_555
O15 Y2 2.239898 1_555
O16 Si7 1.595788 1_555
O16 Y2 2.152013 1_555
O17 Si8 1.595707 1_555
O17 Y2 2.171912 1_555
O18 Si8 1.653118 1_555
O19 Si6 1.656085 1_555
O20 Si7 1.652848 1_555
O21 P2 1.591601 1_555
O22 Si5 1.702150 1_555
O23 Si4 1.702385 1_555
O24 Si9 1.626716 1_555
O25 Si10 1.632719 1_555
O26 Si11 1.629259 1_555
O27 Si12 1.609060 1_555
O28 Si13 1.622845 1_555
O29 Si14 1.616443 1_555
O30 Si14 1.677497 1_555
O31 Si12 1.687072 1_555
O32 Si13 1.664538 1_555
O33 Si10 1.665862 1_555
O34 Si11 1.668829 1_555
O35 Si9 1.670561 1_555
O36 Si14 1.617217 1_555
O36 Y0 2.283623 1_565
O37 Si12 1.613189 1_555
O37 Y0 2.276718 1_665
O38 Si13 1.616154 1_555
O38 Y0 2.257945 1_555
O39 Si10 1.633175 1_555
O40 Si11 1.637319 1_555
O41 Si9 1.638019 1_555
O42 Si4 1.643905 1_555
O43 P2 1.546920 1_555
O44 Si5 1.644537 1_555
O45 Si6 1.699284 1_555
O46 Si7 1.662164 1_555
O47 Si8 1.673574 1_555
O48 Si3 1.616575 1_545
O48 Y1 2.306054 1_555
O49 Si1 1.617584 1_555
O49 Y1 2.299136 1_555
O50 Si2 1.618230 1_655
O50 Y1 2.283193 1_555
O51 P0 1.526555 1_555
O51 Y2 2.336912 1_555
O52 P1 1.528444 1_655
O52 Y2 2.325350 1_555
O53 Si0 1.591412 1_545
O53 Y2 2.208964 1_555
O54 Si9 1.640008 1_555
O55 Si10 1.637048 1_655
O56 Si11 1.640830 1_545
O57 Si12 1.653803 1_545
O58 Si13 1.656125 1_555
O59 Si14 1.669267 1_655
O60 Si8 1.639436 1_555
O61 Si6 1.644115 1_455
O62 Si7 1.653018 1_565
O63 P2 1.546299 1_565
O64 Si5 1.637923 1_555
O65 Si4 1.639450 1_455
O66 Si0 1.688174 1_555
O67 P0 1.565289 1_555
O68 P1 1.577831 1_555
O69 Si1 1.663411 1_555
O70 Si2 1.664071 1_555
O71 Si3 1.659730 1_555
