# generated using pymatgen
data_Sr2P6O17
_symmetry_space_group_name_H-M   'P 1'
_cell_length_a   13.28677095
_cell_length_b   7.16573203
_cell_length_c   7.17896708
_cell_angle_alpha   74.66675252
_cell_angle_beta   90.00000000
_cell_angle_gamma   90.00000000
_symmetry_Int_Tables_number   1
_chemical_formula_structural   Sr2P6O17
_chemical_formula_sum   'Sr4 P12 O34'
_cell_volume   659.17547045
_cell_formula_units_Z   2
loop_
 _symmetry_equiv_pos_site_id
 _symmetry_equiv_pos_as_xyz
  1  'x, y, z'
loop_
 _atom_site_type_symbol
 _atom_site_label
 _atom_site_symmetry_multiplicity
 _atom_site_fract_x
 _atom_site_fract_y
 _atom_site_fract_z
 _atom_site_occupancy
  Sr  Sr0  1  0.21758963  0.18999574  0.12103655  1
  Sr  Sr1  1  0.71758963  0.81000426  0.87896345  1
  Sr  Sr2  1  0.00356199  0.78558099  0.17018340  1
  Sr  Sr3  1  0.50356199  0.21441901  0.82981660  1
  P  P0  1  0.25151211  0.32231337  0.61809363  1
  P  P1  1  0.75151211  0.67768663  0.38190637  1
  P  P2  1  0.03687823  0.34033288  0.61536879  1
  P  P3  1  0.53687823  0.65966712  0.38463121  1
  P  P4  1  0.93785572  0.98621441  0.60261024  1
  P  P5  1  0.43785572  0.01378559  0.39738976  1
  P  P6  1  0.75829040  0.24427019  0.47845802  1
  P  P7  1  0.25829040  0.75572981  0.52154198  1
  P  P8  1  0.72589072  0.25880729  0.05450931  1
  P  P9  1  0.22589072  0.74119271  0.94549069  1
  P  P10  1  0.94762250  0.31915161  0.00139365  1
  P  P11  1  0.44762250  0.68084839  0.99860635  1
  O  O0  1  0.31447109  0.24448237  0.79115309  1
  O  O1  1  0.81447109  0.75551763  0.20884691  1
  O  O2  1  0.23891405  0.22459050  0.46391553  1
  O  O3  1  0.73891405  0.77540950  0.53608447  1
  O  O4  1  0.14211233  0.35113002  0.71329573  1
  O  O5  1  0.64211233  0.64886998  0.28670427  1
  O  O6  1  0.02570364  0.47956597  0.42845367  1
  O  O7  1  0.52570364  0.52043403  0.57154633  1
  O  O8  1  0.03298326  0.12425006  0.60794981  1
  O  O9  1  0.53298326  0.87574994  0.39205019  1
  O  O10  1  0.96661430  0.85260835  0.48929393  1
  O  O11  1  0.46661430  0.14739165  0.51070607  1
  O  O12  1  0.89736907  0.92137698  0.80189193  1
  O  O13  1  0.39736907  0.07862302  0.19810807  1
  O  O14  1  0.86359030  0.15172800  0.47135708  1
  O  O15  1  0.36359030  0.84827200  0.52864292  1
  O  O16  1  0.45694133  0.63661279  0.23371712  1
  O  O17  1  0.95694133  0.36338721  0.76628288  1
  O  O18  1  0.52471538  0.82906671  0.91197704  1
  O  O19  1  0.02471538  0.17093329  0.08802296  1
  O  O20  1  0.44150110  0.49251539  0.95515067  1
  O  O21  1  0.94150110  0.50748461  0.04484933  1
  O  O22  1  0.34161604  0.79187199  0.96303647  1
  O  O23  1  0.84161604  0.20812801  0.03696353  1
  O  O24  1  0.16543437  0.90751476  0.96878678  1
  O  O25  1  0.66543437  0.09248524  0.03121322  1
  O  O26  1  0.20026921  0.54469759  0.06235821  1
  O  O27  1  0.70026921  0.45530241  0.93764179  1
  O  O28  1  0.21201341  0.74272456  0.72159938  1
  O  O29  1  0.71201341  0.25727544  0.27840062  1
  O  O30  1  0.28333602  0.54300338  0.51988967  1
  O  O31  1  0.78333602  0.45699662  0.48011033  1
  O  O32  1  0.19341380  0.85248117  0.36037225  1
  O  O33  1  0.69341380  0.14751883  0.63962775  1
loop_
_geom_bond_atom_site_label_1
_geom_bond_atom_site_label_2
_geom_bond_distance
_geom_bond_site_symmetry_2
O0 P0 1.479153 1_555
O0 Sr3 2.530616 1_555
O0 Sr0 2.632280 1_556
O1 P1 1.479153 1_555
O1 Sr2 2.530616 1_655
O1 Sr1 2.632280 1_554
O2 P0 1.467440 1_555
O2 Sr0 2.554116 1_555
O3 P1 1.467440 1_555
O3 Sr1 2.554116 1_555
O4 P2 1.576072 1_555
O4 P0 1.642331 1_555
O4 Sr0 3.019883 1_556
O5 P3 1.576072 1_555
O5 P1 1.642331 1_555
O5 Sr1 3.019883 1_554
O6 P2 1.452588 1_555
O6 Sr2 2.486468 1_555
O7 P3 1.452588 1_555
O7 Sr3 2.486468 1_555
O8 P2 1.564176 1_555
O8 P4 1.611655 1_445
O9 P3 1.564176 1_555
O9 P5 1.611655 1_565
O10 P4 1.461595 1_555
O10 Sr2 2.510329 1_655
O11 P5 1.461595 1_555
O11 Sr3 2.510329 1_555
O12 P4 1.483384 1_555
O12 Sr1 2.532854 1_555
O12 Sr2 2.927034 1_656
O13 P5 1.483384 1_555
O13 Sr0 2.532854 1_555
O13 Sr3 2.927034 1_554
O14 P6 1.554892 1_555
O14 P4 1.636201 1_545
O15 P7 1.554892 1_555
O15 P5 1.636201 1_565
O16 P3 1.556850 1_555
O16 P11 1.637590 1_554
O17 P2 1.556850 1_655
O17 P10 1.637590 1_556
O18 P11 1.488189 1_555
O18 Sr1 2.580554 1_555
O18 Sr3 2.681506 1_565
O19 P10 1.488189 1_455
O19 Sr0 2.580554 1_555
O19 Sr2 2.681506 1_545
O20 P11 1.465560 1_555
O20 Sr3 2.531583 1_555
O21 P10 1.465560 1_555
O21 Sr2 2.531583 1_655
O22 P9 1.592546 1_555
O22 P11 1.604530 1_555
O23 P8 1.592546 1_555
O23 P10 1.604530 1_555
O24 P9 1.482923 1_555
O24 Sr2 2.609884 1_556
O24 Sr0 2.634814 1_566
O25 P8 1.482923 1_555
O25 Sr3 2.609884 1_554
O25 Sr1 2.634814 1_544
O26 P9 1.475664 1_554
O26 Sr0 2.474751 1_555
O27 P8 1.475664 1_556
O27 Sr1 2.474751 1_555
O28 P7 1.542288 1_555
O28 P9 1.615001 1_555
O29 P6 1.542288 1_555
O29 P8 1.615001 1_555
O30 P7 1.563348 1_555
O30 P0 1.608426 1_555
O31 P6 1.563348 1_555
O31 P1 1.608426 1_555
O32 P7 1.462255 1_555
O32 Sr0 2.589782 1_565
O32 Sr2 2.967032 1_555
O33 P6 1.462255 1_555
O33 Sr1 2.589782 1_545
O33 Sr3 2.967032 1_555
