# generated using pymatgen
data_Na14Ta4Ga4Si11SO48
_symmetry_space_group_name_H-M   'P 1'
_cell_length_a   17.97217767
_cell_length_b   8.97370803
_cell_length_c   22.24509172
_cell_angle_alpha   90.06173702
_cell_angle_beta   90.11891468
_cell_angle_gamma   119.99020266
_symmetry_Int_Tables_number   1
_chemical_formula_structural   Na14Ta4Ga4Si11SO48
_chemical_formula_sum   'Na42 Ta12 Ga12 Si33 S3 O144'
_cell_volume   3107.26367420
_cell_formula_units_Z   3
loop_
 _symmetry_equiv_pos_site_id
 _symmetry_equiv_pos_as_xyz
  1  'x, y, z'
loop_
 _atom_site_type_symbol
 _atom_site_label
 _atom_site_symmetry_multiplicity
 _atom_site_fract_x
 _atom_site_fract_y
 _atom_site_fract_z
 _atom_site_occupancy
  Na  Na0  1  0.32243931  0.99988281  0.24995852  1
  Na  Na1  1  0.82292231  0.00021546  0.24992985  1
  Na  Na2  1  0.31903933  0.63015571  0.74901711  1
  Na  Na3  1  0.82258448  0.64481459  0.74940418  1
  Na  Na4  1  0.49414656  0.36186601  0.74856154  1
  Na  Na5  1  0.68189267  0.00210283  0.75105428  1
  Na  Na6  1  0.14892809  0.32413120  0.58454836  1
  Na  Na7  1  0.65251170  0.33204506  0.58197584  1
  Na  Na8  1  0.01604028  0.70817759  0.58504394  1
  Na  Na9  1  0.51165581  0.69037099  0.58278112  1
  Na  Na10  1  0.33150057  0.97637227  0.58302012  1
  Na  Na11  1  0.83960774  0.97119796  0.58525695  1
  Na  Na12  1  0.14748079  0.95986657  0.08166123  1
  Na  Na13  1  0.64724246  0.95979898  0.08163975  1
  Na  Na14  1  0.33218464  0.70672785  0.08316788  1
  Na  Na15  1  0.83229908  0.70668069  0.08358606  1
  Na  Na16  1  0.02137527  0.33518409  0.08332306  1
  Na  Na17  1  0.52096271  0.33461120  0.08338103  1
  Na  Na18  1  0.48453765  0.67734162  0.91492241  1
  Na  Na19  1  0.98593214  0.67600039  0.91477859  1
  Na  Na20  1  0.35338264  0.02907978  0.91495973  1
  Na  Na21  1  0.85320152  0.02993137  0.91501901  1
  Na  Na22  1  0.16220946  0.29752891  0.91654526  1
  Na  Na23  1  0.66065118  0.29232605  0.91554169  1
  Na  Na24  1  0.47827999  0.29344863  0.41630185  1
  Na  Na25  1  0.97954919  0.29385109  0.41655192  1
  Na  Na26  1  0.16737663  0.04029592  0.41925408  1
  Na  Na27  1  0.66765545  0.03998233  0.41764790  1
  Na  Na28  1  0.35298010  0.66389575  0.41653169  1
  Na  Na29  1  0.85410384  0.66556456  0.41632606  1
  Na  Na30  1  0.00122674  0.00007850  0.50004261  1
  Na  Na31  1  0.49912941  0.99882873  0.49496180  1
  Na  Na32  1  0.00029578  0.00143034  0.00037900  1
  Na  Na33  1  0.49959570  0.00003783  0.99960498  1
  Na  Na34  1  0.33159275  0.32583205  0.82837451  1
  Na  Na35  1  0.83836557  0.33485956  0.83271018  1
  Na  Na36  1  0.33628651  0.34374776  0.33700817  1
  Na  Na37  1  0.83687768  0.34440852  0.33661802  1
  Na  Na38  1  0.16471124  0.65591784  0.16303711  1
  Na  Na39  1  0.66462833  0.65580945  0.16298279  1
  Na  Na40  1  0.16381921  0.67312109  0.66804049  1
  Na  Na41  1  0.66704092  0.66704775  0.66654886  1
  Ta  Ta0  1  0.49775663  0.99749619  0.64720789  1
  Ta  Ta1  1  0.83876080  0.33806433  0.68777618  1
  Ta  Ta2  1  0.33868849  0.34622968  0.18672356  1
  Ta  Ta3  1  0.83886671  0.34656599  0.18673380  1
  Ta  Ta4  1  0.33312717  0.33483756  0.98022538  1
  Ta  Ta5  1  0.83307619  0.33349010  0.98071519  1
  Ta  Ta6  1  0.16611940  0.66826793  0.51968562  1
  Ta  Ta7  1  0.66640606  0.66577203  0.51861042  1
  Ta  Ta8  1  0.16548409  0.65346779  0.31309339  1
  Ta  Ta9  1  0.66551665  0.65406279  0.31287357  1
  Ta  Ta10  1  0.16475156  0.67277030  0.81418547  1
  Ta  Ta11  1  0.66735754  0.66904561  0.81388151  1
  Ga  Ga0  1  0.99150404  0.99577627  0.35460050  1
  Ga  Ga1  1  0.49090873  0.99513173  0.35406831  1
  Ga  Ga2  1  0.99343961  0.99018276  0.85388909  1
  Ga  Ga3  1  0.49829613  0.99878857  0.85200902  1
  Ga  Ga4  1  0.99634474  0.98672234  0.64571135  1
  Ga  Ga5  1  0.99361008  0.00457092  0.14549741  1
  Ga  Ga6  1  0.49330143  0.00434531  0.14532743  1
  Ga  Ga7  1  0.33658215  0.32718923  0.68090577  1
  Ga  Ga8  1  0.33211528  0.33100013  0.48186958  1
  Ga  Ga9  1  0.83444094  0.33352515  0.48085544  1
  Ga  Ga10  1  0.16689559  0.66616454  0.01843553  1
  Ga  Ga11  1  0.66666517  0.66618960  0.01893219  1
  Si  Si0  1  0.35854011  0.71519019  0.25032422  1
  Si  Si1  1  0.85869463  0.71550204  0.25038151  1
  Si  Si2  1  0.00090645  0.28435426  0.24962096  1
  Si  Si3  1  0.50080872  0.28425147  0.24957675  1
  Si  Si4  1  0.64447430  0.28811118  0.75211439  1
  Si  Si5  1  0.00316826  0.72038255  0.74976808  1
  Si  Si6  1  0.49620566  0.70457792  0.75175436  1
  Si  Si7  1  0.35270491  0.00406381  0.75201446  1
  Si  Si8  1  0.86041619  0.00426506  0.75008126  1
  Si  Si9  1  0.47644390  0.33356603  0.58239675  1
  Si  Si10  1  0.97833955  0.32844361  0.58122536  1
  Si  Si11  1  0.18908756  0.05122138  0.58376011  1
  Si  Si12  1  0.69000184  0.04695761  0.58181830  1
  Si  Si13  1  0.33215991  0.61363591  0.58387670  1
  Si  Si14  1  0.83469975  0.62244821  0.58135864  1
  Si  Si15  1  0.48273431  0.63287895  0.08303259  1
  Si  Si16  1  0.98288880  0.63310511  0.08291224  1
  Si  Si17  1  0.33166051  0.03846607  0.08416989  1
  Si  Si18  1  0.83169212  0.03796457  0.08452068  1
  Si  Si19  1  0.18507498  0.33125426  0.08429945  1
  Si  Si20  1  0.68505769  0.33122975  0.08433418  1
  Si  Si21  1  0.31164507  0.67052597  0.91757472  1
  Si  Si22  1  0.81200510  0.66908460  0.91917166  1
  Si  Si23  1  0.02309761  0.37410939  0.91838440  1
  Si  Si24  1  0.52257387  0.37466569  0.91854184  1
  Si  Si25  1  0.16427205  0.95654019  0.91895221  1
  Si  Si26  1  0.66419675  0.95534842  0.91919671  1
  Si  Si27  1  0.31255010  0.96176620  0.41552978  1
  Si  Si28  1  0.81288155  0.96229378  0.41556095  1
  Si  Si29  1  0.16624586  0.36757363  0.41750285  1
  Si  Si30  1  0.66649164  0.36696910  0.41664348  1
  Si  Si31  1  0.01939761  0.66857637  0.41519738  1
  Si  Si32  1  0.51910343  0.66823779  0.41534289  1
  S  S0  1  0.14448435  0.00017981  0.25003072  1
  S  S1  1  0.64462016  0.00033269  0.25020533  1
  S  S2  1  0.14463805  0.28784570  0.75055479  1
  O  O0  1  0.10737736  0.02700262  0.30474864  1
  O  O1  1  0.60744285  0.02691018  0.30488574  1
  O  O2  1  0.41371077  0.79236607  0.31133756  1
  O  O3  1  0.91367989  0.79292979  0.31133362  1
  O  O4  1  0.48093551  0.16828332  0.30981197  1
  O  O5  1  0.98049621  0.16774714  0.30972592  1
  O  O6  1  0.10492474  0.18729433  0.80550440  1
  O  O7  1  0.60403978  0.16858682  0.80987549  1
  O  O8  1  0.48220956  0.79402982  0.80981825  1
  O  O9  1  0.98133672  0.79350277  0.80978787  1
  O  O10  1  0.41433872  0.03778009  0.80945858  1
  O  O11  1  0.91292233  0.03215450  0.81145687  1
  O  O12  1  0.39983125  0.96883884  0.69242052  1
  O  O13  1  0.89697263  0.96166277  0.69014461  1
  O  O14  1  0.09307141  0.21386430  0.69553743  1
  O  O15  1  0.58419083  0.20116237  0.69181464  1
  O  O16  1  0.01631102  0.82570925  0.68856401  1
  O  O17  1  0.51678622  0.83243820  0.69222567  1
  O  O18  1  0.39671897  0.83194425  0.19035359  1
  O  O19  1  0.89654308  0.83174042  0.19026446  1
  O  O20  1  0.01733455  0.20707218  0.18878455  1
  O  O21  1  0.51756634  0.20716750  0.18882168  1
  O  O22  1  0.09364999  0.97305805  0.19501641  1
  O  O23  1  0.59361127  0.97296578  0.19507686  1
  O  O24  1  0.44259876  0.37920568  0.64293958  1
  O  O25  1  0.93217835  0.36808511  0.63909197  1
  O  O26  1  0.25374810  0.12850564  0.64045352  1
  O  O27  1  0.74954433  0.13273240  0.64197635  1
  O  O28  1  0.31351260  0.50025633  0.64432426  1
  O  O29  1  0.81492401  0.49828815  0.64128553  1
  O  O30  1  0.43233437  0.49871294  0.13931859  1
  O  O31  1  0.93229347  0.49882165  0.13918956  1
  O  O32  1  0.31696125  0.13497218  0.14220337  1
  O  O33  1  0.81687396  0.13496804  0.14226271  1
  O  O34  1  0.25241488  0.36208498  0.13963289  1
  O  O35  1  0.75247663  0.36217353  0.13956804  1
  O  O36  1  0.23315972  0.30078873  0.02489297  1
  O  O37  1  0.73340391  0.30100872  0.02488385  1
  O  O38  1  0.41723153  0.53595326  0.02505919  1
  O  O39  1  0.91711053  0.53578265  0.02490805  1
  O  O40  1  0.34820851  0.16802768  0.02579604  1
  O  O41  1  0.84814664  0.16728165  0.02593698  1
  O  O42  1  0.22787811  0.16373777  0.52274767  1
  O  O43  1  0.72829283  0.16518280  0.52331961  1
  O  O44  1  0.35535525  0.54245559  0.52430480  1
  O  O45  1  0.85099842  0.53656791  0.52317604  1
  O  O46  1  0.41772008  0.29092039  0.52321067  1
  O  O47  1  0.91751146  0.29056313  0.52323376  1
  O  O48  1  0.26938152  0.70485127  0.97600601  1
  O  O49  1  0.76914803  0.70397177  0.97658874  1
  O  O50  1  0.08182466  0.45762545  0.97729526  1
  O  O51  1  0.58286393  0.46097113  0.97638016  1
  O  O52  1  0.14541339  0.83542017  0.97680489  1
  O  O53  1  0.64780050  0.83501591  0.97675109  1
  O  O54  1  0.26489019  0.83334748  0.47408745  1
  O  O55  1  0.76448917  0.83306892  0.47421594  1
  O  O56  1  0.14940825  0.46475988  0.47531997  1
  O  O57  1  0.64976511  0.46399333  0.47486657  1
  O  O58  1  0.08237464  0.69819323  0.47462449  1
  O  O59  1  0.58236048  0.69868590  0.47530856  1
  O  O60  1  0.07113170  0.63745763  0.36009281  1
  O  O61  1  0.57154803  0.63829909  0.36052846  1
  O  O62  1  0.24960023  0.86491105  0.35765411  1
  O  O63  1  0.74934065  0.86521618  0.35800021  1
  O  O64  1  0.18271956  0.50107850  0.36087508  1
  O  O65  1  0.68276648  0.50122495  0.36067145  1
  O  O66  1  0.06861829  0.50488511  0.86058088  1
  O  O67  1  0.56719234  0.50179191  0.85856188  1
  O  O68  1  0.18478427  0.86538176  0.86066612  1
  O  O69  1  0.68376818  0.86790570  0.85887029  1
  O  O70  1  0.24859110  0.62953024  0.85787552  1
  O  O71  1  0.75002320  0.63218179  0.85845299  1
  O  O72  1  0.01582395  0.84474223  0.41034556  1
  O  O73  1  0.51620830  0.84528835  0.41080148  1
  O  O74  1  0.40524919  0.97168621  0.41410752  1
  O  O75  1  0.90509982  0.97167455  0.41415488  1
  O  O76  1  0.07988999  0.18352920  0.40949582  1
  O  O77  1  0.57972591  0.18308366  0.40976684  1
  O  O78  1  0.01204538  0.18469031  0.90948169  1
  O  O79  1  0.51068664  0.18504696  0.91042079  1
  O  O80  1  0.08273626  0.98380318  0.90788540  1
  O  O81  1  0.58155823  0.97939072  0.91104877  1
  O  O82  1  0.40709959  0.83561163  0.91073777  1
  O  O83  1  0.90727775  0.83460659  0.91260503  1
  O  O84  1  0.48986215  0.16378130  0.59010345  1
  O  O85  1  0.99175846  0.16512516  0.59210397  1
  O  O86  1  0.09246859  0.02453593  0.59010351  1
  O  O87  1  0.59282848  0.02098734  0.59076899  1
  O  O88  1  0.41737171  0.81267092  0.59104463  1
  O  O89  1  0.91719007  0.81384121  0.58731680  1
  O  O90  1  0.48815212  0.81681512  0.09069175  1
  O  O91  1  0.98795545  0.81664895  0.09056680  1
  O  O92  1  0.41924028  0.02856540  0.08602840  1
  O  O93  1  0.91933163  0.02849729  0.08602880  1
  O  O94  1  0.09347847  0.15510925  0.08940390  1
  O  O95  1  0.59357048  0.15518825  0.08938527  1
  O  O96  1  0.34588700  0.17574809  0.74361357  1
  O  O97  1  0.84118431  0.16623286  0.74351086  1
  O  O98  1  0.23290515  0.31483180  0.74662574  1
  O  O99  1  0.74075770  0.31275703  0.74337451  1
  O  O100  1  0.41193240  0.51570739  0.74420581  1
  O  O101  1  0.91462545  0.52494693  0.74286061  1
  O  O102  1  0.34266901  0.51772566  0.24304287  1
  O  O103  1  0.84257617  0.51776086  0.24306140  1
  O  O104  1  0.41219873  0.30056627  0.24279405  1
  O  O105  1  0.91219290  0.30080559  0.24272005  1
  O  O106  1  0.23430769  0.15397429  0.24464825  1
  O  O107  1  0.73431501  0.15386193  0.24478882  1
  O  O108  1  0.31913432  0.49334626  0.92245173  1
  O  O109  1  0.81920495  0.49228160  0.92192607  1
  O  O110  1  0.42735048  0.36163657  0.92251402  1
  O  O111  1  0.92719096  0.35950345  0.92265042  1
  O  O112  1  0.25340555  0.14619301  0.92243910  1
  O  O113  1  0.75363274  0.14580903  0.92229363  1
  O  O114  1  0.31927230  0.14733533  0.42076020  1
  O  O115  1  0.81865260  0.14684933  0.42132021  1
  O  O116  1  0.25417506  0.36154974  0.42149958  1
  O  O117  1  0.75396650  0.36012236  0.42110513  1
  O  O118  1  0.42744367  0.49462172  0.42110465  1
  O  O119  1  0.92740143  0.49457417  0.42082878  1
  O  O120  1  0.18030709  0.50547548  0.07909380  1
  O  O121  1  0.68030989  0.50539690  0.07900718  1
  O  O122  1  0.07372810  0.63959475  0.07870450  1
  O  O123  1  0.57371797  0.63956795  0.07884291  1
  O  O124  1  0.24552849  0.85312484  0.07876892  1
  O  O125  1  0.74557574  0.85287312  0.07909031  1
  O  O126  1  0.17813495  0.85394898  0.57603882  1
  O  O127  1  0.67882179  0.85288624  0.57803922  1
  O  O128  1  0.24860246  0.64405774  0.57684462  1
  O  O129  1  0.74659751  0.63948661  0.57739349  1
  O  O130  1  0.07317952  0.50618906  0.57771328  1
  O  O131  1  0.57463234  0.50271557  0.57612845  1
  O  O132  1  0.15743458  0.84611983  0.25523229  1
  O  O133  1  0.65742382  0.84600672  0.25537351  1
  O  O134  1  0.26179136  0.69918400  0.25734718  1
  O  O135  1  0.76177230  0.69929531  0.25746414  1
  O  O136  1  0.08367087  0.48204469  0.25694179  1
  O  O137  1  0.58363454  0.48210644  0.25710980  1
  O  O138  1  0.15504184  0.46831530  0.75572977  1
  O  O139  1  0.65435881  0.48092500  0.75505505  1
  O  O140  1  0.08503882  0.68662072  0.75688390  1
  O  O141  1  0.58551071  0.69130219  0.75529662  1
  O  O142  1  0.26065146  0.81943282  0.75556862  1
  O  O143  1  0.76068851  0.83116831  0.75668594  1
loop_
_geom_bond_atom_site_label_1
_geom_bond_atom_site_label_2
_geom_bond_distance
_geom_bond_site_symmetry_2
Na0 O134 2.357484 1_555
Na0 O104 2.357711 1_565
Na0 O132 2.573515 1_555
Na0 O106 2.573699 1_565
Na0 O32 2.711008 1_565
Na0 O62 2.711870 1_555
Na0 O18 2.797431 1_555
Na0 O4 2.801260 1_565
Na1 O105 2.356138 1_555
Na1 O135 2.358559 1_545
Na1 O107 2.577722 1_555
Na1 O133 2.581390 1_545
Na1 O33 2.710528 1_555
Na1 O63 2.722809 1_545
Na1 O5 2.788054 1_555
Na1 O19 2.792973 1_545
Na2 O100 2.359670 1_555
Na2 O142 2.406092 1_555
Na2 O98 2.454850 1_555
Na2 O138 2.557666 1_555
Na2 O28 2.582615 1_555
Na2 O70 2.733622 1_555
Na2 O8 2.873961 1_555
Na2 O12 2.921393 1_555
Na3 O101 2.386208 1_555
Na3 O143 2.433123 1_555
Na3 O99 2.584053 1_555
Na3 O139 2.622290 1_555
Na3 O29 2.709846 1_555
Na3 O71 2.732019 1_555
Na3 O13 2.797270 1_555
Na3 O9 2.810588 1_555
Na4 O96 2.334706 1_555
Na4 O100 2.477370 1_555
Na4 O139 2.524998 1_555
Na4 O24 2.557112 1_555
Na4 O141 2.569706 1_555
Na4 O67 2.760409 1_555
Na4 O10 2.862994 1_555
Na4 O15 2.937628 1_555
Na5 O141 2.441238 1_545
Na5 O99 2.444017 1_555
Na5 O97 2.486050 1_555
Na5 O143 2.558376 1_545
Na5 O69 2.692587 1_545
Na5 O27 2.708063 1_555
Na5 O7 2.827533 1_555
Na5 O17 2.880755 1_545
Na6 O86 2.355177 1_555
Na6 O85 2.452806 1_455
Na6 O128 2.518245 1_555
Na6 O130 2.601664 1_555
Na6 O14 2.665550 1_555
Na6 O56 2.737213 1_555
Na6 O42 2.832031 1_555
Na6 O28 2.884625 1_555
Na7 O129 2.412203 1_555
Na7 O87 2.447291 1_555
Na7 O84 2.539251 1_555
Na7 O131 2.542498 1_555
Na7 O57 2.673110 1_555
Na7 O15 2.726561 1_555
Na7 O43 2.800266 1_555
Na7 O29 2.848296 1_555
Na8 O89 2.396260 1_455
Na8 O86 2.461533 1_565
Na8 O130 2.495496 1_555
Na8 O16 2.530799 1_555
Na8 O126 2.536004 1_555
Na8 O58 2.753386 1_555
Na8 O25 2.906580 1_455
Na8 O45 2.911314 1_455
Na9 O88 2.443265 1_555
Na9 O131 2.458499 1_555
Na9 O87 2.575445 1_565
Na9 O127 2.604903 1_555
Na9 O59 2.693347 1_555
Na9 O17 2.726895 1_555
Na9 O44 2.756520 1_555
Na9 O24 2.771030 1_555
Na10 O126 2.408107 1_555
Na10 O84 2.483136 1_565
Na10 O128 2.586140 1_555
Na10 O88 2.614853 1_555
Na10 O26 2.712845 1_565
Na10 O54 2.719857 1_555
Na10 O12 2.739733 1_555
Na10 O46 2.789760 1_565
Na11 O85 2.401974 1_565
Na11 O89 2.430713 1_555
Na11 O127 2.536504 1_555
Na11 O13 2.567654 1_555
Na11 O129 2.590133 1_555
Na11 O55 2.786964 1_555
Na11 O47 2.842957 1_565
Na11 O27 2.943353 1_565
Na12 O124 2.390499 1_555
Na12 O94 2.396094 1_565
Na12 O122 2.492416 1_555
Na12 O91 2.496014 1_455
Na12 O52 2.577166 1_554
Na12 O22 2.726244 1_555
Na12 O36 2.938069 1_565
Na12 O32 2.958754 1_565
Na13 O95 2.392755 1_565
Na13 O125 2.396381 1_555
Na13 O90 2.489440 1_555
Na13 O123 2.492195 1_555
Na13 O53 2.589163 1_554
Na13 O23 2.726528 1_555
Na13 O37 2.940011 1_565
Na13 O33 2.961649 1_565
Na14 O120 2.406421 1_555
Na14 O90 2.467905 1_555
Na14 O124 2.491179 1_555
Na14 O92 2.504964 1_565
Na14 O48 2.631850 1_554
Na14 O18 2.640613 1_555
Na14 O38 2.949787 1_555
Na14 O34 2.963323 1_555
Na15 O121 2.408409 1_555
Na15 O91 2.462095 1_555
Na15 O125 2.490795 1_555
Na15 O93 2.504591 1_565
Na15 O19 2.628980 1_555
Na15 O49 2.629638 1_554
Na15 O39 2.952938 1_555
Na15 O35 2.957749 1_555
Na16 O122 2.406141 1_555
Na16 O93 2.428211 1_455
Na16 O120 2.478027 1_555
Na16 O94 2.530203 1_555
Na16 O20 2.598792 1_555
Na16 O50 2.602577 1_554
Na16 O31 2.935730 1_455
Na16 O41 2.980319 1_455
Na17 O123 2.409398 1_555
Na17 O92 2.422738 1_555
Na17 O121 2.484645 1_555
Na17 O95 2.532429 1_555
Na17 O21 2.598033 1_555
Na17 O51 2.635277 1_554
Na17 O30 2.933136 1_555
Na17 O40 2.975678 1_555
Na18 O81 2.381372 1_555
Na18 O82 2.436911 1_555
Na18 O110 2.490354 1_555
Na18 O8 2.571649 1_555
Na18 O108 2.585894 1_555
Na18 O38 2.749587 1_556
Na18 O53 2.886484 1_555
Na18 O67 2.933108 1_555
Na19 O80 2.424389 1_655
Na19 O83 2.457139 1_555
Na19 O111 2.493191 1_555
Na19 O9 2.581648 1_555
Na19 O109 2.604985 1_555
Na19 O39 2.752850 1_556
Na19 O52 2.836509 1_655
Na19 O66 2.881741 1_655
Na20 O82 2.372884 1_545
Na20 O79 2.451000 1_555
Na20 O112 2.499862 1_555
Na20 O10 2.576755 1_555
Na20 O110 2.594858 1_555
Na20 O40 2.784349 1_556
Na20 O48 2.866092 1_545
Na20 O68 2.886029 1_545
Na21 O83 2.392208 1_545
Na21 O78 2.476278 1_655
Na21 O113 2.484099 1_555
Na21 O11 2.539413 1_555
Na21 O111 2.571030 1_555
Na21 O41 2.778794 1_556
Na21 O49 2.883353 1_545
Na21 O69 2.915615 1_545
Na22 O78 2.366300 1_555
Na22 O80 2.445564 1_545
Na22 O108 2.470353 1_555
Na22 O112 2.602389 1_555
Na22 O6 2.665707 1_555
Na22 O36 2.717665 1_556
Na22 O50 2.838346 1_555
Na22 O70 2.895259 1_555
Na23 O79 2.368210 1_555
Na23 O81 2.434076 1_545
Na23 O109 2.499202 1_555
Na23 O7 2.578427 1_555
Na23 O113 2.596083 1_555
Na23 O37 2.741614 1_556
Na23 O51 2.862657 1_555
Na23 O71 2.934866 1_555
Na24 O118 2.398752 1_555
Na24 O77 2.476286 1_555
Na24 O114 2.480151 1_555
Na24 O74 2.504588 1_545
Na24 O46 2.612874 1_555
Na24 O4 2.631302 1_555
Na24 O61 2.959175 1_555
Na24 O57 2.966755 1_555
Na25 O119 2.412358 1_555
Na25 O76 2.458127 1_655
Na25 O75 2.506761 1_545
Na25 O115 2.510236 1_555
Na25 O47 2.618027 1_555
Na25 O5 2.634680 1_555
Na25 O56 2.946013 1_655
Na25 O60 2.955893 1_655
Na26 O114 2.398801 1_555
Na26 O72 2.399201 1_545
Na26 O76 2.488164 1_555
Na26 O116 2.500062 1_555
Na26 O42 2.547471 1_555
Na26 O0 2.743081 1_555
Na26 O58 2.933068 1_545
Na26 O62 2.977792 1_545
Na27 O115 2.384949 1_555
Na27 O73 2.393273 1_545
Na27 O77 2.491011 1_555
Na27 O117 2.491858 1_555
Na27 O43 2.595235 1_555
Na27 O1 2.708893 1_555
Na27 O63 2.946291 1_545
Na27 O59 2.949293 1_545
Na28 O116 2.389925 1_555
Na28 O74 2.433272 1_555
Na28 O118 2.478054 1_555
Na28 O73 2.549497 1_555
Na28 O2 2.598981 1_555
Na28 O44 2.643627 1_555
Na28 O64 2.922634 1_555
Na28 O54 2.978055 1_555
Na29 O117 2.415162 1_555
Na29 O75 2.423144 1_555
Na29 O119 2.473923 1_555
Na29 O72 2.526007 1_655
Na29 O3 2.588501 1_555
Na29 O45 2.633361 1_555
Na29 O65 2.937710 1_555
Na29 O55 2.989368 1_555
Na30 O75 2.498991 1_445
Na30 O89 2.517744 1_445
Na30 O72 2.520905 1_545
Na30 O86 2.525163 1_555
Na30 O76 2.541290 1_555
Na30 O85 2.581350 1_455
Na31 O74 2.390963 1_555
Na31 O73 2.432529 1_555
Na31 O77 2.459176 1_565
Na31 O84 2.634257 1_565
Na31 O87 2.658371 1_565
Na31 O88 2.661746 1_555
Na32 O93 2.484004 1_455
Na32 O94 2.509941 1_555
Na32 O83 2.515246 1_444
Na32 O91 2.542653 1_445
Na32 O78 2.549388 1_554
Na32 O80 2.588424 1_544
Na33 O92 2.495434 1_556
Na33 O81 2.523681 1_545
Na33 O82 2.525175 1_545
Na33 O95 2.531572 1_556
Na33 O79 2.531771 1_555
Na33 O90 2.553846 1_546
Na34 O96 2.403641 1_555
Na34 O100 2.460141 1_555
Na34 O98 2.504732 1_555
Na34 O112 2.589709 1_555
Na34 O110 2.623209 1_555
Na34 O108 2.649734 1_555
Na35 O111 2.496623 1_555
Na35 O97 2.510016 1_555
Na35 O101 2.542542 1_555
Na35 O109 2.556560 1_555
Na35 O113 2.570114 1_555
Na35 O99 2.588972 1_555
Na36 O118 2.404389 1_555
Na36 O116 2.445896 1_555
Na36 O114 2.478257 1_555
Na36 O102 2.578526 1_555
Na36 O104 2.634863 1_555
Na36 O106 2.708685 1_555
Na37 O119 2.400437 1_555
Na37 O117 2.448185 1_555
Na37 O115 2.495943 1_555
Na37 O103 2.571051 1_555
Na37 O105 2.624438 1_555
Na37 O107 2.705590 1_555
Na38 O120 2.400640 1_555
Na38 O122 2.441675 1_555
Na38 O124 2.490819 1_555
Na38 O136 2.582092 1_555
Na38 O134 2.627174 1_555
Na38 O132 2.711678 1_555
Na39 O121 2.401648 1_555
Na39 O123 2.437755 1_555
Na39 O125 2.484518 1_555
Na39 O137 2.585390 1_555
Na39 O135 2.630523 1_555
Na39 O133 2.714467 1_555
Na40 O140 2.471390 1_555
Na40 O142 2.497944 1_555
Na40 O130 2.544695 1_555
Na40 O126 2.545550 1_555
Na40 O128 2.629494 1_555
Na40 O138 2.631894 1_555
Na41 O139 2.519170 1_555
Na41 O127 2.521572 1_555
Na41 O129 2.530436 1_555
Na41 O141 2.534124 1_555
Na41 O131 2.551467 1_555
Na41 O143 2.554170 1_555
Ga0 O3 1.908268 1_555
Ga0 O5 1.929987 1_565
Ga0 O75 1.971462 1_555
Ga0 O72 2.039436 1_655
Ga0 O76 2.040870 1_665
Ga0 O0 2.252106 1_665
Ga1 O2 1.899033 1_555
Ga1 O4 1.922670 1_565
Ga1 O74 1.970633 1_555
Ga1 O73 2.054276 1_555
Ga1 O77 2.055159 1_565
Ga1 O1 2.253401 1_565
Ga2 O11 1.914889 1_565
Ga2 O9 1.932972 1_555
Ga2 O83 1.975874 1_555
Ga2 O78 2.024329 1_665
Ga2 O80 2.026228 1_655
Ga2 O6 2.184439 1_665
Ga3 O8 1.950572 1_555
Ga3 O10 1.953900 1_565
Ga3 O7 1.981781 1_565
Ga3 O82 2.037396 1_555
Ga3 O79 2.038054 1_565
Ga3 O81 2.060856 1_555
Ga4 O16 1.909198 1_655
Ga4 O13 1.955355 1_555
Ga4 O89 1.974736 1_555
Ga4 O86 2.013331 1_665
Ga4 O85 2.031618 1_565
Ga4 O14 2.202276 1_665
Ga5 O20 1.905555 1_655
Ga5 O19 1.935492 1_545
Ga5 O93 1.964185 1_555
Ga5 O91 2.042296 1_545
Ga5 O94 2.047538 1_655
Ga5 O22 2.242029 1_645
Ga6 O21 1.907855 1_555
Ga6 O18 1.932771 1_545
Ga6 O92 1.959975 1_555
Ga6 O90 2.038895 1_545
Ga6 O95 2.050043 1_555
Ga6 O23 2.248102 1_545
Ga7 O26 1.882113 1_555
Ga7 O24 1.918316 1_555
Ga7 O28 1.972593 1_555
Ga7 O96 2.012706 1_555
Ga7 O100 2.091709 1_555
Ga7 O98 2.329500 1_555
Ga8 O42 1.946351 1_555
Ga8 O44 1.966821 1_555
Ga8 O46 1.972335 1_555
Ga8 O116 2.053686 1_555
Ga8 O114 2.056982 1_555
Ga8 O118 2.101751 1_555
Ga9 O45 1.935922 1_555
Ga9 O47 1.958726 1_555
Ga9 O43 1.985766 1_555
Ga9 O115 2.039397 1_555
Ga9 O117 2.062327 1_555
Ga9 O119 2.064586 1_555
Ga10 O48 1.942324 1_554
Ga10 O50 1.951234 1_554
Ga10 O52 1.975186 1_554
Ga10 O124 2.056748 1_555
Ga10 O122 2.066127 1_555
Ga10 O120 2.075679 1_555
Ga11 O51 1.942490 1_554
Ga11 O49 1.943752 1_554
Ga11 O53 1.950859 1_554
Ga11 O125 2.054442 1_555
Ga11 O123 2.057824 1_555
Ga11 O121 2.069912 1_555
O0 S0 1.465429 1_555
O1 S1 1.464558 1_555
O2 Si0 1.615796 1_555
O3 Si1 1.613609 1_555
O4 Si3 1.624622 1_555
O5 Si2 1.624349 1_655
O6 S2 1.476459 1_555
O7 Si4 1.599099 1_555
O8 Si6 1.605279 1_555
O9 Si5 1.620113 1_655
O10 Si7 1.615449 1_555
O11 Si8 1.604677 1_555
O12 Si7 1.687031 1_565
O12 Ta0 1.931449 1_555
O13 Si8 1.615275 1_565
O14 S2 1.475108 1_555
O15 Si4 1.651819 1_555
O15 Ta0 1.972165 1_545
O16 Si5 1.607395 1_555
O17 Si6 1.669700 1_555
O17 Ta0 1.954971 1_555
O18 Si0 1.623682 1_555
O19 Si1 1.623759 1_555
O20 Si2 1.613663 1_555
O21 Si3 1.613596 1_555
O22 S0 1.471060 1_565
O23 S1 1.474532 1_565
O24 Si9 1.613322 1_555
O25 Si10 1.664421 1_555
O25 Ta1 1.902684 1_555
O26 Si11 1.615012 1_555
O27 Si12 1.642203 1_555
O27 Ta1 2.009896 1_555
O28 Si13 1.618501 1_555
O29 Si14 1.659548 1_555
O29 Ta1 1.984309 1_555
O30 Si15 1.659957 1_555
O30 Ta2 1.877540 1_555
O31 Si16 1.660940 1_555
O31 Ta3 1.876619 1_555
O32 Si17 1.647445 1_555
O32 Ta2 1.995370 1_555
O33 Si18 1.645996 1_555
O33 Ta3 1.996099 1_555
O34 Si19 1.647633 1_555
O34 Ta2 1.932829 1_555
O35 Si20 1.646702 1_555
O35 Ta3 1.934430 1_555
O36 Si19 1.675733 1_555
O36 Ta4 1.941091 1_554
O37 Si20 1.678399 1_555
O37 Ta5 1.935235 1_554
O38 Si15 1.665283 1_555
O38 Ta4 1.949172 1_554
O39 Si16 1.668613 1_555
O39 Ta5 1.947285 1_554
O40 Si17 1.669002 1_555
O40 Ta4 1.936377 1_554
O41 Si18 1.671593 1_555
O41 Ta5 1.927658 1_554
O42 Si11 1.628110 1_555
O43 Si12 1.602918 1_555
O44 Si13 1.613865 1_555
O45 Si14 1.606233 1_555
O46 Si9 1.607209 1_555
O47 Si10 1.611377 1_555
O48 Si21 1.611974 1_555
O49 Si22 1.602162 1_555
O50 Si23 1.610706 1_555
O51 Si24 1.606986 1_555
O52 Si25 1.609030 1_555
O53 Si26 1.605764 1_555
O54 Si27 1.667209 1_555
O54 Ta6 1.938114 1_555
O55 Si28 1.674314 1_555
O55 Ta7 1.923864 1_555
O56 Si29 1.664143 1_555
O56 Ta6 1.961087 1_555
O57 Si30 1.669358 1_555
O57 Ta7 1.941290 1_555
O58 Si31 1.670801 1_555
O58 Ta6 1.934043 1_555
O59 Si32 1.681935 1_555
O59 Ta7 1.933191 1_555
O60 Si31 1.645788 1_555
O60 Ta8 1.937347 1_555
O61 Si32 1.644567 1_555
O61 Ta9 1.940319 1_555
O62 Si27 1.643599 1_555
O62 Ta8 1.997588 1_555
O63 Si28 1.643023 1_555
O63 Ta9 2.000884 1_555
O64 Si29 1.661314 1_555
O64 Ta8 1.876435 1_555
O65 Si30 1.655225 1_555
O65 Ta9 1.880044 1_555
O66 Si23 1.657624 1_555
O66 Ta10 1.930937 1_555
O67 Si24 1.678657 1_555
O67 Ta11 1.946991 1_555
O68 Si25 1.669541 1_555
O68 Ta10 1.886453 1_555
O69 Si26 1.678077 1_555
O69 Ta11 1.934373 1_555
O70 Si21 1.661046 1_555
O70 Ta10 1.986137 1_555
O71 Si22 1.673000 1_555
O71 Ta11 1.945679 1_555
O72 Si31 1.617633 1_555
O73 Si32 1.618693 1_555
O74 Si27 1.623718 1_555
O75 Si28 1.617301 1_555
O76 Si29 1.613643 1_555
O77 Si30 1.613702 1_555
O78 Si23 1.621587 1_555
O79 Si24 1.615371 1_555
O80 Si25 1.620128 1_555
O81 Si26 1.613847 1_555
O82 Si21 1.619162 1_555
O83 Si22 1.618141 1_555
O84 Si9 1.666315 1_555
O84 Ta0 2.018764 1_545
O85 Si10 1.618175 1_555
O86 Si11 1.636434 1_555
O87 Si12 1.654869 1_555
O87 Ta0 2.046842 1_545
O88 Si13 1.680693 1_555
O88 Ta0 1.997876 1_555
O89 Si14 1.618172 1_555
O90 Si15 1.612951 1_555
O91 Si16 1.612302 1_555
O92 Si17 1.620684 1_555
O93 Si18 1.619493 1_555
O94 Si19 1.619014 1_555
O95 Si20 1.617454 1_555
O96 Si7 1.616407 1_555
O97 Si8 1.660066 1_555
O97 Ta1 1.996936 1_555
O98 S2 1.483028 1_555
O99 Si4 1.643158 1_555
O99 Ta1 2.072021 1_555
O100 Si6 1.620740 1_555
O101 Si5 1.685244 1_655
O101 Ta1 1.968679 1_555
O102 Si0 1.655730 1_555
O102 Ta2 1.956653 1_555
O103 Si1 1.656647 1_555
O103 Ta3 1.956445 1_555
O104 Si3 1.677031 1_555
O104 Ta2 2.001131 1_555
O105 Si2 1.679802 1_655
O105 Ta3 1.997913 1_555
O106 S0 1.516228 1_555
O106 Ta2 2.221554 1_555
O107 S1 1.513982 1_555
O107 Ta3 2.226078 1_555
O108 Si21 1.664965 1_555
O108 Ta4 2.024447 1_555
O109 Si22 1.656244 1_555
O109 Ta5 2.039774 1_555
O110 Si24 1.658580 1_555
O110 Ta4 2.043558 1_555
O111 Si23 1.664936 1_655
O111 Ta5 2.049110 1_555
O112 Si25 1.655993 1_545
O112 Ta4 2.033196 1_555
O113 Si26 1.662048 1_545
O113 Ta5 2.036574 1_555
O114 Si27 1.612318 1_545
O115 Si28 1.611757 1_545
O116 Si29 1.610259 1_555
O117 Si30 1.606579 1_555
O118 Si32 1.610272 1_555
O119 Si31 1.614880 1_655
O120 Si19 1.612229 1_555
O121 Si20 1.611750 1_555
O122 Si16 1.607193 1_455
O123 Si15 1.608915 1_555
O124 Si17 1.613030 1_565
O125 Si18 1.611718 1_565
O126 Si11 1.689062 1_565
O126 Ta6 2.007273 1_555
O127 Si12 1.652329 1_565
O127 Ta7 2.058229 1_555
O128 Si13 1.662253 1_555
O128 Ta6 2.043569 1_555
O129 Si14 1.667259 1_555
O129 Ta7 2.043365 1_555
O130 Si10 1.654816 1_455
O130 Ta6 2.038621 1_555
O131 Si9 1.661680 1_555
O131 Ta7 2.024516 1_555
O132 S0 1.516819 1_565
O132 Ta8 2.218204 1_555
O133 S1 1.517518 1_565
O133 Ta9 2.208730 1_555
O134 Si0 1.679260 1_555
O134 Ta8 2.000522 1_555
O135 Si1 1.681707 1_555
O135 Ta9 1.996152 1_555
O136 Si2 1.657276 1_555
O136 Ta8 1.953362 1_555
O137 Si3 1.659050 1_555
O137 Ta9 1.950295 1_555
O138 S2 1.538741 1_555
O138 Ta10 2.182065 1_555
O139 Si4 1.649862 1_555
O139 Ta11 2.053421 1_555
O140 Si5 1.651252 1_555
O140 Ta10 1.965553 1_555
O141 Si6 1.669459 1_555
O141 Ta11 2.046542 1_555
O142 Si7 1.657995 1_565
O142 Ta10 2.036736 1_555
O143 Si8 1.692681 1_565
O143 Ta11 2.030315 1_555
