# generated using pymatgen
data_NaMgGa(SO4)3
_symmetry_space_group_name_H-M   'P 1'
_cell_length_a   8.53918022
_cell_length_b   8.53917995
_cell_length_c   22.30266937
_cell_angle_alpha   90.00000000
_cell_angle_beta   90.00000000
_cell_angle_gamma   120.00000103
_symmetry_Int_Tables_number   1
_chemical_formula_structural   NaMgGa(SO4)3
_chemical_formula_sum   'Na6 Mg6 Ga6 S18 O72'
_cell_volume   1408.37990125
_cell_formula_units_Z   6
loop_
 _symmetry_equiv_pos_site_id
 _symmetry_equiv_pos_as_xyz
  1  'x, y, z'
loop_
 _atom_site_type_symbol
 _atom_site_label
 _atom_site_symmetry_multiplicity
 _atom_site_fract_x
 _atom_site_fract_y
 _atom_site_fract_z
 _atom_site_occupancy
  Na  Na0  1  0.00000000  -0.00000000  0.49897711  1
  Na  Na1  1  0.00000000  -0.00000000  0.99897711  1
  Na  Na2  1  0.66666700  0.33333300  0.83231011  1
  Na  Na3  1  0.66666700  0.33333300  0.33231011  1
  Na  Na4  1  0.33333300  0.66666700  0.16564411  1
  Na  Na5  1  0.33333300  0.66666700  0.66564411  1
  Mg  Mg0  1  0.00000000  -0.00000000  0.35232127  1
  Mg  Mg1  1  0.00000000  -0.00000000  0.85232127  1
  Mg  Mg2  1  0.66666700  0.33333300  0.68565427  1
  Mg  Mg3  1  0.66666700  0.33333300  0.18565427  1
  Mg  Mg4  1  0.33333300  0.66666700  0.01898827  1
  Mg  Mg5  1  0.33333300  0.66666700  0.51898827  1
  Ga  Ga0  1  0.00000000  -0.00000000  0.65018056  1
  Ga  Ga1  1  0.00000000  -0.00000000  0.15018056  1
  Ga  Ga2  1  0.66666700  0.33333300  0.98351356  1
  Ga  Ga3  1  0.66666700  0.33333300  0.48351356  1
  Ga  Ga4  1  0.33333300  0.66666700  0.31684756  1
  Ga  Ga5  1  0.33333300  0.66666700  0.81684756  1
  S  S0  1  0.29050294  0.99638797  0.25086521  1
  S  S1  1  0.70588503  0.70949706  0.25086521  1
  S  S2  1  0.00361203  0.29411497  0.25086521  1
  S  S3  1  0.29050294  0.29411497  0.75086521  1
  S  S4  1  0.00361203  0.70949706  0.75086521  1
  S  S5  1  0.70588503  0.99638797  0.75086521  1
  S  S6  1  0.95716994  0.32972097  0.58419821  1
  S  S7  1  0.37255203  0.04283006  0.58419821  1
  S  S8  1  0.67027903  0.62744797  0.58419821  1
  S  S9  1  0.95716994  0.62744797  0.08419821  1
  S  S10  1  0.67027903  0.04283006  0.08419821  1
  S  S11  1  0.37255203  0.32972097  0.08419821  1
  S  S12  1  0.62383594  0.66305497  0.91753221  1
  S  S13  1  0.03921803  0.37616406  0.91753221  1
  S  S14  1  0.33694503  0.96078197  0.91753221  1
  S  S15  1  0.62383594  0.96078197  0.41753221  1
  S  S16  1  0.33694503  0.37616406  0.41753221  1
  S  S17  1  0.03921803  0.66305497  0.41753221  1
  O  O0  1  0.20642817  0.02164838  0.30383925  1
  O  O1  1  0.81522022  0.79357183  0.30383925  1
  O  O2  1  0.97835162  0.18477978  0.30383925  1
  O  O3  1  0.20642817  0.18477978  0.80383925  1
  O  O4  1  0.97835162  0.79357183  0.80383925  1
  O  O5  1  0.81522022  0.02164838  0.80383925  1
  O  O6  1  0.78468319  0.96376925  0.69506098  1
  O  O7  1  0.17908606  0.21531681  0.69506098  1
  O  O8  1  0.03623075  0.82091394  0.69506098  1
  O  O9  1  0.78468319  0.82091394  0.19506098  1
  O  O10  1  0.03623075  0.21531681  0.19506098  1
  O  O11  1  0.17908606  0.96376925  0.19506098  1
  O  O12  1  0.87309517  0.35498138  0.63717225  1
  O  O13  1  0.48188722  0.12690483  0.63717225  1
  O  O14  1  0.64501862  0.51811278  0.63717225  1
  O  O15  1  0.87309517  0.51811278  0.13717225  1
  O  O16  1  0.64501862  0.12690483  0.13717225  1
  O  O17  1  0.48188722  0.35498138  0.13717225  1
  O  O18  1  0.45135019  0.29710225  0.02839398  1
  O  O19  1  0.84575306  0.54864981  0.02839398  1
  O  O20  1  0.70289775  0.15424694  0.02839398  1
  O  O21  1  0.45135019  0.15424694  0.52839398  1
  O  O22  1  0.70289775  0.54864981  0.52839398  1
  O  O23  1  0.84575306  0.29710225  0.52839398  1
  O  O24  1  0.53976117  0.68831538  0.97050625  1
  O  O25  1  0.14855322  0.46023883  0.97050625  1
  O  O26  1  0.31168462  0.85144678  0.97050625  1
  O  O27  1  0.53976117  0.85144678  0.47050625  1
  O  O28  1  0.31168462  0.46023883  0.47050625  1
  O  O29  1  0.14855322  0.68831538  0.47050625  1
  O  O30  1  0.11801619  0.63043625  0.36172798  1
  O  O31  1  0.51241906  0.88198381  0.36172798  1
  O  O32  1  0.36956375  0.48758094  0.36172798  1
  O  O33  1  0.11801619  0.48758094  0.86172798  1
  O  O34  1  0.36956375  0.88198381  0.86172798  1
  O  O35  1  0.51241906  0.63043625  0.86172798  1
  O  O36  1  0.01712533  0.82198506  0.41037696  1
  O  O37  1  0.80485973  0.98287467  0.41037696  1
  O  O38  1  0.17801494  0.19514027  0.41037696  1
  O  O39  1  0.01712533  0.19514027  0.91037696  1
  O  O40  1  0.17801494  0.98287467  0.91037696  1
  O  O41  1  0.80485973  0.82198506  0.91037696  1
  O  O42  1  0.97396627  0.16300681  0.58936462  1
  O  O43  1  0.18904054  0.02603373  0.58936462  1
  O  O44  1  0.83699319  0.81095946  0.58936462  1
  O  O45  1  0.97396627  0.81095946  0.08936462  1
  O  O46  1  0.83699319  0.02603373  0.08936462  1
  O  O47  1  0.18904054  0.16300681  0.08936462  1
  O  O48  1  0.68379233  0.15531806  0.74370996  1
  O  O49  1  0.47152673  0.31620767  0.74370996  1
  O  O50  1  0.84468194  0.52847327  0.74370996  1
  O  O51  1  0.68379233  0.52847327  0.24370996  1
  O  O52  1  0.84468194  0.31620767  0.24370996  1
  O  O53  1  0.47152673  0.15531806  0.24370996  1
  O  O54  1  0.64063327  0.49633981  0.92269762  1
  O  O55  1  0.85570754  0.35936673  0.92269762  1
  O  O56  1  0.50366019  0.14429246  0.92269762  1
  O  O57  1  0.64063327  0.14429246  0.42269762  1
  O  O58  1  0.50366019  0.35936673  0.42269762  1
  O  O59  1  0.85570754  0.49633981  0.42269762  1
  O  O60  1  0.35045833  0.48865206  0.07704396  1
  O  O61  1  0.13819273  0.64954167  0.07704396  1
  O  O62  1  0.51134794  0.86180727  0.07704396  1
  O  O63  1  0.35045833  0.86180727  0.57704396  1
  O  O64  1  0.51134794  0.64954167  0.57704396  1
  O  O65  1  0.13819273  0.48865206  0.57704396  1
  O  O66  1  0.30729927  0.82967381  0.25603162  1
  O  O67  1  0.52237354  0.69270073  0.25603162  1
  O  O68  1  0.17032619  0.47762646  0.25603162  1
  O  O69  1  0.30729927  0.47762646  0.75603162  1
  O  O70  1  0.17032619  0.69270073  0.75603162  1
  O  O71  1  0.52237354  0.82967381  0.75603162  1
loop_
_geom_bond_atom_site_label_1
_geom_bond_atom_site_label_2
_geom_bond_distance
_geom_bond_site_symmetry_2
Na0 O44 2.521934 1_445
Na0 O42 2.521934 1_455
Na0 O43 2.521934 1_555
Na0 O38 2.541465 1_555
Na0 O36 2.541465 1_545
Na0 O37 2.541465 1_445
Na1 O45 2.521934 1_446
Na1 O47 2.521934 1_556
Na1 O46 2.521934 1_456
Na1 O39 2.541465 1_555
Na1 O41 2.541465 1_445
Na1 O40 2.541465 1_545
Na2 O56 2.521934 1_555
Na2 O54 2.521934 1_555
Na2 O55 2.521934 1_555
Na2 O50 2.541465 1_555
Na2 O48 2.541465 1_555
Na2 O49 2.541465 1_555
Na3 O57 2.521934 1_555
Na3 O59 2.521934 1_555
Na3 O58 2.521934 1_555
Na3 O51 2.541465 1_555
Na3 O53 2.541465 1_555
Na3 O52 2.541465 1_555
Na4 O68 2.521934 1_555
Na4 O66 2.521934 1_555
Na4 O67 2.521934 1_555
Na4 O62 2.541465 1_555
Na4 O60 2.541465 1_555
Na4 O61 2.541465 1_555
Na5 O69 2.521934 1_555
Na5 O71 2.521934 1_555
Na5 O70 2.521934 1_555
Na5 O63 2.541465 1_555
Na5 O65 2.541465 1_555
Na5 O64 2.541465 1_555
Mg0 O2 1.996168 1_455
Mg0 O1 1.996168 1_445
Mg0 O0 1.996168 1_555
Mg0 O38 2.056912 1_555
Mg0 O36 2.056912 1_545
Mg0 O37 2.056912 1_445
Mg1 O5 1.996168 1_455
Mg1 O3 1.996168 1_555
Mg1 O4 1.996168 1_445
Mg1 O39 2.056912 1_555
Mg1 O41 2.056912 1_445
Mg1 O40 2.056912 1_545
Mg2 O14 1.996168 1_555
Mg2 O13 1.996168 1_555
Mg2 O12 1.996168 1_555
Mg2 O50 2.056912 1_555
Mg2 O48 2.056912 1_555
Mg2 O49 2.056912 1_555
Mg3 O17 1.996168 1_555
Mg3 O15 1.996168 1_555
Mg3 O16 1.996168 1_555
Mg3 O51 2.056912 1_555
Mg3 O53 2.056912 1_555
Mg3 O52 2.056912 1_555
Mg4 O26 1.996168 1_554
Mg4 O25 1.996168 1_554
Mg4 O24 1.996168 1_554
Mg4 O62 2.056912 1_555
Mg4 O60 2.056912 1_555
Mg4 O61 2.056912 1_555
Mg5 O29 1.996168 1_555
Mg5 O27 1.996168 1_555
Mg5 O28 1.996168 1_555
Mg5 O63 2.056912 1_555
Mg5 O65 2.056912 1_555
Mg5 O64 2.056912 1_555
Ga0 O7 1.977206 1_555
Ga0 O8 1.977206 1_545
Ga0 O6 1.977206 1_445
Ga0 O44 2.033734 1_445
Ga0 O42 2.033734 1_455
Ga0 O43 2.033734 1_555
Ga1 O10 1.977206 1_555
Ga1 O9 1.977206 1_445
Ga1 O11 1.977206 1_545
Ga1 O45 2.033734 1_445
Ga1 O47 2.033734 1_555
Ga1 O46 2.033734 1_455
Ga2 O19 1.977206 1_556
Ga2 O20 1.977206 1_556
Ga2 O18 1.977206 1_556
Ga2 O56 2.033734 1_555
Ga2 O54 2.033734 1_555
Ga2 O55 2.033734 1_555
Ga3 O22 1.977206 1_555
Ga3 O21 1.977206 1_555
Ga3 O23 1.977206 1_555
Ga3 O57 2.033734 1_555
Ga3 O59 2.033734 1_555
Ga3 O58 2.033734 1_555
Ga4 O31 1.977206 1_555
Ga4 O32 1.977206 1_555
Ga4 O30 1.977206 1_555
Ga4 O68 2.033734 1_555
Ga4 O66 2.033734 1_555
Ga4 O67 2.033734 1_555
Ga5 O34 1.977206 1_555
Ga5 O33 1.977206 1_555
Ga5 O35 1.977206 1_555
Ga5 O69 2.033734 1_555
Ga5 O71 2.033734 1_555
Ga5 O70 2.033734 1_555
O0 S0 1.453501 1_545
O1 S1 1.453501 1_555
O2 S2 1.453501 1_655
O3 S3 1.453501 1_555
O4 S4 1.453501 1_655
O5 S5 1.453501 1_545
O6 S5 1.505572 1_555
O7 S3 1.505572 1_555
O8 S4 1.505572 1_555
O9 S1 1.505572 1_555
O10 S2 1.505572 1_555
O11 S0 1.505572 1_555
O12 S6 1.453501 1_555
O13 S7 1.453501 1_555
O14 S8 1.453501 1_555
O15 S9 1.453501 1_555
O16 S10 1.453501 1_555
O17 S11 1.453501 1_555
O18 S11 1.505572 1_555
O19 S9 1.505572 1_555
O20 S10 1.505572 1_555
O21 S7 1.505572 1_555
O22 S8 1.505572 1_555
O23 S6 1.505572 1_555
O24 S12 1.453501 1_555
O25 S13 1.453501 1_555
O26 S14 1.453501 1_555
O27 S15 1.453501 1_555
O28 S16 1.453501 1_555
O29 S17 1.453501 1_555
O30 S17 1.505572 1_555
O31 S15 1.505572 1_555
O32 S16 1.505572 1_555
O33 S13 1.505572 1_555
O34 S14 1.505572 1_555
O35 S12 1.505572 1_555
O36 S17 1.469317 1_555
O37 S15 1.469326 1_555
O38 S16 1.469322 1_555
O39 S13 1.469326 1_555
O40 S14 1.469317 1_555
O41 S12 1.469322 1_555
O42 S6 1.504883 1_555
O43 S7 1.504892 1_555
O44 S8 1.504888 1_555
O45 S9 1.504892 1_555
O46 S10 1.504883 1_555
O47 S11 1.504888 1_555
O48 S5 1.469317 1_545
O49 S3 1.469326 1_555
O50 S4 1.469322 1_655
O51 S1 1.469326 1_555
O52 S2 1.469317 1_655
O53 S0 1.469322 1_545
O54 S12 1.504895 1_555
O55 S13 1.504878 1_655
O56 S14 1.504885 1_545
O57 S15 1.504878 1_545
O58 S16 1.504895 1_555
O59 S17 1.504885 1_655
O60 S11 1.469328 1_555
O61 S9 1.469311 1_455
O62 S10 1.469318 1_565
O63 S7 1.469311 1_565
O64 S8 1.469328 1_555
O65 S6 1.469318 1_455
O66 S0 1.504883 1_555
O67 S1 1.504892 1_555
O68 S2 1.504888 1_555
O69 S3 1.504892 1_555
O70 S4 1.504883 1_555
O71 S5 1.504888 1_555
