# generated using pymatgen
data_Sr2MgTi6N2O11
_symmetry_space_group_name_H-M   'P 1'
_cell_length_a   3.80235431
_cell_length_b   7.99876446
_cell_length_c   10.69973714
_cell_angle_alpha   72.97223192
_cell_angle_beta   89.99766364
_cell_angle_gamma   76.25787147
_symmetry_Int_Tables_number   1
_chemical_formula_structural   Sr2MgTi6N2O11
_chemical_formula_sum   'Sr2 Mg1 Ti6 N2 O11'
_cell_volume   301.40275131
_cell_formula_units_Z   1
loop_
 _symmetry_equiv_pos_site_id
 _symmetry_equiv_pos_as_xyz
  1  'x, y, z'
loop_
 _atom_site_type_symbol
 _atom_site_label
 _atom_site_symmetry_multiplicity
 _atom_site_fract_x
 _atom_site_fract_y
 _atom_site_fract_z
 _atom_site_occupancy
  Sr  Sr0  1  0.50795400  0.98054200  0.86493100  1
  Sr  Sr1  1  0.43757600  0.12104400  0.27737400  1
  Mg  Mg0  1  0.03900600  0.91902000  0.61459200  1
  Ti  Ti0  1  0.10702200  0.78240500  0.14224700  1
  Ti  Ti1  1  0.19232900  0.61153800  0.41344400  1
  Ti  Ti2  1  0.22231700  0.55263700  0.75947900  1
  Ti  Ti3  1  0.74606700  0.50424500  0.20782700  1
  Ti  Ti4  1  0.85175800  0.29256600  0.54790400  1
  Ti  Ti5  1  0.85702800  0.28269700  0.96405400  1
  N  N0  1  0.24584900  0.50465500  0.26441900  1
  N  N1  1  0.83797800  0.32051200  0.12552200  1
  O  O0  1  0.06616000  0.86382900  0.29071700  1
  O  O1  1  0.15303700  0.69102900  0.57956700  1
  O  O2  1  0.12224800  0.75292600  0.80977300  1
  O  O3  1  0.62057600  0.75530900  0.09088400  1
  O  O4  1  0.72024400  0.55592600  0.42512200  1
  O  O5  1  0.75498100  0.48718100  0.78157100  1
  O  O6  1  0.32235400  0.35156600  0.55817900  1
  O  O7  1  0.34522800  0.30644400  0.90716200  1
  O  O8  1  0.93191300  0.13256200  0.44987800  1
  O  O9  1  0.94312500  0.10988400  0.70320400  1
  O  O10  1  0.98257600  0.03149600  0.00541700  1
loop_
_geom_bond_atom_site_label_1
_geom_bond_atom_site_label_2
_geom_bond_distance
_geom_bond_site_symmetry_2
Mg0 O1 1.917996 1_555
Mg0 O9 1.986423 1_465
Mg0 O8 2.023841 1_465
Mg0 O2 2.098068 1_555
N0 Ti3 1.995547 1_455
N0 Ti3 1.995594 1_555
N0 Ti1 2.007623 1_555
N0 Ti0 2.159906 1_555
N0 Sr1 2.941764 1_555
N1 Ti5 1.837716 1_554
N1 Ti3 1.889827 1_555
N1 Sr1 2.671557 1_655
N1 Sr1 2.671901 1_555
O0 Ti0 1.878775 1_555
O0 Ti1 2.003743 1_555
O0 Sr1 2.730597 1_565
O0 Sr1 2.730857 1_465
O1 Ti2 1.901030 1_555
O1 Ti1 2.050064 1_555
O2 Ti2 1.793394 1_555
O2 Sr0 2.777035 1_555
O2 Sr0 2.779859 1_455
O3 Ti3 1.974673 1_555
O3 Ti0 2.007604 1_655
O3 Ti0 2.007659 1_555
O3 Sr0 2.521244 1_554
O4 Ti1 1.944845 1_655
O4 Ti1 1.945780 1_555
O4 Ti4 2.071785 1_555
O4 Ti3 2.475832 1_555
O5 Ti2 1.963643 1_555
O5 Ti2 1.963963 1_655
O5 Ti5 2.113361 1_555
O6 Ti4 1.966196 1_555
O6 Ti4 1.966790 1_455
O6 Ti1 2.142986 1_555
O7 Ti5 1.987581 1_555
O7 Ti5 1.988021 1_455
O7 Ti2 2.081734 1_555
O7 Sr0 2.702966 1_545
O8 Ti4 1.852508 1_555
O8 Sr1 2.669687 1_655
O8 Sr1 2.670297 1_555
O9 Ti4 1.831349 1_555
O9 Sr0 2.562673 1_545
O9 Sr0 2.563870 1_645
O10 Ti5 1.866688 1_554
O10 Ti0 2.044703 1_645
O10 Sr0 2.527459 1_644
O10 Sr0 2.528037 1_544
