# generated using pymatgen
data_Na2HfSiSn(PO6)2
_symmetry_space_group_name_H-M   'P 1'
_cell_length_a   8.91305568
_cell_length_b   8.90913309
_cell_length_c   22.91421709
_cell_angle_alpha   90.03276721
_cell_angle_beta   89.86905911
_cell_angle_gamma   119.78722141
_symmetry_Int_Tables_number   1
_chemical_formula_structural   Na2HfSiSn(PO6)2
_chemical_formula_sum   'Na12 Hf6 Si6 Sn6 P12 O72'
_cell_volume   1579.15106802
_cell_formula_units_Z   6
loop_
 _symmetry_equiv_pos_site_id
 _symmetry_equiv_pos_as_xyz
  1  'x, y, z'
loop_
 _atom_site_type_symbol
 _atom_site_label
 _atom_site_symmetry_multiplicity
 _atom_site_fract_x
 _atom_site_fract_y
 _atom_site_fract_z
 _atom_site_occupancy
  Na  Na0  1  0.99992071  0.63231661  0.25035150  1
  Na  Na1  1  0.36783067  0.00000661  0.74983122  1
  Na  Na2  1  0.66483813  0.96860402  0.58507882  1
  Na  Na3  1  0.03113639  0.33563915  0.08526204  1
  Na  Na4  1  0.97304065  0.66945158  0.91845581  1
  Na  Na5  1  0.33033541  0.02756809  0.41861874  1
  Na  Na6  1  0.00301056  0.99776023  0.50025081  1
  Na  Na7  1  0.00299929  0.99680234  0.00067421  1
  Na  Na8  1  0.66469962  0.32709103  0.83312657  1
  Na  Na9  1  0.67223733  0.33451793  0.33424521  1
  Na  Na10  1  0.34271477  0.67017914  0.16667129  1
  Na  Na11  1  0.32899274  0.65746618  0.66607700  1
  Hf  Hf0  1  0.99841694  0.00682579  0.85262944  1
  Hf  Hf1  1  0.66687744  0.32998603  0.18654545  1
  Hf  Hf2  1  0.66021004  0.32962518  0.98115767  1
  Hf  Hf3  1  0.33432977  0.67454557  0.01970863  1
  Hf  Hf4  1  0.32921799  0.65857867  0.31394477  1
  Hf  Hf5  1  0.34164128  0.67028924  0.81333947  1
  Si  Si0  1  -0.00004398  0.28711796  0.24927877  1
  Si  Si1  1  0.71089577  0.00310593  0.74742847  1
  Si  Si2  1  0.37212909  0.04234004  0.58260791  1
  Si  Si3  1  0.95790954  0.63023646  0.08343063  1
  Si  Si4  1  0.33552372  0.96307249  0.91531559  1
  Si  Si5  1  0.03504478  0.66372127  0.41605956  1
  Sn  Sn0  1  0.99311080  0.99939490  0.35264034  1
  Sn  Sn1  1  0.00394474  0.99976773  0.64782746  1
  Sn  Sn2  1  0.00106864  0.99701296  0.14821159  1
  Sn  Sn3  1  0.67042614  0.33543054  0.68478331  1
  Sn  Sn4  1  0.67039846  0.33894452  0.48157675  1
  Sn  Sn5  1  0.32654027  0.66560187  0.51841424  1
  P  P0  1  0.29150619  0.00210110  0.25147973  1
  P  P1  1  0.70920690  0.71130301  0.24975488  1
  P  P2  1  0.29062183  0.29147697  0.74877026  1
  P  P3  1  0.99565639  0.70566990  0.75022694  1
  P  P4  1  0.96017812  0.33526892  0.58335588  1
  P  P5  1  0.66595910  0.62405270  0.58346405  1
  P  P6  1  0.66682036  0.04103298  0.08399575  1
  P  P7  1  0.37459610  0.33200098  0.08440280  1
  P  P8  1  0.62387804  0.66653829  0.91689900  1
  P  P9  1  0.04473311  0.37665064  0.91756288  1
  P  P10  1  0.62530431  0.95664190  0.41773338  1
  P  P11  1  0.33338648  0.37545324  0.41769269  1
  O  O0  1  0.21301751  0.03113757  0.30758645  1
  O  O1  1  0.82758008  0.78477746  0.30386647  1
  O  O2  1  0.96418321  0.16946535  0.30702062  1
  O  O3  1  0.20860007  0.17254348  0.80237282  1
  O  O4  1  0.97087925  0.79010403  0.80546755  1
  O  O5  1  0.82960757  0.03013857  0.80417782  1
  O  O6  1  0.79015914  0.96808259  0.68783163  1
  O  O7  1  0.18109783  0.21195421  0.69381638  1
  O  O8  1  0.03941760  0.82497331  0.69620608  1
  O  O9  1  0.78907730  0.82236119  0.19478315  1
  O  O10  1  0.03405628  0.20975938  0.18885479  1
  O  O11  1  0.17187396  0.95852403  0.19764242  1
  O  O12  1  0.88267562  0.37079030  0.63833287  1
  O  O13  1  0.49444914  0.12194738  0.64090645  1
  O  O14  1  0.63525999  0.51380186  0.63866174  1
  O  O15  1  0.87080801  0.50656341  0.14067192  1
  O  O16  1  0.63766132  0.12500096  0.13803834  1
  O  O17  1  0.48480261  0.35641637  0.13822382  1
  O  O18  1  0.45930805  0.30350823  0.02986548  1
  O  O19  1  0.84427068  0.53961612  0.02481849  1
  O  O20  1  0.69831938  0.15806507  0.03021026  1
  O  O21  1  0.45742036  0.15629255  0.52316004  1
  O  O22  1  0.70094971  0.54692171  0.52862900  1
  O  O23  1  0.84258040  0.29609352  0.52925952  1
  O  O24  1  0.53913832  0.69263171  0.97101905  1
  O  O25  1  0.15281764  0.45715227  0.97317921  1
  O  O26  1  0.29891885  0.83458791  0.97104355  1
  O  O27  1  0.54988817  0.84980566  0.47452802  1
  O  O28  1  0.30357140  0.45592689  0.47286027  1
  O  O29  1  0.16423606  0.71143012  0.47214526  1
  O  O30  1  0.12593803  0.63849270  0.35772702  1
  O  O31  1  0.50756923  0.87000667  0.36466605  1
  O  O32  1  0.36201566  0.48879955  0.36357752  1
  O  O33  1  0.12980616  0.49299601  0.86402626  1
  O  O34  1  0.35958090  0.87090541  0.85713245  1
  O  O35  1  0.51167505  0.63725861  0.86258414  1
  O  O36  1  0.02925855  0.84605022  0.40995323  1
  O  O37  1  0.80699937  0.97748714  0.41222509  1
  O  O38  1  0.17403695  0.19151550  0.41147307  1
  O  O39  1  0.02360387  0.19553947  0.91083385  1
  O  O40  1  0.15572225  0.96904257  0.90963088  1
  O  O41  1  0.80695038  0.82539541  0.90969160  1
  O  O42  1  0.96844693  0.16544150  0.58901653  1
  O  O43  1  0.18050338  0.02140617  0.58847961  1
  O  O44  1  0.82458469  0.80941477  0.58876933  1
  O  O45  1  0.97887362  0.82185297  0.08889650  1
  O  O46  1  0.83650112  0.03324927  0.08891255  1
  O  O47  1  0.18936065  0.17229685  0.08836914  1
  O  O48  1  0.68241115  0.17234459  0.74486098  1
  O  O49  1  0.47105961  0.30495155  0.74361412  1
  O  O50  1  0.83176548  0.52748475  0.74330090  1
  O  O51  1  0.69345971  0.53107061  0.24257636  1
  O  O52  1  0.83281020  0.31695995  0.24433574  1
  O  O53  1  0.46939545  0.16258338  0.24341283  1
  O  O54  1  0.65084230  0.50811388  0.92259743  1
  O  O55  1  0.86581600  0.36487248  0.92396432  1
  O  O56  1  0.50583597  0.15130188  0.92247329  1
  O  O57  1  0.63362396  0.13540966  0.42267857  1
  O  O58  1  0.49376842  0.35029220  0.42181379  1
  O  O59  1  0.84595590  0.49113330  0.42203628  1
  O  O60  1  0.35166049  0.49167710  0.07707220  1
  O  O61  1  0.14480239  0.63541013  0.07788698  1
  O  O62  1  0.50864422  0.86015538  0.07701103  1
  O  O63  1  0.36763516  0.85427067  0.57804706  1
  O  O64  1  0.50392183  0.64617842  0.57689565  1
  O  O65  1  0.14248119  0.49439043  0.57712415  1
  O  O66  1  0.30793890  0.83715873  0.25768059  1
  O  O67  1  0.53010014  0.69355723  0.25758610  1
  O  O68  1  0.16800596  0.48341598  0.25500124  1
  O  O69  1  0.30868785  0.47062381  0.75682312  1
  O  O70  1  0.15972741  0.68840457  0.75698756  1
  O  O71  1  0.51565339  0.83422464  0.75419390  1
loop_
_geom_bond_atom_site_label_1
_geom_bond_atom_site_label_2
_geom_bond_distance
_geom_bond_site_symmetry_2
Na0 O51 2.420854 1_555
Na0 O66 2.433027 1_655
Na0 O52 2.444138 1_555
Na0 O68 2.447677 1_655
Na0 O30 2.696177 1_655
Na0 O15 2.761304 1_555
Na0 O1 2.787599 1_555
Na0 O11 2.797127 1_655
Na1 O49 2.400851 1_555
Na1 O71 2.421078 1_545
Na1 O48 2.439983 1_555
Na1 O70 2.461124 1_545
Na1 O34 2.700374 1_545
Na1 O13 2.730494 1_555
Na1 O3 2.825625 1_555
Na1 O8 2.826470 1_545
Na2 O63 2.324115 1_555
Na2 O42 2.385851 1_565
Na2 O44 2.460256 1_555
Na2 O64 2.500178 1_555
Na2 O6 2.609321 1_555
Na2 O27 2.741957 1_555
Na2 O13 2.803531 1_565
Na2 O23 2.839186 1_565
Na3 O61 2.345001 1_555
Na3 O46 2.372849 1_455
Na3 O47 2.480172 1_555
Na3 O60 2.486221 1_555
Na3 O10 2.631614 1_555
Na3 O25 2.787156 1_554
Na3 O15 2.850370 1_455
Na3 O20 2.871555 1_455
Na4 O40 2.344633 1_655
Na4 O55 2.390771 1_555
Na4 O41 2.491426 1_555
Na4 O54 2.493953 1_555
Na4 O19 2.695683 1_556
Na4 O26 2.796656 1_655
Na4 O4 2.807650 1_555
Na4 O33 2.855082 1_655
Na5 O36 2.355043 1_545
Na5 O57 2.379025 1_555
Na5 O38 2.474667 1_555
Na5 O58 2.496595 1_555
Na5 O21 2.656159 1_555
Na5 O29 2.735257 1_545
Na5 O0 2.759122 1_555
Na5 O31 2.861222 1_545
Na6 O43 2.513437 1_565
Na6 O36 2.543914 1_555
Na6 O44 2.607048 1_455
Na6 O38 2.610964 1_565
Na6 O37 2.618294 1_455
Na6 O42 2.629580 1_465
Na7 O45 2.496173 1_455
Na7 O40 2.566554 1_554
Na7 O47 2.583194 1_565
Na7 O46 2.619189 1_465
Na7 O39 2.661946 1_564
Na7 O41 2.663367 1_454
Na8 O48 2.495568 1_555
Na8 O56 2.536987 1_555
Na8 O49 2.627212 1_555
Na8 O50 2.643881 1_555
Na8 O54 2.648083 1_555
Na8 O55 2.660053 1_555
Na9 O59 2.501119 1_555
Na9 O52 2.554569 1_555
Na9 O57 2.601091 1_555
Na9 O58 2.604533 1_555
Na9 O51 2.680980 1_555
Na9 O53 2.684969 1_555
Na10 O68 2.589429 1_555
Na10 O62 2.603058 1_555
Na10 O61 2.611383 1_555
Na10 O67 2.615827 1_555
Na10 O60 2.621469 1_555
Na10 O66 2.666405 1_555
Na11 O65 2.577088 1_555
Na11 O63 2.581200 1_555
Na11 O71 2.594869 1_555
Na11 O64 2.599622 1_555
Na11 O69 2.613501 1_555
Na11 O70 2.662648 1_555
Hf0 O5 1.964175 1_555
Hf0 O3 2.063854 1_655
Hf0 O40 2.064683 1_645
Hf0 O39 2.068734 1_655
Hf0 O4 2.117564 1_545
Hf0 O41 2.118067 1_545
Hf1 O15 2.008907 1_555
Hf1 O52 2.033231 1_555
Hf1 O16 2.040809 1_555
Hf1 O17 2.074430 1_555
Hf1 O53 2.098572 1_555
Hf1 O51 2.119202 1_555
Hf2 O56 2.014836 1_555
Hf2 O18 2.020755 1_556
Hf2 O19 2.036727 1_556
Hf2 O20 2.057780 1_556
Hf2 O54 2.114499 1_555
Hf2 O55 2.142941 1_555
Hf3 O26 1.956190 1_554
Hf3 O61 2.038976 1_555
Hf3 O24 2.074055 1_554
Hf3 O62 2.080057 1_555
Hf3 O25 2.097038 1_554
Hf3 O60 2.158547 1_555
Hf4 O30 1.997761 1_555
Hf4 O68 2.025529 1_555
Hf4 O32 2.027220 1_555
Hf4 O67 2.099091 1_555
Hf4 O31 2.111110 1_555
Hf4 O66 2.129006 1_555
Hf5 O34 1.985391 1_555
Hf5 O35 2.026819 1_555
Hf5 O71 2.029146 1_555
Hf5 O69 2.099441 1_555
Hf5 O33 2.106599 1_555
Hf5 O70 2.142935 1_555
O0 P0 1.544187 1_555
O0 Sn0 2.104255 1_445
O1 P1 1.548525 1_555
O1 Sn0 2.069787 1_555
O2 Si0 1.618200 1_655
O2 Sn0 1.961167 1_545
O3 P2 1.547114 1_555
O4 P3 1.542580 1_555
O5 Si1 1.619026 1_555
O6 Si1 1.635696 1_565
O6 Sn1 2.002176 1_655
O7 P2 1.535573 1_555
O7 Sn1 2.053513 1_545
O8 P3 1.549685 1_455
O8 Sn1 2.060756 1_555
O9 P1 1.539460 1_555
O9 Sn2 2.049801 1_655
O10 Si0 1.639973 1_555
O10 Sn2 1.997951 1_545
O11 P0 1.550395 1_565
O11 Sn2 2.060392 1_555
O12 P4 1.541779 1_555
O12 Sn3 2.051845 1_555
O13 Si2 1.647270 1_555
O13 Sn3 2.032106 1_555
O14 P5 1.540201 1_555
O14 Sn3 2.058840 1_555
O15 Si3 1.638362 1_555
O16 P6 1.533398 1_555
O17 P7 1.525146 1_555
O18 P7 1.543367 1_555
O19 Si3 1.635239 1_555
O20 P6 1.547234 1_555
O21 Si2 1.641407 1_555
O21 Sn4 2.020839 1_555
O22 P5 1.535714 1_555
O22 Sn4 2.041462 1_555
O23 P4 1.548859 1_555
O23 Sn4 2.070025 1_555
O24 P8 1.527167 1_555
O25 P9 1.544229 1_555
O26 Si4 1.635877 1_555
O27 P10 1.553443 1_555
O27 Sn5 2.101005 1_555
O28 P11 1.539275 1_555
O28 Sn5 2.059075 1_555
O29 Si5 1.636485 1_555
O29 Sn5 1.994451 1_555
O30 Si5 1.633733 1_555
O31 P10 1.541300 1_555
O32 P11 1.538320 1_555
O33 P9 1.539669 1_555
O34 Si4 1.634039 1_555
O35 P8 1.537302 1_555
O36 Si5 1.656629 1_555
O36 Sn0 2.033774 1_455
O37 P10 1.540565 1_555
O37 Sn0 2.078991 1_555
O38 P11 1.552784 1_555
O38 Sn0 2.147660 1_445
O39 P9 1.536456 1_555
O40 Si4 1.635149 1_555
O41 P8 1.548352 1_555
O42 P4 1.556448 1_555
O42 Sn1 2.136111 1_645
O43 Si2 1.628661 1_555
O43 Sn1 2.012977 1_545
O44 P5 1.556164 1_555
O44 Sn1 2.139306 1_655
O45 Si3 1.627221 1_555
O45 Sn2 2.003437 1_655
O46 P6 1.552342 1_555
O46 Sn2 2.140591 1_645
O47 P7 1.556927 1_555
O47 Sn2 2.126859 1_545
O48 Si1 1.649786 1_555
O48 Sn3 2.043227 1_555
O49 P2 1.556332 1_555
O49 Sn3 2.135104 1_555
O50 P3 1.541389 1_555
O50 Sn3 2.086877 1_555
O51 P1 1.549503 1_555
O52 Si0 1.642345 1_655
O53 P0 1.529356 1_555
O54 P8 1.550584 1_555
O55 P9 1.551863 1_655
O56 Si4 1.617100 1_545
O57 P10 1.561222 1_545
O57 Sn4 2.150742 1_555
O58 P11 1.556160 1_555
O58 Sn4 2.128884 1_555
O59 Si5 1.627232 1_655
O59 Sn4 2.008141 1_555
O60 P7 1.543728 1_555
O61 Si3 1.647986 1_455
O62 P6 1.534121 1_565
O63 Si2 1.659241 1_565
O63 Sn5 2.052952 1_555
O64 P5 1.559245 1_555
O64 Sn5 2.146408 1_555
O65 P4 1.542993 1_455
O65 Sn5 2.081784 1_555
O66 P0 1.554101 1_565
O67 P1 1.534149 1_555
O68 Si0 1.648390 1_555
O69 P2 1.533553 1_555
O70 P3 1.552660 1_455
O71 Si1 1.647341 1_565
