# generated using pymatgen
data_MgV2(PO5)2
_symmetry_space_group_name_H-M   'P 1'
_cell_length_a   5.50459039
_cell_length_b   5.50459039
_cell_length_c   6.44552847
_cell_angle_alpha   81.02444462
_cell_angle_beta   81.02444462
_cell_angle_gamma   71.83234220
_symmetry_Int_Tables_number   1
_chemical_formula_structural   MgV2(PO5)2
_chemical_formula_sum   'Mg1 V2 P2 O10'
_cell_volume   182.09094781
_cell_formula_units_Z   1
loop_
 _symmetry_equiv_pos_site_id
 _symmetry_equiv_pos_as_xyz
  1  'x, y, z'
loop_
 _atom_site_type_symbol
 _atom_site_label
 _atom_site_symmetry_multiplicity
 _atom_site_fract_x
 _atom_site_fract_y
 _atom_site_fract_z
 _atom_site_occupancy
  Mg  Mg0  1  0.50000000  0.50000000  0.50000000  1
  V  V0  1  0.17161600  0.17161600  0.29223800  1
  V  V1  1  0.82838400  0.82838400  0.70776200  1
  P  P0  1  0.22724600  0.22724600  0.76443500  1
  P  P1  1  0.77275400  0.77275400  0.23556600  1
  O  O0  1  0.35717000  0.35717000  0.28762200  1
  O  O1  1  0.64283000  0.64283000  0.71237800  1
  O  O2  1  0.09925100  0.09925100  0.62745100  1
  O  O3  1  0.90074900  0.90074900  0.37254900  1
  O  O4  1  0.15612300  0.52527200  0.69720400  1
  O  O5  1  0.52527200  0.15612300  0.69720400  1
  O  O6  1  0.84387700  0.47472800  0.30279600  1
  O  O7  1  0.47472800  0.84387700  0.30279600  1
  O  O8  1  0.84559100  0.84559100  0.00350000  1
  O  O9  1  0.15440900  0.15440900  0.99650000  1
loop_
_geom_bond_atom_site_label_1
_geom_bond_atom_site_label_2
_geom_bond_distance
_geom_bond_site_symmetry_2
Mg0 O0 2.041384 1_555
Mg0 O1 2.041384 1_555
Mg0 O6 2.087655 1_555
Mg0 O7 2.087655 1_555
Mg0 O4 2.087655 1_555
Mg0 O5 2.087655 1_555
O0 V0 1.648940 1_555
O1 V1 1.648940 1_555
O2 P0 1.571671 1_555
O2 V0 2.132487 1_555
O2 V1 2.370415 1_445
O3 P1 1.571667 1_555
O3 V1 2.132487 1_555
O3 V0 2.370415 1_665
O4 P0 1.569375 1_555
O4 V1 2.040403 1_455
O5 P0 1.569375 1_555
O5 V1 2.040403 1_545
O6 P1 1.569374 1_555
O6 V0 2.040403 1_655
O7 P1 1.569374 1_555
O7 V0 2.040403 1_565
O8 P1 1.511580 1_555
O8 V1 1.941587 1_554
O9 P0 1.511574 1_555
O9 V0 1.941587 1_556
