# generated using pymatgen
data_MgMo3(SeS2)2
_symmetry_space_group_name_H-M   'P 1'
_cell_length_a   6.45515200
_cell_length_b   6.45514801
_cell_length_c   59.36651000
_cell_angle_alpha   89.99996860
_cell_angle_beta   90.00010730
_cell_angle_gamma   120.00055320
_symmetry_Int_Tables_number   1
_chemical_formula_structural   MgMo3(SeS2)2
_chemical_formula_sum   'Mg8 Mo24 Se16 S32'
_cell_volume   2142.31045472
_cell_formula_units_Z   8
loop_
 _symmetry_equiv_pos_site_id
 _symmetry_equiv_pos_as_xyz
  1  'x, y, z'
loop_
 _atom_site_type_symbol
 _atom_site_label
 _atom_site_symmetry_multiplicity
 _atom_site_fract_x
 _atom_site_fract_y
 _atom_site_fract_z
 _atom_site_occupancy
  Mg  Mg0_0  1  0.19375450  0.40803200  0.42171800  1
  Mg  Mg0_1  1  0.19375450  0.40803200  0.92171800  1
  Mg  Mg0_2  1  0.19375450  0.90803200  0.42171800  1
  Mg  Mg0_3  1  0.19375450  0.90803200  0.92171800  1
  Mg  Mg0_4  1  0.69375450  0.40803200  0.42171800  1
  Mg  Mg0_5  1  0.69375450  0.40803200  0.92171800  1
  Mg  Mg0_6  1  0.69375450  0.90803200  0.42171800  1
  Mg  Mg0_7  1  0.69375450  0.90803200  0.92171800  1
  Mo  Mo0_0  1  0.16665400  0.33330750  0.05778950  1
  Mo  Mo0_1  1  0.16665400  0.33330750  0.55778950  1
  Mo  Mo0_2  1  0.16665400  0.83330750  0.05778950  1
  Mo  Mo0_3  1  0.16665400  0.83330750  0.55778950  1
  Mo  Mo0_4  1  0.66665400  0.33330750  0.05778950  1
  Mo  Mo0_5  1  0.66665400  0.33330750  0.55778950  1
  Mo  Mo0_6  1  0.66665400  0.83330750  0.05778950  1
  Mo  Mo0_7  1  0.66665400  0.83330750  0.55778950  1
  Mo  Mo1_0  1  0.16665800  0.33331050  0.28919150  1
  Mo  Mo1_1  1  0.16665800  0.33331050  0.78919150  1
  Mo  Mo1_2  1  0.16665800  0.83331050  0.28919150  1
  Mo  Mo1_3  1  0.16665800  0.83331050  0.78919150  1
  Mo  Mo1_4  1  0.66665800  0.33331050  0.28919150  1
  Mo  Mo1_5  1  0.66665800  0.33331050  0.78919150  1
  Mo  Mo1_6  1  0.66665800  0.83331050  0.28919150  1
  Mo  Mo1_7  1  0.66665800  0.83331050  0.78919150  1
  Mo  Mo2_0  1  0.33334500  0.16669600  0.17348850  1
  Mo  Mo2_1  1  0.33334500  0.16669600  0.67348850  1
  Mo  Mo2_2  1  0.33334500  0.66669600  0.17348850  1
  Mo  Mo2_3  1  0.33334500  0.66669600  0.67348850  1
  Mo  Mo2_4  1  0.83334500  0.16669600  0.17348850  1
  Mo  Mo2_5  1  0.83334500  0.16669600  0.67348850  1
  Mo  Mo2_6  1  0.83334500  0.66669600  0.17348850  1
  Mo  Mo2_7  1  0.83334500  0.66669600  0.67348850  1
  Se  Se0_0  1  0.16667950  0.33335750  0.20226100  1
  Se  Se0_1  1  0.16667950  0.33335750  0.70226100  1
  Se  Se0_2  1  0.16667950  0.83335750  0.20226100  1
  Se  Se0_3  1  0.16667950  0.83335750  0.70226100  1
  Se  Se0_4  1  0.66667950  0.33335750  0.20226100  1
  Se  Se0_5  1  0.66667950  0.33335750  0.70226100  1
  Se  Se0_6  1  0.66667950  0.83335750  0.20226100  1
  Se  Se0_7  1  0.66667950  0.83335750  0.70226100  1
  Se  Se1_0  1  0.16667800  0.33335500  0.14472350  1
  Se  Se1_1  1  0.16667800  0.33335500  0.64472350  1
  Se  Se1_2  1  0.16667800  0.83335500  0.14472350  1
  Se  Se1_3  1  0.16667800  0.83335500  0.64472350  1
  Se  Se1_4  1  0.66667800  0.33335500  0.14472350  1
  Se  Se1_5  1  0.66667800  0.33335500  0.64472350  1
  Se  Se1_6  1  0.66667800  0.83335500  0.14472350  1
  Se  Se1_7  1  0.66667800  0.83335500  0.64472350  1
  S  S0_0  1  0.33332050  0.16664300  0.03164850  1
  S  S0_1  1  0.33332050  0.16664300  0.53164850  1
  S  S0_2  1  0.33332050  0.66664300  0.03164850  1
  S  S0_3  1  0.33332050  0.66664300  0.53164850  1
  S  S0_4  1  0.83332050  0.16664300  0.03164850  1
  S  S0_5  1  0.83332050  0.16664300  0.53164850  1
  S  S0_6  1  0.83332050  0.66664300  0.03164850  1
  S  S0_7  1  0.83332050  0.66664300  0.53164850  1
  S  S1_0  1  0.33332150  0.16664600  0.26305000  1
  S  S1_1  1  0.33332150  0.16664600  0.76305000  1
  S  S1_2  1  0.33332150  0.66664600  0.26305000  1
  S  S1_3  1  0.33332150  0.66664600  0.76305000  1
  S  S1_4  1  0.83332150  0.16664600  0.26305000  1
  S  S1_5  1  0.83332150  0.16664600  0.76305000  1
  S  S1_6  1  0.83332150  0.66664600  0.26305000  1
  S  S1_7  1  0.83332150  0.66664600  0.76305000  1
  S  S2_0  1  0.33332400  0.16664900  0.08398750  1
  S  S2_1  1  0.33332400  0.16664900  0.58398750  1
  S  S2_2  1  0.33332400  0.66664900  0.08398750  1
  S  S2_3  1  0.33332400  0.66664900  0.58398750  1
  S  S2_4  1  0.83332400  0.16664900  0.08398750  1
  S  S2_5  1  0.83332400  0.16664900  0.58398750  1
  S  S2_6  1  0.83332400  0.66664900  0.08398750  1
  S  S2_7  1  0.83332400  0.66664900  0.58398750  1
  S  S3_0  1  0.33332200  0.16664650  0.31528900  1
  S  S3_1  1  0.33332200  0.16664650  0.81528900  1
  S  S3_2  1  0.33332200  0.66664650  0.31528900  1
  S  S3_3  1  0.33332200  0.66664650  0.81528900  1
  S  S3_4  1  0.83332200  0.16664650  0.31528900  1
  S  S3_5  1  0.83332200  0.16664650  0.81528900  1
  S  S3_6  1  0.83332200  0.66664650  0.31528900  1
  S  S3_7  1  0.83332200  0.66664650  0.81528900  1
loop_
_geom_bond_atom_site_label_1
_geom_bond_atom_site_label_2
_geom_bond_distance
_geom_bond_site_symmetry_2
Mg0_0 Mg0_6 3.227548 1_555
Mg0_0 Mg0_6 3.227548 1_445
Mg0_0 Mg0_2 3.227574 1_555
Mg0_0 Mg0_2 3.227574 1_545
Mg0_0 Mg0_4 3.227576 1_455
Mg0_0 Mg0_4 3.227576 1_555
Mg0_1 Mg0_7 3.227548 1_445
Mg0_1 Mg0_7 3.227548 1_555
Mg0_1 Mg0_3 3.227574 1_545
Mg0_1 Mg0_3 3.227574 1_555
Mg0_1 Mg0_5 3.227576 1_455
Mg0_1 Mg0_5 3.227576 1_555
Mg0_2 Mg0_4 3.227548 1_455
Mg0_2 Mg0_4 3.227548 1_565
Mg0_2 Mg0_6 3.227576 1_455
Mg0_2 Mg0_6 3.227576 1_555
Mg0_3 Mg0_5 3.227548 1_565
Mg0_3 Mg0_5 3.227548 1_455
Mg0_3 Mg0_7 3.227576 1_455
Mg0_3 Mg0_7 3.227576 1_555
Mg0_4 Mg0_6 3.227574 1_545
Mg0_4 Mg0_6 3.227574 1_555
Mg0_5 Mg0_7 3.227574 1_555
Mg0_5 Mg0_7 3.227574 1_545
Mo0_0 S0_4 2.425028 1_455
Mo0_0 S0_0 2.425033 1_555
Mo0_0 S0_2 2.425039 1_555
Mo0_0 S2_4 2.427185 1_455
Mo0_0 S2_0 2.427186 1_555
Mo0_0 S2_2 2.427231 1_555
Mo0_1 S0_5 2.425028 1_455
Mo0_1 S0_1 2.425033 1_555
Mo0_1 S0_3 2.425039 1_555
Mo0_1 S2_5 2.427185 1_455
Mo0_1 S2_1 2.427186 1_555
Mo0_1 S2_3 2.427231 1_555
Mo0_2 S0_6 2.425028 1_455
Mo0_2 S0_2 2.425033 1_555
Mo0_2 S0_0 2.425039 1_565
Mo0_2 S2_6 2.427185 1_455
Mo0_2 S2_2 2.427186 1_555
Mo0_2 S2_0 2.427231 1_565
Mo0_3 S0_7 2.425028 1_455
Mo0_3 S0_3 2.425033 1_555
Mo0_3 S0_1 2.425039 1_565
Mo0_3 S2_7 2.427185 1_455
Mo0_3 S2_3 2.427186 1_555
Mo0_3 S2_1 2.427231 1_565
Mo0_4 S0_0 2.425028 1_555
Mo0_4 S0_4 2.425033 1_555
Mo0_4 S0_6 2.425039 1_555
Mo0_4 S2_0 2.427185 1_555
Mo0_4 S2_4 2.427186 1_555
Mo0_4 S2_6 2.427231 1_555
Mo0_5 S0_1 2.425028 1_555
Mo0_5 S0_5 2.425033 1_555
Mo0_5 S0_7 2.425039 1_555
Mo0_5 S2_1 2.427185 1_555
Mo0_5 S2_5 2.427186 1_555
Mo0_5 S2_7 2.427231 1_555
Mo0_6 S0_2 2.425028 1_555
Mo0_6 S0_6 2.425033 1_555
Mo0_6 S0_4 2.425039 1_565
Mo0_6 S2_2 2.427185 1_555
Mo0_6 S2_6 2.427186 1_555
Mo0_6 S2_4 2.427231 1_565
Mo0_7 S0_3 2.425028 1_555
Mo0_7 S0_7 2.425033 1_555
Mo0_7 S0_5 2.425039 1_565
Mo0_7 S2_3 2.427185 1_555
Mo0_7 S2_7 2.427186 1_555
Mo0_7 S2_5 2.427231 1_565
Mo1_0 S3_0 2.423365 1_555
Mo1_0 S3_2 2.423388 1_555
Mo1_0 S3_4 2.423392 1_455
Mo1_0 S1_0 2.425039 1_555
Mo1_0 S1_2 2.425058 1_555
Mo1_0 S1_4 2.425060 1_455
Mo1_1 S3_1 2.423365 1_555
Mo1_1 S3_3 2.423388 1_555
Mo1_1 S3_5 2.423392 1_455
Mo1_1 S1_1 2.425039 1_555
Mo1_1 S1_3 2.425058 1_555
Mo1_1 S1_5 2.425060 1_455
Mo1_2 S3_2 2.423365 1_555
Mo1_2 S3_0 2.423388 1_565
Mo1_2 S3_6 2.423392 1_455
Mo1_2 S1_2 2.425039 1_555
Mo1_2 S1_0 2.425058 1_565
Mo1_2 S1_6 2.425060 1_455
Mo1_3 S3_3 2.423365 1_555
Mo1_3 S3_1 2.423388 1_565
Mo1_3 S3_7 2.423392 1_455
Mo1_3 S1_3 2.425039 1_555
Mo1_3 S1_1 2.425058 1_565
Mo1_3 S1_7 2.425060 1_455
Mo1_4 S3_4 2.423365 1_555
Mo1_4 S3_6 2.423388 1_555
Mo1_4 S3_0 2.423392 1_555
Mo1_4 S1_4 2.425039 1_555
Mo1_4 S1_6 2.425058 1_555
Mo1_4 S1_0 2.425060 1_555
Mo1_5 S3_5 2.423365 1_555
Mo1_5 S3_7 2.423388 1_555
Mo1_5 S3_1 2.423392 1_555
Mo1_5 S1_5 2.425039 1_555
Mo1_5 S1_7 2.425058 1_555
Mo1_5 S1_1 2.425060 1_555
Mo1_6 S3_6 2.423365 1_555
Mo1_6 S3_4 2.423388 1_565
Mo1_6 S3_2 2.423392 1_555
Mo1_6 S1_6 2.425039 1_555
Mo1_6 S1_4 2.425058 1_565
Mo1_6 S1_2 2.425060 1_555
Mo1_7 S3_7 2.423365 1_555
Mo1_7 S3_5 2.423388 1_565
Mo1_7 S3_3 2.423392 1_555
Mo1_7 S1_7 2.425039 1_555
Mo1_7 S1_5 2.425058 1_565
Mo1_7 S1_3 2.425060 1_555
Mo2_0 Se1_0 2.527535 1_555
Mo2_0 Se1_4 2.527557 1_555
Mo2_0 Se1_2 2.527586 1_545
Mo2_0 Se0_0 2.527844 1_555
Mo2_0 Se0_4 2.527859 1_555
Mo2_0 Se0_2 2.527878 1_545
Mo2_1 Se1_1 2.527535 1_555
Mo2_1 Se1_5 2.527557 1_555
Mo2_1 Se1_3 2.527586 1_545
Mo2_1 Se0_1 2.527844 1_555
Mo2_1 Se0_5 2.527859 1_555
Mo2_1 Se0_3 2.527878 1_545
Mo2_2 Se1_2 2.527535 1_555
Mo2_2 Se1_6 2.527557 1_555
Mo2_2 Se1_0 2.527586 1_555
Mo2_2 Se0_2 2.527844 1_555
Mo2_2 Se0_6 2.527859 1_555
Mo2_2 Se0_0 2.527878 1_555
Mo2_3 Se1_3 2.527535 1_555
Mo2_3 Se1_7 2.527557 1_555
Mo2_3 Se1_1 2.527586 1_555
Mo2_3 Se0_3 2.527844 1_555
Mo2_3 Se0_7 2.527859 1_555
Mo2_3 Se0_1 2.527878 1_555
Mo2_4 Se1_4 2.527535 1_555
Mo2_4 Se1_0 2.527557 1_655
Mo2_4 Se1_6 2.527586 1_545
Mo2_4 Se0_4 2.527844 1_555
Mo2_4 Se0_0 2.527859 1_655
Mo2_4 Se0_6 2.527878 1_545
Mo2_5 Se1_5 2.527535 1_555
Mo2_5 Se1_1 2.527557 1_655
Mo2_5 Se1_7 2.527586 1_545
Mo2_5 Se0_5 2.527844 1_555
Mo2_5 Se0_1 2.527859 1_655
Mo2_5 Se0_7 2.527878 1_545
Mo2_6 Se1_6 2.527535 1_555
Mo2_6 Se1_2 2.527557 1_655
Mo2_6 Se1_4 2.527586 1_555
Mo2_6 Se0_6 2.527844 1_555
Mo2_6 Se0_2 2.527859 1_655
Mo2_6 Se0_4 2.527878 1_555
Mo2_7 Se1_7 2.527535 1_555
Mo2_7 Se1_3 2.527557 1_655
Mo2_7 Se1_5 2.527586 1_555
Mo2_7 Se0_7 2.527844 1_555
Mo2_7 Se0_3 2.527859 1_655
Mo2_7 Se0_5 2.527878 1_555
