# generated using pymatgen
data_MgMn6(O2F)4
_symmetry_space_group_name_H-M   'P 1'
_cell_length_a   4.99860901
_cell_length_b   7.82316321
_cell_length_c   5.68768508
_cell_angle_alpha   96.19916626
_cell_angle_beta   92.20029425
_cell_angle_gamma   89.17260793
_symmetry_Int_Tables_number   1
_chemical_formula_structural   MgMn6(O2F)4
_chemical_formula_sum   'Mg1 Mn6 O8 F4'
_cell_volume   220.94108932
_cell_formula_units_Z   1
loop_
 _symmetry_equiv_pos_site_id
 _symmetry_equiv_pos_as_xyz
  1  'x, y, z'
loop_
 _atom_site_type_symbol
 _atom_site_label
 _atom_site_symmetry_multiplicity
 _atom_site_fract_x
 _atom_site_fract_y
 _atom_site_fract_z
 _atom_site_occupancy
  Mg  Mg0  1  0.49223200  0.50232400  0.49309700  1
  Mn  Mn0  1  0.47270300  0.01308800  0.48477900  1
  Mn  Mn1  1  0.52501500  0.69030400  0.10790100  1
  Mn  Mn2  1  0.49205900  0.33413100  0.87707300  1
  Mn  Mn3  1  0.01417800  0.68318100  0.68537900  1
  Mn  Mn4  1  0.96491900  0.31048900  0.38319200  1
  Mn  Mn5  1  0.01486900  0.99021800  0.01053400  1
  O  O0  1  0.83738400  0.45715900  0.65429300  1
  O  O1  1  0.83893300  0.77814200  0.96091100  1
  O  O2  1  0.82938200  0.07868300  0.29209800  1
  O  O3  1  0.65624500  0.43909600  0.17445000  1
  O  O4  1  0.34951100  0.56722300  0.83515900  1
  O  O5  1  0.32598500  0.26889800  0.54970700  1
  O  O6  1  0.31968500  0.90085300  0.17477000  1
  O  O7  1  0.17313100  0.90655200  0.70769900  1
  F  F0  1  0.69194700  0.10788700  0.81271300  1
  F  F1  1  0.64869400  0.74486200  0.45602000  1
  F  F2  1  0.16359800  0.59146800  0.36463000  1
  F  F3  1  0.17564100  0.22710500  0.04702200  1
loop_
_geom_bond_atom_site_label_1
_geom_bond_atom_site_label_2
_geom_bond_distance
_geom_bond_site_symmetry_2
Mg0 O0 1.967972 1_555
Mg0 O3 2.027372 1_555
Mg0 O5 2.078544 1_555
Mg0 O4 2.105858 1_555
Mn0 O6 2.011579 1_545
Mn0 O5 2.120850 1_555
Mn0 O2 2.222834 1_555
Mn0 O7 2.225891 1_545
Mn1 O4 1.923669 1_554
Mn1 O6 1.938314 1_555
Mn1 O1 1.972142 1_554
Mn1 O3 2.130749 1_555
Mn2 O3 1.954880 1_556
Mn2 O4 1.983199 1_555
Mn2 O5 2.026024 1_555
Mn2 O0 2.447607 1_555
Mn3 O1 1.900090 1_455
Mn3 O7 1.919766 1_555
Mn3 O0 1.975955 1_455
Mn3 O4 2.090850 1_555
Mn4 O0 1.942370 1_555
Mn4 O2 1.954911 1_555
Mn4 O5 2.044158 1_655
Mn4 O3 2.207940 1_555
Mn5 O1 1.878202 1_454
Mn5 O6 1.919340 1_555
Mn5 O2 1.938911 1_465
Mn5 O7 1.966518 1_554
F0 Mn2 2.025366 1_555
F0 Mn5 2.181785 1_646
F0 Mn0 2.190372 1_555
F1 Mn1 2.053254 1_555
F1 Mg0 2.097203 1_555
F1 Mn0 2.255534 1_565
F1 Mn3 2.280289 1_655
F2 Mg0 1.924461 1_555
F2 Mn3 2.051155 1_555
F2 Mn4 2.439362 1_455
F2 Mn1 2.545682 1_555
F3 Mn5 2.017527 1_545
F3 Mn2 2.113631 1_554
F3 Mn4 2.248620 1_455
