# generated using pymatgen
data_Na6Hf7ZnSi6(SO8)6
_symmetry_space_group_name_H-M   'P 1'
_cell_length_a   17.97224322
_cell_length_b   8.95521036
_cell_length_c   23.13317635
_cell_angle_alpha   89.94739041
_cell_angle_beta   90.10417213
_cell_angle_gamma   119.81871111
_symmetry_Int_Tables_number   1
_chemical_formula_structural   Na6Hf7ZnSi6(SO8)6
_chemical_formula_sum   'Na18 Hf21 Zn3 Si18 S18 O144'
_cell_volume   3230.23211290
_cell_formula_units_Z   3
loop_
 _symmetry_equiv_pos_site_id
 _symmetry_equiv_pos_as_xyz
  1  'x, y, z'
loop_
 _atom_site_type_symbol
 _atom_site_label
 _atom_site_symmetry_multiplicity
 _atom_site_fract_x
 _atom_site_fract_y
 _atom_site_fract_z
 _atom_site_occupancy
  Na  Na0  1  0.68803201  0.37919365  0.25179385  1
  Na  Na1  1  0.99498847  0.65330663  0.25333587  1
  Na  Na2  1  0.99620564  0.35511522  0.75255160  1
  Na  Na3  1  0.49213646  0.35599844  0.74558204  1
  Na  Na4  1  0.19479074  0.01919812  0.75305981  1
  Na  Na5  1  0.68443417  0.00938580  0.74846307  1
  Na  Na6  1  0.99670248  0.99878076  0.48807675  1
  Na  Na7  1  0.51094073  0.00228829  0.49715795  1
  Na  Na8  1  0.01812119  0.02742556  0.99781434  1
  Na  Na9  1  0.50414949  0.98082324  0.99688436  1
  Na  Na10  1  0.32950133  0.33404643  0.82291314  1
  Na  Na11  1  0.82665720  0.32392352  0.82566915  1
  Na  Na12  1  0.33376584  0.32970678  0.32830684  1
  Na  Na13  1  0.83365026  0.33263684  0.33675770  1
  Na  Na14  1  0.17419849  0.66645796  0.16522101  1
  Na  Na15  1  0.66037347  0.66255995  0.17412520  1
  Na  Na16  1  0.18381784  0.66770069  0.67129866  1
  Na  Na17  1  0.67243429  0.66193708  0.66764649  1
  Hf  Hf0  1  0.00060525  0.98767266  0.35613728  1
  Hf  Hf1  1  0.50248860  0.00967496  0.35655517  1
  Hf  Hf2  1  0.00642409  0.01739409  0.85574489  1
  Hf  Hf3  1  0.50340648  0.99906827  0.84936426  1
  Hf  Hf4  1  0.99719928  0.00473560  0.64742541  1
  Hf  Hf5  1  0.50005824  0.00154044  0.65186866  1
  Hf  Hf6  1  0.00463272  0.99710195  0.14953007  1
  Hf  Hf7  1  0.50029231  0.00184732  0.14552180  1
  Hf  Hf8  1  0.33357734  0.33722450  0.18723062  1
  Hf  Hf9  1  0.32534739  0.33250439  0.98304061  1
  Hf  Hf10  1  0.83260553  0.32419869  0.97552366  1
  Hf  Hf11  1  0.33431273  0.34276790  0.47754880  1
  Hf  Hf12  1  0.83198729  0.33075446  0.47423037  1
  Hf  Hf13  1  0.16149247  0.65712481  0.01788482  1
  Hf  Hf14  1  0.66062954  0.67461945  0.02103460  1
  Hf  Hf15  1  0.16219898  0.65533277  0.51764163  1
  Hf  Hf16  1  0.66591519  0.66944197  0.51300633  1
  Hf  Hf17  1  0.16300668  0.66080649  0.31583483  1
  Hf  Hf18  1  0.66687832  0.66216810  0.31613983  1
  Hf  Hf19  1  0.16917272  0.66828524  0.81566282  1
  Hf  Hf20  1  0.67068891  0.68026186  0.81022945  1
  Zn  Zn0  1  0.33315836  0.34187250  0.69369772  1
  Zn  Zn1  1  0.82395665  0.32331667  0.68746053  1
  Zn  Zn2  1  0.83530668  0.34614902  0.18441398  1
  Si  Si0  1  0.14919273  0.00112848  0.25158752  1
  Si  Si1  1  0.85246423  0.70746299  0.24728690  1
  Si  Si2  1  0.49878796  0.29291302  0.24960822  1
  Si  Si3  1  0.14583713  0.29531398  0.74853478  1
  Si  Si4  1  0.64849351  0.29547065  0.74987744  1
  Si  Si5  1  0.49802259  0.70542888  0.74990808  1
  Si  Si6  1  0.35261734  0.99414277  0.75049463  1
  Si  Si7  1  0.85661376  0.00403039  0.74952193  1
  Si  Si8  1  0.47696386  0.62310633  0.08320140  1
  Si  Si9  1  0.18431890  0.33608554  0.08585475  1
  Si  Si10  1  0.01987592  0.37635536  0.91479635  1
  Si  Si11  1  0.16912374  0.96184869  0.91655197  1
  Si  Si12  1  0.66157432  0.95854543  0.91601006  1
  Si  Si13  1  0.81217154  0.95414091  0.41521995  1
  Si  Si14  1  0.16629339  0.37215261  0.41539597  1
  Si  Si15  1  0.66509359  0.37511975  0.41659703  1
  Si  Si16  1  0.02101150  0.66487944  0.41726320  1
  Si  Si17  1  0.52058076  0.66591956  0.41512632  1
  S  S0  1  0.64373130  0.99879355  0.24867028  1
  S  S1  1  0.35590925  0.71431422  0.25018195  1
  S  S2  1  -0.00006567  0.28993534  0.24967644  1
  S  S3  1  -0.00005351  0.71300213  0.74992454  1
  S  S4  1  0.47982895  0.33250822  0.58437766  1
  S  S5  1  0.97979797  0.33540727  0.58543626  1
  S  S6  1  0.18731281  0.03803427  0.58472350  1
  S  S7  1  0.68603466  0.03757894  0.58449792  1
  S  S8  1  0.33439090  0.62755666  0.58379562  1
  S  S9  1  0.83325942  0.62200935  0.58518562  1
  S  S10  1  0.97770478  0.62364673  0.08382132  1
  S  S11  1  0.33378466  0.04380969  0.08351676  1
  S  S12  1  0.83283097  0.04589138  0.08463262  1
  S  S13  1  0.68822302  0.33427237  0.08370478  1
  S  S14  1  0.31299246  0.66879347  0.91839234  1
  S  S15  1  0.80999127  0.66507093  0.91901266  1
  S  S16  1  0.52145617  0.37705136  0.91749601  1
  S  S17  1  0.31016605  0.95454583  0.41814525  1
  O  O0  1  0.10114013  0.02218083  0.30705387  1
  O  O1  1  0.60026880  0.01901806  0.30042163  1
  O  O2  1  0.40638629  0.79580358  0.30239549  1
  O  O3  1  0.91719750  0.79916550  0.30181338  1
  O  O4  1  0.48980163  0.17032983  0.30507997  1
  O  O5  1  0.99033305  0.19050619  0.30164185  1
  O  O6  1  0.09972508  0.17292672  0.80547984  1
  O  O7  1  0.60235208  0.16747323  0.80529553  1
  O  O8  1  0.48707312  0.79889449  0.80698833  1
  O  O9  1  0.98902840  0.79300753  0.80229418  1
  O  O10  1  0.41293585  0.02276449  0.80707025  1
  O  O11  1  0.91616198  0.02248650  0.80491072  1
  O  O12  1  0.39891801  0.96494209  0.69342930  1
  O  O13  1  0.89956536  0.97132185  0.69137739  1
  O  O14  1  0.08180879  0.19633262  0.69265655  1
  O  O15  1  0.58572614  0.20824184  0.69283931  1
  O  O16  1  0.01261440  0.82142299  0.69762764  1
  O  O17  1  0.52006592  0.83506970  0.69402843  1
  O  O18  1  0.39948221  0.81757103  0.19759304  1
  O  O19  1  0.90020013  0.82205218  0.18927264  1
  O  O20  1  0.01209296  0.20873572  0.19700421  1
  O  O21  1  0.51113392  0.19089038  0.19335234  1
  O  O22  1  0.08532400  0.96227556  0.19450415  1
  O  O23  1  0.59072681  0.97922413  0.19592930  1
  O  O24  1  0.44163184  0.34905002  0.63806815  1
  O  O25  1  0.94442744  0.35732852  0.63942596  1
  O  O26  1  0.23462608  0.11233205  0.63824162  1
  O  O27  1  0.73210279  0.11013071  0.63924514  1
  O  O28  1  0.32134993  0.52646742  0.63558408  1
  O  O29  1  0.82541100  0.52395189  0.63788298  1
  O  O30  1  0.43233687  0.50792501  0.13998060  1
  O  O31  1  0.94348489  0.52761285  0.13782268  1
  O  O32  1  0.32233073  0.12388813  0.13561384  1
  O  O33  1  0.81816549  0.12181304  0.13621329  1
  O  O34  1  0.24360262  0.35258720  0.14111654  1
  O  O35  1  0.73458953  0.35569200  0.13806858  1
  O  O36  1  0.22987567  0.30867696  0.02770246  1
  O  O37  1  0.73254885  0.31109387  0.03361109  1
  O  O38  1  0.42081973  0.52967358  0.02554613  1
  O  O39  1  0.92300244  0.53057637  0.03361710  1
  O  O40  1  0.34706643  0.14908228  0.03125972  1
  O  O41  1  0.84094537  0.15131513  0.03200097  1
  O  O42  1  0.23127224  0.14600391  0.53329079  1
  O  O43  1  0.73337964  0.14662855  0.53452507  1
  O  O44  1  0.34125987  0.53782660  0.53098359  1
  O  O45  1  0.84187924  0.53596374  0.53299595  1
  O  O46  1  0.42541915  0.31745951  0.53327442  1
  O  O47  1  0.92718709  0.31954803  0.53466836  1
  O  O48  1  0.26950038  0.68351975  0.97037497  1
  O  O49  1  0.76794515  0.68616621  0.97067651  1
  O  O50  1  0.08072657  0.47047291  0.97070473  1
  O  O51  1  0.57745476  0.46554311  0.96891686  1
  O  O52  1  0.16313285  0.84495117  0.97271143  1
  O  O53  1  0.65549719  0.83962492  0.97182048  1
  O  O54  1  0.27014606  0.84962465  0.47006075  1
  O  O55  1  0.76668491  0.83766978  0.47291918  1
  O  O56  1  0.16059530  0.47537631  0.47275283  1
  O  O57  1  0.65110252  0.46638646  0.47261050  1
  O  O58  1  0.08266210  0.68810050  0.47249290  1
  O  O59  1  0.57946776  0.70095221  0.47299421  1
  O  O60  1  0.06504218  0.63970258  0.35826636  1
  O  O61  1  0.56441975  0.63750781  0.35851304  1
  O  O62  1  0.25769844  0.87778801  0.36561621  1
  O  O63  1  0.75222709  0.86870108  0.35870868  1
  O  O64  1  0.18558662  0.49889687  0.35950358  1
  O  O65  1  0.67952386  0.48035873  0.35660464  1
  O  O66  1  0.06260380  0.48326617  0.85563643  1
  O  O67  1  0.56324422  0.47722648  0.86458051  1
  O  O68  1  0.17938837  0.87081995  0.85733921  1
  O  O69  1  0.67717596  0.87361012  0.85839998  1
  O  O70  1  0.26049325  0.64474129  0.86570518  1
  O  O71  1  0.75705670  0.63530014  0.86672232  1
  O  O72  1  0.01262921  0.83492919  0.41398984  1
  O  O73  1  0.50276386  0.82671337  0.40712771  1
  O  O74  1  0.39570816  0.97024186  0.41166875  1
  O  O75  1  0.90644646  0.97767871  0.40784657  1
  O  O76  1  0.08022034  0.19085005  0.40950601  1
  O  O77  1  0.57971834  0.18268077  0.41189694  1
  O  O78  1  0.00626029  0.18269866  0.91269861  1
  O  O79  1  0.51262272  0.20385403  0.91498968  1
  O  O80  1  0.08016098  0.96969190  0.91202278  1
  O  O81  1  0.57631834  0.97639424  0.91487601  1
  O  O82  1  0.39714354  0.82545082  0.91432413  1
  O  O83  1  0.89603338  0.81564672  0.91254716  1
  O  O84  1  0.48783989  0.17290120  0.58435077  1
  O  O85  1  0.98927146  0.17694551  0.58661436  1
  O  O86  1  0.09842541  0.01442612  0.58714724  1
  O  O87  1  0.59926703  0.02330092  0.58505111  1
  O  O88  1  0.41364080  0.80002976  0.58499970  1
  O  O89  1  0.91325533  0.79700507  0.58795328  1
  O  O90  1  0.49000470  0.81836316  0.08981249  1
  O  O91  1  0.98461175  0.79689074  0.08579863  1
  O  O92  1  0.41188702  0.02491214  0.08929159  1
  O  O93  1  0.91112219  0.03149047  0.08749552  1
  O  O94  1  0.08759719  0.16713636  0.09024777  1
  O  O95  1  0.60030648  0.17735969  0.08657481  1
  O  O96  1  0.34358196  0.16426451  0.74491222  1
  O  O97  1  0.85067552  0.17914283  0.74409008  1
  O  O98  1  0.23686790  0.30653890  0.74335081  1
  O  O99  1  0.74123677  0.30989807  0.74498931  1
  O  O100  1  0.42079522  0.51280898  0.74497914  1
  O  O101  1  0.92781342  0.53798083  0.74342678  1
  O  O102  1  0.34658588  0.54105654  0.24545041  1
  O  O103  1  0.84262008  0.51196583  0.24320792  1
  O  O104  1  0.41442153  0.31247694  0.24409654  1
  O  O105  1  0.92595127  0.31800707  0.24294425  1
  O  O106  1  0.24290621  0.16799387  0.24333376  1
  O  O107  1  0.72742063  0.15759105  0.24373520  1
  O  O108  1  0.32274686  0.51400668  0.92227809  1
  O  O109  1  0.81857083  0.50841529  0.92684590  1
  O  O110  1  0.43688995  0.36390342  0.92406426  1
  O  O111  1  0.92649730  0.36453860  0.92471382  1
  O  O112  1  0.25465918  0.15339015  0.92272775  1
  O  O113  1  0.74704722  0.14979164  0.92556885  1
  O  O114  1  0.32035465  0.12789922  0.42574563  1
  O  O115  1  0.82095465  0.14340304  0.42656415  1
  O  O116  1  0.25026362  0.34760415  0.42617085  1
  O  O117  1  0.74860967  0.35173287  0.42595491  1
  O  O118  1  0.42674964  0.49081964  0.42653116  1
  O  O119  1  0.92795926  0.49409363  0.42562389  1
  O  O120  1  0.17803875  0.51272637  0.07987960  1
  O  O121  1  0.67832814  0.48781187  0.07469654  1
  O  O122  1  0.06594437  0.64914256  0.07648697  1
  O  O123  1  0.57449062  0.64543846  0.07728632  1
  O  O124  1  0.25825488  0.86985425  0.07784542  1
  O  O125  1  0.75713816  0.86884554  0.07570121  1
  O  O126  1  0.17852453  0.86296448  0.57711898  1
  O  O127  1  0.67524557  0.86161350  0.57908971  1
  O  O128  1  0.25895952  0.65556572  0.57660697  1
  O  O129  1  0.75711535  0.64679316  0.58051368  1
  O  O130  1  0.06919004  0.48805921  0.57886078  1
  O  O131  1  0.56722129  0.48669163  0.57825108  1
  O  O132  1  0.15446540  0.82111849  0.25635469  1
  O  O133  1  0.65114985  0.84336006  0.25194581  1
  O  O134  1  0.27033039  0.70084652  0.25318290  1
  O  O135  1  0.75677012  0.68422865  0.25226014  1
  O  O136  1  0.07972565  0.46724315  0.25325572  1
  O  O137  1  0.58744808  0.47706938  0.25306644  1
  O  O138  1  0.14598434  0.47791477  0.75385511  1
  O  O139  1  0.64932047  0.47649618  0.75933424  1
  O  O140  1  0.08181654  0.70555519  0.75375349  1
  O  O141  1  0.58734004  0.69568904  0.75747253  1
  O  O142  1  0.25527580  0.82621738  0.75511284  1
  O  O143  1  0.75971060  0.83825200  0.75508778  1
loop_
_geom_bond_atom_site_label_1
_geom_bond_atom_site_label_2
_geom_bond_distance
_geom_bond_site_symmetry_2
Na0 O137 2.369171 1_555
Na0 O135 2.373203 1_555
Na0 O107 2.423302 1_555
Na0 O103 2.426601 1_555
Na0 O65 2.620306 1_555
Na0 O35 2.801757 1_555
Na1 O103 2.388923 1_555
Na1 O132 2.488770 1_655
Na1 O3 2.596717 1_555
Na1 O105 2.628389 1_555
Na1 O136 2.760302 1_655
Na1 O60 2.762791 1_655
Na1 O22 2.770804 1_655
Na1 O31 2.867879 1_555
Na2 O97 2.293939 1_555
Na2 O138 2.347791 1_655
Na2 O101 2.497476 1_555
Na2 O66 2.657152 1_655
Na2 O140 2.722998 1_655
Na2 O25 2.779245 1_555
Na2 O11 2.854407 1_555
Na2 O14 2.914718 1_655
Na3 O100 2.325218 1_555
Na3 O96 2.348911 1_555
Na3 O139 2.492327 1_555
Na3 O24 2.636194 1_555
Na3 O141 2.660916 1_555
Na3 O15 2.879674 1_555
Na3 O10 2.954633 1_555
Na3 O67 3.000445 1_555
Na4 O98 2.303906 1_555
Na4 O96 2.328210 1_555
Na4 O142 2.457343 1_545
Na4 O140 2.517985 1_545
Na4 O68 2.700411 1_545
Na4 O26 2.769855 1_555
Na4 O6 2.938477 1_555
Na5 O99 2.357664 1_555
Na5 O141 2.470876 1_545
Na5 O143 2.502650 1_545
Na5 O97 2.594524 1_555
Na5 O27 2.677014 1_555
Na5 O69 2.793033 1_545
Na5 O7 2.827787 1_555
Na5 O17 2.855349 1_545
Na6 O72 2.365674 1_655
Na6 O75 2.407578 1_555
Na6 O76 2.439611 1_665
Na6 O85 2.824753 1_565
Na6 O89 2.856981 1_555
Na6 O86 2.888761 1_665
Na7 O77 2.458642 1_555
Na7 O87 2.526125 1_555
Na7 O73 2.570300 1_545
Na7 O84 2.686039 1_555
Na7 O88 2.706303 1_545
Na7 O74 2.770825 1_545
Na8 O80 2.456119 1_545
Na8 O94 2.477547 1_556
Na8 O78 2.478733 1_555
Na8 O91 2.743669 1_446
Na8 O93 2.843866 1_456
Na8 O83 2.855637 1_445
Na9 O81 2.311528 1_555
Na9 O90 2.535939 1_556
Na9 O82 2.571466 1_555
Na9 O79 2.700562 1_565
Na9 O95 2.712539 1_566
Na9 O92 2.853169 1_566
Na10 O98 2.408677 1_555
Na10 O100 2.428658 1_555
Na10 O96 2.453772 1_555
Na10 O112 2.756531 1_555
Na10 O108 2.845698 1_555
Na10 O110 2.956910 1_555
Na11 O99 2.377862 1_555
Na11 O97 2.448033 1_555
Na11 O101 2.671961 1_555
Na11 O113 2.757901 1_555
Na11 O111 2.817657 1_555
Na11 O109 2.911360 1_555
Na12 O104 2.480565 1_555
Na12 O106 2.503883 1_555
Na12 O102 2.621154 1_555
Na12 O118 2.762562 1_555
Na12 O116 2.766831 1_555
Na12 O114 2.822461 1_555
Na13 O119 2.597131 1_555
Na13 O115 2.617362 1_555
Na13 O117 2.625812 1_555
Na13 O103 2.650615 1_555
Na13 O105 2.776419 1_555
Na13 O107 2.783497 1_555
Na14 O120 2.428494 1_555
Na14 O134 2.584492 1_555
Na14 O124 2.636894 1_555
Na14 O132 2.642950 1_555
Na14 O136 2.684476 1_555
Na14 O122 2.776490 1_555
Na15 O137 2.376946 1_555
Na15 O135 2.441536 1_555
Na15 O133 2.482578 1_555
Na15 O123 2.679006 1_555
Na15 O121 2.890507 1_555
Na15 O125 2.903921 1_555
Na16 O142 2.367839 1_555
Na16 O138 2.418194 1_555
Na16 O128 2.605971 1_555
Na16 O140 2.783125 1_555
Na16 O126 2.823308 1_555
Na16 O130 2.845888 1_555
Na17 O143 2.564442 1_555
Na17 O129 2.571847 1_555
Na17 O139 2.596111 1_555
Na17 O141 2.687112 1_555
Na17 O127 2.701957 1_555
Na17 O131 2.712114 1_555
Hf0 O72 1.999587 1_555
Hf0 O0 2.025076 1_565
Hf0 O3 2.038743 1_455
Hf0 O75 2.039397 1_455
Hf0 O76 2.071394 1_565
Hf0 O5 2.291537 1_465
Hf1 O77 1.955610 1_555
Hf1 O4 1.965177 1_555
Hf1 O73 2.014390 1_545
Hf1 O1 2.154832 1_555
Hf1 O74 2.183389 1_545
Hf1 O2 2.219859 1_545
Hf2 O6 1.945558 1_555
Hf2 O78 1.983733 1_555
Hf2 O11 2.020659 1_455
Hf2 O80 2.046779 1_545
Hf2 O9 2.245622 1_445
Hf2 O83 2.316736 1_445
Hf3 O8 1.933753 1_555
Hf3 O7 1.952580 1_565
Hf3 O10 1.995748 1_565
Hf3 O81 2.076513 1_555
Hf3 O82 2.318609 1_555
Hf3 O79 2.323237 1_565
Hf4 O13 1.919907 1_545
Hf4 O14 1.937476 1_655
Hf4 O16 2.137276 1_645
Hf4 O85 2.142749 1_555
Hf4 O89 2.198969 1_545
Hf4 O86 2.261339 1_655
Hf5 O12 1.936273 1_545
Hf5 O17 1.957572 1_545
Hf5 O15 1.964378 1_555
Hf5 O84 2.274237 1_555
Hf5 O87 2.295691 1_555
Hf5 O88 2.295773 1_545
Hf6 O22 1.930414 1_555
Hf6 O19 1.975573 1_455
Hf6 O94 2.041613 1_565
Hf6 O20 2.136945 1_565
Hf6 O91 2.208846 1_455
Hf6 O93 2.341741 1_465
Hf7 O21 1.950084 1_555
Hf7 O90 2.023811 1_545
Hf7 O23 2.088680 1_545
Hf7 O18 2.118407 1_545
Hf7 O92 2.139506 1_555
Hf7 O95 2.180850 1_555
Hf8 O34 1.996613 1_555
Hf8 O30 1.996879 1_555
Hf8 O106 2.045637 1_555
Hf8 O104 2.050231 1_555
Hf8 O32 2.176192 1_555
Hf8 O102 2.186194 1_555
Hf9 O36 1.923280 1_556
Hf9 O38 2.003167 1_556
Hf9 O112 2.025969 1_555
Hf9 O108 2.165870 1_555
Hf9 O40 2.174259 1_556
Hf9 O110 2.325459 1_555
Hf10 O113 1.935891 1_555
Hf10 O111 1.938997 1_555
Hf10 O41 2.086315 1_556
Hf10 O109 2.112475 1_555
Hf10 O37 2.202663 1_556
Hf10 O39 2.207184 1_556
Hf11 O118 1.929858 1_555
Hf11 O116 1.937704 1_555
Hf11 O44 2.093169 1_555
Hf11 O114 2.173623 1_555
Hf11 O46 2.180610 1_555
Hf11 O42 2.226290 1_555
Hf12 O115 1.934392 1_555
Hf12 O117 1.949720 1_555
Hf12 O119 1.968214 1_555
Hf12 O43 2.214418 1_555
Hf12 O45 2.221616 1_555
Hf12 O47 2.248108 1_555
Hf13 O50 1.917487 1_554
Hf13 O52 1.967149 1_554
Hf13 O120 2.048123 1_555
Hf13 O48 2.140747 1_554
Hf13 O122 2.162854 1_555
Hf13 O124 2.297548 1_555
Hf14 O53 1.902682 1_554
Hf14 O123 1.939750 1_555
Hf14 O51 2.099487 1_554
Hf14 O125 2.151445 1_555
Hf14 O49 2.212981 1_554
Hf14 O121 2.228168 1_555
Hf15 O58 1.905640 1_555
Hf15 O56 1.906045 1_555
Hf15 O130 2.134986 1_555
Hf15 O54 2.156361 1_555
Hf15 O128 2.207387 1_555
Hf15 O126 2.212955 1_555
Hf16 O55 1.923436 1_555
Hf16 O57 1.942037 1_555
Hf16 O59 1.944354 1_555
Hf16 O127 2.245801 1_555
Hf16 O131 2.284917 1_555
Hf16 O129 2.342478 1_555
Hf17 O60 1.942703 1_555
Hf17 O64 1.966846 1_555
Hf17 O132 2.047594 1_555
Hf17 O62 2.169417 1_555
Hf17 O136 2.181084 1_555
Hf17 O134 2.295863 1_555
Hf18 O63 1.979852 1_555
Hf18 O65 1.985740 1_555
Hf18 O61 2.000537 1_555
Hf18 O135 2.126852 1_555
Hf18 O137 2.134947 1_555
Hf18 O133 2.316946 1_555
Hf19 O68 1.980975 1_555
Hf19 O66 2.028868 1_555
Hf19 O142 2.045625 1_555
Hf19 O70 2.101194 1_555
Hf19 O138 2.102411 1_555
Hf19 O140 2.267026 1_555
Hf20 O143 1.985337 1_555
Hf20 O141 1.987790 1_555
Hf20 O69 2.013866 1_555
Hf20 O139 2.041767 1_555
Hf20 O71 2.211926 1_555
Hf20 O67 2.264615 1_555
O0 Si0 1.610635 1_555
O1 S0 1.490190 1_545
O2 S1 1.467552 1_555
O3 Si1 1.632592 1_555
O4 Si2 1.643077 1_555
O5 S2 1.453855 1_655
O6 Si3 1.649655 1_555
O7 Si4 1.643445 1_555
O8 Si5 1.627779 1_555
O9 S3 1.470297 1_655
O10 Si6 1.634898 1_545
O11 Si7 1.622943 1_555
O12 Si6 1.650612 1_555
O13 Si7 1.649321 1_565
O14 Si3 1.662255 1_555
O15 Si4 1.656463 1_555
O16 S3 1.495709 1_555
O17 Si5 1.648478 1_555
O18 S1 1.493162 1_555
O19 Si1 1.648113 1_555
O20 S2 1.490576 1_555
O21 Si2 1.668048 1_555
O22 Si0 1.667502 1_565
O23 S0 1.502291 1_555
O24 S4 1.463019 1_555
O24 Zn0 2.311960 1_555
O25 S5 1.459440 1_555
O25 Zn1 2.316806 1_555
O26 S6 1.460658 1_555
O26 Zn0 2.320240 1_555
O27 S7 1.474554 1_555
O27 Zn1 2.115870 1_555
O28 S8 1.448362 1_555
O28 Zn0 2.220090 1_555
O29 S9 1.467166 1_555
O29 Zn1 2.119880 1_555
O30 Si8 1.615873 1_555
O31 S10 1.467383 1_555
O31 Zn2 2.108242 1_555
O32 S11 1.469140 1_555
O33 S12 1.461630 1_555
O33 Zn2 2.182099 1_555
O34 Si9 1.621762 1_555
O35 S13 1.466438 1_555
O35 Zn2 2.140062 1_555
O36 Si9 1.656735 1_555
O37 S13 1.479472 1_555
O38 Si8 1.629307 1_555
O39 S10 1.480786 1_555
O40 S11 1.477248 1_555
O41 S12 1.502193 1_555
O42 S6 1.488721 1_555
O43 S7 1.479599 1_555
O44 S8 1.501505 1_555
O45 S9 1.482048 1_555
O46 S4 1.495648 1_555
O47 S5 1.468398 1_555
O48 S14 1.476705 1_555
O49 S15 1.476742 1_555
O50 Si10 1.630730 1_555
O51 S16 1.503349 1_555
O52 Si11 1.637428 1_555
O53 Si12 1.641720 1_555
O54 S17 1.473586 1_555
O55 Si13 1.640494 1_555
O56 Si14 1.649969 1_555
O57 Si15 1.617950 1_555
O58 Si16 1.633849 1_555
O59 Si17 1.635829 1_555
O60 Si16 1.649728 1_555
O61 Si17 1.613815 1_555
O62 S17 1.480216 1_555
O63 Si13 1.622346 1_555
O64 Si14 1.639453 1_555
O65 Si15 1.623979 1_555
O66 Si10 1.627732 1_555
O67 S16 1.482742 1_555
O68 Si11 1.651477 1_555
O69 Si12 1.627446 1_555
O70 S14 1.488742 1_555
O71 S15 1.477683 1_555
O72 Si16 1.604788 1_555
O73 Si17 1.633418 1_555
O74 S17 1.480419 1_555
O75 Si13 1.609375 1_555
O76 Si14 1.596701 1_555
O77 Si15 1.644998 1_555
O78 Si10 1.627230 1_555
O79 S16 1.479686 1_555
O80 Si11 1.638086 1_555
O81 Si12 1.617843 1_555
O82 S14 1.467815 1_555
O83 S15 1.469231 1_555
O84 S4 1.506097 1_555
O85 S5 1.511176 1_555
O86 S6 1.504754 1_555
O87 S7 1.500014 1_555
O88 S8 1.492350 1_555
O89 S9 1.511992 1_555
O90 Si8 1.651846 1_555
O91 S10 1.494335 1_555
O92 S11 1.500769 1_555
O93 S12 1.476811 1_555
O94 Si9 1.644963 1_555
O95 S13 1.505872 1_555
O96 Si6 1.615432 1_545
O96 Zn0 2.064107 1_555
O97 Si7 1.628608 1_555
O97 Zn1 2.055455 1_555
O98 Si3 1.593175 1_555
O98 Zn0 1.968829 1_555
O99 Si4 1.610653 1_555
O99 Zn1 1.955742 1_555
O100 Si5 1.591740 1_555
O100 Zn0 1.957052 1_555
O101 S3 1.462460 1_655
O101 Zn1 2.298464 1_555
O102 S1 1.479555 1_555
O103 Si1 1.672549 1_555
O103 Zn2 1.970045 1_555
O104 Si2 1.615371 1_555
O105 S2 1.478849 1_655
O105 Zn2 2.224946 1_555
O106 Si0 1.613619 1_555
O107 S0 1.473338 1_545
O107 Zn2 2.289829 1_555
O108 S14 1.483781 1_555
O109 S15 1.496415 1_555
O110 S16 1.472996 1_555
O111 Si10 1.644690 1_655
O112 Si11 1.644105 1_545
O113 Si12 1.650701 1_545
O114 S17 1.480580 1_545
O115 Si13 1.643473 1_545
O116 Si14 1.648155 1_555
O117 Si15 1.629419 1_555
O118 Si17 1.656281 1_555
O119 Si16 1.621802 1_655
O120 Si9 1.646577 1_555
O121 S13 1.485978 1_555
O122 S10 1.495556 1_455
O123 Si8 1.668277 1_555
O124 S11 1.477605 1_565
O125 S12 1.503868 1_565
O126 S6 1.505984 1_565
O127 S7 1.494261 1_565
O128 S8 1.505221 1_555
O129 S9 1.495043 1_555
O130 S5 1.513047 1_455
O131 S4 1.495707 1_555
O132 Si0 1.664731 1_565
O133 S0 1.464701 1_555
O134 S1 1.483522 1_555
O135 Si1 1.630695 1_555
O136 S2 1.523090 1_555
O137 Si2 1.628344 1_555
O138 Si3 1.638656 1_555
O139 Si4 1.628740 1_555
O140 S3 1.508105 1_555
O141 Si5 1.659278 1_555
O142 Si6 1.648453 1_555
O143 Si7 1.637914 1_565
