# generated using pymatgen
data_Mn(PO3)4
_symmetry_space_group_name_H-M   'P 1'
_cell_length_a   8.38635800
_cell_length_b   9.01429600
_cell_length_c   12.73785400
_cell_angle_alpha   90.00000000
_cell_angle_beta   90.00000000
_cell_angle_gamma   90.00000000
_symmetry_Int_Tables_number   1
_chemical_formula_structural   Mn(PO3)4
_chemical_formula_sum   'Mn4 P16 O48'
_cell_volume   962.94499298
_cell_formula_units_Z   4
loop_
 _symmetry_equiv_pos_site_id
 _symmetry_equiv_pos_as_xyz
  1  'x, y, z'
loop_
 _atom_site_type_symbol
 _atom_site_label
 _atom_site_symmetry_multiplicity
 _atom_site_fract_x
 _atom_site_fract_y
 _atom_site_fract_z
 _atom_site_occupancy
  Mn  Mn0  1  0.36207300  0.75000000  0.00000000  1
  Mn  Mn1  1  0.63792700  0.25000000  0.00000000  1
  Mn  Mn2  1  0.13792700  0.25000000  0.50000000  1
  Mn  Mn3  1  0.86207300  0.75000000  0.50000000  1
  P  P0  1  0.18672900  0.50537100  0.14405800  1
  P  P1  1  0.81327100  0.00537100  0.14405800  1
  P  P2  1  0.46066800  0.01548000  0.14975400  1
  P  P3  1  0.53933200  0.51548000  0.14975400  1
  P  P4  1  0.03933200  0.51548000  0.35024600  1
  P  P5  1  0.96066800  0.01548000  0.35024600  1
  P  P6  1  0.31327100  0.00537100  0.35594200  1
  P  P7  1  0.68672900  0.50537100  0.35594200  1
  P  P8  1  0.31327100  0.49462900  0.64405800  1
  P  P9  1  0.68672900  0.99462900  0.64405800  1
  P  P10  1  0.03933200  0.98452000  0.64975400  1
  P  P11  1  0.96066800  0.48452000  0.64975400  1
  P  P12  1  0.46066800  0.48452000  0.85024600  1
  P  P13  1  0.53933200  0.98452000  0.85024600  1
  P  P14  1  0.18672900  0.99462900  0.85594200  1
  P  P15  1  0.81327100  0.49462900  0.85594200  1
  O  O0  1  0.20216600  0.62993900  0.06306100  1
  O  O1  1  0.79783400  0.12993900  0.06306100  1
  O  O2  1  0.46927000  0.13393100  0.06479300  1
  O  O3  1  0.53073000  0.63393100  0.06479300  1
  O  O4  1  0.09399200  0.37271500  0.11814600  1
  O  O5  1  0.90600800  0.87271500  0.11814600  1
  O  O6  1  0.36068300  0.88028600  0.12152100  1
  O  O7  1  0.63931700  0.38028600  0.12152100  1
  O  O8  1  0.36666500  0.46477900  0.18451600  1
  O  O9  1  0.63333500  0.96477900  0.18451600  1
  O  O10  1  0.11912300  0.58845100  0.25016300  1
  O  O11  1  0.88087700  0.08845100  0.25016300  1
  O  O12  1  0.38087700  0.08845100  0.24983700  1
  O  O13  1  0.61912300  0.58845100  0.24983700  1
  O  O14  1  0.13333500  0.96477900  0.31548400  1
  O  O15  1  0.86666500  0.46477900  0.31548400  1
  O  O16  1  0.13931700  0.38028600  0.37847900  1
  O  O17  1  0.86068300  0.88028600  0.37847900  1
  O  O18  1  0.40600800  0.87271500  0.38185400  1
  O  O19  1  0.59399200  0.37271500  0.38185400  1
  O  O20  1  0.03073000  0.63393100  0.43520700  1
  O  O21  1  0.96927000  0.13393100  0.43520700  1
  O  O22  1  0.29783400  0.12993900  0.43693900  1
  O  O23  1  0.70216600  0.62993900  0.43693900  1
  O  O24  1  0.29783400  0.37006100  0.56306100  1
  O  O25  1  0.70216600  0.87006100  0.56306100  1
  O  O26  1  0.03073000  0.86606900  0.56479300  1
  O  O27  1  0.96927000  0.36606900  0.56479300  1
  O  O28  1  0.40600800  0.62728500  0.61814600  1
  O  O29  1  0.59399200  0.12728500  0.61814600  1
  O  O30  1  0.13931700  0.11971400  0.62152100  1
  O  O31  1  0.86068300  0.61971400  0.62152100  1
  O  O32  1  0.13333500  0.53522100  0.68451600  1
  O  O33  1  0.86666500  0.03522100  0.68451600  1
  O  O34  1  0.38087700  0.41154900  0.75016300  1
  O  O35  1  0.61912300  0.91154900  0.75016300  1
  O  O36  1  0.11912300  0.91154900  0.74983700  1
  O  O37  1  0.88087700  0.41154900  0.74983700  1
  O  O38  1  0.36666500  0.03522100  0.81548400  1
  O  O39  1  0.63333500  0.53522100  0.81548400  1
  O  O40  1  0.36068300  0.61971400  0.87847900  1
  O  O41  1  0.63931700  0.11971400  0.87847900  1
  O  O42  1  0.09399200  0.12728500  0.88185400  1
  O  O43  1  0.90600800  0.62728500  0.88185400  1
  O  O44  1  0.46927000  0.36606900  0.93520700  1
  O  O45  1  0.53073000  0.86606900  0.93520700  1
  O  O46  1  0.20216600  0.87006100  0.93693900  1
  O  O47  1  0.79783400  0.37006100  0.93693900  1
loop_
_geom_bond_atom_site_label_1
_geom_bond_atom_site_label_2
_geom_bond_distance
_geom_bond_site_symmetry_2
Mn0 O0 1.901291 1_555
Mn0 O46 1.901291 1_554
Mn0 O40 1.943060 1_554
Mn0 O6 1.943060 1_555
Mn0 O45 1.943306 1_554
Mn0 O3 1.943306 1_555
Mn1 O1 1.901291 1_555
Mn1 O47 1.901291 1_554
Mn1 O41 1.943060 1_554
Mn1 O7 1.943060 1_555
Mn1 O44 1.943306 1_554
Mn1 O2 1.943306 1_555
Mn2 O22 1.901291 1_555
Mn2 O24 1.901291 1_555
Mn2 O30 1.943060 1_555
Mn2 O16 1.943060 1_555
Mn2 O27 1.943306 1_455
Mn2 O21 1.943306 1_455
Mn3 O23 1.901291 1_555
Mn3 O25 1.901291 1_555
Mn3 O31 1.943060 1_555
Mn3 O17 1.943060 1_555
Mn3 O26 1.943306 1_655
Mn3 O20 1.943306 1_655
O0 P0 1.530396 1_555
O1 P1 1.530396 1_555
O2 P2 1.522006 1_555
O3 P3 1.522006 1_555
O4 P0 1.464151 1_555
O5 P1 1.464151 1_565
O6 P2 1.522370 1_565
O7 P3 1.522370 1_555
O8 P3 1.581704 1_555
O8 P0 1.636025 1_555
O9 P2 1.581704 1_565
O9 P1 1.636025 1_565
O10 P4 1.582931 1_555
O10 P0 1.645905 1_555
O11 P5 1.582931 1_555
O11 P1 1.645905 1_555
O12 P2 1.582931 1_555
O12 P6 1.645905 1_555
O13 P3 1.582931 1_555
O13 P7 1.645905 1_555
O14 P5 1.581704 1_465
O14 P6 1.636025 1_565
O15 P4 1.581704 1_655
O15 P7 1.636025 1_555
O16 P4 1.522370 1_555
O17 P5 1.522370 1_565
O18 P6 1.464151 1_565
O19 P7 1.464151 1_555
O20 P4 1.522006 1_555
O21 P5 1.522006 1_555
O22 P6 1.530396 1_555
O23 P7 1.530396 1_555
O24 P8 1.530396 1_555
O25 P9 1.530396 1_555
O26 P10 1.522006 1_555
O27 P11 1.522006 1_555
O28 P8 1.464151 1_555
O29 P9 1.464151 1_545
O30 P10 1.522370 1_545
O31 P11 1.522370 1_555
O32 P11 1.581704 1_455
O32 P8 1.636025 1_555
O33 P10 1.581704 1_645
O33 P9 1.636025 1_545
O34 P12 1.582931 1_555
O34 P8 1.645905 1_555
O35 P13 1.582931 1_555
O35 P9 1.645905 1_555
O36 P10 1.582931 1_555
O36 P14 1.645905 1_555
O37 P11 1.582931 1_555
O37 P15 1.645905 1_555
O38 P13 1.581704 1_545
O38 P14 1.636025 1_545
O39 P12 1.581704 1_555
O39 P15 1.636025 1_555
O40 P12 1.522370 1_555
O41 P13 1.522370 1_545
O42 P14 1.464151 1_545
O43 P15 1.464151 1_555
O44 P12 1.522006 1_555
O45 P13 1.522006 1_555
O46 P14 1.530396 1_555
O47 P15 1.530396 1_555
