# generated using pymatgen
data_Tb2MgCu(GeO3)4
_symmetry_space_group_name_H-M   'P 1'
_cell_length_a   5.24873793
_cell_length_b   7.57284295
_cell_length_c   8.15593723
_cell_angle_alpha   65.18970227
_cell_angle_beta   87.72026221
_cell_angle_gamma   77.16692701
_symmetry_Int_Tables_number   1
_chemical_formula_structural   Tb2MgCu(GeO3)4
_chemical_formula_sum   'Tb2 Mg1 Cu1 Ge4 O12'
_cell_volume   286.38646585
_cell_formula_units_Z   1
loop_
 _symmetry_equiv_pos_site_id
 _symmetry_equiv_pos_as_xyz
  1  'x, y, z'
loop_
 _atom_site_type_symbol
 _atom_site_label
 _atom_site_symmetry_multiplicity
 _atom_site_fract_x
 _atom_site_fract_y
 _atom_site_fract_z
 _atom_site_occupancy
  Tb  Tb0  1  0.03341800  0.77688300  0.43410600  1
  Tb  Tb1  1  0.96658200  0.22311700  0.56589400  1
  Mg  Mg0  1  0.50000000  0.00000000  0.00000000  1
  Cu  Cu0  1  0.00000000  0.00000000  0.00000000  1
  Ge  Ge0  1  0.55847500  0.83224600  0.75263700  1
  Ge  Ge1  1  0.44152500  0.16775400  0.24736300  1
  Ge  Ge2  1  0.58407500  0.59524000  0.21431600  1
  Ge  Ge3  1  0.41592500  0.40476000  0.78568400  1
  O  O0  1  0.80104000  0.92500000  0.60691500  1
  O  O1  1  0.19896000  0.07500000  0.39308500  1
  O  O2  1  0.82807400  0.55797100  0.37484200  1
  O  O3  1  0.17192600  0.44202900  0.62515800  1
  O  O4  1  0.43787400  0.66574300  0.68648800  1
  O  O5  1  0.56212600  0.33425700  0.31351200  1
  O  O6  1  0.70681800  0.72343600  0.98730500  1
  O  O7  1  0.70254100  0.20747400  0.80536000  1
  O  O8  1  0.29745900  0.79252600  0.19464000  1
  O  O9  1  0.70608700  0.99065500  0.21664300  1
  O  O10  1  0.29391300  0.00934500  0.78335700  1
  O  O11  1  0.29318200  0.27656400  0.01269500  1
loop_
_geom_bond_atom_site_label_1
_geom_bond_atom_site_label_2
_geom_bond_distance
_geom_bond_site_symmetry_2
Mg0 O10 2.076106 1_554
Mg0 O9 2.076106 1_545
Mg0 O7 2.152511 1_554
Mg0 O8 2.152511 1_545
Mg0 O11 2.176835 1_555
Mg0 O6 2.176835 1_544
Cu0 O7 2.107257 1_454
Cu0 O8 2.107257 1_545
Cu0 O9 2.287702 1_445
Cu0 O10 2.287702 1_554
Ge0 O0 1.761569 1_555
Ge0 O10 1.793524 1_565
Ge0 O4 1.798405 1_555
Ge0 O6 1.859674 1_555
Ge1 O1 1.761569 1_555
Ge1 O9 1.793524 1_545
Ge1 O5 1.798405 1_555
Ge1 O11 1.859674 1_555
Ge2 O2 1.759730 1_555
Ge2 O5 1.823659 1_555
Ge2 O8 1.827718 1_555
Ge2 O6 1.860107 1_554
Ge3 O3 1.759730 1_555
Ge3 O4 1.823659 1_555
Ge3 O7 1.827718 1_555
Ge3 O11 1.860107 1_556
O0 Tb0 2.305317 1_655
O0 Tb1 2.485559 1_565
O1 Tb1 2.305317 1_455
O1 Tb0 2.485559 1_545
O2 Tb1 2.311264 1_555
O2 Tb0 2.377219 1_655
O3 Tb0 2.311264 1_555
O3 Tb1 2.377219 1_455
O4 Tb0 2.748105 1_555
O5 Tb1 2.748105 1_555
O7 Tb1 2.326501 1_555
O8 Tb0 2.326501 1_555
O9 Tb0 2.305531 1_655
O10 Tb1 2.305531 1_455
