# generated using pymatgen
data_LaMgCrWO6
_symmetry_space_group_name_H-M   'P 1'
_cell_length_a   5.43338051
_cell_length_b   5.60063572
_cell_length_c   5.56317685
_cell_angle_alpha   59.47498828
_cell_angle_beta   118.54482483
_cell_angle_gamma   89.98220102
_symmetry_Int_Tables_number   1
_chemical_formula_structural   LaMgCrWO6
_chemical_formula_sum   'La1 Mg1 Cr1 W1 O6'
_cell_volume   121.31524296
_cell_formula_units_Z   1
loop_
 _symmetry_equiv_pos_site_id
 _symmetry_equiv_pos_as_xyz
  1  'x, y, z'
loop_
 _atom_site_type_symbol
 _atom_site_label
 _atom_site_symmetry_multiplicity
 _atom_site_fract_x
 _atom_site_fract_y
 _atom_site_fract_z
 _atom_site_occupancy
  La  La0  1  0.75974600  0.26087600  0.49763300  1
  Mg  Mg0  1  0.21984200  0.77196100  0.50818700  1
  Cr  Cr0  1  0.99921600  0.50985100  0.99699100  1
  W  W0  1  0.50004900  0.00995600  0.00127800  1
  O  O0  1  0.34310600  0.25807500  0.48484700  1
  O  O1  1  0.21772700  0.36007300  0.86369700  1
  O  O2  1  0.81982000  0.68974200  0.13301000  1
  O  O3  1  0.18743400  0.82346000  0.86486300  1
  O  O4  1  0.85249800  0.16349000  0.13801300  1
  O  O5  1  0.61079400  0.75583200  0.51189200  1
loop_
_geom_bond_atom_site_label_1
_geom_bond_atom_site_label_2
_geom_bond_distance
_geom_bond_site_symmetry_2
La0 O0 2.230964 1_555
La0 O2 2.382090 1_555
La0 O3 2.439378 1_645
La0 O4 2.574069 1_555
La0 O1 2.637255 1_655
Mg0 O5 2.115873 1_555
Mg0 O4 2.124828 1_465
Mg0 O1 2.149492 1_555
Mg0 O3 2.228611 1_555
Mg0 O2 2.435947 1_455
Cr0 O2 2.004114 1_556
Cr0 O4 2.016598 1_556
Cr0 O3 2.019688 1_655
Cr0 O0 2.027282 1_656
Cr0 O1 2.033661 1_655
Cr0 O5 2.100770 1_555
O0 W0 2.124772 1_556
O1 W0 2.033566 1_556
O2 W0 2.053814 1_565
O3 W0 2.031352 1_566
O4 W0 2.063626 1_555
O5 W0 2.171618 1_565
