# generated using pymatgen
data_CoSiH12(OF)6
_symmetry_space_group_name_H-M   'P 1'
_cell_length_a   6.40013768
_cell_length_b   6.40013768
_cell_length_c   6.40013821
_cell_angle_alpha   96.49783188
_cell_angle_beta   96.49783188
_cell_angle_gamma   96.49782427
_symmetry_Int_Tables_number   1
_chemical_formula_structural   CoSiH12(OF)6
_chemical_formula_sum   'Co1 Si1 H12 O6 F6'
_cell_volume   256.68784830
_cell_formula_units_Z   1
loop_
 _symmetry_equiv_pos_site_id
 _symmetry_equiv_pos_as_xyz
  1  'x, y, z'
loop_
 _atom_site_type_symbol
 _atom_site_label
 _atom_site_symmetry_multiplicity
 _atom_site_fract_x
 _atom_site_fract_y
 _atom_site_fract_z
 _atom_site_occupancy
  Co  Co0  1  0.00000000  0.00000000  0.00000000  1
  Si  Si0  1  0.50000000  0.50000000  0.50000000  1
  H  H0  1  0.20395800  0.31288700  0.81533200  1
  H  H1  1  0.81533200  0.20395800  0.31288700  1
  H  H2  1  0.31288700  0.81533200  0.20395800  1
  H  H3  1  0.79604200  0.68711300  0.18466800  1
  H  H4  1  0.18466800  0.79604200  0.68711300  1
  H  H5  1  0.68711300  0.18466800  0.79604200  1
  H  H6  1  0.20273700  0.40202000  0.05820100  1
  H  H7  1  0.05820100  0.20273700  0.40202000  1
  H  H8  1  0.40202000  0.05820100  0.20273700  1
  H  H9  1  0.94179900  0.79726300  0.59798000  1
  H  H10  1  0.59798000  0.94179900  0.79726300  1
  H  H11  1  0.79726300  0.59798000  0.94179900  1
  O  O0  1  0.93962000  0.12819200  0.30018600  1
  O  O1  1  0.30018600  0.93962000  0.12819200  1
  O  O2  1  0.87180800  0.69981400  0.06038000  1
  O  O3  1  0.06038000  0.87180800  0.69981400  1
  O  O4  1  0.69981400  0.06038000  0.87180800  1
  O  O5  1  0.12819200  0.30018600  0.93962000  1
  F  F0  1  0.70247500  0.67038000  0.43320600  1
  F  F1  1  0.43320600  0.70247500  0.67038000  1
  F  F2  1  0.67038000  0.43320600  0.70247500  1
  F  F3  1  0.29752500  0.32962000  0.56679400  1
  F  F4  1  0.32962000  0.56679400  0.29752500  1
  F  F5  1  0.56679400  0.29752500  0.32962000  1
loop_
_geom_bond_atom_site_label_1
_geom_bond_atom_site_label_2
_geom_bond_distance
_geom_bond_site_symmetry_2
Co0 O4 2.096816 1_454
Co0 O1 2.096816 1_545
Co0 O2 2.096816 1_445
Co0 O5 2.096816 1_554
Co0 O3 2.096816 1_544
Co0 O0 2.096816 1_455
H0 O5 0.983627 1_555
H1 O0 0.983627 1_555
H2 O1 0.983627 1_555
H3 O2 0.983627 1_555
H4 O3 0.983627 1_555
H5 O4 0.983627 1_555
H6 O5 0.981888 1_554
H7 O0 0.981888 1_455
H8 O1 0.981888 1_545
H9 O3 0.981888 1_655
H10 O4 0.981888 1_565
H11 O2 0.981888 1_556
F0 Si0 1.721098 1_555
F1 Si0 1.721098 1_555
F2 Si0 1.721098 1_555
F3 Si0 1.721098 1_555
F4 Si0 1.721098 1_555
F5 Si0 1.721098 1_555
