# generated using pymatgen
data_Na2Mg2Si3Ge6(S3O16)3
_symmetry_space_group_name_H-M   'P 1'
_cell_length_a   16.92743225
_cell_length_b   8.46651108
_cell_length_c   22.04487551
_cell_angle_alpha   90.08300234
_cell_angle_beta   89.23919810
_cell_angle_gamma   120.17280283
_symmetry_Int_Tables_number   1
_chemical_formula_structural   Na2Mg2Si3Ge6(S3O16)3
_chemical_formula_sum   'Na6 Mg6 Si9 Ge18 S27 O144'
_cell_volume   2731.04441377
_cell_formula_units_Z   3
loop_
 _symmetry_equiv_pos_site_id
 _symmetry_equiv_pos_as_xyz
  1  'x, y, z'
loop_
 _atom_site_type_symbol
 _atom_site_label
 _atom_site_symmetry_multiplicity
 _atom_site_fract_x
 _atom_site_fract_y
 _atom_site_fract_z
 _atom_site_occupancy
  Na  Na0  1  0.00166183  0.99187347  0.49604013  1
  Na  Na1  1  0.50007339  0.01069310  0.99846799  1
  Na  Na2  1  0.33089533  0.32725707  0.83571586  1
  Na  Na3  1  0.83467027  0.33441217  0.83513158  1
  Na  Na4  1  0.32625233  0.32369560  0.33193796  1
  Na  Na5  1  0.83252211  0.33726235  0.33415295  1
  Mg  Mg0  1  0.00508800  0.99473440  0.35478734  1
  Mg  Mg1  1  0.50059629  0.00840236  0.85565756  1
  Mg  Mg2  1  0.00163049  0.00927519  0.64909692  1
  Mg  Mg3  1  0.50137654  0.99370772  0.14976155  1
  Mg  Mg4  1  0.83533131  0.33372391  0.98100750  1
  Mg  Mg5  1  0.33434324  0.33437870  0.47885315  1
  Si  Si0  1  0.14782441  0.00238803  0.25094735  1
  Si  Si1  1  0.64550515  0.99220853  0.24847552  1
  Si  Si2  1  0.14560714  0.29904075  0.74841753  1
  Si  Si3  1  0.69064035  0.04225068  0.58168503  1
  Si  Si4  1  0.18951143  0.33845041  0.08036849  1
  Si  Si5  1  0.52211627  0.38081141  0.92039953  1
  Si  Si6  1  0.16385097  0.93891069  0.91685382  1
  Si  Si7  1  0.66187115  0.38617402  0.41643962  1
  Si  Si8  1  0.02041516  0.66331506  0.42041966  1
  Ge  Ge0  1  0.51310256  0.02136865  0.35340746  1
  Ge  Ge1  1  0.01498569  0.00734540  0.85624596  1
  Ge  Ge2  1  0.50517091  0.00241201  0.64398650  1
  Ge  Ge3  1  0.01482289  0.00738024  0.14693319  1
  Ge  Ge4  1  0.32370239  0.32530779  0.68428340  1
  Ge  Ge5  1  0.83300491  0.32346088  0.67996313  1
  Ge  Ge6  1  0.32416773  0.33890710  0.18465840  1
  Ge  Ge7  1  0.82681006  0.32241147  0.18613078  1
  Ge  Ge8  1  0.32557200  0.31027267  0.97582004  1
  Ge  Ge9  1  0.82350371  0.33752888  0.47387308  1
  Ge  Ge10  1  0.16457158  0.66865650  0.02438762  1
  Ge  Ge11  1  0.66392706  0.65833915  0.02359771  1
  Ge  Ge12  1  0.16587695  0.67244808  0.51742539  1
  Ge  Ge13  1  0.66384847  0.66812039  0.51970338  1
  Ge  Ge14  1  0.15499160  0.66702544  0.31045980  1
  Ge  Ge15  1  0.66900293  0.66551169  0.31030162  1
  Ge  Ge16  1  0.16800008  0.66617377  0.81338404  1
  Ge  Ge17  1  0.66057153  0.66239657  0.81572828  1
  S  S0  1  0.35367221  0.71157309  0.25346901  1
  S  S1  1  0.85609326  0.71139090  0.24640339  1
  S  S2  1  0.99942308  0.28918660  0.24868750  1
  S  S3  1  0.49916118  0.29343978  0.24981419  1
  S  S4  1  0.64850825  0.29694820  0.74903663  1
  S  S5  1  0.99700001  0.70153984  0.74954620  1
  S  S6  1  0.50147931  0.70906096  0.74902922  1
  S  S7  1  0.35706656  0.00244674  0.74663756  1
  S  S8  1  0.85111588  0.99561126  0.75321122  1
  S  S9  1  0.47639689  0.33149058  0.58605276  1
  S  S10  1  0.97957370  0.33678123  0.58077734  1
  S  S11  1  0.18846506  0.03563879  0.58144009  1
  S  S12  1  0.33201165  0.62840488  0.58350373  1
  S  S13  1  0.83264170  0.62271182  0.58283278  1
  S  S14  1  0.47656464  0.61827327  0.08202919  1
  S  S15  1  0.97557212  0.62231122  0.08512033  1
  S  S16  1  0.33392145  0.04432246  0.08258857  1
  S  S17  1  0.83334284  0.03482366  0.08343213  1
  S  S18  1  0.68869796  0.33844238  0.08211991  1
  S  S19  1  0.30981413  0.66478477  0.91797033  1
  S  S20  1  0.81244403  0.67456417  0.91416793  1
  S  S21  1  0.02087201  0.37246028  0.91565991  1
  S  S22  1  0.66847121  0.95283395  0.91735784  1
  S  S23  1  0.31301402  0.95046135  0.41432021  1
  S  S24  1  0.81040599  0.95494826  0.41736023  1
  S  S25  1  0.16761805  0.38708949  0.41629886  1
  S  S26  1  0.52155729  0.66993056  0.41512149  1
  O  O0  1  0.11371569  0.06003151  0.30926390  1
  O  O1  1  0.60707616  0.04484014  0.31098115  1
  O  O2  1  0.41188140  0.79338936  0.30819571  1
  O  O3  1  0.90830548  0.78403114  0.30131639  1
  O  O4  1  0.47598401  0.17413234  0.30610264  1
  O  O5  1  0.97748356  0.17785535  0.30307279  1
  O  O6  1  0.10613368  0.16836545  0.81091949  1
  O  O7  1  0.61028979  0.18199655  0.80252549  1
  O  O8  1  0.48400698  0.78577574  0.80303770  1
  O  O9  1  0.97384601  0.77350120  0.80550522  1
  O  O10  1  0.41212275  0.03661771  0.80035447  1
  O  O11  1  0.90723128  0.02901817  0.80779020  1
  O  O12  1  0.39942288  0.96791758  0.69103961  1
  O  O13  1  0.88615741  0.96050664  0.69783009  1
  O  O14  1  0.08779799  0.22253671  0.68981793  1
  O  O15  1  0.59113673  0.21956496  0.69388802  1
  O  O16  1  0.01030194  0.80872397  0.69528721  1
  O  O17  1  0.51711397  0.82311698  0.69299284  1
  O  O18  1  0.38865282  0.81869042  0.19840445  1
  O  O19  1  0.89617028  0.82724309  0.19106664  1
  O  O20  1  0.01225593  0.20705203  0.19201344  1
  O  O21  1  0.51382812  0.21269249  0.19610048  1
  O  O22  1  0.08406284  0.95229160  0.18969799  1
  O  O23  1  0.58841087  0.95280225  0.18921709  1
  O  O24  1  0.43374856  0.36779482  0.64178034  1
  O  O25  1  0.94358895  0.37988507  0.63972037  1
  O  O26  1  0.24555092  0.11554771  0.63861837  1
  O  O27  1  0.75243473  0.12199541  0.64358618  1
  O  O28  1  0.31356197  0.51329574  0.64028090  1
  O  O29  1  0.81553851  0.50623314  0.63960064  1
  O  O30  1  0.43917952  0.50245713  0.13871263  1
  O  O31  1  0.93394550  0.50056597  0.14036273  1
  O  O32  1  0.31809040  0.12777343  0.13714559  1
  O  O33  1  0.81181608  0.11308640  0.13883439  1
  O  O34  1  0.25407235  0.39012830  0.14031150  1
  O  O35  1  0.74616670  0.37189800  0.13778364  1
  O  O36  1  0.23610071  0.29579546  0.02225797  1
  O  O37  1  0.73058560  0.31125027  0.02786265  1
  O  O38  1  0.42194114  0.53009598  0.02795144  1
  O  O39  1  0.92273823  0.54295572  0.03069469  1
  O  O40  1  0.35388299  0.15818698  0.02613290  1
  O  O41  1  0.85021486  0.14748998  0.02957114  1
  O  O42  1  0.23196180  0.15264285  0.52900351  1
  O  O43  1  0.73777050  0.17863012  0.52452421  1
  O  O44  1  0.35130479  0.55067248  0.53079222  1
  O  O45  1  0.85303533  0.54467863  0.52848829  1
  O  O46  1  0.42144455  0.29687297  0.53244263  1
  O  O47  1  0.92129971  0.31235327  0.52937153  1
  O  O48  1  0.26881811  0.69865344  0.97259490  1
  O  O49  1  0.77498834  0.71258921  0.97014712  1
  O  O50  1  0.07682035  0.44689819  0.97017632  1
  O  O51  1  0.59104729  0.47532519  0.97805423  1
  O  O52  1  0.14670878  0.81498709  0.97734567  1
  O  O53  1  0.65502868  0.84164541  0.97311172  1
  O  O54  1  0.27698098  0.84003915  0.47263254  1
  O  O55  1  0.77039122  0.84083542  0.47371153  1
  O  O56  1  0.15575028  0.47015811  0.47530319  1
  O  O57  1  0.64627376  0.47499871  0.47865872  1
  O  O58  1  0.08777356  0.71103714  0.47977189  1
  O  O59  1  0.57743900  0.70889577  0.47123656  1
  O  O60  1  0.06147685  0.60930276  0.36025866  1
  O  O61  1  0.56368207  0.63570240  0.36135120  1
  O  O62  1  0.25280198  0.86650934  0.36181041  1
  O  O63  1  0.75358881  0.87641822  0.36303440  1
  O  O64  1  0.18670849  0.50429272  0.36168041  1
  O  O65  1  0.68533213  0.51462856  0.35605540  1
  O  O66  1  0.06182476  0.48835336  0.86036171  1
  O  O67  1  0.56252875  0.50845085  0.85704131  1
  O  O68  1  0.18537599  0.85814100  0.85468709  1
  O  O69  1  0.68932022  0.87809336  0.86054844  1
  O  O70  1  0.25440905  0.63031102  0.86213675  1
  O  O71  1  0.75226945  0.63426292  0.85943987  1
  O  O72  1  0.00638581  0.83390192  0.41756937  1
  O  O73  1  0.51058843  0.83185573  0.40848175  1
  O  O74  1  0.40195623  0.96005604  0.40625665  1
  O  O75  1  0.90074954  0.97736188  0.41123910  1
  O  O76  1  0.08247249  0.21433317  0.41406303  1
  O  O77  1  0.56907788  0.18932233  0.41023231  1
  O  O78  1  0.00926111  0.18706162  0.90811213  1
  O  O79  1  0.51204494  0.18522269  0.91551594  1
  O  O80  1  0.06999586  0.94703020  0.91096280  1
  O  O81  1  0.58435548  0.95742570  0.91074089  1
  O  O82  1  0.40050297  0.82453287  0.91122992  1
  O  O83  1  0.90109037  0.84382086  0.90431422  1
  O  O84  1  0.48361921  0.16476074  0.59596880  1
  O  O85  1  0.98454381  0.17047153  0.58662392  1
  O  O86  1  0.09724694  0.00872677  0.58895522  1
  O  O87  1  0.59061814  0.02474123  0.59355350  1
  O  O88  1  0.41324646  0.81243669  0.59374507  1
  O  O89  1  0.91291976  0.80298666  0.59047945  1
  O  O90  1  0.48463642  0.79751565  0.08601549  1
  O  O91  1  0.98003403  0.80029995  0.09261468  1
  O  O92  1  0.41289128  0.02010816  0.08850114  1
  O  O93  1  0.91108251  0.00966896  0.09431804  1
  O  O94  1  0.08760440  0.16056939  0.09002007  1
  O  O95  1  0.59665307  0.18418787  0.08850143  1
  O  O96  1  0.35058996  0.17184773  0.73799262  1
  O  O97  1  0.84275761  0.16620891  0.74769909  1
  O  O98  1  0.24965201  0.31847489  0.74341186  1
  O  O99  1  0.74191218  0.31839678  0.74039587  1
  O  O100  1  0.42180899  0.52271056  0.74017514  1
  O  O101  1  0.91273006  0.51083074  0.74359710  1
  O  O102  1  0.35086482  0.52984671  0.24732393  1
  O  O103  1  0.84857481  0.52661864  0.23830147  1
  O  O104  1  0.42014173  0.32265893  0.24432632  1
  O  O105  1  0.92086247  0.32292681  0.23976999  1
  O  O106  1  0.25196465  0.18039910  0.23953592  1
  O  O107  1  0.74932040  0.18073092  0.24339757  1
  O  O108  1  0.31551505  0.49666609  0.92303199  1
  O  O109  1  0.82182754  0.51256762  0.92006387  1
  O  O110  1  0.42493692  0.37928644  0.92734143  1
  O  O111  1  0.93080365  0.35677650  0.92108264  1
  O  O112  1  0.25433712  0.14092389  0.92046829  1
  O  O113  1  0.74969435  0.13442495  0.92181232  1
  O  O114  1  0.32250950  0.13131549  0.42159606  1
  O  O115  1  0.81479805  0.13338576  0.42369855  1
  O  O116  1  0.24915567  0.36891196  0.42218650  1
  O  O117  1  0.75254050  0.36547547  0.42039881  1
  O  O118  1  0.43209012  0.50434485  0.42215104  1
  O  O119  1  0.92359390  0.46746639  0.42811208  1
  O  O120  1  0.17725593  0.51550009  0.06989142  1
  O  O121  1  0.68789100  0.51606208  0.07922233  1
  O  O122  1  0.06766426  0.64196290  0.08156391  1
  O  O123  1  0.57102164  0.64051274  0.07823968  1
  O  O124  1  0.24828790  0.86587600  0.07651792  1
  O  O125  1  0.74727913  0.85093450  0.07616792  1
  O  O126  1  0.18764245  0.85792078  0.57803043  1
  O  O127  1  0.67611199  0.83914329  0.57087277  1
  O  O128  1  0.24934325  0.64528257  0.57697054  1
  O  O129  1  0.74815442  0.63063950  0.57747190  1
  O  O130  1  0.07269627  0.50208941  0.57685522  1
  O  O131  1  0.56774921  0.49487855  0.58210462  1
  O  O132  1  0.16071393  0.82251627  0.25578244  1
  O  O133  1  0.66151118  0.82251676  0.26422568  1
  O  O134  1  0.25981847  0.67599842  0.26403719  1
  O  O135  1  0.76274243  0.68489649  0.25095598  1
  O  O136  1  0.08604805  0.46783303  0.25314921  1
  O  O137  1  0.58330358  0.47226825  0.25881644  1
  O  O138  1  0.16186753  0.50184017  0.76376056  1
  O  O139  1  0.65930067  0.48215112  0.75571842  1
  O  O140  1  0.07821156  0.68386011  0.75863109  1
  O  O141  1  0.58732543  0.69941696  0.75329150  1
  O  O142  1  0.26526895  0.84140055  0.75090351  1
  O  O143  1  0.75654102  0.83122543  0.76196914  1
loop_
_geom_bond_atom_site_label_1
_geom_bond_atom_site_label_2
_geom_bond_distance
_geom_bond_site_symmetry_2
Na0 O72 2.210164 1_555
Na0 O76 2.457406 1_565
Na0 O75 2.510165 1_455
Na0 O89 2.580715 1_455
Na0 O86 2.586300 1_565
Na0 O85 2.602765 1_465
Na1 O79 2.294677 1_555
Na1 O92 2.482653 1_556
Na1 O82 2.535828 1_545
Na1 O95 2.536431 1_556
Na1 O81 2.559273 1_545
Na1 O90 2.563834 1_546
Na2 O112 2.355443 1_555
Na2 O98 2.451211 1_555
Na2 O108 2.486806 1_555
Na2 O110 2.487156 1_555
Na2 O96 2.626225 1_555
Na2 O100 2.628081 1_555
Na3 O97 2.437790 1_555
Na3 O101 2.450047 1_555
Na3 O111 2.458706 1_555
Na3 O113 2.464856 1_555
Na3 O109 2.477622 1_555
Na3 O99 2.591832 1_555
Na4 O106 2.393705 1_555
Na4 O102 2.440722 1_555
Na4 O104 2.487707 1_555
Na4 O116 2.497787 1_555
Na4 O114 2.542792 1_555
Na4 O118 2.614461 1_555
Na5 O117 2.400069 1_555
Na5 O107 2.435895 1_555
Na5 O119 2.500406 1_555
Na5 O115 2.537684 1_555
Na5 O103 2.581786 1_555
Na5 O105 2.584398 1_555
Mg0 O0 1.903850 1_565
Mg0 O72 1.951035 1_555
Mg0 O3 2.088824 1_455
Mg0 O75 2.090639 1_455
Mg0 O76 2.114340 1_565
Mg0 O5 2.160849 1_465
Mg1 O79 1.931170 1_555
Mg1 O82 2.023366 1_545
Mg1 O7 2.045434 1_555
Mg1 O10 2.048230 1_555
Mg1 O81 2.081684 1_545
Mg1 O8 2.108897 1_545
Mg2 O14 1.891081 1_555
Mg2 O16 2.049637 1_545
Mg2 O85 2.062955 1_455
Mg2 O13 2.068714 1_445
Mg2 O86 2.080393 1_555
Mg2 O89 2.093750 1_445
Mg3 O23 1.895995 1_555
Mg3 O18 2.023509 1_555
Mg3 O21 2.032935 1_565
Mg3 O90 2.084439 1_555
Mg3 O95 2.087969 1_565
Mg3 O92 2.123293 1_565
Mg4 O37 1.964617 1_556
Mg4 O39 1.982356 1_556
Mg4 O111 2.005492 1_555
Mg4 O41 2.026607 1_556
Mg4 O113 2.058286 1_555
Mg4 O109 2.124135 1_555
Mg5 O42 1.966411 1_555
Mg5 O118 1.981873 1_555
Mg5 O46 2.046536 1_555
Mg5 O116 2.048926 1_555
Mg5 O44 2.054521 1_555
Mg5 O114 2.059941 1_555
Ge0 O1 1.757253 1_555
Ge0 O77 1.777933 1_555
Ge0 O73 1.996486 1_545
Ge0 O4 1.998326 1_555
Ge0 O74 2.031836 1_545
Ge0 O2 2.090480 1_545
Ge1 O6 1.756738 1_555
Ge1 O80 1.758540 1_545
Ge1 O78 1.942194 1_555
Ge1 O83 2.005873 1_445
Ge1 O9 2.069850 1_445
Ge1 O11 2.211440 1_455
Ge2 O87 1.745545 1_555
Ge2 O84 1.913496 1_555
Ge2 O88 1.939014 1_545
Ge2 O12 1.947192 1_545
Ge2 O17 1.957391 1_545
Ge2 O15 2.013751 1_555
Ge3 O22 1.749326 1_545
Ge3 O94 1.769621 1_555
Ge3 O91 1.956867 1_445
Ge3 O20 1.978686 1_555
Ge3 O19 2.044460 1_445
Ge3 O93 2.125519 1_455
Ge4 O98 1.776952 1_555
Ge4 O26 1.893663 1_555
Ge4 O24 1.938656 1_555
Ge4 O28 1.946058 1_555
Ge4 O96 1.977459 1_555
Ge4 O100 2.080306 1_555
Ge5 O27 1.760460 1_555
Ge5 O25 1.891425 1_555
Ge5 O29 1.935096 1_555
Ge5 O99 2.008356 1_555
Ge5 O101 2.048772 1_555
Ge5 O97 2.064655 1_555
Ge6 O106 1.753565 1_555
Ge6 O34 1.760952 1_555
Ge6 O30 1.993829 1_555
Ge6 O102 2.000437 1_555
Ge6 O32 2.028702 1_555
Ge6 O104 2.161101 1_555
Ge7 O107 1.769737 1_555
Ge7 O31 1.946301 1_555
Ge7 O35 1.946741 1_555
Ge7 O103 1.952645 1_555
Ge7 O33 1.960081 1_555
Ge7 O105 1.993972 1_555
Ge8 O36 1.769004 1_556
Ge8 O110 1.810743 1_555
Ge8 O112 1.815157 1_555
Ge8 O40 1.938146 1_556
Ge8 O108 2.038194 1_555
Ge8 O38 2.106500 1_556
Ge9 O43 1.778067 1_555
Ge9 O119 1.784007 1_555
Ge9 O117 1.792399 1_555
Ge9 O45 1.975847 1_555
Ge9 O115 1.993793 1_555
Ge9 O47 2.166098 1_555
Ge10 O120 1.738722 1_555
Ge10 O52 1.757948 1_554
Ge10 O124 1.943212 1_555
Ge10 O122 1.975837 1_555
Ge10 O48 1.994709 1_554
Ge10 O50 2.096886 1_554
Ge11 O51 1.742907 1_554
Ge11 O121 1.904712 1_555
Ge11 O123 1.912756 1_555
Ge11 O125 1.928197 1_555
Ge11 O53 1.978484 1_554
Ge11 O49 2.051453 1_554
Ge12 O58 1.734302 1_555
Ge12 O56 1.878683 1_555
Ge12 O54 1.948765 1_555
Ge12 O126 1.952435 1_555
Ge12 O130 1.987054 1_555
Ge12 O128 2.036902 1_555
Ge13 O57 1.759134 1_555
Ge13 O127 1.763937 1_555
Ge13 O55 1.929661 1_555
Ge13 O59 1.987557 1_555
Ge13 O131 2.058615 1_555
Ge13 O129 2.064879 1_555
Ge14 O132 1.751758 1_555
Ge14 O60 1.768490 1_555
Ge14 O136 1.963892 1_555
Ge14 O134 2.004556 1_555
Ge14 O62 2.026953 1_555
Ge14 O64 2.055646 1_555
Ge15 O133 1.729622 1_555
Ge15 O65 1.758329 1_555
Ge15 O137 1.929240 1_555
Ge15 O135 1.984955 1_555
Ge15 O61 2.000961 1_555
Ge15 O63 2.014481 1_555
Ge16 O138 1.731102 1_555
Ge16 O68 1.754827 1_555
Ge16 O66 1.950493 1_555
Ge16 O70 1.968716 1_555
Ge16 O140 2.016782 1_555
Ge16 O142 2.073490 1_555
Ge17 O67 1.752561 1_555
Ge17 O69 1.913707 1_555
Ge17 O143 1.925175 1_555
Ge17 O71 1.951075 1_555
Ge17 O141 1.991792 1_555
Ge17 O139 2.010296 1_555
O0 Si0 1.576700 1_555
O1 Si1 1.669194 1_545
O2 S0 1.499754 1_555
O3 S1 1.450747 1_555
O4 S3 1.518670 1_555
O5 S2 1.450297 1_555
O6 Si2 1.675061 1_555
O7 S4 1.451305 1_555
O8 S6 1.452032 1_555
O9 S5 1.507192 1_555
O10 S7 1.453211 1_555
O11 S8 1.479609 1_545
O12 S7 1.512637 1_565
O13 S8 1.444865 1_555
O14 Si2 1.562027 1_555
O15 S4 1.496621 1_555
O16 S5 1.447597 1_455
O17 S6 1.505461 1_555
O18 S0 1.446004 1_555
O19 S1 1.490991 1_555
O20 S2 1.494595 1_455
O21 S3 1.446237 1_555
O22 Si0 1.656752 1_565
O23 Si1 1.568449 1_555
O24 S9 1.524236 1_555
O25 S10 1.547159 1_555
O26 S11 1.533956 1_555
O27 Si3 1.654527 1_555
O28 S12 1.516952 1_555
O29 S13 1.526238 1_555
O30 S14 1.510696 1_555
O31 S15 1.514195 1_555
O32 S16 1.482163 1_555
O33 S17 1.513951 1_555
O34 Si4 1.639504 1_555
O35 S18 1.511969 1_555
O36 Si4 1.628360 1_555
O37 S18 1.458481 1_555
O38 S14 1.471831 1_555
O39 S15 1.453593 1_555
O40 S16 1.502440 1_555
O41 S17 1.456612 1_555
O42 S11 1.451623 1_555
O43 Si3 1.615271 1_555
O44 S12 1.447007 1_555
O45 S13 1.485559 1_555
O46 S9 1.449838 1_555
O47 S10 1.457384 1_555
O48 S19 1.480107 1_555
O49 S20 1.487206 1_555
O50 S21 1.471906 1_555
O51 Si5 1.647753 1_555
O52 Si6 1.628213 1_555
O53 S22 1.493060 1_555
O54 S23 1.519206 1_555
O55 S24 1.502907 1_555
O56 S25 1.536020 1_555
O57 Si7 1.644254 1_555
O58 Si8 1.658388 1_555
O59 S26 1.500039 1_555
O60 Si8 1.656632 1_555
O61 S26 1.477090 1_555
O62 S23 1.478086 1_555
O63 S24 1.478785 1_555
O64 S25 1.486484 1_555
O65 Si7 1.633552 1_555
O66 S21 1.492204 1_555
O67 Si5 1.680034 1_555
O68 Si6 1.647130 1_555
O69 S22 1.517838 1_555
O70 S19 1.494727 1_555
O71 S20 1.513810 1_555
O72 Si8 1.578516 1_555
O73 S26 1.480730 1_555
O74 S23 1.474758 1_555
O75 S24 1.447689 1_555
O76 S25 1.449711 1_555
O77 Si7 1.623944 1_555
O78 S21 1.490034 1_555
O79 Si5 1.580831 1_555
O80 Si6 1.631236 1_555
O81 S22 1.453049 1_555
O82 S19 1.454439 1_555
O83 S20 1.477527 1_555
O84 S9 1.493481 1_555
O85 S10 1.458158 1_555
O86 S11 1.450252 1_555
O87 Si3 1.641075 1_555
O88 S12 1.490992 1_555
O89 S13 1.457752 1_555
O90 S14 1.456321 1_555
O91 S15 1.479553 1_555
O92 S16 1.458122 1_555
O93 S17 1.457697 1_555
O94 Si4 1.633644 1_555
O95 S18 1.449925 1_555
O96 S7 1.504917 1_555
O97 S8 1.525571 1_545
O98 Si2 1.686627 1_555
O99 S4 1.507511 1_555
O100 S6 1.487732 1_555
O101 S5 1.532378 1_555
O102 S0 1.521162 1_555
O103 S1 1.514936 1_555
O104 S3 1.483917 1_555
O105 S2 1.509193 1_555
O106 Si0 1.661606 1_555
O107 Si1 1.680501 1_545
O108 S19 1.478713 1_555
O109 S20 1.464007 1_555
O110 Si5 1.643646 1_555
O111 S21 1.465642 1_655
O112 Si6 1.627013 1_545
O113 S22 1.463560 1_545
O114 S23 1.465851 1_545
O115 S24 1.481268 1_545
O116 S25 1.471015 1_555
O117 Si7 1.633373 1_555
O118 S26 1.463949 1_555
O119 Si8 1.651056 1_655
O120 Si4 1.630409 1_555
O121 S18 1.512180 1_555
O122 S15 1.483245 1_455
O123 S14 1.514208 1_555
O124 S16 1.484862 1_565
O125 S17 1.515731 1_565
O126 S11 1.499486 1_565
O127 Si3 1.627764 1_565
O128 S12 1.485193 1_555
O129 S13 1.471330 1_555
O130 S10 1.493362 1_455
O131 S9 1.469315 1_555
O132 Si0 1.647193 1_565
O133 Si1 1.628895 1_555
O134 S0 1.475920 1_555
O135 S1 1.482205 1_555
O136 S2 1.490464 1_455
O137 S3 1.483006 1_555
O138 Si2 1.632173 1_555
O139 S4 1.491931 1_555
O140 S5 1.471927 1_455
O141 S6 1.500024 1_555
O142 S7 1.466038 1_565
O143 S8 1.513294 1_555
