# generated using pymatgen
data_MgMn6O7F5
_symmetry_space_group_name_H-M   'P 1'
_cell_length_a   5.04969017
_cell_length_b   7.89251529
_cell_length_c   5.69804290
_cell_angle_alpha   95.96901665
_cell_angle_beta   91.45340257
_cell_angle_gamma   87.69360537
_symmetry_Int_Tables_number   1
_chemical_formula_structural   MgMn6O7F5
_chemical_formula_sum   'Mg1 Mn6 O7 F5'
_cell_volume   225.62864648
_cell_formula_units_Z   1
loop_
 _symmetry_equiv_pos_site_id
 _symmetry_equiv_pos_as_xyz
  1  'x, y, z'
loop_
 _atom_site_type_symbol
 _atom_site_label
 _atom_site_symmetry_multiplicity
 _atom_site_fract_x
 _atom_site_fract_y
 _atom_site_fract_z
 _atom_site_occupancy
  Mg  Mg0  1  0.99603100  0.83425300  0.33537600  1
  Mn  Mn0  1  0.48279500  0.00258600  0.49460600  1
  Mn  Mn1  1  0.53370100  0.64396400  0.16527000  1
  Mn  Mn2  1  0.48607100  0.34141700  0.82656400  1
  Mn  Mn3  1  0.00848000  0.65608800  0.71868300  1
  Mn  Mn4  1  0.98461000  0.30916600  0.33368000  1
  Mn  Mn5  1  0.99252000  0.00182500  0.95184800  1
  O  O0  1  0.84977600  0.77869900  0.99120000  1
  O  O1  1  0.84626700  0.06913700  0.26896200  1
  O  O2  1  0.67230900  0.76055100  0.46593100  1
  O  O3  1  0.69222600  0.41887000  0.12737100  1
  O  O4  1  0.32167700  0.56188400  0.88657400  1
  O  O5  1  0.30901300  0.23657000  0.52664500  1
  O  O6  1  0.16504600  0.90229200  0.66060800  1
  F  F0  1  0.81825900  0.42829800  0.63849100  1
  F  F1  1  0.68453300  0.11897100  0.78692100  1
  F  F2  1  0.32685900  0.87637200  0.16812500  1
  F  F3  1  0.15290500  0.58666900  0.37910300  1
  F  F4  1  0.19080800  0.21405500  0.01213700  1
loop_
_geom_bond_atom_site_label_1
_geom_bond_atom_site_label_2
_geom_bond_distance
_geom_bond_site_symmetry_2
Mg0 O2 1.947362 1_555
Mg0 O1 2.042146 1_565
Mg0 O6 2.049576 1_655
Mg0 O0 2.087456 1_554
Mn0 O5 2.005335 1_555
Mn0 O2 2.094639 1_545
Mn0 O6 2.104936 1_545
Mn0 O1 2.373926 1_555
Mn1 O3 1.912619 1_555
Mn1 O4 1.960459 1_554
Mn1 O2 1.983616 1_555
Mn1 O0 2.257953 1_554
Mn2 O4 1.899521 1_555
Mn2 O5 2.023016 1_555
Mn2 O3 2.034215 1_556
Mn3 O0 1.917843 1_455
Mn3 O4 1.986407 1_555
Mn3 O6 2.186580 1_555
Mn3 O2 2.376112 1_455
Mn4 O1 2.039864 1_555
Mn4 O5 2.045687 1_655
Mn4 O3 2.081411 1_555
Mn5 O0 1.965592 1_545
Mn5 O6 1.969052 1_645
Mn5 O1 1.982202 1_556
F0 Mn4 2.068107 1_555
F0 Mn3 2.075945 1_655
F0 Mn2 2.183817 1_555
F1 Mn2 1.981186 1_555
F1 Mn5 2.036565 1_555
F1 Mn0 2.080116 1_555
F2 Mg0 2.000226 1_455
F2 Mn1 2.072744 1_555
F2 Mn0 2.162518 1_565
F2 Mn5 2.315848 1_464
F3 Mn3 2.096425 1_555
F3 Mg0 2.115329 1_455
F3 Mn4 2.367895 1_455
F3 Mn1 2.385380 1_555
F4 Mn5 1.980956 1_454
F4 Mn4 2.179982 1_455
F4 Mn2 2.184778 1_554
