# generated using pymatgen
data_Bi2Rh
_symmetry_space_group_name_H-M   'P 1'
_cell_length_a   6.86032693
_cell_length_b   6.94890242
_cell_length_c   7.00639253
_cell_angle_alpha   116.98241827
_cell_angle_beta   90.00000000
_cell_angle_gamma   90.00000000
_symmetry_Int_Tables_number   1
_chemical_formula_structural   Bi2Rh
_chemical_formula_sum   'Bi8 Rh4'
_cell_volume   297.64887929
_cell_formula_units_Z   4
loop_
 _symmetry_equiv_pos_site_id
 _symmetry_equiv_pos_as_xyz
  1  'x, y, z'
loop_
 _atom_site_type_symbol
 _atom_site_label
 _atom_site_symmetry_multiplicity
 _atom_site_fract_x
 _atom_site_fract_y
 _atom_site_fract_z
 _atom_site_occupancy
  Bi  Bi0  1  0.35895742  0.85331729  0.62756797  1
  Bi  Bi1  1  0.85895742  0.14668271  0.87243203  1
  Bi  Bi2  1  0.64104258  0.14668271  0.37243203  1
  Bi  Bi3  1  0.14104258  0.85331729  0.12756797  1
  Bi  Bi4  1  0.85829672  0.65308402  0.32886647  1
  Bi  Bi5  1  0.35829672  0.34691598  0.17113353  1
  Bi  Bi6  1  0.14170328  0.34691598  0.67113353  1
  Bi  Bi7  1  0.64170328  0.65308402  0.82886647  1
  Rh  Rh0  1  0.49933289  0.72896974  0.21442562  1
  Rh  Rh1  1  0.99933289  0.27103026  0.28557438  1
  Rh  Rh2  1  0.50066711  0.27103026  0.78557438  1
  Rh  Rh3  1  0.00066711  0.72896974  0.71442562  1
loop_
_geom_bond_atom_site_label_1
_geom_bond_atom_site_label_2
_geom_bond_distance
_geom_bond_site_symmetry_2
Bi0 Rh3 2.763305 1_555
Bi0 Rh2 2.771302 1_565
Bi0 Rh0 2.789856 1_555
Bi0 Bi7 3.077086 1_555
Bi1 Rh2 2.763305 1_555
Bi1 Rh3 2.771302 1_645
Bi1 Rh1 2.789856 1_556
Bi1 Bi6 3.077086 1_655
Bi2 Rh1 2.763305 1_555
Bi2 Rh0 2.771302 1_545
Bi2 Rh2 2.789856 1_555
Bi2 Bi5 3.077086 1_555
Bi3 Rh0 2.763305 1_555
Bi3 Rh1 2.771302 1_465
Bi3 Rh3 2.789856 1_554
Bi3 Bi4 3.077086 1_455
Bi4 Rh3 2.690137 1_655
Bi4 Rh1 2.710292 1_555
Bi4 Rh0 2.714609 1_555
Bi5 Rh2 2.690137 1_554
Bi5 Rh0 2.710292 1_555
Bi5 Rh1 2.714609 1_455
Bi6 Rh1 2.690137 1_455
Bi6 Rh3 2.710292 1_555
Bi6 Rh2 2.714609 1_555
Bi7 Rh0 2.690137 1_556
Bi7 Rh2 2.710292 1_555
Bi7 Rh3 2.714609 1_655
