# generated using pymatgen
data_MgMn6(OF)6
_symmetry_space_group_name_H-M   'P 1'
_cell_length_a   4.82750657
_cell_length_b   5.03380308
_cell_length_c   9.42773514
_cell_angle_alpha   87.03439528
_cell_angle_beta   91.10671296
_cell_angle_gamma   91.07341548
_symmetry_Int_Tables_number   1
_chemical_formula_structural   MgMn6(OF)6
_chemical_formula_sum   'Mg1 Mn6 O6 F6'
_cell_volume   228.71514525
_cell_formula_units_Z   1
loop_
 _symmetry_equiv_pos_site_id
 _symmetry_equiv_pos_as_xyz
  1  'x, y, z'
loop_
 _atom_site_type_symbol
 _atom_site_label
 _atom_site_symmetry_multiplicity
 _atom_site_fract_x
 _atom_site_fract_y
 _atom_site_fract_z
 _atom_site_occupancy
  Mg  Mg0  1  0.00899700  0.46039900  0.00446400  1
  Mn  Mn0  1  0.96714900  0.95391300  0.00137600  1
  Mn  Mn1  1  0.98506100  0.97685300  0.34070500  1
  Mn  Mn2  1  0.06425700  0.03727300  0.66526600  1
  Mn  Mn3  1  0.48926200  0.55073300  0.82637000  1
  Mn  Mn4  1  0.55536200  0.46700400  0.19268200  1
  Mn  Mn5  1  0.49102000  0.55683000  0.50626800  1
  O  O0  1  0.18064000  0.81400000  0.50050600  1
  O  O1  1  0.14778700  0.76045900  0.85814500  1
  O  O2  1  0.33753000  0.36035400  0.67210000  1
  O  O3  1  0.67179300  0.67569500  0.00289900  1
  O  O4  1  0.67585200  0.72271400  0.34240400  1
  O  O5  1  0.85070300  0.17223300  0.15305100  1
  F  F0  1  0.16445400  0.68979000  0.15748200  1
  F  F1  1  0.31631800  0.23009100  0.99365200  1
  F  F2  1  0.29625500  0.25801300  0.33557800  1
  F  F3  1  0.68450700  0.78657000  0.67468600  1
  F  F4  1  0.79661200  0.25848900  0.50239700  1
  F  F5  1  0.83033200  0.25469800  0.84636400  1
loop_
_geom_bond_atom_site_label_1
_geom_bond_atom_site_label_2
_geom_bond_distance
_geom_bond_site_symmetry_2
Mg0 O3 1.971846 1_455
Mg0 O1 2.101295 1_554
Mg0 O5 2.107134 1_455
Mn0 O1 1.935340 1_654
Mn0 O5 1.945592 1_565
Mn0 O3 1.979516 1_555
Mn1 O0 1.918188 1_655
Mn1 O4 1.947373 1_555
Mn1 O5 2.077839 1_565
Mn2 O0 2.056609 1_545
Mn2 O2 2.077648 1_555
Mn2 O1 2.267468 1_545
Mn3 O2 1.909720 1_555
Mn3 O3 1.993199 1_556
Mn3 O1 2.009664 1_555
Mn4 O4 2.028763 1_555
Mn4 O3 2.107855 1_555
Mn4 O5 2.128690 1_555
Mn5 O4 1.942137 1_555
Mn5 O2 1.956728 1_555
Mn5 O0 1.996530 1_555
F0 Mg0 2.018853 1_555
F0 Mn0 2.152146 1_455
F0 Mn4 2.223867 1_555
F0 Mn1 2.486937 1_455
F1 Mg0 1.907351 1_556
F1 Mn0 2.164670 1_446
F1 Mn3 2.350827 1_555
F1 Mn4 2.524112 1_556
F2 Mn1 2.044105 1_445
F2 Mn4 2.086959 1_555
F2 Mn5 2.423886 1_555
F3 Mn3 2.043825 1_555
F3 Mn5 2.196185 1_555
F3 Mn2 2.206650 1_665
F4 Mn5 2.126927 1_555
F4 Mn2 2.251108 1_655
F4 Mn1 2.342386 1_545
F5 Mg0 2.028381 1_656
F5 Mn0 2.153060 1_546
F5 Mn3 2.240105 1_555
F5 Mn2 2.387949 1_655
