# generated using pymatgen
data_PmInNi2
_symmetry_space_group_name_H-M   'P 1'
_cell_length_a   4.67353586
_cell_length_b   4.64595418
_cell_length_c   4.64672061
_cell_angle_alpha   59.52052695
_cell_angle_beta   59.61501295
_cell_angle_gamma   59.60976318
_symmetry_Int_Tables_number   1
_chemical_formula_structural   PmInNi2
_chemical_formula_sum   'Pm1 In1 Ni2'
_cell_volume   70.66473300
_cell_formula_units_Z   1
loop_
 _symmetry_equiv_pos_site_id
 _symmetry_equiv_pos_as_xyz
  1  'x, y, z'
loop_
 _atom_site_type_symbol
 _atom_site_label
 _atom_site_symmetry_multiplicity
 _atom_site_fract_x
 _atom_site_fract_y
 _atom_site_fract_z
 _atom_site_occupancy
  Pm  Pm0  1  0.75000078  0.75000099  0.75000066  1
  In  In0  1  0.24998823  0.24999661  0.24999929  1
  Ni  Ni0  1  0.00484446  0.99167222  0.99253581  1
  Ni  Ni1  1  0.49516653  0.50833018  0.50746524  1
loop_
_geom_bond_atom_site_label_1
_geom_bond_atom_site_label_2
_geom_bond_distance
_geom_bond_site_symmetry_2
In0 Ni1 2.797757 1_545
In0 Ni0 2.797791 1_554
In0 Ni1 2.801661 1_554
In0 Ni0 2.801670 1_545
In0 Ni1 2.867016 1_455
In0 Ni0 2.867146 1_644
In0 Ni0 2.901489 1_544
In0 Ni1 2.901665 1_555
Ni0 Pm0 2.818486 1_455
Ni0 Pm0 2.831223 1_555
Ni0 Pm0 2.858472 1_456
Ni0 Pm0 2.861052 1_465
Ni1 Pm0 2.818449 1_555
Ni1 Pm0 2.831260 1_455
Ni1 Pm0 2.858471 1_554
Ni1 Pm0 2.861054 1_545
