# generated using pymatgen
data_Ba2SmMgSbO6
_symmetry_space_group_name_H-M   'P 1'
_cell_length_a   6.31534670
_cell_length_b   7.60875672
_cell_length_c   6.31534686
_cell_angle_alpha   65.20990357
_cell_angle_beta   59.97991316
_cell_angle_gamma   65.20990817
_symmetry_Int_Tables_number   1
_chemical_formula_structural   Ba2SmMgSbO6
_chemical_formula_sum   'Ba2 Sm1 Mg1 Sb1 O6'
_cell_volume   229.91220746
_cell_formula_units_Z   1
loop_
 _symmetry_equiv_pos_site_id
 _symmetry_equiv_pos_as_xyz
  1  'x, y, z'
loop_
 _atom_site_type_symbol
 _atom_site_label
 _atom_site_symmetry_multiplicity
 _atom_site_fract_x
 _atom_site_fract_y
 _atom_site_fract_z
 _atom_site_occupancy
  Ba  Ba0  1  0.82703053  0.51094442  0.82703053  1
  Ba  Ba1  1  0.27941406  0.15797000  0.27941406  1
  Sm  Sm0  1  0.00403955  0.98568537  0.00403955  1
  Mg  Mg0  1  0.59198288  0.21762054  0.59198288  1
  Sb  Sb0  1  0.44898024  0.65343472  0.44898024  1
  O  O0  1  0.25086903  0.80088921  0.70780822  1
  O  O1  1  0.24558897  0.81568390  0.24558897  1
  O  O2  1  0.76558183  0.22219556  0.76558183  1
  O  O3  1  0.23953674  0.22463504  0.76416796  1
  O  O4  1  0.76416796  0.22463504  0.23953674  1
  O  O5  1  0.70780822  0.80088921  0.25086903  1
loop_
_geom_bond_atom_site_label_1
_geom_bond_atom_site_label_2
_geom_bond_distance
_geom_bond_site_symmetry_2
Ba0 O4 2.573171 1_556
Ba0 O3 2.573171 1_655
Ba0 O2 2.590124 1_555
Ba1 O1 2.802277 1_545
Ba1 O0 2.914167 1_545
Ba1 O5 2.914167 1_545
Ba1 O4 3.180637 1_555
Ba1 O3 3.180637 1_555
Ba1 O2 3.186684 1_554
Ba1 O2 3.186684 1_455
Ba1 O4 3.199638 1_455
Ba1 O3 3.199638 1_554
Mg0 O3 1.914884 1_555
Mg0 O4 1.914884 1_555
Mg0 O2 1.916199 1_555
O0 Sb0 1.952030 1_555
O0 Sm0 2.314455 1_556
O1 Sb0 1.953256 1_555
O1 Sm0 2.312210 1_555
O2 Sm0 2.344815 1_646
O3 Sm0 2.348571 1_546
O4 Sm0 2.348571 1_645
O5 Sb0 1.952030 1_555
O5 Sm0 2.314455 1_655
