# generated using pymatgen
data_Pd(PbCl3)2
_symmetry_space_group_name_H-M   'P 1'
_cell_length_a   6.35559937
_cell_length_b   8.12693072
_cell_length_c   9.10139871
_cell_angle_alpha   89.11866279
_cell_angle_beta   90.00000000
_cell_angle_gamma   90.00000000
_symmetry_Int_Tables_number   1
_chemical_formula_structural   Pd(PbCl3)2
_chemical_formula_sum   'Pd2 Pb4 Cl12'
_cell_volume   470.04542385
_cell_formula_units_Z   2
loop_
 _symmetry_equiv_pos_site_id
 _symmetry_equiv_pos_as_xyz
  1  'x, y, z'
loop_
 _atom_site_type_symbol
 _atom_site_label
 _atom_site_symmetry_multiplicity
 _atom_site_fract_x
 _atom_site_fract_y
 _atom_site_fract_z
 _atom_site_occupancy
  Pd  Pd0  1  0.50000000  0.50000000  0.00000000  1
  Pd  Pd1  1  0.00000000  0.00000000  0.00000000  1
  Pb  Pb0  1  0.95296814  0.37672665  0.28117029  1
  Pb  Pb1  1  0.45296814  0.12327335  0.71882971  1
  Pb  Pb2  1  0.04703186  0.62327335  0.71882971  1
  Pb  Pb3  1  0.54703186  0.87672665  0.28117029  1
  Cl  Cl0  1  0.64848143  0.16759594  0.44151786  1
  Cl  Cl1  1  0.14848143  0.33240406  0.55848214  1
  Cl  Cl2  1  0.35151857  0.83240406  0.55848214  1
  Cl  Cl3  1  0.85151857  0.66759594  0.44151786  1
  Cl  Cl4  1  0.69859328  0.14740636  0.05477205  1
  Cl  Cl5  1  0.19859328  0.35259364  0.94522795  1
  Cl  Cl6  1  0.38298245  0.52908796  0.24013119  1
  Cl  Cl7  1  0.88298245  0.97091204  0.75986881  1
  Cl  Cl8  1  0.61701755  0.47091204  0.75986881  1
  Cl  Cl9  1  0.11701755  0.02908796  0.24013119  1
  Cl  Cl10  1  0.80140672  0.64740636  0.05477205  1
  Cl  Cl11  1  0.30140672  0.85259364  0.94522795  1
loop_
_geom_bond_atom_site_label_1
_geom_bond_atom_site_label_2
_geom_bond_distance
_geom_bond_site_symmetry_2
Cl0 Pb1 2.831262 1_555
Cl0 Pb3 2.870466 1_545
Cl0 Pb0 2.947388 1_555
Cl1 Pb0 2.831262 1_455
Cl1 Pb2 2.870466 1_555
Cl1 Pb1 2.947388 1_555
Cl2 Pb3 2.831262 1_555
Cl2 Pb1 2.870466 1_565
Cl2 Pb2 2.947388 1_555
Cl3 Pb2 2.831262 1_655
Cl3 Pb0 2.870466 1_555
Cl3 Pb3 2.947388 1_555
Cl4 Pd1 2.317669 1_655
Cl4 Pb3 3.142190 1_545
Cl4 Pb0 3.232795 1_555
Cl5 Pd0 2.317669 1_556
Cl5 Pb2 3.142190 1_555
Cl5 Pb1 3.232795 1_555
Cl6 Pd0 2.324098 1_555
Cl6 Pb0 3.021221 1_455
Cl6 Pb3 3.039904 1_555
Cl7 Pd1 2.324098 1_666
Cl7 Pb1 3.021221 1_565
Cl7 Pb2 3.039904 1_655
Cl8 Pd0 2.324098 1_556
Cl8 Pb2 3.021221 1_655
Cl8 Pb1 3.039904 1_555
Cl9 Pd1 2.324098 1_555
Cl9 Pb3 3.021221 1_545
Cl9 Pb0 3.039904 1_455
Cl10 Pd0 2.317669 1_555
Cl10 Pb0 3.142190 1_555
Cl10 Pb3 3.232795 1_555
Cl11 Pd1 2.317669 1_566
Cl11 Pb1 3.142190 1_565
Cl11 Pb2 3.232795 1_555
