# generated using pymatgen
data_MgV2(PO5)2
_symmetry_space_group_name_H-M   'P 1'
_cell_length_a   5.77676256
_cell_length_b   5.77676256
_cell_length_c   6.36852098
_cell_angle_alpha   85.15294229
_cell_angle_beta   85.15294229
_cell_angle_gamma   66.27567965
_symmetry_Int_Tables_number   1
_chemical_formula_structural   MgV2(PO5)2
_chemical_formula_sum   'Mg1 V2 P2 O10'
_cell_volume   193.57073322
_cell_formula_units_Z   1
loop_
 _symmetry_equiv_pos_site_id
 _symmetry_equiv_pos_as_xyz
  1  'x, y, z'
loop_
 _atom_site_type_symbol
 _atom_site_label
 _atom_site_symmetry_multiplicity
 _atom_site_fract_x
 _atom_site_fract_y
 _atom_site_fract_z
 _atom_site_occupancy
  Mg  Mg0  1  0.28078055  0.71921945  0.00000000  1
  V  V0  1  0.20020831  0.21148049  0.24841557  1
  V  V1  1  0.78851951  0.79979169  0.75158443  1
  P  P0  1  0.26191227  0.25018244  0.74730593  1
  P  P1  1  0.74981756  0.73808773  0.25269507  1
  O  O0  1  0.35202397  0.39799475  0.19085652  1
  O  O1  1  0.60200525  0.64797603  0.80914348  1
  O  O2  1  0.16571858  0.17504580  0.55768745  1
  O  O3  1  0.82495420  0.83428142  0.44231255  1
  O  O4  1  0.15507782  0.54452643  0.76307000  1
  O  O5  1  0.55230582  0.15440879  0.74297391  1
  O  O6  1  0.84559121  0.44769418  0.25702609  1
  O  O7  1  0.45547357  0.84492218  0.23693000  1
  O  O8  1  0.87362169  0.83420033  0.05291460  1
  O  O9  1  0.16579967  0.12637831  0.94708540  1
loop_
_geom_bond_atom_site_label_1
_geom_bond_atom_site_label_2
_geom_bond_distance
_geom_bond_site_symmetry_2
Mg0 O0 2.044260 1_555
Mg0 O1 2.044260 1_554
Mg0 O8 2.175704 1_455
Mg0 O9 2.175704 1_564
Mg0 O4 2.203321 1_554
Mg0 O7 2.203321 1_555
O0 V0 1.644288 1_555
O1 V1 1.644288 1_555
O2 P0 1.533466 1_555
O2 V0 1.964869 1_555
O3 P1 1.533461 1_555
O3 V1 1.964869 1_555
O4 P0 1.567206 1_555
O4 V1 2.039376 1_455
O5 P0 1.539127 1_555
O5 V1 1.950858 1_545
O6 P1 1.539127 1_555
O6 V0 1.950858 1_655
O7 P1 1.567207 1_555
O7 V0 2.039376 1_565
O8 P1 1.576356 1_555
O8 V1 2.065523 1_554
O9 P0 1.576351 1_555
O9 V0 2.065523 1_556
