# generated using pymatgen
data_LiMnPO4
_symmetry_space_group_name_H-M   'P 1'
_cell_length_a   5.63059200
_cell_length_b   8.49935600
_cell_length_c   6.32475800
_cell_angle_alpha   89.99865320
_cell_angle_beta   90.00012335
_cell_angle_gamma   89.99991885
_symmetry_Int_Tables_number   1
_chemical_formula_structural   LiMnPO4
_chemical_formula_sum   'Li4 Mn4 P4 O16'
_cell_volume   302.68018602
_cell_formula_units_Z   4
loop_
 _symmetry_equiv_pos_site_id
 _symmetry_equiv_pos_as_xyz
  1  'x, y, z'
loop_
 _atom_site_type_symbol
 _atom_site_label
 _atom_site_symmetry_multiplicity
 _atom_site_fract_x
 _atom_site_fract_y
 _atom_site_fract_z
 _atom_site_occupancy
  Li  Li0  1  0.24999700  0.91437400  0.25305900  1
  Li  Li1  1  0.75000600  0.41434600  0.24696000  1
  Li  Li2  1  0.24999700  0.58563300  0.75304200  1
  Li  Li3  1  0.75000800  0.08561000  0.74694500  1
  Mn  Mn0  1  0.25004800  0.24994500  0.49790400  1
  Mn  Mn1  1  0.75000800  0.75009900  0.50243000  1
  Mn  Mn2  1  0.74997500  0.75000200  0.00192800  1
  Mn  Mn3  1  0.25000600  0.25023900  0.99772900  1
  P  P0  1  0.24999700  0.60289300  0.25266200  1
  P  P1  1  0.75000100  0.10289100  0.24731500  1
  P  P2  1  0.24999300  0.89709900  0.75269700  1
  P  P3  1  0.75000400  0.39709500  0.74734700  1
  O  O0  1  0.25000200  0.50100400  0.05166300  1
  O  O1  1  0.74999100  0.00103000  0.44826700  1
  O  O2  1  0.24999100  0.99895300  0.55174600  1
  O  O3  1  0.74999900  0.49896900  0.94833800  1
  O  O4  1  0.74999600  0.00174000  0.04591100  1
  O  O5  1  0.24999800  0.50170900  0.45414400  1
  O  O6  1  0.74999700  0.49827200  0.54587700  1
  O  O7  1  0.24999700  0.99824700  0.95408900  1
  O  O8  1  0.97178100  0.21673800  0.24777100  1
  O  O9  1  0.52821800  0.21674100  0.24776500  1
  O  O10  1  0.02815700  0.71677700  0.25219200  1
  O  O11  1  0.47183800  0.71677600  0.25219600  1
  O  O12  1  0.52818700  0.28318700  0.74778800  1
  O  O13  1  0.97182000  0.28319100  0.74778600  1
  O  O14  1  0.02821900  0.78321900  0.75222500  1
  O  O15  1  0.47177200  0.78322000  0.75222200  1
loop_
_geom_bond_atom_site_label_1
_geom_bond_atom_site_label_2
_geom_bond_distance
_geom_bond_site_symmetry_2
Li0 O7 2.020808 1_554
Li0 O2 2.021292 1_555
Li0 O10 2.093038 1_555
Li0 O11 2.093045 1_555
Li1 O6 2.020685 1_555
Li1 O3 2.021009 1_554
Li1 O8 2.092890 1_555
Li1 O9 2.092916 1_555
Li2 O5 2.020567 1_555
Li2 O0 2.021021 1_556
Li2 O15 2.092750 1_555
Li2 O14 2.092750 1_555
Li3 O4 2.020776 1_556
Li3 O1 2.021241 1_555
Li3 O13 2.092834 1_555
Li3 O12 2.092834 1_555
Mn0 O5 2.157650 1_555
Mn0 O2 2.160272 1_545
Mn0 O12 2.242835 1_555
Mn0 O13 2.243184 1_455
Mn0 O9 2.244057 1_555
Mn0 O8 2.244410 1_455
Mn1 O6 2.157928 1_555
Mn1 O1 2.160081 1_565
Mn1 O14 2.242591 1_655
Mn1 O15 2.242681 1_555
Mn1 O10 2.244542 1_655
Mn1 O11 2.244604 1_555
Mn2 O4 2.157626 1_565
Mn2 O3 2.160381 1_554
Mn2 O15 2.242258 1_554
Mn2 O14 2.242410 1_654
Mn2 O11 2.244517 1_555
Mn2 O10 2.244670 1_655
Mn3 O0 2.158474 1_556
Mn3 O7 2.159488 1_545
Mn3 O12 2.242936 1_555
Mn3 O13 2.242964 1_455
Mn3 O9 2.244064 1_556
Mn3 O8 2.244151 1_456
O0 P0 1.538220 1_555
O1 P1 1.537806 1_555
O2 P2 1.537768 1_555
O3 P3 1.538106 1_555
O4 P1 1.536819 1_555
O5 P0 1.537352 1_555
O6 P3 1.537256 1_555
O7 P2 1.536742 1_555
O8 P1 1.579777 1_555
O9 P1 1.579804 1_555
O10 P0 1.580235 1_555
O11 P0 1.580236 1_555
O12 P3 1.580259 1_555
O13 P3 1.580232 1_555
O14 P2 1.579922 1_555
O15 P2 1.579937 1_555
