# generated using pymatgen
data_MgZn2(NiO2)4
_symmetry_space_group_name_H-M   'P 1'
_cell_length_a   6.77202404
_cell_length_b   5.77376505
_cell_length_c   6.89584395
_cell_angle_alpha   63.92005532
_cell_angle_beta   49.96858099
_cell_angle_gamma   63.18527246
_symmetry_Int_Tables_number   1
_chemical_formula_structural   MgZn2(NiO2)4
_chemical_formula_sum   'Mg1 Zn2 Ni4 O8'
_cell_volume   179.79066171
_cell_formula_units_Z   1
loop_
 _symmetry_equiv_pos_site_id
 _symmetry_equiv_pos_as_xyz
  1  'x, y, z'
loop_
 _atom_site_type_symbol
 _atom_site_label
 _atom_site_symmetry_multiplicity
 _atom_site_fract_x
 _atom_site_fract_y
 _atom_site_fract_z
 _atom_site_occupancy
  Mg  Mg0  1  0.63246400  0.63337700  0.61752800  1
  Zn  Zn0  1  0.86670300  0.86747200  0.88337100  1
  Zn  Zn1  1  0.14421700  0.14479200  0.10579300  1
  Ni  Ni0  1  0.47000900  0.51995000  0.45748100  1
  Ni  Ni1  1  0.51923000  0.47054900  0.05332900  1
  Ni  Ni2  1  0.05232600  0.45127700  0.56221500  1
  Ni  Ni3  1  0.45044700  0.05311100  0.43487100  1
  O  O0  1  0.25673400  0.26845700  0.25772900  1
  O  O1  1  0.71548900  0.73750200  0.26362500  1
  O  O2  1  0.26756600  0.74669300  0.69785800  1
  O  O3  1  0.74600300  0.26833200  0.78846900  1
  O  O4  1  0.71900900  0.27040100  0.24204600  1
  O  O5  1  0.26970200  0.71954500  0.26926400  1
  O  O6  1  0.26792300  0.25745500  0.71754900  1
  O  O7  1  0.73676000  0.71608800  0.78429200  1
loop_
_geom_bond_atom_site_label_1
_geom_bond_atom_site_label_2
_geom_bond_distance
_geom_bond_site_symmetry_2
Mg0 O7 1.970125 1_555
Mg0 O1 1.970583 1_555
Mg0 O2 1.985030 1_555
Mg0 O3 1.985546 1_555
Ni0 O4 1.895756 1_555
Ni0 O1 1.917583 1_555
Ni0 O2 1.925209 1_555
Ni0 O6 1.926222 1_555
Ni0 O5 2.095724 1_555
Ni1 O5 1.895549 1_555
Ni1 O7 1.917735 1_554
Ni1 O3 1.925224 1_554
Ni1 O0 1.926202 1_555
Ni1 O4 2.095569 1_555
Ni2 O6 2.003790 1_555
Ni2 O5 2.031635 1_555
Ni2 O7 2.037304 1_455
Ni2 O3 2.053676 1_455
Ni2 O0 2.080992 1_555
Ni3 O0 2.003355 1_555
Ni3 O4 2.032392 1_555
Ni3 O1 2.037451 1_545
Ni3 O2 2.054070 1_545
Ni3 O6 2.080021 1_555
O0 Zn1 2.088957 1_555
O1 Zn0 1.999120 1_554
O2 Zn0 2.025135 1_455
O3 Zn0 2.025517 1_545
O4 Zn1 2.221481 1_655
O5 Zn1 2.222067 1_565
O6 Zn1 2.089948 1_556
O7 Zn0 1.999396 1_555
