# generated using pymatgen
data_MgFe4(O3F)2
_symmetry_space_group_name_H-M   'P 1'
_cell_length_a   5.09989867
_cell_length_b   9.62415387
_cell_length_c   3.09059993
_cell_angle_alpha   89.93445611
_cell_angle_beta   89.96493746
_cell_angle_gamma   78.93909894
_symmetry_Int_Tables_number   1
_chemical_formula_structural   MgFe4(O3F)2
_chemical_formula_sum   'Mg1 Fe4 O6 F2'
_cell_volume   148.87547805
_cell_formula_units_Z   1
loop_
 _symmetry_equiv_pos_site_id
 _symmetry_equiv_pos_as_xyz
  1  'x, y, z'
loop_
 _atom_site_type_symbol
 _atom_site_label
 _atom_site_symmetry_multiplicity
 _atom_site_fract_x
 _atom_site_fract_y
 _atom_site_fract_z
 _atom_site_occupancy
  Mg  Mg0  1  0.37815174  0.02454569  0.51420204  1
  Fe  Fe0  1  0.89448839  0.96666737  0.01384879  1
  Fe  Fe1  1  0.11616394  0.49265446  0.01250890  1
  Fe  Fe2  1  0.67712227  0.30789611  0.51264725  1
  Fe  Fe3  1  0.46169753  0.73214632  0.50969258  1
  O  O0  1  0.30223554  0.38990959  0.51271233  1
  O  O1  1  0.11904871  0.88583585  0.51364010  1
  O  O2  1  0.35282969  0.63426159  0.01079912  1
  O  O3  1  0.58471928  0.87132191  0.01477762  1
  O  O4  1  0.82657096  0.37403318  0.01235664  1
  O  O5  1  0.70981749  0.10307590  0.51373171  1
  F  F0  1  0.17988679  0.11352906  0.01391569  1
  F  F1  1  0.86949068  0.61126496  0.51183322  1
loop_
_geom_bond_atom_site_label_1
_geom_bond_atom_site_label_2
_geom_bond_distance
_geom_bond_site_symmetry_2
Mg0 O5 1.980600 1_555
Mg0 O1 2.050634 1_545
Mg0 O3 2.252551 1_545
Mg0 O3 2.253561 1_546
Fe0 O3 1.973322 1_555
Fe0 O1 1.990043 1_655
Fe0 O1 1.991338 1_654
Fe0 O5 2.126563 1_564
Fe0 O5 2.127382 1_565
Fe1 O0 1.976348 1_554
Fe1 O0 1.976470 1_555
Fe1 O2 1.986279 1_555
Fe1 O4 2.032607 1_455
Fe2 O4 1.886595 1_555
Fe2 O4 1.887080 1_556
Fe2 O0 1.923350 1_555
Fe2 O5 1.946123 1_555
Fe3 O2 1.943758 1_555
Fe3 O2 1.946940 1_556
Fe3 O1 2.061524 1_555
Fe3 O3 2.200901 1_555
Fe3 O3 2.225523 1_556
F0 Mg0 1.951887 1_554
F0 Mg0 1.952717 1_555
F0 Fe0 2.214862 1_445
F1 Fe1 2.172051 1_655
F1 Fe1 2.174258 1_656
F1 Fe3 2.179518 1_555
