# generated using pymatgen
data_MgTe4Mo4(SeS)2
_symmetry_space_group_name_H-M   'P 1'
_cell_length_a   3.40179900
_cell_length_b   3.40192708
_cell_length_c   44.85756028
_cell_angle_alpha   89.97426194
_cell_angle_beta   90.00008062
_cell_angle_gamma   119.99870857
_symmetry_Int_Tables_number   1
_chemical_formula_structural   MgTe4Mo4(SeS)2
_chemical_formula_sum   'Mg1 Te4 Mo4 Se2 S2'
_cell_volume   449.57848991
_cell_formula_units_Z   1
loop_
 _symmetry_equiv_pos_site_id
 _symmetry_equiv_pos_as_xyz
  1  'x, y, z'
loop_
 _atom_site_type_symbol
 _atom_site_label
 _atom_site_symmetry_multiplicity
 _atom_site_fract_x
 _atom_site_fract_y
 _atom_site_fract_z
 _atom_site_occupancy
  Mg  Mg0  1  0.00000700  0.99999400  0.38634900  1
  Te  Te0  1  0.33313600  0.66630600  0.31697900  1
  Te  Te1  1  0.33332600  0.66663600  0.69938100  1
  Te  Te2  1  0.33343600  0.66691900  0.23322100  1
  Te  Te3  1  0.33366500  0.66731300  0.61586000  1
  Mo  Mo0  1  0.33319500  0.66638900  0.09358600  1
  Mo  Mo1  1  0.33337600  0.66673500  0.47716300  1
  Mo  Mo2  1  0.66659900  0.33323800  0.27493900  1
  Mo  Mo3  1  0.66681700  0.33361600  0.65762700  1
  Se  Se0  1  0.66662400  0.33324700  0.05683600  1
  Se  Se1  1  0.66641000  0.33282000  0.13031700  1
  S  S0  1  0.66683500  0.33366200  0.44333700  1
  S  S1  1  0.66657300  0.33312400  0.51030800  1
loop_
_geom_bond_atom_site_label_1
_geom_bond_atom_site_label_2
_geom_bond_distance
_geom_bond_site_symmetry_2
Mo0 Se1 2.563586 1_555
Mo0 Se1 2.563593 1_455
Mo0 Se1 2.563829 1_565
Mo0 Se0 2.564033 1_565
Mo0 Se0 2.564308 1_455
Mo0 Se0 2.564310 1_555
Mo1 S1 2.463366 1_455
Mo1 S1 2.463372 1_565
Mo1 S1 2.463373 1_555
Mo1 S0 2.481906 1_555
Mo1 S0 2.481925 1_455
Mo1 S0 2.481952 1_565
Mo2 Te2 2.712859 1_545
Mo2 Te2 2.712859 1_655
Mo2 Te2 2.712870 1_555
Mo2 Te0 2.722742 1_545
Mo2 Te0 2.722894 1_555
Mo2 Te0 2.722904 1_655
Mo3 Te1 2.713973 1_655
Mo3 Te1 2.713979 1_545
Mo3 Te1 2.713979 1_555
Mo3 Te3 2.714342 1_545
Mo3 Te3 2.714397 1_555
Mo3 Te3 2.714399 1_655
