# generated using pymatgen
data_V2(CuO2)5
_symmetry_space_group_name_H-M   'P 1'
_cell_length_a   6.33350900
_cell_length_b   8.44266900
_cell_length_c   16.47972128
_cell_angle_alpha   71.66189017
_cell_angle_beta   90.00000000
_cell_angle_gamma   90.00000000
_symmetry_Int_Tables_number   1
_chemical_formula_structural   V2(CuO2)5
_chemical_formula_sum   'V8 Cu20 O40'
_cell_volume   836.44859949
_cell_formula_units_Z   4
loop_
 _symmetry_equiv_pos_site_id
 _symmetry_equiv_pos_as_xyz
  1  'x, y, z'
loop_
 _atom_site_type_symbol
 _atom_site_label
 _atom_site_symmetry_multiplicity
 _atom_site_fract_x
 _atom_site_fract_y
 _atom_site_fract_z
 _atom_site_occupancy
  V  V0  1  0.81112400  0.56655700  0.60591300  1
  V  V1  1  0.31112400  0.43344300  0.89408700  1
  V  V2  1  0.18887600  0.43344300  0.39408700  1
  V  V3  1  0.68887600  0.56655700  0.10591300  1
  V  V4  1  0.83020100  0.78716200  0.83399400  1
  V  V5  1  0.33020100  0.21283800  0.66600600  1
  V  V6  1  0.16979900  0.21283800  0.16600600  1
  V  V7  1  0.66979900  0.78716200  0.33399400  1
  Cu  Cu0  1  0.57561800  0.93912600  0.60061200  1
  Cu  Cu1  1  0.07561800  0.06087400  0.89938800  1
  Cu  Cu2  1  0.42438200  0.06087400  0.39938800  1
  Cu  Cu3  1  0.92438200  0.93912600  0.10061200  1
  Cu  Cu4  1  0.26999800  0.73323000  0.98086900  1
  Cu  Cu5  1  0.76999800  0.26677000  0.51913100  1
  Cu  Cu6  1  0.73000200  0.26677000  0.01913100  1
  Cu  Cu7  1  0.23000200  0.73323000  0.48086900  1
  Cu  Cu8  1  0.37074000  0.83960600  0.78072500  1
  Cu  Cu9  1  0.87074000  0.16039400  0.71927500  1
  Cu  Cu10  1  0.62926000  0.16039400  0.21927500  1
  Cu  Cu11  1  0.12926000  0.83960600  0.28072500  1
  Cu  Cu12  1  0.07163700  0.96928600  0.59000200  1
  Cu  Cu13  1  0.57163700  0.03071400  0.90999800  1
  Cu  Cu14  1  0.92836300  0.03071400  0.40999800  1
  Cu  Cu15  1  0.42836300  0.96928600  0.09000200  1
  Cu  Cu16  1  0.29356300  0.62653800  0.67272000  1
  Cu  Cu17  1  0.79356300  0.37346200  0.82728000  1
  Cu  Cu18  1  0.70643700  0.37346200  0.32728000  1
  Cu  Cu19  1  0.20643700  0.62653800  0.17272000  1
  O  O0  1  0.33442300  0.60104000  0.79735100  1
  O  O1  1  0.83442300  0.39896000  0.70264900  1
  O  O2  1  0.66557700  0.39896000  0.20264900  1
  O  O3  1  0.16557700  0.60104000  0.29735100  1
  O  O4  1  0.25095600  0.51328000  0.97379400  1
  O  O5  1  0.75095600  0.48672000  0.52620600  1
  O  O6  1  0.74904400  0.48672000  0.02620600  1
  O  O7  1  0.24904400  0.51328000  0.47379400  1
  O  O8  1  0.61408600  0.71103300  0.60983000  1
  O  O9  1  0.11408600  0.28896700  0.89017000  1
  O  O10  1  0.38591400  0.28896700  0.39017000  1
  O  O11  1  0.88591400  0.71103300  0.10983000  1
  O  O12  1  0.06112500  0.67374900  0.58516900  1
  O  O13  1  0.56112500  0.32625100  0.91483100  1
  O  O14  1  0.93887500  0.32625100  0.41483100  1
  O  O15  1  0.43887500  0.67374900  0.08516900  1
  O  O16  1  0.85002700  0.59496700  0.82391600  1
  O  O17  1  0.35002700  0.40503300  0.67608400  1
  O  O18  1  0.14997300  0.40503300  0.17608400  1
  O  O19  1  0.64997300  0.59496700  0.32391600  1
  O  O20  1  0.03890400  0.83371100  0.89868600  1
  O  O21  1  0.53890400  0.16628900  0.60131400  1
  O  O22  1  0.96109600  0.16628900  0.10131400  1
  O  O23  1  0.46109600  0.83371100  0.39868600  1
  O  O24  1  0.57585600  0.81620100  0.87428700  1
  O  O25  1  0.07585600  0.18379900  0.62571300  1
  O  O26  1  0.42414400  0.18379900  0.12571300  1
  O  O27  1  0.92414400  0.81620100  0.37428700  1
  O  O28  1  0.84505700  0.92774500  0.73017300  1
  O  O29  1  0.34505700  0.07225500  0.76982700  1
  O  O30  1  0.15494300  0.07225500  0.26982700  1
  O  O31  1  0.65494300  0.92774500  0.23017300  1
  O  O32  1  0.30979800  0.86634000  0.65920500  1
  O  O33  1  0.80979800  0.13366000  0.84079500  1
  O  O34  1  0.69020200  0.13366000  0.34079500  1
  O  O35  1  0.19020200  0.86634000  0.15920500  1
  O  O36  1  0.31103600  0.96782500  0.97151100  1
  O  O37  1  0.81103600  0.03217500  0.52848900  1
  O  O38  1  0.68896400  0.03217500  0.02848900  1
  O  O39  1  0.18896400  0.96782500  0.47151100  1
loop_
_geom_bond_atom_site_label_1
_geom_bond_atom_site_label_2
_geom_bond_distance
_geom_bond_site_symmetry_2
Cu0 O8 1.899140 1_555
Cu0 O37 1.914533 1_565
Cu0 O21 1.935551 1_565
Cu0 O32 1.941917 1_555
Cu1 O9 1.899140 1_555
Cu1 O36 1.914533 1_545
Cu1 O20 1.935551 1_545
Cu1 O33 1.941917 1_455
Cu2 O10 1.899140 1_555
Cu2 O39 1.914533 1_545
Cu2 O23 1.935551 1_545
Cu2 O34 1.941917 1_555
Cu3 O11 1.899140 1_555
Cu3 O38 1.914533 1_565
Cu3 O22 1.935551 1_565
Cu3 O35 1.941917 1_655
Cu4 O4 1.900710 1_555
Cu4 O15 1.951267 1_556
Cu4 O36 1.954980 1_555
Cu4 O20 1.993288 1_555
Cu4 O24 2.560105 1_555
Cu5 O5 1.900710 1_555
Cu5 O14 1.951267 1_555
Cu5 O37 1.954980 1_555
Cu5 O21 1.993288 1_555
Cu5 O25 2.560105 1_655
Cu6 O6 1.900710 1_555
Cu6 O13 1.951267 1_554
Cu6 O38 1.954980 1_555
Cu6 O22 1.993288 1_555
Cu6 O26 2.560105 1_555
Cu7 O7 1.900710 1_555
Cu7 O12 1.951267 1_555
Cu7 O39 1.954980 1_555
Cu7 O23 1.993288 1_555
Cu7 O27 2.560105 1_455
Cu8 O29 1.922170 1_565
Cu8 O0 1.958943 1_555
Cu8 O24 1.977974 1_555
Cu8 O32 1.981406 1_555
Cu9 O28 1.922170 1_545
Cu9 O1 1.958943 1_555
Cu9 O25 1.977974 1_655
Cu9 O33 1.981406 1_555
Cu10 O31 1.922170 1_545
Cu10 O2 1.958943 1_555
Cu10 O26 1.977974 1_555
Cu10 O34 1.981406 1_555
Cu11 O30 1.922170 1_565
Cu11 O3 1.958943 1_555
Cu11 O27 1.977974 1_455
Cu11 O35 1.981406 1_555
Cu12 O37 1.922254 1_465
Cu12 O32 1.925503 1_555
Cu12 O25 2.073082 1_565
Cu12 O39 2.092970 1_555
Cu12 O12 2.522192 1_555
Cu12 O28 2.647372 1_455
Cu13 O36 1.922254 1_545
Cu13 O33 1.925503 1_555
Cu13 O24 2.073082 1_545
Cu13 O38 2.092970 1_556
Cu13 O13 2.522192 1_555
Cu13 O29 2.647372 1_555
Cu14 O39 1.922254 1_645
Cu14 O34 1.925503 1_555
Cu14 O27 2.073082 1_545
Cu14 O37 2.092970 1_555
Cu14 O14 2.522192 1_555
Cu14 O30 2.647372 1_655
Cu15 O38 1.922254 1_565
Cu15 O35 1.925503 1_555
Cu15 O26 2.073082 1_565
Cu15 O36 2.092970 1_554
Cu15 O15 2.522192 1_555
Cu15 O31 2.647372 1_555
Cu16 O17 1.887584 1_555
Cu16 O32 1.968583 1_555
Cu16 O12 2.011452 1_555
Cu16 O0 2.013339 1_555
Cu16 O8 2.288853 1_555
Cu17 O16 1.887584 1_555
Cu17 O33 1.968583 1_555
Cu17 O13 2.011452 1_555
Cu17 O1 2.013339 1_555
Cu17 O9 2.288853 1_655
Cu18 O19 1.887584 1_555
Cu18 O34 1.968583 1_555
Cu18 O14 2.011452 1_555
Cu18 O2 2.013339 1_555
Cu18 O10 2.288853 1_555
Cu19 O18 1.887584 1_555
Cu19 O35 1.968583 1_555
Cu19 O15 2.011452 1_555
Cu19 O3 2.013339 1_555
Cu19 O11 2.288853 1_455
O0 V1 1.773674 1_555
O1 V0 1.773674 1_555
O2 V3 1.773674 1_555
O3 V2 1.773674 1_555
O4 V1 1.697669 1_555
O5 V0 1.697669 1_555
O6 V3 1.697669 1_555
O7 V2 1.697669 1_555
O8 V0 1.760367 1_555
O9 V1 1.760367 1_555
O10 V2 1.760367 1_555
O11 V3 1.760367 1_555
O12 V0 1.802303 1_455
O13 V1 1.802303 1_555
O14 V2 1.802303 1_655
O15 V3 1.802303 1_555
O16 V4 1.686975 1_555
O17 V5 1.686975 1_555
O18 V6 1.686975 1_555
O19 V7 1.686975 1_555
O20 V4 1.817109 1_455
O21 V5 1.817109 1_555
O22 V6 1.817109 1_655
O23 V7 1.817109 1_555
O24 V4 1.788421 1_555
O25 V5 1.788421 1_555
O26 V6 1.788421 1_555
O27 V7 1.788421 1_555
O28 V4 1.751307 1_555
O29 V5 1.751307 1_555
O30 V6 1.751307 1_555
O31 V7 1.751307 1_555
