# generated using pymatgen
data_Na14Ca4Y4Si5S7O48
_symmetry_space_group_name_H-M   'P 1'
_cell_length_a   18.99039618
_cell_length_b   9.48452965
_cell_length_c   23.49947210
_cell_angle_alpha   90.00322788
_cell_angle_beta   90.00694372
_cell_angle_gamma   119.93861455
_symmetry_Int_Tables_number   1
_chemical_formula_structural   Na14Ca4Y4Si5S7O48
_chemical_formula_sum   'Na42 Ca12 Y12 Si15 S21 O144'
_cell_volume   3667.81025135
_cell_formula_units_Z   3
loop_
 _symmetry_equiv_pos_site_id
 _symmetry_equiv_pos_as_xyz
  1  'x, y, z'
loop_
 _atom_site_type_symbol
 _atom_site_label
 _atom_site_symmetry_multiplicity
 _atom_site_fract_x
 _atom_site_fract_y
 _atom_site_fract_z
 _atom_site_occupancy
  Na  Na0  1  0.80315676  0.99421707  0.24925316  1
  Na  Na1  1  0.18447724  0.34455049  0.25291434  1
  Na  Na2  1  0.68125152  0.34499301  0.25187637  1
  Na  Na3  1  0.00686821  0.65867093  0.24545801  1
  Na  Na4  1  0.51225793  0.65627480  0.23746703  1
  Na  Na5  1  0.31864083  0.61330122  0.75268282  1
  Na  Na6  1  0.01137855  0.36566980  0.73792850  1
  Na  Na7  1  0.50535995  0.37768460  0.74537307  1
  Na  Na8  1  0.18599327  0.02452959  0.75070521  1
  Na  Na9  1  0.66882669  0.00162319  0.75140132  1
  Na  Na10  1  0.14591077  0.31795239  0.58366971  1
  Na  Na11  1  0.65226942  0.31379773  0.58312284  1
  Na  Na12  1  0.32342474  0.97708088  0.59148731  1
  Na  Na13  1  0.83457897  0.00026231  0.58562621  1
  Na  Na14  1  0.15780121  0.99685856  0.07401274  1
  Na  Na15  1  0.64445543  0.97085809  0.07739101  1
  Na  Na16  1  0.33743351  0.67169760  0.08087511  1
  Na  Na17  1  0.82131981  0.66948002  0.08464642  1
  Na  Na18  1  0.48940262  0.68781977  0.91661216  1
  Na  Na19  1  0.99482869  0.68890149  0.91463884  1
  Na  Na20  1  0.33839255  0.03499278  0.91082496  1
  Na  Na21  1  0.83539442  0.02533557  0.91186447  1
  Na  Na22  1  0.16987409  0.27415419  0.91313948  1
  Na  Na23  1  0.66357541  0.26983351  0.91403248  1
  Na  Na24  1  0.49648185  0.30358656  0.41950508  1
  Na  Na25  1  0.99001227  0.29716856  0.43436687  1
  Na  Na26  1  0.16744257  0.06270312  0.42248205  1
  Na  Na27  1  0.66893277  0.06414098  0.41972806  1
  Na  Na28  1  0.34031615  0.64611678  0.41805419  1
  Na  Na29  1  0.83504378  0.63996596  0.41666614  1
  Na  Na30  1  0.01645165  0.02766174  0.50900170  1
  Na  Na31  1  0.52027491  0.01390288  0.50394484  1
  Na  Na32  1  0.01839659  0.02592647  0.99626868  1
  Na  Na33  1  0.51732428  0.00491813  0.00197540  1
  Na  Na34  1  0.32604308  0.33397929  0.82488685  1
  Na  Na35  1  0.81116798  0.31900227  0.82963939  1
  Na  Na36  1  0.31587053  0.30714053  0.33222195  1
  Na  Na37  1  0.80949904  0.31358754  0.33544622  1
  Na  Na38  1  0.17029873  0.66940722  0.16396069  1
  Na  Na39  1  0.65036151  0.64813931  0.16043561  1
  Na  Na40  1  0.15321401  0.65232564  0.66472897  1
  Na  Na41  1  0.65845453  0.66837762  0.67323706  1
  Ca  Ca0  1  0.00869747  0.01270517  0.34901704  1
  Ca  Ca1  1  0.50866521  0.01205775  0.34741237  1
  Ca  Ca2  1  0.00747020  0.00386332  0.84692385  1
  Ca  Ca3  1  0.50819438  0.99648126  0.84535862  1
  Ca  Ca4  1  0.33032649  0.33328145  0.68094771  1
  Ca  Ca5  1  0.82582902  0.32656541  0.17877168  1
  Ca  Ca6  1  0.33131899  0.33598289  0.98798108  1
  Ca  Ca7  1  0.82633126  0.32183473  0.98624500  1
  Ca  Ca8  1  0.32612470  0.33157616  0.48782242  1
  Ca  Ca9  1  0.83146817  0.32784597  0.48948213  1
  Ca  Ca10  1  0.66557108  0.66247188  0.31788248  1
  Ca  Ca11  1  0.16695711  0.66921922  0.81710124  1
  Y  Y0  1  0.00774376  0.00691011  0.65019504  1
  Y  Y1  1  0.50988636  0.99621872  0.65486475  1
  Y  Y2  1  0.00865522  0.01181840  0.15107131  1
  Y  Y3  1  0.50874779  0.00920970  0.14930442  1
  Y  Y4  1  0.82908191  0.32802353  0.67896570  1
  Y  Y5  1  0.33052703  0.32980128  0.17836891  1
  Y  Y6  1  0.16270987  0.65885021  0.01543818  1
  Y  Y7  1  0.65340784  0.65675802  0.01959625  1
  Y  Y8  1  0.15410317  0.65006104  0.52134803  1
  Y  Y9  1  0.66260138  0.66546223  0.51674722  1
  Y  Y10  1  0.17175806  0.67621400  0.31698738  1
  Y  Y11  1  0.66754340  0.66823462  0.81480243  1
  Si  Si0  1  0.15341273  0.99726815  0.25012459  1
  Si  Si1  1  0.65478257  0.99818068  0.25185010  1
  Si  Si2  1  0.15283648  0.31116790  0.75188585  1
  Si  Si3  1  0.65508684  0.30927484  0.75044312  1
  Si  Si4  1  0.49739710  0.68681500  0.75479653  1
  Si  Si5  1  0.98322967  0.32521573  0.58404621  1
  Si  Si6  1  0.18285793  0.02689483  0.58229885  1
  Si  Si7  1  0.68008438  0.02489022  0.58071799  1
  Si  Si8  1  0.48328321  0.63979538  0.08513629  1
  Si  Si9  1  0.18077734  0.33830964  0.08369309  1
  Si  Si10  1  0.68243864  0.34094297  0.08380528  1
  Si  Si11  1  0.16719499  0.96927283  0.91800396  1
  Si  Si12  1  0.66914962  0.96988602  0.91724828  1
  Si  Si13  1  0.16802420  0.36969016  0.41431426  1
  Si  Si14  1  0.66797901  0.36549472  0.41611743  1
  S  S0  1  0.34967151  0.69849985  0.25069336  1
  S  S1  1  0.85309200  0.70468814  0.25010818  1
  S  S2  1  0.99943051  0.30313768  0.25148899  1
  S  S3  1  0.49716306  0.30139493  0.25178788  1
  S  S4  1  0.99759141  0.69291482  0.75161766  1
  S  S5  1  0.35118040  0.99886969  0.74979154  1
  S  S6  1  0.85154734  0.00342205  0.75062263  1
  S  S7  1  0.48332345  0.32876830  0.58240644  1
  S  S8  1  0.33484976  0.64520833  0.58192930  1
  S  S9  1  0.83172258  0.63696993  0.58097783  1
  S  S10  1  0.98424265  0.63716582  0.08438605  1
  S  S11  1  0.33111831  0.02604002  0.08132070  1
  S  S12  1  0.83570429  0.02642422  0.08335835  1
  S  S13  1  0.31624516  0.67017852  0.91706023  1
  S  S14  1  0.81708835  0.67022845  0.91901825  1
  S  S15  1  0.01459929  0.36581496  0.91574765  1
  S  S16  1  0.51524330  0.36422457  0.91480870  1
  S  S17  1  0.31716926  0.96475423  0.41855429  1
  S  S18  1  0.81691010  0.96443965  0.41523444  1
  S  S19  1  0.01636995  0.66519466  0.41352586  1
  S  S20  1  0.51433651  0.66334207  0.41526812  1
  O  O0  1  0.11196461  0.02285370  0.30719201  1
  O  O1  1  0.61399780  0.02238514  0.30964983  1
  O  O2  1  0.39503315  0.77944079  0.30316045  1
  O  O3  1  0.90031225  0.78811705  0.30186918  1
  O  O4  1  0.48752011  0.21150286  0.30550373  1
  O  O5  1  0.98568464  0.20520021  0.30359961  1
  O  O6  1  0.11073539  0.20712907  0.80992363  1
  O  O7  1  0.61564058  0.20328460  0.80847132  1
  O  O8  1  0.47867690  0.75688802  0.81268706  1
  O  O9  1  0.98749922  0.76266617  0.80556553  1
  O  O10  1  0.39861765  0.01335406  0.80189257  1
  O  O11  1  0.89773783  0.01527461  0.80297918  1
  O  O12  1  0.39313620  0.98284811  0.69818404  1
  O  O13  1  0.89185725  0.98451355  0.69944392  1
  O  O14  1  0.09332491  0.21220309  0.69687068  1
  O  O15  1  0.59761228  0.22120964  0.69335547  1
  O  O16  1  0.00281381  0.79750963  0.70292819  1
  O  O17  1  0.51159847  0.81277258  0.70175974  1
  O  O18  1  0.38945252  0.79732507  0.19963459  1
  O  O19  1  0.89405765  0.80617840  0.19873728  1
  O  O20  1  0.00933366  0.21606858  0.20200016  1
  O  O21  1  0.50256507  0.20852564  0.20287814  1
  O  O22  1  0.09423796  0.97064588  0.19418175  1
  O  O23  1  0.59644600  0.98047160  0.19689007  1
  O  O24  1  0.44540951  0.34878292  0.63282639  1
  O  O25  1  0.93712619  0.34390621  0.64008351  1
  O  O26  1  0.23942121  0.10919528  0.63842132  1
  O  O27  1  0.73741922  0.11692240  0.63675053  1
  O  O28  1  0.32603167  0.54559014  0.63190826  1
  O  O29  1  0.82030191  0.52700874  0.62923860  1
  O  O30  1  0.43931793  0.53249583  0.14290949  1
  O  O31  1  0.94708795  0.54190083  0.13676321  1
  O  O32  1  0.31916632  0.11134623  0.13073859  1
  O  O33  1  0.82795933  0.10778020  0.13524535  1
  O  O34  1  0.23590219  0.35939693  0.14111402  1
  O  O35  1  0.73636665  0.37247878  0.14204936  1
  O  O36  1  0.21916297  0.30401167  0.02709190  1
  O  O37  1  0.72378324  0.31038525  0.02752677  1
  O  O38  1  0.43259407  0.55586757  0.02740525  1
  O  O39  1  0.93721809  0.55394161  0.03302827  1
  O  O40  1  0.34310134  0.11679318  0.02901878  1
  O  O41  1  0.84955803  0.12723068  0.03231191  1
  O  O42  1  0.21969610  0.13301581  0.52341269  1
  O  O43  1  0.71873184  0.12933777  0.52252989  1
  O  O44  1  0.34812668  0.57377892  0.52912904  1
  O  O45  1  0.84476425  0.57131461  0.52730811  1
  O  O46  1  0.43801197  0.32079345  0.52925816  1
  O  O47  1  0.93668539  0.31272011  0.52414230  1
  O  O48  1  0.27208344  0.67917755  0.96908416  1
  O  O49  1  0.77746089  0.68542141  0.97158334  1
  O  O50  1  0.06951050  0.44776217  0.96558187  1
  O  O51  1  0.56862143  0.44502915  0.96505645  1
  O  O52  1  0.15865930  0.85744868  0.97541037  1
  O  O53  1  0.66520154  0.86367203  0.97386227  1
  O  O54  1  0.27711451  0.86885365  0.46976501  1
  O  O55  1  0.77378684  0.86488796  0.46644304  1
  O  O56  1  0.16258899  0.47117890  0.46903231  1
  O  O57  1  0.66077885  0.46678044  0.47140044  1
  O  O58  1  0.06972736  0.69043859  0.46298027  1
  O  O59  1  0.56934596  0.69008118  0.46445757  1
  O  O60  1  0.05717959  0.65023967  0.36102200  1
  O  O61  1  0.55186786  0.64591941  0.36254782  1
  O  O62  1  0.26365355  0.88605256  0.36782169  1
  O  O63  1  0.76765746  0.88691402  0.36347951  1
  O  O64  1  0.17441333  0.47538631  0.35642727  1
  O  O65  1  0.67662520  0.46839229  0.35815814  1
  O  O66  1  0.05278178  0.45885017  0.86360265  1
  O  O67  1  0.55683875  0.46182152  0.86318884  1
  O  O68  1  0.17405583  0.87679797  0.86159848  1
  O  O69  1  0.67859685  0.87482740  0.86168624  1
  O  O70  1  0.26655445  0.64933640  0.86606038  1
  O  O71  1  0.76365748  0.64359864  0.86928608  1
  O  O72  1  0.00391685  0.80725738  0.41003245  1
  O  O73  1  0.50052891  0.80460164  0.41306242  1
  O  O74  1  0.39649828  0.97059802  0.41097688  1
  O  O75  1  0.89690257  0.97161476  0.41224319  1
  O  O76  1  0.08482965  0.18900644  0.41715058  1
  O  O77  1  0.58329035  0.18489244  0.41888189  1
  O  O78  1  0.00109215  0.19671092  0.91376197  1
  O  O79  1  0.50305416  0.19717559  0.91139640  1
  O  O80  1  0.08236916  0.98099460  0.91946822  1
  O  O81  1  0.58613136  0.98438746  0.91928973  1
  O  O82  1  0.39519012  0.82522258  0.91549361  1
  O  O83  1  0.89662258  0.82442897  0.91248104  1
  O  O84  1  0.48651397  0.17325522  0.58485147  1
  O  O85  1  0.98416287  0.15065238  0.58765010  1
  O  O86  1  0.09258641  0.01286880  0.58802454  1
  O  O87  1  0.59149657  0.01813401  0.58590873  1
  O  O88  1  0.40326355  0.81625234  0.58786144  1
  O  O89  1  0.90019371  0.80345994  0.59048104  1
  O  O90  1  0.48543133  0.81762272  0.08892712  1
  O  O91  1  0.98652671  0.79848032  0.08769471  1
  O  O92  1  0.39963866  0.99595350  0.09146472  1
  O  O93  1  0.90437744  0.99274009  0.08974022  1
  O  O94  1  0.09062649  0.16982435  0.08905823  1
  O  O95  1  0.59234469  0.17436926  0.08819384  1
  O  O96  1  0.34386250  0.14719596  0.74572912  1
  O  O97  1  0.84749546  0.15735365  0.74687545  1
  O  O98  1  0.24261956  0.32488399  0.74825020  1
  O  O99  1  0.74295562  0.31242450  0.74438705  1
  O  O100  1  0.42240720  0.50111507  0.74583189  1
  O  O101  1  0.92812209  0.52465272  0.74542157  1
  O  O102  1  0.34455783  0.53518511  0.24754740  1
  O  O103  1  0.85027966  0.54478221  0.24612667  1
  O  O104  1  0.42743079  0.33073407  0.24609484  1
  O  O105  1  0.93009013  0.33066875  0.24330820  1
  O  O106  1  0.24217092  0.16597188  0.24441835  1
  O  O107  1  0.74709516  0.16182742  0.24903748  1
  O  O108  1  0.32821858  0.52742974  0.92081170  1
  O  O109  1  0.83233836  0.53065144  0.92202090  1
  O  O110  1  0.43601314  0.35730990  0.92021768  1
  O  O111  1  0.93594811  0.36098234  0.92388663  1
  O  O112  1  0.24978495  0.15044540  0.91923860  1
  O  O113  1  0.75245983  0.15209562  0.91548391  1
  O  O114  1  0.33114385  0.13442091  0.42123267  1
  O  O115  1  0.82858385  0.13137765  0.41912473  1
  O  O116  1  0.25170096  0.35554883  0.41400996  1
  O  O117  1  0.75092502  0.34943085  0.41809508  1
  O  O118  1  0.43501312  0.51046829  0.42309594  1
  O  O119  1  0.93665708  0.51311600  0.41852530  1
  O  O120  1  0.17902893  0.51104965  0.08107255  1
  O  O121  1  0.68072836  0.51301980  0.07778858  1
  O  O122  1  0.06999621  0.67051602  0.08073011  1
  O  O123  1  0.57886475  0.68080627  0.08489431  1
  O  O124  1  0.25409121  0.86178879  0.07891850  1
  O  O125  1  0.75938563  0.86545193  0.07833250  1
  O  O126  1  0.18118979  0.85129393  0.57668364  1
  O  O127  1  0.67885724  0.84915936  0.57866950  1
  O  O128  1  0.25815063  0.65294515  0.57642969  1
  O  O129  1  0.75498673  0.64643888  0.57748216  1
  O  O130  1  0.07909126  0.47485241  0.58504231  1
  O  O131  1  0.56958735  0.46813841  0.57862956  1
  O  O132  1  0.15390972  0.82224799  0.25214554  1
  O  O133  1  0.66222416  0.83144263  0.25023402  1
  O  O134  1  0.26419115  0.66880733  0.25277591  1
  O  O135  1  0.76993969  0.68235321  0.25225440  1
  O  O136  1  0.07638166  0.46487549  0.25505409  1
  O  O137  1  0.57415435  0.46284588  0.25225477  1
  O  O138  1  0.16080887  0.49251484  0.74985807  1
  O  O139  1  0.66010608  0.48746628  0.75301471  1
  O  O140  1  0.07469645  0.68657532  0.75199902  1
  O  O141  1  0.58455746  0.68381737  0.75527585  1
  O  O142  1  0.26889333  0.85138191  0.75180228  1
  O  O143  1  0.76721043  0.86295456  0.75297716  1
loop_
_geom_bond_atom_site_label_1
_geom_bond_atom_site_label_2
_geom_bond_distance
_geom_bond_site_symmetry_2
Na0 O107 2.312994 1_565
Na0 O133 2.328672 1_555
Na0 O135 2.699927 1_555
Na0 O63 2.830442 1_555
Na0 O33 2.837945 1_565
Na0 O105 2.887106 1_565
Na1 O106 2.441569 1_555
Na1 O102 2.653374 1_555
Na1 O134 2.665127 1_555
Na1 O64 2.780278 1_555
Na1 O34 2.781973 1_555
Na1 O136 2.803065 1_555
Na1 O0 2.939340 1_555
Na2 O107 2.598876 1_555
Na2 O35 2.748229 1_555
Na2 O137 2.766779 1_555
Na2 O135 2.774125 1_555
Na2 O65 2.778076 1_555
Na2 O103 2.800250 1_555
Na2 O1 2.989468 1_555
Na3 O132 2.429966 1_555
Na3 O103 2.608384 1_455
Na3 O105 2.697947 1_455
Na3 O136 2.755687 1_555
Na3 O31 2.789925 1_455
Na3 O22 2.839140 1_555
Na3 O60 2.893076 1_555
Na4 O133 2.497575 1_555
Na4 O30 2.571040 1_555
Na4 O137 2.649625 1_555
Na4 O104 2.684204 1_555
Na4 O102 2.804787 1_555
Na4 O23 2.830877 1_555
Na5 O98 2.374048 1_555
Na5 O138 2.621675 1_555
Na5 O100 2.670977 1_555
Na5 O142 2.849769 1_555
Na5 O70 2.920916 1_555
Na5 O28 2.928655 1_555
Na5 O8 2.991139 1_555
Na6 O138 2.484119 1_555
Na6 O25 2.650732 1_455
Na6 O140 2.676886 1_555
Na6 O101 2.680331 1_455
Na6 O97 2.737940 1_455
Na6 O14 2.780726 1_555
Na7 O100 2.385991 1_555
Na7 O141 2.527384 1_555
Na7 O139 2.588047 1_555
Na7 O96 2.737308 1_555
Na7 O24 2.837935 1_555
Na7 O67 2.911721 1_555
Na8 O98 2.493443 1_555
Na8 O96 2.621803 1_555
Na8 O142 2.785060 1_545
Na8 O26 2.797178 1_555
Na8 O140 2.824923 1_545
Na8 O68 2.913597 1_545
Na9 O99 2.560571 1_555
Na9 O141 2.615381 1_545
Na9 O143 2.770297 1_545
Na9 O17 2.853946 1_545
Na9 O7 2.899192 1_555
Na9 O69 2.901758 1_545
Na9 O97 2.950114 1_555
Na9 O27 2.954807 1_555
Na10 O130 2.389676 1_555
Na10 O86 2.546375 1_555
Na10 O85 2.663979 1_455
Na10 O128 2.812035 1_555
Na10 O14 2.842691 1_555
Na11 O87 2.443282 1_555
Na11 O131 2.629376 1_555
Na11 O84 2.738396 1_555
Na11 O129 2.762900 1_555
Na11 O15 2.765835 1_555
Na11 O57 2.964918 1_555
Na11 O43 2.980860 1_555
Na11 O29 3.000707 1_555
Na12 O126 2.371389 1_555
Na12 O88 2.634633 1_555
Na12 O128 2.703510 1_555
Na12 O84 2.706788 1_565
Na12 O26 2.706826 1_565
Na12 O12 2.822960 1_555
Na13 O85 2.462068 1_555
Na13 O127 2.568145 1_545
Na13 O89 2.715012 1_545
Na13 O27 2.847834 1_555
Na13 O129 2.918885 1_545
Na13 O13 2.919038 1_545
Na13 O47 2.982501 1_555
Na13 O55 3.056923 1_545
Na14 O94 2.555874 1_565
Na14 O52 2.671838 1_554
Na14 O122 2.689648 1_555
Na14 O124 2.708566 1_555
Na14 O36 2.769957 1_565
Na14 O91 2.848616 1_455
Na14 O32 3.004006 1_565
Na14 O22 3.032276 1_555
Na15 O123 2.393837 1_555
Na15 O95 2.583808 1_565
Na15 O90 2.631553 1_555
Na15 O53 2.739946 1_554
Na15 O125 2.818062 1_555
Na15 O23 2.967979 1_555
Na15 O37 3.028401 1_565
Na16 O90 2.442879 1_555
Na16 O120 2.606859 1_555
Na16 O92 2.699846 1_555
Na16 O38 2.834342 1_555
Na16 O48 2.921226 1_554
Na16 O124 2.933564 1_555
Na16 O34 2.965756 1_555
Na16 O18 3.001359 1_555
Na17 O121 2.324139 1_555
Na17 O125 2.653710 1_555
Na17 O93 2.659945 1_555
Na17 O91 2.741082 1_555
Na17 O35 2.796829 1_555
Na17 O49 2.810876 1_554
Na17 O19 2.998049 1_555
Na18 O81 2.476439 1_555
Na18 O8 2.562836 1_555
Na18 O108 2.654358 1_555
Na18 O82 2.688361 1_555
Na18 O110 2.772971 1_555
Na18 O38 2.856947 1_556
Na19 O80 2.419588 1_655
Na19 O9 2.678801 1_555
Na19 O109 2.679930 1_555
Na19 O111 2.738527 1_555
Na19 O83 2.743316 1_555
Na20 O112 2.430805 1_555
Na20 O110 2.678426 1_555
Na20 O82 2.697371 1_545
Na20 O79 2.709849 1_555
Na20 O10 2.852710 1_555
Na20 O40 2.873123 1_556
Na20 O68 2.941774 1_545
Na21 O113 2.413127 1_555
Na21 O83 2.682283 1_545
Na21 O78 2.727688 1_655
Na21 O111 2.791533 1_555
Na21 O69 2.837397 1_545
Na21 O11 2.841029 1_555
Na21 O41 2.959363 1_556
Na22 O112 2.340377 1_555
Na22 O80 2.429573 1_545
Na22 O6 2.614400 1_555
Na22 O108 2.763154 1_555
Na22 O36 2.803887 1_556
Na22 O78 2.909185 1_555
Na23 O81 2.352366 1_545
Na23 O113 2.445146 1_555
Na23 O7 2.608898 1_555
Na23 O79 2.770268 1_555
Na23 O37 2.851073 1_556
Na23 O109 2.917591 1_555
Na24 O77 2.416111 1_555
Na24 O114 2.721424 1_555
Na24 O118 2.739729 1_555
Na24 O74 2.762995 1_545
Na24 O4 2.796407 1_555
Na24 O46 2.844825 1_555
Na24 O57 2.965855 1_555
Na25 O47 2.376473 1_555
Na25 O76 2.510420 1_655
Na25 O115 2.680833 1_555
Na25 O119 2.726097 1_555
Na25 O75 2.735119 1_545
Na25 O56 2.954405 1_655
Na26 O76 2.405800 1_555
Na26 O116 2.424580 1_555
Na26 O42 2.528569 1_555
Na26 O114 2.831472 1_555
Na26 O72 2.844117 1_545
Na26 O0 2.862624 1_555
Na27 O117 2.354182 1_555
Na27 O77 2.411711 1_555
Na27 O43 2.555061 1_555
Na27 O1 2.742892 1_555
Na27 O115 2.769311 1_555
Na27 O73 2.907525 1_545
Na28 O116 2.409724 1_555
Na28 O73 2.639187 1_555
Na28 O118 2.685632 1_555
Na28 O74 2.712932 1_555
Na28 O44 2.721681 1_555
Na28 O2 2.942441 1_555
Na29 O117 2.398442 1_555
Na29 O45 2.708917 1_555
Na29 O119 2.736847 1_555
Na29 O75 2.756256 1_555
Na29 O72 2.783461 1_655
Na29 O65 2.949804 1_555
Na29 O3 3.008483 1_555
Na30 O86 2.400082 1_555
Na30 O85 2.422093 1_455
Na30 O76 2.589300 1_555
Na30 O89 2.894428 1_445
Na31 O87 2.342225 1_555
Na31 O77 2.474208 1_555
Na31 O84 2.697647 1_555
Na31 O73 2.810483 1_545
Na31 O88 2.860821 1_545
Na32 O80 2.330646 1_545
Na32 O94 2.574710 1_556
Na32 O78 2.649996 1_555
Na32 O91 2.886772 1_446
Na32 O83 2.909322 1_445
Na32 O93 2.988842 1_446
Na33 O81 2.403201 1_544
Na33 O95 2.535980 1_555
Na33 O90 2.573794 1_545
Na33 O79 2.902203 1_554
Na33 O82 2.909848 1_544
Na34 O98 2.371386 1_555
Na34 O100 2.533497 1_555
Na34 O96 2.703938 1_555
Na34 O112 2.743795 1_555
Na34 O108 2.893673 1_555
Na34 O110 2.994400 1_555
Na35 O99 2.369419 1_555
Na35 O113 2.461249 1_555
Na35 O97 2.768554 1_555
Na35 O109 2.845680 1_555
Na35 O101 2.886437 1_555
Na36 O116 2.438999 1_555
Na36 O106 2.477386 1_555
Na36 O114 2.759971 1_555
Na36 O102 2.785474 1_555
Na36 O104 2.857037 1_555
Na36 O118 3.006940 1_555
Na37 O117 2.345833 1_555
Na37 O107 2.428139 1_555
Na37 O115 2.758634 1_555
Na37 O103 2.849482 1_555
Na37 O119 2.942978 1_555
Na38 O120 2.515086 1_555
Na38 O132 2.634927 1_555
Na38 O124 2.637861 1_555
Na38 O122 2.733652 1_555
Na38 O134 2.746738 1_555
Na38 O136 2.841561 1_555
Na39 O123 2.347365 1_555
Na39 O121 2.546481 1_555
Na39 O133 2.671113 1_555
Na39 O137 2.702067 1_555
Na39 O125 2.828298 1_555
Na39 O135 3.029992 1_555
Na40 O130 2.440361 1_555
Na40 O138 2.557083 1_555
Na40 O140 2.649293 1_555
Na40 O126 2.669140 1_555
Na40 O128 2.875087 1_555
Na40 O142 2.904453 1_555
Na41 O141 2.431710 1_555
Na41 O139 2.552223 1_555
Na41 O127 2.714069 1_555
Na41 O143 2.716041 1_555
Na41 O131 2.863066 1_555
Na41 O129 2.974710 1_555
Ca0 O0 2.152488 1_555
Ca0 O76 2.244087 1_555
Ca0 O5 2.336636 1_455
Ca0 O3 2.371581 1_445
Ca0 O72 2.384288 1_545
Ca0 O75 2.457978 1_445
Ca1 O1 2.145501 1_555
Ca1 O77 2.279594 1_555
Ca1 O4 2.338322 1_555
Ca1 O2 2.419233 1_545
Ca1 O73 2.443852 1_545
Ca1 O74 2.467377 1_545
Ca2 O6 2.131992 1_555
Ca2 O80 2.298637 1_545
Ca2 O9 2.335678 1_445
Ca2 O11 2.375968 1_455
Ca2 O78 2.459266 1_555
Ca2 O83 2.475092 1_445
Ca3 O7 2.183549 1_565
Ca3 O8 2.189947 1_555
Ca3 O81 2.321837 1_555
Ca3 O10 2.393948 1_565
Ca3 O79 2.495240 1_565
Ca3 O82 2.545957 1_555
Ca4 O26 2.198436 1_555
Ca4 O100 2.266545 1_555
Ca4 O98 2.269393 1_555
Ca4 O28 2.356613 1_555
Ca4 O24 2.399285 1_555
Ca4 O96 2.439590 1_555
Ca5 O35 2.135137 1_555
Ca5 O107 2.252203 1_555
Ca5 O33 2.331812 1_555
Ca5 O31 2.398933 1_555
Ca5 O103 2.458596 1_555
Ca5 O105 2.478730 1_555
Ca6 O36 2.197485 1_556
Ca6 O38 2.214131 1_556
Ca6 O112 2.320146 1_555
Ca6 O40 2.401334 1_556
Ca6 O108 2.428793 1_555
Ca6 O110 2.475667 1_555
Ca7 O37 2.129494 1_556
Ca7 O113 2.251599 1_555
Ca7 O41 2.363451 1_556
Ca7 O111 2.418240 1_555
Ca7 O39 2.421009 1_556
Ca7 O109 2.447070 1_555
Ca8 O42 2.128950 1_555
Ca8 O116 2.319072 1_555
Ca8 O44 2.331405 1_555
Ca8 O46 2.385309 1_555
Ca8 O118 2.442820 1_555
Ca8 O114 2.476285 1_555
Ca9 O43 2.169934 1_555
Ca9 O47 2.227598 1_555
Ca9 O117 2.346826 1_555
Ca9 O45 2.367267 1_555
Ca9 O115 2.471164 1_555
Ca9 O119 2.521104 1_555
Ca10 O65 2.171190 1_555
Ca10 O133 2.280676 1_555
Ca10 O63 2.306086 1_555
Ca10 O61 2.334734 1_555
Ca10 O137 2.386472 1_555
Ca10 O135 2.443374 1_555
Ca11 O68 2.173136 1_555
Ca11 O138 2.263575 1_555
Ca11 O70 2.300462 1_555
Ca11 O66 2.357768 1_555
Ca11 O140 2.392611 1_555
Ca11 O142 2.397861 1_555
O0 Si0 1.633321 1_545
O1 Si1 1.635590 1_545
O2 S0 1.480246 1_555
O3 S1 1.483629 1_555
O4 S3 1.482619 1_555
O5 S2 1.479437 1_555
O6 Si2 1.638895 1_555
O7 Si3 1.637058 1_555
O8 Si4 1.629300 1_555
O9 S4 1.485965 1_555
O10 S5 1.485133 1_545
O11 S6 1.482274 1_555
O12 S5 1.499912 1_555
O12 Y1 2.384944 1_555
O13 S6 1.483848 1_565
O13 Y0 2.400368 1_665
O14 Si2 1.664438 1_555
O14 Y0 2.115745 1_555
O15 Si3 1.666796 1_555
O15 Y1 2.144339 1_545
O16 S4 1.484944 1_455
O16 Y0 2.302944 1_565
O17 Si4 1.652857 1_555
O17 Y1 2.073500 1_555
O18 S0 1.477322 1_555
O18 Y3 2.454876 1_565
O19 S1 1.497328 1_555
O19 Y2 2.357746 1_665
O20 S2 1.491567 1_455
O20 Y2 2.271592 1_555
O21 S3 1.482393 1_555
O21 Y3 2.322444 1_555
O22 Si0 1.664693 1_555
O22 Y2 2.110303 1_565
O23 Si1 1.654528 1_555
O23 Y3 2.133323 1_565
O24 S7 1.447374 1_555
O25 Si5 1.639275 1_555
O25 Y4 2.181609 1_555
O26 Si6 1.632518 1_555
O27 Si7 1.652909 1_555
O27 Y4 2.131566 1_555
O28 S8 1.463693 1_555
O29 S9 1.481671 1_555
O29 Y4 2.295530 1_555
O30 Si8 1.651751 1_555
O30 Y5 2.166724 1_555
O31 S10 1.480942 1_555
O32 S11 1.495996 1_555
O32 Y5 2.268435 1_555
O33 S12 1.488955 1_555
O34 Si9 1.657499 1_555
O34 Y5 2.139495 1_555
O35 Si10 1.644839 1_555
O36 Si9 1.625804 1_555
O37 Si10 1.636108 1_555
O38 Si8 1.623417 1_555
O39 S10 1.474159 1_555
O40 S11 1.451882 1_555
O41 S12 1.473579 1_555
O42 Si6 1.647701 1_555
O43 Si7 1.632316 1_555
O44 S8 1.494173 1_555
O45 S9 1.481109 1_555
O46 S7 1.496933 1_555
O47 Si5 1.634651 1_555
O48 S13 1.508937 1_555
O48 Y6 2.266877 1_556
O49 S14 1.490427 1_555
O49 Y7 2.501641 1_556
O50 S15 1.501177 1_555
O50 Y6 2.230652 1_556
O51 S16 1.494438 1_555
O51 Y7 2.244917 1_556
O52 Si11 1.673205 1_555
O52 Y6 2.140913 1_556
O53 Si12 1.647787 1_555
O53 Y7 2.148979 1_556
O54 S17 1.471023 1_555
O54 Y8 2.528835 1_555
O55 S18 1.496275 1_555
O55 Y9 2.334055 1_555
O56 Si13 1.640018 1_555
O56 Y8 2.165313 1_555
O57 Si14 1.661405 1_555
O57 Y9 2.149976 1_555
O58 S19 1.480603 1_555
O58 Y8 2.281986 1_555
O59 S20 1.492318 1_555
O59 Y9 2.261187 1_555
O60 S19 1.500986 1_555
O60 Y10 2.309006 1_555
O61 S20 1.479161 1_555
O62 S17 1.501248 1_555
O62 Y10 2.228443 1_555
O63 S18 1.485877 1_555
O64 Si13 1.657988 1_555
O64 Y10 2.141421 1_555
O65 Si14 1.635465 1_555
O66 S15 1.472293 1_555
O67 S16 1.490906 1_555
O67 Y11 2.331965 1_555
O68 Si11 1.630082 1_555
O69 Si12 1.646577 1_555
O69 Y11 2.164821 1_555
O70 S13 1.476273 1_555
O71 S14 1.484266 1_555
O71 Y11 2.334639 1_555
O72 S19 1.481961 1_555
O73 S20 1.488997 1_555
O74 S17 1.490306 1_555
O75 S18 1.487966 1_555
O76 Si13 1.653747 1_555
O77 Si14 1.665886 1_555
O78 S15 1.493228 1_555
O79 S16 1.484651 1_555
O80 Si11 1.669502 1_555
O81 Si12 1.650206 1_555
O82 S13 1.486905 1_555
O83 S14 1.496343 1_555
O84 S7 1.507221 1_555
O84 Y1 2.543101 1_545
O85 Si5 1.666724 1_555
O85 Y0 2.197470 1_655
O86 Si6 1.657416 1_555
O86 Y0 2.154827 1_555
O87 Si7 1.655786 1_555
O87 Y1 2.179453 1_545
O88 S8 1.495096 1_555
O88 Y1 2.457994 1_555
O89 S9 1.478026 1_555
O89 Y0 2.435005 1_665
O90 Si8 1.668998 1_555
O90 Y3 2.169679 1_565
O91 S10 1.510810 1_555
O91 Y2 2.374793 1_665
O92 S11 1.483916 1_565
O92 Y3 2.428126 1_565
O93 S12 1.497043 1_565
O93 Y2 2.381816 1_665
O94 Si9 1.664280 1_555
O94 Y2 2.113051 1_555
O95 Si10 1.654063 1_555
O95 Y3 2.134237 1_555
O96 S5 1.484142 1_545
O97 S6 1.502441 1_555
O97 Y4 2.419587 1_555
O98 Si2 1.646191 1_555
O99 Si3 1.660086 1_555
O99 Y4 2.195356 1_555
O100 Si4 1.634267 1_555
O101 S4 1.485577 1_555
O101 Y4 2.439704 1_555
O102 S0 1.504669 1_555
O102 Y5 2.447408 1_555
O103 S1 1.493625 1_555
O104 S3 1.488867 1_555
O104 Y5 2.429516 1_555
O105 S2 1.477246 1_555
O106 Si0 1.651480 1_545
O106 Y5 2.244428 1_555
O107 Si1 1.664563 1_545
O108 S13 1.483179 1_555
O109 S14 1.491319 1_555
O110 S16 1.478469 1_555
O111 S15 1.483682 1_655
O112 Si11 1.650264 1_545
O113 Si12 1.662013 1_545
O114 S17 1.495882 1_545
O115 S18 1.487970 1_545
O116 Si13 1.660082 1_555
O117 Si14 1.657132 1_555
O118 S20 1.491755 1_555
O119 S19 1.485423 1_655
O120 Si9 1.656327 1_555
O120 Y6 2.207669 1_555
O121 Si10 1.654577 1_555
O121 Y7 2.168825 1_555
O122 S10 1.498436 1_455
O122 Y6 2.379377 1_555
O123 Si8 1.655692 1_555
O123 Y7 2.175619 1_555
O124 S11 1.514993 1_565
O124 Y6 2.367837 1_555
O125 S12 1.495572 1_565
O125 Y7 2.428220 1_555
O126 Si6 1.655171 1_565
O126 Y8 2.148930 1_555
O127 Si7 1.655914 1_565
O127 Y9 2.170491 1_555
O128 S8 1.500085 1_555
O128 Y8 2.350704 1_555
O129 S9 1.506312 1_555
O129 Y9 2.337304 1_555
O130 Si5 1.658296 1_455
O130 Y8 2.160797 1_555
O131 S7 1.509125 1_555
O131 Y9 2.332088 1_555
O132 Si0 1.665394 1_555
O132 Y10 2.196316 1_555
O133 Si1 1.656927 1_555
O134 S0 1.503510 1_555
O134 Y10 2.342382 1_555
O135 S1 1.485628 1_555
O136 S2 1.502702 1_455
O136 Y10 2.406619 1_555
O137 S3 1.499315 1_555
O138 Si2 1.650348 1_555
O139 Si3 1.645673 1_555
O139 Y11 2.196742 1_555
O140 S4 1.495197 1_455
O141 Si4 1.669617 1_555
O141 Y11 2.166599 1_555
O142 S5 1.489660 1_555
O143 S6 1.487728 1_565
O143 Y11 2.369787 1_555
