# generated using pymatgen
data_Tb4CoB13
_symmetry_space_group_name_H-M   'P 1'
_cell_length_a   7.33844800
_cell_length_b   7.33844800
_cell_length_c   6.94485800
_cell_angle_alpha   90.00000000
_cell_angle_beta   90.00000000
_cell_angle_gamma   90.00000000
_symmetry_Int_Tables_number   1
_chemical_formula_structural   Tb4CoB13
_chemical_formula_sum   'Tb8 Co2 B26'
_cell_volume   374.00018119
_cell_formula_units_Z   2
loop_
 _symmetry_equiv_pos_site_id
 _symmetry_equiv_pos_as_xyz
  1  'x, y, z'
loop_
 _atom_site_type_symbol
 _atom_site_label
 _atom_site_symmetry_multiplicity
 _atom_site_fract_x
 _atom_site_fract_y
 _atom_site_fract_z
 _atom_site_occupancy
  Tb  Tb0  1  0.31873700  0.81556600  0.00000000  1
  Tb  Tb1  1  0.18126300  0.31556600  0.50000000  1
  Tb  Tb2  1  0.81873700  0.68443400  0.50000000  1
  Tb  Tb3  1  0.81556600  0.68126300  0.00000000  1
  Tb  Tb4  1  0.18443400  0.31873700  0.00000000  1
  Tb  Tb5  1  0.68126300  0.18443400  0.00000000  1
  Tb  Tb6  1  0.68443400  0.18126300  0.50000000  1
  Tb  Tb7  1  0.31556600  0.81873700  0.50000000  1
  Co  Co0  1  0.00000000  0.00000000  0.00000000  1
  Co  Co1  1  0.50000000  0.50000000  0.50000000  1
  B  B0  1  0.53938400  0.66930200  0.75399400  1
  B  B1  1  0.46061600  0.33069800  0.75399400  1
  B  B2  1  0.16930200  0.03938400  0.74600600  1
  B  B3  1  0.33069800  0.53938400  0.75399400  1
  B  B4  1  0.66930200  0.46061600  0.75399400  1
  B  B5  1  0.03938400  0.83069800  0.74600600  1
  B  B6  1  0.96061600  0.16930200  0.74600600  1
  B  B7  1  0.83069800  0.96061600  0.74600600  1
  B  B8  1  0.46061600  0.33069800  0.24600600  1
  B  B9  1  0.53938400  0.66930200  0.24600600  1
  B  B10  1  0.00000000  0.00000000  0.50000000  1
  B  B11  1  0.50000000  0.50000000  0.00000000  1
  B  B12  1  0.90872000  0.40872000  0.25000000  1
  B  B13  1  0.40872000  0.09128000  0.25000000  1
  B  B14  1  0.59128000  0.90872000  0.25000000  1
  B  B15  1  0.09128000  0.59128000  0.25000000  1
  B  B16  1  0.09128000  0.59128000  0.75000000  1
  B  B17  1  0.59128000  0.90872000  0.75000000  1
  B  B18  1  0.40872000  0.09128000  0.75000000  1
  B  B19  1  0.90872000  0.40872000  0.75000000  1
  B  B20  1  0.16930200  0.03938400  0.25399400  1
  B  B21  1  0.03938400  0.83069800  0.25399400  1
  B  B22  1  0.96061600  0.16930200  0.25399400  1
  B  B23  1  0.33069800  0.53938400  0.24600600  1
  B  B24  1  0.66930200  0.46061600  0.24600600  1
  B  B25  1  0.83069800  0.96061600  0.25399400  1
loop_
_geom_bond_atom_site_label_1
_geom_bond_atom_site_label_2
_geom_bond_distance
_geom_bond_site_symmetry_2
Co0 Tb0 2.702395 1_545
Co0 Tb4 2.702395 1_555
Co0 Tb5 2.702395 1_455
Co0 Tb3 2.702395 1_445
Co1 Tb2 2.702395 1_555
Co1 Tb7 2.702395 1_555
Co1 Tb6 2.702395 1_555
Co1 Tb1 2.702395 1_555
B0 B17 1.797972 1_555
B0 B3 1.803953 1_555
B0 B4 1.803953 1_555
B0 B11 2.132139 1_556
B0 Co1 2.176844 1_555
B0 Tb0 2.587045 1_556
B0 Tb7 2.647987 1_555
B0 Tb3 2.652226 1_556
B0 Tb2 2.706738 1_555
B1 B18 1.797972 1_555
B1 B3 1.803953 1_555
B1 B4 1.803953 1_555
B1 B11 2.132139 1_556
B1 Co1 2.176844 1_555
B1 Tb5 2.587045 1_556
B1 Tb6 2.647987 1_555
B1 Tb4 2.652226 1_556
B1 Tb1 2.706738 1_555
B2 B5 1.803953 1_545
B2 B6 1.803953 1_455
B2 Co0 2.176844 1_556
B2 Tb7 2.587045 1_545
B2 Tb0 2.647987 1_546
B2 Tb1 2.652226 1_555
B2 Tb4 2.706738 1_556
B3 Co1 2.176844 1_555
B3 Tb4 2.587045 1_556
B3 Tb1 2.647987 1_555
B3 Tb0 2.652226 1_556
B3 Tb7 2.706738 1_555
B4 Co1 2.176844 1_555
B4 Tb3 2.587045 1_556
B4 Tb2 2.647987 1_555
B4 Tb5 2.652226 1_556
B4 Tb6 2.706738 1_555
B5 B7 1.803953 1_455
B5 Co0 2.176844 1_566
B5 Tb2 2.587045 1_455
B5 Tb3 2.647987 1_456
B5 Tb7 2.652226 1_555
B5 Tb0 2.706738 1_556
B6 B7 1.803953 1_545
B6 Co0 2.176844 1_656
B6 Tb1 2.587045 1_655
B6 Tb4 2.647987 1_656
B6 Tb6 2.652226 1_555
B6 Tb5 2.706738 1_556
B7 Co0 2.176844 1_666
B7 Tb6 2.587045 1_565
B7 Tb5 2.647987 1_566
B7 Tb2 2.652226 1_555
B7 Tb3 2.706738 1_556
B8 Co1 2.176844 1_555
B8 Tb5 2.587045 1_555
B8 Tb6 2.647987 1_555
B8 Tb4 2.652226 1_555
B8 Tb1 2.706738 1_555
B9 Co1 2.176844 1_555
B9 Tb0 2.587045 1_555
B9 Tb7 2.647987 1_555
B9 Tb3 2.652226 1_555
B9 Tb2 2.706738 1_555
B10 B2 2.132139 1_555
B10 B20 2.132139 1_555
B10 B6 2.132139 1_455
B10 B22 2.132139 1_455
B10 B5 2.132139 1_545
B10 B21 2.132139 1_545
B10 B7 2.132139 1_445
B10 B25 2.132139 1_445
B10 Tb1 2.670612 1_555
B10 Tb6 2.670612 1_455
B10 Tb7 2.670612 1_545
B10 Tb2 2.670612 1_445
B11 B9 2.132139 1_555
B11 B23 2.132139 1_555
B11 B24 2.132139 1_555
B11 B8 2.132139 1_555
B11 B3 2.132139 1_554
B11 B4 2.132139 1_554
B11 Tb3 2.670612 1_555
B11 Tb5 2.670612 1_555
B11 Tb0 2.670612 1_555
B11 Tb4 2.670612 1_555
B12 B24 1.797972 1_555
B12 B22 1.797972 1_555
B12 B15 1.894632 1_655
B12 Tb1 2.735311 1_655
B12 Tb3 2.735311 1_555
B12 Tb4 2.746685 1_655
B12 Tb2 2.746685 1_555
B12 Tb5 2.917127 1_555
B12 Tb6 2.917127 1_555
B13 B8 1.797972 1_555
B13 B20 1.797972 1_555
B13 B14 1.894632 1_545
B13 Tb5 2.735311 1_555
B13 Tb7 2.735311 1_545
B13 Tb6 2.746685 1_555
B13 Tb0 2.746685 1_545
B13 Tb4 2.917127 1_555
B13 Tb1 2.917127 1_555
B14 B25 1.797972 1_555
B14 B9 1.797972 1_555
B14 Tb6 2.735311 1_565
B14 Tb0 2.735311 1_555
B14 Tb5 2.746685 1_565
B14 Tb7 2.746685 1_555
B14 Tb2 2.917127 1_555
B14 Tb3 2.917127 1_555
B15 B21 1.797972 1_555
B15 B23 1.797972 1_555
B15 Tb4 2.735311 1_555
B15 Tb2 2.735311 1_455
B15 Tb1 2.746685 1_555
B15 Tb3 2.746685 1_455
B15 Tb7 2.917127 1_555
B15 Tb0 2.917127 1_555
B16 B5 1.797972 1_555
B16 B3 1.797972 1_555
B16 B19 1.894632 1_455
B16 Tb4 2.735311 1_556
B16 Tb2 2.735311 1_455
B16 Tb1 2.746685 1_555
B16 Tb3 2.746685 1_456
B16 Tb7 2.917127 1_555
B16 Tb0 2.917127 1_556
B17 B7 1.797972 1_555
B17 B18 1.894632 1_565
B17 Tb6 2.735311 1_565
B17 Tb0 2.735311 1_556
B17 Tb5 2.746685 1_566
B17 Tb7 2.746685 1_555
B17 Tb2 2.917127 1_555
B17 Tb3 2.917127 1_556
B18 B2 1.797972 1_555
B18 Tb5 2.735311 1_556
B18 Tb7 2.735311 1_545
B18 Tb6 2.746685 1_555
B18 Tb0 2.746685 1_546
B18 Tb4 2.917127 1_556
B18 Tb1 2.917127 1_555
B19 B4 1.797972 1_555
B19 B6 1.797972 1_555
B19 Tb1 2.735311 1_655
B19 Tb3 2.735311 1_556
B19 Tb4 2.746685 1_656
B19 Tb2 2.746685 1_555
B19 Tb5 2.917127 1_556
B19 Tb6 2.917127 1_555
B20 B21 1.803953 1_545
B20 B22 1.803953 1_455
B20 Co0 2.176844 1_555
B20 Tb7 2.587045 1_545
B20 Tb0 2.647987 1_545
B20 Tb1 2.652226 1_555
B20 Tb4 2.706738 1_555
B21 B25 1.803953 1_455
B21 Co0 2.176844 1_565
B21 Tb2 2.587045 1_455
B21 Tb3 2.647987 1_455
B21 Tb7 2.652226 1_555
B21 Tb0 2.706738 1_555
B22 B25 1.803953 1_545
B22 Co0 2.176844 1_655
B22 Tb1 2.587045 1_655
B22 Tb4 2.647987 1_655
B22 Tb6 2.652226 1_555
B22 Tb5 2.706738 1_555
B23 B8 1.803953 1_555
B23 B9 1.803953 1_555
B23 Co1 2.176844 1_555
B23 Tb4 2.587045 1_555
B23 Tb1 2.647987 1_555
B23 Tb0 2.652226 1_555
B23 Tb7 2.706738 1_555
B24 B8 1.803953 1_555
B24 B9 1.803953 1_555
B24 Co1 2.176844 1_555
B24 Tb3 2.587045 1_555
B24 Tb2 2.647987 1_555
B24 Tb5 2.652226 1_555
B24 Tb6 2.706738 1_555
B25 Co0 2.176844 1_665
B25 Tb6 2.587045 1_565
B25 Tb5 2.647987 1_565
B25 Tb2 2.652226 1_555
B25 Tb3 2.706738 1_555
