# generated using pymatgen
data_Na8Mg2Al2Si3(SO8)3
_symmetry_space_group_name_H-M   'P 1'
_cell_length_a   9.06226015
_cell_length_b   8.92290418
_cell_length_c   21.91190370
_cell_angle_alpha   92.92563170
_cell_angle_beta   89.57706919
_cell_angle_gamma   120.39878310
_symmetry_Int_Tables_number   1
_chemical_formula_structural   Na8Mg2Al2Si3(SO8)3
_chemical_formula_sum   'Na24 Mg6 Al6 Si9 S9 O72'
_cell_volume   1525.90766316
_cell_formula_units_Z   3
loop_
 _symmetry_equiv_pos_site_id
 _symmetry_equiv_pos_as_xyz
  1  'x, y, z'
loop_
 _atom_site_type_symbol
 _atom_site_label
 _atom_site_symmetry_multiplicity
 _atom_site_fract_x
 _atom_site_fract_y
 _atom_site_fract_z
 _atom_site_occupancy
  Na  Na0  1  0.63885967  0.01735958  0.25913333  1
  Na  Na1  1  0.35251729  0.34714197  0.25436092  1
  Na  Na2  1  0.00209781  0.62837439  0.24455164  1
  Na  Na3  1  0.62814946  0.62913812  0.73747327  1
  Na  Na4  1  0.99149057  0.34908512  0.74020006  1
  Na  Na5  1  0.37967516  0.02100760  0.75050995  1
  Na  Na6  1  0.30441859  0.34834143  0.59081380  1
  Na  Na7  1  0.02005571  0.68170228  0.58635724  1
  Na  Na8  1  0.66814523  0.96031942  0.58050728  1
  Na  Na9  1  0.28679520  0.95089942  0.08294281  1
  Na  Na10  1  0.67437693  0.69632518  0.08217646  1
  Na  Na11  1  0.03006823  0.34387749  0.09198207  1
  Na  Na12  1  0.98284556  0.68108662  0.91734935  1
  Na  Na13  1  0.68944389  0.02736375  0.90369119  1
  Na  Na14  1  0.32735688  0.28503108  0.90621336  1
  Na  Na15  1  0.95426941  0.28361590  0.41763881  1
  Na  Na16  1  0.33856823  0.03244031  0.41094477  1
  Na  Na17  1  0.69493773  0.67725424  0.42744584  1
  Na  Na18  1  0.97938254  0.99604835  0.50320921  1
  Na  Na19  1  0.00994904  0.99114878  0.99784870  1
  Na  Na20  1  0.65042980  0.31892963  0.82433019  1
  Na  Na21  1  0.66454158  0.31408614  0.33258101  1
  Na  Na22  1  0.31160970  0.66266625  0.16975827  1
  Na  Na23  1  0.34007594  0.65446555  0.66232650  1
  Mg  Mg0  1  0.00067615  0.01163250  0.34962251  1
  Mg  Mg1  1  0.01117847  0.01283106  0.84529316  1
  Mg  Mg2  1  0.66967234  0.33711936  0.68430012  1
  Mg  Mg3  1  0.67717349  0.33225049  0.18764813  1
  Mg  Mg4  1  0.32156482  0.67466453  0.01638925  1
  Mg  Mg5  1  0.34738262  0.66743372  0.52099233  1
  Al  Al0  1  0.97509309  0.02029152  0.64718152  1
  Al  Al1  1  0.01003340  0.98525230  0.15908485  1
  Al  Al2  1  0.66428491  0.33290746  0.98281027  1
  Al  Al3  1  0.67458796  0.31652610  0.49229428  1
  Al  Al4  1  0.32161879  0.68481343  0.31254406  1
  Al  Al5  1  0.34924983  0.68940922  0.80573267  1
  Si  Si0  1  0.29625862  0.99967672  0.25173603  1
  Si  Si1  1  0.00627549  0.29433260  0.25091838  1
  Si  Si2  1  0.29192075  0.29686390  0.75210267  1
  Si  Si3  1  0.70536753  -0.00001187  0.75278786  1
  Si  Si4  1  0.96497112  0.33677928  0.58436224  1
  Si  Si5  1  0.67490883  0.62615209  0.58454047  1
  Si  Si6  1  0.95403492  0.62765623  0.08465693  1
  Si  Si7  1  0.33631562  0.96405069  0.91935656  1
  Si  Si8  1  0.62298641  0.96103451  0.41800684  1
  S  S0  1  0.70731690  0.71045363  0.24894005  1
  S  S1  1  0.00508954  0.70845154  0.75177819  1
  S  S2  1  0.37345738  0.04342385  0.58194584  1
  S  S3  1  0.66820952  0.04181500  0.08087926  1
  S  S4  1  0.37761489  0.33437846  0.08185335  1
  S  S5  1  0.62191682  0.66056585  0.91867210  1
  S  S6  1  0.03574514  0.37253644  0.91863391  1
  S  S7  1  0.33547559  0.37710600  0.41459260  1
  S  S8  1  0.04117437  0.66535075  0.41552488  1
  O  O0  1  0.20907782  0.02800948  0.31184418  1
  O  O1  1  0.81527140  0.78831525  0.30383434  1
  O  O2  1  0.96418993  0.17666089  0.30858896  1
  O  O3  1  0.22191768  0.18489965  0.81216300  1
  O  O4  1  0.97935673  0.78859722  0.80878916  1
  O  O5  1  0.81365927  0.02490505  0.81469080  1
  O  O6  1  0.79324633  0.96063768  0.69281918  1
  O  O7  1  0.16027644  0.19482598  0.69191183  1
  O  O8  1  0.03651648  0.81457235  0.69864933  1
  O  O9  1  0.79101312  0.82122702  0.19456430  1
  O  O10  1  0.03544866  0.19276186  0.18803244  1
  O  O11  1  0.17154412  0.95694127  0.19023246  1
  O  O12  1  0.88210499  0.36970634  0.64467883  1
  O  O13  1  0.47989647  0.12043727  0.63731485  1
  O  O14  1  0.63534871  0.50795516  0.64205942  1
  O  O15  1  0.86594175  0.51109503  0.14186023  1
  O  O16  1  0.63562017  0.11811673  0.13632594  1
  O  O17  1  0.47854802  0.36132797  0.13744149  1
  O  O18  1  0.46202439  0.30552834  0.02659520  1
  O  O19  1  0.82569595  0.53124202  0.02282631  1
  O  O20  1  0.69195073  0.15041240  0.02733413  1
  O  O21  1  0.45830469  0.15376349  0.52776886  1
  O  O22  1  0.70006963  0.52318060  0.52141840  1
  O  O23  1  0.83890261  0.29200233  0.52327967  1
  O  O24  1  0.54356711  0.68544719  0.97518702  1
  O  O25  1  0.14595589  0.45327498  0.97420207  1
  O  O26  1  0.30682767  0.85619875  0.97961274  1
  O  O27  1  0.53657244  0.84601414  0.47563732  1
  O  O28  1  0.30865236  0.45877868  0.46990335  1
  O  O29  1  0.14532255  0.69221680  0.47009878  1
  O  O30  1  0.12458832  0.63733197  0.35915544  1
  O  O31  1  0.49630618  0.86449304  0.35566120  1
  O  O32  1  0.35750311  0.48115413  0.36021567  1
  O  O33  1  0.11318613  0.47842035  0.86545091  1
  O  O34  1  0.36804576  0.86192368  0.85934453  1
  O  O35  1  0.51340261  0.63275172  0.86416860  1
  O  O36  1  0.02296112  0.82116644  0.41033613  1
  O  O37  1  0.81384435  0.98228353  0.41205706  1
  O  O38  1  0.18160993  0.19830606  0.41088029  1
  O  O39  1  0.00990186  0.19466580  0.91381136  1
  O  O40  1  0.16786197  0.98612700  0.91369737  1
  O  O41  1  0.79633047  0.81486787  0.91516344  1
  O  O42  1  0.98079024  0.15916593  0.58750770  1
  O  O43  1  0.20394874  0.02921792  0.58556316  1
  O  O44  1  0.85928916  0.81985742  0.59103678  1
  O  O45  1  0.96981281  0.82697398  0.09145032  1
  O  O46  1  0.82588952  0.02981120  0.08497508  1
  O  O47  1  0.20314384  0.17727945  0.08285026  1
  O  O48  1  0.68401362  0.16857151  0.74652542  1
  O  O49  1  0.48490533  0.32906807  0.74508395  1
  O  O50  1  0.85171909  0.53382135  0.74637792  1
  O  O51  1  0.68139987  0.53368800  0.24006175  1
  O  O52  1  0.84618137  0.32784572  0.24471236  1
  O  O53  1  0.48424775  0.17139971  0.24322872  1
  O  O54  1  0.63713250  0.49966506  0.92152498  1
  O  O55  1  0.86250082  0.35837334  0.92577190  1
  O  O56  1  0.51877448  0.16156211  0.92671028  1
  O  O57  1  0.63676587  0.15908134  0.42448222  1
  O  O58  1  0.49111228  0.36130160  0.41846479  1
  O  O59  1  0.86871286  0.50696801  0.41604345  1
  O  O60  1  0.36168700  0.49201922  0.07583018  1
  O  O61  1  0.14525322  0.64913549  0.07992463  1
  O  O62  1  0.51918891  0.86061344  0.07424034  1
  O  O63  1  0.34846371  0.86664880  0.57328814  1
  O  O64  1  0.51351938  0.65863080  0.57896801  1
  O  O65  1  0.15363998  0.50746791  0.57588339  1
  O  O66  1  0.31208079  0.82211181  0.25469571  1
  O  O67  1  0.53693981  0.69577403  0.25257064  1
  O  O68  1  0.18991314  0.48806290  0.25901737  1
  O  O69  1  0.29741263  0.48828899  0.76196836  1
  O  O70  1  0.16109040  0.68948818  0.75835204  1
  O  O71  1  0.51048946  0.82210730  0.75375621  1
loop_
_geom_bond_atom_site_label_1
_geom_bond_atom_site_label_2
_geom_bond_distance
_geom_bond_site_symmetry_2
Na0 O53 2.445189 1_555
Na0 O52 2.473449 1_555
Na0 O67 2.526914 1_545
Na0 O31 2.544400 1_545
Na0 O66 2.565140 1_545
Na0 O2 2.745114 1_555
Na0 O16 2.885335 1_555
Na1 O68 2.371239 1_555
Na1 O53 2.407241 1_555
Na1 O32 2.544730 1_555
Na1 O51 2.602019 1_555
Na1 O67 2.687334 1_555
Na1 O17 2.779845 1_555
Na1 O0 2.825042 1_555
Na1 O10 2.849145 1_555
Na2 O52 2.313809 1_455
Na2 O66 2.446326 1_555
Na2 O15 2.484888 1_455
Na2 O51 2.584675 1_455
Na2 O68 2.601900 1_555
Na2 O30 2.734139 1_555
Na2 O11 2.853601 1_555
Na2 O1 2.968872 1_455
Na3 O14 2.320153 1_555
Na3 O49 2.325246 1_555
Na3 O71 2.453299 1_555
Na3 O50 2.575452 1_555
Na3 O69 2.661553 1_555
Na3 O6 2.782141 1_555
Na3 O35 2.961666 1_555
Na4 O12 2.377371 1_555
Na4 O48 2.419250 1_555
Na4 O69 2.435223 1_655
Na4 O50 2.535274 1_555
Na4 O70 2.628183 1_655
Na4 O7 2.704052 1_655
Na4 O33 2.917808 1_655
Na5 O48 2.383463 1_555
Na5 O49 2.420380 1_555
Na5 O71 2.589130 1_545
Na5 O70 2.611618 1_545
Na5 O13 2.672058 1_555
Na5 O3 2.809476 1_555
Na5 O34 2.811343 1_545
Na5 O8 2.897663 1_545
Na6 O65 2.451032 1_555
Na6 O64 2.465816 1_555
Na6 O43 2.508949 1_555
Na6 O42 2.537016 1_455
Na6 O7 2.635563 1_555
Na6 O14 2.801252 1_555
Na6 O28 2.866788 1_555
Na7 O44 2.335648 1_455
Na7 O65 2.408185 1_555
Na7 O63 2.593810 1_555
Na7 O8 2.647781 1_555
Na7 O43 2.677336 1_565
Na7 O29 2.767828 1_555
Na7 O12 2.786316 1_455
Na7 O22 2.852845 1_455
Na8 O64 2.320591 1_555
Na8 O42 2.467826 1_565
Na8 O27 2.512521 1_555
Na8 O63 2.580540 1_555
Na8 O44 2.618610 1_555
Na8 O6 2.716406 1_555
Na8 O23 2.905411 1_565
Na8 O13 2.958839 1_565
Na9 O61 2.321111 1_555
Na9 O26 2.413976 1_554
Na9 O47 2.491001 1_565
Na9 O45 2.511510 1_455
Na9 O11 2.574563 1_555
Na9 O62 2.610765 1_555
Na10 O45 2.322392 1_555
Na10 O60 2.474751 1_555
Na10 O62 2.504609 1_555
Na10 O46 2.567358 1_565
Na10 O24 2.609974 1_554
Na10 O9 2.643851 1_555
Na10 O19 2.750244 1_555
Na10 O17 2.918918 1_555
Na11 O61 2.402168 1_555
Na11 O46 2.452181 1_455
Na11 O10 2.570566 1_555
Na11 O60 2.629768 1_555
Na11 O47 2.652266 1_555
Na11 O15 2.772806 1_455
Na11 O25 2.809963 1_554
Na11 O20 2.972668 1_455
Na12 O40 2.372294 1_655
Na12 O41 2.516581 1_555
Na12 O55 2.527507 1_555
Na12 O4 2.616203 1_555
Na12 O54 2.706007 1_555
Na12 O19 2.738122 1_556
Na12 O33 2.809014 1_655
Na12 O26 2.849864 1_655
Na13 O5 2.249220 1_555
Na13 O56 2.425187 1_555
Na13 O39 2.509906 1_655
Na13 O41 2.550984 1_545
Na13 O55 2.568021 1_555
Na13 O34 2.674072 1_545
Na13 O20 2.866719 1_556
Na14 O3 2.221577 1_555
Na14 O40 2.317155 1_545
Na14 O54 2.483630 1_555
Na14 O56 2.533902 1_555
Na14 O39 2.571623 1_555
Na14 O18 2.872831 1_556
Na14 O35 2.879717 1_555
Na15 O37 2.317272 1_545
Na15 O59 2.479016 1_555
Na15 O57 2.512174 1_555
Na15 O38 2.533179 1_655
Na15 O2 2.545467 1_555
Na15 O23 2.546108 1_555
Na16 O57 2.356859 1_555
Na16 O0 2.464923 1_555
Na16 O36 2.505120 1_545
Na16 O38 2.518800 1_555
Na16 O58 2.529340 1_555
Na16 O21 2.733393 1_555
Na16 O31 2.777332 1_545
Na17 O37 2.408928 1_555
Na17 O58 2.465199 1_555
Na17 O22 2.547008 1_555
Na17 O36 2.606841 1_655
Na17 O59 2.688526 1_555
Na17 O27 2.728485 1_555
Na17 O1 2.940115 1_555
Na17 O32 2.995174 1_555
Na18 O42 2.288589 1_565
Na18 O44 2.430223 1_555
Na18 O37 2.467293 1_555
Na18 O43 2.622137 1_665
Na18 O36 2.649520 1_655
Na18 O38 2.771157 1_665
Na19 O40 2.338255 1_555
Na19 O47 2.466232 1_566
Na19 O41 2.486672 1_455
Na19 O45 2.498256 1_456
Na19 O46 2.648398 1_466
Na19 O39 2.651544 1_565
Na20 O48 2.229619 1_555
Na20 O49 2.337796 1_555
Na20 O50 2.582675 1_555
Na20 O54 2.644481 1_555
Na20 O56 2.648460 1_555
Na20 O55 2.838446 1_555
Na21 O53 2.410671 1_555
Na21 O57 2.440474 1_555
Na21 O52 2.490878 1_555
Na21 O59 2.497204 1_555
Na21 O58 2.595108 1_555
Na21 O51 2.840903 1_555
Na22 O66 2.282907 1_555
Na22 O61 2.448955 1_555
Na22 O68 2.451361 1_555
Na22 O67 2.634237 1_555
Na22 O60 2.669465 1_555
Na22 O62 2.827651 1_555
Na23 O65 2.390309 1_555
Na23 O64 2.390312 1_555
Na23 O71 2.457238 1_555
Na23 O69 2.617810 1_555
Na23 O70 2.747965 1_555
Na23 O63 2.761514 1_555
Mg0 O2 1.928313 1_455
Mg0 O0 1.995831 1_555
Mg0 O1 2.057372 1_445
Mg0 O38 2.074833 1_555
Mg0 O37 2.088174 1_445
Mg0 O36 2.298057 1_545
Mg1 O3 1.912431 1_555
Mg1 O5 1.971168 1_455
Mg1 O4 1.995578 1_445
Mg1 O39 2.157961 1_555
Mg1 O40 2.174808 1_545
Mg1 O41 2.450803 1_445
Mg2 O14 1.976162 1_555
Mg2 O12 1.994733 1_555
Mg2 O13 2.052716 1_555
Mg2 O49 2.106617 1_555
Mg2 O50 2.124035 1_555
Mg2 O48 2.132493 1_555
Mg3 O15 1.963406 1_555
Mg3 O52 2.001249 1_555
Mg3 O16 2.028783 1_555
Mg3 O53 2.051189 1_555
Mg3 O51 2.066739 1_555
Mg3 O17 2.246905 1_555
Mg4 O26 1.909130 1_554
Mg4 O25 1.985754 1_554
Mg4 O61 2.043075 1_555
Mg4 O62 2.092558 1_555
Mg4 O24 2.158242 1_554
Mg4 O60 2.303907 1_555
Mg5 O27 1.959058 1_555
Mg5 O28 1.993596 1_555
Mg5 O64 2.011178 1_555
Mg5 O65 2.043157 1_555
Mg5 O63 2.060965 1_555
Mg5 O29 2.260672 1_555
Al0 O6 1.772382 1_545
Al0 O42 1.829639 1_555
Al0 O7 1.850889 1_655
Al0 O44 1.925717 1_545
Al0 O43 2.435785 1_655
Al1 O11 1.754549 1_555
Al1 O10 1.826044 1_565
Al1 O45 1.896611 1_455
Al1 O9 1.959448 1_455
Al1 O47 2.450146 1_565
Al2 O19 1.811382 1_556
Al2 O56 1.838257 1_555
Al2 O18 1.970939 1_556
Al2 O20 2.060401 1_556
Al2 O55 2.103113 1_555
Al2 O54 2.158074 1_555
Al3 O23 1.756705 1_555
Al3 O22 1.819858 1_555
Al3 O57 1.898977 1_555
Al3 O21 1.940886 1_555
Al3 O59 2.448478 1_555
Al4 O31 1.807762 1_555
Al4 O66 1.839123 1_555
Al4 O68 1.890016 1_555
Al4 O30 1.913756 1_555
Al4 O32 2.301319 1_555
Al4 O67 2.307854 1_555
Al5 O71 1.787824 1_555
Al5 O34 1.825258 1_555
Al5 O69 1.827183 1_555
Al5 O70 2.003202 1_555
Al5 O35 2.227858 1_555
Al5 O33 2.442805 1_555
O0 Si0 1.604866 1_545
O1 S0 1.459726 1_555
O2 Si1 1.602445 1_655
O3 Si2 1.616469 1_555
O4 S1 1.483112 1_655
O5 Si3 1.618771 1_555
O6 Si3 1.644573 1_565
O7 Si2 1.671250 1_555
O8 S1 1.472313 1_555
O9 S0 1.523168 1_555
O10 Si1 1.702839 1_555
O11 Si0 1.665176 1_555
O12 Si4 1.601878 1_555
O13 S2 1.461485 1_555
O14 Si5 1.604893 1_555
O15 Si6 1.602547 1_555
O16 S3 1.463078 1_555
O17 S4 1.463573 1_555
O18 S4 1.507070 1_555
O19 Si6 1.679290 1_555
O20 S3 1.504385 1_555
O21 S2 1.519708 1_555
O22 Si5 1.699078 1_555
O23 Si4 1.662018 1_555
O24 S5 1.485066 1_555
O25 S6 1.483008 1_555
O26 Si7 1.614011 1_555
O27 Si8 1.601731 1_555
O28 S7 1.464172 1_555
O29 S8 1.461733 1_555
O30 S8 1.518386 1_555
O31 Si8 1.681798 1_555
O32 S7 1.497773 1_555
O33 S6 1.473925 1_555
O34 Si7 1.667196 1_555
O35 S5 1.481560 1_555
O36 S8 1.490582 1_555
O37 Si8 1.646751 1_555
O38 S7 1.494422 1_555
O39 S6 1.480556 1_555
O40 Si7 1.641407 1_555
O41 S5 1.485409 1_555
O42 Si4 1.666794 1_555
O43 S2 1.477910 1_555
O44 Si5 1.689743 1_555
O45 Si6 1.709262 1_555
O46 S3 1.489683 1_555
O47 S4 1.491624 1_555
O48 Si3 1.623304 1_555
O49 Si2 1.629951 1_555
O50 S1 1.471602 1_655
O51 S0 1.474861 1_555
O52 Si1 1.630614 1_655
O53 Si0 1.633264 1_545
O54 S5 1.514529 1_555
O55 S6 1.517526 1_655
O56 Si7 1.700522 1_545
O57 Si8 1.705842 1_545
O58 S7 1.490185 1_555
O59 S8 1.485282 1_655
O60 S4 1.497172 1_555
O61 Si6 1.647297 1_455
O62 S3 1.492726 1_565
O63 S2 1.477781 1_565
O64 Si5 1.634980 1_555
O65 Si4 1.632878 1_455
O66 Si0 1.666016 1_555
O67 S0 1.483915 1_555
O68 Si1 1.688441 1_555
O69 Si2 1.686161 1_555
O70 S1 1.515114 1_555
O71 Si3 1.674713 1_565
