# generated using pymatgen
data_Na2LaTaSi2SO12
_symmetry_space_group_name_H-M   'P 1'
_cell_length_a   9.34229261
_cell_length_b   9.34229226
_cell_length_c   23.03207119
_cell_angle_alpha   91.03974629
_cell_angle_beta   88.96025372
_cell_angle_gamma   118.58966069
_symmetry_Int_Tables_number   1
_chemical_formula_structural   Na2LaTaSi2SO12
_chemical_formula_sum   'Na12 La6 Ta6 Si12 S6 O72'
_cell_volume   1764.70445731
_cell_formula_units_Z   6
loop_
 _symmetry_equiv_pos_site_id
 _symmetry_equiv_pos_as_xyz
  1  'x, y, z'
loop_
 _atom_site_type_symbol
 _atom_site_label
 _atom_site_symmetry_multiplicity
 _atom_site_fract_x
 _atom_site_fract_y
 _atom_site_fract_z
 _atom_site_occupancy
  Na  Na0  1  0.97541580  0.63103138  0.24834440  1
  Na  Na1  1  0.36896862  0.02458420  0.74834440  1
  Na  Na2  1  0.64208280  0.96436438  0.58167740  1
  Na  Na3  1  0.03563562  0.35791720  0.08167740  1
  Na  Na4  1  0.30874880  0.29769838  0.91501140  1
  Na  Na5  1  0.70230162  0.69125120  0.41501140  1
  Na  Na6  1  0.00779348  0.97308833  0.49885847  1
  Na  Na7  1  0.02691167  0.99220652  0.99885847  1
  Na  Na8  1  0.67446048  0.30642133  0.83219147  1
  Na  Na9  1  0.69357867  0.32553952  0.33219147  1
  Na  Na10  1  0.34112648  0.63975533  0.16552547  1
  Na  Na11  1  0.36024467  0.65887352  0.66552547  1
  La  La0  1  0.99626998  0.01156213  0.35282663  1
  La  La1  1  0.98843787  0.00373002  0.85282663  1
  La  La2  1  0.66293698  0.34489513  0.68615963  1
  La  La3  1  0.65510487  0.33706302  0.18615963  1
  La  La4  1  0.32960298  0.67822913  0.01949363  1
  La  La5  1  0.32177087  0.67039702  0.51949363  1
  Ta  Ta0  1  0.99800871  0.00503415  0.64685145  1
  Ta  Ta1  1  0.99496585  0.00199129  0.14685145  1
  Ta  Ta2  1  0.66467571  0.33836715  0.98018445  1
  Ta  Ta3  1  0.66163285  0.33532429  0.48018445  1
  Ta  Ta4  1  0.33134171  0.67170115  0.31351845  1
  Ta  Ta5  1  0.32829885  0.66865829  0.81351845  1
  Si  Si0  1  0.69795129  0.72158450  0.25275913  1
  Si  Si1  1  0.02161732  0.31460676  0.24925876  1
  Si  Si2  1  0.27841550  0.30204871  0.75275913  1
  Si  Si3  1  0.68539324  0.97838268  0.74925876  1
  Si  Si4  1  0.36461829  0.05491750  0.58609213  1
  Si  Si5  1  0.68828432  0.64793976  0.58259176  1
  Si  Si6  1  0.94508250  0.63538171  0.08609213  1
  Si  Si7  1  0.35206024  0.31171568  0.08259176  1
  Si  Si8  1  0.03128429  0.38825150  0.91942613  1
  Si  Si9  1  0.35495032  0.98127376  0.91592576  1
  Si  Si10  1  0.61174850  0.96871571  0.41942613  1
  Si  Si11  1  0.01872624  0.64504968  0.41592576  1
  S  S0  1  0.28373221  0.97350209  0.24761907  1
  S  S1  1  0.02649791  0.71626779  0.74761907  1
  S  S2  1  0.95039921  0.30683509  0.58095207  1
  S  S3  1  0.69316491  0.04960079  0.08095207  1
  S  S4  1  0.61706521  0.64016909  0.91428607  1
  S  S5  1  0.35983091  0.38293479  0.41428607  1
  O  O0  1  0.22136055  0.00067826  0.30281012  1
  O  O1  1  0.80098375  0.78570968  0.31110472  1
  O  O2  1  0.00719021  0.21648426  0.30621510  1
  O  O3  1  0.21429032  0.19901625  0.81110472  1
  O  O4  1  0.99932174  0.77863945  0.80281012  1
  O  O5  1  0.78351574  0.99280979  0.80621510  1
  O  O6  1  0.79949723  0.96979247  0.69040590  1
  O  O7  1  0.14854883  0.18433425  0.69760276  1
  O  O8  1  0.04057330  0.82652407  0.69811222  1
  O  O9  1  0.81566575  0.85145117  0.19760276  1
  O  O10  1  0.03020753  0.20050277  0.19040590  1
  O  O11  1  0.17347593  0.95942670  0.19811222  1
  O  O12  1  0.88802755  0.33401126  0.63614312  1
  O  O13  1  0.46765075  0.11904268  0.64443772  1
  O  O14  1  0.67385721  0.54981726  0.63954810  1
  O  O15  1  0.88095732  0.53234925  0.14443772  1
  O  O16  1  0.66598874  0.11197245  0.13614312  1
  O  O17  1  0.45018274  0.32614279  0.13954810  1
  O  O18  1  0.46616423  0.30312547  0.02373890  1
  O  O19  1  0.81521583  0.51766725  0.03093576  1
  O  O20  1  0.70724030  0.15985707  0.03144522  1
  O  O21  1  0.48233275  0.18478417  0.53093576  1
  O  O22  1  0.69687453  0.53383577  0.52373890  1
  O  O23  1  0.84014293  0.29275970  0.53144522  1
  O  O24  1  0.55469355  0.66734526  0.96947712  1
  O  O25  1  0.13431675  0.45237668  0.97777172  1
  O  O26  1  0.34052321  0.88315126  0.97288210  1
  O  O27  1  0.54762332  0.86568325  0.47777172  1
  O  O28  1  0.33265474  0.44530645  0.46947712  1
  O  O29  1  0.11684874  0.65947679  0.47288210  1
  O  O30  1  0.13283023  0.63645947  0.35707290  1
  O  O31  1  0.48188183  0.85100125  0.36426976  1
  O  O32  1  0.37390630  0.49319107  0.36477922  1
  O  O33  1  0.14899875  0.51811817  0.86426976  1
  O  O34  1  0.36354053  0.86716977  0.85707290  1
  O  O35  1  0.50680893  0.62609370  0.86477922  1
  O  O36  1  0.97954185  0.79523302  0.41281639  1
  O  O37  1  0.79483708  0.99594187  0.41188207  1
  O  O38  1  0.23838524  0.21413750  0.40618345  1
  O  O39  1  0.00405813  0.20516292  0.91188207  1
  O  O40  1  0.20476698  0.02045815  0.91281639  1
  O  O41  1  0.78586250  0.76161476  0.90618345  1
  O  O42  1  0.94236546  0.13873873  0.58339463  1
  O  O43  1  0.18257055  0.04814873  0.59294913  1
  O  O44  1  0.86333674  0.82854740  0.59000562  1
  O  O45  1  0.95185127  0.81742945  0.09294913  1
  O  O46  1  0.86126127  0.05763454  0.08339463  1
  O  O47  1  0.17145260  0.13666326  0.09000562  1
  O  O48  1  0.64620885  0.12856602  0.74614939  1
  O  O49  1  0.46150408  0.32927487  0.74521507  1
  O  O50  1  0.90505224  0.54747050  0.73951645  1
  O  O51  1  0.67072513  0.53849592  0.24521507  1
  O  O52  1  0.87143398  0.35379115  0.24614939  1
  O  O53  1  0.45252950  0.09494776  0.23951645  1
  O  O54  1  0.60903246  0.47207173  0.91672763  1
  O  O55  1  0.84923755  0.38148173  0.92628213  1
  O  O56  1  0.53000374  0.16188040  0.92333862  1
  O  O57  1  0.61851827  0.15076245  0.42628213  1
  O  O58  1  0.52792827  0.39096754  0.41672763  1
  O  O59  1  0.83811960  0.46999626  0.42333862  1
  O  O60  1  0.31287485  0.46190002  0.07948339  1
  O  O61  1  0.12817008  0.66260887  0.07854907  1
  O  O62  1  0.57171824  0.88080450  0.07285045  1
  O  O63  1  0.33739113  0.87182992  0.57854907  1
  O  O64  1  0.53809998  0.68712515  0.57948339  1
  O  O65  1  0.11919550  0.42828176  0.57285045  1
  O  O66  1  0.27569846  0.80540573  0.25006163  1
  O  O67  1  0.51590355  0.71481573  0.25961613  1
  O  O68  1  0.19666974  0.49521440  0.25667262  1
  O  O69  1  0.28518427  0.48409645  0.75961613  1
  O  O70  1  0.19459427  0.72430154  0.75006163  1
  O  O71  1  0.50478560  0.80333026  0.75667262  1
loop_
_geom_bond_atom_site_label_1
_geom_bond_atom_site_label_2
_geom_bond_distance
_geom_bond_site_symmetry_2
Na0 O52 2.289898 1_555
Na0 O66 2.480547 1_655
Na0 O51 2.550530 1_555
Na0 O15 2.563972 1_555
Na0 O68 2.907346 1_655
Na0 O30 2.914476 1_655
Na0 O11 2.965261 1_655
Na0 O1 2.987586 1_555
Na1 O48 2.289898 1_555
Na1 O70 2.480547 1_545
Na1 O49 2.550530 1_555
Na1 O13 2.563972 1_555
Na1 O71 2.907346 1_545
Na1 O34 2.914476 1_545
Na1 O8 2.965261 1_545
Na1 O3 2.987586 1_555
Na2 O64 2.289888 1_555
Na2 O42 2.480547 1_565
Na2 O63 2.550540 1_555
Na2 O27 2.563950 1_555
Na2 O44 2.907346 1_555
Na2 O6 2.914476 1_555
Na2 O23 2.965261 1_565
Na2 O13 2.987586 1_565
Na3 O60 2.289888 1_555
Na3 O46 2.480547 1_455
Na3 O61 2.550540 1_555
Na3 O25 2.563950 1_554
Na3 O47 2.907346 1_555
Na3 O10 2.914476 1_555
Na3 O20 2.965261 1_455
Na3 O15 2.987586 1_455
Na4 O40 2.289898 1_555
Na4 O54 2.480553 1_555
Na4 O39 2.550530 1_555
Na4 O3 2.563972 1_555
Na4 O56 2.907360 1_555
Na4 O18 2.914464 1_556
Na4 O35 2.965261 1_555
Na4 O25 2.987586 1_555
Na5 O36 2.289898 1_555
Na5 O58 2.480553 1_555
Na5 O37 2.550530 1_555
Na5 O1 2.563972 1_555
Na5 O59 2.907360 1_555
Na5 O22 2.914463 1_555
Na5 O32 2.965261 1_555
Na5 O27 2.987586 1_555
Na6 O36 2.497499 1_455
Na6 O44 2.511525 1_455
Na6 O43 2.613732 1_565
Na6 O42 2.704128 1_465
Na6 O37 2.929742 1_455
Na7 O40 2.497499 1_565
Na7 O47 2.511525 1_566
Na7 O45 2.613732 1_456
Na7 O46 2.704128 1_466
Na7 O39 2.929742 1_565
Na8 O48 2.497499 1_555
Na8 O56 2.511525 1_555
Na8 O55 2.613732 1_555
Na8 O54 2.704128 1_555
Na8 O49 2.929742 1_555
Na9 O52 2.497499 1_555
Na9 O59 2.511525 1_555
Na9 O57 2.613732 1_555
Na9 O58 2.704128 1_555
Na9 O51 2.929742 1_555
Na10 O60 2.497499 1_555
Na10 O68 2.511525 1_555
Na10 O67 2.613732 1_555
Na10 O66 2.704128 1_555
Na10 O61 2.929742 1_555
Na11 O64 2.497499 1_555
Na11 O71 2.511525 1_555
Na11 O69 2.613732 1_555
Na11 O70 2.704128 1_555
Na11 O63 2.929742 1_555
La0 O2 2.170649 1_655
La0 O1 2.238249 1_545
La0 O37 2.250373 1_545
La0 O36 2.410226 1_545
La0 O0 2.423202 1_655
La0 O38 2.475411 1_655
La1 O5 2.170649 1_545
La1 O3 2.238249 1_655
La1 O39 2.250373 1_655
La1 O40 2.410226 1_655
La1 O4 2.423202 1_545
La1 O41 2.475411 1_545
La2 O14 2.170649 1_555
La2 O13 2.238249 1_555
La2 O49 2.250373 1_555
La2 O48 2.410226 1_555
La2 O12 2.423202 1_555
La2 O50 2.475411 1_555
La3 O17 2.170649 1_555
La3 O15 2.238249 1_555
La3 O51 2.250373 1_555
La3 O52 2.410226 1_555
La3 O16 2.423202 1_555
La3 O53 2.475411 1_555
La4 O26 2.170649 1_554
La4 O25 2.238249 1_554
La4 O61 2.250373 1_555
La4 O60 2.410226 1_555
La4 O24 2.423202 1_554
La4 O62 2.475411 1_555
La5 O29 2.170649 1_555
La5 O27 2.238249 1_555
La5 O63 2.250373 1_555
La5 O64 2.410226 1_555
La5 O28 2.423202 1_555
La5 O65 2.475411 1_555
O0 S0 1.456998 1_545
O1 Si0 1.599094 1_555
O2 Si1 1.580614 1_555
O3 Si2 1.599094 1_555
O4 S1 1.456998 1_655
O5 Si3 1.580614 1_555
O6 Si3 1.733683 1_555
O6 Ta0 1.978425 1_565
O7 Si2 1.738815 1_555
O7 Ta0 1.970809 1_455
O8 S1 1.511952 1_555
O8 Ta0 2.248650 1_465
O9 Si0 1.738815 1_555
O9 Ta1 1.970809 1_565
O10 Si1 1.733683 1_555
O10 Ta1 1.978425 1_455
O11 S0 1.511952 1_555
O11 Ta1 2.248650 1_465
O12 S2 1.456998 1_555
O13 Si4 1.599094 1_555
O14 Si5 1.580614 1_555
O15 Si6 1.599094 1_555
O16 S3 1.456998 1_555
O17 Si7 1.580614 1_555
O18 Si7 1.733683 1_555
O18 Ta2 1.978425 1_554
O19 Si6 1.738815 1_555
O19 Ta2 1.970809 1_554
O20 S3 1.511952 1_555
O20 Ta2 2.248650 1_554
O21 Si4 1.738815 1_555
O21 Ta3 1.970809 1_555
O22 Si5 1.733683 1_555
O22 Ta3 1.978425 1_555
O23 S2 1.511952 1_555
O23 Ta3 2.248650 1_555
O24 S4 1.456998 1_555
O25 Si8 1.599094 1_555
O26 Si9 1.580614 1_555
O27 Si10 1.599094 1_555
O28 S5 1.456998 1_555
O29 Si11 1.580614 1_555
O30 Si11 1.733683 1_555
O30 Ta4 1.978425 1_555
O31 Si10 1.738815 1_555
O31 Ta4 1.970809 1_555
O32 S5 1.511952 1_555
O32 Ta4 2.248650 1_555
O33 Si8 1.738815 1_555
O33 Ta5 1.970809 1_555
O34 Si9 1.733683 1_555
O34 Ta5 1.978425 1_555
O35 S4 1.511952 1_555
O35 Ta5 2.248650 1_555
O36 Si11 1.613652 1_655
O37 Si10 1.610905 1_555
O38 S5 1.446901 1_555
O39 Si8 1.610905 1_555
O40 Si9 1.613652 1_545
O41 S4 1.446901 1_555
O42 S2 1.537927 1_555
O42 Ta0 2.163766 1_555
O43 Si4 1.676053 1_555
O43 Ta0 1.988031 1_455
O44 Si5 1.705689 1_555
O44 Ta0 2.002930 1_565
O45 Si6 1.676053 1_555
O45 Ta1 1.988031 1_565
O46 S3 1.537927 1_555
O46 Ta1 2.163766 1_555
O47 Si7 1.705689 1_555
O47 Ta1 2.002930 1_455
O48 Si3 1.613652 1_545
O49 Si2 1.610905 1_555
O50 S1 1.446901 1_655
O51 Si0 1.610905 1_555
O52 Si1 1.613652 1_655
O53 S0 1.446901 1_545
O54 S4 1.537939 1_555
O54 Ta2 2.163766 1_555
O55 Si8 1.676037 1_655
O55 Ta2 1.988031 1_555
O56 Si9 1.705687 1_545
O56 Ta2 2.002930 1_555
O57 Si10 1.676037 1_545
O57 Ta3 1.988031 1_555
O58 S5 1.537939 1_555
O58 Ta3 2.163766 1_555
O59 Si11 1.705687 1_655
O59 Ta3 2.002930 1_555
O60 Si7 1.613665 1_555
O61 Si6 1.610891 1_455
O62 S3 1.446894 1_565
O63 Si4 1.610891 1_565
O64 Si5 1.613665 1_555
O65 S2 1.446894 1_455
O66 S0 1.537927 1_555
O66 Ta4 2.163766 1_555
O67 Si0 1.676053 1_555
O67 Ta4 1.988031 1_555
O68 Si1 1.705689 1_555
O68 Ta4 2.002930 1_555
O69 Si2 1.676053 1_555
O69 Ta5 1.988031 1_555
O70 S1 1.537927 1_555
O70 Ta5 2.163766 1_555
O71 Si3 1.705689 1_555
O71 Ta5 2.002930 1_555
