# generated using pymatgen
data_Si2Cl2O3
_symmetry_space_group_name_H-M   'P 1'
_cell_length_a   8.67113719
_cell_length_b   8.67113719
_cell_length_c   8.67113763
_cell_angle_alpha   95.78418431
_cell_angle_beta   95.78418431
_cell_angle_gamma   95.78418628
_symmetry_Int_Tables_number   1
_chemical_formula_structural   Si2Cl2O3
_chemical_formula_sum   'Si8 Cl8 O12'
_cell_volume   641.28283674
_cell_formula_units_Z   4
loop_
 _symmetry_equiv_pos_site_id
 _symmetry_equiv_pos_as_xyz
  1  'x, y, z'
loop_
 _atom_site_type_symbol
 _atom_site_label
 _atom_site_symmetry_multiplicity
 _atom_site_fract_x
 _atom_site_fract_y
 _atom_site_fract_z
 _atom_site_occupancy
  Si  Si0  1  0.13813600  0.74197500  0.91813700  1
  Si  Si1  1  0.91813700  0.13813600  0.74197500  1
  Si  Si2  1  0.20232600  0.20232600  0.20232600  1
  Si  Si3  1  0.86186400  0.25802500  0.08186300  1
  Si  Si4  1  0.08186300  0.86186400  0.25802500  1
  Si  Si5  1  0.25802500  0.08186300  0.86186400  1
  Si  Si6  1  0.79767400  0.79767400  0.79767400  1
  Si  Si7  1  0.74197500  0.91813700  0.13813600  1
  Cl  Cl0  1  0.24248600  0.55049000  0.85644200  1
  Cl  Cl1  1  0.55049000  0.85644200  0.24248600  1
  Cl  Cl2  1  0.75751400  0.44951000  0.14355800  1
  Cl  Cl3  1  0.14355800  0.75751400  0.44951000  1
  Cl  Cl4  1  0.44951000  0.14355800  0.75751400  1
  Cl  Cl5  1  0.64735200  0.64735200  0.64735200  1
  Cl  Cl6  1  0.35264800  0.35264800  0.35264800  1
  Cl  Cl7  1  0.85644200  0.24248600  0.55049000  1
  O  O0  1  0.24110500  0.89431200  0.87108900  1
  O  O1  1  0.03728800  0.27576700  0.17349900  1
  O  O2  1  0.17349900  0.03728800  0.27576700  1
  O  O3  1  0.27576700  0.17349900  0.03728800  1
  O  O4  1  0.82650100  0.96271200  0.72423300  1
  O  O5  1  0.72423300  0.82650100  0.96271200  1
  O  O6  1  0.96271200  0.72423300  0.82650100  1
  O  O7  1  0.10568800  0.12891100  0.75889500  1
  O  O8  1  0.87108900  0.24110500  0.89431200  1
  O  O9  1  0.89431200  0.87108900  0.24110500  1
  O  O10  1  0.75889500  0.10568800  0.12891100  1
  O  O11  1  0.12891100  0.75889500  0.10568800  1
loop_
_geom_bond_atom_site_label_1
_geom_bond_atom_site_label_2
_geom_bond_distance
_geom_bond_site_symmetry_2
Cl0 Si0 2.020685 1_555
Cl1 Si7 2.020685 1_555
Cl2 Si3 2.020685 1_555
Cl3 Si4 2.020685 1_555
Cl4 Si5 2.020685 1_555
Cl5 Si6 2.017342 1_555
Cl6 Si2 2.017342 1_555
Cl7 Si1 2.020685 1_555
O0 Si0 1.628745 1_555
O0 Si5 1.628866 1_565
O1 Si3 1.628935 1_455
O1 Si2 1.630841 1_555
O2 Si4 1.628935 1_545
O2 Si2 1.630841 1_555
O3 Si5 1.628935 1_554
O3 Si2 1.630842 1_555
O4 Si1 1.628935 1_565
O4 Si6 1.630841 1_555
O5 Si7 1.628935 1_556
O5 Si6 1.630842 1_555
O6 Si0 1.628935 1_655
O6 Si6 1.630841 1_555
O7 Si5 1.628745 1_555
O7 Si1 1.628866 1_455
O8 Si1 1.628745 1_555
O8 Si3 1.628866 1_556
O9 Si7 1.628745 1_555
O9 Si4 1.628866 1_655
O10 Si3 1.628745 1_555
O10 Si7 1.628866 1_545
O11 Si4 1.628745 1_555
O11 Si0 1.628866 1_554
