# generated using pymatgen
data_Zr3NiSb7
_symmetry_space_group_name_H-M   'P 1'
_cell_length_a   3.94951552
_cell_length_b   14.43375542
_cell_length_c   17.64187360
_cell_angle_alpha   90.00000000
_cell_angle_beta   90.00000000
_cell_angle_gamma   90.00000000
_symmetry_Int_Tables_number   1
_chemical_formula_structural   Zr3NiSb7
_chemical_formula_sum   'Zr12 Ni4 Sb28'
_cell_volume   1005.69866308
_cell_formula_units_Z   4
loop_
 _symmetry_equiv_pos_site_id
 _symmetry_equiv_pos_as_xyz
  1  'x, y, z'
loop_
 _atom_site_type_symbol
 _atom_site_label
 _atom_site_symmetry_multiplicity
 _atom_site_fract_x
 _atom_site_fract_y
 _atom_site_fract_z
 _atom_site_occupancy
  Zr  Zr0  1  0.25000000  0.47055793  0.37057249  1
  Zr  Zr1  1  0.75000000  0.52944207  0.62942751  1
  Zr  Zr2  1  0.75000000  0.97055793  0.12942751  1
  Zr  Zr3  1  0.25000000  0.02944207  0.87057249  1
  Zr  Zr4  1  0.25000000  0.91039559  0.39227391  1
  Zr  Zr5  1  0.75000000  0.08960441  0.60772609  1
  Zr  Zr6  1  0.75000000  0.41039559  0.10772609  1
  Zr  Zr7  1  0.25000000  0.58960441  0.89227391  1
  Zr  Zr8  1  0.25000000  0.30934969  0.84668057  1
  Zr  Zr9  1  0.75000000  0.69065031  0.15331943  1
  Zr  Zr10  1  0.75000000  0.80934969  0.65331943  1
  Zr  Zr11  1  0.25000000  0.19065031  0.34668057  1
  Ni  Ni0  1  0.25000000  0.81134801  0.93805783  1
  Ni  Ni1  1  0.75000000  0.18865199  0.06194217  1
  Ni  Ni2  1  0.75000000  0.31134801  0.56194217  1
  Ni  Ni3  1  0.25000000  0.68865199  0.43805783  1
  Sb  Sb0  1  0.25000000  0.29725816  0.02190263  1
  Sb  Sb1  1  0.75000000  0.70274184  0.97809737  1
  Sb  Sb2  1  0.75000000  0.79725816  0.47809737  1
  Sb  Sb3  1  0.25000000  0.20274184  0.52190263  1
  Sb  Sb4  1  0.25000000  0.07642610  0.03718852  1
  Sb  Sb5  1  0.75000000  0.92357390  0.96281148  1
  Sb  Sb6  1  0.75000000  0.57642610  0.46281148  1
  Sb  Sb7  1  0.25000000  0.42357390  0.53718852  1
  Sb  Sb8  1  0.25000000  0.56091722  0.07069811  1
  Sb  Sb9  1  0.75000000  0.43908278  0.92930189  1
  Sb  Sb10  1  0.75000000  0.06091722  0.42930189  1
  Sb  Sb11  1  0.25000000  0.93908278  0.57069811  1
  Sb  Sb12  1  0.25000000  0.82433919  0.09015505  1
  Sb  Sb13  1  0.75000000  0.17566081  0.90984495  1
  Sb  Sb14  1  0.75000000  0.32433919  0.40984495  1
  Sb  Sb15  1  0.25000000  0.67566081  0.59015505  1
  Sb  Sb16  1  0.25000000  0.35510310  0.22779188  1
  Sb  Sb17  1  0.75000000  0.64489690  0.77220812  1
  Sb  Sb18  1  0.75000000  0.85510310  0.27220812  1
  Sb  Sb19  1  0.25000000  0.14489690  0.72779188  1
  Sb  Sb20  1  0.25000000  0.02178856  0.24695962  1
  Sb  Sb21  1  0.75000000  0.97821144  0.75304038  1
  Sb  Sb22  1  0.75000000  0.52178856  0.25304038  1
  Sb  Sb23  1  0.25000000  0.47821144  0.74695962  1
  Sb  Sb24  1  0.25000000  0.68604151  0.29146588  1
  Sb  Sb25  1  0.75000000  0.31395849  0.70853412  1
  Sb  Sb26  1  0.75000000  0.18604151  0.20853412  1
  Sb  Sb27  1  0.25000000  0.81395849  0.79146588  1
loop_
_geom_bond_atom_site_label_1
_geom_bond_atom_site_label_2
_geom_bond_distance
_geom_bond_site_symmetry_2
Ni0 Sb27 2.586431 1_555
Ni0 Sb5 2.591189 1_455
Ni0 Sb5 2.591189 1_555
Ni0 Sb1 2.618393 1_455
Ni0 Sb1 2.618393 1_555
Ni0 Sb12 2.689824 1_556
Ni1 Sb26 2.586431 1_555
Ni1 Sb4 2.591189 1_555
Ni1 Sb4 2.591189 1_655
Ni1 Sb0 2.618393 1_555
Ni1 Sb0 2.618393 1_655
Ni1 Sb13 2.689824 1_554
Ni2 Sb25 2.586431 1_555
Ni2 Sb7 2.591189 1_655
Ni2 Sb7 2.591189 1_555
Ni2 Sb3 2.618393 1_555
Ni2 Sb3 2.618393 1_655
Ni2 Sb14 2.689824 1_555
Ni3 Sb24 2.586431 1_555
Ni3 Sb6 2.591189 1_455
Ni3 Sb6 2.591189 1_555
Ni3 Sb2 2.618393 1_455
Ni3 Sb2 2.618393 1_555
Ni3 Sb15 2.689824 1_555
Sb0 Zr6 2.976375 1_455
Sb0 Zr6 2.976375 1_555
Sb0 Zr8 3.096168 1_554
Sb1 Zr7 2.976375 1_555
Sb1 Zr7 2.976375 1_655
Sb1 Zr9 3.096168 1_556
Sb2 Zr4 2.976375 1_555
Sb2 Zr4 2.976375 1_655
Sb2 Zr10 3.096168 1_555
Sb3 Zr5 2.976375 1_555
Sb3 Zr5 2.976375 1_455
Sb3 Zr11 3.096168 1_555
Sb4 Zr2 2.980383 1_445
Sb4 Zr2 2.980383 1_545
Sb4 Zr3 3.016634 1_554
Sb5 Zr3 2.980383 1_665
Sb5 Zr3 2.980383 1_565
Sb5 Zr2 3.016634 1_556
Sb6 Zr0 2.980383 1_555
Sb6 Zr0 2.980383 1_655
Sb6 Zr1 3.016634 1_555
Sb7 Zr1 2.980383 1_555
Sb7 Zr1 2.980383 1_455
Sb7 Zr0 3.016634 1_555
Sb8 Zr6 3.007749 1_555
Sb8 Zr6 3.007749 1_455
Sb8 Zr9 3.087174 1_455
Sb8 Zr9 3.087174 1_555
Sb8 Zr7 3.174854 1_554
Sb9 Zr7 3.007749 1_655
Sb9 Zr7 3.007749 1_555
Sb9 Zr8 3.087174 1_555
Sb9 Zr8 3.087174 1_655
Sb9 Zr6 3.174854 1_556
Sb10 Zr4 3.007749 1_545
Sb10 Zr4 3.007749 1_645
Sb10 Zr11 3.087174 1_555
Sb10 Zr11 3.087174 1_655
Sb10 Zr5 3.174854 1_555
Sb11 Zr5 3.007749 1_565
Sb11 Zr5 3.007749 1_465
Sb11 Zr10 3.087174 1_555
Sb11 Zr10 3.087174 1_455
Sb11 Zr4 3.174854 1_555
Sb12 Zr2 2.972178 1_555
Sb12 Zr2 2.972178 1_455
Sb12 Zr9 2.977398 1_555
Sb12 Zr9 2.977398 1_455
Sb13 Zr3 2.972178 1_555
Sb13 Zr3 2.972178 1_655
Sb13 Zr8 2.977398 1_555
Sb13 Zr8 2.977398 1_655
Sb14 Zr0 2.972178 1_655
Sb14 Zr0 2.972178 1_555
Sb14 Zr11 2.977398 1_555
Sb14 Zr11 2.977398 1_655
Sb15 Zr1 2.972178 1_555
Sb15 Zr1 2.972178 1_455
Sb15 Zr10 2.977398 1_455
Sb15 Zr10 2.977398 1_555
Sb16 Zr6 3.003882 1_455
Sb16 Zr6 3.003882 1_555
Sb16 Zr0 3.020263 1_555
Sb16 Zr11 3.167567 1_555
Sb17 Zr7 3.003882 1_555
Sb17 Zr7 3.003882 1_655
Sb17 Zr1 3.020263 1_555
Sb17 Zr10 3.167567 1_555
Sb18 Zr4 3.003882 1_555
Sb18 Zr4 3.003882 1_655
Sb18 Zr2 3.020263 1_555
Sb18 Zr9 3.167567 1_555
Sb19 Zr5 3.003882 1_455
Sb19 Zr5 3.003882 1_555
Sb19 Zr3 3.020263 1_555
Sb19 Zr8 3.167567 1_555
Sb20 Zr2 2.957330 1_545
Sb20 Zr2 2.957330 1_445
Sb20 Zr11 3.005909 1_555
Sb20 Zr4 3.026088 1_545
Sb21 Zr3 2.957330 1_665
Sb21 Zr3 2.957330 1_565
Sb21 Zr10 3.005909 1_555
Sb21 Zr5 3.026088 1_565
Sb22 Zr0 2.957330 1_555
Sb22 Zr0 2.957330 1_655
Sb22 Zr9 3.005909 1_555
Sb22 Zr6 3.026088 1_555
Sb23 Zr1 2.957330 1_555
Sb23 Zr1 2.957330 1_455
Sb23 Zr8 3.005909 1_555
Sb23 Zr7 3.026088 1_555
Sb24 Zr9 3.137492 1_555
Sb24 Zr9 3.137492 1_455
Sb25 Zr8 3.137492 1_555
Sb25 Zr8 3.137492 1_655
Sb26 Zr11 3.137492 1_655
Sb26 Zr11 3.137492 1_555
Sb27 Zr10 3.137492 1_455
Sb27 Zr10 3.137492 1_555
