# generated using pymatgen
data_La2MgVZnO6
_symmetry_space_group_name_H-M   'P 1'
_cell_length_a   6.51378694
_cell_length_b   6.50365631
_cell_length_c   6.51060247
_cell_angle_alpha   51.86468472
_cell_angle_beta   51.83688666
_cell_angle_gamma   51.82296428
_symmetry_Int_Tables_number   1
_chemical_formula_structural   La2MgVZnO6
_chemical_formula_sum   'La2 Mg1 V1 Zn1 O6'
_cell_volume   157.60256198
_cell_formula_units_Z   1
loop_
 _symmetry_equiv_pos_site_id
 _symmetry_equiv_pos_as_xyz
  1  'x, y, z'
loop_
 _atom_site_type_symbol
 _atom_site_label
 _atom_site_symmetry_multiplicity
 _atom_site_fract_x
 _atom_site_fract_y
 _atom_site_fract_z
 _atom_site_occupancy
  La  La0  1  0.78695472  0.78829438  0.78913583  1
  La  La1  1  0.32583838  0.32568674  0.32729248  1
  Mg  Mg0  1  0.13743202  0.13908330  0.14038486  1
  V  V0  1  0.97213470  0.97190307  0.97260117  1
  Zn  Zn0  1  0.55557978  0.55573219  0.55671165  1
  O  O0  1  0.33950478  0.77713635  0.05634791  1
  O  O1  1  0.77714816  0.05532306  0.34066288  1
  O  O2  1  0.05692162  0.33935236  0.77834327  1
  O  O3  1  0.55117746  0.21081242  0.90693659  1
  O  O4  1  0.90600425  0.54967959  0.21170176  1
  O  O5  1  0.21035213  0.90604454  0.55083360  1
loop_
_geom_bond_atom_site_label_1
_geom_bond_atom_site_label_2
_geom_bond_distance
_geom_bond_site_symmetry_2
La0 O0 2.316473 1_556
La0 O2 2.318595 1_655
La0 O1 2.318672 1_565
La0 O3 2.535379 1_565
La0 O4 2.540556 1_556
La0 O5 2.540729 1_655
La1 O0 2.339362 1_555
La1 O2 2.339418 1_555
La1 O1 2.340656 1_555
La1 O3 2.531375 1_554
La1 O5 2.532181 1_545
La1 O4 2.536089 1_455
Mg0 O2 2.102139 1_554
Mg0 O1 2.103795 1_455
Mg0 O0 2.107965 1_545
Mg0 O4 2.304130 1_455
Mg0 O5 2.310913 1_545
Mg0 O3 2.325384 1_554
O0 V0 2.154171 1_454
O1 V0 2.154615 1_544
O2 V0 2.156637 1_445
O3 Zn0 1.978294 1_555
O3 V0 2.340345 1_545
O4 Zn0 1.979694 1_555
O4 V0 2.345955 1_554
O5 Zn0 1.978452 1_555
O5 V0 2.344543 1_455
