# generated using pymatgen
data_Li(CoO2)2
_symmetry_space_group_name_H-M   'P 1'
_cell_length_a   7.92099925
_cell_length_b   7.92385896
_cell_length_c   7.92370201
_cell_angle_alpha   89.98859298
_cell_angle_beta   90.00148727
_cell_angle_gamma   90.01779716
_symmetry_Int_Tables_number   1
_chemical_formula_structural   Li(CoO2)2
_chemical_formula_sum   'Li8 Co16 O32'
_cell_volume   497.33017883
_cell_formula_units_Z   8
loop_
 _symmetry_equiv_pos_site_id
 _symmetry_equiv_pos_as_xyz
  1  'x, y, z'
loop_
 _atom_site_type_symbol
 _atom_site_label
 _atom_site_symmetry_multiplicity
 _atom_site_fract_x
 _atom_site_fract_y
 _atom_site_fract_z
 _atom_site_occupancy
  Li  Li0  1  0.99923306  0.99931463  0.99980815  1
  Li  Li1  1  0.25056352  0.25032387  0.24953547  1
  Li  Li2  1  0.25060088  0.74941849  0.74923087  1
  Li  Li3  1  0.49990118  0.99942347  0.50065092  1
  Li  Li4  1  0.49941220  0.50028507  0.00045977  1
  Li  Li5  1  0.74917339  0.24936199  0.75072892  1
  Li  Li6  1  0.74996140  0.75036084  0.24933819  1
  Li  Li7  1  0.00065134  0.50086073  0.49961442  1
  Co  Co0  1  0.12477136  0.12513327  0.62497945  1
  Co  Co1  1  0.12465061  0.37482514  0.87508072  1
  Co  Co2  1  0.12516900  0.87546679  0.37477974  1
  Co  Co3  1  0.12507877  0.62512535  0.12482481  1
  Co  Co4  1  0.37492899  0.37485940  0.62511726  1
  Co  Co5  1  0.37464481  0.12471059  0.87518406  1
  Co  Co6  1  0.37529926  0.62499708  0.37503709  1
  Co  Co7  1  0.37512836  0.87505369  0.12489914  1
  Co  Co8  1  0.62506743  0.37496652  0.37533826  1
  Co  Co9  1  0.62492734  0.12504392  0.12527849  1
  Co  Co10  1  0.62524729  0.62478915  0.62500307  1
  Co  Co11  1  0.62492496  0.87486988  0.87495028  1
  Co  Co12  1  0.87512628  0.12528144  0.37513389  1
  Co  Co13  1  0.87495404  0.37519343  0.12512987  1
  Co  Co14  1  0.87514387  0.87511231  0.62465699  1
  Co  Co15  1  0.87510295  0.62482297  0.87483846  1
  O  O0  1  0.11210621  0.11229379  0.38793170  1
  O  O1  1  0.11218193  0.88825668  0.61156908  1
  O  O2  1  0.11201515  0.61186933  0.88799014  1
  O  O3  1  0.13766420  0.13794090  0.86197806  1
  O  O4  1  0.11191427  0.38829163  0.11197982  1
  O  O5  1  0.13780724  0.36190690  0.63828843  1
  O  O6  1  0.13850617  0.63853571  0.36166032  1
  O  O7  1  0.13823906  0.86200878  0.13792372  1
  O  O8  1  0.36165560  0.13791400  0.63839242  1
  O  O9  1  0.36156895  0.36158453  0.86213129  1
  O  O10  1  0.36204135  0.63831992  0.13826777  1
  O  O11  1  0.38830907  0.61153530  0.61189185  1
  O  O12  1  0.36219042  0.86185361  0.36175821  1
  O  O13  1  0.38804671  0.38805897  0.38838826  1
  O  O14  1  0.38808701  0.11188565  0.11197209  1
  O  O15  1  0.38803885  0.88783930  0.88794742  1
  O  O16  1  0.61180553  0.38790530  0.61228548  1
  O  O17  1  0.61222269  0.61191544  0.38817062  1
  O  O18  1  0.61205682  0.88819835  0.11173783  1
  O  O19  1  0.63796170  0.36196525  0.13847381  1
  O  O20  1  0.61165636  0.11158911  0.88843001  1
  O  O21  1  0.63801429  0.13817553  0.36221859  1
  O  O22  1  0.63832642  0.86167467  0.63806851  1
  O  O23  1  0.63811597  0.63797165  0.86183887  1
  O  O24  1  0.86195867  0.36219412  0.36206667  1
  O  O25  1  0.86184497  0.13830122  0.13827141  1
  O  O26  1  0.86186023  0.86167140  0.86141518  1
  O  O27  1  0.88824267  0.88841738  0.38770108  1
  O  O28  1  0.86217212  0.63829847  0.63792789  1
  O  O29  1  0.88788255  0.11212013  0.61188597  1
  O  O30  1  0.88770671  0.38801637  0.88821918  1
  O  O31  1  0.88814282  0.61202758  0.11176098  1
loop_
_geom_bond_atom_site_label_1
_geom_bond_atom_site_label_2
_geom_bond_distance
_geom_bond_site_symmetry_2
Li0 O26 1.890966 1_555
Li0 O7 1.895775 1_656
Li0 O3 1.897503 1_665
Li0 O25 1.897941 1_566
Li1 O14 1.891920 1_555
Li1 O13 1.894004 1_555
Li1 O4 1.894598 1_555
Li1 O0 1.897482 1_555
Li2 O11 1.889192 1_555
Li2 O15 1.896308 1_555
Li2 O2 1.897543 1_555
Li2 O1 1.898014 1_555
Li3 O22 1.891938 1_555
Li3 O12 1.894470 1_555
Li3 O8 1.896273 1_565
Li3 O21 1.899377 1_565
Li4 O10 1.890490 1_555
Li4 O9 1.897655 1_554
Li4 O19 1.897841 1_555
Li4 O23 1.898074 1_554
Li5 O20 1.888825 1_555
Li5 O16 1.895436 1_555
Li5 O30 1.896770 1_555
Li5 O29 1.897738 1_555
Li6 O18 1.890791 1_555
Li6 O31 1.894508 1_555
Li6 O27 1.896863 1_555
Li6 O17 1.898100 1_555
Li7 O6 1.891079 1_555
Li7 O28 1.895145 1_455
Li7 O5 1.897416 1_555
Li7 O24 1.897818 1_455
Co0 O5 1.881946 1_555
Co0 O29 1.882055 1_455
Co0 O8 1.882061 1_555
Co0 O1 1.882615 1_545
Co0 O3 1.883433 1_555
Co0 O0 1.883738 1_555
Co1 O5 1.881974 1_555
Co1 O9 1.882395 1_555
Co1 O30 1.882658 1_455
Co1 O3 1.882783 1_555
Co1 O4 1.882879 1_556
Co1 O2 1.883800 1_555
Co2 O1 1.881822 1_555
Co2 O27 1.882319 1_455
Co2 O0 1.882374 1_565
Co2 O7 1.882678 1_555
Co2 O6 1.883303 1_555
Co2 O12 1.883408 1_555
Co3 O4 1.882273 1_555
Co3 O2 1.882407 1_554
Co3 O31 1.882451 1_455
Co3 O6 1.882643 1_555
Co3 O7 1.882774 1_555
Co3 O10 1.882871 1_555
Co4 O11 1.881246 1_555
Co4 O13 1.881535 1_555
Co4 O16 1.881863 1_555
Co4 O8 1.883350 1_555
Co4 O5 1.883906 1_555
Co4 O9 1.883927 1_555
Co5 O8 1.881974 1_555
Co5 O14 1.881981 1_556
Co5 O15 1.882662 1_545
Co5 O9 1.882666 1_555
Co5 O3 1.882987 1_555
Co5 O20 1.883201 1_555
Co6 O6 1.881720 1_555
Co6 O10 1.881968 1_555
Co6 O17 1.882438 1_555
Co6 O11 1.882596 1_555
Co6 O12 1.882642 1_555
Co6 O13 1.883161 1_555
Co7 O10 1.881638 1_555
Co7 O7 1.882046 1_555
Co7 O14 1.882165 1_565
Co7 O18 1.882458 1_555
Co7 O12 1.882485 1_555
Co7 O15 1.883026 1_554
Co8 O21 1.882025 1_555
Co8 O24 1.882118 1_555
Co8 O19 1.882466 1_555
Co8 O17 1.883104 1_555
Co8 O13 1.883182 1_555
Co8 O16 1.883253 1_555
Co9 O14 1.881829 1_555
Co9 O25 1.882346 1_555
Co9 O18 1.882547 1_545
Co9 O20 1.882696 1_554
Co9 O19 1.883062 1_555
Co9 O21 1.883195 1_555
Co10 O17 1.882206 1_555
Co10 O23 1.882300 1_555
Co10 O28 1.882485 1_555
Co10 O11 1.882558 1_555
Co10 O16 1.882737 1_555
Co10 O22 1.882741 1_555
Co11 O20 1.881760 1_565
Co11 O18 1.881992 1_556
Co11 O15 1.882042 1_555
Co11 O26 1.882769 1_555
Co11 O22 1.882911 1_555
Co11 O23 1.882975 1_555
Co12 O29 1.881543 1_555
Co12 O27 1.882399 1_545
Co12 O25 1.882581 1_555
Co12 O0 1.882698 1_655
Co12 O24 1.883018 1_555
Co12 O21 1.883751 1_555
Co13 O31 1.882475 1_555
Co13 O30 1.882650 1_554
Co13 O4 1.882684 1_655
Co13 O25 1.882799 1_555
Co13 O24 1.883036 1_555
Co13 O19 1.883080 1_555
Co14 O22 1.881822 1_555
Co14 O26 1.881946 1_555
Co14 O28 1.882178 1_555
Co14 O1 1.883292 1_655
Co14 O27 1.883366 1_555
Co14 O29 1.883395 1_565
Co15 O30 1.882075 1_555
Co15 O2 1.882301 1_655
Co15 O26 1.882701 1_555
Co15 O31 1.882853 1_556
Co15 O23 1.882911 1_555
Co15 O28 1.883009 1_555
