# generated using pymatgen
data_K6MgV2(SO3)2
_symmetry_space_group_name_H-M   'P 1'
_cell_length_a   6.07181600
_cell_length_b   6.72357983
_cell_length_c   9.18541173
_cell_angle_alpha   106.68529972
_cell_angle_beta   90.00000000
_cell_angle_gamma   90.00000000
_symmetry_Int_Tables_number   1
_chemical_formula_structural   K6MgV2(SO3)2
_chemical_formula_sum   'K6 Mg1 V2 S2 O6'
_cell_volume   359.19992894
_cell_formula_units_Z   1
loop_
 _symmetry_equiv_pos_site_id
 _symmetry_equiv_pos_as_xyz
  1  'x, y, z'
loop_
 _atom_site_type_symbol
 _atom_site_label
 _atom_site_symmetry_multiplicity
 _atom_site_fract_x
 _atom_site_fract_y
 _atom_site_fract_z
 _atom_site_occupancy
  K  K0  1  0.75000000  0.32379249  0.45367687  1
  K  K1  1  0.25000000  0.68742066  0.08373139  1
  K  K2  1  0.25000000  0.66299882  0.47543749  1
  K  K3  1  0.75000000  0.25088745  0.00286547  1
  K  K4  1  0.25000000  0.27200207  0.71158050  1
  K  K5  1  0.75000000  0.78273597  0.28670963  1
  Mg  Mg0  1  0.25000000  0.83161472  0.81627468  1
  V  V0  1  0.75000000  0.74719039  0.81428025  1
  V  V1  1  0.25000000  0.25981699  0.18255225  1
  S  S0  1  0.75000000  0.98900928  0.67122055  1
  S  S1  1  0.25000000  0.06580029  0.35787161  1
  O  O0  1  0.25000000  0.09010640  0.97806690  1
  O  O1  1  0.75000000  0.84830523  0.00967668  1
  O  O2  1  0.01550275  0.61998658  0.74457283  1
  O  O3  1  0.01559013  0.42417305  0.22631203  1
  O  O4  1  0.48449725  0.61998658  0.74457283  1
  O  O5  1  0.48440987  0.42417305  0.22631203  1
loop_
_geom_bond_atom_site_label_1
_geom_bond_atom_site_label_2
_geom_bond_distance
_geom_bond_site_symmetry_2
K0 O5 2.868276 1_555
K0 O3 2.868276 1_655
K0 O2 3.263248 1_655
K0 O4 3.263248 1_555
K0 S0 3.412108 1_545
K0 S1 3.481888 1_555
K0 S1 3.481888 1_655
K1 O5 2.864412 1_555
K1 O3 2.864412 1_555
K1 Mg0 2.888423 1_554
K1 S1 3.022322 1_565
K1 O0 3.127535 1_564
K1 O4 3.335704 1_554
K1 O2 3.335704 1_554
K1 O1 3.357392 1_455
K1 O1 3.357392 1_555
K2 O5 2.780403 1_555
K2 O3 2.780403 1_555
K2 O2 2.938165 1_555
K2 O4 2.938165 1_555
K2 S1 3.190657 1_565
K3 O3 2.607176 1_655
K3 O5 2.607176 1_555
K3 O1 2.725416 1_545
K3 S0 3.049613 1_544
K3 O0 3.208713 1_554
K3 O0 3.208713 1_654
K4 O2 2.680702 1_555
K4 O4 2.680702 1_555
K4 O0 3.034204 1_555
K4 S1 3.145049 1_555
K4 S0 3.545346 1_545
K4 S0 3.545346 1_445
K5 O1 2.704414 1_555
K5 O5 2.819995 1_555
K5 O3 2.819995 1_655
K5 S0 3.403667 1_555
K5 S1 3.542856 1_565
K5 S1 3.542856 1_665
Mg0 O0 1.935464 1_565
Mg0 O4 1.986845 1_555
Mg0 O2 1.986845 1_555
S0 V0 2.365825 1_555
S1 V1 2.345486 1_555
O0 V1 1.897171 1_556
O1 V0 1.727085 1_554
O2 V0 1.850893 1_455
O3 V1 1.775789 1_555
O4 V0 1.850893 1_555
O5 V1 1.775789 1_555
