# generated using pymatgen
data_Na7La2Sc2SiP5O24
_symmetry_space_group_name_H-M   'P 1'
_cell_length_a   9.38969754
_cell_length_b   9.36045550
_cell_length_c   23.34473208
_cell_angle_alpha   89.86629989
_cell_angle_beta   90.10924564
_cell_angle_gamma   119.99589981
_symmetry_Int_Tables_number   1
_chemical_formula_structural   Na7La2Sc2SiP5O24
_chemical_formula_sum   'Na21 La6 Sc6 Si3 P15 O72'
_cell_volume   1776.98888923
_cell_formula_units_Z   3
loop_
 _symmetry_equiv_pos_site_id
 _symmetry_equiv_pos_as_xyz
  1  'x, y, z'
loop_
 _atom_site_type_symbol
 _atom_site_label
 _atom_site_symmetry_multiplicity
 _atom_site_fract_x
 _atom_site_fract_y
 _atom_site_fract_z
 _atom_site_occupancy
  Na  Na0  1  0.36590631  0.36975187  0.25269543  1
  Na  Na1  1  0.00309479  0.63381344  0.25043979  1
  Na  Na2  1  0.63396527  0.64645022  0.75088795  1
  Na  Na3  1  0.99882504  0.36166806  0.75607575  1
  Na  Na4  1  0.36515497  0.99085451  0.75069893  1
  Na  Na5  1  0.30372333  0.33211907  0.57757714  1
  Na  Na6  1  0.03929490  0.69741626  0.57904055  1
  Na  Na7  1  0.65404078  0.96479650  0.58354881  1
  Na  Na8  1  0.30119899  0.96768029  0.08375011  1
  Na  Na9  1  0.67321564  0.69652811  0.08278283  1
  Na  Na10  1  0.03002452  0.33983380  0.08533193  1
  Na  Na11  1  0.96503281  0.66492706  0.91980084  1
  Na  Na12  1  0.70113768  0.03308992  0.91516343  1
  Na  Na13  1  0.96788478  0.29723576  0.41287179  1
  Na  Na14  1  0.33031811  0.03241838  0.41600759  1
  Na  Na15  1  0.99461146  0.98806349  0.49846151  1
  Na  Na16  1  0.00945467  0.00602990  0.00457818  1
  Na  Na17  1  0.65675034  0.32819996  0.83172910  1
  Na  Na18  1  0.66650819  0.33275639  0.33191679  1
  Na  Na19  1  0.33960038  0.67796977  0.16730117  1
  Na  Na20  1  0.34086616  0.67793437  0.66644674  1
  La  La0  1  0.00927730  0.01180222  0.85334416  1
  La  La1  1  0.00020381  0.00042845  0.65625709  1
  La  La2  1  0.66395367  0.32536500  0.67576721  1
  La  La3  1  0.67095064  0.32511477  0.18401583  1
  La  La4  1  0.65866647  0.33743054  0.98545878  1
  La  La5  1  0.66287297  0.34156824  0.47843096  1
  Sc  Sc0  1  0.99006669  0.99301422  0.35067558  1
  Sc  Sc1  1  0.99530851  0.99390495  0.15386544  1
  Sc  Sc2  1  0.32996094  0.66270337  0.01705672  1
  Sc  Sc3  1  0.33849140  0.67241954  0.51134031  1
  Sc  Sc4  1  0.34354274  0.67392497  0.31513645  1
  Sc  Sc5  1  0.33718870  0.66701149  0.81896943  1
  Si  Si0  1  0.68266880  0.99427858  0.75289903  1
  Si  Si1  1  0.35349392  0.01390357  0.57927584  1
  Si  Si2  1  0.98176082  0.64942593  0.08408634  1
  P  P0  1  0.28021555  0.99235890  0.25375969  1
  P  P1  1  0.70592428  0.71392026  0.25144655  1
  P  P2  1  0.01082257  0.29480828  0.25352104  1
  P  P3  1  0.31261550  0.32020255  0.74947011  1
  P  P4  1  0.00657183  0.68845984  0.75350199  1
  P  P5  1  0.98529122  0.34304797  0.57896304  1
  P  P6  1  0.65807775  0.64334155  0.58312206  1
  P  P7  1  0.66790914  0.01839217  0.08073190  1
  P  P8  1  0.35009698  0.33110714  0.08752210  1
  P  P9  1  0.61922575  0.66613286  0.91731065  1
  P  P10  1  0.04462898  0.38252103  0.91810152  1
  P  P11  1  0.33586769  0.94805026  0.91775181  1
  P  P12  1  0.62860134  0.95130520  0.41429824  1
  P  P13  1  0.31995774  0.37060545  0.41220331  1
  P  P14  1  0.05473094  0.67642669  0.41193036  1
  O  O0  1  0.19034812  0.00907764  0.30675044  1
  O  O1  1  0.81919721  0.80875489  0.30223489  1
  O  O2  1  0.99483585  0.18943396  0.30686657  1
  O  O3  1  0.22306358  0.19352399  0.79742528  1
  O  O4  1  0.98093708  0.77714678  0.80482311  1
  O  O5  1  0.80661269  0.02653704  0.80692353  1
  O  O6  1  0.75964227  0.96384076  0.69407798  1
  O  O7  1  0.21763078  0.25221110  0.69248402  1
  O  O8  1  0.03590776  0.79096146  0.69795408  1
  O  O9  1  0.78645022  0.80809911  0.19499742  1
  O  O10  1  0.02109965  0.20721545  0.19852299  1
  O  O11  1  0.17795838  0.97428006  0.19870236  1
  O  O12  1  0.91505357  0.37372929  0.63484752  1
  O  O13  1  0.45981308  0.08734838  0.63870088  1
  O  O14  1  0.63221086  0.55027858  0.64054521  1
  O  O15  1  0.89967520  0.52343462  0.13882268  1
  O  O16  1  0.62233631  0.09775249  0.13020728  1
  O  O17  1  0.46179965  0.36916524  0.14088172  1
  O  O18  1  0.42646492  0.28620361  0.03695674  1
  O  O19  1  0.85974748  0.57179684  0.02820494  1
  O  O20  1  0.70506524  0.12687265  0.02640698  1
  O  O21  1  0.44586870  0.14123327  0.52610980  1
  O  O22  1  0.69334624  0.55168679  0.53555226  1
  O  O23  1  0.86836918  0.31561954  0.52827719  1
  O  O24  1  0.52590775  0.66729416  0.97153595  1
  O  O25  1  0.14159792  0.47606871  0.97211177  1
  O  O26  1  0.33338130  0.85176464  0.97199694  1
  O  O27  1  0.54876763  0.85858988  0.47090077  1
  O  O28  1  0.31032098  0.45665696  0.46772585  1
  O  O29  1  0.15493017  0.69378659  0.46739753  1
  O  O30  1  0.14645889  0.66122448  0.35929186  1
  O  O31  1  0.51471008  0.85558310  0.36378216  1
  O  O32  1  0.33530506  0.47730946  0.35938847  1
  O  O33  1  0.13493371  0.47446854  0.86292698  1
  O  O34  1  0.33945758  0.85774392  0.86285891  1
  O  O35  1  0.52520587  0.66289852  0.86246444  1
  O  O36  1  0.03850559  0.83423685  0.40878678  1
  O  O37  1  0.80595240  0.97886366  0.40936662  1
  O  O38  1  0.15911565  0.19659072  0.41008929  1
  O  O39  1  0.01469651  0.20405052  0.92145160  1
  O  O40  1  0.17553204  0.95739610  0.91984859  1
  O  O41  1  0.79174984  0.82719524  0.91917677  1
  O  O42  1  0.00205254  0.18704179  0.58344176  1
  O  O43  1  0.16830340  0.99028371  0.58273664  1
  O  O44  1  0.80801939  0.82019340  0.58424468  1
  O  O45  1  0.00014665  0.83293547  0.09404579  1
  O  O46  1  0.82498355  0.00759331  0.09326141  1
  O  O47  1  0.17460756  0.18044738  0.09564371  1
  O  O48  1  0.66264104  0.15885605  0.75045231  1
  O  O49  1  0.48943726  0.34862031  0.74753488  1
  O  O50  1  0.85125282  0.51591768  0.74914335  1
  O  O51  1  0.69166376  0.53938286  0.25054953  1
  O  O52  1  0.86253062  0.32612366  0.25293691  1
  O  O53  1  0.45006533  0.15347412  0.25107455  1
  O  O54  1  0.64925631  0.51747845  0.91495454  1
  O  O55  1  0.87255120  0.37149772  0.91705547  1
  O  O56  1  0.49483905  0.11939592  0.91660168  1
  O  O57  1  0.64372603  0.12609204  0.41421608  1
  O  O58  1  0.46763966  0.33889707  0.41157445  1
  O  O59  1  0.88539994  0.51500822  0.41340974  1
  O  O60  1  0.33642825  0.48731708  0.07585588  1
  O  O61  1  0.16592185  0.67015606  0.07559712  1
  O  O62  1  0.51855802  0.84145123  0.07386449  1
  O  O63  1  0.34244110  0.83393348  0.57124506  1
  O  O64  1  0.49827317  0.64907638  0.57209271  1
  O  O65  1  0.15706927  0.49721367  0.57050506  1
  O  O66  1  0.29581229  0.83408455  0.25703324  1
  O  O67  1  0.52848439  0.68630752  0.25656093  1
  O  O68  1  0.17166683  0.46910204  0.25581665  1
  O  O69  1  0.31836666  0.48595460  0.75976716  1
  O  O70  1  0.16072242  0.67008087  0.76036096  1
  O  O71  1  0.50095685  0.82761059  0.75939218  1
loop_
_geom_bond_atom_site_label_1
_geom_bond_atom_site_label_2
_geom_bond_distance
_geom_bond_site_symmetry_2
Na0 O68 2.427611 1_555
Na0 O53 2.514832 1_555
Na0 O67 2.568355 1_555
Na0 O51 2.650239 1_555
Na0 O32 2.757455 1_555
Na0 O17 2.763730 1_555
Na1 O66 2.437260 1_555
Na1 O52 2.497825 1_455
Na1 O51 2.597704 1_455
Na1 O68 2.708620 1_555
Na1 O15 2.792801 1_455
Na1 O30 2.824870 1_555
Na2 O49 2.416100 1_555
Na2 O71 2.568038 1_555
Na2 O69 2.575078 1_555
Na2 O14 2.727976 1_555
Na2 O35 2.832031 1_555
Na2 O50 2.854884 1_555
Na2 O6 2.908590 1_555
Na3 O50 2.455487 1_555
Na3 O70 2.503554 1_655
Na3 O69 2.621562 1_655
Na3 O48 2.755615 1_555
Na3 O33 2.760646 1_655
Na3 O12 2.952865 1_555
Na3 O5 2.972685 1_555
Na4 O48 2.425584 1_565
Na4 O71 2.438821 1_555
Na4 O70 2.643232 1_555
Na4 O13 2.763493 1_565
Na4 O34 2.855343 1_555
Na4 O49 2.945119 1_565
Na4 O8 2.964304 1_555
Na4 O3 3.019077 1_565
Na5 O42 2.457832 1_555
Na5 O65 2.537189 1_555
Na5 O64 2.595337 1_555
Na5 O43 2.792904 1_545
Na5 O7 2.793372 1_555
Na5 O28 2.802430 1_555
Na5 O21 2.969552 1_555
Na6 O43 2.381238 1_555
Na6 O63 2.476349 1_555
Na6 O65 2.617093 1_555
Na6 O29 2.832109 1_555
Na6 O8 2.917783 1_555
Na6 O44 2.923778 1_455
Na6 O12 2.948129 1_455
Na6 O22 3.001101 1_455
Na7 O44 2.424723 1_555
Na7 O63 2.560930 1_555
Na7 O64 2.573861 1_555
Na7 O6 2.764073 1_555
Na7 O27 2.810811 1_555
Na7 O42 2.865083 1_665
Na7 O13 2.899537 1_565
Na8 O61 2.422845 1_555
Na8 O45 2.464870 1_555
Na8 O47 2.797735 1_565
Na8 O18 2.819482 1_565
Na8 O62 2.833553 1_555
Na8 O16 2.841468 1_565
Na8 O26 2.901504 1_554
Na8 O11 2.937403 1_555
Na9 O62 2.441242 1_555
Na9 O46 2.534136 1_565
Na9 O45 2.683725 1_655
Na9 O60 2.769285 1_555
Na9 O9 2.824083 1_555
Na9 O19 2.848560 1_555
Na9 O24 2.888561 1_554
Na9 O17 3.013085 1_555
Na10 O47 2.479740 1_555
Na10 O60 2.502360 1_555
Na10 O61 2.700561 1_555
Na10 O46 2.724798 1_455
Na10 O15 2.851302 1_455
Na10 O25 2.892872 1_554
Na10 O10 2.900327 1_555
Na10 O20 3.015176 1_455
Na11 O55 2.432688 1_555
Na11 O40 2.447652 1_655
Na11 O54 2.572324 1_555
Na11 O19 2.697975 1_556
Na11 O41 2.724982 1_555
Na11 O4 2.856877 1_555
Na12 O56 2.443591 1_555
Na12 O41 2.466870 1_545
Na12 O39 2.557213 1_655
Na12 O5 2.727727 1_555
Na12 O20 2.737524 1_556
Na12 O55 2.743927 1_555
Na13 O38 2.409989 1_655
Na13 O59 2.516754 1_555
Na13 O37 2.582563 1_545
Na13 O57 2.637510 1_555
Na13 O2 2.734154 1_555
Na13 O23 2.886782 1_555
Na14 O36 2.427931 1_545
Na14 O58 2.490730 1_555
Na14 O57 2.617435 1_555
Na14 O38 2.726355 1_555
Na14 O21 2.778080 1_555
Na14 O0 2.825459 1_555
Na15 O43 2.546560 1_655
Na15 O44 2.606740 1_555
Na15 O36 2.690045 1_655
Na15 O42 2.701132 1_665
Na15 O37 2.702902 1_555
Na15 O38 2.725927 1_665
Na16 O45 2.615029 1_545
Na16 O47 2.657418 1_555
Na16 O39 2.663884 1_554
Na16 O40 2.697636 1_544
Na16 O46 2.706608 1_455
Na16 O41 2.744841 1_444
Na17 O48 2.493569 1_555
Na17 O49 2.579635 1_555
Na17 O50 2.632268 1_555
Na17 O54 2.657065 1_555
Na17 O56 2.660714 1_555
Na17 O55 2.721243 1_555
Na18 O52 2.630367 1_555
Na18 O51 2.632958 1_555
Na18 O57 2.655112 1_555
Na18 O58 2.658814 1_555
Na18 O53 2.664259 1_555
Na18 O59 2.692263 1_555
Na19 O61 2.667589 1_555
Na19 O66 2.703859 1_555
Na19 O67 2.709590 1_555
Na19 O62 2.711181 1_555
Na19 O68 2.736750 1_555
Na19 O60 2.776200 1_555
Na20 O71 2.612751 1_555
Na20 O63 2.652391 1_555
Na20 O64 2.742919 1_555
Na20 O70 2.749954 1_555
Na20 O69 2.761129 1_555
Na20 O65 2.817851 1_555
La0 O5 2.251334 1_455
La0 O3 2.283110 1_555
La0 O4 2.367365 1_445
La0 O39 2.385442 1_555
La0 O40 2.426653 1_545
La0 O41 2.447510 1_445
La1 O6 2.287294 1_445
La1 O8 2.356135 1_545
La1 O43 2.367926 1_545
La1 O7 2.372654 1_555
La1 O44 2.426192 1_445
La1 O42 2.428375 1_555
La2 O13 2.262590 1_555
La2 O48 2.331819 1_555
La2 O12 2.369764 1_555
La2 O14 2.411554 1_555
La2 O49 2.430713 1_555
La2 O50 2.464723 1_555
La3 O15 2.277003 1_555
La3 O16 2.313980 1_555
La3 O52 2.407655 1_555
La3 O17 2.416801 1_555
La3 O53 2.449991 1_555
La3 O51 2.469062 1_555
La4 O19 2.287976 1_556
La4 O18 2.321833 1_556
La4 O54 2.385904 1_555
La4 O20 2.415844 1_556
La4 O56 2.445872 1_555
La4 O55 2.460584 1_555
La5 O21 2.255127 1_555
La5 O22 2.275182 1_555
La5 O23 2.365366 1_555
La5 O58 2.395945 1_555
La5 O59 2.431949 1_555
La5 O57 2.449119 1_555
O0 P0 1.550408 1_545
O0 Sc0 2.081967 1_445
O1 P1 1.543067 1_555
O1 Sc0 2.015691 1_555
O2 P2 1.547005 1_655
O2 Sc0 2.082639 1_545
O3 P3 1.538451 1_555
O4 P4 1.545320 1_655
O5 Si0 1.637376 1_545
O6 Si0 1.643360 1_555
O7 P3 1.549882 1_555
O8 P4 1.552194 1_555
O9 P1 1.554775 1_555
O9 Sc1 2.093295 1_555
O10 P2 1.553865 1_555
O10 Sc1 2.158126 1_445
O11 P0 1.560894 1_555
O11 Sc1 2.092348 1_455
O12 P5 1.553656 1_555
O13 Si1 1.645198 1_555
O14 P6 1.548897 1_555
O15 Si2 1.644853 1_555
O16 P7 1.546823 1_555
O17 P8 1.549896 1_555
O18 P8 1.546347 1_555
O19 Si2 1.645818 1_555
O20 P7 1.550032 1_555
O21 Si1 1.636111 1_555
O22 P6 1.539109 1_555
O23 P5 1.544644 1_555
O24 P9 1.544070 1_555
O24 Sc2 2.108190 1_556
O25 P10 1.545681 1_555
O25 Sc2 2.047695 1_556
O26 P11 1.546029 1_555
O26 Sc2 2.043035 1_556
O27 P12 1.552117 1_555
O27 Sc3 2.094167 1_555
O28 P13 1.554095 1_555
O28 Sc3 2.158699 1_555
O29 P14 1.559403 1_555
O29 Sc3 2.097632 1_555
O30 P14 1.549035 1_555
O30 Sc4 2.070741 1_555
O31 P12 1.542469 1_555
O31 Sc4 2.008386 1_555
O32 P13 1.545814 1_555
O32 Sc4 2.075906 1_555
O33 P10 1.545338 1_555
O33 Sc5 2.117638 1_555
O34 P11 1.546458 1_555
O34 Sc5 2.051367 1_555
O35 P9 1.545567 1_555
O35 Sc5 2.051863 1_555
O36 P14 1.560486 1_555
O36 Sc0 2.218155 1_455
O37 P12 1.556921 1_555
O37 Sc0 2.159326 1_555
O38 P13 1.573815 1_555
O38 Sc0 2.248133 1_445
O39 P10 1.551098 1_555
O40 P11 1.551959 1_555
O41 P9 1.567520 1_555
O42 P5 1.548279 1_455
O43 Si1 1.641697 1_565
O44 P6 1.546921 1_555
O45 Si2 1.655195 1_455
O45 Sc1 2.073884 1_455
O46 P7 1.555098 1_555
O46 Sc1 2.184310 1_545
O47 P8 1.554477 1_555
O47 Sc1 2.188374 1_445
O48 Si0 1.643485 1_545
O49 P3 1.545329 1_555
O50 P4 1.546226 1_655
O51 P1 1.571280 1_555
O52 P2 1.559790 1_655
O53 P0 1.554633 1_545
O54 P9 1.552890 1_555
O55 P10 1.566870 1_655
O56 P11 1.551587 1_545
O57 P12 1.569907 1_545
O58 P13 1.556546 1_555
O59 P14 1.552437 1_655
O60 P8 1.553806 1_555
O60 Sc2 2.161451 1_555
O61 Si2 1.653101 1_455
O61 Sc2 2.088266 1_555
O62 P7 1.553541 1_565
O62 Sc2 2.175539 1_555
O63 Si1 1.646327 1_565
O63 Sc3 2.048499 1_555
O64 P6 1.549105 1_555
O64 Sc3 2.151348 1_555
O65 P5 1.547771 1_455
O65 Sc3 2.168917 1_555
O66 P0 1.561588 1_555
O66 Sc4 2.224452 1_555
O67 P1 1.557885 1_555
O67 Sc4 2.169321 1_555
O68 P2 1.575416 1_555
O68 Sc4 2.260117 1_555
O69 P3 1.544608 1_555
O69 Sc5 2.126994 1_555
O70 P4 1.548627 1_555
O70 Sc5 2.158031 1_555
O71 Si0 1.645113 1_555
O71 Sc5 2.060554 1_555
