# generated using pymatgen
data_Pu(FeSi)2
_symmetry_space_group_name_H-M   'P 1'
_cell_length_a   5.45525804
_cell_length_b   5.45525804
_cell_length_c   5.45525804
_cell_angle_alpha   137.91956548
_cell_angle_beta   137.91956548
_cell_angle_gamma   61.02621008
_symmetry_Int_Tables_number   1
_chemical_formula_structural   Pu(FeSi)2
_chemical_formula_sum   'Pu1 Fe2 Si2'
_cell_volume   72.11285428
_cell_formula_units_Z   1
loop_
 _symmetry_equiv_pos_site_id
 _symmetry_equiv_pos_as_xyz
  1  'x, y, z'
loop_
 _atom_site_type_symbol
 _atom_site_label
 _atom_site_symmetry_multiplicity
 _atom_site_fract_x
 _atom_site_fract_y
 _atom_site_fract_z
 _atom_site_occupancy
  Pu  Pu0  1  0.00000000  0.00000000  0.00000000  1
  Fe  Fe0  1  0.75000000  0.25000000  0.50000000  1
  Fe  Fe1  1  0.25000000  0.75000000  0.50000000  1
  Si  Si0  1  0.37143100  0.37143100  0.00000000  1
  Si  Si1  1  0.62856900  0.62856900  0.00000000  1
loop_
_geom_bond_atom_site_label_1
_geom_bond_atom_site_label_2
_geom_bond_distance
_geom_bond_site_symmetry_2
Pu0 Si0 3.021986 1_545
Pu0 Si0 3.021986 1_455
Pu0 Si0 3.021986 1_444
Pu0 Si0 3.021986 1_556
Pu0 Si1 3.021986 1_444
Pu0 Si1 3.021986 1_455
Pu0 Si1 3.021986 1_556
Pu0 Si1 3.021986 1_545
Fe0 Si1 2.266883 1_556
Fe0 Si1 2.266883 1_545
Fe0 Si0 2.266883 1_555
Fe0 Si0 2.266883 1_656
Fe0 Pu0 3.059076 1_655
Fe0 Pu0 3.059076 1_656
Fe0 Pu0 3.059076 1_555
Fe0 Pu0 3.059076 1_666
Fe1 Si1 2.266883 1_556
Fe1 Si1 2.266883 1_455
Fe1 Si0 2.266883 1_555
Fe1 Si0 2.266883 1_566
Fe1 Pu0 3.059076 1_565
Fe1 Pu0 3.059076 1_555
Fe1 Pu0 3.059076 1_566
Fe1 Pu0 3.059076 1_666
Si0 Si1 2.416982 1_555
