# generated using pymatgen
data_Ba(PdS2)2
_symmetry_space_group_name_H-M   'P 1'
_cell_length_a   6.76872747
_cell_length_b   6.82618445
_cell_length_c   7.29550679
_cell_angle_alpha   90.00000000
_cell_angle_beta   110.20556559
_cell_angle_gamma   90.00000000
_symmetry_Int_Tables_number   1
_chemical_formula_structural   Ba(PdS2)2
_chemical_formula_sum   'Ba2 Pd4 S8'
_cell_volume   316.34140400
_cell_formula_units_Z   2
loop_
 _symmetry_equiv_pos_site_id
 _symmetry_equiv_pos_as_xyz
  1  'x, y, z'
loop_
 _atom_site_type_symbol
 _atom_site_label
 _atom_site_symmetry_multiplicity
 _atom_site_fract_x
 _atom_site_fract_y
 _atom_site_fract_z
 _atom_site_occupancy
  Ba  Ba0  1  0.71680502  0.75000000  0.50648578  1
  Ba  Ba1  1  0.28319498  0.25000000  0.49351422  1
  Pd  Pd0  1  -0.00000000  0.00000000  -0.00000000  1
  Pd  Pd1  1  -0.00000000  0.50000000  -0.00000000  1
  Pd  Pd2  1  0.48320435  0.75000000  0.98935886  1
  Pd  Pd3  1  0.51679565  0.25000000  0.01064114  1
  S  S0  1  0.20484731  0.75000000  0.48809019  1
  S  S1  1  0.79515269  0.25000000  0.51190981  1
  S  S2  1  0.02517248  0.25000000  0.78839900  1
  S  S3  1  0.97482752  0.75000000  0.21160100  1
  S  S4  1  0.63281532  0.99553236  0.85740040  1
  S  S5  1  0.36718468  0.49553236  0.14259960  1
  S  S6  1  0.63281532  0.50446764  0.85740040  1
  S  S7  1  0.36718468  0.00446764  0.14259960  1
loop_
_geom_bond_atom_site_label_1
_geom_bond_atom_site_label_2
_geom_bond_distance
_geom_bond_site_symmetry_2
Ba0 S3 3.205290 1_555
Ba0 S6 3.269836 1_555
Ba0 S4 3.269836 1_555
Ba0 S0 3.352145 1_655
Ba0 S5 3.365329 1_555
Ba0 S7 3.365329 1_565
Ba0 S0 3.421268 1_555
Ba0 S1 3.452173 1_555
Ba0 S1 3.452173 1_565
Ba1 S2 3.205290 1_555
Ba1 S7 3.269836 1_555
Ba1 S5 3.269836 1_555
Ba1 S1 3.352145 1_455
Ba1 S4 3.365329 1_545
Ba1 S6 3.365329 1_555
Ba1 S1 3.421268 1_555
Ba1 S0 3.452173 1_555
Ba1 S0 3.452173 1_545
Pd0 S7 2.339704 1_555
Pd0 S4 2.339704 1_444
Pd0 S3 2.346519 1_445
Pd0 S2 2.346519 1_554
Pd1 S5 2.339704 1_555
Pd1 S6 2.339704 1_454
Pd1 S3 2.346519 1_455
Pd1 S2 2.346519 1_554
Pd2 S6 2.331287 1_555
Pd2 S4 2.331287 1_555
Pd2 S5 2.343148 1_556
Pd2 S7 2.343148 1_566
Pd3 S7 2.331287 1_555
Pd3 S5 2.331287 1_555
Pd3 S6 2.343148 1_554
Pd3 S4 2.343148 1_544
S0 S3 2.079290 1_455
S1 S2 2.079290 1_655
