# generated using pymatgen
data_Ba2ErMgRuO6
_symmetry_space_group_name_H-M   'P 1'
_cell_length_a   5.96504100
_cell_length_b   5.95837870
_cell_length_c   6.49550577
_cell_angle_alpha   62.69971906
_cell_angle_beta   63.27281352
_cell_angle_gamma   60.03694379
_symmetry_Int_Tables_number   1
_chemical_formula_structural   Ba2ErMgRuO6
_chemical_formula_sum   'Ba2 Er1 Mg1 Ru1 O6'
_cell_volume   170.27183060
_cell_formula_units_Z   1
loop_
 _symmetry_equiv_pos_site_id
 _symmetry_equiv_pos_as_xyz
  1  'x, y, z'
loop_
 _atom_site_type_symbol
 _atom_site_label
 _atom_site_symmetry_multiplicity
 _atom_site_fract_x
 _atom_site_fract_y
 _atom_site_fract_z
 _atom_site_occupancy
  Ba  Ba0  1  0.80644209  0.80691432  0.57972927  1
  Ba  Ba1  1  0.25639734  0.26173365  0.22013536  1
  Er  Er0  1  0.46741604  0.46948868  0.59360661  1
  Mg  Mg0  1  0.62874256  0.63894267  0.09337211  1
  Ru  Ru0  1  0.99731941  0.99680798  0.00906463  1
  O  O0  1  0.23215937  0.74601704  0.79564290  1
  O  O1  1  0.25168194  0.74536091  0.25759624  1
  O  O2  1  0.75137366  0.22887646  0.79087342  1
  O  O3  1  0.23215937  0.22618069  0.79564290  1
  O  O4  1  0.74544561  0.25605495  0.24987679  1
  O  O5  1  0.74544561  0.74862266  0.24987679  1
loop_
_geom_bond_atom_site_label_1
_geom_bond_atom_site_label_2
_geom_bond_distance
_geom_bond_site_symmetry_2
Ba0 O1 2.509730 1_655
Ba0 O5 2.520642 1_555
Ba0 O4 2.520642 1_565
Ba1 O3 2.931453 1_554
Ba1 O0 2.931453 1_554
Ba1 O4 2.982489 1_455
Ba1 O5 2.982489 1_455
Ba1 O1 2.986619 1_555
Ba1 O1 2.986619 1_545
Ba1 O4 2.991789 1_555
Ba1 O5 2.991789 1_545
Ba1 O2 3.008102 1_554
Er0 O2 2.099456 1_555
Er0 O3 2.103246 1_555
Er0 O0 2.103247 1_555
Er0 O1 2.498799 1_555
Er0 O5 2.553406 1_555
Er0 O4 2.553406 1_555
Mg0 O1 1.906978 1_555
Mg0 O5 1.909321 1_555
Mg0 O4 1.909321 1_555
O0 Ru0 2.044408 1_456
O1 Ru0 2.206080 1_455
O2 Ru0 2.029577 1_546
O3 Ru0 2.044408 1_446
O4 Ru0 2.207805 1_545
O5 Ru0 2.207805 1_555
