# generated using pymatgen
data_Cs(BH)3
_symmetry_space_group_name_H-M   'P 1'
_cell_length_a   6.87983644
_cell_length_b   6.87983644
_cell_length_c   6.87983644
_cell_angle_alpha   60.00000000
_cell_angle_beta   60.00000000
_cell_angle_gamma   60.00000000
_symmetry_Int_Tables_number   1
_chemical_formula_structural   Cs(BH)3
_chemical_formula_sum   'Cs2 B6 H6'
_cell_volume   230.26044661
_cell_formula_units_Z   2
loop_
 _symmetry_equiv_pos_site_id
 _symmetry_equiv_pos_as_xyz
  1  'x, y, z'
loop_
 _atom_site_type_symbol
 _atom_site_label
 _atom_site_symmetry_multiplicity
 _atom_site_fract_x
 _atom_site_fract_y
 _atom_site_fract_z
 _atom_site_occupancy
  Cs  Cs0  1  0.25000000  0.25000000  0.25000000  1
  Cs  Cs1  1  0.75000000  0.75000000  0.75000000  1
  B  B0  1  0.87426100  0.12573900  0.87426100  1
  B  B1  1  0.87426100  0.87426100  0.12573900  1
  B  B2  1  0.12573900  0.87426100  0.87426100  1
  B  B3  1  0.12573900  0.12573900  0.87426100  1
  B  B4  1  0.12573900  0.87426100  0.12573900  1
  B  B5  1  0.87426100  0.12573900  0.12573900  1
  H  H0  1  0.74991500  0.74991500  0.25008500  1
  H  H1  1  0.74991500  0.25008500  0.74991500  1
  H  H2  1  0.25008500  0.74991500  0.74991500  1
  H  H3  1  0.25008500  0.25008500  0.74991500  1
  H  H4  1  0.25008500  0.74991500  0.25008500  1
  H  H5  1  0.74991500  0.25008500  0.25008500  1
loop_
_geom_bond_atom_site_label_1
_geom_bond_atom_site_label_2
_geom_bond_distance
_geom_bond_site_symmetry_2
Cs0 H5 3.439918 1_555
Cs0 H4 3.439918 1_545
Cs0 H1 3.439918 1_554
Cs0 H4 3.439918 1_555
Cs0 H5 3.439918 1_455
Cs0 H2 3.439918 1_554
Cs0 H2 3.439918 1_545
Cs0 H3 3.439918 1_555
Cs0 H0 3.439918 1_455
Cs0 H0 3.439918 1_545
Cs0 H1 3.439918 1_455
Cs0 H3 3.439918 1_554
Cs1 H2 3.439918 1_655
Cs1 H1 3.439918 1_565
Cs1 H3 3.439918 1_655
Cs1 H4 3.439918 1_655
Cs1 H0 3.439918 1_556
Cs1 H3 3.439918 1_565
Cs1 H4 3.439918 1_556
Cs1 H5 3.439918 1_556
Cs1 H5 3.439918 1_565
Cs1 H1 3.439918 1_555
Cs1 H2 3.439918 1_555
Cs1 H0 3.439918 1_555
B0 H1 1.209832 1_555
B1 H0 1.209832 1_555
B2 H2 1.209832 1_555
B3 H3 1.209832 1_555
B4 H4 1.209832 1_555
B5 H5 1.209832 1_555
