# generated using pymatgen
data_Na2MgTi3P4(SO12)2
_symmetry_space_group_name_H-M   'P 1'
_cell_length_a   8.61070444
_cell_length_b   8.61163724
_cell_length_c   22.39112887
_cell_angle_alpha   89.93105783
_cell_angle_beta   89.95077004
_cell_angle_gamma   119.96563409
_symmetry_Int_Tables_number   1
_chemical_formula_structural   Na2MgTi3P4(SO12)2
_chemical_formula_sum   'Na6 Mg3 Ti9 P12 S6 O72'
_cell_volume   1438.40236692
_cell_formula_units_Z   3
loop_
 _symmetry_equiv_pos_site_id
 _symmetry_equiv_pos_as_xyz
  1  'x, y, z'
loop_
 _atom_site_type_symbol
 _atom_site_label
 _atom_site_symmetry_multiplicity
 _atom_site_fract_x
 _atom_site_fract_y
 _atom_site_fract_z
 _atom_site_occupancy
  Na  Na0  1  0.00009016  0.99774360  0.50333370  1
  Na  Na1  1  0.00234121  0.99908643  0.00122078  1
  Na  Na2  1  0.66596468  0.33124899  0.83248623  1
  Na  Na3  1  0.66717644  0.33272938  0.33530750  1
  Na  Na4  1  0.33183409  0.66538128  0.16789080  1
  Na  Na5  1  0.33609581  0.66705594  0.66551743  1
  Mg  Mg0  1  0.99848406  0.99987272  0.64642895  1
  Mg  Mg1  1  0.00363977  0.00027677  0.14646203  1
  Mg  Mg2  1  0.33254416  0.66654758  0.31656124  1
  Ti  Ti0  1  0.00157047  0.00080143  0.35985070  1
  Ti  Ti1  1  0.00237917  0.01055408  0.85228734  1
  Ti  Ti2  1  0.65039002  0.32401419  0.68495762  1
  Ti  Ti3  1  0.66887548  0.34342789  0.18506500  1
  Ti  Ti4  1  0.66337829  0.34007665  0.97865767  1
  Ti  Ti5  1  0.66053949  0.33697995  0.47937464  1
  Ti  Ti6  1  0.32594226  0.66020522  0.01842758  1
  Ti  Ti7  1  0.34061372  0.67299540  0.51794544  1
  Ti  Ti8  1  0.34104723  0.66866811  0.81320676  1
  P  P0  1  0.28668027  0.28918501  0.74871905  1
  P  P1  1  0.71236809  0.00167990  0.74859426  1
  P  P2  1  0.37382756  0.04202835  0.58190290  1
  P  P3  1  0.66777963  0.62421299  0.58291084  1
  P  P4  1  0.95568294  0.62401077  0.08235498  1
  P  P5  1  0.37582818  0.33287289  0.08264373  1
  P  P6  1  0.62294186  0.67034242  0.91697207  1
  P  P7  1  0.04407939  0.37928335  0.91584937  1
  P  P8  1  0.33247806  0.95412640  0.91653594  1
  P  P9  1  0.62002426  0.95792633  0.41517139  1
  P  P10  1  0.33506722  0.38252089  0.41578484  1
  P  P11  1  0.04493684  0.66242584  0.41600966  1
  S  S0  1  0.28898928  0.99833043  0.24944617  1
  S  S1  1  0.71060358  0.71408247  0.24946035  1
  S  S2  1  0.00122583  0.28938561  0.24925267  1
  S  S3  1  0.00022463  0.71085487  0.74988102  1
  S  S4  1  0.95453451  0.33380812  0.58297838  1
  S  S5  1  0.66662830  0.04548122  0.08296972  1
  O  O0  1  0.20846615  0.03164356  0.30359022  1
  O  O1  1  0.82290725  0.79087805  0.30345253  1
  O  O2  1  0.96851045  0.17630183  0.30357124  1
  O  O3  1  0.20211191  0.17141166  0.80632458  1
  O  O4  1  0.97003982  0.79169827  0.80456395  1
  O  O5  1  0.82924529  0.02877561  0.80619409  1
  O  O6  1  0.78802274  0.96263445  0.69451413  1
  O  O7  1  0.17541224  0.21068941  0.69428749  1
  O  O8  1  0.03372741  0.81862702  0.69679331  1
  O  O9  1  0.79149478  0.81854313  0.19580808  1
  O  O10  1  0.02610634  0.20787255  0.19590590  1
  O  O11  1  0.18200975  0.97273076  0.19626356  1
  O  O12  1  0.87299966  0.36473874  0.63738966  1
  O  O13  1  0.49744438  0.13103428  0.63861739  1
  O  O14  1  0.63605718  0.50001526  0.63871526  1
  O  O15  1  0.86622960  0.50014009  0.13860461  1
  O  O16  1  0.63507329  0.12711722  0.13731813  1
  O  O17  1  0.50004072  0.36417508  0.13840548  1
  O  O18  1  0.47132839  0.30739066  0.02771985  1
  O  O19  1  0.83634762  0.52665052  0.02768164  1
  O  O20  1  0.69422224  0.15608430  0.02924353  1
  O  O21  1  0.47232112  0.16255314  0.52799601  1
  O  O22  1  0.69183596  0.52877978  0.52789407  1
  O  O23  1  0.84439999  0.30706617  0.52933410  1
  O  O24  1  0.53402865  0.69742756  0.97269584  1
  O  O25  1  0.16257649  0.46418253  0.97233518  1
  O  O26  1  0.30346857  0.83588250  0.97269719  1
  O  O27  1  0.53856742  0.83810094  0.47228239  1
  O  O28  1  0.29990539  0.46227390  0.47276484  1
  O  O29  1  0.16294245  0.69953856  0.47274059  1
  O  O30  1  0.11997967  0.63119134  0.36016003  1
  O  O31  1  0.51109148  0.88008280  0.36015762  1
  O  O32  1  0.36947131  0.48929032  0.35990977  1
  O  O33  1  0.13114530  0.49676783  0.86111646  1
  O  O34  1  0.36453363  0.86757865  0.86137850  1
  O  O35  1  0.50394964  0.63408072  0.86147404  1
  O  O36  1  0.02286142  0.83358636  0.40822916  1
  O  O37  1  0.81112784  0.97640639  0.40822816  1
  O  O38  1  0.16614495  0.18896237  0.40856559  1
  O  O39  1  0.02606092  0.19182735  0.90957524  1
  O  O40  1  0.16521045  0.97324784  0.90885305  1
  O  O41  1  0.81019467  0.83364835  0.90877194  1
  O  O42  1  0.97331968  0.17524954  0.58883420  1
  O  O43  1  0.19348400  0.02645871  0.58923622  1
  O  O44  1  0.83176608  0.80608261  0.58878809  1
  O  O45  1  0.97192448  0.80512401  0.08922401  1
  O  O46  1  0.82503569  0.02653414  0.08981820  1
  O  O47  1  0.19362983  0.16932370  0.08924338  1
  O  O48  1  0.69164494  0.17035832  0.74375046  1
  O  O49  1  0.47853235  0.31164359  0.74399996  1
  O  O50  1  0.83971718  0.52929793  0.74440813  1
  O  O51  1  0.69398566  0.52888358  0.24298967  1
  O  O52  1  0.83392166  0.30509305  0.24276087  1
  O  O53  1  0.47207759  0.16460948  0.24262899  1
  O  O54  1  0.64054057  0.50008388  0.92446549  1
  O  O55  1  0.85728309  0.35699322  0.92547211  1
  O  O56  1  0.50080755  0.14053236  0.92555302  1
  O  O57  1  0.64966572  0.14638861  0.42708889  1
  O  O58  1  0.49631445  0.35189476  0.42595077  1
  O  O59  1  0.85510784  0.50202977  0.42701033  1
  O  O60  1  0.36630406  0.50665003  0.07545547  1
  O  O61  1  0.14105833  0.63657148  0.07540950  1
  O  O62  1  0.50306079  0.86652523  0.07689596  1
  O  O63  1  0.36301837  0.85750624  0.57556004  1
  O  O64  1  0.49336100  0.63387755  0.57542635  1
  O  O65  1  0.13387474  0.49771384  0.57678937  1
  O  O66  1  0.31253359  0.84231158  0.25634347  1
  O  O67  1  0.52984575  0.68707292  0.25612811  1
  O  O68  1  0.15697235  0.46914794  0.25607924  1
  O  O69  1  0.31184133  0.47835355  0.76061854  1
  O  O70  1  0.16090389  0.68977356  0.75871053  1
  O  O71  1  0.52204599  0.83606356  0.76081752  1
loop_
_geom_bond_atom_site_label_1
_geom_bond_atom_site_label_2
_geom_bond_distance
_geom_bond_site_symmetry_2
Na0 O44 2.466574 1_455
Na0 O43 2.475721 1_565
Na0 O42 2.532433 1_465
Na0 O36 2.618220 1_555
Na0 O38 2.625477 1_565
Na0 O37 2.631407 1_455
Na1 O45 2.509107 1_455
Na1 O47 2.519348 1_565
Na1 O40 2.569372 1_554
Na1 O39 2.580703 1_564
Na1 O46 2.584304 1_465
Na1 O41 2.590457 1_454
Na2 O48 2.495650 1_555
Na2 O49 2.508572 1_555
Na2 O50 2.544498 1_555
Na2 O56 2.591485 1_555
Na2 O54 2.593819 1_555
Na2 O55 2.596182 1_555
Na3 O58 2.559167 1_555
Na3 O57 2.563398 1_555
Na3 O59 2.572257 1_555
Na3 O52 2.598016 1_555
Na3 O51 2.604008 1_555
Na3 O53 2.609252 1_555
Na4 O68 2.543044 1_555
Na4 O66 2.555662 1_555
Na4 O67 2.556172 1_555
Na4 O61 2.578383 1_555
Na4 O60 2.579041 1_555
Na4 O62 2.600128 1_555
Na5 O64 2.523462 1_555
Na5 O63 2.532244 1_555
Na5 O65 2.565539 1_555
Na5 O69 2.621196 1_555
Na5 O71 2.630744 1_555
Na5 O70 2.637920 1_555
Mg0 O6 1.990350 1_555
Mg0 O7 2.002449 1_665
Mg0 O43 2.030587 1_665
Mg0 O44 2.031447 1_555
Mg0 O8 2.066283 1_655
Mg0 O42 2.076946 1_565
Mg1 O11 2.006234 1_545
Mg1 O47 2.012427 1_555
Mg1 O45 2.022081 1_445
Mg1 O10 2.029474 1_555
Mg1 O9 2.035563 1_445
Mg1 O46 2.091643 1_455
Mg2 O30 1.958401 1_555
Mg2 O32 1.963459 1_555
Mg2 O31 1.969968 1_555
Mg2 O66 2.096372 1_555
Mg2 O67 2.108097 1_555
Mg2 O68 2.109763 1_555
O0 S0 1.493630 1_545
O0 Ti0 2.086610 1_555
O1 S1 1.482939 1_555
O1 Ti0 2.111899 1_665
O2 S2 1.493152 1_655
O2 Ti0 2.092613 1_655
O3 P0 1.574829 1_555
O3 Ti1 1.884018 1_555
O4 S3 1.494554 1_655
O4 Ti1 2.062185 1_665
O5 P1 1.580834 1_555
O5 Ti1 1.883681 1_655
O6 P1 1.490701 1_565
O7 P0 1.489073 1_555
O8 S3 1.444600 1_555
O9 S1 1.451767 1_555
O10 S2 1.455085 1_555
O11 S0 1.454254 1_555
O12 S4 1.494760 1_555
O12 Ti2 2.062936 1_555
O13 P2 1.588333 1_555
O13 Ti2 1.842010 1_555
O14 P3 1.576135 1_555
O14 Ti2 1.888874 1_555
O15 P4 1.578552 1_555
O15 Ti3 1.869204 1_555
O16 S5 1.497088 1_555
O16 Ti3 2.039949 1_555
O17 P5 1.578174 1_555
O17 Ti3 1.870447 1_555
O18 P5 1.554341 1_555
O18 Ti4 1.884641 1_554
O19 P4 1.549676 1_555
O19 Ti4 1.902962 1_554
O20 S5 1.476998 1_555
O20 Ti4 2.068968 1_554
O21 P2 1.539273 1_555
O21 Ti5 1.905075 1_555
O22 P3 1.551750 1_555
O22 Ti5 1.881813 1_555
O23 S4 1.476349 1_555
O23 Ti5 2.057649 1_555
O24 P6 1.541040 1_555
O24 Ti6 1.945263 1_556
O25 P7 1.560299 1_555
O25 Ti6 1.878320 1_556
O26 P8 1.556568 1_555
O26 Ti6 1.914099 1_556
O27 P9 1.569812 1_555
O27 Ti7 1.882784 1_555
O28 P10 1.549298 1_555
O28 Ti7 1.951634 1_555
O29 P11 1.557881 1_555
O29 Ti7 1.941322 1_555
O30 P11 1.492239 1_555
O31 P9 1.490779 1_555
O32 P10 1.490948 1_555
O33 P7 1.524897 1_555
O33 Ti8 1.982163 1_555
O34 P8 1.537577 1_555
O34 Ti8 1.948657 1_555
O35 P6 1.541118 1_555
O35 Ti8 1.908804 1_555
O36 P11 1.586948 1_555
O36 Ti0 1.881736 1_565
O37 P9 1.579615 1_555
O37 Ti0 1.886495 1_665
O38 P10 1.580914 1_555
O38 Ti0 1.880599 1_555
O39 P7 1.549246 1_555
O39 Ti1 1.952226 1_555
O40 P8 1.538970 1_555
O40 Ti1 2.031090 1_565
O41 P6 1.531317 1_555
O41 Ti1 2.032811 1_665
O42 S4 1.458784 1_555
O43 P2 1.499302 1_555
O44 P3 1.501907 1_555
O45 P4 1.502844 1_555
O46 S5 1.460567 1_555
O47 P5 1.502861 1_555
O48 P1 1.553136 1_555
O48 Ti2 2.018988 1_555
O49 P0 1.567831 1_555
O49 Ti2 1.946219 1_555
O50 S3 1.487218 1_655
O50 Ti2 2.164556 1_555
O51 S1 1.535474 1_555
O51 Ti3 1.984974 1_555
O52 S2 1.519786 1_655
O52 Ti3 2.066019 1_555
O53 S0 1.517592 1_545
O53 Ti3 2.070970 1_555
O54 P6 1.556367 1_555
O54 Ti4 1.917503 1_555
O55 P7 1.536637 1_655
O55 Ti4 1.995086 1_555
O56 P8 1.547730 1_545
O56 Ti4 1.982714 1_555
O57 P9 1.535491 1_545
O57 Ti5 1.981051 1_555
O58 P10 1.554150 1_555
O58 Ti5 1.905538 1_555
O59 P11 1.543839 1_655
O59 Ti5 1.953368 1_555
O60 P5 1.547321 1_555
O60 Ti6 1.988906 1_555
O61 P4 1.552686 1_455
O61 Ti6 1.968739 1_555
O62 S5 1.486515 1_565
O62 Ti6 2.121050 1_555
O63 P2 1.551352 1_565
O63 Ti7 1.981246 1_555
O64 P3 1.554311 1_555
O64 Ti7 1.986051 1_555
O65 S4 1.489278 1_455
O65 Ti7 2.119050 1_555
O66 S0 1.463493 1_555
O67 S1 1.461781 1_555
O68 S2 1.464699 1_555
O69 P0 1.555734 1_555
O69 Ti8 1.931127 1_555
O70 S3 1.495857 1_555
O70 Ti8 2.052426 1_555
O71 P1 1.567842 1_565
O71 Ti8 1.905664 1_555
