# generated using pymatgen
data_Na6Zn2Si5Sn6S7O48
_symmetry_space_group_name_H-M   'P 1'
_cell_length_a   17.73416442
_cell_length_b   8.94668065
_cell_length_c   22.94493677
_cell_angle_alpha   89.83003910
_cell_angle_beta   89.73390922
_cell_angle_gamma   120.27083714
_symmetry_Int_Tables_number   1
_chemical_formula_structural   Na6Zn2Si5Sn6S7O48
_chemical_formula_sum   'Na18 Zn6 Si15 Sn18 S21 O144'
_cell_volume   3144.02180453
_cell_formula_units_Z   3
loop_
 _symmetry_equiv_pos_site_id
 _symmetry_equiv_pos_as_xyz
  1  'x, y, z'
loop_
 _atom_site_type_symbol
 _atom_site_label
 _atom_site_symmetry_multiplicity
 _atom_site_fract_x
 _atom_site_fract_y
 _atom_site_fract_z
 _atom_site_occupancy
  Na  Na0  1  0.65448373  0.35086431  0.57957961  1
  Na  Na1  1  0.51915508  0.68785763  0.58421382  1
  Na  Na2  1  0.82477798  0.95835123  0.58221694  1
  Na  Na3  1  0.15313983  0.95694216  0.08412137  1
  Na  Na4  1  0.32285654  0.68974989  0.08774257  1
  Na  Na5  1  0.01875386  0.35248153  0.08931596  1
  Na  Na6  1  0.00821899  0.98888931  0.49591857  1
  Na  Na7  1  0.48944131  0.00932344  0.49924295  1
  Na  Na8  1  0.99144501  0.97258212  0.00199476  1
  Na  Na9  1  0.50586795  0.01098084  0.00058688  1
  Na  Na10  1  0.32440368  0.31660609  0.81960927  1
  Na  Na11  1  0.82807829  0.33342595  0.83190538  1
  Na  Na12  1  0.32462209  0.32089125  0.33391106  1
  Na  Na13  1  0.83498639  0.34561781  0.32439703  1
  Na  Na14  1  0.16330614  0.66477770  0.16204584  1
  Na  Na15  1  0.67604418  0.68449877  0.17362231  1
  Na  Na16  1  0.17429449  0.66565198  0.66813824  1
  Na  Na17  1  0.66538134  0.66354712  0.65625449  1
  Zn  Zn0  1  0.33173315  0.30931681  0.69038097  1
  Zn  Zn1  1  0.82647715  0.33360110  0.67361395  1
  Zn  Zn2  1  0.32339980  0.31505061  0.17921169  1
  Zn  Zn3  1  0.83507526  0.35640685  0.19374036  1
  Zn  Zn4  1  0.16508083  0.66886971  0.02592819  1
  Zn  Zn5  1  0.66660899  0.66450644  0.52425395  1
  Si  Si0  1  0.64816074  0.00593645  0.24941663  1
  Si  Si1  1  0.85483164  0.71043405  0.25323398  1
  Si  Si2  1  0.14801555  0.28974334  0.74943108  1
  Si  Si3  1  0.35662230  0.00234539  0.75382665  1
  Si  Si4  1  0.47292119  0.33423618  0.58536769  1
  Si  Si5  1  0.68808956  0.04407778  0.58545294  1
  Si  Si6  1  0.83829959  0.63564460  0.58708445  1
  Si  Si7  1  0.97222684  0.61426712  0.08554913  1
  Si  Si8  1  0.33978414  0.04410901  0.08511191  1
  Si  Si9  1  0.18580860  0.33172581  0.08635000  1
  Si  Si10  1  0.81623338  0.67009655  0.91347028  1
  Si  Si11  1  0.66545675  0.96323371  0.91709239  1
  Si  Si12  1  0.31648581  0.96058175  0.41329926  1
  Si  Si13  1  0.16708681  0.37117373  0.41687670  1
  Si  Si14  1  0.01554252  0.65820988  0.41767756  1
  Sn  Sn0  1  0.00190770  0.99195126  0.35645048  1
  Sn  Sn1  1  0.50090486  0.00089916  0.35076955  1
  Sn  Sn2  1  0.00113606  0.00016189  0.85042128  1
  Sn  Sn3  1  0.50191921  0.99806054  0.85180930  1
  Sn  Sn4  1  0.00536287  0.00241838  0.64853802  1
  Sn  Sn5  1  0.49359853  0.00498163  0.64595037  1
  Sn  Sn6  1  0.99494380  0.98351105  0.14964695  1
  Sn  Sn7  1  0.50314577  0.00954649  0.15166328  1
  Sn  Sn8  1  0.32917044  0.31495672  0.98727379  1
  Sn  Sn9  1  0.83124989  0.34508104  0.97813674  1
  Sn  Sn10  1  0.33037427  0.31486564  0.47729751  1
  Sn  Sn11  1  0.83409981  0.35264625  0.48420202  1
  Sn  Sn12  1  0.67258669  0.68103299  0.01351802  1
  Sn  Sn13  1  0.16848843  0.66697870  0.50962328  1
  Sn  Sn14  1  0.16450148  0.65964949  0.32121905  1
  Sn  Sn15  1  0.67144135  0.68291347  0.31272211  1
  Sn  Sn16  1  0.17040410  0.65901423  0.81153532  1
  Sn  Sn17  1  0.67131809  0.67941304  0.81667658  1
  S  S0  1  0.15083855  0.99582971  0.25101424  1
  S  S1  1  0.34918967  0.69985827  0.24935971  1
  S  S2  1  0.00559847  0.29483165  0.25066225  1
  S  S3  1  0.49706732  0.29782095  0.25174840  1
  S  S4  1  0.64987236  0.30511101  0.75210213  1
  S  S5  1  0.99727377  0.69865426  0.75213983  1
  S  S6  1  0.50462733  0.70847676  0.75037002  1
  S  S7  1  0.85110699  0.00230138  0.74919793  1
  S  S8  1  0.98483886  0.34078282  0.58493741  1
  S  S9  1  0.18564739  0.02776107  0.58312020  1
  S  S10  1  0.32786804  0.61909777  0.58310221  1
  S  S11  1  0.48392712  0.62623806  0.08272389  1
  S  S12  1  0.82928310  0.03978298  0.08313096  1
  S  S13  1  0.68380070  0.34106357  0.08149620  1
  S  S14  1  0.31420773  0.65763174  0.92026477  1
  S  S15  1  0.02228015  0.37612554  0.91697223  1
  S  S16  1  0.51709536  0.37455359  0.91742948  1
  S  S17  1  0.16885827  0.95910013  0.91663453  1
  S  S18  1  0.81176979  0.96487404  0.42003396  1
  S  S19  1  0.66593486  0.37710345  0.41625961  1
  S  S20  1  0.52242805  0.66781176  0.41692576  1
  O  O0  1  0.10617234  0.01478806  0.30248179  1
  O  O1  1  0.60222591  0.03959537  0.30696145  1
  O  O2  1  0.40380748  0.79341046  0.30066295  1
  O  O3  1  0.91197710  0.81313108  0.30961704  1
  O  O4  1  0.48208078  0.18449039  0.30335864  1
  O  O5  1  0.00151481  0.19128592  0.30210835  1
  O  O6  1  0.10419445  0.16842247  0.80864966  1
  O  O7  1  0.60675479  0.19916828  0.80577171  1
  O  O8  1  0.49935371  0.79759223  0.80428188  1
  O  O9  1  0.98244310  0.77940175  0.80492460  1
  O  O10  1  0.41309777  0.02293629  0.81336048  1
  O  O11  1  0.90147498  0.01162222  0.80259930  1
  O  O12  1  0.39621008  0.94885207  0.69761604  1
  O  O13  1  0.89120714  0.97652923  0.69552176  1
  O  O14  1  0.08282503  0.20302801  0.69313499  1
  O  O15  1  0.59807140  0.22242129  0.69854153  1
  O  O16  1  0.01213873  0.80737172  0.69902573  1
  O  O17  1  0.52099663  0.81688137  0.69708404  1
  O  O18  1  0.38831376  0.80553603  0.19390487  1
  O  O19  1  0.89020340  0.83331926  0.19373085  1
  O  O20  1  0.01940948  0.22076563  0.19467224  1
  O  O21  1  0.51315411  0.22199539  0.19765873  1
  O  O22  1  0.10111945  0.97692014  0.19557634  1
  O  O23  1  0.58383153  0.96131043  0.19133013  1
  O  O24  1  0.43042928  0.37945830  0.63910866  1
  O  O25  1  0.94644753  0.36153754  0.63814315  1
  O  O26  1  0.23457870  0.10776957  0.63557214  1
  O  O27  1  0.75138363  0.11425386  0.64090387  1
  O  O28  1  0.31491260  0.52220927  0.63629337  1
  O  O29  1  0.81983649  0.52233673  0.64488831  1
  O  O30  1  0.44543170  0.52693782  0.13522912  1
  O  O31  1  0.92824244  0.47687702  0.13734957  1
  O  O32  1  0.32109804  0.12673910  0.14035245  1
  O  O33  1  0.81534633  0.11123220  0.13552734  1
  O  O34  1  0.25463066  0.38981705  0.13832366  1
  O  O35  1  0.73490389  0.36766401  0.13346022  1
  O  O36  1  0.22075460  0.27167898  0.02680459  1
  O  O37  1  0.71940046  0.31077656  0.02660992  1
  O  O38  1  0.42897574  0.54921344  0.02839125  1
  O  O39  1  0.91863320  0.53964232  0.02306389  1
  O  O40  1  0.36555295  0.16279917  0.02402167  1
  O  O41  1  0.83873402  0.13793298  0.02808982  1
  O  O42  1  0.22128848  0.12977077  0.52845384  1
  O  O43  1  0.72735589  0.17800136  0.52775576  1
  O  O44  1  0.34048273  0.54091223  0.52934336  1
  O  O45  1  0.86095396  0.56315687  0.52786823  1
  O  O46  1  0.41844030  0.30360261  0.52404039  1
  O  O47  1  0.92920330  0.30742130  0.53203556  1
  O  O48  1  0.27441905  0.67934514  0.97218630  1
  O  O49  1  0.77507502  0.70167258  0.97301742  1
  O  O50  1  0.07206634  0.45366992  0.96940700  1
  O  O51  1  0.57030104  0.45446331  0.97028331  1
  O  O52  1  0.16094148  0.86655686  0.97025691  1
  O  O53  1  0.64072917  0.83691614  0.97409321  1
  O  O54  1  0.27822785  0.85051911  0.47383955  1
  O  O55  1  0.77236839  0.85782266  0.47175552  1
  O  O56  1  0.14717500  0.44719319  0.47564479  1
  O  O57  1  0.65701250  0.45324708  0.47004993  1
  O  O58  1  0.07439291  0.69420385  0.47616508  1
  O  O59  1  0.57188132  0.68937023  0.46964920  1
  O  O60  1  0.05746915  0.62972274  0.35804002  1
  O  O61  1  0.56286282  0.63982165  0.36350501  1
  O  O62  1  0.25818236  0.87568186  0.35536255  1
  O  O63  1  0.75890879  0.88606384  0.36588796  1
  O  O64  1  0.18841118  0.48838526  0.35797437  1
  O  O65  1  0.67396333  0.48072401  0.36293143  1
  O  O66  1  0.06278417  0.48659533  0.86336587  1
  O  O67  1  0.55770661  0.47729343  0.86363032  1
  O  O68  1  0.17736267  0.87309074  0.86321557  1
  O  O69  1  0.68040745  0.88045891  0.85798624  1
  O  O70  1  0.26179942  0.63011309  0.86605682  1
  O  O71  1  0.75438610  0.63322924  0.85662619  1
  O  O72  1  0.00405568  0.82812748  0.41466716  1
  O  O73  1  0.51556223  0.82737660  0.40978848  1
  O  O74  1  0.41417680  0.97712938  0.40892550  1
  O  O75  1  0.90048936  0.98895899  0.41261964  1
  O  O76  1  0.07974268  0.17942124  0.40993597  1
  O  O77  1  0.58573120  0.20072956  0.41157430  1
  O  O78  1  0.01489700  0.20263134  0.90962316  1
  O  O79  1  0.50672917  0.19944539  0.91389021  1
  O  O80  1  0.08964699  0.97821437  0.91194891  1
  O  O81  1  0.57993891  0.99151240  0.91129811  1
  O  O82  1  0.40306331  0.81602791  0.91317810  1
  O  O83  1  0.91314000  0.84935777  0.90878680  1
  O  O84  1  0.48569028  0.16157089  0.58796996  1
  O  O85  1  0.99166838  0.17839949  0.58756710  1
  O  O86  1  0.09520068  0.00588138  0.58645679  1
  O  O87  1  0.58887076  0.02434429  0.59308976  1
  O  O88  1  0.41349227  0.79430372  0.58543916  1
  O  O89  1  0.92232695  0.84056817  0.59175040  1
  O  O90  1  0.49300890  0.80262878  0.08483417  1
  O  O91  1  0.98596157  0.81279566  0.08928096  1
  O  O92  1  0.42336428  0.00535734  0.09090743  1
  O  O93  1  0.91265010  0.03247532  0.08478993  1
  O  O94  1  0.08726814  0.15534022  0.09403223  1
  O  O95  1  0.59409821  0.18256966  0.08605755  1
  O  O96  1  0.35115618  0.17300310  0.75006562  1
  O  O97  1  0.84330430  0.15557851  0.74711817  1
  O  O98  1  0.24385995  0.32007138  0.74234924  1
  O  O99  1  0.73673163  0.32830538  0.74953761  1
  O  O100  1  0.42650162  0.54136066  0.74838185  1
  O  O101  1  0.92272194  0.52491621  0.74725484  1
  O  O102  1  0.34363198  0.53251218  0.24623505  1
  O  O103  1  0.85026215  0.52916496  0.25055841  1
  O  O104  1  0.42174515  0.32001672  0.24575191  1
  O  O105  1  0.92709737  0.30572886  0.24831689  1
  O  O106  1  0.23770583  0.15031167  0.24829227  1
  O  O107  1  0.74377348  0.16752557  0.24209919  1
  O  O108  1  0.32648879  0.50222112  0.92382996  1
  O  O109  1  0.82689995  0.49998818  0.91635933  1
  O  O110  1  0.43004650  0.36292539  0.92170404  1
  O  O111  1  0.93246533  0.34962497  0.91882049  1
  O  O112  1  0.24990331  0.13861804  0.91644739  1
  O  O113  1  0.75410975  0.15028416  0.92516142  1
  O  O114  1  0.32872352  0.15378595  0.41628223  1
  O  O115  1  0.81843060  0.13689445  0.42448568  1
  O  O116  1  0.25505860  0.35554587  0.42418663  1
  O  O117  1  0.74482647  0.35768420  0.41648705  1
  O  O118  1  0.43276611  0.51527802  0.41899132  1
  O  O119  1  0.91985245  0.47770467  0.42139712  1
  O  O120  1  0.17061982  0.49217682  0.07525185  1
  O  O121  1  0.67121191  0.49538952  0.07398721  1
  O  O122  1  0.07199601  0.65175384  0.07840190  1
  O  O123  1  0.57212949  0.64261829  0.07537030  1
  O  O124  1  0.25504856  0.85411396  0.07594467  1
  O  O125  1  0.75213401  0.85556731  0.07835270  1
  O  O126  1  0.17618470  0.85236601  0.57777247  1
  O  O127  1  0.67069831  0.85179233  0.57434897  1
  O  O128  1  0.25277242  0.65161340  0.57707557  1
  O  O129  1  0.75357436  0.65743841  0.57820405  1
  O  O130  1  0.07384226  0.49541349  0.57831996  1
  O  O131  1  0.57262536  0.49527544  0.57801718  1
  O  O132  1  0.15508446  0.83277601  0.25400673  1
  O  O133  1  0.64430597  0.81797228  0.25666293  1
  O  O134  1  0.26200099  0.68724694  0.25294534  1
  O  O135  1  0.75565949  0.68615271  0.25671867  1
  O  O136  1  0.08704836  0.47272614  0.25284290  1
  O  O137  1  0.57945613  0.46627600  0.25832991  1
  O  O138  1  0.14489230  0.47112989  0.75625984  1
  O  O139  1  0.65069365  0.47489807  0.75622799  1
  O  O140  1  0.08081228  0.69719856  0.75874944  1
  O  O141  1  0.58558218  0.69121011  0.75473944  1
  O  O142  1  0.25839638  0.82654972  0.75783689  1
  O  O143  1  0.76269803  0.83795031  0.75170370  1
loop_
_geom_bond_atom_site_label_1
_geom_bond_atom_site_label_2
_geom_bond_distance
_geom_bond_site_symmetry_2
Na0 O131 2.380983 1_555
Na0 O129 2.398283 1_555
Na0 O87 2.558941 1_555
Na0 O84 2.597586 1_555
Na0 O57 2.664743 1_555
Na0 O43 2.736329 1_555
Na0 O15 2.927276 1_555
Na0 O29 2.952456 1_555
Na1 O127 2.333122 1_555
Na1 O131 2.352742 1_555
Na1 O88 2.493555 1_555
Na1 O87 2.624189 1_565
Na1 O24 2.694299 1_555
Na1 O59 2.783642 1_555
Na1 O17 2.832160 1_555
Na2 O129 2.329382 1_555
Na2 O127 2.405657 1_555
Na2 O89 2.447655 1_555
Na2 O85 2.604022 1_565
Na2 O27 2.697786 1_565
Na2 O55 2.699861 1_555
Na2 O13 2.830353 1_555
Na2 O47 2.938805 1_565
Na3 O122 2.363436 1_555
Na3 O124 2.412853 1_555
Na3 O91 2.570627 1_455
Na3 O94 2.580194 1_565
Na3 O22 2.751360 1_555
Na3 O52 2.760575 1_554
Na3 O36 2.766896 1_565
Na3 O32 2.886160 1_565
Na4 O124 2.337771 1_555
Na4 O120 2.386307 1_555
Na4 O92 2.466494 1_565
Na4 O34 2.589736 1_555
Na4 O90 2.656155 1_555
Na4 O18 2.680123 1_555
Na4 O48 2.778243 1_554
Na5 O120 2.348527 1_555
Na5 O122 2.359716 1_555
Na5 O93 2.514063 1_455
Na5 O94 2.599913 1_555
Na5 O31 2.611827 1_455
Na5 O20 2.688824 1_555
Na5 O50 2.895041 1_554
Na6 O72 2.336640 1_555
Na6 O76 2.486721 1_565
Na6 O86 2.552126 1_565
Na6 O89 2.613392 1_455
Na6 O75 2.708898 1_455
Na6 O85 2.810697 1_465
Na7 O74 2.408467 1_545
Na7 O84 2.472031 1_555
Na7 O88 2.601311 1_545
Na7 O77 2.625705 1_555
Na7 O87 2.749928 1_555
Na7 O73 2.801512 1_545
Na8 O91 2.430074 1_555
Na8 O83 2.493141 1_554
Na8 O93 2.566125 1_565
Na8 O80 2.679871 1_654
Na8 O94 2.696936 1_665
Na8 O78 2.829154 1_664
Na9 O81 2.482118 1_544
Na9 O95 2.505118 1_555
Na9 O92 2.516969 1_555
Na9 O79 2.598893 1_554
Na9 O90 2.609476 1_545
Na9 O82 2.690214 1_544
Na10 O96 2.245340 1_555
Na10 O98 2.291641 1_555
Na10 O100 2.505015 1_555
Na10 O112 2.654997 1_555
Na10 O110 2.903973 1_555
Na10 O108 2.905177 1_555
Na11 O109 2.454435 1_555
Na11 O99 2.480383 1_555
Na11 O101 2.564312 1_555
Na11 O113 2.601963 1_555
Na11 O97 2.614578 1_555
Na11 O111 2.681531 1_555
Na12 O114 2.430366 1_555
Na12 O106 2.497716 1_555
Na12 O116 2.504849 1_555
Na12 O104 2.653257 1_555
Na12 O102 2.659489 1_555
Na12 O118 2.684376 1_555
Na13 O103 2.274012 1_555
Na13 O107 2.483714 1_555
Na13 O105 2.531395 1_555
Na13 O119 2.620841 1_555
Na13 O117 2.678979 1_555
Na13 O115 2.874526 1_555
Na14 O122 2.481744 1_555
Na14 O120 2.566157 1_555
Na14 O124 2.567326 1_555
Na14 O136 2.594493 1_555
Na14 O132 2.639982 1_555
Na14 O134 2.671255 1_555
Na15 O135 2.373415 1_555
Na15 O133 2.460558 1_555
Na15 O125 2.610039 1_555
Na15 O137 2.664285 1_555
Na15 O123 2.822440 1_555
Na15 O121 2.823971 1_555
Na16 O142 2.532611 1_555
Na16 O138 2.538374 1_555
Na16 O128 2.543462 1_555
Na16 O126 2.648224 1_555
Na16 O130 2.656642 1_555
Na16 O140 2.755680 1_555
Na17 O129 2.391047 1_555
Na17 O131 2.396176 1_555
Na17 O127 2.489302 1_555
Na17 O141 2.738078 1_555
Na17 O143 2.747736 1_555
Na17 O139 2.776082 1_555
O0 S0 1.476057 1_545
O0 Sn0 2.142541 1_545
O1 Si0 1.654485 1_555
O1 Sn1 1.926884 1_555
O2 S1 1.491145 1_555
O2 Sn1 2.131025 1_565
O3 Si1 1.620302 1_555
O3 Sn0 1.926534 1_655
O4 S3 1.489726 1_555
O4 Sn1 2.130336 1_555
O5 S2 1.477137 1_555
O5 Sn0 2.175919 1_545
O6 Si2 1.661128 1_555
O6 Sn2 1.930405 1_555
O7 S4 1.501060 1_555
O7 Sn3 2.099444 1_545
O8 S6 1.501514 1_555
O8 Sn3 2.082744 1_555
O9 S5 1.500575 1_555
O9 Sn2 2.110903 1_665
O10 Si3 1.652626 1_555
O10 Sn3 1.916811 1_545
O11 S7 1.497276 1_555
O11 Sn2 2.130325 1_655
O12 Si3 1.649053 1_565
O12 Sn5 1.934799 1_565
O13 S7 1.494851 1_565
O13 Sn4 2.195392 1_665
O14 Si2 1.650010 1_555
O14 Sn4 1.921908 1_555
O15 S4 1.494064 1_555
O15 Sn5 2.252594 1_555
O16 S5 1.494078 1_455
O16 Sn4 2.145277 1_565
O17 S6 1.491838 1_555
O17 Sn5 2.294041 1_565
O18 S1 1.522378 1_555
O18 Sn7 2.154477 1_565
O19 Si1 1.659544 1_555
O19 Sn6 1.933159 1_555
O20 S2 1.521599 1_555
O20 Sn6 2.202233 1_445
O21 S3 1.509540 1_555
O21 Sn7 2.105119 1_555
O22 S0 1.511754 1_555
O22 Sn6 2.188497 1_455
O23 Si0 1.671913 1_565
O23 Sn7 1.922082 1_565
O24 Si4 1.598042 1_555
O24 Zn0 1.926261 1_555
O25 S8 1.452398 1_555
O25 Zn1 2.167495 1_555
O26 S9 1.449964 1_555
O26 Zn0 2.168623 1_555
O27 Si5 1.606369 1_555
O27 Zn1 1.889749 1_555
O28 S10 1.443626 1_555
O28 Zn0 2.412299 1_555
O29 Si6 1.596025 1_555
O29 Zn1 1.869256 1_555
O30 S11 1.442653 1_555
O30 Zn2 2.264474 1_555
O31 Si7 1.596275 1_555
O31 Zn3 1.934481 1_555
O32 Si8 1.584771 1_555
O32 Zn2 1.890767 1_555
O33 S12 1.440885 1_555
O33 Zn3 2.442525 1_555
O34 Si9 1.599861 1_555
O34 Zn2 1.909005 1_555
O35 S13 1.447014 1_555
O35 Zn3 2.298117 1_555
O36 Si9 1.694553 1_555
O36 Sn8 1.974957 1_554
O37 S13 1.491679 1_555
O37 Sn9 2.151613 1_554
O38 S11 1.522517 1_555
O38 Sn8 2.168569 1_554
O39 Si7 1.668301 1_555
O39 Sn9 1.949369 1_554
O40 Si8 1.672487 1_555
O40 Sn8 1.965746 1_554
O41 S12 1.495731 1_555
O41 Sn9 2.236693 1_554
O42 S9 1.486613 1_555
O42 Sn10 2.144788 1_555
O43 Si5 1.677492 1_555
O43 Sn11 2.003677 1_555
O44 S10 1.490361 1_555
O44 Sn10 2.280132 1_555
O45 Si6 1.640405 1_555
O45 Sn11 1.972078 1_555
O46 Si4 1.654277 1_555
O46 Sn10 1.942464 1_555
O47 S8 1.500774 1_555
O47 Sn11 2.217072 1_555
O48 S14 1.444534 1_555
O48 Zn4 2.254558 1_556
O49 Si10 1.637155 1_555
O49 Sn12 1.961139 1_556
O50 S15 1.451070 1_555
O50 Zn4 2.223184 1_556
O51 S16 1.485871 1_555
O51 Sn12 2.169113 1_556
O52 S17 1.447125 1_555
O52 Zn4 2.209872 1_556
O53 Si11 1.632880 1_555
O53 Sn12 1.968280 1_556
O54 Si12 1.633741 1_555
O54 Sn13 1.978212 1_555
O55 S18 1.457658 1_555
O55 Zn5 2.157845 1_555
O56 Si13 1.627473 1_555
O56 Sn13 1.969709 1_555
O57 S19 1.457481 1_555
O57 Zn5 2.199945 1_555
O58 Si14 1.634201 1_555
O58 Sn13 1.963118 1_555
O59 S20 1.452761 1_555
O59 Zn5 2.199094 1_555
O60 Si14 1.635216 1_555
O60 Sn14 1.964626 1_555
O61 S20 1.501343 1_555
O61 Sn15 2.107643 1_555
O62 Si12 1.624863 1_555
O62 Sn14 1.973132 1_555
O63 S18 1.506347 1_555
O63 Sn15 2.094283 1_555
O64 Si13 1.629816 1_555
O64 Sn14 1.972175 1_555
O65 S19 1.495165 1_555
O65 Sn15 2.161275 1_555
O66 S15 1.508148 1_555
O66 Sn16 2.106252 1_555
O67 S16 1.484917 1_555
O67 Sn17 2.187508 1_555
O68 S17 1.496023 1_555
O68 Sn16 2.205940 1_555
O69 Si11 1.630504 1_555
O69 Sn17 1.969498 1_555
O70 S14 1.501108 1_555
O70 Sn16 2.167563 1_555
O71 Si10 1.632193 1_555
O71 Sn17 1.950658 1_555
O72 Si14 1.633705 1_555
O72 Sn0 1.994772 1_555
O73 S20 1.501218 1_555
O73 Sn1 2.170052 1_565
O74 Si12 1.665277 1_555
O74 Sn1 1.959822 1_565
O75 S18 1.485380 1_555
O75 Sn0 2.196882 1_655
O76 Si13 1.640925 1_555
O76 Sn0 1.979491 1_545
O77 S19 1.504744 1_555
O77 Sn1 2.174536 1_555
O78 S15 1.500585 1_555
O78 Sn2 2.181293 1_555
O79 S16 1.485018 1_555
O79 Sn3 2.268025 1_545
O80 S17 1.502530 1_555
O80 Sn2 2.196615 1_565
O81 Si11 1.664401 1_555
O81 Sn3 1.969706 1_555
O82 S14 1.504219 1_555
O82 Sn3 2.189408 1_555
O83 Si10 1.660017 1_555
O83 Sn2 1.973886 1_665
O84 Si4 1.671361 1_555
O84 Sn5 1.985183 1_555
O85 S8 1.518505 1_555
O85 Sn4 2.206938 1_655
O86 S9 1.516313 1_555
O86 Sn4 2.120659 1_555
O87 Si5 1.685734 1_555
O87 Sn5 2.010073 1_555
O88 S10 1.538603 1_555
O88 Sn5 2.198382 1_565
O89 Si6 1.685707 1_555
O89 Sn4 1.960174 1_665
O90 S11 1.504327 1_555
O90 Sn7 2.344041 1_565
O91 Si7 1.669244 1_555
O91 Sn6 2.011450 1_555
O92 Si8 1.689531 1_555
O92 Sn7 1.977812 1_555
O93 S12 1.513102 1_555
O93 Sn6 2.279736 1_545
O94 Si9 1.670465 1_555
O94 Sn6 2.025774 1_445
O95 S13 1.508538 1_555
O95 Sn7 2.170314 1_555
O96 Si3 1.580043 1_555
O96 Zn0 1.974682 1_555
O97 S7 1.446695 1_555
O97 Zn1 2.436831 1_555
O98 Si2 1.587855 1_555
O98 Zn0 1.998540 1_555
O99 S4 1.447794 1_555
O99 Zn1 2.338340 1_555
O100 S6 1.438630 1_555
O100 Zn0 2.329187 1_555
O101 S5 1.451614 1_555
O101 Zn1 2.407608 1_555
O102 S1 1.452023 1_555
O102 Zn2 2.366012 1_555
O103 Si1 1.583847 1_555
O103 Zn3 1.938192 1_555
O104 S3 1.453145 1_555
O104 Zn2 2.306897 1_555
O105 S2 1.444987 1_655
O105 Zn3 2.280024 1_555
O106 S0 1.462646 1_545
O106 Zn2 2.167899 1_555
O107 Si0 1.586773 1_555
O107 Zn3 1.980445 1_555
O108 S14 1.513986 1_555
O108 Sn8 2.234909 1_555
O109 Si10 1.626694 1_555
O109 Sn9 2.008252 1_555
O110 S16 1.496727 1_555
O110 Sn8 2.201176 1_555
O111 S15 1.487811 1_655
O111 Sn9 2.231441 1_555
O112 S17 1.522474 1_545
O112 Sn8 2.215080 1_555
O113 Si11 1.630519 1_545
O113 Sn9 2.002650 1_555
O114 Si12 1.631643 1_545
O114 Sn10 2.001875 1_555
O115 S18 1.486845 1_545
O115 Sn11 2.271344 1_555
O116 Si13 1.644329 1_555
O116 Sn10 1.975874 1_555
O117 S19 1.494239 1_555
O117 Sn11 2.239849 1_555
O118 S20 1.484643 1_555
O118 Sn10 2.232204 1_555
O119 Si14 1.652254 1_655
O119 Sn11 1.973785 1_555
O120 Si9 1.608219 1_555
O120 Zn4 1.984037 1_555
O121 S13 1.515118 1_555
O121 Sn12 2.151604 1_555
O122 Si7 1.633587 1_455
O122 Zn4 1.980846 1_555
O123 S11 1.504310 1_555
O123 Sn12 2.159260 1_555
O124 Si8 1.619142 1_565
O124 Zn4 1.992936 1_555
O125 S12 1.526215 1_565
O125 Sn12 2.110417 1_555
O126 S9 1.497152 1_565
O126 Sn13 2.236922 1_555
O127 Si5 1.608707 1_565
O127 Zn5 2.005923 1_555
O128 S10 1.506448 1_555
O128 Sn13 2.208113 1_555
O129 Si6 1.623301 1_555
O129 Zn5 2.007611 1_555
O130 S8 1.491091 1_455
O130 Sn13 2.240869 1_555
O131 Si4 1.630374 1_555
O131 Zn5 2.004435 1_555
O132 S0 1.499549 1_555
O132 Sn14 2.248186 1_555
O133 Si0 1.656085 1_565
O133 Sn15 1.982143 1_555
O134 S1 1.494379 1_555
O134 Sn14 2.246514 1_555
O135 Si1 1.661366 1_555
O135 Sn15 1.954744 1_555
O136 S2 1.518362 1_555
O136 Sn14 2.205572 1_555
O137 S3 1.487399 1_555
O137 Sn15 2.195654 1_555
O138 Si2 1.659268 1_555
O138 Sn16 1.972327 1_555
O139 S4 1.514988 1_555
O139 Sn17 2.179562 1_555
O140 S5 1.496495 1_455
O140 Sn16 2.161175 1_555
O141 S6 1.523119 1_555
O141 Sn17 2.126861 1_555
O142 Si3 1.658934 1_565
O142 Sn16 1.952667 1_555
O143 S7 1.515913 1_565
O143 Sn17 2.123235 1_555
