# generated using pymatgen
data_MgTi4O8
_symmetry_space_group_name_H-M   'P 1'
_cell_length_a   5.28256836
_cell_length_b   5.28296243
_cell_length_c   5.55769074
_cell_angle_alpha   77.40141261
_cell_angle_beta   110.31834841
_cell_angle_gamma   104.28907537
_symmetry_Int_Tables_number   1
_chemical_formula_structural   MgTi4O8
_chemical_formula_sum   'Mg1 Ti4 O8'
_cell_volume   139.44690924
_cell_formula_units_Z   1
loop_
 _symmetry_equiv_pos_site_id
 _symmetry_equiv_pos_as_xyz
  1  'x, y, z'
loop_
 _atom_site_type_symbol
 _atom_site_label
 _atom_site_symmetry_multiplicity
 _atom_site_fract_x
 _atom_site_fract_y
 _atom_site_fract_z
 _atom_site_occupancy
  Mg  Mg0  1  -0.00000000  0.00000000  0.50000000  1
  Ti  Ti0  1  0.60858979  0.30283384  0.56565381  1
  Ti  Ti1  1  0.28357681  0.23771383  0.06703518  1
  Ti  Ti2  1  0.39141021  0.69716616  0.43434619  1
  Ti  Ti3  1  0.71642319  0.76228617  0.93296482  1
  O  O0  1  0.58750760  0.06692206  0.29501489  1
  O  O1  1  0.42999533  0.43193180  0.78553281  1
  O  O2  1  0.41249240  0.93307794  0.70498511  1
  O  O3  1  0.57000467  0.56806820  0.21446719  1
  O  O4  1  0.82030266  0.66270531  0.67512268  1
  O  O5  1  0.06827175  0.85237601  0.20644538  1
  O  O6  1  0.17969734  0.33729469  0.32487732  1
  O  O7  1  0.93172825  0.14762399  0.79355462  1
loop_
_geom_bond_atom_site_label_1
_geom_bond_atom_site_label_2
_geom_bond_distance
_geom_bond_site_symmetry_2
Mg0 O4 2.018333 1_445
Mg0 O6 2.018333 1_555
Mg0 O5 2.121927 1_545
Mg0 O7 2.121927 1_455
Mg0 O0 2.156755 1_455
Mg0 O2 2.156755 1_545
O0 Ti1 1.949585 1_555
O0 Ti2 2.094480 1_545
O0 Ti0 2.112115 1_555
O1 Ti1 1.961388 1_556
O1 Ti0 2.080965 1_555
O1 Ti3 2.113289 1_555
O1 Ti2 2.118038 1_555
O2 Ti3 1.949585 1_555
O2 Ti0 2.094480 1_565
O2 Ti2 2.112115 1_555
O3 Ti3 1.961388 1_554
O3 Ti2 2.080965 1_555
O3 Ti1 2.113289 1_555
O3 Ti0 2.118038 1_555
O4 Ti3 1.910204 1_555
O4 Ti0 2.053756 1_555
O4 Ti2 2.224597 1_555
O5 Ti3 1.976945 1_454
O5 Ti2 1.981623 1_555
O5 Ti1 2.195240 1_565
O6 Ti1 1.910204 1_555
O6 Ti2 2.053756 1_555
O6 Ti0 2.224597 1_555
O7 Ti1 1.976945 1_656
O7 Ti0 1.981623 1_555
O7 Ti3 2.195240 1_545
