# generated using pymatgen
data_Ce(Al2Cu)4
_symmetry_space_group_name_H-M   'P 1'
_cell_length_a   5.10671102
_cell_length_b   6.73182545
_cell_length_c   6.73182301
_cell_angle_alpha   81.29923192
_cell_angle_beta   67.64823020
_cell_angle_gamma   67.64822752
_symmetry_Int_Tables_number   1
_chemical_formula_structural   Ce(Al2Cu)4
_chemical_formula_sum   'Ce1 Al8 Cu4'
_cell_volume   197.94829158
_cell_formula_units_Z   1
loop_
 _symmetry_equiv_pos_site_id
 _symmetry_equiv_pos_as_xyz
  1  'x, y, z'
loop_
 _atom_site_type_symbol
 _atom_site_label
 _atom_site_symmetry_multiplicity
 _atom_site_fract_x
 _atom_site_fract_y
 _atom_site_fract_z
 _atom_site_occupancy
  Ce  Ce0  1  -0.00000000  -0.00000000  -0.00000000  1
  Al  Al0  1  0.34952694  0.65090956  0.65090956  1
  Al  Al1  1  -0.00000000  0.34844490  0.65155510  1
  Al  Al2  1  0.00000000  0.65155510  0.34844490  1
  Al  Al3  1  0.65047306  0.34909044  0.34909044  1
  Al  Al4  1  0.27838244  0.22184530  0.22184530  1
  Al  Al5  1  0.50000000  0.77920229  0.22079771  1
  Al  Al6  1  0.50000000  0.22079771  0.77920229  1
  Al  Al7  1  0.72161756  0.77815470  0.77815470  1
  Cu  Cu0  1  0.50000000  -0.00000000  0.50000000  1
  Cu  Cu1  1  -0.00000000  0.50000000  -0.00000000  1
  Cu  Cu2  1  0.50000000  0.50000000  -0.00000000  1
  Cu  Cu3  1  -0.00000000  -0.00000000  0.50000000  1
loop_
_geom_bond_atom_site_label_1
_geom_bond_atom_site_label_2
_geom_bond_distance
_geom_bond_site_symmetry_2
Ce0 Cu0 3.363368 1_554
Ce0 Cu0 3.363368 1_455
Ce0 Cu2 3.363369 1_455
Ce0 Cu2 3.363369 1_545
Ce0 Cu3 3.365912 1_555
Ce0 Cu3 3.365912 1_554
Ce0 Cu1 3.365913 1_545
Ce0 Cu1 3.365913 1_555
Al0 Al3 2.667829 1_555
Al0 Cu2 2.683751 1_556
Al0 Cu0 2.683752 1_565
Al0 Cu1 2.684608 1_556
Al0 Cu3 2.684608 1_565
Al0 Al5 2.788524 1_555
Al0 Al6 2.788525 1_555
Al0 Al7 2.788556 1_555
Al0 Al7 2.791642 1_455
Al0 Ce0 3.085653 1_566
Al1 Al2 2.658472 1_555
Al1 Cu2 2.692580 1_456
Al1 Cu0 2.692580 1_555
Al1 Cu1 2.695757 1_556
Al1 Cu3 2.695757 1_555
Al1 Al6 2.788012 1_555
Al1 Al6 2.788012 1_455
Al1 Al4 2.794959 1_555
Al1 Al7 2.794960 1_455
Al1 Ce0 3.056086 1_556
Al2 Cu2 2.692580 1_555
Al2 Cu0 2.692580 1_465
Al2 Cu1 2.695757 1_555
Al2 Cu3 2.695757 1_565
Al2 Al5 2.788012 1_455
Al2 Al5 2.788012 1_555
Al2 Al7 2.794959 1_455
Al2 Al4 2.794960 1_555
Al2 Ce0 3.056086 1_565
Al3 Cu2 2.683751 1_555
Al3 Cu0 2.683752 1_555
Al3 Cu1 2.684608 1_655
Al3 Cu3 2.684608 1_655
Al3 Al6 2.788524 1_555
Al3 Al5 2.788525 1_555
Al3 Al4 2.788556 1_555
Al3 Al4 2.791642 1_655
Al3 Ce0 3.085653 1_655
Al4 Cu0 2.549038 1_555
Al4 Cu2 2.549039 1_555
Al4 Cu1 2.549825 1_555
Al4 Cu3 2.549825 1_555
Al4 Al6 2.755974 1_554
Al4 Al5 2.755974 1_545
Al4 Ce0 3.216164 1_655
Al4 Ce0 3.222726 1_555
Al5 Cu3 2.563218 1_565
Al5 Cu1 2.563218 1_655
Al5 Cu0 2.566554 1_565
Al5 Cu2 2.566554 1_555
Al5 Al7 2.755974 1_554
Al5 Ce0 3.204653 1_565
Al5 Ce0 3.204654 1_665
Al6 Cu3 2.563218 1_655
Al6 Cu1 2.563218 1_556
Al6 Cu0 2.566554 1_555
Al6 Cu2 2.566554 1_556
Al6 Al7 2.755974 1_545
Al6 Ce0 3.204653 1_656
Al6 Ce0 3.204654 1_556
Al7 Cu0 2.549038 1_565
Al7 Cu2 2.549039 1_556
Al7 Cu1 2.549825 1_656
Al7 Cu3 2.549825 1_665
Al7 Ce0 3.216164 1_566
Al7 Ce0 3.222726 1_666
Cu0 Cu3 2.553356 1_555
Cu0 Cu3 2.553356 1_655
Cu1 Cu2 2.553356 1_455
Cu1 Cu2 2.553356 1_555
