# generated using pymatgen
data_Gd(SiIr)2
_symmetry_space_group_name_H-M   'P 1'
_cell_length_a   5.80943535
_cell_length_b   5.80943535
_cell_length_c   5.80943535
_cell_angle_alpha   138.72856251
_cell_angle_beta   138.72856251
_cell_angle_gamma   59.78898351
_symmetry_Int_Tables_number   1
_chemical_formula_structural   Gd(SiIr)2
_chemical_formula_sum   'Gd1 Si2 Ir2'
_cell_volume   84.44751493
_cell_formula_units_Z   1
loop_
 _symmetry_equiv_pos_site_id
 _symmetry_equiv_pos_as_xyz
  1  'x, y, z'
loop_
 _atom_site_type_symbol
 _atom_site_label
 _atom_site_symmetry_multiplicity
 _atom_site_fract_x
 _atom_site_fract_y
 _atom_site_fract_z
 _atom_site_occupancy
  Gd  Gd0  1  0.00000000  0.00000000  0.00000000  1
  Si  Si0  1  0.62207800  0.62207800  0.00000000  1
  Si  Si1  1  0.37792200  0.37792200  0.00000000  1
  Ir  Ir0  1  0.25000000  0.75000000  0.50000000  1
  Ir  Ir1  1  0.75000000  0.25000000  0.50000000  1
loop_
_geom_bond_atom_site_label_1
_geom_bond_atom_site_label_2
_geom_bond_distance
_geom_bond_site_symmetry_2
Gd0 Si1 3.145749 1_556
Gd0 Si0 3.145749 1_455
Gd0 Si0 3.145749 1_444
Gd0 Si1 3.145749 1_455
Gd0 Si1 3.145749 1_444
Gd0 Si0 3.145749 1_545
Gd0 Si0 3.145749 1_556
Gd0 Si1 3.145749 1_545
Gd0 Ir0 3.245503 1_444
Gd0 Ir0 3.245503 1_544
Gd0 Ir1 3.245503 1_444
Gd0 Ir0 3.245503 1_545
Gd0 Ir0 3.245503 1_555
Gd0 Ir1 3.245503 1_454
Gd0 Ir1 3.245503 1_555
Gd0 Ir1 3.245503 1_455
Si0 Si1 2.459363 1_555
Ir0 Si1 2.419125 1_566
Ir0 Si0 2.419125 1_455
Ir0 Si0 2.419125 1_556
Ir0 Si1 2.419125 1_555
Ir1 Si1 2.419125 1_656
Ir1 Si0 2.419125 1_545
Ir1 Si0 2.419125 1_556
Ir1 Si1 2.419125 1_555
