# generated using pymatgen
data_LaAl(SO4)3
_symmetry_space_group_name_H-M   'P 1'
_cell_length_a   8.82604427
_cell_length_b   8.82604398
_cell_length_c   23.56399431
_cell_angle_alpha   90.00000000
_cell_angle_beta   90.00000000
_cell_angle_gamma   120.00000105
_symmetry_Int_Tables_number   1
_chemical_formula_structural   LaAl(SO4)3
_chemical_formula_sum   'La6 Al6 S18 O72'
_cell_volume   1589.68737411
_cell_formula_units_Z   6
loop_
 _symmetry_equiv_pos_site_id
 _symmetry_equiv_pos_as_xyz
  1  'x, y, z'
loop_
 _atom_site_type_symbol
 _atom_site_label
 _atom_site_symmetry_multiplicity
 _atom_site_fract_x
 _atom_site_fract_y
 _atom_site_fract_z
 _atom_site_occupancy
  La  La0  1  0.00000000  0.00000000  0.84547488  1
  La  La1  1  0.66666700  0.33333300  0.98785812  1
  La  La2  1  0.33333300  0.66666700  0.03279267  1
  La  La3  1  0.33333300  0.66666700  0.52144765  1
  La  La4  1  0.33333300  0.66666700  0.31188635  1
  La  La5  1  0.33333300  0.66666700  0.80054133  1
  Al  Al0  1  0.00000000  0.00000000  0.34940789  1
  Al  Al1  1  0.00000000  0.00000000  0.64312725  1
  Al  Al2  1  0.00000000  0.00000000  0.15380208  1
  Al  Al3  1  0.66666700  0.33333300  0.67953092  1
  Al  Al4  1  0.66666700  0.33333300  0.19020575  1
  Al  Al5  1  0.66666700  0.33333300  0.48392511  1
  S  S0  1  0.28692529  0.02359807  0.24738459  1
  S  S1  1  0.73667277  0.71307471  0.24738459  1
  S  S2  1  0.97640193  0.26332723  0.24738459  1
  S  S3  1  0.30656063  0.27959176  0.73570289  1
  S  S4  1  0.97303113  0.69343937  0.73570289  1
  S  S5  1  0.72040824  0.02696887  0.73570289  1
  S  S6  1  0.92999423  0.30973493  0.58594841  1
  S  S7  1  0.37974171  0.07000577  0.58594841  1
  S  S8  1  0.69026507  0.62025829  0.58594841  1
  S  S9  1  0.94625876  0.63989363  0.09763011  1
  S  S10  1  0.69363587  0.05374124  0.09763011  1
  S  S11  1  0.36010637  0.30636413  0.09763011  1
  S  S12  1  0.62970497  0.66666700  0.91666700  1
  S  S13  1  0.03696103  0.37029503  0.91666700  1
  S  S14  1  0.33333300  0.96303897  0.91666700  1
  S  S15  1  0.65817261  0.99150661  0.41666700  1
  S  S16  1  0.33333300  0.34182739  0.41666700  1
  S  S17  1  0.00849339  0.66666700  0.41666700  1
  O  O0  1  0.20488090  0.04697122  0.29973936  1
  O  O1  1  0.84209032  0.79511910  0.29973936  1
  O  O2  1  0.95302878  0.15790968  0.29973936  1
  O  O3  1  0.24905015  0.19121934  0.79153991  1
  O  O4  1  0.94216919  0.75094985  0.79153991  1
  O  O5  1  0.80878066  0.05783081  0.79153991  1
  O  O6  1  0.82431234  0.00133660  0.69105651  1
  O  O7  1  0.17702426  0.17568766  0.69105651  1
  O  O8  1  -0.00133660  0.82297574  0.69105651  1
  O  O9  1  0.81842412  0.82584989  0.19752767  1
  O  O10  1  0.00742577  0.18157588  0.19752767  1
  O  O11  1  0.17415011  0.99257423  0.19752767  1
  O  O12  1  0.84824288  0.34075877  0.63580533  1
  O  O13  1  0.49251689  0.15175712  0.63580533  1
  O  O14  1  0.65924123  0.50748311  0.63580533  1
  O  O15  1  0.84235466  0.51035726  0.14227649  1
  O  O16  1  0.66800360  0.15764534  0.14227649  1
  O  O17  1  0.48964274  0.33199640  0.14227649  1
  O  O18  1  0.41761685  0.27550219  0.04179309  1
  O  O19  1  0.85788634  0.58238315  0.04179309  1
  O  O20  1  0.72449781  0.14211366  0.04179309  1
  O  O21  1  0.46178610  0.17542332  0.53359364  1
  O  O22  1  0.71363822  0.53821390  0.53359364  1
  O  O23  1  0.82457668  0.28636178  0.53359364  1
  O  O24  1  0.53897964  0.67467615  0.96859755  1
  O  O25  1  0.13569551  0.46102036  0.96859755  1
  O  O26  1  0.32532385  0.86430449  0.96859755  1
  O  O27  1  0.58376713  0.86922415  0.46555695  1
  O  O28  1  0.28545602  0.41623287  0.46555695  1
  O  O29  1  0.13077585  0.71454398  0.46555695  1
  O  O30  1  0.08289887  0.61879002  0.36777705  1
  O  O31  1  0.53589015  0.91710113  0.36777705  1
  O  O32  1  0.38120998  0.46410985  0.36777705  1
  O  O33  1  0.12768636  0.46902951  0.86473645  1
  O  O34  1  0.34134215  0.87231364  0.86473645  1
  O  O35  1  0.53097049  0.65865785  0.86473645  1
  O  O36  1  0.98865072  0.81933155  0.40062620  1
  O  O37  1  0.83068083  0.01134928  0.40062620  1
  O  O38  1  0.18066845  0.16931917  0.40062620  1
  O  O39  1  0.02144906  0.19693337  0.91556447  1
  O  O40  1  0.17548431  0.97855094  0.91556447  1
  O  O41  1  0.80306663  0.82451569  0.91556447  1
  O  O42  1  0.94920454  0.15248762  0.59408365  1
  O  O43  1  0.20328308  0.05079546  0.59408365  1
  O  O44  1  0.84751238  0.79671692  0.59408365  1
  O  O45  1  0.96988615  0.81472139  0.10735344  1
  O  O46  1  0.84483524  0.03011385  0.10735344  1
  O  O47  1  0.18527861  0.15516476  0.10735344  1
  O  O48  1  0.69678085  0.17816824  0.72597956  1
  O  O49  1  0.48138839  0.30321915  0.72597956  1
  O  O50  1  0.82183176  0.51861161  0.72597956  1
  O  O51  1  0.71746246  0.53661608  0.23924935  1
  O  O52  1  0.81915462  0.28253754  0.23924935  1
  O  O53  1  0.46338392  0.18084538  0.23924935  1
  O  O54  1  0.64521794  0.50881731  0.91776853  1
  O  O55  1  0.86360037  0.35478206  0.91776853  1
  O  O56  1  0.49118269  0.13639963  0.91776853  1
  O  O57  1  0.67801628  0.16401383  0.43270680  1
  O  O58  1  0.48599855  0.32198372  0.43270680  1
  O  O59  1  0.83598617  0.51400145  0.43270680  1
  O  O60  1  0.34879531  0.46720788  0.09574784  1
  O  O61  1  0.11841157  0.65120469  0.09574784  1
  O  O62  1  0.53279212  0.88158843  0.09574784  1
  O  O63  1  0.36066431  0.89442579  0.58047304  1
  O  O64  1  0.53376048  0.63933569  0.58047304  1
  O  O65  1  0.10557421  0.46623952  0.58047304  1
  O  O66  1  0.30600169  0.86709448  0.25286096  1
  O  O67  1  0.56109179  0.69399831  0.25286096  1
  O  O68  1  0.13290552  0.43890821  0.25286096  1
  O  O69  1  0.31787069  0.45174557  0.73758616  1
  O  O70  1  0.13387388  0.68212931  0.73758616  1
  O  O71  1  0.54825443  0.86612612  0.73758616  1
loop_
_geom_bond_atom_site_label_1
_geom_bond_atom_site_label_2
_geom_bond_distance
_geom_bond_site_symmetry_2
La0 O39 2.335740 1_555
La0 O41 2.335740 1_445
La0 O40 2.335740 1_545
La0 O4 2.363382 1_445
La0 O3 2.363382 1_555
La0 O5 2.363382 1_455
La1 O56 2.335740 1_555
La1 O54 2.335740 1_555
La1 O55 2.335740 1_555
La1 O19 2.363382 1_556
La1 O20 2.363382 1_556
La1 O18 2.363382 1_556
La2 O25 2.336520 1_554
La2 O26 2.336520 1_554
La2 O24 2.336520 1_554
La2 O62 2.357690 1_555
La2 O60 2.357690 1_555
La2 O61 2.357690 1_555
La3 O63 2.355577 1_555
La3 O65 2.355577 1_555
La3 O64 2.355577 1_555
La3 O28 2.421709 1_555
La3 O27 2.421709 1_555
La3 O29 2.421709 1_555
La4 O68 2.355577 1_555
La4 O66 2.355577 1_555
La4 O67 2.355577 1_555
La4 O31 2.421709 1_555
La4 O32 2.421709 1_555
La4 O30 2.421709 1_555
La5 O34 2.336520 1_555
La5 O33 2.336520 1_555
La5 O35 2.336520 1_555
La5 O69 2.357690 1_555
La5 O71 2.357690 1_555
La5 O70 2.357690 1_555
Al0 O36 1.962050 1_445
Al0 O38 1.962050 1_555
Al0 O37 1.962050 1_455
Al0 O1 2.015421 1_445
Al0 O2 2.015421 1_455
Al0 O0 2.015421 1_555
Al1 O8 1.923131 1_545
Al1 O7 1.923131 1_555
Al1 O6 1.923131 1_455
Al1 O44 1.987782 1_445
Al1 O42 1.987782 1_455
Al1 O43 1.987782 1_555
Al2 O45 1.872993 1_445
Al2 O47 1.872993 1_555
Al2 O46 1.872993 1_455
Al2 O10 1.878616 1_555
Al2 O9 1.878616 1_445
Al2 O11 1.878616 1_545
Al3 O50 1.872993 1_555
Al3 O48 1.872993 1_555
Al3 O49 1.872993 1_555
Al3 O13 1.878616 1_555
Al3 O14 1.878616 1_555
Al3 O12 1.878616 1_555
Al4 O16 1.923131 1_555
Al4 O15 1.923131 1_555
Al4 O17 1.923131 1_555
Al4 O51 1.987782 1_555
Al4 O53 1.987782 1_555
Al4 O52 1.987782 1_555
Al5 O59 1.962050 1_555
Al5 O57 1.962050 1_555
Al5 O58 1.962050 1_555
Al5 O22 2.015421 1_555
Al5 O21 2.015421 1_555
Al5 O23 2.015421 1_555
O0 S0 1.496090 1_555
O1 S1 1.496090 1_555
O2 S2 1.496090 1_555
O3 S3 1.483673 1_555
O4 S4 1.483673 1_555
O5 S5 1.483673 1_555
O6 S5 1.485414 1_555
O7 S3 1.485414 1_555
O8 S4 1.485414 1_455
O9 S1 1.474242 1_555
O10 S2 1.474242 1_455
O11 S0 1.474242 1_565
O12 S6 1.474242 1_555
O13 S7 1.474242 1_555
O14 S8 1.474242 1_555
O15 S9 1.485414 1_555
O16 S10 1.485414 1_555
O17 S11 1.485414 1_555
O18 S11 1.483673 1_555
O19 S9 1.483673 1_555
O20 S10 1.483673 1_555
O21 S7 1.496090 1_555
O22 S8 1.496090 1_555
O23 S6 1.496090 1_555
O24 S12 1.483312 1_555
O25 S13 1.483312 1_555
O26 S14 1.483312 1_555
O27 S15 1.488128 1_555
O28 S16 1.488128 1_555
O29 S17 1.488128 1_555
O30 S17 1.488128 1_555
O31 S15 1.488128 1_555
O32 S16 1.488128 1_555
O33 S13 1.483312 1_555
O34 S14 1.483312 1_555
O35 S12 1.483312 1_555
O36 S17 1.491668 1_655
O37 S15 1.491676 1_545
O38 S16 1.491673 1_555
O39 S13 1.466674 1_555
O40 S14 1.466665 1_555
O41 S12 1.466670 1_555
O42 S6 1.492313 1_555
O43 S7 1.492322 1_555
O44 S8 1.492318 1_555
O45 S9 1.468049 1_555
O46 S10 1.468041 1_555
O47 S11 1.468046 1_555
O48 S5 1.468041 1_555
O49 S3 1.468049 1_555
O50 S4 1.468046 1_555
O51 S1 1.492322 1_555
O52 S2 1.492313 1_555
O53 S0 1.492318 1_555
O54 S12 1.466679 1_555
O55 S13 1.466661 1_655
O56 S14 1.466669 1_545
O57 S15 1.491658 1_545
O58 S16 1.491676 1_555
O59 S17 1.491665 1_655
O60 S11 1.472739 1_555
O61 S9 1.472722 1_455
O62 S10 1.472729 1_565
O63 S7 1.478365 1_565
O64 S8 1.478383 1_555
O65 S6 1.478373 1_455
O66 S0 1.478371 1_565
O67 S1 1.478380 1_555
O68 S2 1.478376 1_455
O69 S3 1.472735 1_555
O70 S4 1.472726 1_455
O71 S5 1.472731 1_565
