# generated using pymatgen
data_Na5TiGa3Si3(SO8)3
_symmetry_space_group_name_H-M   'P 1'
_cell_length_a   8.82403093
_cell_length_b   8.84331486
_cell_length_c   22.13056544
_cell_angle_alpha   90.47817114
_cell_angle_beta   90.61455635
_cell_angle_gamma   120.05981724
_symmetry_Int_Tables_number   1
_chemical_formula_structural   Na5TiGa3Si3(SO8)3
_chemical_formula_sum   'Na15 Ti3 Ga9 Si9 S9 O72'
_cell_volume   1494.38883282
_cell_formula_units_Z   3
loop_
 _symmetry_equiv_pos_site_id
 _symmetry_equiv_pos_as_xyz
  1  'x, y, z'
loop_
 _atom_site_type_symbol
 _atom_site_label
 _atom_site_symmetry_multiplicity
 _atom_site_fract_x
 _atom_site_fract_y
 _atom_site_fract_z
 _atom_site_occupancy
  Na  Na0  1  0.63921487  0.00190665  0.25395053  1
  Na  Na1  1  0.00169182  0.62592213  0.24835814  1
  Na  Na2  1  0.63091280  0.63407824  0.74547988  1
  Na  Na3  1  0.36687214  0.00883999  0.75469063  1
  Na  Na4  1  0.66684082  0.95971086  0.58485747  1
  Na  Na5  1  0.97416127  0.67859228  0.91998016  1
  Na  Na6  1  0.69688467  0.02573163  0.91332981  1
  Na  Na7  1  0.96384617  0.30098558  0.41135012  1
  Na  Na8  1  0.70449604  0.68061954  0.42096790  1
  Na  Na9  1  0.00806685  0.98802761  0.50202695  1
  Na  Na10  1  0.01085045  0.99599321  0.00011467  1
  Na  Na11  1  0.65264834  0.32336048  0.83167479  1
  Na  Na12  1  0.65817387  0.32143838  0.33195519  1
  Na  Na13  1  0.31795724  0.64436084  0.16165452  1
  Na  Na14  1  0.32261180  0.64175555  0.66502181  1
  Ti  Ti0  1  0.65955480  0.34850954  0.98007113  1
  Ti  Ti1  1  0.68005682  0.34662288  0.47938719  1
  Ti  Ti2  1  0.35524043  0.67387362  0.81202772  1
  Ga  Ga0  1  0.98856845  0.99717986  0.35333010  1
  Ga  Ga1  1  0.00908090  0.01280710  0.85147416  1
  Ga  Ga2  1  0.98624514  0.99355756  0.65176885  1
  Ga  Ga3  1  0.00715132  0.00497165  0.14447345  1
  Ga  Ga4  1  0.64963051  0.33148695  0.68765933  1
  Ga  Ga5  1  0.69480115  0.34070093  0.17935169  1
  Ga  Ga6  1  0.32865263  0.68559698  0.01634950  1
  Ga  Ga7  1  0.34677147  0.67984311  0.51643234  1
  Ga  Ga8  1  0.31584488  0.65708784  0.31853687  1
  Si  Si0  1  0.00843157  0.28902691  0.24915419  1
  Si  Si1  1  0.27838270  0.28503742  0.74842846  1
  Si  Si2  1  0.71724495  0.01253244  0.74972241  1
  Si  Si3  1  0.66592156  0.62705952  0.58580740  1
  Si  Si4  1  0.97087943  0.63648903  0.08486426  1
  Si  Si5  1  0.62134217  0.67120664  0.92037003  1
  Si  Si6  1  0.32986902  0.96190682  0.91588927  1
  Si  Si7  1  0.61806206  0.95663862  0.41515511  1
  Si  Si8  1  0.05287554  0.67891387  0.41710475  1
  S  S0  1  0.29175748  0.00570860  0.24949182  1
  S  S1  1  0.70289822  0.70214719  0.24902754  1
  S  S2  1  -0.00033884  0.70516035  0.74991120  1
  S  S3  1  0.96154352  0.33930865  0.58361778  1
  S  S4  1  0.37338493  0.04352596  0.58246220  1
  S  S5  1  0.66695436  0.04110541  0.08359620  1
  S  S6  1  0.38091115  0.33467308  0.08553944  1
  S  S7  1  0.04786613  0.37915345  0.91799687  1
  S  S8  1  0.33392233  0.37484596  0.41683868  1
  O  O0  1  0.21195094  0.02797908  0.30461204  1
  O  O1  1  0.81389016  0.77609442  0.30581188  1
  O  O2  1  0.96701510  0.16988521  0.31037067  1
  O  O3  1  0.20353029  0.15740016  0.80581877  1
  O  O4  1  0.96448056  0.77907695  0.80509114  1
  O  O5  1  0.82583041  0.03234089  0.81171947  1
  O  O6  1  0.78160225  0.95265487  0.68991509  1
  O  O7  1  0.16437555  0.19373894  0.68709849  1
  O  O8  1  0.03321176  0.81753279  0.69653830  1
  O  O9  1  0.78838277  0.81521791  0.19710140  1
  O  O10  1  0.02818806  0.18946743  0.19062370  1
  O  O11  1  0.17792948  0.96842534  0.19514708  1
  O  O12  1  0.87411590  0.35824654  0.63669856  1
  O  O13  1  0.48173918  0.11826476  0.63927310  1
  O  O14  1  0.64325813  0.51115959  0.64495686  1
  O  O15  1  0.88631982  0.52389830  0.14625702  1
  O  O16  1  0.63911113  0.11916402  0.14060076  1
  O  O17  1  0.48973231  0.35278535  0.14001913  1
  O  O18  1  0.46421380  0.30939813  0.02994490  1
  O  O19  1  0.83538659  0.52814003  0.02637297  1
  O  O20  1  0.68469741  0.14864717  0.03051311  1
  O  O21  1  0.46610321  0.15141641  0.52992719  1
  O  O22  1  0.68720146  0.52484733  0.52533689  1
  O  O23  1  0.84987805  0.31180151  0.52680838  1
  O  O24  1  0.52440188  0.70095715  0.97656379  1
  O  O25  1  0.15205020  0.45619719  0.97383280  1
  O  O26  1  0.28063795  0.83248744  0.97267595  1
  O  O27  1  0.54676221  0.83424599  0.47448140  1
  O  O28  1  0.30058363  0.45188795  0.47104947  1
  O  O29  1  0.16804638  0.69437049  0.47610535  1
  O  O30  1  0.11109431  0.61671344  0.35624466  1
  O  O31  1  0.50239876  0.86330722  0.35352989  1
  O  O32  1  0.37045971  0.48585216  0.36299189  1
  O  O33  1  0.12458118  0.48751851  0.86448968  1
  O  O34  1  0.36614539  0.86765808  0.85682668  1
  O  O35  1  0.50626404  0.63559286  0.85700795  1
  O  O36  1  0.01894765  0.84280176  0.40815386  1
  O  O37  1  0.81888205  0.98643928  0.41063264  1
  O  O38  1  0.17822115  0.19913629  0.40957520  1
  O  O39  1  0.01994736  0.20004270  0.91312751  1
  O  O40  1  0.15639759  0.97954371  0.90802978  1
  O  O41  1  0.81634677  0.83971417  0.91241743  1
  O  O42  1  0.97014566  0.17564545  0.58438901  1
  O  O43  1  0.20023649  0.02685690  0.58625352  1
  O  O44  1  0.84402900  0.82425594  0.58821068  1
  O  O45  1  0.98006525  0.82725614  0.09036972  1
  O  O46  1  0.82849030  0.03012170  0.08810302  1
  O  O47  1  0.20631147  0.17421484  0.08702583  1
  O  O48  1  0.68380310  0.17688013  0.74075441  1
  O  O49  1  0.48219488  0.31984877  0.74492583  1
  O  O50  1  0.84294448  0.52947791  0.74267488  1
  O  O51  1  0.68310004  0.52528121  0.24334070  1
  O  O52  1  0.82534864  0.30702842  0.24421997  1
  O  O53  1  0.46910982  0.16137972  0.24335710  1
  O  O54  1  0.64609350  0.49660544  0.92464576  1
  O  O55  1  0.86751638  0.35981054  0.92303145  1
  O  O56  1  0.51605665  0.14857624  0.92608779  1
  O  O57  1  0.64404669  0.15410620  0.42442306  1
  O  O58  1  0.49293058  0.35829342  0.42352412  1
  O  O59  1  0.84910926  0.50150204  0.42579541  1
  O  O60  1  0.36547806  0.49083546  0.08018002  1
  O  O61  1  0.15856549  0.64453272  0.07651368  1
  O  O62  1  0.51086005  0.86495943  0.08019424  1
  O  O63  1  0.35958250  0.86788917  0.57842766  1
  O  O64  1  0.49140210  0.64999886  0.57735569  1
  O  O65  1  0.13538080  0.49414875  0.57754848  1
  O  O66  1  0.31342696  0.84727911  0.25312842  1
  O  O67  1  0.53093410  0.69092692  0.25520680  1
  O  O68  1  0.17771898  0.49027958  0.25557650  1
  O  O69  1  0.30335745  0.48295427  0.75653254  1
  O  O70  1  0.15808674  0.69004939  0.75654449  1
  O  O71  1  0.51532506  0.83305589  0.75611490  1
loop_
_geom_bond_atom_site_label_1
_geom_bond_atom_site_label_2
_geom_bond_distance
_geom_bond_site_symmetry_2
Na0 O52 2.366906 1_555
Na0 O67 2.417884 1_545
Na0 O66 2.488931 1_545
Na0 O53 2.532882 1_555
Na0 O31 2.536937 1_545
Na0 O16 2.722520 1_555
Na0 O2 2.778374 1_555
Na0 O9 2.866855 1_545
Na1 O68 2.396137 1_555
Na1 O15 2.439771 1_455
Na1 O52 2.445207 1_455
Na1 O66 2.450641 1_555
Na1 O51 2.488522 1_455
Na1 O30 2.582967 1_555
Na1 O1 2.889336 1_455
Na1 O11 2.891227 1_555
Na2 O49 2.406245 1_555
Na2 O71 2.447073 1_555
Na2 O50 2.468884 1_555
Na2 O14 2.495176 1_555
Na2 O69 2.520104 1_555
Na2 O35 2.715570 1_555
Na2 O6 2.749045 1_555
Na2 O4 2.855811 1_555
Na3 O49 2.420215 1_555
Na3 O48 2.446880 1_555
Na3 O70 2.478686 1_545
Na3 O71 2.484641 1_545
Na3 O34 2.589848 1_545
Na3 O3 2.644025 1_555
Na3 O13 2.757204 1_555
Na3 O8 2.842397 1_545
Na4 O64 2.380085 1_555
Na4 O42 2.385478 1_565
Na4 O44 2.400051 1_555
Na4 O63 2.411384 1_555
Na4 O6 2.539713 1_555
Na4 O27 2.653667 1_555
Na5 O40 2.339300 1_655
Na5 O41 2.446262 1_555
Na5 O55 2.486814 1_555
Na5 O54 2.514536 1_555
Na5 O26 2.597007 1_655
Na5 O19 2.701019 1_556
Na5 O4 2.714893 1_555
Na5 O33 2.893470 1_655
Na6 O56 2.355211 1_555
Na6 O41 2.356858 1_545
Na6 O39 2.469997 1_655
Na6 O5 2.518955 1_555
Na6 O55 2.562723 1_555
Na6 O34 2.800102 1_545
Na6 O20 2.827456 1_556
Na6 O24 2.873541 1_545
Na7 O37 2.410025 1_545
Na7 O59 2.463250 1_555
Na7 O57 2.466950 1_555
Na7 O38 2.469613 1_655
Na7 O2 2.515851 1_555
Na7 O30 2.725367 1_655
Na7 O23 2.774298 1_555
Na7 O28 2.875657 1_655
Na8 O37 2.380295 1_555
Na8 O36 2.423517 1_655
Na8 O59 2.484682 1_555
Na8 O58 2.507450 1_555
Na8 O27 2.662389 1_555
Na8 O22 2.665689 1_555
Na8 O1 2.722417 1_555
Na8 O32 2.845495 1_555
Na9 O43 2.409556 1_565
Na9 O44 2.415713 1_455
Na9 O36 2.461244 1_555
Na9 O42 2.589574 1_465
Na9 O37 2.604141 1_455
Na9 O38 2.692090 1_565
Na10 O45 2.438304 1_455
Na10 O40 2.462109 1_554
Na10 O41 2.475858 1_454
Na10 O47 2.512609 1_565
Na10 O39 2.623865 1_564
Na10 O46 2.648794 1_465
Na11 O49 2.416434 1_555
Na11 O48 2.475339 1_555
Na11 O56 2.539498 1_555
Na11 O54 2.573436 1_555
Na11 O55 2.661002 1_555
Na11 O50 2.661972 1_555
Na12 O53 2.479723 1_555
Na12 O52 2.491562 1_555
Na12 O57 2.502817 1_555
Na12 O51 2.610523 1_555
Na12 O58 2.620564 1_555
Na12 O59 2.620901 1_555
Na13 O61 2.339613 1_555
Na13 O60 2.411616 1_555
Na13 O68 2.474181 1_555
Na13 O62 2.598259 1_555
Na13 O67 2.667362 1_555
Na13 O66 2.707907 1_555
Na14 O65 2.430972 1_555
Na14 O69 2.432736 1_555
Na14 O64 2.437873 1_555
Na14 O71 2.608684 1_555
Na14 O70 2.657493 1_555
Na14 O63 2.683621 1_555
Ga0 O2 1.893144 1_565
Ga0 O37 1.938923 1_555
Ga0 O36 1.948081 1_655
Ga0 O1 2.053316 1_555
Ga0 O38 2.112732 1_665
Ga0 O0 2.152818 1_665
Ga1 O3 1.860309 1_555
Ga1 O5 1.915840 1_455
Ga1 O40 1.922806 1_545
Ga1 O39 2.100689 1_555
Ga1 O41 2.128413 1_445
Ga1 O4 2.149843 1_445
Ga2 O7 1.838138 1_665
Ga2 O6 1.867558 1_555
Ga2 O44 1.959488 1_555
Ga2 O8 2.059066 1_655
Ga2 O42 2.258620 1_565
Ga2 O43 2.294178 1_665
Ga3 O10 1.845062 1_555
Ga3 O45 1.883300 1_445
Ga3 O11 2.022544 1_545
Ga3 O47 2.095109 1_555
Ga3 O46 2.098771 1_455
Ga3 O9 2.175897 1_445
Ga4 O14 1.879968 1_555
Ga4 O49 1.920842 1_555
Ga4 O48 1.942468 1_555
Ga4 O13 2.007643 1_555
Ga4 O50 2.094173 1_555
Ga4 O12 2.198753 1_555
Ga5 O15 1.822245 1_555
Ga5 O52 1.947266 1_555
Ga5 O16 1.952825 1_555
Ga5 O17 2.050612 1_555
Ga5 O51 2.194047 1_555
Ga5 O53 2.328395 1_555
Ga6 O26 1.834284 1_554
Ga6 O24 1.891249 1_554
Ga6 O61 1.913679 1_555
Ga6 O25 2.049106 1_554
Ga6 O62 2.110994 1_555
Ga6 O60 2.378852 1_555
Ga7 O29 1.864095 1_555
Ga7 O27 1.866258 1_555
Ga7 O64 1.955171 1_555
Ga7 O28 2.091156 1_555
Ga7 O63 2.104948 1_555
Ga7 O65 2.242308 1_555
Ga8 O30 1.865258 1_555
Ga8 O31 1.891274 1_555
Ga8 O68 1.931597 1_555
Ga8 O32 2.058884 1_555
Ga8 O66 2.236195 1_555
Ga8 O67 2.269612 1_555
O0 S0 1.475154 1_555
O1 S1 1.511400 1_555
O2 Si0 1.651578 1_655
O3 Si1 1.618164 1_555
O4 S2 1.487611 1_655
O5 Si2 1.621994 1_555
O6 Si2 1.631074 1_565
O7 Si1 1.626285 1_555
O8 S2 1.484151 1_555
O9 S1 1.473616 1_555
O10 Si0 1.619558 1_555
O11 S0 1.483143 1_565
O12 S3 1.465856 1_555
O13 S4 1.502986 1_555
O14 Si3 1.620701 1_555
O15 Si4 1.641378 1_555
O16 S5 1.513401 1_555
O17 S6 1.489701 1_555
O18 S6 1.511098 1_555
O18 Ti0 1.938790 1_554
O19 Si4 1.679751 1_555
O19 Ti0 1.857497 1_554
O20 S5 1.477311 1_555
O20 Ti0 2.199928 1_554
O21 S4 1.479292 1_555
O21 Ti1 2.146590 1_555
O22 Si3 1.672849 1_555
O22 Ti1 1.842403 1_555
O23 S3 1.529339 1_555
O23 Ti1 1.968667 1_555
O24 Si5 1.609438 1_555
O25 S7 1.473212 1_555
O26 Si6 1.617272 1_555
O27 Si7 1.627986 1_555
O28 S8 1.478092 1_555
O29 Si8 1.608036 1_555
O30 Si8 1.632819 1_555
O31 Si7 1.640208 1_555
O32 S8 1.482687 1_555
O33 S7 1.471408 1_555
O33 Ti2 2.220089 1_555
O34 Si6 1.662436 1_555
O34 Ti2 1.932185 1_555
O35 Si5 1.654782 1_555
O35 Ti2 1.819489 1_555
O36 Si8 1.633271 1_555
O37 Si7 1.660121 1_555
O38 S8 1.476589 1_555
O39 S7 1.478787 1_555
O40 Si6 1.622218 1_555
O41 Si5 1.629275 1_555
O42 S3 1.487026 1_555
O43 S4 1.463036 1_555
O44 Si3 1.662802 1_555
O45 Si4 1.651302 1_555
O46 S5 1.478836 1_555
O47 S6 1.483237 1_555
O48 Si2 1.634623 1_555
O49 Si1 1.668509 1_555
O50 S2 1.480022 1_655
O51 S1 1.488360 1_555
O52 Si0 1.703336 1_655
O53 S0 1.487306 1_555
O54 Si5 1.667511 1_555
O54 Ti0 1.847535 1_555
O55 S7 1.518445 1_655
O55 Ti0 2.199763 1_555
O56 Si6 1.656511 1_545
O56 Ti0 1.961159 1_555
O57 Si7 1.654080 1_545
O57 Ti1 1.973377 1_555
O58 S8 1.487835 1_555
O58 Ti1 2.096328 1_555
O59 Si8 1.708159 1_655
O59 Ti1 1.877776 1_555
O60 S6 1.459640 1_555
O61 Si4 1.634259 1_455
O62 S5 1.475023 1_565
O63 S4 1.497735 1_565
O64 Si3 1.659833 1_555
O65 S3 1.466040 1_455
O66 S0 1.508605 1_565
O67 S1 1.478154 1_555
O68 Si0 1.657394 1_555
O69 Si1 1.658788 1_555
O69 Ti2 1.935834 1_555
O70 S2 1.475381 1_555
O70 Ti2 2.181990 1_555
O71 Si2 1.699956 1_565
O71 Ti2 1.892780 1_555
