# generated using pymatgen
data_NaLaMnWO6
_symmetry_space_group_name_H-M   'P 1'
_cell_length_a   5.71115400
_cell_length_b   5.63942000
_cell_length_c   8.10666325
_cell_angle_alpha   89.82864948
_cell_angle_beta   90.00000000
_cell_angle_gamma   90.00000000
_symmetry_Int_Tables_number   1
_chemical_formula_structural   NaLaMnWO6
_chemical_formula_sum   'Na2 La2 Mn2 W2 O12'
_cell_volume   261.09496807
_cell_formula_units_Z   2
loop_
 _symmetry_equiv_pos_site_id
 _symmetry_equiv_pos_as_xyz
  1  'x, y, z'
loop_
 _atom_site_type_symbol
 _atom_site_label
 _atom_site_symmetry_multiplicity
 _atom_site_fract_x
 _atom_site_fract_y
 _atom_site_fract_z
 _atom_site_occupancy
  Na  Na0  1  0.77395500  0.25365800  0.50025000  1
  Na  Na1  1  0.27395500  0.74634200  0.49975000  1
  La  La0  1  0.71301500  0.24275300  0.00006600  1
  La  La1  1  0.21301500  0.75724700  0.99993400  1
  Mn  Mn0  1  0.74960600  0.74978800  0.73762400  1
  Mn  Mn1  1  0.24960600  0.25021200  0.26237600  1
  W  W0  1  0.75597600  0.74591300  0.26087800  1
  W  W1  1  0.25597600  0.25408700  0.73912200  1
  O  O0  1  0.22862400  0.16525000  0.51807000  1
  O  O1  1  0.72862400  0.83475000  0.48193000  1
  O  O2  1  0.27971800  0.33602000  0.99019000  1
  O  O3  1  0.77971800  0.66398000  0.00981000  1
  O  O4  1  0.54522400  0.42818200  0.71752200  1
  O  O5  1  0.04522400  0.57181800  0.28247800  1
  O  O6  1  0.57049100  0.46570600  0.27735800  1
  O  O7  1  0.07049100  0.53429400  0.72264200  1
  O  O8  1  0.49036400  0.95112500  0.19155600  1
  O  O9  1  0.99036400  0.04887500  0.80844400  1
  O  O10  1  0.95962500  0.02118200  0.19309700  1
  O  O11  1  0.45962500  0.97881800  0.80690300  1
loop_
_geom_bond_atom_site_label_1
_geom_bond_atom_site_label_2
_geom_bond_distance
_geom_bond_site_symmetry_2
Na0 O1 2.381618 1_545
Na0 O4 2.405799 1_555
Na0 O6 2.456070 1_555
Na0 O0 2.647977 1_655
Na0 O7 2.939424 1_655
Na0 O5 2.952490 1_655
Na1 O0 2.381618 1_565
Na1 O5 2.405799 1_555
Na1 O7 2.456070 1_555
Na1 O1 2.647977 1_555
Na1 O6 2.939424 1_555
Na1 O4 2.952490 1_555
La0 O3 2.407358 1_555
La0 O10 2.445817 1_555
La0 O9 2.475418 1_554
La0 O2 2.531122 1_554
La0 O8 2.591565 1_545
La0 O11 2.603018 1_544
La0 O4 2.691436 1_554
La0 O6 2.704338 1_555
La1 O2 2.407358 1_555
La1 O11 2.445817 1_555
La1 O8 2.475418 1_556
La1 O3 2.531122 1_456
La1 O9 2.591565 1_465
La1 O10 2.603018 1_466
La1 O5 2.691436 1_556
La1 O7 2.704338 1_555
Mn0 O1 2.129459 1_555
Mn0 O4 2.163381 1_555
Mn0 O11 2.175025 1_555
Mn0 O7 2.202499 1_655
Mn0 O9 2.251870 1_565
Mn0 O3 2.264086 1_556
Mn1 O0 2.129459 1_555
Mn1 O5 2.163381 1_555
Mn1 O10 2.175025 1_455
Mn1 O6 2.202499 1_555
Mn1 O8 2.251870 1_545
Mn1 O2 2.264086 1_554
O0 W1 1.868691 1_555
O1 W0 1.868691 1_555
O2 W1 2.092856 1_555
O3 W0 2.092856 1_555
O4 W1 1.929368 1_555
O5 W0 1.929368 1_455
O6 W0 1.906783 1_555
O7 W1 1.906783 1_555
O8 W0 1.988052 1_555
O9 W1 1.988052 1_655
O10 W0 2.014788 1_545
O11 W1 2.014788 1_565
