# generated using pymatgen
data_Ba2DyMg(CuO2)4
_symmetry_space_group_name_H-M   'P 1'
_cell_length_a   3.74716200
_cell_length_b   3.99118990
_cell_length_c   15.07452716
_cell_angle_alpha   98.42791620
_cell_angle_beta   90.00000000
_cell_angle_gamma   90.00000000
_symmetry_Int_Tables_number   1
_chemical_formula_structural   Ba2DyMg(CuO2)4
_chemical_formula_sum   'Ba2 Dy1 Mg1 Cu4 O8'
_cell_volume   223.01451187
_cell_formula_units_Z   1
loop_
 _symmetry_equiv_pos_site_id
 _symmetry_equiv_pos_as_xyz
  1  'x, y, z'
loop_
 _atom_site_type_symbol
 _atom_site_label
 _atom_site_symmetry_multiplicity
 _atom_site_fract_x
 _atom_site_fract_y
 _atom_site_fract_z
 _atom_site_occupancy
  Ba  Ba0  1  0.50000000  0.36708200  0.75240100  1
  Ba  Ba1  1  0.50000000  0.63291800  0.24759900  1
  Dy  Dy0  1  0.50000000  0.50000000  0.00000000  1
  Mg  Mg0  1  0.50000000  0.00000000  0.50000000  1
  Cu  Cu0  1  0.00000000  0.94383600  0.89219200  1
  Cu  Cu1  1  0.00000000  0.05616400  0.10780800  1
  Cu  Cu2  1  0.00000000  0.75224700  0.59074400  1
  Cu  Cu3  1  0.00000000  0.24775300  0.40925600  1
  O  O0  1  0.00000000  0.25750100  0.55257300  1
  O  O1  1  0.00000000  0.74249900  0.44742700  1
  O  O2  1  0.00000000  0.44875800  0.90109500  1
  O  O3  1  0.00000000  0.55124200  0.09890500  1
  O  O4  1  0.50000000  0.94992400  0.90441600  1
  O  O5  1  0.50000000  0.05007600  0.09558400  1
  O  O6  1  0.00000000  0.84581100  0.71553000  1
  O  O7  1  0.00000000  0.15418900  0.28447000  1
loop_
_geom_bond_atom_site_label_1
_geom_bond_atom_site_label_2
_geom_bond_distance
_geom_bond_site_symmetry_2
Ba0 O6 2.789499 1_555
Ba0 O6 2.789499 1_655
Ba0 O6 2.794408 1_645
Ba0 O6 2.794408 1_545
Ba0 O2 2.902873 1_655
Ba0 O2 2.902873 1_555
Ba0 O4 3.016620 1_555
Ba0 O4 3.023523 1_545
Ba1 O7 2.789499 1_555
Ba1 O7 2.789499 1_655
Ba1 O7 2.794408 1_665
Ba1 O7 2.794408 1_565
Ba1 O3 2.902873 1_655
Ba1 O3 2.902873 1_555
Ba1 O5 3.016620 1_555
Ba1 O5 3.023523 1_565
Dy0 O2 2.384464 1_554
Dy0 O2 2.384464 1_654
Dy0 O3 2.384464 1_555
Dy0 O3 2.384464 1_655
Dy0 O5 2.443132 1_565
Dy0 O4 2.443132 1_544
Dy0 O4 2.461556 1_554
Dy0 O5 2.461556 1_555
Mg0 O0 2.226178 1_655
Mg0 O1 2.226178 1_645
Mg0 O1 2.226178 1_545
Mg0 O0 2.226178 1_555
Cu0 O4 1.882429 1_455
Cu0 O4 1.882429 1_555
Cu0 O2 1.999980 1_565
Cu0 O2 2.000032 1_555
Cu0 O6 2.634338 1_555
Cu1 O5 1.882429 1_555
Cu1 O5 1.882429 1_455
Cu1 O3 1.999980 1_545
Cu1 O3 2.000032 1_555
Cu1 O7 2.634338 1_555
Cu2 O6 1.863341 1_555
Cu2 O0 1.974128 1_555
Cu2 O1 2.155077 1_555
Cu2 O0 2.176640 1_565
Cu3 O7 1.863341 1_555
Cu3 O1 1.974128 1_555
Cu3 O0 2.155077 1_555
Cu3 O1 2.176640 1_545
