# generated using pymatgen
data_Ba2MgNiWO6
_symmetry_space_group_name_H-M   'P 1'
_cell_length_a   7.09386939
_cell_length_b   7.09386920
_cell_length_c   6.44816955
_cell_angle_alpha   54.40171413
_cell_angle_beta   54.40171476
_cell_angle_gamma   51.35142731
_symmetry_Int_Tables_number   1
_chemical_formula_structural   Ba2MgNiWO6
_chemical_formula_sum   'Ba2 Mg1 Ni1 W1 O6'
_cell_volume   193.47613721
_cell_formula_units_Z   1
loop_
 _symmetry_equiv_pos_site_id
 _symmetry_equiv_pos_as_xyz
  1  'x, y, z'
loop_
 _atom_site_type_symbol
 _atom_site_label
 _atom_site_symmetry_multiplicity
 _atom_site_fract_x
 _atom_site_fract_y
 _atom_site_fract_z
 _atom_site_occupancy
  Ba  Ba0  1  0.32007483  0.32007483  0.30636568  1
  Ba  Ba1  1  0.70084992  0.70084992  0.79488874  1
  Mg  Mg0  1  0.08583003  0.08583003  0.11755167  1
  Ni  Ni0  1  0.47414380  0.47414380  0.52349313  1
  W  W0  1  0.94034971  0.94034971  0.89631627  1
  O  O0  1  0.27781821  0.75216722  0.72835063  1
  O  O1  1  0.28831366  0.72880091  0.25896186  1
  O  O2  1  0.75216722  0.27781821  0.72835064  1
  O  O3  1  0.26709544  0.26709544  0.76893355  1
  O  O4  1  0.72880091  0.28831366  0.25896186  1
  O  O5  1  0.78955627  0.78955627  0.25324298  1
loop_
_geom_bond_atom_site_label_1
_geom_bond_atom_site_label_2
_geom_bond_distance
_geom_bond_site_symmetry_2
Ba0 O3 2.597193 1_555
Ba0 O1 2.604496 1_555
Ba0 O4 2.604496 1_555
Ba0 O5 3.144738 1_545
Ba0 O5 3.144738 1_455
Ba0 O0 3.198376 1_554
Ba0 O2 3.198376 1_554
Ba0 O0 3.394227 1_545
Ba0 O2 3.394227 1_455
Ba1 O4 2.707207 1_556
Ba1 O1 2.707207 1_556
Ba1 O5 2.892687 1_555
Ba1 O2 3.045448 1_555
Ba1 O0 3.045448 1_555
Ba1 O3 3.163779 1_565
Ba1 O3 3.163779 1_655
Mg0 O1 1.897730 1_545
Mg0 O4 1.897730 1_455
Mg0 O3 1.922273 1_554
Ni0 O1 1.991639 1_555
Ni0 O4 1.991639 1_555
Ni0 O3 2.025226 1_555
Ni0 O0 2.243809 1_555
Ni0 O2 2.243810 1_555
O0 W0 1.832760 1_455
O2 W0 1.832760 1_545
O5 W0 1.811753 1_554
