# generated using pymatgen
data_K2Mg(CoO2)2
_symmetry_space_group_name_H-M   'P 1'
_cell_length_a   7.66256163
_cell_length_b   7.66256160
_cell_length_c   7.08211463
_cell_angle_alpha   57.21670095
_cell_angle_beta   122.78330005
_cell_angle_gamma   154.43279499
_symmetry_Int_Tables_number   1
_chemical_formula_structural   K2Mg(CoO2)2
_chemical_formula_sum   'K2 Mg1 Co2 O4'
_cell_volume   149.25476023
_cell_formula_units_Z   1
loop_
 _symmetry_equiv_pos_site_id
 _symmetry_equiv_pos_as_xyz
  1  'x, y, z'
loop_
 _atom_site_type_symbol
 _atom_site_label
 _atom_site_symmetry_multiplicity
 _atom_site_fract_x
 _atom_site_fract_y
 _atom_site_fract_z
 _atom_site_occupancy
  K  K0  1  0.23655180  0.76344820  0.76033871  1
  K  K1  1  0.73658279  0.26341721  0.25477280  1
  Mg  Mg0  1  0.44528062  0.55471938  0.32770583  1
  Co  Co0  1  0.03975215  0.96024785  0.19056772  1
  Co  Co1  1  0.97242631  0.02757369  0.71947645  1
  O  O0  1  0.09440756  0.90559244  0.99496250  1
  O  O1  1  0.40575154  0.59424846  0.55647419  1
  O  O2  1  0.59360525  0.40639475  0.38769269  1
  O  O3  1  0.89230898  0.10769102  0.14729512  1
loop_
_geom_bond_atom_site_label_1
_geom_bond_atom_site_label_2
_geom_bond_distance
_geom_bond_site_symmetry_2
K0 O2 2.853568 1_455
K0 O2 2.853568 1_565
K0 O3 2.952914 1_566
K0 O3 2.952914 1_456
K0 O0 3.345721 1_555
K1 O0 2.536477 1_544
K1 O0 2.536477 1_654
K1 O2 2.772347 1_555
K1 O1 2.798834 1_655
K1 O1 2.798834 1_545
K1 O3 2.821915 1_555
Mg0 O3 2.002671 1_455
Mg0 O3 2.002671 1_565
Mg0 O1 2.009181 1_555
Mg0 O2 2.012137 1_555
Co0 O0 1.960313 1_554
Co0 O3 2.049333 1_465
Co0 O2 2.055172 1_565
Co0 O2 2.055172 1_455
Co1 O0 1.783346 1_645
Co1 O1 1.980632 1_545
Co1 O1 1.980632 1_655
