# generated using pymatgen
data_AlH18C3(N3F2)3
_symmetry_space_group_name_H-M   'P 1'
_cell_length_a   14.07811746
_cell_length_b   14.07811746
_cell_length_c   14.07811746
_cell_angle_alpha   90.00000000
_cell_angle_beta   90.00000000
_cell_angle_gamma   90.00000000
_symmetry_Int_Tables_number   1
_chemical_formula_structural   AlH18C3(N3F2)3
_chemical_formula_sum   'Al8 H144 C24 N72 F48'
_cell_volume   2790.18984136
_cell_formula_units_Z   8
loop_
 _symmetry_equiv_pos_site_id
 _symmetry_equiv_pos_as_xyz
  1  'x, y, z'
loop_
 _atom_site_type_symbol
 _atom_site_label
 _atom_site_symmetry_multiplicity
 _atom_site_fract_x
 _atom_site_fract_y
 _atom_site_fract_z
 _atom_site_occupancy
  H  H0  1  0.90054115  0.81402239  0.53124853  1
  H  H1  1  0.53124853  0.90054115  0.81402239  1
  H  H2  1  0.81402239  0.53124853  0.90054115  1
  H  H3  1  0.68597761  0.46875147  0.40054115  1
  H  H4  1  0.03124853  0.59945885  0.18597761  1
  H  H5  1  0.18597761  0.03124853  0.59945885  1
  H  H6  1  0.96875147  0.09945885  0.31402239  1
  H  H7  1  0.46875147  0.40054115  0.68597761  1
  H  H8  1  0.31402239  0.96875147  0.09945885  1
  H  H9  1  0.40054115  0.68597761  0.46875147  1
  H  H10  1  0.09945885  0.31402239  0.96875147  1
  H  H11  1  0.59945885  0.18597761  0.03124853  1
  H  H12  1  0.09945885  0.18597761  0.46875147  1
  H  H13  1  0.46875147  0.09945885  0.18597761  1
  H  H14  1  0.18597761  0.46875147  0.09945885  1
  H  H15  1  0.31402239  0.53124853  0.59945885  1
  H  H16  1  0.96875147  0.40054115  0.81402239  1
  H  H17  1  0.81402239  0.96875147  0.40054115  1
  H  H18  1  0.03124853  0.90054115  0.68597761  1
  H  H19  1  0.53124853  0.59945885  0.31402239  1
  H  H20  1  0.68597761  0.03124853  0.90054115  1
  H  H21  1  0.59945885  0.31402239  0.53124853  1
  H  H22  1  0.90054115  0.68597761  0.03124853  1
  H  H23  1  0.40054115  0.81402239  0.96875147  1
  H  H24  1  0.90113988  0.69093939  0.51509886  1
  H  H25  1  0.51509886  0.90113988  0.69093939  1
  H  H26  1  0.69093939  0.51509886  0.90113988  1
  H  H27  1  0.80906061  0.48490114  0.40113988  1
  H  H28  1  0.01509886  0.59886012  0.30906061  1
  H  H29  1  0.30906061  0.01509886  0.59886012  1
  H  H30  1  0.98490114  0.09886012  0.19093939  1
  H  H31  1  0.48490114  0.40113988  0.80906061  1
  H  H32  1  0.19093939  0.98490114  0.09886012  1
  H  H33  1  0.40113988  0.80906061  0.48490114  1
  H  H34  1  0.09886012  0.19093939  0.98490114  1
  H  H35  1  0.59886012  0.30906061  0.01509886  1
  H  H36  1  0.09886012  0.30906061  0.48490114  1
  H  H37  1  0.48490114  0.09886012  0.30906061  1
  H  H38  1  0.30906061  0.48490114  0.09886012  1
  H  H39  1  0.19093939  0.51509886  0.59886012  1
  H  H40  1  0.98490114  0.40113988  0.69093939  1
  H  H41  1  0.69093939  0.98490114  0.40113988  1
  H  H42  1  0.01509886  0.90113988  0.80906061  1
  H  H43  1  0.51509886  0.59886012  0.19093939  1
  H  H44  1  0.80906061  0.01509886  0.90113988  1
  H  H45  1  0.59886012  0.19093939  0.51509886  1
  H  H46  1  0.90113988  0.80906061  0.01509886  1
  H  H47  1  0.40113988  0.69093939  0.98490114  1
  H  H48  1  0.64932745  0.83738561  0.53919302  1
  H  H49  1  0.53919302  0.64932745  0.83738561  1
  H  H50  1  0.83738561  0.53919302  0.64932745  1
  H  H51  1  0.66261439  0.46080698  0.14932745  1
  H  H52  1  0.03919302  0.85067255  0.16261439  1
  H  H53  1  0.16261439  0.03919302  0.85067255  1
  H  H54  1  0.96080698  0.35067255  0.33738561  1
  H  H55  1  0.46080698  0.14932745  0.66261439  1
  H  H56  1  0.33738561  0.96080698  0.35067255  1
  H  H57  1  0.14932745  0.66261439  0.46080698  1
  H  H58  1  0.35067255  0.33738561  0.96080698  1
  H  H59  1  0.85067255  0.16261439  0.03919302  1
  H  H60  1  0.35067255  0.16261439  0.46080698  1
  H  H61  1  0.46080698  0.35067255  0.16261439  1
  H  H62  1  0.16261439  0.46080698  0.35067255  1
  H  H63  1  0.33738561  0.53919302  0.85067255  1
  H  H64  1  0.96080698  0.14932745  0.83738561  1
  H  H65  1  0.83738561  0.96080698  0.14932745  1
  H  H66  1  0.03919302  0.64932745  0.66261439  1
  H  H67  1  0.53919302  0.85067255  0.33738561  1
  H  H68  1  0.66261439  0.03919302  0.64932745  1
  H  H69  1  0.85067255  0.33738561  0.53919302  1
  H  H70  1  0.64932745  0.66261439  0.03919302  1
  H  H71  1  0.14932745  0.83738561  0.96080698  1
  H  H72  1  0.76030413  0.89236675  0.54626473  1
  H  H73  1  0.54626473  0.76030413  0.89236675  1
  H  H74  1  0.89236675  0.54626473  0.76030413  1
  H  H75  1  0.60763325  0.45373527  0.26030413  1
  H  H76  1  0.04626473  0.73969587  0.10763325  1
  H  H77  1  0.10763325  0.04626473  0.73969587  1
  H  H78  1  0.95373527  0.23969587  0.39236675  1
  H  H79  1  0.45373527  0.26030413  0.60763325  1
  H  H80  1  0.39236675  0.95373527  0.23969587  1
  H  H81  1  0.26030413  0.60763325  0.45373527  1
  H  H82  1  0.23969587  0.39236675  0.95373527  1
  H  H83  1  0.73969587  0.10763325  0.04626473  1
  H  H84  1  0.23969587  0.10763325  0.45373527  1
  H  H85  1  0.45373527  0.23969587  0.10763325  1
  H  H86  1  0.10763325  0.45373527  0.23969587  1
  H  H87  1  0.39236675  0.54626473  0.73969587  1
  H  H88  1  0.95373527  0.26030413  0.89236675  1
  H  H89  1  0.89236675  0.95373527  0.26030413  1
  H  H90  1  0.04626473  0.76030413  0.60763325  1
  H  H91  1  0.54626473  0.73969587  0.39236675  1
  H  H92  1  0.60763325  0.04626473  0.76030413  1
  H  H93  1  0.73969587  0.39236675  0.54626473  1
  H  H94  1  0.76030413  0.60763325  0.04626473  1
  H  H95  1  0.26030413  0.89236675  0.95373527  1
  H  H96  1  0.65128257  0.66114695  0.51234072  1
  H  H97  1  0.51234072  0.65128257  0.66114695  1
  H  H98  1  0.66114695  0.51234072  0.65128257  1
  H  H99  1  0.83885305  0.48765928  0.15128257  1
  H  H100  1  0.01234072  0.84871743  0.33885305  1
  H  H101  1  0.33885305  0.01234072  0.84871743  1
  H  H102  1  0.98765928  0.34871743  0.16114695  1
  H  H103  1  0.48765928  0.15128257  0.83885305  1
  H  H104  1  0.16114695  0.98765928  0.34871743  1
  H  H105  1  0.15128257  0.83885305  0.48765928  1
  H  H106  1  0.34871743  0.16114695  0.98765928  1
  H  H107  1  0.84871743  0.33885305  0.01234072  1
  H  H108  1  0.34871743  0.33885305  0.48765928  1
  H  H109  1  0.48765928  0.34871743  0.33885305  1
  H  H110  1  0.33885305  0.48765928  0.34871743  1
  H  H111  1  0.16114695  0.51234072  0.84871743  1
  H  H112  1  0.98765928  0.15128257  0.66114695  1
  H  H113  1  0.66114695  0.98765928  0.15128257  1
  H  H114  1  0.01234072  0.65128257  0.83885305  1
  H  H115  1  0.51234072  0.84871743  0.16114695  1
  H  H116  1  0.83885305  0.01234072  0.65128257  1
  H  H117  1  0.84871743  0.16114695  0.51234072  1
  H  H118  1  0.65128257  0.83885305  0.01234072  1
  H  H119  1  0.15128257  0.66114695  0.98765928  1
  H  H120  1  0.76407268  0.60889404  0.50620258  1
  H  H121  1  0.50620258  0.76407268  0.60889404  1
  H  H122  1  0.60889404  0.50620258  0.76407268  1
  H  H123  1  0.89110596  0.49379742  0.26407268  1
  H  H124  1  0.00620258  0.73592732  0.39110596  1
  H  H125  1  0.39110596  0.00620258  0.73592732  1
  H  H126  1  0.99379742  0.23592732  0.10889404  1
  H  H127  1  0.49379742  0.26407268  0.89110596  1
  H  H128  1  0.10889404  0.99379742  0.23592732  1
  H  H129  1  0.26407268  0.89110596  0.49379742  1
  H  H130  1  0.23592732  0.10889404  0.99379742  1
  H  H131  1  0.73592732  0.39110596  0.00620258  1
  H  H132  1  0.23592732  0.39110596  0.49379742  1
  H  H133  1  0.49379742  0.23592732  0.39110596  1
  H  H134  1  0.39110596  0.49379742  0.23592732  1
  H  H135  1  0.10889404  0.50620258  0.73592732  1
  H  H136  1  0.99379742  0.26407268  0.60889404  1
  H  H137  1  0.60889404  0.99379742  0.26407268  1
  H  H138  1  0.00620258  0.76407268  0.89110596  1
  H  H139  1  0.50620258  0.73592732  0.10889404  1
  H  H140  1  0.89110596  0.00620258  0.76407268  1
  H  H141  1  0.73592732  0.10889404  0.50620258  1
  H  H142  1  0.76407268  0.89110596  0.00620258  1
  H  H143  1  0.26407268  0.60889404  0.99379742  1
  C  C0  1  0.76856872  0.75043396  0.52934406  1
  C  C1  1  0.52934406  0.76856872  0.75043396  1
  C  C2  1  0.75043396  0.52934406  0.76856872  1
  C  C3  1  0.74956604  0.47065594  0.26856872  1
  C  C4  1  0.02934406  0.73143128  0.24956604  1
  C  C5  1  0.24956604  0.02934406  0.73143128  1
  C  C6  1  0.97065594  0.23143128  0.25043396  1
  C  C7  1  0.47065594  0.26856872  0.74956604  1
  C  C8  1  0.25043396  0.97065594  0.23143128  1
  C  C9  1  0.26856872  0.74956604  0.47065594  1
  C  C10  1  0.23143128  0.25043396  0.97065594  1
  C  C11  1  0.73143128  0.24956604  0.02934406  1
  C  C12  1  0.23143128  0.24956604  0.47065594  1
  C  C13  1  0.47065594  0.23143128  0.24956604  1
  C  C14  1  0.24956604  0.47065594  0.23143128  1
  C  C15  1  0.25043396  0.52934406  0.73143128  1
  C  C16  1  0.97065594  0.26856872  0.75043396  1
  C  C17  1  0.75043396  0.97065594  0.26856872  1
  C  C18  1  0.02934406  0.76856872  0.74956604  1
  C  C19  1  0.52934406  0.73143128  0.25043396  1
  C  C20  1  0.74956604  0.02934406  0.76856872  1
  C  C21  1  0.73143128  0.25043396  0.52934406  1
  C  C22  1  0.76856872  0.74956604  0.02934406  1
  C  C23  1  0.26856872  0.75043396  0.97065594  1
  N  N0  1  0.86359847  0.75187604  0.52630195  1
  N  N1  1  0.52630195  0.86359847  0.75187604  1
  N  N2  1  0.75187604  0.52630195  0.86359847  1
  N  N3  1  0.74812396  0.47369805  0.36359847  1
  N  N4  1  0.02630195  0.63640153  0.24812396  1
  N  N5  1  0.24812396  0.02630195  0.63640153  1
  N  N6  1  0.97369805  0.13640153  0.25187604  1
  N  N7  1  0.47369805  0.36359847  0.74812396  1
  N  N8  1  0.25187604  0.97369805  0.13640153  1
  N  N9  1  0.36359847  0.74812396  0.47369805  1
  N  N10  1  0.13640153  0.25187604  0.97369805  1
  N  N11  1  0.63640153  0.24812396  0.02630195  1
  N  N12  1  0.13640153  0.24812396  0.47369805  1
  N  N13  1  0.47369805  0.13640153  0.24812396  1
  N  N14  1  0.24812396  0.47369805  0.13640153  1
  N  N15  1  0.25187604  0.52630195  0.63640153  1
  N  N16  1  0.97369805  0.36359847  0.75187604  1
  N  N17  1  0.75187604  0.97369805  0.36359847  1
  N  N18  1  0.02630195  0.86359847  0.74812396  1
  N  N19  1  0.52630195  0.63640153  0.25187604  1
  N  N20  1  0.74812396  0.02630195  0.86359847  1
  N  N21  1  0.63640153  0.25187604  0.52630195  1
  N  N22  1  0.86359847  0.74812396  0.02630195  1
  N  N23  1  0.36359847  0.75187604  0.97369805  1
  N  N24  1  0.72148904  0.83136266  0.54597369  1
  N  N25  1  0.54597369  0.72148904  0.83136266  1
  N  N26  1  0.83136266  0.54597369  0.72148904  1
  N  N27  1  0.66863734  0.45402631  0.22148904  1
  N  N28  1  0.04597369  0.77851096  0.16863734  1
  N  N29  1  0.16863734  0.04597369  0.77851096  1
  N  N30  1  0.95402631  0.27851096  0.33136266  1
  N  N31  1  0.45402631  0.22148904  0.66863734  1
  N  N32  1  0.33136266  0.95402631  0.27851096  1
  N  N33  1  0.22148904  0.66863734  0.45402631  1
  N  N34  1  0.27851096  0.33136266  0.95402631  1
  N  N35  1  0.77851096  0.16863734  0.04597369  1
  N  N36  1  0.27851096  0.16863734  0.45402631  1
  N  N37  1  0.45402631  0.27851096  0.16863734  1
  N  N38  1  0.16863734  0.45402631  0.27851096  1
  N  N39  1  0.33136266  0.54597369  0.77851096  1
  N  N40  1  0.95402631  0.22148904  0.83136266  1
  N  N41  1  0.83136266  0.95402631  0.22148904  1
  N  N42  1  0.04597369  0.72148904  0.66863734  1
  N  N43  1  0.54597369  0.77851096  0.33136266  1
  N  N44  1  0.66863734  0.04597369  0.72148904  1
  N  N45  1  0.77851096  0.33136266  0.54597369  1
  N  N46  1  0.72148904  0.66863734  0.04597369  1
  N  N47  1  0.22148904  0.83136266  0.95402631  1
  N  N48  1  0.72348894  0.66772207  0.51755964  1
  N  N49  1  0.51755964  0.72348894  0.66772207  1
  N  N50  1  0.66772207  0.51755964  0.72348894  1
  N  N51  1  0.83227793  0.48244036  0.22348894  1
  N  N52  1  0.01755964  0.77651106  0.33227793  1
  N  N53  1  0.33227793  0.01755964  0.77651106  1
  N  N54  1  0.98244036  0.27651106  0.16772207  1
  N  N55  1  0.48244036  0.22348894  0.83227793  1
  N  N56  1  0.16772207  0.98244036  0.27651106  1
  N  N57  1  0.22348894  0.83227793  0.48244036  1
  N  N58  1  0.27651106  0.16772207  0.98244036  1
  N  N59  1  0.77651106  0.33227793  0.01755964  1
  N  N60  1  0.27651106  0.33227793  0.48244036  1
  N  N61  1  0.48244036  0.27651106  0.33227793  1
  N  N62  1  0.33227793  0.48244036  0.27651106  1
  N  N63  1  0.16772207  0.51755964  0.77651106  1
  N  N64  1  0.98244036  0.22348894  0.66772207  1
  N  N65  1  0.66772207  0.98244036  0.22348894  1
  N  N66  1  0.01755964  0.72348894  0.83227793  1
  N  N67  1  0.51755964  0.77651106  0.16772207  1
  N  N68  1  0.83227793  0.01755964  0.72348894  1
  N  N69  1  0.77651106  0.16772207  0.51755964  1
  N  N70  1  0.72348894  0.83227793  0.01755964  1
  N  N71  1  0.22348894  0.66772207  0.98244036  1
  F  F0  1  0.02966718  0.62555643  0.02480065  1
  F  F1  1  0.02480065  0.02966718  0.62555643  1
  F  F2  1  0.62555643  0.02480065  0.02966718  1
  F  F3  1  0.87444357  0.97519935  0.52966718  1
  F  F4  1  0.52480065  0.47033282  0.37444357  1
  F  F5  1  0.37444357  0.52480065  0.47033282  1
  F  F6  1  0.47519935  0.97033282  0.12555643  1
  F  F7  1  0.97519935  0.52966718  0.87444357  1
  F  F8  1  0.12555643  0.47519935  0.97033282  1
  F  F9  1  0.52966718  0.87444357  0.97519935  1
  F  F10  1  0.97033282  0.12555643  0.47519935  1
  F  F11  1  0.47033282  0.37444357  0.52480065  1
  F  F12  1  0.97033282  0.37444357  0.97519935  1
  F  F13  1  0.97519935  0.97033282  0.37444357  1
  F  F14  1  0.37444357  0.97519935  0.97033282  1
  F  F15  1  0.12555643  0.02480065  0.47033282  1
  F  F16  1  0.47519935  0.52966718  0.62555643  1
  F  F17  1  0.62555643  0.47519935  0.52966718  1
  F  F18  1  0.52480065  0.02966718  0.87444357  1
  F  F19  1  0.02480065  0.47033282  0.12555643  1
  F  F20  1  0.87444357  0.52480065  0.02966718  1
  F  F21  1  0.47033282  0.12555643  0.02480065  1
  F  F22  1  0.02966718  0.87444357  0.52480065  1
  F  F23  1  0.52966718  0.62555643  0.47519935  1
  F  F24  1  0.02197935  0.62649586  0.47235802  1
  F  F25  1  0.47235802  0.02197935  0.62649586  1
  F  F26  1  0.62649586  0.47235802  0.02197935  1
  F  F27  1  0.87350414  0.52764198  0.52197935  1
  F  F28  1  0.97235802  0.47802065  0.37350414  1
  F  F29  1  0.37350414  0.97235802  0.47802065  1
  F  F30  1  0.02764198  0.97802065  0.12649586  1
  F  F31  1  0.52764198  0.52197935  0.87350414  1
  F  F32  1  0.12649586  0.02764198  0.97802065  1
  F  F33  1  0.52197935  0.87350414  0.52764198  1
  F  F34  1  0.97802065  0.12649586  0.02764198  1
  F  F35  1  0.47802065  0.37350414  0.97235802  1
  F  F36  1  0.97802065  0.37350414  0.52764198  1
  F  F37  1  0.52764198  0.97802065  0.37350414  1
  F  F38  1  0.37350414  0.52764198  0.97802065  1
  F  F39  1  0.12649586  0.47235802  0.47802065  1
  F  F40  1  0.02764198  0.52197935  0.62649586  1
  F  F41  1  0.62649586  0.02764198  0.52197935  1
  F  F42  1  0.97235802  0.02197935  0.87350414  1
  F  F43  1  0.47235802  0.47802065  0.12649586  1
  F  F44  1  0.87350414  0.97235802  0.02197935  1
  F  F45  1  0.47802065  0.12649586  0.47235802  1
  F  F46  1  0.02197935  0.87350414  0.97235802  1
  F  F47  1  0.52197935  0.62649586  0.02764198  1
  Al  Al0  1  0.00000000  0.50000000  0.00000000  1
  Al  Al1  1  0.00000000  0.00000000  0.50000000  1
  Al  Al2  1  0.50000000  0.00000000  0.00000000  1
  Al  Al3  1  0.50000000  0.50000000  0.50000000  1
  Al  Al4  1  0.00000000  0.50000000  0.50000000  1
  Al  Al5  1  0.50000000  0.00000000  0.50000000  1
  Al  Al6  1  0.50000000  0.50000000  0.00000000  1
  Al  Al7  1  0.00000000  0.00000000  0.00000000  1
loop_
_geom_bond_atom_site_label_1
_geom_bond_atom_site_label_2
_geom_bond_distance
_geom_bond_site_symmetry_2
H0 N0 1.020192 1_555
H1 N1 1.020192 1_555
H2 N2 1.020192 1_555
H3 N3 1.020192 1_555
H4 N4 1.020192 1_555
H5 N5 1.020192 1_555
H6 N6 1.020192 1_555
H7 N7 1.020192 1_555
H8 N8 1.020192 1_555
H9 N9 1.020192 1_555
H10 N10 1.020192 1_555
H11 N11 1.020192 1_555
H12 N12 1.020192 1_555
H13 N13 1.020192 1_555
H14 N14 1.020192 1_555
H15 N15 1.020192 1_555
H16 N16 1.020192 1_555
H17 N17 1.020192 1_555
H18 N18 1.020192 1_555
H19 N19 1.020192 1_555
H20 N20 1.020192 1_555
H21 N21 1.020192 1_555
H22 N22 1.020192 1_555
H23 N23 1.020192 1_555
H24 N0 1.019876 1_555
H25 N1 1.019876 1_555
H26 N2 1.019876 1_555
H27 N3 1.019876 1_555
H28 N4 1.019876 1_555
H29 N5 1.019876 1_555
H30 N6 1.019876 1_555
H31 N7 1.019876 1_555
H32 N8 1.019876 1_555
H33 N9 1.019876 1_555
H34 N10 1.019876 1_555
H35 N11 1.019876 1_555
H36 N12 1.019876 1_555
H37 N13 1.019876 1_555
H38 N14 1.019876 1_555
H39 N15 1.019876 1_555
H40 N16 1.019876 1_555
H41 N17 1.019876 1_555
H42 N18 1.019876 1_555
H43 N19 1.019876 1_555
H44 N20 1.019876 1_555
H45 N21 1.019876 1_555
H46 N22 1.019876 1_555
H47 N23 1.019876 1_555
H48 N24 1.023891 1_555
H49 N25 1.023891 1_555
H50 N26 1.023891 1_555
H51 N27 1.023891 1_555
H52 N28 1.023891 1_555
H53 N29 1.023891 1_555
H54 N30 1.023891 1_555
H55 N31 1.023891 1_555
H56 N32 1.023891 1_555
H57 N33 1.023891 1_555
H58 N34 1.023891 1_555
H59 N35 1.023891 1_555
H60 N36 1.023891 1_555
H61 N37 1.023891 1_555
H62 N38 1.023891 1_555
H63 N39 1.023891 1_555
H64 N40 1.023891 1_555
H65 N41 1.023891 1_555
H66 N42 1.023891 1_555
H67 N43 1.023891 1_555
H68 N44 1.023891 1_555
H69 N45 1.023891 1_555
H70 N46 1.023891 1_555
H71 N47 1.023891 1_555
H72 N24 1.017936 1_555
H73 N25 1.017936 1_555
H74 N26 1.017936 1_555
H75 N27 1.017936 1_555
H76 N28 1.017936 1_555
H77 N29 1.017936 1_555
H78 N30 1.017936 1_555
H79 N31 1.017936 1_555
H80 N32 1.017936 1_555
H81 N33 1.017936 1_555
H82 N34 1.017936 1_555
H83 N35 1.017936 1_555
H84 N36 1.017936 1_555
H85 N37 1.017936 1_555
H86 N38 1.017936 1_555
H87 N39 1.017936 1_555
H88 N40 1.017936 1_555
H89 N41 1.017936 1_555
H90 N42 1.017936 1_555
H91 N43 1.017936 1_555
H92 N44 1.017936 1_555
H93 N45 1.017936 1_555
H94 N46 1.017936 1_555
H95 N47 1.017936 1_555
H96 N48 1.023376 1_555
H97 N49 1.023376 1_555
H98 N50 1.023376 1_555
H99 N51 1.023376 1_555
H100 N52 1.023376 1_555
H101 N53 1.023376 1_555
H102 N54 1.023376 1_555
H103 N55 1.023376 1_555
H104 N56 1.023376 1_555
H105 N57 1.023376 1_555
H106 N58 1.023376 1_555
H107 N59 1.023376 1_555
H108 N60 1.023376 1_555
H109 N61 1.023376 1_555
H110 N62 1.023376 1_555
H111 N63 1.023376 1_555
H112 N64 1.023376 1_555
H113 N65 1.023376 1_555
H114 N66 1.023376 1_555
H115 N67 1.023376 1_555
H116 N68 1.023376 1_555
H117 N69 1.023376 1_555
H118 N70 1.023376 1_555
H119 N71 1.023376 1_555
H120 N48 1.018769 1_555
H121 N49 1.018769 1_555
H122 N50 1.018769 1_555
H123 N51 1.018769 1_555
H124 N52 1.018769 1_555
H125 N53 1.018769 1_555
H126 N54 1.018769 1_555
H127 N55 1.018769 1_555
H128 N56 1.018769 1_555
H129 N57 1.018769 1_555
H130 N58 1.018769 1_555
H131 N59 1.018769 1_555
H132 N60 1.018769 1_555
H133 N61 1.018769 1_555
H134 N62 1.018769 1_555
H135 N63 1.018769 1_555
H136 N64 1.018769 1_555
H137 N65 1.018769 1_555
H138 N66 1.018769 1_555
H139 N67 1.018769 1_555
H140 N68 1.018769 1_555
H141 N69 1.018769 1_555
H142 N70 1.018769 1_555
H143 N71 1.018769 1_555
C0 N48 1.336481 1_555
C0 N0 1.338679 1_555
C0 N24 1.338717 1_555
C1 N49 1.336481 1_555
C1 N1 1.338679 1_555
C1 N25 1.338717 1_555
C2 N50 1.336481 1_555
C2 N2 1.338679 1_555
C2 N26 1.338717 1_555
C3 N51 1.336481 1_555
C3 N3 1.338679 1_555
C3 N27 1.338717 1_555
C4 N52 1.336481 1_555
C4 N4 1.338679 1_555
C4 N28 1.338717 1_555
C5 N53 1.336481 1_555
C5 N5 1.338679 1_555
C5 N29 1.338717 1_555
C6 N54 1.336481 1_555
C6 N6 1.338679 1_555
C6 N30 1.338717 1_555
C7 N55 1.336481 1_555
C7 N7 1.338679 1_555
C7 N31 1.338717 1_555
C8 N56 1.336481 1_555
C8 N8 1.338679 1_555
C8 N32 1.338717 1_555
C9 N57 1.336481 1_555
C9 N9 1.338679 1_555
C9 N33 1.338717 1_555
C10 N58 1.336481 1_555
C10 N10 1.338679 1_555
C10 N34 1.338717 1_555
C11 N59 1.336481 1_555
C11 N11 1.338679 1_555
C11 N35 1.338717 1_555
C12 N60 1.336481 1_555
C12 N12 1.338679 1_555
C12 N36 1.338717 1_555
C13 N61 1.336481 1_555
C13 N13 1.338679 1_555
C13 N37 1.338717 1_555
C14 N62 1.336481 1_555
C14 N14 1.338679 1_555
C14 N38 1.338717 1_555
C15 N63 1.336481 1_555
C15 N15 1.338679 1_555
C15 N39 1.338717 1_555
C16 N64 1.336481 1_555
C16 N16 1.338679 1_555
C16 N40 1.338717 1_555
C17 N65 1.336481 1_555
C17 N17 1.338679 1_555
C17 N41 1.338717 1_555
C18 N66 1.336481 1_555
C18 N18 1.338679 1_555
C18 N42 1.338717 1_555
C19 N67 1.336481 1_555
C19 N19 1.338679 1_555
C19 N43 1.338717 1_555
C20 N68 1.336481 1_555
C20 N20 1.338679 1_555
C20 N44 1.338717 1_555
C21 N69 1.336481 1_555
C21 N21 1.338679 1_555
C21 N45 1.338717 1_555
C22 N70 1.336481 1_555
C22 N22 1.338679 1_555
C22 N46 1.338717 1_555
C23 N71 1.336481 1_555
C23 N23 1.338679 1_555
C23 N47 1.338717 1_555
Al0 F7 1.849526 1_454
Al0 F20 1.849526 1_455
Al0 F8 1.849526 1_554
Al0 F12 1.849526 1_454
Al0 F19 1.849526 1_555
Al0 F0 1.849526 1_555
Al1 F3 1.849526 1_445
Al1 F22 1.849526 1_545
Al1 F10 1.849526 1_455
Al1 F13 1.849526 1_445
Al1 F15 1.849526 1_555
Al1 F1 1.849526 1_555
Al2 F9 1.849526 1_544
Al2 F18 1.849526 1_554
Al2 F6 1.849526 1_545
Al2 F21 1.849526 1_555
Al2 F14 1.849526 1_544
Al2 F2 1.849526 1_555
Al3 F4 1.849526 1_555
Al3 F5 1.849526 1_555
Al3 F11 1.849526 1_555
Al3 F16 1.849526 1_555
Al3 F23 1.849526 1_555
Al3 F17 1.849526 1_555
Al4 F28 1.848922 1_455
Al4 F39 1.848922 1_555
Al4 F36 1.848922 1_455
Al4 F24 1.848922 1_555
Al4 F40 1.848922 1_555
Al4 F27 1.848922 1_455
Al5 F37 1.848922 1_545
Al5 F25 1.848922 1_555
Al5 F45 1.848922 1_555
Al5 F29 1.848922 1_545
Al5 F41 1.848922 1_555
Al5 F33 1.848922 1_545
Al6 F43 1.848922 1_555
Al6 F35 1.848922 1_554
Al6 F26 1.848922 1_555
Al6 F38 1.848922 1_554
Al6 F47 1.848922 1_555
Al6 F31 1.848922 1_554
Al7 F44 1.848922 1_445
Al7 F42 1.848922 1_454
Al7 F34 1.848922 1_455
Al7 F46 1.848922 1_544
Al7 F30 1.848922 1_545
Al7 F32 1.848922 1_554
