# generated using pymatgen
data_MgNb3O7F
_symmetry_space_group_name_H-M   'P 1'
_cell_length_a   6.50357122
_cell_length_b   6.54579237
_cell_length_c   4.00721000
_cell_angle_alpha   90.00000000
_cell_angle_beta   90.00000000
_cell_angle_gamma   61.22977041
_symmetry_Int_Tables_number   1
_chemical_formula_structural   MgNb3O7F
_chemical_formula_sum   'Mg1 Nb3 O7 F1'
_cell_volume   149.53275337
_cell_formula_units_Z   1
loop_
 _symmetry_equiv_pos_site_id
 _symmetry_equiv_pos_as_xyz
  1  'x, y, z'
loop_
 _atom_site_type_symbol
 _atom_site_label
 _atom_site_symmetry_multiplicity
 _atom_site_fract_x
 _atom_site_fract_y
 _atom_site_fract_z
 _atom_site_occupancy
  Mg  Mg0  1  0.04253000  0.65638000  0.50000000  1
  Nb  Nb0  1  0.98587900  0.03224100  0.00000000  1
  Nb  Nb1  1  0.32172100  0.27869700  0.00000000  1
  Nb  Nb2  1  0.67974200  0.70194800  0.00000000  1
  O  O0  1  0.04687800  0.66004000  0.00000000  1
  O  O1  1  0.33592100  0.95834200  0.00000000  1
  O  O2  1  0.00614100  0.97643600  0.50000000  1
  O  O3  1  0.29664600  0.32274900  0.50000000  1
  O  O4  1  0.70878400  0.69231400  0.50000000  1
  O  O5  1  0.95288000  0.34394900  0.00000000  1
  O  O6  1  0.66273100  0.03734400  0.00000000  1
  F  F0  1  0.50181300  0.49580800  0.00000000  1
loop_
_geom_bond_atom_site_label_1
_geom_bond_atom_site_label_2
_geom_bond_distance
_geom_bond_site_symmetry_2
Mg0 O2 1.991948 1_555
Mg0 O0 2.004110 1_555
Mg0 O0 2.004110 1_556
Mg0 O3 2.006590 1_555
Mg0 O4 2.067637 1_455
Nb0 O5 1.946197 1_555
Nb0 O2 2.029507 1_644
Nb0 O2 2.029507 1_645
Nb0 O6 2.085745 1_555
Nb0 O1 2.087228 1_645
Nb0 O0 2.272181 1_645
Nb1 O6 2.010416 1_555
Nb1 O3 2.019631 1_554
Nb1 O3 2.019631 1_555
Nb1 O1 2.054125 1_545
Nb1 O5 2.224936 1_455
Nb1 O0 2.265179 1_555
Nb2 O4 2.010626 1_554
Nb2 O4 2.010626 1_555
Nb2 O1 2.050429 1_555
Nb2 O6 2.144379 1_565
Nb2 O5 2.154051 1_555
Nb2 O0 2.268445 1_655
F0 Nb2 2.159358 1_555
F0 Nb1 2.234676 1_555
