# generated using pymatgen
data_MgTi2(Fe2O5)2
_symmetry_space_group_name_H-M   'P 1'
_cell_length_a   3.79167545
_cell_length_b   5.49336927
_cell_length_c   10.20202900
_cell_angle_alpha   90.00000000
_cell_angle_beta   90.00000000
_cell_angle_gamma   110.40620458
_symmetry_Int_Tables_number   1
_chemical_formula_structural   MgTi2(Fe2O5)2
_chemical_formula_sum   'Mg1 Ti2 Fe4 O10'
_cell_volume   199.16328583
_cell_formula_units_Z   1
loop_
 _symmetry_equiv_pos_site_id
 _symmetry_equiv_pos_as_xyz
  1  'x, y, z'
loop_
 _atom_site_type_symbol
 _atom_site_label
 _atom_site_symmetry_multiplicity
 _atom_site_fract_x
 _atom_site_fract_y
 _atom_site_fract_z
 _atom_site_occupancy
  Mg  Mg0  1  0.48182900  0.00008600  0.25000000  1
  Ti  Ti0  1  0.19686500  0.38527400  0.75000000  1
  Ti  Ti1  1  0.78318300  0.58861100  0.25000000  1
  Fe  Fe0  1  0.13737100  0.28658800  0.44867400  1
  Fe  Fe1  1  0.88514400  0.76259600  0.56842400  1
  Fe  Fe2  1  0.88514400  0.76259600  0.93157600  1
  Fe  Fe3  1  0.13737100  0.28658800  0.05132700  1
  O  O0  1  0.31983800  0.63235300  0.57893800  1
  O  O1  1  0.65254300  0.31185200  0.38395800  1
  O  O2  1  0.65254300  0.31185200  0.11604300  1
  O  O3  1  0.31983800  0.63235300  0.92106200  1
  O  O4  1  0.06146600  0.11212100  0.62805400  1
  O  O5  1  0.94437200  0.87865100  0.37884200  1
  O  O6  1  0.76263500  0.51716500  0.75000000  1
  O  O7  1  0.29187800  0.59054300  0.25000000  1
  O  O8  1  0.94437200  0.87865100  0.12115800  1
  O  O9  1  0.06146600  0.11212100  0.87194600  1
loop_
_geom_bond_atom_site_label_1
_geom_bond_atom_site_label_2
_geom_bond_distance
_geom_bond_site_symmetry_2
Mg0 O2 2.108735 1_555
Mg0 O1 2.108741 1_555
Mg0 O7 2.109562 1_545
Mg0 O5 2.318981 1_445
Mg0 O8 2.318981 1_445
Mg0 O5 2.462621 1_545
Mg0 O8 2.462621 1_545
Fe0 O1 2.003115 1_455
Fe0 O1 2.020336 1_555
Fe0 O4 2.039136 1_555
Fe0 O5 2.218409 1_445
Fe0 O0 2.221749 1_555
Fe0 O7 2.560727 1_555
Fe1 O4 1.899620 1_665
Fe1 O0 2.012057 1_555
Fe1 O0 2.015535 1_655
Fe1 O5 2.024318 1_555
Fe1 O6 2.242398 1_555
Fe2 O9 1.899620 1_665
Fe2 O3 2.012057 1_555
Fe2 O3 2.015535 1_655
Fe2 O8 2.024318 1_556
Fe2 O6 2.242398 1_555
Fe3 O2 2.003115 1_455
Fe3 O2 2.020336 1_555
Fe3 O9 2.039146 1_554
Fe3 O8 2.218406 1_445
Fe3 O3 2.221755 1_554
Fe3 O7 2.560718 1_555
O0 Ti0 2.159626 1_555
O1 Ti1 1.974676 1_555
O2 Ti1 1.974669 1_555
O3 Ti0 2.159626 1_555
O4 Ti0 1.877693 1_555
O5 Ti1 1.990187 1_555
O6 Ti0 2.010728 1_555
O6 Ti0 2.016837 1_655
O7 Ti1 1.866596 1_555
O7 Ti1 1.925132 1_455
O8 Ti1 1.990187 1_555
O9 Ti0 1.877693 1_555
