# generated using pymatgen
data_Na3Ca2Nb10Si3(P5O24)3
_symmetry_space_group_name_H-M   'P 1'
_cell_length_a   8.87914192
_cell_length_b   8.87549755
_cell_length_c   22.96155992
_cell_angle_alpha   89.89098673
_cell_angle_beta   90.00944071
_cell_angle_gamma   120.01666455
_symmetry_Int_Tables_number   1
_chemical_formula_structural   Na3Ca2Nb10Si3(P5O24)3
_chemical_formula_sum   'Na3 Ca2 Nb10 Si3 P15 O72'
_cell_volume   1566.82974862
_cell_formula_units_Z   1
loop_
 _symmetry_equiv_pos_site_id
 _symmetry_equiv_pos_as_xyz
  1  'x, y, z'
loop_
 _atom_site_type_symbol
 _atom_site_label
 _atom_site_symmetry_multiplicity
 _atom_site_fract_x
 _atom_site_fract_y
 _atom_site_fract_z
 _atom_site_occupancy
  Na  Na0  1  0.00173251  0.00213082  0.00356781  1
  Na  Na1  1  0.66606671  0.33272144  0.84083108  1
  Na  Na2  1  0.66581108  0.33285253  0.34280501  1
  Ca  Ca0  1  0.66836450  0.33411071  0.97784180  1
  Ca  Ca1  1  0.66820832  0.33529957  0.47791929  1
  Nb  Nb0  1  0.99353216  0.99763157  0.35984277  1
  Nb  Nb1  1  0.99796325  0.99530230  0.85636014  1
  Nb  Nb2  1  0.00105966  0.99643552  0.64609574  1
  Nb  Nb3  1  0.99717971  0.00066600  0.15069150  1
  Nb  Nb4  1  0.66866078  0.33548828  0.68493550  1
  Nb  Nb5  1  0.66832518  0.33519746  0.18777195  1
  Nb  Nb6  1  0.33305756  0.66541251  0.02517015  1
  Nb  Nb7  1  0.33169318  0.66597668  0.52163660  1
  Nb  Nb8  1  0.33229251  0.66541536  0.30560071  1
  Nb  Nb9  1  0.33188139  0.66559668  0.80669815  1
  Si  Si0  1  0.71781694  0.71082685  0.25318002  1
  Si  Si1  1  0.99216328  0.28110496  0.25257414  1
  Si  Si2  1  0.99210074  0.70815500  0.75121588  1
  P  P0  1  0.28674984  0.00699327  0.25216271  1
  P  P1  1  0.28792200  0.28080860  0.75094065  1
  P  P2  1  0.71814846  0.00620081  0.75113511  1
  P  P3  1  0.95986499  0.33307643  0.58352190  1
  P  P4  1  0.37505391  0.04066167  0.58318916  1
  P  P5  1  0.66550363  0.62675654  0.58333439  1
  P  P6  1  0.95861164  0.62963441  0.08311106  1
  P  P7  1  0.67101901  0.04177554  0.08277737  1
  P  P8  1  0.37124532  0.32761080  0.08252397  1
  P  P9  1  0.61747524  0.67465494  0.91425450  1
  P  P10  1  0.05755846  0.38209287  0.91401031  1
  P  P11  1  0.32667453  0.94310760  0.91394549  1
  P  P12  1  0.61520766  0.94433043  0.41382035  1
  P  P13  1  0.32742595  0.38364972  0.41333878  1
  P  P14  1  0.05682876  0.67452783  0.41341206  1
  O  O0  1  0.20654226  0.04196347  0.30597610  1
  O  O1  1  0.84342133  0.79951542  0.30929883  1
  O  O2  1  0.96099111  0.15660483  0.30863765  1
  O  O3  1  0.20032139  0.16608699  0.80557026  1
  O  O4  1  0.96284354  0.80366727  0.80830926  1
  O  O5  1  0.83402583  0.03846502  0.80587265  1
  O  O6  1  0.80386191  0.97755890  0.69817094  1
  O  O7  1  0.17246651  0.19918076  0.69784536  1
  O  O8  1  0.02146500  0.83284044  0.69626161  1
  O  O9  1  0.81089175  0.83042607  0.19603267  1
  O  O10  1  0.02594721  0.19326784  0.19543710  1
  O  O11  1  0.17384919  0.97612342  0.19776529  1
  O  O12  1  0.86486965  0.36477222  0.63729712  1
  O  O13  1  0.49737403  0.13260414  0.63724595  1
  O  O14  1  0.63513006  0.50175091  0.63728439  1
  O  O15  1  0.86529273  0.50705997  0.13627248  1
  O  O16  1  0.64111716  0.13223469  0.13584063  1
  O  O17  1  0.49159132  0.35721899  0.13581862  1
  O  O18  1  0.43220103  0.28669832  0.02744396  1
  O  O19  1  0.85439821  0.57121982  0.02836825  1
  O  O20  1  0.71567023  0.14487782  0.02766056  1
  O  O21  1  0.43581692  0.14929508  0.52990649  1
  O  O22  1  0.71745329  0.56838975  0.53048217  1
  O  O23  1  0.85064090  0.28354887  0.53043914  1
  O  O24  1  0.52850240  0.69094541  0.97057007  1
  O  O25  1  0.16315623  0.47160399  0.97029349  1
  O  O26  1  0.30815135  0.83744424  0.97040406  1
  O  O27  1  0.52494395  0.83816478  0.47077489  1
  O  O28  1  0.31096594  0.47416614  0.47022697  1
  O  O29  1  0.16231020  0.68782471  0.47046912  1
  O  O30  1  0.15763466  0.66754208  0.36005061  1
  O  O31  1  0.50858048  0.84495231  0.36036010  1
  O  O32  1  0.33459872  0.49258213  0.35983251  1
  O  O33  1  0.16115576  0.48677368  0.85956347  1
  O  O34  1  0.32862486  0.84063968  0.85963457  1
  O  O35  1  0.51453165  0.67315533  0.85988121  1
  O  O36  1  0.05512484  0.84877023  0.40858568  1
  O  O37  1  0.79352014  0.94779926  0.40958014  1
  O  O38  1  0.15612396  0.20540146  0.40812578  1
  O  O39  1  0.04942004  0.20130128  0.90946693  1
  O  O40  1  0.15371619  0.95317691  0.90938152  1
  O  O41  1  0.79910981  0.85063523  0.91001709  1
  O  O42  1  0.99355304  0.18576482  0.60327700  1
  O  O43  1  0.19193131  0.00991007  0.60108212  1
  O  O44  1  0.81307065  0.81099826  0.60181938  1
  O  O45  1  0.00172435  0.81753498  0.09763593  1
  O  O46  1  0.81982190  0.00213500  0.09641277  1
  O  O47  1  0.18442132  0.17856256  0.09622684  1
  O  O48  1  0.69460791  0.16608620  0.74200531  1
  O  O49  1  0.46829240  0.29718988  0.74209094  1
  O  O50  1  0.82064186  0.51638561  0.74099337  1
  O  O51  1  0.69142389  0.51744962  0.23969255  1
  O  O52  1  0.82001652  0.29853659  0.23939723  1
  O  O53  1  0.46918494  0.16719176  0.24027894  1
  O  O54  1  0.64131891  0.51929515  0.91254621  1
  O  O55  1  0.88080226  0.36390534  0.91194209  1
  O  O56  1  0.48402741  0.12139212  0.91194954  1
  O  O57  1  0.63881342  0.12382551  0.41368881  1
  O  O58  1  0.48696316  0.36627099  0.41322803  1
  O  O59  1  0.87874906  0.51696042  0.41335147  1
  O  O60  1  0.35697498  0.49707241  0.07425913  1
  O  O61  1  0.13968084  0.63945340  0.07461154  1
  O  O62  1  0.50205315  0.85835558  0.07419461  1
  O  O63  1  0.35677221  0.85792681  0.57531804  1
  O  O64  1  0.49814855  0.63936317  0.57544345  1
  O  O65  1  0.14015426  0.50035959  0.57559514  1
  O  O66  1  0.30896926  0.84706468  0.25988181  1
  O  O67  1  0.52773196  0.69286728  0.26089415  1
  O  O68  1  0.15841341  0.47543249  0.26084480  1
  O  O69  1  0.31406088  0.46501636  0.76025210  1
  O  O70  1  0.16239177  0.68613913  0.76078676  1
  O  O71  1  0.53706579  0.84376470  0.76029421  1
loop_
_geom_bond_atom_site_label_1
_geom_bond_atom_site_label_2
_geom_bond_distance
_geom_bond_site_symmetry_2
Na0 O47 2.660863 1_555
Na0 O46 2.674873 1_455
Na0 O39 2.685090 1_554
Na0 O41 2.692282 1_444
Na0 O40 2.697810 1_544
Na0 O45 2.708522 1_545
Na1 O56 2.398604 1_555
Na1 O55 2.418842 1_555
Na1 O54 2.424159 1_555
Na1 O50 2.746745 1_555
Na1 O49 2.787629 1_555
Na1 O48 2.790837 1_555
Na2 O57 2.385808 1_555
Na2 O58 2.387143 1_555
Na2 O59 2.405582 1_555
Na2 O51 2.820339 1_555
Na2 O52 2.833082 1_555
Na2 O53 2.862780 1_555
Ca0 O18 2.233270 1_556
Ca0 O20 2.236999 1_556
Ca0 O19 2.243651 1_556
Ca0 O54 2.322148 1_555
Ca0 O55 2.327646 1_555
Ca0 O56 2.334719 1_555
Ca1 O21 2.234553 1_555
Ca1 O23 2.242942 1_555
Ca1 O22 2.243222 1_555
Ca1 O59 2.295334 1_555
Ca1 O57 2.299222 1_555
Ca1 O58 2.304804 1_555
Nb0 O2 1.964220 1_565
Nb0 O37 1.966396 1_555
Nb0 O1 1.969195 1_555
Nb0 O36 2.003607 1_655
Nb0 O38 2.014338 1_665
Nb0 O0 2.125135 1_665
Nb1 O4 1.919336 1_555
Nb1 O41 2.002640 1_555
Nb1 O40 2.012356 1_655
Nb1 O3 2.038413 1_665
Nb1 O5 2.040877 1_565
Nb1 O39 2.052093 1_665
Nb2 O8 1.929951 1_555
Nb2 O43 1.937056 1_565
Nb2 O44 1.945706 1_455
Nb2 O42 1.974984 1_465
Nb2 O6 2.056715 1_455
Nb2 O7 2.057622 1_565
Nb3 O9 1.896563 1_545
Nb3 O10 1.900727 1_655
Nb3 O11 2.004226 1_645
Nb3 O46 2.013275 1_555
Nb3 O47 2.046424 1_655
Nb3 O45 2.049576 1_645
Nb4 O12 1.961051 1_555
Nb4 O50 1.973636 1_555
Nb4 O14 1.974002 1_555
Nb4 O13 2.005393 1_555
Nb4 O48 2.090413 1_555
Nb4 O49 2.096925 1_555
Nb5 O51 1.937845 1_555
Nb5 O52 1.939493 1_555
Nb5 O15 2.026940 1_555
Nb5 O53 2.039481 1_555
Nb5 O17 2.056496 1_555
Nb5 O16 2.073146 1_555
Nb6 O60 1.964408 1_555
Nb6 O62 1.971590 1_555
Nb6 O61 1.973292 1_555
Nb6 O25 2.057617 1_554
Nb6 O24 2.059332 1_554
Nb6 O26 2.071715 1_554
Nb7 O29 1.992545 1_555
Nb7 O27 2.003497 1_555
Nb7 O28 2.004904 1_555
Nb7 O65 2.020082 1_555
Nb7 O63 2.024768 1_555
Nb7 O64 2.028356 1_555
Nb8 O68 1.919482 1_555
Nb8 O67 1.923832 1_555
Nb8 O32 1.981996 1_555
Nb8 O30 1.999632 1_555
Nb8 O66 2.017853 1_555
Nb8 O31 2.020327 1_555
Nb9 O70 1.919019 1_555
Nb9 O33 1.968900 1_555
Nb9 O34 1.985971 1_555
Nb9 O35 2.004174 1_555
Nb9 O69 2.014207 1_555
Nb9 O71 2.016656 1_555
O0 P0 1.534026 1_555
O1 Si0 1.627546 1_555
O2 Si1 1.625883 1_555
O3 P1 1.555091 1_555
O4 Si2 1.652084 1_555
O5 P2 1.557715 1_555
O6 P2 1.522460 1_565
O7 P1 1.523812 1_555
O8 Si2 1.609654 1_455
O9 Si0 1.627568 1_555
O10 Si1 1.630025 1_455
O11 P0 1.538250 1_565
O12 P3 1.598218 1_555
O13 P4 1.582036 1_555
O14 P5 1.591783 1_555
O15 P6 1.566377 1_555
O16 P7 1.554583 1_555
O17 P8 1.558285 1_555
O18 P8 1.490945 1_555
O19 P6 1.492360 1_555
O20 P7 1.492984 1_555
O21 P4 1.480820 1_555
O22 P5 1.481732 1_555
O23 P3 1.481392 1_555
O24 P9 1.559624 1_555
O25 P10 1.561631 1_555
O26 P11 1.558289 1_555
O27 P12 1.574976 1_555
O28 P13 1.579422 1_555
O29 P14 1.580230 1_555
O30 P14 1.537022 1_555
O31 P12 1.532778 1_555
O32 P13 1.543419 1_555
O33 P10 1.553450 1_555
O34 P11 1.550049 1_555
O35 P9 1.543348 1_555
O36 P14 1.557848 1_555
O37 P12 1.571119 1_555
O38 P13 1.556859 1_555
O39 P10 1.573378 1_555
O40 P11 1.585761 1_555
O41 P9 1.590360 1_555
O42 P3 1.547152 1_555
O43 P4 1.562965 1_555
O44 P5 1.558761 1_555
O45 P6 1.549960 1_455
O46 P7 1.559494 1_555
O47 P8 1.550415 1_555
O48 P2 1.548221 1_555
O49 P1 1.547375 1_555
O50 Si2 1.636666 1_555
O51 Si0 1.641999 1_555
O52 Si1 1.639546 1_555
O53 P0 1.553826 1_555
O54 P9 1.496662 1_555
O55 P10 1.495994 1_655
O56 P11 1.498615 1_545
O57 P12 1.499278 1_545
O58 P13 1.499677 1_555
O59 P14 1.497852 1_655
O60 P8 1.582350 1_555
O61 P6 1.578089 1_455
O62 P7 1.580313 1_565
O63 P4 1.557933 1_565
O64 P5 1.555518 1_555
O65 P3 1.556033 1_455
O66 P0 1.537653 1_565
O67 Si0 1.623652 1_555
O68 Si1 1.625960 1_455
O69 P1 1.547340 1_555
O70 Si2 1.633422 1_455
O71 P2 1.545212 1_565
