# generated using pymatgen
data_Ba4P3
_symmetry_space_group_name_H-M   'P 1'
_cell_length_a   11.38521709
_cell_length_b   12.68679497
_cell_length_c   13.43590690
_cell_angle_alpha   90.00000000
_cell_angle_beta   90.00000000
_cell_angle_gamma   90.00000000
_symmetry_Int_Tables_number   1
_chemical_formula_structural   Ba4P3
_chemical_formula_sum   'Ba32 P24'
_cell_volume   1940.70812119
_cell_formula_units_Z   8
loop_
 _symmetry_equiv_pos_site_id
 _symmetry_equiv_pos_as_xyz
  1  'x, y, z'
loop_
 _atom_site_type_symbol
 _atom_site_label
 _atom_site_symmetry_multiplicity
 _atom_site_fract_x
 _atom_site_fract_y
 _atom_site_fract_z
 _atom_site_occupancy
  Ba  Ba0  1  0.50000000  0.12108492  0.87327278  1
  Ba  Ba1  1  0.50000000  0.87891508  0.12672722  1
  Ba  Ba2  1  0.50000000  0.62108492  0.62672722  1
  Ba  Ba3  1  0.50000000  0.37891508  0.37327278  1
  Ba  Ba4  1  0.81900799  0.00000000  -0.00000000  1
  Ba  Ba5  1  0.18099201  0.50000000  0.50000000  1
  Ba  Ba6  1  0.18099201  -0.00000000  -0.00000000  1
  Ba  Ba7  1  0.81900799  0.50000000  0.50000000  1
  Ba  Ba8  1  0.68132398  0.17042320  0.56764284  1
  Ba  Ba9  1  0.68132398  0.82957680  0.43235716  1
  Ba  Ba10  1  0.31867602  0.67042320  0.93235716  1
  Ba  Ba11  1  0.31867602  0.32957680  0.06764284  1
  Ba  Ba12  1  0.31867602  0.82957680  0.43235716  1
  Ba  Ba13  1  0.31867602  0.17042320  0.56764284  1
  Ba  Ba14  1  0.68132398  0.32957680  0.06764284  1
  Ba  Ba15  1  0.68132398  0.67042320  0.93235716  1
  Ba  Ba16  1  -0.00000000  0.72517885  0.08243460  1
  Ba  Ba17  1  -0.00000000  0.27482115  0.91756640  1
  Ba  Ba18  1  -0.00000000  0.22517885  0.41756640  1
  Ba  Ba19  1  -0.00000000  0.77482115  0.58243360  1
  Ba  Ba20  1  0.71659890  0.90209493  0.73643988  1
  Ba  Ba21  1  0.71659890  0.09790507  0.26356012  1
  Ba  Ba22  1  0.28340110  0.40209493  0.76356012  1
  Ba  Ba23  1  0.28340110  0.59790507  0.23643988  1
  Ba  Ba24  1  0.28340110  0.09790507  0.26356012  1
  Ba  Ba25  1  0.28340110  0.90209493  0.73643988  1
  Ba  Ba26  1  0.71659890  0.59790507  0.23643988  1
  Ba  Ba27  1  0.71659890  0.40209493  0.76356012  1
  Ba  Ba28  1  -0.00000000  0.89337566  0.29441755  1
  Ba  Ba29  1  -0.00000000  0.10662434  0.70558245  1
  Ba  Ba30  1  -0.00000000  0.39337566  0.20558245  1
  Ba  Ba31  1  -0.00000000  0.60662434  0.79441755  1
  P  P0  1  -0.00000000  0.63938242  0.36371961  1
  P  P1  1  -0.00000000  0.36061758  0.63628039  1
  P  P2  1  -0.00000000  0.13938242  0.13628039  1
  P  P3  1  -0.00000000  0.86061758  0.86371961  1
  P  P4  1  0.50000000  0.03335540  0.42236048  1
  P  P5  1  0.50000000  0.96664460  0.57763952  1
  P  P6  1  0.50000000  0.53335540  0.07763952  1
  P  P7  1  0.50000000  0.46664460  0.92236048  1
  P  P8  1  0.23620696  0.33705660  0.32081383  1
  P  P9  1  0.23620696  0.66294340  0.67918617  1
  P  P10  1  0.76379304  0.83705660  0.17918617  1
  P  P11  1  0.76379304  0.16294340  0.82081383  1
  P  P12  1  0.76379304  0.66294340  0.67918617  1
  P  P13  1  0.76379304  0.33705660  0.32081383  1
  P  P14  1  0.23620696  0.16294340  0.82081383  1
  P  P15  1  0.23620696  0.83705660  0.17918617  1
  P  P16  1  0.50000000  0.63818568  0.38692450  1
  P  P17  1  0.50000000  0.36181432  0.61307550  1
  P  P18  1  0.50000000  0.13818568  0.11307550  1
  P  P19  1  0.50000000  0.86181432  0.88692450  1
  P  P20  1  0.89947532  -0.00000000  0.50000000  1
  P  P21  1  0.10052468  0.50000000  -0.00000000  1
  P  P22  1  0.10052468  0.00000000  0.50000000  1
  P  P23  1  0.89947532  0.50000000  -0.00000000  1
loop_
_geom_bond_atom_site_label_1
_geom_bond_atom_site_label_2
_geom_bond_distance
_geom_bond_site_symmetry_2
Ba0 P11 3.130313 1_555
Ba0 P14 3.130313 1_555
Ba0 P18 3.229263 1_556
Ba0 P19 3.294423 1_545
Ba1 P15 3.130313 1_555
Ba1 P10 3.130313 1_555
Ba1 P19 3.229263 1_554
Ba1 P18 3.294423 1_565
Ba2 P9 3.130313 1_555
Ba2 P12 3.130313 1_555
Ba2 P16 3.229263 1_555
Ba2 P17 3.294423 1_555
Ba3 P13 3.130313 1_555
Ba3 P8 3.130313 1_555
Ba3 P17 3.229263 1_555
Ba3 P16 3.294423 1_555
Ba4 P11 3.234936 1_554
Ba4 P10 3.234936 1_545
Ba4 P3 3.275042 1_644
Ba4 P2 3.275042 1_655
Ba5 P9 3.234936 1_555
Ba5 P8 3.234936 1_555
Ba5 P0 3.275042 1_555
Ba5 P1 3.275042 1_555
Ba6 P14 3.234936 1_554
Ba6 P15 3.234936 1_545
Ba6 P3 3.275042 1_544
Ba6 P2 3.275042 1_555
Ba7 P12 3.234936 1_555
Ba7 P13 3.234936 1_555
Ba7 P0 3.275042 1_655
Ba7 P1 3.275042 1_655
Ba8 P17 3.245040 1_555
Ba8 P5 3.311133 1_545
Ba8 P4 3.331074 1_555
Ba8 P20 3.416071 1_555
Ba8 P11 3.530064 1_555
Ba9 P16 3.245040 1_555
Ba9 P4 3.311133 1_565
Ba9 P5 3.331074 1_555
Ba9 P20 3.416071 1_565
Ba9 P10 3.530064 1_555
Ba10 P19 3.245040 1_555
Ba10 P7 3.311133 1_555
Ba10 P6 3.331074 1_556
Ba10 P21 3.416071 1_556
Ba10 P9 3.530064 1_555
Ba11 P18 3.245040 1_555
Ba11 P6 3.311133 1_555
Ba11 P7 3.331074 1_554
Ba11 P21 3.416071 1_555
Ba11 P8 3.530064 1_555
Ba12 P16 3.245040 1_555
Ba12 P4 3.311133 1_565
Ba12 P5 3.331074 1_555
Ba12 P22 3.416071 1_565
Ba12 P15 3.530064 1_555
Ba13 P17 3.245040 1_555
Ba13 P5 3.311133 1_545
Ba13 P4 3.331074 1_555
Ba13 P22 3.416071 1_555
Ba13 P14 3.530064 1_555
Ba14 P18 3.245040 1_555
Ba14 P6 3.311133 1_555
Ba14 P7 3.331074 1_554
Ba14 P23 3.416071 1_555
Ba14 P13 3.530064 1_555
Ba15 P19 3.245040 1_555
Ba15 P7 3.311133 1_555
Ba15 P6 3.331074 1_556
Ba15 P23 3.416071 1_556
Ba15 P12 3.530064 1_555
Ba16 P23 3.270765 1_455
Ba16 P21 3.270765 1_555
Ba16 P10 3.307057 1_455
Ba16 P15 3.307057 1_555
Ba16 P3 3.404125 1_554
Ba17 P21 3.270761 1_556
Ba17 P23 3.270761 1_456
Ba17 P11 3.307063 1_455
Ba17 P14 3.307063 1_555
Ba17 P2 3.404114 1_556
Ba18 P22 3.270761 1_555
Ba18 P20 3.270761 1_455
Ba18 P13 3.307063 1_455
Ba18 P8 3.307063 1_555
Ba18 P1 3.404114 1_555
Ba19 P22 3.270761 1_565
Ba19 P20 3.270761 1_465
Ba19 P9 3.307063 1_555
Ba19 P12 3.307063 1_455
Ba19 P0 3.404114 1_555
Ba20 P12 3.175850 1_555
Ba20 P19 3.229629 1_555
Ba20 P5 3.362185 1_555
Ba20 P11 3.539141 1_565
Ba20 P3 3.689478 1_655
Ba21 P13 3.175850 1_555
Ba21 P18 3.229629 1_555
Ba21 P4 3.362185 1_555
Ba21 P10 3.539141 1_545
Ba21 P2 3.689478 1_655
Ba22 P14 3.175850 1_555
Ba22 P17 3.229629 1_555
Ba22 P7 3.362185 1_555
Ba22 P9 3.539141 1_555
Ba22 P1 3.689478 1_555
Ba23 P15 3.175850 1_555
Ba23 P16 3.229629 1_555
Ba23 P6 3.362185 1_555
Ba23 P8 3.539141 1_555
Ba23 P0 3.689478 1_555
Ba24 P8 3.175850 1_555
Ba24 P18 3.229629 1_555
Ba24 P4 3.362185 1_555
Ba24 P15 3.539141 1_545
Ba24 P2 3.689478 1_555
Ba25 P9 3.175850 1_555
Ba25 P19 3.229629 1_555
Ba25 P5 3.362185 1_555
Ba25 P14 3.539141 1_565
Ba25 P3 3.689478 1_555
Ba26 P10 3.175850 1_555
Ba26 P16 3.229629 1_555
Ba26 P6 3.362185 1_555
Ba26 P13 3.539141 1_555
Ba26 P0 3.689478 1_655
Ba27 P11 3.175850 1_555
Ba27 P17 3.229629 1_555
Ba27 P7 3.362185 1_555
Ba27 P12 3.539141 1_555
Ba27 P1 3.689478 1_655
Ba28 P15 3.184293 1_555
Ba28 P10 3.184293 1_455
Ba28 P22 3.281676 1_565
Ba28 P20 3.281676 1_465
Ba28 P0 3.354194 1_555
Ba28 P2 3.775618 1_565
Ba29 P14 3.184293 1_555
Ba29 P11 3.184293 1_455
Ba29 P22 3.281676 1_555
Ba29 P20 3.281676 1_455
Ba29 P1 3.354194 1_555
Ba29 P3 3.775618 1_545
Ba30 P13 3.184293 1_455
Ba30 P8 3.184293 1_555
Ba30 P23 3.281676 1_455
Ba30 P21 3.281676 1_555
Ba30 P2 3.354194 1_555
Ba30 P0 3.775618 1_555
Ba31 P12 3.184293 1_455
Ba31 P9 3.184293 1_555
Ba31 P23 3.281676 1_456
Ba31 P21 3.281676 1_556
Ba31 P3 3.354194 1_555
Ba31 P1 3.775618 1_555
P4 P5 2.251446 1_545
P6 P7 2.251446 1_554
P20 P22 2.288991 1_655
P21 P23 2.288991 1_455
