# generated using pymatgen
data_HfAlP(SO6)2
_symmetry_space_group_name_H-M   'P 1'
_cell_length_a   8.62517210
_cell_length_b   8.61518866
_cell_length_c   22.25072106
_cell_angle_alpha   90.38378301
_cell_angle_beta   90.00000000
_cell_angle_gamma   120.03834083
_symmetry_Int_Tables_number   1
_chemical_formula_structural   HfAlP(SO6)2
_chemical_formula_sum   'Hf6 Al6 P6 S12 O72'
_cell_volume   1431.28580380
_cell_formula_units_Z   6
loop_
 _symmetry_equiv_pos_site_id
 _symmetry_equiv_pos_as_xyz
  1  'x, y, z'
loop_
 _atom_site_type_symbol
 _atom_site_label
 _atom_site_symmetry_multiplicity
 _atom_site_fract_x
 _atom_site_fract_y
 _atom_site_fract_z
 _atom_site_occupancy
  Hf  Hf0  1  0.00251307  0.00120103  0.64119862  1
  Hf  Hf1  1  0.99868796  0.00120103  0.14119862  1
  Hf  Hf2  1  0.66488124  0.33236846  0.97474746  1
  Hf  Hf3  1  0.66748822  0.33236846  0.47474746  1
  Hf  Hf4  1  0.34030789  0.65996064  0.30795844  1
  Hf  Hf5  1  0.31965174  0.65996064  0.80795844  1
  Al  Al0  1  0.99948133  0.99725247  0.35496629  1
  Al  Al1  1  0.99777113  0.99725247  0.85496629  1
  Al  Al2  1  0.68657070  0.34443152  0.68916761  1
  Al  Al3  1  0.65786181  0.34443152  0.18916761  1
  Al  Al4  1  0.32699795  0.64520439  0.02138120  1
  Al  Al5  1  0.31820544  0.64520439  0.52138120  1
  P  P0  1  0.73043315  0.71103731  0.25192956  1
  P  P1  1  0.98060416  0.71103731  0.75192956  1
  P  P2  1  0.95963555  0.35016965  0.58469629  1
  P  P3  1  0.39053510  0.35016965  0.08469629  1
  P  P4  1  0.05430909  0.36638181  0.91749886  1
  P  P5  1  0.31207172  0.36638181  0.41749886  1
  S  S0  1  0.29501602  0.01412458  0.25092908  1
  S  S1  1  0.97884697  0.27900544  0.25026174  1
  S  S2  1  0.30015847  0.27900544  0.75026174  1
  S  S3  1  0.71910855  0.01412458  0.75092908  1
  S  S4  1  0.39066018  0.03759459  0.58400741  1
  S  S5  1  0.64822351  0.61173072  0.58421282  1
  S  S6  1  0.96350821  0.61173072  0.08421282  1
  S  S7  1  0.64693541  0.03759459  0.08400741  1
  S  S8  1  0.62677940  0.68370318  0.91723177  1
  S  S9  1  0.31662806  0.94227782  0.91822250  1
  S  S10  1  0.62564876  0.94227782  0.41822250  1
  S  S11  1  0.05692277  0.68370318  0.41723177  1
  O  O0  1  0.21156957  0.04435562  0.30428088  1
  O  O1  1  0.84604125  0.80709215  0.30727766  1
  O  O2  1  0.95616806  0.17016719  0.30372678  1
  O  O3  1  0.21399914  0.17016719  0.80372678  1
  O  O4  1  0.96105091  0.80709215  0.80727766  1
  O  O5  1  0.83278605  0.04435562  0.80428088  1
  O  O6  1  0.79561485  0.97742535  0.69671893  1
  O  O7  1  0.18248048  0.20587176  0.69660021  1
  O  O8  1  0.01919489  0.82813127  0.69581442  1
  O  O9  1  0.80893638  0.82813127  0.19581442  1
  O  O10  1  0.02339129  0.20587176  0.19660021  1
  O  O11  1  0.18181050  0.97742535  0.19671893  1
  O  O12  1  0.86611414  0.37373961  0.63977709  1
  O  O13  1  0.49917986  0.12559497  0.63787276  1
  O  O14  1  0.62112097  0.50042618  0.63739550  1
  O  O15  1  0.87930621  0.50042618  0.13739550  1
  O  O16  1  0.62641612  0.12559497  0.13787276  1
  O  O17  1  0.50762647  0.37373961  0.13977709  1
  O  O18  1  0.46930522  0.30963125  0.02839326  1
  O  O19  1  0.84912293  0.53563921  0.03011199  1
  O  O20  1  0.68846848  0.15321196  0.03028828  1
  O  O21  1  0.46474448  0.15321196  0.53028828  1
  O  O22  1  0.68651728  0.53563921  0.53011199  1
  O  O23  1  0.84032702  0.30963125  0.52839326  1
  O  O24  1  0.54248605  0.71025362  0.97085832  1
  O  O25  1  0.17272460  0.46080520  0.97225729  1
  O  O26  1  0.29480288  0.83403199  0.97135950  1
  O  O27  1  0.53922811  0.83403199  0.47135950  1
  O  O28  1  0.28807960  0.46080520  0.47225729  1
  O  O29  1  0.16776657  0.71025362  0.47085832  1
  O  O30  1  0.13220551  0.64699805  0.36312239  1
  O  O31  1  0.51154418  0.86839613  0.36384082  1
  O  O32  1  0.35459591  0.48841278  0.36175493  1
  O  O33  1  0.13381587  0.48841278  0.86175493  1
  O  O34  1  0.35685095  0.86839613  0.86384082  1
  O  O35  1  0.51479154  0.64699805  0.86312239  1
  O  O36  1  0.03744342  0.84204111  0.40850118  1
  O  O37  1  0.80254689  0.96130073  0.40823867  1
  O  O38  1  0.14833533  0.18439667  0.40357609  1
  O  O39  1  0.03606134  0.18439667  0.90357609  1
  O  O40  1  0.15875384  0.96130073  0.90823867  1
  O  O41  1  0.80459769  0.84204111  0.90850118  1
  O  O42  1  0.98236491  0.18461976  0.59347191  1
  O  O43  1  0.20862998  0.01675921  0.59088109  1
  O  O44  1  0.80969267  0.79243140  0.59137447  1
  O  O45  1  0.98273874  0.79243140  0.09137447  1
  O  O46  1  0.80812922  0.01675921  0.09088109  1
  O  O47  1  0.20225485  0.18461976  0.09347191  1
  O  O48  1  0.69747018  0.17056565  0.74102006  1
  O  O49  1  0.47376126  0.29362759  0.73888519  1
  O  O50  1  0.81638273  0.52719678  0.74149044  1
  O  O51  1  0.71081505  0.52719678  0.24149044  1
  O  O52  1  0.81986733  0.29362759  0.23888519  1
  O  O53  1  0.47309647  0.17056565  0.24102006  1
  O  O54  1  0.64832409  0.52346680  0.92450995  1
  O  O55  1  0.86728816  0.34541353  0.92699868  1
  O  O56  1  0.47709647  0.12459213  0.92434091  1
  O  O57  1  0.64749667  0.12459213  0.42434091  1
  O  O58  1  0.47812637  0.34541353  0.42699868  1
  O  O59  1  0.87514371  0.52346680  0.42450995  1
  O  O60  1  0.37414245  0.51571485  0.07406490  1
  O  O61  1  0.14092631  0.63385387  0.07394719  1
  O  O62  1  0.48929626  0.86230319  0.07277977  1
  O  O63  1  0.37300593  0.86230319  0.57277977  1
  O  O64  1  0.49292656  0.63385387  0.57394719  1
  O  O65  1  0.14157140  0.51571485  0.57406490  1
  O  O66  1  0.31256478  0.85308854  0.25923142  1
  O  O67  1  0.54167605  0.68993933  0.25903034  1
  O  O68  1  0.13724856  0.46206096  0.25779712  1
  O  O69  1  0.32481141  0.46206096  0.75779712  1
  O  O70  1  0.14826228  0.68993933  0.75903034  1
  O  O71  1  0.54052277  0.85308854  0.75923142  1
loop_
_geom_bond_atom_site_label_1
_geom_bond_atom_site_label_2
_geom_bond_distance
_geom_bond_site_symmetry_2
Hf0 O42 1.988050 1_455
Hf0 O8 1.989909 1_545
Hf0 O43 2.048284 1_555
Hf0 O44 2.051456 1_445
Hf0 O7 2.066132 1_555
Hf0 O6 2.095252 1_445
Hf1 O47 1.988050 1_655
Hf1 O9 1.989909 1_545
Hf1 O46 2.048284 1_555
Hf1 O45 2.051456 1_545
Hf1 O10 2.066132 1_655
Hf1 O11 2.095252 1_645
Hf2 O18 1.995259 1_556
Hf2 O55 1.998596 1_555
Hf2 O56 2.038623 1_555
Hf2 O54 2.059228 1_555
Hf2 O20 2.071440 1_556
Hf2 O19 2.072346 1_556
Hf3 O23 1.995259 1_555
Hf3 O58 1.998596 1_555
Hf3 O57 2.038623 1_555
Hf3 O59 2.059228 1_555
Hf3 O21 2.071440 1_555
Hf3 O22 2.072346 1_555
Hf4 O67 1.955302 1_555
Hf4 O32 1.959159 1_555
Hf4 O68 2.050614 1_555
Hf4 O31 2.065646 1_555
Hf4 O66 2.103302 1_555
Hf4 O30 2.131188 1_555
Hf5 O70 1.955302 1_555
Hf5 O33 1.959159 1_555
Hf5 O69 2.050614 1_555
Hf5 O34 2.065645 1_555
Hf5 O71 2.103302 1_555
Hf5 O35 2.131189 1_555
Al0 O38 1.822619 1_665
Al0 O1 1.835052 1_555
Al0 O36 1.942642 1_655
Al0 O37 1.965809 1_555
Al0 O0 2.011429 1_665
Al0 O2 2.058771 1_565
Al1 O39 1.822619 1_665
Al1 O4 1.835053 1_555
Al1 O41 1.942642 1_555
Al1 O40 1.965809 1_655
Al1 O5 2.011429 1_565
Al1 O3 2.058771 1_665
Al2 O12 1.811599 1_555
Al2 O50 1.816233 1_555
Al2 O48 1.935920 1_555
Al2 O49 1.996663 1_555
Al2 O14 2.057211 1_555
Al2 O13 2.095208 1_555
Al3 O17 1.811599 1_555
Al3 O51 1.816233 1_555
Al3 O53 1.935919 1_555
Al3 O52 1.996663 1_555
Al3 O15 2.057212 1_555
Al3 O16 2.095208 1_555
Al4 O60 1.804356 1_555
Al4 O25 1.830160 1_554
Al4 O61 1.948773 1_555
Al4 O24 1.999484 1_554
Al4 O62 2.028751 1_555
Al4 O26 2.106863 1_554
Al5 O65 1.804356 1_555
Al5 O28 1.830160 1_555
Al5 O64 1.948773 1_555
Al5 O29 1.999484 1_555
Al5 O63 2.028751 1_555
Al5 O27 2.106863 1_555
O0 S0 1.476019 1_555
O1 P0 1.534927 1_555
O2 S1 1.471061 1_555
O3 S2 1.471061 1_555
O4 P1 1.534927 1_555
O5 S3 1.476019 1_555
O6 S3 1.481259 1_565
O7 S2 1.484087 1_555
O8 P1 1.538882 1_455
O9 P0 1.538882 1_555
O10 S1 1.484087 1_455
O11 S0 1.481259 1_565
O12 P2 1.534475 1_555
O13 S4 1.471314 1_555
O14 S5 1.471482 1_555
O15 S6 1.471482 1_555
O16 S7 1.471314 1_555
O17 P3 1.534475 1_555
O18 P3 1.544255 1_555
O19 S6 1.481256 1_555
O20 S7 1.485903 1_555
O21 S4 1.485903 1_555
O22 S5 1.481256 1_555
O23 P2 1.544255 1_555
O24 S8 1.472260 1_555
O25 P4 1.531128 1_555
O26 S9 1.463570 1_555
O27 S10 1.463570 1_555
O28 P5 1.531128 1_555
O29 S11 1.472260 1_555
O30 S11 1.473649 1_555
O31 S10 1.483386 1_555
O32 P5 1.552311 1_555
O33 P4 1.552311 1_555
O34 S9 1.483386 1_555
O35 S8 1.473649 1_555
O36 S11 1.469615 1_555
O37 S10 1.467770 1_555
O38 P5 1.524890 1_555
O39 P4 1.524893 1_555
O40 S9 1.467761 1_555
O41 S8 1.469620 1_555
O42 P2 1.547383 1_555
O43 S4 1.496282 1_555
O44 S5 1.488150 1_555
O45 S6 1.488153 1_555
O46 S7 1.496274 1_555
O47 P3 1.547388 1_555
O48 S3 1.468244 1_555
O49 S2 1.460684 1_555
O50 P1 1.522441 1_555
O51 P0 1.522444 1_555
O52 S1 1.460676 1_555
O53 S0 1.468249 1_555
O54 S8 1.492068 1_555
O55 P4 1.545361 1_655
O56 S9 1.490600 1_545
O57 S10 1.490593 1_545
O58 P5 1.545378 1_555
O59 S11 1.492057 1_655
O60 P3 1.521975 1_555
O61 S6 1.462459 1_455
O62 S7 1.459778 1_565
O63 S4 1.459771 1_565
O64 S5 1.462476 1_555
O65 P2 1.521966 1_455
O66 S0 1.481709 1_565
O67 P0 1.553290 1_555
O68 S1 1.490355 1_455
O69 S2 1.490358 1_555
O70 P1 1.553281 1_455
O71 S3 1.481714 1_565
