# generated using pymatgen
data_MgNi(TeO3)4
_symmetry_space_group_name_H-M   'P 1'
_cell_length_a   5.78900411
_cell_length_b   11.41281051
_cell_length_c   10.13241190
_cell_angle_alpha   27.54446451
_cell_angle_beta   49.43631600
_cell_angle_gamma   55.06409397
_symmetry_Int_Tables_number   1
_chemical_formula_structural   MgNi(TeO3)4
_chemical_formula_sum   'Mg1 Ni1 Te4 O12'
_cell_volume   235.16214179
_cell_formula_units_Z   1
loop_
 _symmetry_equiv_pos_site_id
 _symmetry_equiv_pos_as_xyz
  1  'x, y, z'
loop_
 _atom_site_type_symbol
 _atom_site_label
 _atom_site_symmetry_multiplicity
 _atom_site_fract_x
 _atom_site_fract_y
 _atom_site_fract_z
 _atom_site_occupancy
  Mg  Mg0  1  0.79988500  0.99931700  0.78293700  1
  Ni  Ni0  1  0.31496000  0.00431000  0.29134400  1
  Te  Te0  1  0.00651700  0.00090500  0.98234600  1
  Te  Te1  1  0.98349300  0.49587300  0.99972800  1
  Te  Te2  1  0.53762700  0.97770700  0.51474400  1
  Te  Te3  1  0.45435700  0.49998000  0.50810400  1
  O  O0  1  0.34154000  0.31618400  0.08954400  1
  O  O1  1  0.21228700  0.11968700  0.62127100  1
  O  O2  1  0.09556300  0.30559500  0.74498900  1
  O  O3  1  0.90455700  0.18121900  0.22872100  1
  O  O4  1  0.37079300  0.84154900  0.07103900  1
  O  O5  1  0.74770600  0.35000900  0.37474800  1
  O  O6  1  0.19552400  0.65383200  0.60565400  1
  O  O7  1  0.61379100  0.16865200  0.87374800  1
  O  O8  1  0.07906700  0.81371400  0.73366100  1
  O  O9  1  0.86188300  0.73273100  0.17952900  1
  O  O10  1  0.72253900  0.87704400  0.34210600  1
  O  O11  1  0.61483100  0.65574000  0.90258700  1
loop_
_geom_bond_atom_site_label_1
_geom_bond_atom_site_label_2
_geom_bond_distance
_geom_bond_site_symmetry_2
Mg0 O5 2.025313 1_565
Mg0 O8 2.062358 1_655
Mg0 O4 2.074819 1_556
Mg0 O9 2.116121 1_556
Mg0 O1 2.224804 1_665
Mg0 O7 2.285112 1_565
Ni0 O0 2.045910 1_555
Ni0 O10 2.066361 1_545
Ni0 O3 2.078110 1_455
Ni0 O6 2.081854 1_545
Ni0 O7 2.130029 1_554
Ni0 O8 2.199339 1_545
O0 Te1 1.898797 1_454
O0 Te2 2.568668 1_545
O1 Te0 2.007037 1_555
O1 Te2 2.073679 1_545
O2 Te0 1.937062 1_555
O2 Te3 2.085168 1_555
O3 Te2 2.003329 1_545
O3 Te1 2.052609 1_554
O4 Te0 1.932910 1_564
O4 Te3 2.248373 1_555
O5 Te1 1.926844 1_554
O5 Te3 2.329594 1_555
O6 Te1 2.023687 1_455
O6 Te3 2.107931 1_555
O7 Te3 2.117459 1_555
O7 Te0 2.139553 1_655
O8 Te1 1.936376 1_455
O8 Te2 2.477963 1_555
O9 Te0 1.993965 1_664
O9 Te3 2.232844 1_555
O10 Te0 1.928375 1_664
O10 Te2 2.290281 1_555
O11 Te1 1.984989 1_555
O11 Te2 1.985391 1_555
