# generated using pymatgen
data_K4ZnO3
_symmetry_space_group_name_H-M   'P 1'
_cell_length_a   6.93044396
_cell_length_b   8.79577319
_cell_length_c   10.98435012
_cell_angle_alpha   102.39760974
_cell_angle_beta   89.18697644
_cell_angle_gamma   109.67065205
_symmetry_Int_Tables_number   1
_chemical_formula_structural   K4ZnO3
_chemical_formula_sum   'K16 Zn4 O12'
_cell_volume   614.58346689
_cell_formula_units_Z   4
loop_
 _symmetry_equiv_pos_site_id
 _symmetry_equiv_pos_as_xyz
  1  'x, y, z'
loop_
 _atom_site_type_symbol
 _atom_site_label
 _atom_site_symmetry_multiplicity
 _atom_site_fract_x
 _atom_site_fract_y
 _atom_site_fract_z
 _atom_site_occupancy
  K  K0  1  0.36476510  0.08507686  0.11623442  1
  K  K1  1  0.77723814  0.34512291  0.98549847  1
  K  K2  1  0.16105348  0.12446159  0.62184025  1
  K  K3  1  0.83894652  0.87553841  0.37815975  1
  K  K4  1  0.69044417  0.64543088  0.58248033  1
  K  K5  1  0.88833814  0.13430539  0.20614333  1
  K  K6  1  0.11166186  0.86569461  0.79385667  1
  K  K7  1  0.61855671  0.08945065  0.66885008  1
  K  K8  1  0.38144329  0.91054935  0.33114992  1
  K  K9  1  0.97852301  0.44398195  0.70386121  1
  K  K10  1  0.02147699  0.55601805  0.29613879  1
  K  K11  1  0.50719959  0.53056075  0.19841650  1
  K  K12  1  0.49280041  0.46943925  0.80158350  1
  K  K13  1  0.30955583  0.35456912  0.41751967  1
  K  K14  1  0.22276186  0.65487709  0.01450153  1
  K  K15  1  0.63523490  0.91492314  0.88376558  1
  Zn  Zn0  1  0.16409060  0.23166999  0.93889941  1
  Zn  Zn1  1  0.83590940  0.76833001  0.06110059  1
  Zn  Zn2  1  0.28814089  0.72012104  0.55869193  1
  Zn  Zn3  1  0.71185911  0.27987896  0.44130807  1
  O  O0  1  0.36354494  0.69091841  0.71585045  1
  O  O1  1  0.07606296  0.80222177  0.53327605  1
  O  O2  1  0.92393704  0.19777823  0.46672395  1
  O  O3  1  0.44073507  0.67801746  0.41757899  1
  O  O4  1  0.55926493  0.32198254  0.58242101  1
  O  O5  1  0.14217790  0.36080185  0.09772832  1
  O  O6  1  0.85782210  0.63919815  0.90227168  1
  O  O7  1  0.39375634  0.16208734  0.89229420  1
  O  O8  1  0.60624366  0.83791266  0.10770580  1
  O  O9  1  0.63645506  0.30908159  0.28414955  1
  O  O10  1  0.05720208  0.82977653  0.18327668  1
  O  O11  1  0.94279792  0.17022347  0.81672332  1
loop_
_geom_bond_atom_site_label_1
_geom_bond_atom_site_label_2
_geom_bond_distance
_geom_bond_site_symmetry_2
K0 O9 2.621058 1_555
K0 O7 2.675780 1_554
K0 O10 2.751630 1_545
K1 O11 2.650167 1_555
K1 O7 2.681854 1_555
K1 O5 2.777811 1_656
K1 O6 2.804745 1_555
K2 O11 2.642056 1_455
K2 O1 2.652397 1_545
K2 O2 2.698924 1_455
K2 O4 2.807748 1_555
K3 O10 2.642056 1_655
K3 O2 2.652397 1_565
K3 O1 2.698924 1_655
K3 O3 2.807748 1_555
K4 O3 2.646483 1_555
K4 O1 2.670977 1_655
K4 O4 2.679248 1_555
K4 O0 2.775496 1_555
K5 O5 2.661148 1_655
K5 O8 2.684417 1_545
K5 O9 2.709871 1_555
K5 O2 2.794014 1_555
K5 O10 3.228091 1_645
K6 O6 2.661148 1_455
K6 O7 2.684417 1_565
K6 O0 2.709871 1_555
K6 O1 2.794014 1_555
K6 O11 3.228091 1_465
K7 O4 2.581480 1_555
K7 O11 2.593446 1_555
K7 O7 2.957658 1_555
K7 O2 3.119922 1_555
K7 Zn2 3.262459 1_545
K8 O3 2.581480 1_555
K8 O10 2.593446 1_555
K8 O8 2.957658 1_555
K8 O1 3.119922 1_555
K8 Zn3 3.262459 1_565
K9 O6 2.776026 1_555
K9 O0 2.800083 1_655
K9 O11 2.875409 1_555
K9 O2 2.944831 1_555
K9 O4 2.961405 1_555
K10 O5 2.776026 1_555
K10 O9 2.800083 1_455
K10 O10 2.875409 1_555
K10 O1 2.944831 1_555
K10 O3 2.961405 1_555
K11 O5 2.584520 1_555
K11 O3 2.592256 1_555
K11 O9 2.733281 1_555
K11 O8 2.942835 1_555
K12 O6 2.584520 1_555
K12 O4 2.592256 1_555
K12 O0 2.733281 1_555
K12 O7 2.942835 1_555
K13 O4 2.646483 1_555
K13 O2 2.670977 1_455
K13 O3 2.679248 1_555
K13 O9 2.775496 1_555
K14 O10 2.650167 1_555
K14 O8 2.681854 1_555
K14 O6 2.777811 1_454
K14 O5 2.804745 1_555
K15 O0 2.621058 1_555
K15 O8 2.675780 1_556
K15 O11 2.751630 1_565
O0 Zn2 1.904073 1_555
O1 Zn2 1.890104 1_555
O2 Zn3 1.890104 1_555
O3 Zn2 1.904946 1_555
O4 Zn3 1.904946 1_555
O5 Zn0 1.901215 1_554
O6 Zn1 1.901215 1_556
O7 Zn0 1.915278 1_555
O8 Zn1 1.915278 1_555
O9 Zn3 1.904073 1_555
O10 Zn1 1.906350 1_455
O11 Zn0 1.906350 1_655
