# generated using pymatgen
data_Na8CaTi3Si4(PO12)2
_symmetry_space_group_name_H-M   'P 1'
_cell_length_a   9.09562209
_cell_length_b   9.11690171
_cell_length_c   22.20214887
_cell_angle_alpha   89.98035242
_cell_angle_beta   89.89638076
_cell_angle_gamma   120.07147554
_symmetry_Int_Tables_number   1
_chemical_formula_structural   Na8CaTi3Si4(PO12)2
_chemical_formula_sum   'Na24 Ca3 Ti9 Si12 P6 O72'
_cell_volume   1593.27563644
_cell_formula_units_Z   3
loop_
 _symmetry_equiv_pos_site_id
 _symmetry_equiv_pos_as_xyz
  1  'x, y, z'
loop_
 _atom_site_type_symbol
 _atom_site_label
 _atom_site_symmetry_multiplicity
 _atom_site_fract_x
 _atom_site_fract_y
 _atom_site_fract_z
 _atom_site_occupancy
  Na  Na0  1  0.63659866  0.00681918  0.24361593  1
  Na  Na1  1  0.37001423  0.36071940  0.24318085  1
  Na  Na2  1  0.99183766  0.63158152  0.24323861  1
  Na  Na3  1  0.62688550  0.61896107  0.74746383  1
  Na  Na4  1  0.99092427  0.37189557  0.75052303  1
  Na  Na5  1  0.38224133  0.00621106  0.74636184  1
  Na  Na6  1  0.30667466  0.33508594  0.58627686  1
  Na  Na7  1  0.03087997  0.69650725  0.58292847  1
  Na  Na8  1  0.66220359  0.97292811  0.58664421  1
  Na  Na9  1  0.31282278  0.96974401  0.08394184  1
  Na  Na10  1  0.65679739  0.68746952  0.08380511  1
  Na  Na11  1  0.03010119  0.34238205  0.08401787  1
  Na  Na12  1  0.96378853  0.66519617  0.91705744  1
  Na  Na13  1  0.70244790  0.03804712  0.91721055  1
  Na  Na14  1  0.33401352  0.29706770  0.91672459  1
  Na  Na15  1  0.96268945  0.28883173  0.41583401  1
  Na  Na16  1  0.32246387  0.03484395  0.41551696  1
  Na  Na17  1  0.71187118  0.67438423  0.41369665  1
  Na  Na18  1  0.00506103  0.00144467  0.49964408  1
  Na  Na19  1  0.00124300  0.00127713  0.99784741  1
  Na  Na20  1  0.66995682  0.33338589  0.83275348  1
  Na  Na21  1  0.66783406  0.33343689  0.33101423  1
  Na  Na22  1  0.33444115  0.66803776  0.16287738  1
  Na  Na23  1  0.33864955  0.67133678  0.66882051  1
  Ca  Ca0  1  0.00113225  0.99993523  0.35348934  1
  Ca  Ca1  1  0.66521983  0.33197307  0.68417228  1
  Ca  Ca2  1  0.66659629  0.33324180  0.17692778  1
  Ti  Ti0  1  0.99396566  0.99581586  0.85469069  1
  Ti  Ti1  1  0.99616379  0.98700272  0.64888454  1
  Ti  Ti2  1  0.99960755  0.99836087  0.14249235  1
  Ti  Ti3  1  0.66730819  0.33343173  0.98262420  1
  Ti  Ti4  1  0.66122003  0.34273975  0.48300433  1
  Ti  Ti5  1  0.33313109  0.66627367  0.01523897  1
  Ti  Ti6  1  0.33140628  0.66730428  0.51849340  1
  Ti  Ti7  1  0.32706265  0.65816914  0.31658321  1
  Ti  Ti8  1  0.33551139  0.67349136  0.81650501  1
  Si  Si0  1  0.00864067  0.71540711  0.75342872  1
  Si  Si1  1  0.70922896  0.99128623  0.75208431  1
  Si  Si2  1  0.36800709  0.03372926  0.58316703  1
  Si  Si3  1  0.66398421  0.63489562  0.58399410  1
  Si  Si4  1  0.96949113  0.63286395  0.08247436  1
  Si  Si5  1  0.66364659  0.03047707  0.08251842  1
  Si  Si6  1  0.36704684  0.33647732  0.08246406  1
  Si  Si7  1  0.62246686  0.66370358  0.91567718  1
  Si  Si8  1  0.04237795  0.37749886  0.91547585  1
  Si  Si9  1  0.33566710  0.96057661  0.91663201  1
  Si  Si10  1  0.34169931  0.38340002  0.41909587  1
  Si  Si11  1  0.03765023  0.65436016  0.41876942  1
  P  P0  1  0.29429437  0.99260652  0.25093674  1
  P  P1  1  0.69892990  0.70666458  0.25098568  1
  P  P2  1  0.00683030  0.30044710  0.25118877  1
  P  P3  1  0.27719990  0.28602585  0.75196765  1
  P  P4  1  0.96578820  0.33449249  0.58136565  1
  P  P5  1  0.61153224  0.95631190  0.41769514  1
  O  O0  1  0.21987641  0.01609051  0.30907277  1
  O  O1  1  0.79614629  0.78049064  0.30906778  1
  O  O2  1  0.98392825  0.20403064  0.30946024  1
  O  O3  1  0.18562913  0.17784852  0.80848524  1
  O  O4  1  0.99422751  0.82214365  0.81050556  1
  O  O5  1  0.82927645  0.00950101  0.81048099  1
  O  O6  1  0.80968327  0.97289062  0.69177288  1
  O  O7  1  0.17088538  0.19609102  0.69364202  1
  O  O8  1  0.02935455  0.83228004  0.69183647  1
  O  O9  1  0.79872553  0.82403866  0.19497970  1
  O  O10  1  0.02770155  0.20514088  0.19517368  1
  O  O11  1  0.17701808  0.97351122  0.19491862  1
  O  O12  1  0.90448382  0.37741380  0.63912657  1
  O  O13  1  0.47898649  0.08892133  0.64311714  1
  O  O14  1  0.61304915  0.52273285  0.64343349  1
  O  O15  1  0.91438800  0.52838513  0.14379575  1
  O  O16  1  0.61381586  0.08600194  0.14365572  1
  O  O17  1  0.47252043  0.38680461  0.14348845  1
  O  O18  1  0.46717145  0.29948755  0.02635692  1
  O  O19  1  0.83278192  0.53312791  0.02646548  1
  O  O20  1  0.70087052  0.16763448  0.02648387  1
  O  O21  1  0.47522978  0.17011668  0.52652107  1
  O  O22  1  0.69797584  0.53292588  0.52664319  1
  O  O23  1  0.84397347  0.30816173  0.52698825  1
  O  O24  1  0.53191516  0.69671414  0.97321552  1
  O  O25  1  0.16518640  0.46983611  0.97295165  1
  O  O26  1  0.30371221  0.83550333  0.97335805  1
  O  O27  1  0.52044565  0.84698814  0.47332671  1
  O  O28  1  0.32928166  0.48947650  0.47559167  1
  O  O29  1  0.16004935  0.67396259  0.47507903  1
  O  O30  1  0.13984732  0.63538274  0.35840905  1
  O  O31  1  0.50253777  0.86536050  0.35986551  1
  O  O32  1  0.36632198  0.50292597  0.35814831  1
  O  O33  1  0.13630024  0.50237749  0.85660441  1
  O  O34  1  0.36714581  0.86612545  0.85760955  1
  O  O35  1  0.49899815  0.63457237  0.85684302  1
  O  O36  1  0.01602356  0.81841822  0.42040928  1
  O  O37  1  0.78861757  0.97512946  0.41713012  1
  O  O38  1  0.17570934  0.19906716  0.42099863  1
  O  O39  1  0.02285039  0.18818543  0.91103598  1
  O  O40  1  0.16746187  0.98206364  0.91153050  1
  O  O41  1  0.81346660  0.83405130  0.91155160  1
  O  O42  1  0.97906935  0.17098240  0.58515561  1
  O  O43  1  0.18295002  0.02707134  0.58697878  1
  O  O44  1  0.84216685  0.82074741  0.58718490  1
  O  O45  1  0.97953493  0.82052131  0.08939988  1
  O  O46  1  0.84161172  0.02059220  0.08962971  1
  O  O47  1  0.17935542  0.15850754  0.08966185  1
  O  O48  1  0.69198951  0.15789480  0.75419361  1
  O  O49  1  0.45418076  0.30366034  0.75162933  1
  O  O50  1  0.83976906  0.53301128  0.75418849  1
  O  O51  1  0.67314958  0.52699592  0.24632841  1
  O  O52  1  0.85418471  0.32844703  0.24669839  1
  O  O53  1  0.47426300  0.14750587  0.24645831  1
  O  O54  1  0.64065639  0.49395493  0.92223739  1
  O  O55  1  0.85418480  0.36026690  0.92244911  1
  O  O56  1  0.50788732  0.14732964  0.92250079  1
  O  O57  1  0.62543190  0.13315635  0.42067524  1
  O  O58  1  0.51741877  0.37047705  0.42247186  1
  O  O59  1  0.85286156  0.47697003  0.42209047  1
  O  O60  1  0.33586689  0.49556604  0.07010275  1
  O  O61  1  0.16024401  0.66401309  0.07030074  1
  O  O62  1  0.50419901  0.84009717  0.07024174  1
  O  O63  1  0.33438324  0.84139553  0.57088142  1
  O  O64  1  0.50514103  0.66782994  0.57186905  1
  O  O65  1  0.14936731  0.48982174  0.57242059  1
  O  O66  1  0.30263343  0.82342911  0.25269462  1
  O  O67  1  0.52201155  0.70043380  0.25224301  1
  O  O68  1  0.17867701  0.47913623  0.25326693  1
  O  O69  1  0.29037149  0.46329859  0.75364661  1
  O  O70  1  0.18386039  0.70412532  0.75469128  1
  O  O71  1  0.52376073  0.81429087  0.75455585  1
loop_
_geom_bond_atom_site_label_1
_geom_bond_atom_site_label_2
_geom_bond_distance
_geom_bond_site_symmetry_2
Na0 O16 2.374868 1_555
Na0 O53 2.393107 1_555
Na0 O67 2.450866 1_545
Na0 O52 2.589298 1_555
Na0 O66 2.640270 1_545
Na0 O31 2.867397 1_545
Na0 O9 2.928411 1_545
Na1 O17 2.365352 1_555
Na1 O51 2.391049 1_555
Na1 O68 2.475094 1_555
Na1 O53 2.555433 1_555
Na1 O67 2.693411 1_555
Na1 O32 2.871058 1_555
Na1 O10 2.903333 1_555
Na2 O15 2.366188 1_555
Na2 O52 2.396474 1_555
Na2 O66 2.478281 1_655
Na2 O51 2.558423 1_555
Na2 O68 2.690239 1_655
Na2 O30 2.884047 1_655
Na2 O11 2.904288 1_655
Na3 O71 2.397810 1_555
Na3 O50 2.430459 1_555
Na3 O14 2.451937 1_555
Na3 O49 2.492645 1_555
Na3 O69 2.654539 1_555
Na3 O35 2.725187 1_555
Na4 O69 2.417374 1_655
Na4 O48 2.426703 1_555
Na4 O50 2.465352 1_555
Na4 O12 2.604649 1_555
Na4 O70 2.633699 1_655
Na4 O33 2.673482 1_655
Na5 O70 2.427609 1_545
Na5 O13 2.433908 1_555
Na5 O48 2.444898 1_555
Na5 O49 2.453162 1_555
Na5 O71 2.647499 1_545
Na5 O34 2.751622 1_545
Na6 O43 2.446475 1_555
Na6 O65 2.481143 1_555
Na6 O42 2.578878 1_455
Na6 O64 2.659497 1_555
Na6 O7 2.689283 1_555
Na6 O14 2.745767 1_555
Na6 O28 2.787170 1_555
Na6 O21 2.945749 1_555
Na7 O63 2.404112 1_555
Na7 O44 2.487177 1_455
Na7 O65 2.607903 1_555
Na7 O43 2.612834 1_565
Na7 O29 2.718147 1_555
Na7 O8 2.719970 1_555
Na7 O12 2.825281 1_455
Na7 O22 2.905824 1_455
Na8 O64 2.430132 1_555
Na8 O42 2.520364 1_565
Na8 O63 2.621438 1_555
Na8 O44 2.623058 1_555
Na8 O13 2.688300 1_565
Na8 O6 2.694277 1_555
Na8 O27 2.800108 1_555
Na8 O23 2.958719 1_565
Na9 O61 2.431535 1_555
Na9 O47 2.558270 1_565
Na9 O62 2.565113 1_555
Na9 O45 2.630734 1_455
Na9 O26 2.726510 1_554
Na9 O16 2.735377 1_565
Na9 O11 2.762146 1_555
Na9 O18 2.899016 1_565
Na10 O62 2.426966 1_555
Na10 O45 2.556739 1_555
Na10 O60 2.561232 1_555
Na10 O46 2.636454 1_565
Na10 O24 2.726141 1_554
Na10 O17 2.732060 1_555
Na10 O9 2.777077 1_555
Na10 O19 2.900681 1_555
Na11 O60 2.425840 1_555
Na11 O46 2.553427 1_455
Na11 O61 2.571339 1_555
Na11 O47 2.636291 1_555
Na11 O25 2.738040 1_554
Na11 O15 2.744073 1_455
Na11 O10 2.761676 1_555
Na11 O20 2.893328 1_455
Na12 O55 2.441013 1_555
Na12 O41 2.522714 1_555
Na12 O40 2.535365 1_655
Na12 O54 2.547361 1_555
Na12 O4 2.705328 1_555
Na12 O19 2.705515 1_556
Na12 O26 2.955837 1_655
Na12 O33 2.965628 1_655
Na13 O56 2.429892 1_555
Na13 O41 2.525095 1_545
Na13 O39 2.527071 1_655
Na13 O55 2.546718 1_555
Na13 O20 2.701998 1_556
Na13 O5 2.702780 1_555
Na13 O34 2.955405 1_545
Na13 O24 2.964629 1_545
Na14 O54 2.449541 1_555
Na14 O40 2.489314 1_545
Na14 O39 2.489445 1_555
Na14 O56 2.558404 1_555
Na14 O3 2.705817 1_555
Na14 O18 2.715882 1_556
Na14 O25 2.969138 1_555
Na14 O35 2.974885 1_555
Na15 O59 2.382446 1_555
Na15 O38 2.454951 1_655
Na15 O37 2.479717 1_545
Na15 O2 2.522314 1_555
Na15 O57 2.659218 1_555
Na15 O23 2.732897 1_555
Na16 O57 2.436434 1_555
Na16 O38 2.457754 1_555
Na16 O36 2.482163 1_545
Na16 O0 2.516627 1_555
Na16 O58 2.663647 1_555
Na16 O21 2.796911 1_555
Na17 O36 2.400179 1_655
Na17 O58 2.435209 1_555
Na17 O37 2.468429 1_555
Na17 O1 2.483652 1_555
Na17 O59 2.689284 1_555
Na17 O22 2.792996 1_555
Na18 O38 2.426861 1_555
Na18 O36 2.461123 1_545
Na18 O43 2.462753 1_555
Na18 O44 2.495593 1_445
Na18 O42 2.532981 1_455
Na18 O37 2.613327 1_445
Na19 O40 2.498847 1_545
Na19 O41 2.513286 1_445
Na19 O39 2.513554 1_555
Na19 O47 2.553703 1_556
Na19 O46 2.556837 1_456
Na19 O45 2.560576 1_446
Na20 O50 2.431359 1_555
Na20 O48 2.442161 1_555
Na20 O55 2.536651 1_555
Na20 O56 2.549878 1_555
Na20 O54 2.559723 1_555
Na20 O49 2.578658 1_555
Na21 O59 2.537836 1_555
Na21 O52 2.538744 1_555
Na21 O53 2.553592 1_555
Na21 O58 2.561712 1_555
Na21 O51 2.561919 1_555
Na21 O57 2.595100 1_555
Na22 O67 2.538161 1_555
Na22 O66 2.545168 1_555
Na22 O68 2.557877 1_555
Na22 O62 2.575618 1_555
Na22 O61 2.586505 1_555
Na22 O60 2.595757 1_555
Na23 O71 2.443557 1_555
Na23 O70 2.473623 1_555
Na23 O69 2.548913 1_555
Na23 O64 2.639020 1_555
Na23 O63 2.681758 1_555
Na23 O65 2.728360 1_555
Ca0 O0 2.156818 1_565
Ca0 O1 2.172869 1_455
Ca0 O2 2.175648 1_465
Ca0 O38 2.277137 1_565
Ca0 O36 2.277745 1_555
Ca0 O37 2.309920 1_455
Ca1 O13 2.203558 1_555
Ca1 O14 2.212554 1_555
Ca1 O12 2.235230 1_555
Ca1 O48 2.319875 1_555
Ca1 O50 2.321877 1_555
Ca1 O49 2.342456 1_555
Ca2 O15 2.181900 1_555
Ca2 O17 2.184972 1_555
Ca2 O16 2.185162 1_555
Ca2 O53 2.308806 1_555
Ca2 O51 2.322656 1_555
Ca2 O52 2.323141 1_555
O0 P0 1.520621 1_545
O1 P1 1.518590 1_555
O2 P2 1.518092 1_655
O3 P3 1.553416 1_555
O3 Ti0 1.984602 1_445
O4 Si0 1.642584 1_655
O4 Ti0 1.863925 1_555
O5 Si1 1.650571 1_545
O5 Ti0 1.848079 1_545
O6 Si1 1.674902 1_555
O6 Ti1 1.890922 1_555
O7 P3 1.579540 1_555
O7 Ti1 2.029246 1_445
O8 Si0 1.684552 1_555
O8 Ti1 1.848564 1_455
O9 P1 1.592725 1_555
O9 Ti2 2.074411 1_555
O10 P2 1.582053 1_555
O10 Ti2 2.123000 1_445
O11 P0 1.591807 1_555
O11 Ti2 2.093571 1_455
O12 P4 1.524814 1_555
O13 Si2 1.593753 1_555
O14 Si3 1.588695 1_555
O15 Si4 1.590692 1_555
O16 Si5 1.591333 1_555
O17 Si6 1.590771 1_555
O18 Si6 1.672968 1_555
O18 Ti3 1.944509 1_554
O19 Si4 1.671103 1_555
O19 Ti3 1.946221 1_554
O20 Si5 1.673062 1_555
O20 Ti3 1.946468 1_554
O21 Si2 1.690612 1_555
O21 Ti4 1.896588 1_555
O22 Si3 1.693693 1_555
O22 Ti4 1.865027 1_555
O23 P4 1.575213 1_555
O23 Ti4 2.084924 1_555
O24 Si7 1.626573 1_555
O24 Ti5 1.925483 1_556
O25 Si8 1.627368 1_555
O25 Ti5 1.920148 1_556
O26 Si9 1.623718 1_555
O26 Ti5 1.931386 1_556
O27 P5 1.540547 1_555
O27 Ti6 1.953321 1_555
O28 Si10 1.622079 1_555
O28 Ti6 1.872376 1_555
O29 Si11 1.624854 1_555
O29 Ti6 1.860702 1_555
O30 Si11 1.687236 1_555
O30 Ti7 1.856016 1_555
O31 P5 1.581268 1_555
O31 Ti7 2.006082 1_555
O32 Si10 1.679879 1_555
O32 Ti7 1.867914 1_555
O33 Si8 1.659719 1_555
O33 Ti8 1.915694 1_555
O34 Si9 1.669487 1_555
O34 Ti8 1.869654 1_555
O35 Si7 1.656694 1_555
O35 Ti8 1.916390 1_555
O36 Si11 1.603747 1_555
O37 P5 1.531975 1_555
O38 Si10 1.600763 1_555
O39 Si8 1.647160 1_555
O39 Ti0 2.061743 1_445
O40 Si9 1.640993 1_555
O40 Ti0 2.074587 1_455
O41 Si7 1.653441 1_555
O41 Ti0 2.007200 1_555
O42 P4 1.557014 1_555
O42 Ti1 2.258344 1_545
O43 Si2 1.655636 1_555
O43 Ti1 2.068372 1_445
O44 Si3 1.658641 1_555
O44 Ti1 2.004152 1_555
O45 Si4 1.674099 1_555
O45 Ti2 1.938304 1_555
O46 Si5 1.673427 1_555
O46 Ti2 1.944626 1_545
O47 Si6 1.671973 1_555
O47 Ti2 1.944268 1_445
O48 Si1 1.603969 1_545
O49 P3 1.535512 1_555
O50 Si0 1.601541 1_655
O51 P1 1.537553 1_555
O52 P2 1.535724 1_655
O53 P0 1.538305 1_545
O54 Si7 1.643204 1_555
O54 Ti3 2.086482 1_555
O55 Si8 1.645664 1_655
O55 Ti3 2.075762 1_555
O56 Si9 1.642467 1_545
O56 Ti3 2.075134 1_555
O57 P5 1.554225 1_545
O57 Ti4 2.247680 1_555
O58 Si10 1.662267 1_555
O58 Ti4 1.979523 1_555
O59 Si11 1.649633 1_655
O59 Ti4 2.053684 1_555
O60 Si6 1.634513 1_555
O60 Ti5 1.985986 1_555
O61 Si4 1.633539 1_455
O61 Ti5 1.981984 1_555
O62 Si5 1.633790 1_565
O62 Ti5 1.990170 1_555
O63 Si2 1.644948 1_565
O63 Ti6 1.957300 1_555
O64 Si3 1.638934 1_555
O64 Ti6 1.975013 1_555
O65 P4 1.569035 1_455
O65 Ti6 2.024803 1_555
O66 P0 1.582215 1_555
O66 Ti7 2.160234 1_555
O67 P1 1.581677 1_555
O67 Ti7 2.153827 1_555
O68 P2 1.596138 1_555
O68 Ti7 2.064612 1_555
O69 P3 1.560061 1_555
O69 Ti8 2.236940 1_555
O70 Si0 1.647964 1_555
O70 Ti8 2.063193 1_555
O71 Si1 1.650531 1_555
O71 Ti8 2.063706 1_555
