# generated using pymatgen
data_Na3ZrTa(SiO4)3
_symmetry_space_group_name_H-M   'P 1'
_cell_length_a   15.87391657
_cell_length_b   9.18296212
_cell_length_c   9.14716882
_cell_angle_alpha   90.00000000
_cell_angle_beta   124.98083942
_cell_angle_gamma   90.00000000
_symmetry_Int_Tables_number   1
_chemical_formula_structural   Na3ZrTa(SiO4)3
_chemical_formula_sum   'Na12 Zr4 Ta4 Si12 O48'
_cell_volume   1092.49575573
_cell_formula_units_Z   4
loop_
 _symmetry_equiv_pos_site_id
 _symmetry_equiv_pos_as_xyz
  1  'x, y, z'
loop_
 _atom_site_type_symbol
 _atom_site_label
 _atom_site_symmetry_multiplicity
 _atom_site_fract_x
 _atom_site_fract_y
 _atom_site_fract_z
 _atom_site_occupancy
  Na  Na0  1  0.25420429  0.72799210  0.99813629  1
  Na  Na1  1  0.75420429  0.77200790  0.49813629  1
  Na  Na2  1  0.75420429  0.22799210  0.99813629  1
  Na  Na3  1  0.25420429  0.27200790  0.49813629  1
  Na  Na4  1  0.49992716  0.10971331  0.74479391  1
  Na  Na5  1  0.49992716  0.89028669  0.24479391  1
  Na  Na6  1  0.99992716  0.60971331  0.74479391  1
  Na  Na7  1  0.99992716  0.39028669  0.24479391  1
  Na  Na8  1  0.18825454  0.94291096  0.29290133  1
  Na  Na9  1  0.18825454  0.05708904  0.79290133  1
  Na  Na10  1  0.68825454  0.44291096  0.29290133  1
  Na  Na11  1  0.68825454  0.55708904  0.79290133  1
  Zr  Zr0  1  0.10647968  0.74943275  0.56715497  1
  Zr  Zr1  1  0.10647968  0.25056725  0.06715497  1
  Zr  Zr2  1  0.60647968  0.24943275  0.56715497  1
  Zr  Zr3  1  0.60647968  0.75056725  0.06715497  1
  Ta  Ta0  1  0.89322258  0.75372915  0.93391190  1
  Ta  Ta1  1  0.89322258  0.24627085  0.43391190  1
  Ta  Ta2  1  0.39322258  0.25372915  0.93391190  1
  Ta  Ta3  1  0.39322258  0.74627085  0.43391190  1
  Si  Si0  1  0.99478303  0.95922730  0.75343646  1
  Si  Si1  1  0.99478303  0.04077270  0.25343646  1
  Si  Si2  1  0.49478303  0.45922730  0.75343646  1
  Si  Si3  1  0.49478303  0.54077270  0.25343646  1
  Si  Si4  1  0.35501967  0.89921752  0.75608857  1
  Si  Si5  1  0.64558962  0.89008333  0.74334374  1
  Si  Si6  1  0.64558962  0.10991667  0.24334374  1
  Si  Si7  1  0.35501967  0.10078248  0.25608857  1
  Si  Si8  1  0.85501967  0.39921752  0.75608857  1
  Si  Si9  1  0.14558962  0.39008333  0.74334374  1
  Si  Si10  1  0.14558962  0.60991667  0.24334374  1
  Si  Si11  1  0.85501967  0.60078248  0.25608857  1
  O  O0  1  0.15358189  0.56654481  0.74453538  1
  O  O1  1  0.85150366  0.58049845  0.75868788  1
  O  O2  1  0.85150366  0.41950155  0.25868788  1
  O  O3  1  0.15358189  0.43345519  0.24453538  1
  O  O4  1  0.65358189  0.06654481  0.74453538  1
  O  O5  1  0.35150366  0.08049845  0.75868788  1
  O  O6  1  0.35150366  0.91950155  0.25868788  1
  O  O7  1  0.65358189  0.93345519  0.24453538  1
  O  O8  1  0.43214163  0.57455328  0.58113114  1
  O  O9  1  0.56566096  0.55552927  0.93227414  1
  O  O10  1  0.56566096  0.44447073  0.43227414  1
  O  O11  1  0.43214163  0.42544672  0.08113114  1
  O  O12  1  0.93214163  0.07455328  0.58113114  1
  O  O13  1  0.06566096  0.05552927  0.93227414  1
  O  O14  1  0.06566096  0.94447073  0.43227414  1
  O  O15  1  0.93214163  0.92544672  0.08113114  1
  O  O16  1  0.25630522  0.83958336  0.75018316  1
  O  O17  1  0.74162961  0.80460409  0.75731455  1
  O  O18  1  0.74162961  0.19539591  0.25731455  1
  O  O19  1  0.25630522  0.16041664  0.25018316  1
  O  O20  1  0.75630522  0.33958336  0.75018316  1
  O  O21  1  0.24162961  0.30460409  0.75731455  1
  O  O22  1  0.24162961  0.69539591  0.25731455  1
  O  O23  1  0.75630522  0.66041664  0.25018316  1
  O  O24  1  0.35571188  0.85874606  0.57753624  1
  O  O25  1  0.64490195  0.84061787  0.91256974  1
  O  O26  1  0.64490195  0.15938213  0.41256974  1
  O  O27  1  0.35571188  0.14125394  0.07753624  1
  O  O28  1  0.85571188  0.35874606  0.57753624  1
  O  O29  1  0.14490195  0.34061787  0.91256974  1
  O  O30  1  0.14490195  0.65938213  0.41256974  1
  O  O31  1  0.85571188  0.64125394  0.07753624  1
  O  O32  1  0.46114513  0.84284996  0.93482218  1
  O  O33  1  0.53569042  0.82733214  0.56185524  1
  O  O34  1  0.53569042  0.17266786  0.06185524  1
  O  O35  1  0.46114513  0.15715004  0.43482218  1
  O  O36  1  0.96114513  0.34284996  0.93482218  1
  O  O37  1  0.03569042  0.32733214  0.56185524  1
  O  O38  1  0.03569042  0.67266786  0.06185524  1
  O  O39  1  0.96114513  0.65715004  0.43482218  1
  O  O40  1  0.07279963  0.85212907  0.74092708  1
  O  O41  1  0.91144746  0.85619504  0.75839607  1
  O  O42  1  0.91144746  0.14380496  0.25839607  1
  O  O43  1  0.07279963  0.14787093  0.24092708  1
  O  O44  1  0.57279963  0.35212907  0.74092708  1
  O  O45  1  0.41144746  0.35619504  0.75839607  1
  O  O46  1  0.41144746  0.64380496  0.25839607  1
  O  O47  1  0.57279963  0.64787093  0.24092708  1
loop_
_geom_bond_atom_site_label_1
_geom_bond_atom_site_label_2
_geom_bond_distance
_geom_bond_site_symmetry_2
Na0 O46 2.383707 1_556
Na0 O0 2.425279 1_555
Na0 O16 2.506405 1_555
Na0 O22 2.508483 1_556
Na0 O6 2.633958 1_556
Na0 O40 2.712705 1_555
Na1 O41 2.383707 1_555
Na1 O7 2.425279 1_555
Na1 O23 2.506405 1_555
Na1 O17 2.508483 1_555
Na1 O1 2.633958 1_555
Na1 O47 2.712705 1_555
Na2 O42 2.383707 1_556
Na2 O4 2.425279 1_555
Na2 O20 2.506405 1_555
Na2 O18 2.508483 1_556
Na2 O2 2.633958 1_556
Na2 O44 2.712705 1_555
Na3 O45 2.383707 1_555
Na3 O3 2.425279 1_555
Na3 O19 2.506405 1_555
Na3 O21 2.508483 1_555
Na3 O5 2.633958 1_555
Na3 O43 2.712705 1_555
Na4 O5 2.445912 1_555
Na4 O4 2.472445 1_555
Na4 O44 2.518290 1_555
Na4 O35 2.570334 1_555
Na4 O34 2.679533 1_556
Na4 O45 2.704007 1_555
Na5 O6 2.445912 1_555
Na5 O7 2.472445 1_555
Na5 O47 2.518290 1_555
Na5 O32 2.570334 1_554
Na5 O33 2.679533 1_555
Na5 O46 2.704007 1_555
Na6 O1 2.445912 1_555
Na6 O0 2.472445 1_655
Na6 O40 2.518290 1_655
Na6 O39 2.570334 1_555
Na6 O38 2.679533 1_656
Na6 O41 2.704007 1_555
Na7 O2 2.445912 1_555
Na7 O3 2.472445 1_655
Na7 O43 2.518290 1_655
Na7 O36 2.570334 1_554
Na7 O37 2.679533 1_655
Na7 O42 2.704007 1_555
Na8 O19 2.406857 1_565
Na8 O43 2.475539 1_565
Na8 O22 2.511223 1_555
Na8 O24 2.550804 1_555
Na8 O6 2.790952 1_555
Na8 O14 2.873538 1_555
Na8 O13 2.894401 1_564
Na9 O16 2.406857 1_545
Na9 O40 2.475539 1_545
Na9 O21 2.511223 1_555
Na9 O27 2.550804 1_556
Na9 O5 2.790952 1_555
Na9 O13 2.873538 1_555
Na9 O14 2.894401 1_545
Na10 O23 2.406857 1_555
Na10 O47 2.475539 1_555
Na10 O18 2.511223 1_555
Na10 O28 2.550804 1_555
Na10 O2 2.790952 1_555
Na10 O10 2.873538 1_555
Na10 O9 2.894401 1_554
Na11 O20 2.406857 1_555
Na11 O44 2.475539 1_555
Na11 O17 2.511223 1_555
Na11 O31 2.550804 1_556
Na11 O1 2.790952 1_555
Na11 O9 2.873538 1_555
Na11 O10 2.894401 1_555
O0 Si9 1.624947 1_555
O0 Zr0 2.149697 1_555
O1 Si8 1.666258 1_555
O1 Ta0 2.078711 1_555
O2 Si11 1.666258 1_555
O2 Ta1 2.078711 1_555
O3 Si10 1.624947 1_555
O3 Zr1 2.149697 1_555
O4 Si5 1.624947 1_545
O4 Zr2 2.149697 1_555
O5 Si4 1.666258 1_545
O5 Ta2 2.078711 1_555
O6 Si7 1.666258 1_565
O6 Ta3 2.078711 1_555
O7 Si6 1.624947 1_565
O7 Zr3 2.149697 1_555
O8 Si2 1.672554 1_555
O8 Ta3 1.930733 1_555
O9 Si2 1.616666 1_555
O9 Zr3 2.057473 1_556
O10 Si3 1.616666 1_555
O10 Zr2 2.057473 1_555
O11 Si3 1.672554 1_555
O11 Ta2 1.930733 1_554
O12 Si0 1.672554 1_545
O12 Ta1 1.930733 1_555
O13 Si0 1.616666 1_445
O13 Zr1 2.057473 1_556
O14 Si1 1.616666 1_465
O14 Zr0 2.057473 1_555
O15 Si1 1.672554 1_565
O15 Ta0 1.930733 1_554
O16 Si4 1.631316 1_555
O16 Zr0 2.139893 1_555
O17 Si5 1.653266 1_555
O17 Ta0 2.039914 1_555
O18 Si6 1.653266 1_555
O18 Ta1 2.039914 1_555
O19 Si7 1.631316 1_555
O19 Zr1 2.139893 1_555
O20 Si8 1.631316 1_555
O20 Zr2 2.139893 1_555
O21 Si9 1.653266 1_555
O21 Ta2 2.039914 1_555
O22 Si10 1.653266 1_555
O22 Ta3 2.039914 1_555
O23 Si11 1.631316 1_555
O23 Zr3 2.139893 1_555
O24 Si4 1.681166 1_555
O24 Ta3 2.011031 1_555
O25 Si5 1.619241 1_555
O25 Zr3 2.010998 1_556
O26 Si6 1.619241 1_555
O26 Zr2 2.010998 1_555
O27 Si7 1.681166 1_555
O27 Ta2 2.011031 1_554
O28 Si8 1.681166 1_555
O28 Ta1 2.011031 1_555
O29 Si9 1.619241 1_555
O29 Zr1 2.010998 1_556
O30 Si10 1.619241 1_555
O30 Zr0 2.010998 1_555
O31 Si11 1.681166 1_555
O31 Ta0 2.011031 1_554
O32 Si4 1.618898 1_555
O32 Zr3 2.074550 1_556
O33 Si5 1.676516 1_555
O33 Ta3 2.000878 1_555
O34 Si6 1.676516 1_555
O34 Ta2 2.000878 1_554
O35 Si7 1.618898 1_555
O35 Zr2 2.074550 1_555
O36 Si8 1.618898 1_555
O36 Zr1 2.074550 1_656
O37 Si9 1.676516 1_555
O37 Ta1 2.000878 1_455
O38 Si10 1.676516 1_555
O38 Ta0 2.000878 1_454
O39 Si11 1.618898 1_555
O39 Zr0 2.074550 1_655
O40 Si0 1.636005 1_455
O40 Zr0 2.162446 1_555
O41 Si0 1.648034 1_555
O41 Ta0 2.019694 1_555
O42 Si1 1.648034 1_555
O42 Ta1 2.019694 1_555
O43 Si1 1.636005 1_455
O43 Zr1 2.162446 1_555
O44 Si2 1.636005 1_555
O44 Zr2 2.162446 1_555
O45 Si2 1.648034 1_555
O45 Ta2 2.019694 1_555
O46 Si3 1.648034 1_555
O46 Ta3 2.019694 1_555
O47 Si3 1.636005 1_555
O47 Zr3 2.162446 1_555
