# generated using pymatgen
data_Na8Ca3Sn(PO4)6
_symmetry_space_group_name_H-M   'P 1'
_cell_length_a   9.38125643
_cell_length_b   9.38125608
_cell_length_c   22.97452523
_cell_angle_alpha   90.00000000
_cell_angle_beta   90.00000000
_cell_angle_gamma   120.00000119
_symmetry_Int_Tables_number   1
_chemical_formula_structural   Na8Ca3Sn(PO4)6
_chemical_formula_sum   'Na24 Ca9 Sn3 P18 O72'
_cell_volume   1751.05251247
_cell_formula_units_Z   3
loop_
 _symmetry_equiv_pos_site_id
 _symmetry_equiv_pos_as_xyz
  1  'x, y, z'
loop_
 _atom_site_type_symbol
 _atom_site_label
 _atom_site_symmetry_multiplicity
 _atom_site_fract_x
 _atom_site_fract_y
 _atom_site_fract_z
 _atom_site_occupancy
  Na  Na0  1  0.63510877  0.99949417  0.25300729  1
  Na  Na1  1  0.36438540  0.36489123  0.25300729  1
  Na  Na2  1  0.00050583  0.63561460  0.25300729  1
  Na  Na3  1  0.64543104  0.63703571  0.74303555  1
  Na  Na4  1  0.99160466  0.35456896  0.74303555  1
  Na  Na5  1  0.36296429  0.00839534  0.74303555  1
  Na  Na6  1  0.29628672  0.33584770  0.57908754  1
  Na  Na7  1  0.03956198  0.70371328  0.57908754  1
  Na  Na8  1  0.66415230  0.96043802  0.57908754  1
  Na  Na9  1  0.29571043  0.96262906  0.09197384  1
  Na  Na10  1  0.66691963  0.70428957  0.09197384  1
  Na  Na11  1  0.03737094  0.33308037  0.09197384  1
  Na  Na12  1  0.97107550  0.67601880  0.91588454  1
  Na  Na13  1  0.70494230  0.02892450  0.91588454  1
  Na  Na14  1  0.32398120  0.29505770  0.91588454  1
  Na  Na15  1  0.97894496  0.30323769  0.40913647  1
  Na  Na16  1  0.32429174  0.02105504  0.40913647  1
  Na  Na17  1  0.69676231  0.67570826  0.40913647  1
  Na  Na18  1  -0.00000000  0.00000000  0.49594556  1
  Na  Na19  1  -0.00000000  0.00000000  0.00697280  1
  Na  Na20  1  0.66666700  0.33333300  0.82843960  1
  Na  Na21  1  0.66666700  0.33333300  0.32675105  1
  Na  Na22  1  0.33333300  0.66666700  0.17680526  1
  Na  Na23  1  0.33333300  0.66666700  0.65856811  1
  Ca  Ca0  1  -0.00000000  0.00000000  0.34638921  1
  Ca  Ca1  1  -0.00000000  0.00000000  0.84663103  1
  Ca  Ca2  1  -0.00000000  0.00000000  0.65189618  1
  Ca  Ca3  1  -0.00000000  0.00000000  0.15335225  1
  Ca  Ca4  1  0.66666700  0.33333300  0.68230292  1
  Ca  Ca5  1  0.66666700  0.33333300  0.18307574  1
  Ca  Ca6  1  0.33333300  0.66666700  0.01668436  1
  Ca  Ca7  1  0.33333300  0.66666700  0.51145034  1
  Ca  Ca8  1  0.33333300  0.66666700  0.32290486  1
  Sn  Sn0  1  0.66666700  0.33333300  0.98431563  1
  Sn  Sn1  1  0.66666700  0.33333300  0.48633411  1
  Sn  Sn2  1  0.33333300  0.66666700  0.82141582  1
  P  P0  1  0.30640897  0.99722924  0.24964544  1
  P  P1  1  0.69082027  0.69359103  0.24964544  1
  P  P2  1  0.00277076  0.30917973  0.24964544  1
  P  P3  1  0.30556621  0.31698519  0.75478467  1
  P  P4  1  0.01141898  0.69443379  0.75478467  1
  P  P5  1  0.68301481  0.98858102  0.75478467  1
  P  P6  1  0.96287607  0.33239668  0.58310171  1
  P  P7  1  0.36952161  0.03712393  0.58310171  1
  P  P8  1  0.66760332  0.63047839  0.58310171  1
  P  P9  1  0.95999938  0.62991946  0.07937638  1
  P  P10  1  0.66992108  0.04000062  0.07937638  1
  P  P11  1  0.37008054  0.33007892  0.07937638  1
  P  P12  1  0.62876967  0.65671685  0.91772495  1
  P  P13  1  0.02794618  0.37123033  0.91772495  1
  P  P14  1  0.34328315  0.97205382  0.91772495  1
  P  P15  1  0.64147768  0.98481790  0.42124573  1
  P  P16  1  0.34333922  0.35852232  0.42124573  1
  P  P17  1  0.01518210  0.65666078  0.42124573  1
  O  O0  1  0.21982539  0.01366679  0.30446132  1
  O  O1  1  0.79384140  0.78017461  0.30446132  1
  O  O2  1  0.98633321  0.20615860  0.30446132  1
  O  O3  1  0.22590075  0.21337872  0.80936524  1
  O  O4  1  0.98747797  0.77409925  0.80936524  1
  O  O5  1  0.78662128  0.01252203  0.80936524  1
  O  O6  1  0.75789685  0.95678436  0.69971474  1
  O  O7  1  0.19888751  0.24210315  0.69971474  1
  O  O8  1  0.04321564  0.80111249  0.69971474  1
  O  O9  1  0.77330029  0.79337998  0.19341200  1
  O  O10  1  0.02007969  0.22669971  0.19341200  1
  O  O11  1  0.20662002  0.97992031  0.19341200  1
  O  O12  1  0.88529406  0.35140898  0.63916904  1
  O  O13  1  0.46611592  0.11470594  0.63916904  1
  O  O14  1  0.64859102  0.53388408  0.63916904  1
  O  O15  1  0.87510181  0.52508337  0.13231952  1
  O  O16  1  0.64998256  0.12489819  0.13231952  1
  O  O17  1  0.47491663  0.35001744  0.13231952  1
  O  O18  1  0.45678691  0.30857086  0.02123056  1
  O  O19  1  0.85178495  0.54321309  0.02123056  1
  O  O20  1  0.69142914  0.14821505  0.02123056  1
  O  O21  1  0.46385988  0.14945629  0.52867558  1
  O  O22  1  0.68559741  0.53614012  0.52867558  1
  O  O23  1  0.85054371  0.31440259  0.52867558  1
  O  O24  1  0.55005108  0.68222267  0.97089998  1
  O  O25  1  0.13217059  0.44994892  0.97089998  1
  O  O26  1  0.31777733  0.86782941  0.97089998  1
  O  O27  1  0.56174833  0.88096162  0.47589086  1
  O  O28  1  0.31921229  0.43825167  0.47589086  1
  O  O29  1  0.11903838  0.68078771  0.47589086  1
  O  O30  1  0.09037961  0.62425331  0.36655742  1
  O  O31  1  0.53387270  0.90962039  0.36655742  1
  O  O32  1  0.37574669  0.46612730  0.36655742  1
  O  O33  1  0.11245987  0.48499638  0.86183819  1
  O  O34  1  0.37253551  0.88754013  0.86183819  1
  O  O35  1  0.51500362  0.62746449  0.86183819  1
  O  O36  1  0.98897266  0.80677651  0.41602458  1
  O  O37  1  0.81780385  0.01102734  0.41602458  1
  O  O38  1  0.19322349  0.18219615  0.41602458  1
  O  O39  1  0.00130563  0.19643743  0.90986952  1
  O  O40  1  0.19513179  0.99869437  0.90986952  1
  O  O41  1  0.80356257  0.80486821  0.90986952  1
  O  O42  1  0.97376331  0.17225083  0.58239459  1
  O  O43  1  0.19848751  0.02623669  0.58239459  1
  O  O44  1  0.82774917  0.80151249  0.58239459  1
  O  O45  1  0.97239204  0.80112647  0.07894753  1
  O  O46  1  0.82873443  0.02760796  0.07894753  1
  O  O47  1  0.19887353  0.17126557  0.07894753  1
  O  O48  1  0.65594157  0.13843152  0.74987433  1
  O  O49  1  0.48249095  0.34405843  0.74987433  1
  O  O50  1  0.86156848  0.51750905  0.74987433  1
  O  O51  1  0.67323553  0.51948648  0.24852827  1
  O  O52  1  0.84625195  0.32676447  0.24852827  1
  O  O53  1  0.48051352  0.15374805  0.24852827  1
  O  O54  1  0.63872586  0.49116319  0.92003080  1
  O  O55  1  0.85243833  0.36127414  0.92003080  1
  O  O56  1  0.50883681  0.14756167  0.92003080  1
  O  O57  1  0.65573745  0.16162640  0.42643105  1
  O  O58  1  0.50588995  0.34426255  0.42643105  1
  O  O59  1  0.83837360  0.49411005  0.42643105  1
  O  O60  1  0.35243334  0.48459871  0.07521571  1
  O  O61  1  0.13216437  0.64756666  0.07521571  1
  O  O62  1  0.51540129  0.86783563  0.07521571  1
  O  O63  1  0.35139191  0.86398351  0.57786322  1
  O  O64  1  0.51259060  0.64860809  0.57786322  1
  O  O65  1  0.13601649  0.48740940  0.57786322  1
  O  O66  1  0.32322471  0.84009136  0.25261729  1
  O  O67  1  0.51686565  0.67677529  0.25261729  1
  O  O68  1  0.15990864  0.48313435  0.25261729  1
  O  O69  1  0.31849461  0.49359803  0.76058626  1
  O  O70  1  0.17510242  0.68150539  0.76058626  1
  O  O71  1  0.50640197  0.82489758  0.76058626  1
loop_
_geom_bond_atom_site_label_1
_geom_bond_atom_site_label_2
_geom_bond_distance
_geom_bond_site_symmetry_2
Na0 O53 2.511325 1_565
Na0 O66 2.534097 1_555
Na0 O67 2.652931 1_555
Na0 O52 2.697934 1_565
Na0 O31 2.760024 1_555
Na0 O16 2.987884 1_565
Na1 O51 2.511334 1_555
Na1 O67 2.534097 1_555
Na1 O68 2.652940 1_555
Na1 O53 2.697942 1_555
Na1 O32 2.760025 1_555
Na1 O17 2.987888 1_555
Na2 O52 2.511334 1_455
Na2 O68 2.534089 1_555
Na2 O66 2.652933 1_555
Na2 O51 2.697933 1_455
Na2 O30 2.760022 1_555
Na2 O15 2.987886 1_455
Na3 O49 2.390434 1_555
Na3 O14 2.580764 1_555
Na3 O69 2.693159 1_555
Na3 O71 2.695978 1_555
Na3 O50 2.768928 1_555
Na3 O6 2.817228 1_555
Na3 O35 2.974078 1_555
Na4 O50 2.390426 1_555
Na4 O12 2.580761 1_555
Na4 O70 2.693158 1_655
Na4 O69 2.695970 1_655
Na4 O48 2.768921 1_555
Na4 O7 2.817228 1_655
Na4 O33 2.974076 1_655
Na5 O48 2.390434 1_555
Na5 O13 2.580762 1_555
Na5 O71 2.693151 1_545
Na5 O70 2.695971 1_545
Na5 O49 2.768919 1_555
Na5 O8 2.817228 1_545
Na5 O34 2.974074 1_545
Na6 O28 2.526596 1_555
Na6 O65 2.533935 1_555
Na6 O43 2.572749 1_555
Na6 O64 2.602587 1_555
Na6 O42 2.621504 1_455
Na6 O7 2.912926 1_555
Na7 O29 2.526589 1_555
Na7 O63 2.533919 1_555
Na7 O44 2.572758 1_455
Na7 O65 2.602573 1_555
Na7 O43 2.621504 1_565
Na7 O8 2.912928 1_555
Na8 O27 2.526594 1_555
Na8 O64 2.533918 1_555
Na8 O42 2.572751 1_565
Na8 O63 2.602591 1_555
Na8 O44 2.621496 1_555
Na8 O6 2.912925 1_555
Na9 O11 2.508310 1_555
Na9 O47 2.554183 1_565
Na9 O61 2.589103 1_555
Na9 O45 2.643764 1_455
Na9 O62 2.649427 1_555
Na9 O26 2.958930 1_554
Na9 O16 3.027039 1_565
Na10 O9 2.508307 1_555
Na10 O45 2.554175 1_555
Na10 O62 2.589119 1_555
Na10 O46 2.643764 1_565
Na10 O60 2.649441 1_555
Na10 O24 2.958936 1_554
Na10 O17 3.027039 1_555
Na11 O10 2.508306 1_555
Na11 O46 2.554176 1_455
Na11 O60 2.589103 1_555
Na11 O47 2.643756 1_555
Na11 O61 2.649445 1_555
Na11 O25 2.958934 1_554
Na11 O15 3.027039 1_455
Na12 O41 2.418540 1_555
Na12 O55 2.584560 1_555
Na12 O4 2.591842 1_555
Na12 O40 2.690315 1_655
Na12 O19 2.695936 1_556
Na12 O54 2.707501 1_555
Na13 O39 2.418547 1_655
Na13 O56 2.584543 1_555
Na13 O5 2.591845 1_555
Na13 O41 2.690322 1_545
Na13 O20 2.695931 1_556
Na13 O55 2.707500 1_555
Na14 O40 2.418548 1_545
Na14 O54 2.584558 1_555
Na14 O3 2.591844 1_555
Na14 O39 2.690313 1_555
Na14 O18 2.695939 1_556
Na14 O56 2.707517 1_555
Na15 O37 2.383482 1_555
Na15 O2 2.584706 1_555
Na15 O57 2.662375 1_555
Na15 O59 2.732147 1_555
Na15 O38 2.763692 1_655
Na15 O30 2.823272 1_655
Na16 O38 2.383474 1_555
Na16 O0 2.584703 1_555
Na16 O58 2.662376 1_555
Na16 O57 2.732164 1_555
Na16 O36 2.763685 1_445
Na16 O31 2.823272 1_545
Na17 O36 2.383482 1_555
Na17 O1 2.584704 1_555
Na17 O59 2.662392 1_555
Na17 O58 2.732162 1_555
Na17 O37 2.763683 1_565
Na17 O32 2.823272 1_555
Na18 O36 2.545667 1_445
Na18 O38 2.545667 1_555
Na18 O37 2.545667 1_455
Na18 O44 2.648440 1_445
Na18 O43 2.648440 1_555
Na18 O42 2.648440 1_455
Na19 O45 2.408110 1_445
Na19 O47 2.408110 1_555
Na19 O46 2.408110 1_455
Na19 O41 2.889727 1_444
Na19 O40 2.889727 1_544
Na19 O39 2.889727 1_554
Na20 O48 2.535212 1_555
Na20 O50 2.535212 1_555
Na20 O49 2.535212 1_555
Na20 O56 2.660274 1_555
Na20 O54 2.660274 1_555
Na20 O55 2.660274 1_555
Na21 O51 2.485079 1_555
Na21 O53 2.485079 1_555
Na21 O52 2.485079 1_555
Na21 O57 2.772123 1_555
Na21 O59 2.772123 1_555
Na21 O58 2.772123 1_555
Na22 O68 2.417411 1_555
Na22 O66 2.417411 1_555
Na22 O67 2.417411 1_555
Na22 O62 2.950076 1_555
Na22 O60 2.950076 1_555
Na22 O61 2.950076 1_555
Na23 O63 2.565050 1_555
Na23 O65 2.565050 1_555
Na23 O64 2.565050 1_555
Na23 O69 2.814772 1_555
Na23 O71 2.814772 1_555
Na23 O70 2.814772 1_555
Ca0 O1 2.220981 1_445
Ca0 O2 2.220981 1_455
Ca0 O0 2.220981 1_555
Ca0 O36 2.380855 1_445
Ca0 O38 2.380855 1_555
Ca0 O37 2.380855 1_455
Ca1 O4 2.233610 1_445
Ca1 O3 2.233610 1_555
Ca1 O5 2.233610 1_455
Ca1 O41 2.341889 1_445
Ca1 O40 2.341889 1_545
Ca1 O39 2.341889 1_555
Ca2 O7 2.368333 1_555
Ca2 O8 2.368333 1_545
Ca2 O6 2.368333 1_445
Ca2 O44 2.370486 1_445
Ca2 O43 2.370486 1_555
Ca2 O42 2.370486 1_455
Ca3 O10 2.237161 1_555
Ca3 O9 2.237161 1_445
Ca3 O11 2.237161 1_545
Ca3 O45 2.446782 1_445
Ca3 O47 2.446782 1_555
Ca3 O46 2.446782 1_455
Ca4 O13 2.206714 1_555
Ca4 O14 2.206714 1_555
Ca4 O12 2.206714 1_555
Ca4 O48 2.362051 1_555
Ca4 O50 2.362051 1_555
Ca4 O49 2.362051 1_555
Ca5 O16 2.213988 1_555
Ca5 O15 2.213988 1_555
Ca5 O17 2.213988 1_555
Ca5 O51 2.281923 1_555
Ca5 O53 2.281923 1_555
Ca5 O52 2.281923 1_555
Ca6 O25 2.228114 1_554
Ca6 O26 2.228114 1_554
Ca6 O24 2.228114 1_554
Ca6 O62 2.250294 1_555
Ca6 O60 2.250294 1_555
Ca6 O61 2.250294 1_555
Ca7 O28 2.234459 1_555
Ca7 O27 2.234459 1_555
Ca7 O29 2.234459 1_555
Ca7 O63 2.338731 1_555
Ca7 O65 2.338731 1_555
Ca7 O64 2.338732 1_555
Ca8 O68 2.327629 1_555
Ca8 O66 2.327629 1_555
Ca8 O67 2.327629 1_555
Ca8 O31 2.334958 1_555
Ca8 O32 2.334958 1_555
Ca8 O30 2.334958 1_555
O0 P0 1.547519 1_545
O1 P1 1.547519 1_555
O2 P2 1.547519 1_655
O3 P3 1.532733 1_555
O4 P4 1.532733 1_655
O5 P5 1.532733 1_545
O6 P5 1.546855 1_555
O7 P3 1.546855 1_555
O8 P4 1.546855 1_555
O9 P1 1.555579 1_555
O10 P2 1.555579 1_555
O11 P0 1.555579 1_555
O12 P6 1.533165 1_555
O13 P7 1.533165 1_555
O14 P8 1.533165 1_555
O15 P9 1.515842 1_555
O16 P10 1.515843 1_555
O17 P11 1.515843 1_555
O18 P11 1.628200 1_555
O18 Sn0 2.047579 1_554
O19 P9 1.628200 1_555
O19 Sn0 2.047579 1_554
O20 P10 1.628200 1_555
O20 Sn0 2.047579 1_554
O21 P7 1.588922 1_555
O21 Sn1 2.063923 1_555
O22 P8 1.588922 1_555
O22 Sn1 2.063923 1_555
O23 P6 1.588922 1_555
O23 Sn1 2.063923 1_555
O24 P12 1.507245 1_555
O25 P13 1.507244 1_555
O26 P14 1.507244 1_555
O27 P15 1.534964 1_555
O28 P16 1.534964 1_555
O29 P17 1.534964 1_555
O30 P17 1.543760 1_555
O31 P15 1.543760 1_555
O32 P16 1.543760 1_555
O33 P13 1.603144 1_555
O33 Sn2 2.128175 1_555
O34 P14 1.603144 1_555
O34 Sn2 2.128175 1_555
O35 P12 1.603144 1_555
O35 Sn2 2.128176 1_555
O36 P17 1.550595 1_655
O37 P15 1.550604 1_545
O38 P16 1.550600 1_555
O39 P13 1.540806 1_555
O40 P14 1.540797 1_555
O41 P12 1.540803 1_555
O42 P6 1.556038 1_555
O43 P7 1.556048 1_555
O44 P8 1.556043 1_555
O45 P9 1.551310 1_555
O46 P10 1.551300 1_555
O47 P11 1.551305 1_555
O48 P5 1.552582 1_545
O49 P3 1.552591 1_555
O50 P4 1.552587 1_655
O51 P1 1.557614 1_555
O52 P2 1.557605 1_655
O53 P0 1.557610 1_545
O54 P12 1.602721 1_555
O54 Sn0 2.197818 1_555
O55 P13 1.602703 1_655
O55 Sn0 2.197818 1_555
O56 P14 1.602711 1_545
O56 Sn0 2.197818 1_555
O57 P15 1.600449 1_545
O57 Sn1 2.081863 1_555
O58 P16 1.600468 1_555
O58 Sn1 2.081863 1_555
O59 P17 1.600457 1_655
O59 Sn1 2.081863 1_555
O60 P11 1.542024 1_555
O61 P9 1.542006 1_455
O62 P10 1.542014 1_565
O63 P7 1.550943 1_565
O64 P8 1.550962 1_555
O65 P6 1.550951 1_455
O66 P0 1.560519 1_555
O67 P1 1.560528 1_555
O68 P2 1.560524 1_555
O69 P3 1.605203 1_555
O69 Sn2 2.093454 1_555
O70 P4 1.605194 1_555
O70 Sn2 2.093454 1_555
O71 P5 1.605199 1_555
O71 Sn2 2.093454 1_555
