# generated using pymatgen
data_NdTa3O9
_symmetry_space_group_name_H-M   'P 1'
_cell_length_a   7.55037418
_cell_length_b   5.40564224
_cell_length_c   8.22254331
_cell_angle_alpha   87.59549971
_cell_angle_beta   90.00000000
_cell_angle_gamma   90.00000000
_symmetry_Int_Tables_number   1
_chemical_formula_structural   NdTa3O9
_chemical_formula_sum   'Nd2 Ta6 O18'
_cell_volume   335.30451086
_cell_formula_units_Z   2
loop_
 _symmetry_equiv_pos_site_id
 _symmetry_equiv_pos_as_xyz
  1  'x, y, z'
loop_
 _atom_site_type_symbol
 _atom_site_label
 _atom_site_symmetry_multiplicity
 _atom_site_fract_x
 _atom_site_fract_y
 _atom_site_fract_z
 _atom_site_occupancy
  Nd  Nd0  1  0.75000000  0.03306845  0.56571628  1
  Nd  Nd1  1  0.25000000  0.96693155  0.43428372  1
  Ta  Ta0  1  0.49271477  0.52622639  0.69923124  1
  Ta  Ta1  1  0.99271477  0.47377361  0.30076876  1
  Ta  Ta2  1  0.50000000  -0.00000000  0.00000000  1
  Ta  Ta3  1  -0.00000000  -0.00000000  0.00000000  1
  Ta  Ta4  1  0.00728523  0.52622639  0.69923124  1
  Ta  Ta5  1  0.50728523  0.47377361  0.30076876  1
  O  O0  1  0.75000000  0.44081938  0.68777286  1
  O  O1  1  0.25000000  0.55918062  0.31222714  1
  O  O2  1  0.75000000  0.08754642  0.01649080  1
  O  O3  1  0.25000000  0.91245358  0.98350920  1
  O  O4  1  0.25000000  0.64863354  0.66042835  1
  O  O5  1  0.75000000  0.35136646  0.33957165  1
  O  O6  1  0.03775465  0.26564918  0.53317373  1
  O  O7  1  0.53775465  0.73435082  0.46682627  1
  O  O8  1  0.55648848  0.84650109  0.78660762  1
  O  O9  1  0.05648848  0.15349891  0.21339238  1
  O  O10  1  0.44351152  0.15349891  0.21339238  1
  O  O11  1  0.94351152  0.84650109  0.78660762  1
  O  O12  1  0.04968670  0.31840702  0.87892326  1
  O  O13  1  0.54968670  0.68159298  0.12107674  1
  O  O14  1  0.95031330  0.68159298  0.12107674  1
  O  O15  1  0.45031330  0.31840702  0.87892326  1
  O  O16  1  0.46224535  0.26564918  0.53317373  1
  O  O17  1  0.96224535  0.73435082  0.46682627  1
loop_
_geom_bond_atom_site_label_1
_geom_bond_atom_site_label_2
_geom_bond_distance
_geom_bond_site_symmetry_2
Nd0 O7 2.438628 1_545
Nd0 O17 2.438628 1_545
Nd0 O0 2.459911 1_555
Nd0 O5 2.479860 1_555
Nd0 O11 2.509398 1_545
Nd0 O8 2.509398 1_545
Nd0 O16 2.518824 1_555
Nd0 O6 2.518824 1_655
Nd1 O16 2.438628 1_565
Nd1 O6 2.438628 1_565
Nd1 O1 2.459911 1_555
Nd1 O4 2.479860 1_555
Nd1 O10 2.509398 1_565
Nd1 O9 2.509398 1_565
Nd1 O17 2.518824 1_455
Nd1 O7 2.518824 1_555
O0 Ta4 1.999842 1_655
O0 Ta0 1.999842 1_555
O1 Ta1 1.999842 1_455
O1 Ta5 1.999842 1_555
O2 Ta3 1.952112 1_655
O2 Ta2 1.952112 1_555
O3 Ta2 1.952112 1_566
O3 Ta3 1.952112 1_566
O4 Ta4 1.969846 1_555
O4 Ta0 1.969846 1_555
O5 Ta5 1.969846 1_555
O5 Ta1 1.969846 1_555
O6 Ta4 2.015635 1_555
O6 Ta1 2.202895 1_455
O7 Ta5 2.015635 1_555
O7 Ta0 2.202895 1_555
O8 Ta0 1.962084 1_555
O8 Ta2 2.017745 1_566
O9 Ta1 1.962084 1_455
O9 Ta3 2.017745 1_555
O10 Ta5 1.962084 1_555
O10 Ta2 2.017745 1_555
O11 Ta4 1.962084 1_655
O11 Ta3 2.017745 1_666
O12 Ta4 1.846164 1_555
O12 Ta3 1.987613 1_556
O13 Ta5 1.846164 1_555
O13 Ta2 1.987613 1_565
O14 Ta1 1.846164 1_555
O14 Ta3 1.987613 1_665
O15 Ta0 1.846164 1_555
O15 Ta2 1.987613 1_556
O16 Ta0 2.015635 1_555
O16 Ta5 2.202895 1_555
O17 Ta1 2.015635 1_555
O17 Ta4 2.202895 1_655
