# generated using pymatgen
data_CrSBr
_symmetry_space_group_name_H-M   'P 1'
_cell_length_a   3.54045614
_cell_length_b   4.75547185
_cell_length_c   8.39404235
_cell_angle_alpha   90.00000000
_cell_angle_beta   90.00000000
_cell_angle_gamma   90.00000000
_symmetry_Int_Tables_number   1
_chemical_formula_structural   CrSBr
_chemical_formula_sum   'Cr2 S2 Br2'
_cell_volume   141.32662567
_cell_formula_units_Z   2
loop_
 _symmetry_equiv_pos_site_id
 _symmetry_equiv_pos_as_xyz
  1  'x, y, z'
loop_
 _atom_site_type_symbol
 _atom_site_label
 _atom_site_symmetry_multiplicity
 _atom_site_fract_x
 _atom_site_fract_y
 _atom_site_fract_z
 _atom_site_occupancy
  Cr  Cr0  1  0.75000000  0.25000000  0.87874340  1
  Cr  Cr1  1  0.25000000  0.75000000  0.12125660  1
  S  S0  1  0.75000000  0.75000000  0.92950143  1
  S  S1  1  0.25000000  0.25000000  0.07049857  1
  Br  Br0  1  0.25000000  0.25000000  0.66595786  1
  Br  Br1  1  0.75000000  0.75000000  0.33404114  1
loop_
_geom_bond_atom_site_label_1
_geom_bond_atom_site_label_2
_geom_bond_distance
_geom_bond_site_symmetry_2
Cr0 S1 2.392598 1_656
Cr0 S1 2.392598 1_556
Cr0 S0 2.415607 1_545
Cr0 S0 2.415607 1_555
Cr1 S0 2.392598 1_554
Cr1 S0 2.392598 1_454
Cr1 S1 2.415607 1_565
Cr1 S1 2.415607 1_555
Br0 Cr0 2.514751 1_555
Br0 Cr0 2.514751 1_455
Br1 Cr1 2.514745 1_655
Br1 Cr1 2.514745 1_555
