# generated using pymatgen
data_La2Pd2Pb
_symmetry_space_group_name_H-M   'P 1'
_cell_length_a   3.87777523
_cell_length_b   8.07943471
_cell_length_c   8.07943471
_cell_angle_alpha   90.00000000
_cell_angle_beta   90.00000000
_cell_angle_gamma   90.00000000
_symmetry_Int_Tables_number   1
_chemical_formula_structural   La2Pd2Pb
_chemical_formula_sum   'La4 Pd4 Pb2'
_cell_volume   253.13056220
_cell_formula_units_Z   2
loop_
 _symmetry_equiv_pos_site_id
 _symmetry_equiv_pos_as_xyz
  1  'x, y, z'
loop_
 _atom_site_type_symbol
 _atom_site_label
 _atom_site_symmetry_multiplicity
 _atom_site_fract_x
 _atom_site_fract_y
 _atom_site_fract_z
 _atom_site_occupancy
  La  La0  1  0.50000000  0.17873305  0.67873305  1
  La  La1  1  0.50000000  0.32126695  0.17873305  1
  La  La2  1  0.50000000  0.67873305  0.82126695  1
  La  La3  1  0.50000000  0.82126695  0.32126695  1
  Pd  Pd0  1  -0.00000000  0.12292791  0.37707209  1
  Pd  Pd1  1  0.00000000  0.62292791  0.12292791  1
  Pd  Pd2  1  0.00000000  0.87707209  0.62292791  1
  Pd  Pd3  1  -0.00000000  0.37707209  0.87707209  1
  Pb  Pb0  1  -0.00000000  -0.00000000  -0.00000000  1
  Pb  Pb1  1  0.00000000  0.50000000  0.50000000  1
loop_
_geom_bond_atom_site_label_1
_geom_bond_atom_site_label_2
_geom_bond_distance
_geom_bond_site_symmetry_2
La0 Pd3 2.982463 1_555
La0 Pd3 2.982463 1_655
La0 Pd0 3.146865 1_655
La0 Pd2 3.146865 1_545
La0 Pd0 3.146865 1_555
La0 Pd2 3.146865 1_645
La0 Pb0 3.547115 1_556
La0 Pb0 3.547115 1_656
La0 Pb1 3.547115 1_655
La0 Pb1 3.547115 1_555
La1 Pd0 2.982463 1_655
La1 Pd0 2.982463 1_555
La1 Pd1 3.146865 1_655
La1 Pd3 3.146865 1_654
La1 Pd1 3.146865 1_555
La1 Pd3 3.146865 1_554
La1 Pb0 3.547115 1_555
La1 Pb1 3.547115 1_655
La1 Pb1 3.547115 1_555
La1 Pb0 3.547115 1_655
La2 Pd2 2.982463 1_655
La2 Pd2 2.982463 1_555
La2 Pd1 3.146865 1_656
La2 Pd1 3.146865 1_556
La2 Pd3 3.146865 1_555
La2 Pd3 3.146865 1_655
La2 Pb0 3.547115 1_666
La2 Pb0 3.547115 1_566
La2 Pb1 3.547115 1_655
La2 Pb1 3.547115 1_555
La3 Pd1 2.982463 1_555
La3 Pd1 2.982463 1_655
La3 Pd0 3.146865 1_565
La3 Pd0 3.146865 1_665
La3 Pd2 3.146865 1_655
La3 Pd2 3.146865 1_555
La3 Pb0 3.547115 1_565
La3 Pb0 3.547115 1_665
La3 Pb1 3.547115 1_655
La3 Pb1 3.547115 1_555
Pd0 Pd2 2.809160 1_545
Pd1 Pd3 2.809160 1_554
Pb0 Pd1 3.204335 1_545
Pb0 Pd3 3.204335 1_554
Pb0 Pd0 3.204335 1_555
Pb0 Pd2 3.204335 1_544
Pb1 Pd0 3.204335 1_555
Pb1 Pd3 3.204335 1_555
Pb1 Pd2 3.204335 1_555
Pb1 Pd1 3.204335 1_555
