# generated using pymatgen
data_K3(Mo7O11)2
_symmetry_space_group_name_H-M   'P 1'
_cell_length_a   9.91336900
_cell_length_b   10.57431200
_cell_length_c   11.58181832
_cell_angle_alpha   76.65926980
_cell_angle_beta   90.00000000
_cell_angle_gamma   90.00000000
_symmetry_Int_Tables_number   1
_chemical_formula_structural   K3(Mo7O11)2
_chemical_formula_sum   'K6 Mo28 O44'
_cell_volume   1181.32587371
_cell_formula_units_Z   2
loop_
 _symmetry_equiv_pos_site_id
 _symmetry_equiv_pos_as_xyz
  1  'x, y, z'
loop_
 _atom_site_type_symbol
 _atom_site_label
 _atom_site_symmetry_multiplicity
 _atom_site_fract_x
 _atom_site_fract_y
 _atom_site_fract_z
 _atom_site_occupancy
  K  K0  1  0.00000000  0.00000000  0.00000000  1
  K  K1  1  0.50000000  0.50000000  0.00000000  1
  K  K2  1  0.02662000  0.94730800  0.32873000  1
  K  K3  1  0.52662000  0.55269200  0.67127000  1
  K  K4  1  0.97338000  0.05269200  0.67127000  1
  K  K5  1  0.47338000  0.44730800  0.32873000  1
  Mo  Mo0  1  0.36823500  0.86309000  0.14640800  1
  Mo  Mo1  1  0.86823500  0.63691000  0.85359200  1
  Mo  Mo2  1  0.63176500  0.13691000  0.85359200  1
  Mo  Mo3  1  0.13176500  0.36309000  0.14640800  1
  Mo  Mo4  1  0.36887200  0.09875100  0.28584000  1
  Mo  Mo5  1  0.86887200  0.40124900  0.71416000  1
  Mo  Mo6  1  0.63112800  0.90124900  0.71416000  1
  Mo  Mo7  1  0.13112800  0.59875100  0.28584000  1
  Mo  Mo8  1  0.64273100  0.75996000  0.28904600  1
  Mo  Mo9  1  0.14273100  0.74004000  0.71095400  1
  Mo  Mo10  1  0.35726900  0.24004000  0.71095400  1
  Mo  Mo11  1  0.85726900  0.25996000  0.28904600  1
  Mo  Mo12  1  0.36031300  0.16646900  0.99970100  1
  Mo  Mo13  1  0.86031300  0.33353100  0.00029900  1
  Mo  Mo14  1  0.63968700  0.83353100  0.00029900  1
  Mo  Mo15  1  0.13968700  0.66646900  0.99970100  1
  Mo  Mo16  1  0.37146100  0.78519600  0.43159500  1
  Mo  Mo17  1  0.87146100  0.71480400  0.56840500  1
  Mo  Mo18  1  0.62853900  0.21480400  0.56840500  1
  Mo  Mo19  1  0.12853900  0.28519600  0.43159500  1
  Mo  Mo20  1  0.36358800  0.93593700  0.86142000  1
  Mo  Mo21  1  0.86358800  0.56406300  0.13858000  1
  Mo  Mo22  1  0.63641200  0.06406300  0.13858000  1
  Mo  Mo23  1  0.13641200  0.43593700  0.86142000  1
  Mo  Mo24  1  0.35844700  0.02003400  0.57353200  1
  Mo  Mo25  1  0.85844700  0.47996600  0.42646800  1
  Mo  Mo26  1  0.64155300  0.97996600  0.42646800  1
  Mo  Mo27  1  0.14155300  0.52003400  0.57353200  1
  O  O0  1  0.76053800  0.67342200  0.99628800  1
  O  O1  1  0.26053800  0.82657800  0.00371200  1
  O  O2  1  0.23946200  0.32657800  0.00371200  1
  O  O3  1  0.73946200  0.17342200  0.99628800  1
  O  O4  1  0.76730700  0.59796500  0.29155600  1
  O  O5  1  0.26730700  0.90203500  0.70844400  1
  O  O6  1  0.23269300  0.40203500  0.70844400  1
  O  O7  1  0.73269300  0.09796500  0.29155600  1
  O  O8  1  0.25336000  0.67694700  0.56991900  1
  O  O9  1  0.75336000  0.82305300  0.43008100  1
  O  O10  1  0.74664000  0.32305300  0.43008100  1
  O  O11  1  0.24664000  0.17694700  0.56991900  1
  O  O12  1  0.50238200  0.87453100  0.55764800  1
  O  O13  1  0.00238200  0.62546900  0.44235200  1
  O  O14  1  0.49761800  0.12546900  0.44235200  1
  O  O15  1  0.99761800  0.37453100  0.55764800  1
  O  O16  1  0.51694300  0.79807600  0.85992000  1
  O  O17  1  0.01694300  0.70192400  0.14008000  1
  O  O18  1  0.48305700  0.20192400  0.14008000  1
  O  O19  1  0.98305700  0.29807600  0.85992000  1
  O  O20  1  0.47627000  0.27486900  0.85283200  1
  O  O21  1  0.97627000  0.22513100  0.14716800  1
  O  O22  1  0.52373000  0.72513100  0.14716800  1
  O  O23  1  0.02373000  0.77486900  0.85283200  1
  O  O24  1  0.24158900  0.60918800  0.85679200  1
  O  O25  1  0.74158900  0.89081200  0.14320800  1
  O  O26  1  0.75841100  0.39081200  0.14320800  1
  O  O27  1  0.25841100  0.10918800  0.85679200  1
  O  O28  1  0.48528300  0.33454300  0.57141000  1
  O  O29  1  0.98528300  0.16545700  0.42859000  1
  O  O30  1  0.51471700  0.66545700  0.42859000  1
  O  O31  1  0.01471700  0.83454300  0.57141000  1
  O  O32  1  0.72368100  0.03789600  0.56882000  1
  O  O33  1  0.22368100  0.46210400  0.43118000  1
  O  O34  1  0.27631900  0.96210400  0.43118000  1
  O  O35  1  0.77631900  0.53789600  0.56882000  1
  O  O36  1  0.75901200  0.74317300  0.70380800  1
  O  O37  1  0.25901200  0.75682700  0.29619200  1
  O  O38  1  0.24098800  0.25682700  0.29619200  1
  O  O39  1  0.74098800  0.24317300  0.70380800  1
  O  O40  1  0.26317100  0.03814300  0.14884400  1
  O  O41  1  0.76317100  0.46185700  0.85115600  1
  O  O42  1  0.73682900  0.96185700  0.85115600  1
  O  O43  1  0.23682900  0.53814300  0.14884400  1
loop_
_geom_bond_atom_site_label_1
_geom_bond_atom_site_label_2
_geom_bond_distance
_geom_bond_site_symmetry_2
K0 O25 3.124538 1_445
K0 O27 3.124538 1_554
K0 O1 3.162161 1_545
K0 O3 3.162161 1_454
K0 O19 3.199257 1_454
K0 O17 3.199257 1_545
K0 O40 3.203396 1_555
K0 O42 3.203396 1_444
K0 O23 3.240432 1_544
K0 O21 3.240432 1_455
K1 O26 3.124538 1_555
K1 O24 3.124538 1_554
K1 O2 3.162161 1_555
K1 O0 3.162161 1_554
K1 O18 3.199257 1_555
K1 O16 3.199257 1_554
K1 O41 3.203396 1_554
K1 O43 3.203396 1_555
K1 O20 3.240432 1_554
K1 O22 3.240432 1_555
K2 O34 2.765044 1_555
K2 O31 2.790881 1_555
K2 O29 2.838657 1_465
K2 O9 3.119419 1_455
K2 O40 3.136684 1_565
K2 O37 3.139549 1_555
K2 O21 3.232755 1_465
K2 O7 3.301069 1_465
K2 O13 3.362241 1_555
K3 O35 2.765044 1_555
K3 O30 2.790881 1_555
K3 O28 2.838657 1_555
K3 O8 3.119419 1_555
K3 O41 3.136684 1_555
K3 O36 3.139549 1_555
K3 O20 3.232755 1_555
K3 O6 3.301069 1_555
K3 O12 3.362241 1_555
K4 O32 2.765044 1_555
K4 O29 2.790881 1_555
K4 O31 2.838657 1_645
K4 O11 3.119419 1_655
K4 O42 3.136684 1_545
K4 O39 3.139549 1_555
K4 O23 3.232755 1_645
K4 O5 3.301069 1_645
K4 O15 3.362241 1_555
K5 O33 2.765044 1_555
K5 O28 2.790881 1_555
K5 O30 2.838657 1_555
K5 O10 3.119419 1_555
K5 O43 3.136684 1_555
K5 O38 3.139549 1_555
K5 O22 3.232755 1_555
K5 O4 3.301069 1_555
K5 O14 3.362241 1_555
Mo0 O1 2.077193 1_555
Mo0 O22 2.120960 1_555
Mo0 O40 2.129822 1_565
Mo0 O37 2.131868 1_555
Mo1 O0 2.077193 1_555
Mo1 O23 2.120960 1_655
Mo1 O41 2.129822 1_555
Mo1 O36 2.131868 1_555
Mo2 O3 2.077193 1_555
Mo2 O20 2.120960 1_555
Mo2 O42 2.129822 1_545
Mo2 O39 2.131868 1_555
Mo3 O2 2.077193 1_555
Mo3 O21 2.120960 1_455
Mo3 O43 2.129822 1_555
Mo3 O38 2.131868 1_555
Mo4 O18 2.114601 1_555
Mo4 O40 2.120260 1_555
Mo4 O38 2.123238 1_555
Mo4 O34 2.154240 1_545
Mo4 O14 2.287133 1_555
Mo5 O19 2.114601 1_555
Mo5 O41 2.120260 1_555
Mo5 O39 2.123238 1_555
Mo5 O35 2.154240 1_555
Mo5 O15 2.287133 1_555
Mo6 O16 2.114601 1_555
Mo6 O42 2.120260 1_555
Mo6 O36 2.123238 1_555
Mo6 O32 2.154240 1_565
Mo6 O12 2.287133 1_555
Mo7 O17 2.114601 1_555
Mo7 O43 2.120260 1_555
Mo7 O37 2.123238 1_555
Mo7 O33 2.154240 1_555
Mo7 O13 2.287133 1_555
Mo8 O4 2.106497 1_555
Mo8 O30 2.115608 1_555
Mo8 O22 2.122908 1_555
Mo8 O25 2.156244 1_555
Mo8 O9 2.195203 1_555
Mo9 O5 2.106497 1_555
Mo9 O31 2.115608 1_555
Mo9 O23 2.122908 1_555
Mo9 O24 2.156244 1_555
Mo9 O8 2.195203 1_555
Mo10 O6 2.106497 1_555
Mo10 O28 2.115608 1_555
Mo10 O20 2.122908 1_555
Mo10 O27 2.156244 1_555
Mo10 O11 2.195203 1_555
Mo11 O7 2.106497 1_555
Mo11 O29 2.115608 1_555
Mo11 O21 2.122908 1_555
Mo11 O26 2.156244 1_555
Mo11 O10 2.195203 1_555
Mo12 O2 2.083302 1_556
Mo12 O18 2.132098 1_556
Mo12 O27 2.142319 1_555
Mo12 O20 2.151499 1_555
Mo12 O40 2.161193 1_556
Mo13 O3 2.083302 1_554
Mo13 O19 2.132098 1_554
Mo13 O26 2.142319 1_555
Mo13 O21 2.151499 1_555
Mo13 O41 2.161193 1_554
Mo14 O0 2.083302 1_554
Mo14 O16 2.132098 1_554
Mo14 O25 2.142319 1_555
Mo14 O22 2.151499 1_555
Mo14 O42 2.161193 1_554
Mo15 O1 2.083302 1_556
Mo15 O17 2.132098 1_556
Mo15 O24 2.142319 1_555
Mo15 O23 2.151499 1_555
Mo15 O43 2.161193 1_556
Mo16 O30 1.908279 1_555
Mo16 O37 2.002260 1_555
Mo16 O34 2.094016 1_555
Mo16 O8 2.097915 1_555
Mo16 O12 2.311851 1_555
Mo17 O31 1.908279 1_655
Mo17 O36 2.002260 1_555
Mo17 O35 2.094016 1_555
Mo17 O9 2.097915 1_555
Mo17 O13 2.311851 1_655
Mo18 O28 1.908279 1_555
Mo18 O39 2.002260 1_555
Mo18 O32 2.094016 1_555
Mo18 O10 2.097915 1_555
Mo18 O14 2.311851 1_555
Mo19 O29 1.908279 1_455
Mo19 O38 2.002260 1_555
Mo19 O33 2.094016 1_555
Mo19 O11 2.097915 1_555
Mo19 O15 2.311851 1_455
Mo20 O1 2.053607 1_556
Mo20 O27 2.097845 1_565
Mo20 O16 2.109107 1_555
Mo20 O5 2.114640 1_555
Mo21 O0 2.053607 1_554
Mo21 O26 2.097845 1_555
Mo21 O17 2.109107 1_655
Mo21 O4 2.114640 1_555
Mo22 O3 2.053607 1_554
Mo22 O25 2.097845 1_545
Mo22 O18 2.109107 1_555
Mo22 O7 2.114640 1_555
Mo23 O2 2.053607 1_556
Mo23 O24 2.097845 1_555
Mo23 O19 2.109107 1_455
Mo23 O6 2.114640 1_555
Mo24 O5 1.978630 1_545
Mo24 O11 1.987794 1_555
Mo24 O34 2.054841 1_545
Mo24 O12 2.137224 1_545
Mo24 O14 2.161721 1_555
Mo25 O4 1.978630 1_555
Mo25 O10 1.987794 1_555
Mo25 O35 2.054841 1_555
Mo25 O13 2.137224 1_655
Mo25 O15 2.161721 1_555
Mo26 O7 1.978630 1_565
Mo26 O9 1.987794 1_555
Mo26 O32 2.054841 1_565
Mo26 O14 2.137224 1_565
Mo26 O12 2.161721 1_555
Mo27 O6 1.978630 1_555
Mo27 O8 1.987794 1_555
Mo27 O33 2.054841 1_555
Mo27 O15 2.137224 1_455
Mo27 O13 2.161721 1_555
