# generated using pymatgen
data_Sr4Fe4O11
_symmetry_space_group_name_H-M   'P 1'
_cell_length_a   6.68831743
_cell_length_b   6.68831743
_cell_length_c   5.46287428
_cell_angle_alpha   90.00000000
_cell_angle_beta   90.00000000
_cell_angle_gamma   110.06625606
_symmetry_Int_Tables_number   1
_chemical_formula_structural   Sr4Fe4O11
_chemical_formula_sum   'Sr4 Fe4 O11'
_cell_volume   229.53961906
_cell_formula_units_Z   1
loop_
 _symmetry_equiv_pos_site_id
 _symmetry_equiv_pos_as_xyz
  1  'x, y, z'
loop_
 _atom_site_type_symbol
 _atom_site_label
 _atom_site_symmetry_multiplicity
 _atom_site_fract_x
 _atom_site_fract_y
 _atom_site_fract_z
 _atom_site_occupancy
  Sr  Sr0  1  0.26023319  0.73976681  -0.00000000  1
  Sr  Sr1  1  0.73976681  0.26023319  -0.00000000  1
  Sr  Sr2  1  0.00000000  0.00000000  0.50000000  1
  Sr  Sr3  1  0.50000000  0.50000000  0.50000000  1
  Fe  Fe0  1  0.00000000  0.50000000  0.50000000  1
  Fe  Fe1  1  0.50000000  0.00000000  0.50000000  1
  Fe  Fe2  1  0.74882820  0.74882820  -0.00000000  1
  Fe  Fe3  1  0.25117180  0.25117180  -0.00000000  1
  O  O0  1  0.10462306  0.34528599  0.23879402  1
  O  O1  1  0.89537694  0.65471401  0.23879402  1
  O  O2  1  0.34528599  0.10462306  0.76120598  1
  O  O3  1  0.65471401  0.89537694  0.76120598  1
  O  O4  1  0.89537694  0.65471401  0.76120598  1
  O  O5  1  0.10462306  0.34528599  0.76120598  1
  O  O6  1  0.65471401  0.89537694  0.23879402  1
  O  O7  1  0.34528599  0.10462306  0.23879402  1
  O  O8  1  0.50000000  0.50000000  -0.00000000  1
  O  O9  1  0.73050467  0.26949533  0.50000000  1
  O  O10  1  0.26949533  0.73050467  0.50000000  1
loop_
_geom_bond_atom_site_label_1
_geom_bond_atom_site_label_2
_geom_bond_distance
_geom_bond_site_symmetry_2
Fe0 O10 1.928424 1_555
Fe0 O9 1.928424 1_455
Fe0 O1 2.023225 1_455
Fe0 O5 2.023225 1_555
Fe0 O0 2.023225 1_555
Fe0 O4 2.023225 1_455
Fe1 O10 1.928424 1_545
Fe1 O9 1.928424 1_555
Fe1 O6 2.023225 1_545
Fe1 O2 2.023225 1_555
Fe1 O7 2.023225 1_555
Fe1 O3 2.023225 1_545
Fe2 O6 1.866026 1_555
Fe2 O3 1.866026 1_554
Fe2 O4 1.866026 1_554
Fe2 O1 1.866026 1_555
Fe2 O8 1.907563 1_555
Fe3 O7 1.866026 1_555
Fe3 O2 1.866026 1_554
Fe3 O5 1.866026 1_554
Fe3 O0 1.866026 1_555
Fe3 O8 1.907563 1_555
O0 Sr2 2.598101 1_555
O0 Sr1 2.650978 1_455
O0 Sr0 2.803894 1_555
O0 Sr3 2.867413 1_555
O1 Sr2 2.598101 1_665
O1 Sr0 2.650978 1_655
O1 Sr1 2.803894 1_555
O1 Sr3 2.867413 1_555
O2 Sr2 2.598101 1_555
O2 Sr0 2.650978 1_546
O2 Sr1 2.803894 1_556
O2 Sr3 2.867413 1_555
O3 Sr2 2.598101 1_665
O3 Sr1 2.650978 1_566
O3 Sr0 2.803894 1_556
O3 Sr3 2.867413 1_555
O4 Sr2 2.598101 1_665
O4 Sr0 2.650978 1_656
O4 Sr1 2.803894 1_556
O4 Sr3 2.867413 1_555
O5 Sr2 2.598101 1_555
O5 Sr1 2.650978 1_456
O5 Sr0 2.803894 1_556
O5 Sr3 2.867413 1_555
O6 Sr2 2.598101 1_665
O6 Sr1 2.650978 1_565
O6 Sr0 2.803894 1_555
O6 Sr3 2.867413 1_555
O7 Sr2 2.598101 1_555
O7 Sr0 2.650978 1_545
O7 Sr1 2.803894 1_555
O7 Sr3 2.867413 1_555
O8 Sr1 2.628308 1_555
O8 Sr0 2.628308 1_555
O8 Sr3 2.731437 1_554
O8 Sr3 2.731437 1_555
O9 Sr3 2.526777 1_555
O9 Sr1 2.733324 1_555
O9 Sr1 2.733324 1_556
O9 Sr2 2.954190 1_655
O10 Sr3 2.526777 1_555
O10 Sr0 2.733324 1_555
O10 Sr0 2.733324 1_556
O10 Sr2 2.954190 1_565
