# generated using pymatgen
data_Na2Hf3MgP4(SO12)2
_symmetry_space_group_name_H-M   'P 1'
_cell_length_a   8.78804168
_cell_length_b   8.79378971
_cell_length_c   23.20848015
_cell_angle_alpha   90.01597149
_cell_angle_beta   89.95960626
_cell_angle_gamma   120.01311225
_symmetry_Int_Tables_number   1
_chemical_formula_structural   Na2Hf3MgP4(SO12)2
_chemical_formula_sum   'Na6 Hf9 Mg3 P12 S6 O72'
_cell_volume   1553.05919476
_cell_formula_units_Z   3
loop_
 _symmetry_equiv_pos_site_id
 _symmetry_equiv_pos_as_xyz
  1  'x, y, z'
loop_
 _atom_site_type_symbol
 _atom_site_label
 _atom_site_symmetry_multiplicity
 _atom_site_fract_x
 _atom_site_fract_y
 _atom_site_fract_z
 _atom_site_occupancy
  Na  Na0  1  0.00052112  0.99338054  0.50743689  1
  Na  Na1  1  0.00644441  0.99825034  0.00401223  1
  Na  Na2  1  0.66223170  0.32630252  0.83157953  1
  Na  Na3  1  0.66770727  0.33257858  0.33870178  1
  Na  Na4  1  0.32828930  0.66134929  0.17080375  1
  Na  Na5  1  0.34400638  0.66983513  0.66414354  1
  Hf  Hf0  1  0.00137957  0.00003614  0.35705247  1
  Hf  Hf1  1  0.00203709  0.00795999  0.85246806  1
  Hf  Hf2  1  0.65237648  0.32462105  0.68521002  1
  Hf  Hf3  1  0.66856392  0.34128365  0.18581019  1
  Hf  Hf4  1  0.66376362  0.33891108  0.97969746  1
  Hf  Hf5  1  0.66036421  0.33594665  0.48017359  1
  Hf  Hf6  1  0.32751717  0.66105196  0.01980794  1
  Hf  Hf7  1  0.34033302  0.67216958  0.51803891  1
  Hf  Hf8  1  0.34014050  0.66838406  0.81290090  1
  Mg  Mg0  1  0.99767794  0.00050657  0.64648124  1
  Mg  Mg1  1  0.00806163  -0.00000445  0.14675876  1
  Mg  Mg2  1  0.33242079  0.66683397  0.31993773  1
  P  P0  1  0.28585318  0.28798687  0.74784102  1
  P  P1  1  0.71411689  0.00260298  0.74766156  1
  P  P2  1  0.36769075  0.03880341  0.58294298  1
  P  P3  1  0.67140515  0.62972958  0.58399295  1
  P  P4  1  0.95735430  0.62923985  0.08372437  1
  P  P5  1  0.37051714  0.32933885  0.08400214  1
  P  P6  1  0.62524742  0.67019271  0.91707806  1
  P  P7  1  0.04223452  0.37716410  0.91627669  1
  P  P8  1  0.33215140  0.95530659  0.91688464  1
  P  P9  1  0.62111767  0.95819489  0.41418629  1
  P  P10  1  0.33444310  0.38166849  0.41451385  1
  P  P11  1  0.04469060  0.66273782  0.41500312  1
  S  S0  1  0.28967040  0.99544447  0.24875842  1
  S  S1  1  0.70781226  0.71450063  0.24866485  1
  S  S2  1  0.00343841  0.29113595  0.24835558  1
  S  S3  1  0.99959960  0.70968524  0.74919552  1
  S  S4  1  0.95715873  0.33212444  0.58357470  1
  S  S5  1  0.66982544  0.04345044  0.08405224  1
  O  O0  1  0.20872316  0.02548817  0.30106322  1
  O  O1  1  0.81785576  0.79395083  0.30104702  1
  O  O2  1  0.97525740  0.18186888  0.30094419  1
  O  O3  1  0.20458462  0.17756570  0.80381339  1
  O  O4  1  0.97448922  0.79046997  0.80222825  1
  O  O5  1  0.82202618  0.02424899  0.80386042  1
  O  O6  1  0.79312028  0.97070447  0.69511019  1
  O  O7  1  0.17856898  0.20557455  0.69498498  1
  O  O8  1  0.02738353  0.81500586  0.69800468  1
  O  O9  1  0.79316777  0.81659850  0.19714892  1
  O  O10  1  0.02113294  0.20530495  0.19699342  1
  O  O11  1  0.18546019  0.97646051  0.19758302  1
  O  O12  1  0.87408072  0.35886117  0.63574075  1
  O  O13  1  0.48715103  0.12552387  0.63717304  1
  O  O14  1  0.64435444  0.51110173  0.63761526  1
  O  O15  1  0.86917772  0.50890371  0.13738176  1
  O  O16  1  0.64118337  0.12728909  0.13574201  1
  O  O17  1  0.49008693  0.35650728  0.13736219  1
  O  O18  1  0.46386395  0.30804827  0.03016621  1
  O  O19  1  0.84513585  0.53252451  0.02993201  1
  O  O20  1  0.69074762  0.14986070  0.03168656  1
  O  O21  1  0.46594325  0.15268568  0.52987116  1
  O  O22  1  0.69007250  0.53504791  0.53019530  1
  O  O23  1  0.85034676  0.31197916  0.53152113  1
  O  O24  1  0.53849235  0.69490403  0.97119071  1
  O  O25  1  0.15556112  0.46203383  0.97074030  1
  O  O26  1  0.30791774  0.84336678  0.97120862  1
  O  O27  1  0.53986556  0.84447182  0.46932772  1
  O  O28  1  0.30469820  0.46212384  0.46979506  1
  O  O29  1  0.15734169  0.69365785  0.46992969  1
  O  O30  1  0.12116020  0.63530968  0.36086262  1
  O  O31  1  0.51474907  0.88040545  0.36068073  1
  O  O32  1  0.36402399  0.48666827  0.36062012  1
  O  O33  1  0.12788365  0.48951069  0.86271062  1
  O  O34  1  0.35840631  0.86918587  0.86306552  1
  O  O35  1  0.51137806  0.64065730  0.86329678  1
  O  O36  1  0.02298793  0.82942846  0.40842236  1
  O  O37  1  0.80772831  0.97698094  0.40794279  1
  O  O38  1  0.16935391  0.19322620  0.40847224  1
  O  O39  1  0.02446561  0.19403225  0.91051564  1
  O  O40  1  0.16819644  0.97420543  0.90988466  1
  O  O41  1  0.80886188  0.83091272  0.90968670  1
  O  O42  1  0.97476795  0.17700690  0.58881960  1
  O  O43  1  0.19033850  0.02415475  0.58914889  1
  O  O44  1  0.83157660  0.80989036  0.58899157  1
  O  O45  1  0.97208747  0.80665871  0.08989592  1
  O  O46  1  0.82390885  0.02522972  0.09073559  1
  O  O47  1  0.19003798  0.17047512  0.08995550  1
  O  O48  1  0.69499188  0.16949204  0.74365744  1
  O  O49  1  0.47525021  0.31260992  0.74437824  1
  O  O50  1  0.84229361  0.53113783  0.74413033  1
  O  O51  1  0.69301193  0.53360805  0.24356866  1
  O  O52  1  0.83819102  0.30574069  0.24291700  1
  O  O53  1  0.46939001  0.15946073  0.24275523  1
  O  O54  1  0.64261824  0.50376877  0.92323981  1
  O  O55  1  0.85796440  0.35468266  0.92433470  1
  O  O56  1  0.49739116  0.13874634  0.92438947  1
  O  O57  1  0.64890954  0.14433456  0.42466517  1
  O  O58  1  0.49474155  0.35378755  0.42334328  1
  O  O59  1  0.85805616  0.50279079  0.42468344  1
  O  O60  1  0.36304474  0.50164954  0.07756524  1
  O  O61  1  0.14062023  0.64335021  0.07770693  1
  O  O62  1  0.50744070  0.86829916  0.07801655  1
  O  O63  1  0.35521126  0.85663820  0.57697598  1
  O  O64  1  0.49892439  0.63769830  0.57729361  1
  O  O65  1  0.13281548  0.49378823  0.57757807  1
  O  O66  1  0.31222329  0.84231877  0.25544821  1
  O  O67  1  0.53095317  0.68865670  0.25519095  1
  O  O68  1  0.15584014  0.46754668  0.25491720  1
  O  O69  1  0.30976053  0.47444750  0.75759156  1
  O  O70  1  0.15741023  0.68926782  0.75737234  1
  O  O71  1  0.52507954  0.84140356  0.75748760  1
loop_
_geom_bond_atom_site_label_1
_geom_bond_atom_site_label_2
_geom_bond_distance
_geom_bond_site_symmetry_2
Na0 O44 2.447775 1_455
Na0 O43 2.450472 1_565
Na0 O42 2.566993 1_465
Na0 O36 2.771396 1_555
Na0 O38 2.820314 1_565
Na0 O37 2.825637 1_455
Na1 O45 2.528806 1_455
Na1 O47 2.536474 1_565
Na1 O46 2.656401 1_465
Na1 O40 2.670893 1_554
Na1 O41 2.724002 1_454
Na1 O39 2.725173 1_564
Na2 O48 2.557922 1_555
Na2 O49 2.572359 1_555
Na2 O50 2.648348 1_555
Na2 O56 2.658157 1_555
Na2 O55 2.688990 1_555
Na2 O54 2.693938 1_555
Na3 O57 2.544743 1_555
Na3 O58 2.546240 1_555
Na3 O59 2.553216 1_555
Na3 O52 2.755161 1_555
Na3 O51 2.767239 1_555
Na3 O53 2.768186 1_555
Na4 O68 2.534946 1_555
Na4 O66 2.575713 1_555
Na4 O67 2.577248 1_555
Na4 O61 2.675274 1_555
Na4 O60 2.678541 1_555
Na4 O62 2.749376 1_555
Na5 O64 2.525257 1_555
Na5 O63 2.576931 1_555
Na5 O65 2.647013 1_555
Na5 O71 2.665126 1_555
Na5 O69 2.688915 1_555
Na5 O70 2.770363 1_555
Hf0 O38 1.995475 1_555
Hf0 O37 1.996091 1_445
Hf0 O36 1.998658 1_545
Hf0 O0 2.155839 1_555
Hf0 O1 2.156990 1_445
Hf0 O2 2.161941 1_455
Hf1 O3 2.002552 1_555
Hf1 O5 2.006238 1_455
Hf1 O39 2.051268 1_555
Hf1 O41 2.103157 1_445
Hf1 O40 2.105375 1_545
Hf1 O4 2.147554 1_445
Hf2 O13 1.968401 1_555
Hf2 O14 2.007752 1_555
Hf2 O49 2.037748 1_555
Hf2 O48 2.086645 1_555
Hf2 O12 2.148260 1_555
Hf2 O50 2.218827 1_555
Hf3 O15 1.985591 1_555
Hf3 O17 1.988696 1_555
Hf3 O51 2.083040 1_555
Hf3 O16 2.120284 1_555
Hf3 O52 2.132032 1_555
Hf3 O53 2.136596 1_555
Hf4 O18 2.012960 1_556
Hf4 O19 2.021207 1_556
Hf4 O54 2.030767 1_555
Hf4 O56 2.076171 1_555
Hf4 O55 2.083991 1_555
Hf4 O20 2.161435 1_556
Hf5 O22 2.005844 1_555
Hf5 O21 2.022473 1_555
Hf5 O58 2.028293 1_555
Hf5 O59 2.068185 1_555
Hf5 O57 2.082850 1_555
Hf5 O23 2.146397 1_555
Hf6 O25 1.999729 1_554
Hf6 O26 2.037098 1_554
Hf6 O24 2.060188 1_554
Hf6 O61 2.066104 1_555
Hf6 O60 2.073326 1_555
Hf6 O62 2.182985 1_555
Hf7 O27 1.997209 1_555
Hf7 O29 2.043311 1_555
Hf7 O28 2.045524 1_555
Hf7 O63 2.075180 1_555
Hf7 O64 2.085929 1_555
Hf7 O65 2.198106 1_555
Hf8 O35 2.015365 1_555
Hf8 O71 2.033394 1_555
Hf8 O69 2.042377 1_555
Hf8 O34 2.053015 1_555
Hf8 O33 2.086321 1_555
Hf8 O70 2.138074 1_555
Mg0 O6 2.024849 1_545
Mg0 O7 2.044456 1_655
Mg0 O44 2.067474 1_545
Mg0 O43 2.079687 1_655
Mg0 O42 2.134153 1_555
Mg0 O8 2.141629 1_645
Mg1 O47 2.035346 1_555
Mg1 O11 2.046980 1_545
Mg1 O45 2.047863 1_445
Mg1 O10 2.103242 1_555
Mg1 O9 2.118048 1_445
Mg1 O46 2.172835 1_455
Mg2 O30 1.977018 1_555
Mg2 O32 1.979932 1_555
Mg2 O31 1.994854 1_555
Mg2 O66 2.220068 1_555
Mg2 O67 2.236155 1_555
Mg2 O68 2.244483 1_555
O0 S0 1.495344 1_545
O1 S1 1.492168 1_555
O2 S2 1.495460 1_655
O3 P0 1.563990 1_555
O4 S3 1.491381 1_555
O5 P1 1.567713 1_555
O6 P1 1.497223 1_565
O7 P0 1.495501 1_555
O8 S3 1.450127 1_455
O9 S1 1.457337 1_555
O10 S2 1.459958 1_555
O11 S0 1.457972 1_555
O12 S4 1.491448 1_555
O13 P2 1.571041 1_555
O14 P3 1.563884 1_555
O15 P4 1.565283 1_555
O16 S5 1.493578 1_555
O17 P5 1.563777 1_555
O18 P5 1.556021 1_555
O19 P4 1.554530 1_555
O20 S5 1.488171 1_555
O21 P2 1.549104 1_555
O22 P3 1.553974 1_555
O23 S4 1.485622 1_555
O24 P6 1.539461 1_555
O25 P7 1.550572 1_555
O26 P8 1.547417 1_555
O27 P9 1.559740 1_555
O28 P10 1.548872 1_555
O29 P11 1.552841 1_555
O30 P11 1.499806 1_555
O31 P9 1.498410 1_555
O32 P10 1.498227 1_555
O33 P7 1.530867 1_555
O34 P8 1.536491 1_555
O35 P6 1.538949 1_555
O36 P11 1.577417 1_555
O37 P9 1.570462 1_555
O38 P10 1.570223 1_555
O39 P7 1.544040 1_555
O40 P8 1.539461 1_555
O41 P6 1.532630 1_555
O42 S4 1.452841 1_555
O43 P2 1.505108 1_555
O44 P3 1.507969 1_555
O45 P4 1.506409 1_555
O46 S5 1.449364 1_555
O47 P5 1.506484 1_555
O48 P1 1.561266 1_555
O49 P0 1.569378 1_555
O50 S3 1.489581 1_555
O51 S1 1.534362 1_555
O52 S2 1.525832 1_655
O53 S0 1.521538 1_545
O54 P6 1.552168 1_555
O55 P7 1.541347 1_655
O56 P8 1.548551 1_545
O57 P9 1.548570 1_545
O58 P10 1.559655 1_555
O59 P11 1.552653 1_655
O60 P5 1.556386 1_555
O61 P4 1.558377 1_455
O62 S5 1.493225 1_565
O63 P2 1.556119 1_565
O64 P3 1.559883 1_555
O65 S4 1.492566 1_455
O66 S0 1.464153 1_555
O67 S1 1.461707 1_555
O68 S2 1.464640 1_555
O69 P0 1.561787 1_555
O70 S3 1.497025 1_455
O71 P1 1.570048 1_565
