# generated using pymatgen
data_MgTe(H4O3)3
_symmetry_space_group_name_H-M   'P 1'
_cell_length_a   6.02948167
_cell_length_b   6.02948167
_cell_length_c   6.02948078
_cell_angle_alpha   97.22771402
_cell_angle_beta   97.22771402
_cell_angle_gamma   97.22770941
_symmetry_Int_Tables_number   1
_chemical_formula_structural   MgTe(H4O3)3
_chemical_formula_sum   'Mg1 Te1 H12 O9'
_cell_volume   213.48406481
_cell_formula_units_Z   1
loop_
 _symmetry_equiv_pos_site_id
 _symmetry_equiv_pos_as_xyz
  1  'x, y, z'
loop_
 _atom_site_type_symbol
 _atom_site_label
 _atom_site_symmetry_multiplicity
 _atom_site_fract_x
 _atom_site_fract_y
 _atom_site_fract_z
 _atom_site_occupancy
  Mg  Mg0  1  0.99346700  0.99346700  0.99346700  1
  Te  Te0  1  0.46173400  0.46173400  0.46173400  1
  H  H0  1  0.82635900  0.18564800  0.61538600  1
  H  H1  1  0.18564800  0.61538600  0.82635900  1
  H  H2  1  0.61538600  0.82635900  0.18564800  1
  H  H3  1  0.72003300  0.92712600  0.57891200  1
  H  H4  1  0.92712600  0.57891200  0.72003300  1
  H  H5  1  0.57891200  0.72003300  0.92712600  1
  H  H6  1  0.26280100  0.87259800  0.36203200  1
  H  H7  1  0.87259800  0.36203200  0.26280100  1
  H  H8  1  0.36203200  0.26280100  0.87259800  1
  H  H9  1  0.04279700  0.96245600  0.45202400  1
  H  H10  1  0.96245600  0.45202400  0.04279700  1
  H  H11  1  0.45202400  0.04279700  0.96245600  1
  O  O0  1  0.85883100  0.03485700  0.65696500  1
  O  O1  1  0.03485700  0.65696500  0.85883100  1
  O  O2  1  0.65696500  0.85883100  0.03485700  1
  O  O3  1  0.12048100  0.93712100  0.31742000  1
  O  O4  1  0.93712100  0.31742000  0.12048100  1
  O  O5  1  0.31742000  0.12048100  0.93712100  1
  O  O6  1  0.50579800  0.76950000  0.41755500  1
  O  O7  1  0.76950000  0.41755500  0.50579800  1
  O  O8  1  0.41755500  0.50579800  0.76950000  1
loop_
_geom_bond_atom_site_label_1
_geom_bond_atom_site_label_2
_geom_bond_distance
_geom_bond_site_symmetry_2
Mg0 O3 2.091224 1_656
Mg0 O4 2.091225 1_566
Mg0 O5 2.091225 1_665
Mg0 O0 2.145177 1_565
Mg0 O1 2.145177 1_655
Mg0 O2 2.145177 1_556
H0 O0 1.008766 1_555
H0 O7 1.674940 1_555
H1 O1 1.008766 1_555
H1 O8 1.674940 1_555
H2 O2 1.008766 1_555
H2 O6 1.674940 1_555
H3 O0 1.015368 1_565
H3 O6 1.631121 1_555
H4 O1 1.015368 1_655
H4 O7 1.631121 1_555
H5 O2 1.015368 1_556
H5 O8 1.631121 1_555
H6 O3 1.006143 1_555
H6 O6 1.674296 1_555
H7 O4 1.006143 1_555
H7 O7 1.674296 1_555
H8 O5 1.006143 1_555
H8 O8 1.674296 1_555
H9 O3 0.991903 1_555
H10 O4 0.991904 1_555
H11 O5 0.991904 1_555
O6 Te0 1.898206 1_555
O7 Te0 1.898206 1_555
O8 Te0 1.898205 1_555
