# generated using pymatgen
data_Ba2YMgCo3O8
_symmetry_space_group_name_H-M   'P 1'
_cell_length_a   3.82677614
_cell_length_b   3.99076499
_cell_length_c   14.98241179
_cell_angle_alpha   90.00004725
_cell_angle_beta   89.99997689
_cell_angle_gamma   90.00002890
_symmetry_Int_Tables_number   1
_chemical_formula_structural   Ba2YMgCo3O8
_chemical_formula_sum   'Ba2 Y1 Mg1 Co3 O8'
_cell_volume   228.80786066
_cell_formula_units_Z   1
loop_
 _symmetry_equiv_pos_site_id
 _symmetry_equiv_pos_as_xyz
  1  'x, y, z'
loop_
 _atom_site_type_symbol
 _atom_site_label
 _atom_site_symmetry_multiplicity
 _atom_site_fract_x
 _atom_site_fract_y
 _atom_site_fract_z
 _atom_site_occupancy
  Ba  Ba0  1  0.49999900  0.50000000  0.24121514  1
  Ba  Ba1  1  0.49999900  0.50000000  0.73098754  1
  Y  Y0  1  0.50000100  0.50000000  0.48681212  1
  Mg  Mg0  1  0.50000000  0.50000000  0.01740067  1
  Co  Co0  1  0.00000000  0.00000100  0.36272189  1
  Co  Co1  1  0.00000000  -0.00000000  0.08615575  1
  Co  Co2  1  1.00000000  0.99999900  0.60960890  1
  O  O0  1  -0.00000000  0.50000100  0.38651239  1
  O  O1  1  0.50000000  0.00000100  0.38485724  1
  O  O2  1  0.50000100  0.00000000  0.02344897  1
  O  O3  1  0.99999900  1.00000000  0.21464255  1
  O  O4  1  1.00000000  0.50000000  0.58306016  1
  O  O5  1  0.50000100  0.99999900  0.57211468  1
  O  O6  1  0.99999900  0.00000000  0.74013349  1
  O  O7  1  0.00000100  0.50000000  0.06032551  1
loop_
_geom_bond_atom_site_label_1
_geom_bond_atom_site_label_2
_geom_bond_distance
_geom_bond_site_symmetry_2
Ba0 O3 2.793045 1_445
Ba0 O3 2.793045 1_555
Ba0 O3 2.793046 1_545
Ba0 O3 2.793047 1_455
Ba0 O0 2.898266 1_555
Ba0 O0 2.898272 1_655
Ba0 O1 2.934808 1_555
Ba0 O1 2.934811 1_565
Ba1 O6 2.767919 1_565
Ba1 O6 2.767920 1_455
Ba1 O6 2.767921 1_465
Ba1 O6 2.767921 1_555
Ba1 O4 2.927980 1_455
Ba1 O4 2.927984 1_555
Ba1 O5 3.106021 1_555
Ba1 O5 3.106023 1_545
Mg0 O2 1.997439 1_565
Mg0 O2 1.997439 1_555
Mg0 O7 2.018573 1_555
Mg0 O7 2.018581 1_655
Co0 O1 1.941916 1_455
Co0 O1 1.941917 1_555
Co0 O0 2.026968 1_555
Co0 O0 2.026968 1_545
Co0 O3 2.218586 1_445
Co1 O3 1.925042 1_445
Co1 O7 2.032565 1_545
Co1 O7 2.032565 1_555
Co1 O2 2.131595 1_455
Co1 O2 2.131602 1_555
Co2 O6 1.955573 1_565
Co2 O5 1.994143 1_555
Co2 O5 1.994150 1_655
Co2 O4 2.034638 1_555
Co2 O4 2.034646 1_565
O0 Y0 2.432949 1_455
O0 Y0 2.432956 1_555
O1 Y0 2.512942 1_555
O1 Y0 2.512950 1_545
O4 Y0 2.395931 1_555
O4 Y0 2.395936 1_655
O5 Y0 2.369581 1_555
O5 Y0 2.369589 1_565
