# generated using pymatgen
data_ScTaP2SO12
_symmetry_space_group_name_H-M   'P 1'
_cell_length_a   8.81970548
_cell_length_b   8.83286161
_cell_length_c   22.72451869
_cell_angle_alpha   90.31583701
_cell_angle_beta   90.00000000
_cell_angle_gamma   119.95074151
_symmetry_Int_Tables_number   1
_chemical_formula_structural   ScTaP2SO12
_chemical_formula_sum   'Sc6 Ta6 P12 S6 O72'
_cell_volume   1533.86591928
_cell_formula_units_Z   6
loop_
 _symmetry_equiv_pos_site_id
 _symmetry_equiv_pos_as_xyz
  1  'x, y, z'
loop_
 _atom_site_type_symbol
 _atom_site_label
 _atom_site_symmetry_multiplicity
 _atom_site_fract_x
 _atom_site_fract_y
 _atom_site_fract_z
 _atom_site_occupancy
  Sc  Sc0  1  0.99896502  0.00236427  0.35620518  1
  Sc  Sc1  1  0.00339925  0.00236427  0.85620518  1
  Sc  Sc2  1  0.66563202  0.33569727  0.68953818  1
  Sc  Sc3  1  0.67006625  0.33569727  0.18953818  1
  Sc  Sc4  1  0.33229802  0.66903127  0.02287218  1
  Sc  Sc5  1  0.33673225  0.66903127  0.52287218  1
  Ta  Ta0  1  0.99328590  0.00526677  0.64350304  1
  Ta  Ta1  1  0.01198087  0.00526677  0.14350304  1
  Ta  Ta2  1  0.65995290  0.33859977  0.97683604  1
  Ta  Ta3  1  0.67864787  0.33859977  0.47683604  1
  Ta  Ta4  1  0.32661890  0.67193377  0.31017004  1
  Ta  Ta5  1  0.34531387  0.67193377  0.81017004  1
  P  P0  1  0.28802308  0.00345841  0.25095553  1
  P  P1  1  0.00081694  0.28585788  0.25084592  1
  P  P2  1  0.28504095  0.28585788  0.75084592  1
  P  P3  1  0.71543533  0.00345841  0.75095553  1
  P  P4  1  0.95469008  0.33679141  0.58428853  1
  P  P5  1  0.66748394  0.61919088  0.58417892  1
  P  P6  1  0.95170795  0.61919088  0.08417892  1
  P  P7  1  0.38210233  0.33679141  0.08428853  1
  P  P8  1  0.62135608  0.67012541  0.91762253  1
  P  P9  1  0.33414994  0.95252488  0.91751292  1
  P  P10  1  0.61837395  0.95252488  0.41751292  1
  P  P11  1  0.04876833  0.67012541  0.41762253  1
  S  S0  1  0.71124537  0.71484557  0.25007163  1
  S  S1  1  0.00360020  0.71484557  0.75007163  1
  S  S2  1  0.37791237  0.04817857  0.58340463  1
  S  S3  1  0.67026720  0.04817857  0.08340463  1
  S  S4  1  0.04457837  0.38151257  0.91673863  1
  S  S5  1  0.33693320  0.38151257  0.41673863  1
  O  O0  1  0.20078062  0.02527641  0.30448870  1
  O  O1  1  0.81760257  0.79293894  0.30257184  1
  O  O2  1  0.97481320  0.17540034  0.30441866  1
  O  O3  1  0.20058714  0.17540034  0.80441866  1
  O  O4  1  0.97533637  0.79293894  0.80257184  1
  O  O5  1  0.82449579  0.02527641  0.80448870  1
  O  O6  1  0.80076744  0.96599888  0.69494329  1
  O  O7  1  0.16361333  0.19532387  0.69512811  1
  O  O8  1  0.03602016  0.82644387  0.69713592  1
  O  O9  1  0.79042371  0.82644387  0.19713592  1
  O  O10  1  0.03171054  0.19532387  0.19512811  1
  O  O11  1  0.16523144  0.96599888  0.19494329  1
  O  O12  1  0.86744762  0.35860941  0.63782170  1
  O  O13  1  0.48426957  0.12627194  0.63590484  1
  O  O14  1  0.64148020  0.50873334  0.63775166  1
  O  O15  1  0.86725414  0.50873334  0.13775166  1
  O  O16  1  0.64200337  0.12627194  0.13590484  1
  O  O17  1  0.49116279  0.35860941  0.13782170  1
  O  O18  1  0.46743444  0.29933188  0.02827629  1
  O  O19  1  0.83028033  0.52865687  0.02846111  1
  O  O20  1  0.70268716  0.15977687  0.03046892  1
  O  O21  1  0.45709071  0.15977687  0.53046892  1
  O  O22  1  0.69837754  0.52865687  0.52846111  1
  O  O23  1  0.83189844  0.29933188  0.52827629  1
  O  O24  1  0.53411362  0.69194341  0.97115570  1
  O  O25  1  0.15093557  0.45960594  0.96923884  1
  O  O26  1  0.30814620  0.84206734  0.97108566  1
  O  O27  1  0.53392014  0.84206734  0.47108566  1
  O  O28  1  0.30866937  0.45960594  0.46923884  1
  O  O29  1  0.15782879  0.69194341  0.47115570  1
  O  O30  1  0.13410044  0.63266588  0.36161029  1
  O  O31  1  0.49694633  0.86199087  0.36179511  1
  O  O32  1  0.36935316  0.49311087  0.36380292  1
  O  O33  1  0.12375671  0.49311087  0.86380292  1
  O  O34  1  0.36504354  0.86199087  0.86179511  1
  O  O35  1  0.49856444  0.63266588  0.86161029  1
  O  O36  1  0.01859583  0.82013096  0.40596938  1
  O  O37  1  0.79964642  0.98198722  0.40628902  1
  O  O38  1  0.18709873  0.20670776  0.40827380  1
  O  O39  1  0.01960903  0.20670776  0.90827380  1
  O  O40  1  0.18234080  0.98198722  0.90628902  1
  O  O41  1  0.80153513  0.82013096  0.90596938  1
  O  O42  1  0.96756316  0.16412862  0.59265392  1
  O  O43  1  0.19950928  0.03082684  0.59228749  1
  O  O44  1  0.83921276  0.80304338  0.59425855  1
  O  O45  1  0.96383062  0.80304338  0.09425855  1
  O  O46  1  0.83131757  0.03082684  0.09228749  1
  O  O47  1  0.19656546  0.16412862  0.09265392  1
  O  O48  1  0.68526283  0.15346396  0.73930238  1
  O  O49  1  0.46631342  0.31532022  0.73962202  1
  O  O50  1  0.85376573  0.54004076  0.74160680  1
  O  O51  1  0.68627603  0.54004076  0.24160680  1
  O  O52  1  0.84900780  0.31532022  0.23962202  1
  O  O53  1  0.46820213  0.15346396  0.23930238  1
  O  O54  1  0.63423016  0.49746162  0.92598692  1
  O  O55  1  0.86617628  0.36415984  0.92562049  1
  O  O56  1  0.50587976  0.13637638  0.92759155  1
  O  O57  1  0.63049762  0.13637638  0.42759155  1
  O  O58  1  0.49798457  0.36415984  0.42562049  1
  O  O59  1  0.86323246  0.49746162  0.42598692  1
  O  O60  1  0.35192883  0.48679796  0.07263638  1
  O  O61  1  0.13297942  0.64865422  0.07295602  1
  O  O62  1  0.52043173  0.87337476  0.07494080  1
  O  O63  1  0.35294203  0.87337476  0.57494080  1
  O  O64  1  0.51567380  0.64865422  0.57295602  1
  O  O65  1  0.13486813  0.48679796  0.57263638  1
  O  O66  1  0.30089616  0.83079562  0.25932092  1
  O  O67  1  0.53284228  0.69749384  0.25895449  1
  O  O68  1  0.17254576  0.46971038  0.26092555  1
  O  O69  1  0.29716362  0.46971038  0.76092555  1
  O  O70  1  0.16465057  0.69749384  0.75895449  1
  O  O71  1  0.52989846  0.83079562  0.75932092  1
loop_
_geom_bond_atom_site_label_1
_geom_bond_atom_site_label_2
_geom_bond_distance
_geom_bond_site_symmetry_2
O0 P0 1.501528 1_555
O0 Sc0 2.057498 1_455
O1 S0 1.457366 1_555
O1 Sc0 2.118147 1_565
O2 P1 1.508731 1_655
O2 Sc0 2.027614 1_555
O3 P2 1.508731 1_555
O3 Sc1 2.027614 1_555
O4 S1 1.457366 1_655
O4 Sc1 2.118147 1_665
O5 P3 1.501528 1_555
O5 Sc1 2.057498 1_655
O6 P3 1.593752 1_565
O6 Ta0 1.945823 1_565
O7 P2 1.588485 1_555
O7 Ta0 1.977719 1_455
O8 S1 1.494030 1_555
O8 Ta0 2.176700 1_465
O9 S0 1.494030 1_555
O9 Ta1 2.176700 1_665
O10 P1 1.588485 1_555
O10 Ta1 1.977719 1_555
O11 P0 1.593752 1_565
O11 Ta1 1.945823 1_565
O12 P4 1.501528 1_555
O12 Sc2 2.057498 1_555
O13 S2 1.457366 1_555
O13 Sc2 2.118147 1_555
O14 P5 1.508731 1_555
O14 Sc2 2.027614 1_555
O15 P6 1.508731 1_555
O15 Sc3 2.027614 1_555
O16 S3 1.457366 1_555
O16 Sc3 2.118147 1_555
O17 P7 1.501528 1_555
O17 Sc3 2.057498 1_555
O18 P7 1.593752 1_555
O18 Ta2 1.945823 1_554
O19 P6 1.588485 1_555
O19 Ta2 1.977719 1_554
O20 S3 1.494030 1_555
O20 Ta2 2.176700 1_554
O21 S2 1.494030 1_555
O21 Ta3 2.176700 1_555
O22 P5 1.588485 1_555
O22 Ta3 1.977719 1_555
O23 P4 1.593752 1_555
O23 Ta3 1.945823 1_555
O24 P8 1.501528 1_555
O24 Sc4 2.057498 1_556
O25 S4 1.457366 1_555
O25 Sc4 2.118147 1_556
O26 P9 1.508731 1_555
O26 Sc4 2.027614 1_556
O27 P10 1.508731 1_555
O27 Sc5 2.027614 1_555
O28 S5 1.457366 1_555
O28 Sc5 2.118147 1_555
O29 P11 1.501528 1_555
O29 Sc5 2.057498 1_555
O30 P11 1.593752 1_555
O30 Ta4 1.945823 1_555
O31 P10 1.588485 1_555
O31 Ta4 1.977719 1_555
O32 S5 1.494030 1_555
O32 Ta4 2.176700 1_555
O33 S4 1.494030 1_555
O33 Ta5 2.176700 1_555
O34 P9 1.588485 1_555
O34 Ta5 1.977719 1_555
O35 P8 1.593752 1_555
O35 Ta5 1.945823 1_555
O36 P11 1.500815 1_555
O36 Sc0 2.048933 1_465
O37 P10 1.508024 1_555
O37 Sc0 2.025928 1_565
O38 S5 1.458325 1_555
O38 Sc0 2.096921 1_455
O39 S4 1.458328 1_555
O39 Sc1 2.096921 1_555
O40 P9 1.508015 1_555
O40 Sc1 2.025928 1_565
O41 P8 1.500820 1_555
O41 Sc1 2.048933 1_665
O42 P4 1.597208 1_555
O42 Ta0 1.921308 1_555
O43 S2 1.516432 1_555
O43 Ta0 2.075218 1_455
O44 P5 1.588586 1_555
O44 Ta0 1.960542 1_565
O45 P6 1.588590 1_555
O45 Ta1 1.960542 1_665
O46 S3 1.516423 1_555
O46 Ta1 2.075218 1_655
O47 P7 1.597213 1_555
O47 Ta1 1.921308 1_555
O48 P3 1.500815 1_555
O48 Sc2 2.048933 1_555
O49 P2 1.508024 1_555
O49 Sc2 2.025928 1_555
O50 S1 1.458325 1_655
O50 Sc2 2.096921 1_555
O51 S0 1.458328 1_555
O51 Sc3 2.096921 1_555
O52 P1 1.508015 1_655
O52 Sc3 2.025928 1_555
O53 P0 1.500820 1_555
O53 Sc3 2.048933 1_555
O54 P8 1.597218 1_555
O54 Ta2 1.921308 1_555
O55 S4 1.516416 1_655
O55 Ta2 2.075218 1_555
O56 P9 1.588582 1_545
O56 Ta2 1.960542 1_555
O57 P10 1.588574 1_545
O57 Ta3 1.960542 1_555
O58 S5 1.516434 1_555
O58 Ta3 2.075218 1_555
O59 P11 1.597209 1_655
O59 Ta3 1.921308 1_555
O60 P7 1.500825 1_555
O60 Sc4 2.048933 1_555
O61 P6 1.508008 1_455
O61 Sc4 2.025928 1_555
O62 S3 1.458320 1_565
O62 Sc4 2.096921 1_555
O63 S2 1.458313 1_565
O63 Sc5 2.096921 1_555
O64 P5 1.508025 1_555
O64 Sc5 2.025928 1_555
O65 P4 1.500814 1_455
O65 Sc5 2.048933 1_555
O66 P0 1.597208 1_565
O66 Ta4 1.921308 1_555
O67 S0 1.516432 1_555
O67 Ta4 2.075218 1_555
O68 P1 1.588586 1_555
O68 Ta4 1.960542 1_555
O69 P2 1.588590 1_555
O69 Ta5 1.960542 1_555
O70 S1 1.516423 1_555
O70 Ta5 2.075218 1_555
O71 P3 1.597213 1_565
O71 Ta5 1.921308 1_555
