# generated using pymatgen
data_B10(Pb2O7)3
_symmetry_space_group_name_H-M   'P 1'
_cell_length_a   6.84213020
_cell_length_b   7.00846528
_cell_length_c   11.13879345
_cell_angle_alpha   82.79172602
_cell_angle_beta   78.55956766
_cell_angle_gamma   61.01947458
_symmetry_Int_Tables_number   1
_chemical_formula_structural   B10(Pb2O7)3
_chemical_formula_sum   'B10 Pb6 O21'
_cell_volume   457.70195937
_cell_formula_units_Z   1
loop_
 _symmetry_equiv_pos_site_id
 _symmetry_equiv_pos_as_xyz
  1  'x, y, z'
loop_
 _atom_site_type_symbol
 _atom_site_label
 _atom_site_symmetry_multiplicity
 _atom_site_fract_x
 _atom_site_fract_y
 _atom_site_fract_z
 _atom_site_occupancy
  B  B0  1  0.21781438  0.86884645  0.94508872  1
  B  B1  1  0.78218562  0.13115355  0.05491128  1
  B  B2  1  0.52526956  0.67266421  0.57242207  1
  B  B3  1  0.47473044  0.32733579  0.42757793  1
  B  B4  1  0.72430083  0.17281463  0.75868227  1
  B  B5  1  0.27569917  0.82718537  0.24131773  1
  B  B6  1  0.83332900  0.46490637  0.70260621  1
  B  B7  1  0.16667100  0.53509363  0.29739379  1
  B  B8  1  0.44432651  0.56582186  0.79664294  1
  B  B9  1  0.55567349  0.43417814  0.20335706  1
  Pb  Pb0  1  0.76049523  0.73392596  0.93704089  1
  Pb  Pb1  1  0.23950477  0.26607404  0.06295911  1
  Pb  Pb2  1  0.03310382  0.76059609  0.58853774  1
  Pb  Pb3  1  0.96689618  0.23940391  0.41146226  1
  Pb  Pb4  1  0.34508935  0.13974603  0.69941047  1
  Pb  Pb5  1  0.65491065  0.86025397  0.30058953  1
  O  O0  1  0.76832408  0.96062825  0.76226136  1
  O  O1  1  0.88708139  0.23163328  0.70615933  1
  O  O2  1  0.96782548  0.51948342  0.28774226  1
  O  O3  1  0.03217452  0.48051658  0.71225774  1
  O  O4  1  0.24653981  0.42725347  0.41804920  1
  O  O5  1  0.11291861  0.76836672  0.29384067  1
  O  O6  1  0.55661096  0.21842184  0.52944467  1
  O  O7  1  0.44338904  0.78157816  0.47055533  1
  O  O8  1  0.62899162  0.33627963  0.32609667  1
  O  O9  1  0.37100838  0.66372037  0.67390333  1
  O  O10  1  0.35126252  0.42423569  0.19931023  1
  O  O11  1  0.64873748  0.57576431  0.80068977  1
  O  O12  1  0.73926067  0.31849563  0.10716749  1
  O  O13  1  0.26073933  0.68150437  0.89283251  1
  O  O14  1  0.62642934  0.06322077  0.05574503  1
  O  O15  1  0.37357066  0.93677923  0.94425497  1
  O  O16  1  -0.00000000  0.00000000  -0.00000000  1
  O  O17  1  0.50177260  0.32868544  0.80074519  1
  O  O18  1  0.49822740  0.67131456  0.19925481  1
  O  O19  1  0.75346019  0.57274653  0.58195080  1
  O  O20  1  0.23167592  0.03937175  0.23773864  1
loop_
_geom_bond_atom_site_label_1
_geom_bond_atom_site_label_2
_geom_bond_distance
_geom_bond_site_symmetry_2
B0 O15 1.359825 1_555
B0 O16 1.375532 1_566
B0 O13 1.378144 1_555
B1 O14 1.359825 1_555
B1 O16 1.375532 1_655
B1 O12 1.378144 1_555
B2 O7 1.343291 1_555
B2 O19 1.388145 1_555
B2 O9 1.403120 1_555
B3 O6 1.343291 1_555
B3 O4 1.388145 1_555
B3 O8 1.403120 1_555
B4 O0 1.363677 1_545
B4 O1 1.370611 1_555
B4 O17 1.401713 1_555
B5 O20 1.363677 1_565
B5 O5 1.370611 1_555
B5 O18 1.401713 1_555
B6 O3 1.442141 1_655
B6 O11 1.451613 1_555
B6 O1 1.488813 1_555
B6 O19 1.520621 1_555
B7 O2 1.442141 1_455
B7 O10 1.451613 1_555
B7 O5 1.488813 1_555
B7 O4 1.520621 1_555
B8 O13 1.442354 1_555
B8 O11 1.443338 1_555
B8 O17 1.507899 1_555
B8 O9 1.514829 1_555
B9 O12 1.442354 1_555
B9 O10 1.443338 1_555
B9 O18 1.507899 1_555
B9 O8 1.514829 1_555
O0 Pb0 2.362685 1_555
O0 Pb2 2.412663 1_655
O2 Pb3 2.254335 1_555
O2 Pb5 2.305981 1_555
O3 Pb2 2.254335 1_555
O3 Pb4 2.305981 1_555
O6 Pb4 2.325346 1_555
O7 Pb5 2.325346 1_555
O8 Pb3 2.428867 1_555
O9 Pb2 2.428867 1_555
O10 Pb1 2.413436 1_555
O11 Pb0 2.413436 1_555
O14 Pb1 2.309420 1_555
O14 Pb0 2.479739 1_544
O15 Pb0 2.309420 1_555
O15 Pb1 2.479739 1_566
O17 Pb4 2.531308 1_555
O18 Pb5 2.531308 1_555
O20 Pb1 2.362685 1_555
O20 Pb3 2.412663 1_455
