# generated using pymatgen
data_MgMn12O17F7
_symmetry_space_group_name_H-M   'P 1'
_cell_length_a   4.79296188
_cell_length_b   5.71522861
_cell_length_c   14.99092838
_cell_angle_alpha   92.56735602
_cell_angle_beta   86.95594403
_cell_angle_gamma   91.70751033
_symmetry_Int_Tables_number   1
_chemical_formula_structural   MgMn12O17F7
_chemical_formula_sum   'Mg1 Mn12 O17 F7'
_cell_volume   409.49881370
_cell_formula_units_Z   1
loop_
 _symmetry_equiv_pos_site_id
 _symmetry_equiv_pos_as_xyz
  1  'x, y, z'
loop_
 _atom_site_type_symbol
 _atom_site_label
 _atom_site_symmetry_multiplicity
 _atom_site_fract_x
 _atom_site_fract_y
 _atom_site_fract_z
 _atom_site_occupancy
  Mg  Mg0  1  0.46837500  0.07806000  0.07289700  1
  Mn  Mn0  1  0.01709800  0.14991000  0.41665800  1
  Mn  Mn1  1  0.05208600  0.79485900  0.24983400  1
  Mn  Mn2  1  0.99545100  0.33957500  0.08183500  1
  Mn  Mn3  1  0.00684500  0.18223900  0.73736800  1
  Mn  Mn4  1  0.02116500  0.81861900  0.57680900  1
  Mn  Mn5  1  0.98888600  0.85938900  0.90500100  1
  Mn  Mn6  1  0.46278800  0.36837100  0.90630400  1
  Mn  Mn7  1  0.49213800  0.36722300  0.58649500  1
  Mn  Mn8  1  0.51264500  0.31611100  0.26172300  1
  Mn  Mn9  1  0.51205600  0.60844300  0.09388700  1
  Mn  Mn10  1  0.49872500  0.61692700  0.42191800  1
  Mn  Mn11  1  0.47862100  0.65069000  0.75095400  1
  O  O0  1  0.22342500  0.08229600  0.30564600  1
  O  O1  1  0.22386800  0.12216700  0.63157400  1
  O  O2  1  0.19319900  0.14029900  0.97841000  1
  O  O3  1  0.29211500  0.83546700  0.14736500  1
  O  O4  1  0.22814600  0.86473500  0.46844500  1
  O  O5  1  0.22339600  0.90409100  0.79997900  1
  O  O6  1  0.28087500  0.38633700  0.48084100  1
  O  O7  1  0.31274000  0.34086300  0.14991600  1
  O  O8  1  0.31051500  0.57505100  0.31330300  1
  O  O9  1  0.27546200  0.60543300  0.64472000  1
  O  O10  1  0.24364900  0.42000800  0.80751400  1
  O  O11  1  0.67278300  0.36309600  0.01617900  1
  O  O12  1  0.81672600  0.55433300  0.17894900  1
  O  O13  1  0.73220900  0.36160800  0.36250400  1
  O  O14  1  0.72235200  0.60779900  0.52552000  1
  O  O15  1  0.68352500  0.64133900  0.85815000  1
  O  O16  1  0.70555800  0.39716900  0.69129200  1
  F  F0  1  0.20679300  0.61750600  0.99033600  1
  F  F1  1  0.75977500  0.09355200  0.17713500  1
  F  F2  1  0.75244000  0.12381400  0.52716900  1
  F  F3  1  0.76864500  0.84534400  0.35426300  1
  F  F4  1  0.72811700  0.85610300  0.01767300  1
  F  F5  1  0.76490800  0.13937600  0.84792200  1
  F  F6  1  0.76079300  0.87655800  0.68851400  1
loop_
_geom_bond_atom_site_label_1
_geom_bond_atom_site_label_2
_geom_bond_distance
_geom_bond_site_symmetry_2
Mg0 O3 1.962379 1_545
Mg0 O7 1.991330 1_555
Mg0 O2 2.035653 1_554
Mg0 O11 2.068110 1_555
Mn0 O0 1.920190 1_555
Mn0 O6 2.064193 1_555
Mn0 O13 2.071613 1_455
Mn0 O4 2.139465 1_545
Mn1 O3 1.888214 1_555
Mn1 O0 1.985587 1_565
Mn1 O12 2.048282 1_455
Mn1 O8 2.083904 1_555
Mn2 O7 1.875598 1_655
Mn2 O11 1.887985 1_555
Mn2 O12 2.032204 1_555
Mn2 O2 2.085510 1_654
Mn3 O1 1.874136 1_555
Mn3 O10 2.036522 1_555
Mn3 O16 2.087812 1_455
Mn3 O5 2.195630 1_545
Mn4 O4 1.882597 1_555
Mn4 O14 2.006296 1_455
Mn4 O9 2.082765 1_555
Mn4 O1 2.117610 1_565
Mn5 O5 1.907428 1_655
Mn5 O15 2.027425 1_555
Mn5 O2 2.147089 1_665
Mn6 O10 1.899034 1_555
Mn6 O11 1.977198 1_556
Mn6 O15 1.998919 1_555
Mn6 O2 2.101096 1_555
Mn7 O9 1.890870 1_555
Mn7 O16 1.918295 1_555
Mn7 O6 1.933456 1_555
Mn7 O14 1.964325 1_555
Mn7 O1 1.989146 1_555
Mn8 O13 1.890756 1_555
Mn8 O8 1.905239 1_555
Mn8 O7 1.986756 1_555
Mn8 O0 2.003089 1_555
Mn8 O12 2.314859 1_555
Mn9 O3 1.826480 1_555
Mn9 O11 1.933755 1_555
Mn9 O7 1.974738 1_555
Mn9 O12 2.028316 1_555
Mn10 O6 1.879255 1_555
Mn10 O8 1.905366 1_555
Mn10 O14 1.936758 1_555
Mn10 O13 2.012446 1_555
Mn10 O4 2.024625 1_555
Mn11 O10 1.906748 1_555
Mn11 O9 1.914170 1_555
Mn11 O15 1.930843 1_555
Mn11 O16 1.989202 1_555
Mn11 O5 2.012138 1_555
F0 Mn9 2.192269 1_556
F0 Mn6 2.213370 1_555
F0 Mn5 2.241595 1_455
F0 Mn2 2.319998 1_456
F1 Mn8 2.101107 1_555
F1 Mg0 2.147638 1_555
F1 Mn2 2.282089 1_555
F1 Mn1 2.556595 1_645
F2 Mn7 2.038997 1_555
F2 Mn0 2.040472 1_655
F2 Mn4 2.367927 1_645
F3 Mn1 2.033864 1_655
F3 Mn10 2.070061 1_555
F3 Mn0 2.274155 1_665
F4 Mg0 1.932605 1_565
F4 Mn5 2.047594 1_554
F4 Mn9 2.076794 1_555
F5 Mn3 1.991650 1_655
F5 Mn6 2.109833 1_555
F5 Mn5 2.183532 1_545
F6 Mn4 2.055284 1_655
F6 Mn11 2.059465 1_555
F6 Mn3 2.198548 1_665
