# generated using pymatgen
data_MgFe6(OF)6
_symmetry_space_group_name_H-M   'P 1'
_cell_length_a   5.30385945
_cell_length_b   7.71340895
_cell_length_c   5.80456174
_cell_angle_alpha   97.79260385
_cell_angle_beta   88.54079625
_cell_angle_gamma   92.35021154
_symmetry_Int_Tables_number   1
_chemical_formula_structural   MgFe6(OF)6
_chemical_formula_sum   'Mg1 Fe6 O6 F6'
_cell_volume   235.03109983
_cell_formula_units_Z   1
loop_
 _symmetry_equiv_pos_site_id
 _symmetry_equiv_pos_as_xyz
  1  'x, y, z'
loop_
 _atom_site_type_symbol
 _atom_site_label
 _atom_site_symmetry_multiplicity
 _atom_site_fract_x
 _atom_site_fract_y
 _atom_site_fract_z
 _atom_site_occupancy
  Mg  Mg0  1  0.00244500  0.18045400  0.66863900  1
  Fe  Fe0  1  0.53317400  0.68053600  0.15445600  1
  Fe  Fe1  1  0.44679700  0.98907700  0.53399000  1
  Fe  Fe2  1  0.52338300  0.36229900  0.79602500  1
  Fe  Fe3  1  0.99406400  0.66634000  0.68737800  1
  Fe  Fe4  1  0.91574700  0.38146400  0.28195100  1
  Fe  Fe5  1  0.06716400  0.96092000  0.05987100  1
  O  O0  1  0.87259000  0.42517800  0.63791300  1
  O  O1  1  0.83630000  0.76309500  0.98888000  1
  O  O2  1  0.62285700  0.44585800  0.12110900  1
  O  O3  1  0.34220800  0.21857700  0.54091000  1
  O  O4  1  0.35335700  0.89948700  0.21626100  1
  O  O5  1  0.15488700  0.91677500  0.71995400  1
  F  F0  1  0.86775000  0.08817900  0.33995300  1
  F  F1  1  0.68519000  0.08483600  0.79117800  1
  F  F2  1  0.67860100  0.76200500  0.48678500  1
  F  F3  1  0.31559400  0.60416300  0.85802100  1
  F  F4  1  0.11090900  0.22191200  0.00762800  1
  F  F5  1  0.17698100  0.59884800  0.37100100  1
loop_
_geom_bond_atom_site_label_1
_geom_bond_atom_site_label_2
_geom_bond_distance
_geom_bond_site_symmetry_2
Mg0 O3 1.957339 1_555
Mg0 O0 2.067265 1_455
Mg0 O5 2.278258 1_545
Fe0 O2 1.873858 1_555
Fe0 O4 1.959824 1_555
Fe0 O1 1.979232 1_554
Fe1 O3 1.871673 1_565
Fe1 O4 1.948684 1_555
Fe1 O5 1.969925 1_555
Fe2 O3 1.971076 1_555
Fe2 O2 1.986816 1_556
Fe2 O0 2.113868 1_555
Fe3 O0 1.929794 1_555
Fe3 O1 1.985547 1_555
Fe3 O5 2.066121 1_655
Fe4 O2 1.947934 1_555
Fe4 O0 2.056356 1_555
Fe5 O4 1.896976 1_555
Fe5 O1 1.923400 1_454
Fe5 O5 2.002367 1_554
F0 Fe5 2.071253 1_645
F0 Mg0 2.077605 1_655
F0 Fe4 2.334688 1_555
F0 Fe1 2.608284 1_545
F1 Mg0 1.964894 1_655
F1 Fe1 2.023228 1_545
F1 Fe2 2.334690 1_555
F2 Fe0 2.101969 1_555
F2 Fe1 2.164186 1_555
F2 Fe3 2.265655 1_555
F3 Fe3 2.097919 1_455
F3 Fe0 2.100001 1_556
F3 Fe2 2.188814 1_555
F4 Mg0 2.043749 1_554
F4 Fe5 2.078983 1_545
F4 Fe4 2.147248 1_455
F5 Fe3 2.067884 1_455
F5 Fe4 2.146949 1_455
F5 Fe0 2.354189 1_555
