# generated using pymatgen
data_HoAlNi
_symmetry_space_group_name_H-M   'P 1'
_cell_length_a   6.88301021
_cell_length_b   6.88301063
_cell_length_c   3.86288977
_cell_angle_alpha   90.00000000
_cell_angle_beta   90.00000000
_cell_angle_gamma   120.00000283
_symmetry_Int_Tables_number   1
_chemical_formula_structural   HoAlNi
_chemical_formula_sum   'Ho3 Al3 Ni3'
_cell_volume   158.48924217
_cell_formula_units_Z   3
loop_
 _symmetry_equiv_pos_site_id
 _symmetry_equiv_pos_as_xyz
  1  'x, y, z'
loop_
 _atom_site_type_symbol
 _atom_site_label
 _atom_site_symmetry_multiplicity
 _atom_site_fract_x
 _atom_site_fract_y
 _atom_site_fract_z
 _atom_site_occupancy
  Ho  Ho0  1  -0.00000000  0.58256280  0.50000000  1
  Ho  Ho1  1  0.58256280  -0.00000000  0.50000000  1
  Ho  Ho2  1  0.41743720  0.41743720  0.50000000  1
  Al  Al0  1  0.23377044  0.00000000  0.00000000  1
  Al  Al1  1  0.76622956  0.76622956  -0.00000000  1
  Al  Al2  1  0.00000000  0.23377044  0.00000000  1
  Ni  Ni0  1  0.33333300  0.66666700  -0.00000000  1
  Ni  Ni1  1  0.66666700  0.33333300  0.00000000  1
  Ni  Ni2  1  0.00000000  -0.00000000  0.50000000  1
loop_
_geom_bond_atom_site_label_1
_geom_bond_atom_site_label_2
_geom_bond_distance
_geom_bond_site_symmetry_2
Ho0 Ni0 2.828674 1_556
Ho0 Ni0 2.828674 1_555
Ho0 Ni1 2.828675 1_455
Ho0 Ni1 2.828675 1_456
Ho0 Ni2 2.873225 1_565
Ho1 Ni1 2.828674 1_556
Ho1 Ni1 2.828674 1_555
Ho1 Ni0 2.828675 1_545
Ho1 Ni0 2.828675 1_546
Ho1 Ni2 2.873225 1_655
Ho2 Ni1 2.828679 1_556
Ho2 Ni1 2.828679 1_555
Ho2 Ni0 2.828679 1_556
Ho2 Ni0 2.828679 1_555
Ho2 Ni2 2.873224 1_555
Al0 Ni2 2.513862 1_555
Al0 Ni2 2.513862 1_554
Al0 Ni0 2.702939 1_545
Al0 Ni1 2.702943 1_555
Al0 Al1 2.786946 1_445
Al0 Al2 2.786947 1_555
Al0 Ho1 3.081240 1_555
Al0 Ho1 3.081240 1_554
Al0 Ho0 3.154644 1_545
Al0 Ho0 3.154644 1_544
Al0 Ho2 3.154644 1_555
Al0 Ho2 3.154644 1_554
Al1 Ni2 2.513862 1_665
Al1 Ni2 2.513862 1_664
Al1 Ni0 2.702945 1_555
Al1 Ni1 2.702946 1_555
Al1 Al2 2.786947 1_665
Al1 Ho2 3.081240 1_555
Al1 Ho2 3.081240 1_554
Al1 Ho0 3.154644 1_654
Al1 Ho0 3.154644 1_655
Al1 Ho1 3.154644 1_565
Al1 Ho1 3.154644 1_564
Al2 Ni2 2.513862 1_555
Al2 Ni2 2.513862 1_554
Al2 Ni1 2.702939 1_455
Al2 Ni0 2.702943 1_555
Al2 Ho0 3.081240 1_555
Al2 Ho0 3.081240 1_554
Al2 Ho1 3.154644 1_455
Al2 Ho1 3.154644 1_454
Al2 Ho2 3.154644 1_554
Al2 Ho2 3.154644 1_555
