# generated using pymatgen
data_Na6Ta3In5Si6(SO8)6
_symmetry_space_group_name_H-M   'P 1'
_cell_length_a   17.99289590
_cell_length_b   8.99369792
_cell_length_c   23.03525356
_cell_angle_alpha   89.95945290
_cell_angle_beta   90.05540852
_cell_angle_gamma   119.87834525
_symmetry_Int_Tables_number   1
_chemical_formula_structural   Na6Ta3In5Si6(SO8)6
_chemical_formula_sum   'Na18 Ta9 In15 Si18 S18 O144'
_cell_volume   3232.16751211
_cell_formula_units_Z   3
loop_
 _symmetry_equiv_pos_site_id
 _symmetry_equiv_pos_as_xyz
  1  'x, y, z'
loop_
 _atom_site_type_symbol
 _atom_site_label
 _atom_site_symmetry_multiplicity
 _atom_site_fract_x
 _atom_site_fract_y
 _atom_site_fract_z
 _atom_site_occupancy
  Na  Na0  1  0.48335226  0.68237718  0.91090715  1
  Na  Na1  1  0.16314323  0.31394499  0.91114632  1
  Na  Na2  1  0.48589880  0.29419476  0.41425785  1
  Na  Na3  1  0.97705650  0.28918545  0.40775812  1
  Na  Na4  1  0.16326334  0.02370933  0.41131130  1
  Na  Na5  1  0.66499542  0.03240927  0.41810177  1
  Na  Na6  1  0.98391187  0.96889803  0.49198299  1
  Na  Na7  1  0.49399817  0.98820844  0.49201721  1
  Na  Na8  1  0.99461196  0.99973344  0.99727694  1
  Na  Na9  1  0.50066891  0.99759941  0.98971293  1
  Na  Na10  1  0.33289729  0.32839976  0.82184130  1
  Na  Na11  1  0.83165093  0.34169941  0.82909809  1
  Na  Na12  1  0.33699854  0.32933323  0.32999868  1
  Na  Na13  1  0.83898954  0.33946888  0.33400742  1
  Na  Na14  1  0.15250538  0.65766381  0.16313735  1
  Na  Na15  1  0.66716903  0.65050365  0.16569620  1
  Na  Na16  1  0.16938152  0.67168895  0.67204090  1
  Na  Na17  1  0.66250607  0.65781786  0.66420934  1
  Ta  Ta0  1  0.00467229  0.99862836  0.65182610  1
  Ta  Ta1  1  0.50059095  0.00451156  0.65592701  1
  Ta  Ta2  1  0.00337553  0.99658822  0.14997957  1
  Ta  Ta3  1  0.50775930  0.02180213  0.14684817  1
  Ta  Ta4  1  0.83432243  0.33813625  0.97862841  1
  Ta  Ta5  1  0.15986139  0.67386019  0.31016715  1
  Ta  Ta6  1  0.66389622  0.65624207  0.31790108  1
  Ta  Ta7  1  0.16472162  0.65100226  0.80915584  1
  Ta  Ta8  1  0.66436252  0.67198778  0.80973717  1
  In  In0  1  0.99592925  0.99418722  0.34903618  1
  In  In1  1  0.49442283  0.99959688  0.35259254  1
  In  In2  1  0.00168125  -0.00001175  0.84915109  1
  In  In3  1  0.49932974  0.99483876  0.84990827  1
  In  In4  1  0.33517566  0.33405437  0.68897744  1
  In  In5  1  0.83290212  0.34254451  0.68651762  1
  In  In6  1  0.33413175  0.32705642  0.18887151  1
  In  In7  1  0.84146057  0.34662910  0.18133132  1
  In  In8  1  0.33197763  0.33450905  0.98077355  1
  In  In9  1  0.33792267  0.33729723  0.47919379  1
  In  In10  1  0.83379248  0.33879984  0.47620352  1
  In  In11  1  0.15982076  0.65402291  0.01424401  1
  In  In12  1  0.66835702  0.66641124  0.01940000  1
  In  In13  1  0.16867824  0.67381875  0.51667294  1
  In  In14  1  0.66704435  0.66917221  0.51190332  1
  Si  Si0  1  0.14717254  0.00585990  0.25307249  1
  Si  Si1  1  0.99736610  0.29171063  0.25153089  1
  Si  Si2  1  0.50472030  0.30516090  0.25213114  1
  Si  Si3  1  0.14724826  0.29269909  0.75229474  1
  Si  Si4  1  0.64757064  0.29318584  0.75402329  1
  Si  Si5  1  0.99964589  0.70239534  0.75429829  1
  Si  Si6  1  0.50004414  0.70829078  0.75227822  1
  Si  Si7  1  0.35212320  0.99689047  0.75407373  1
  Si  Si8  1  0.98341249  0.63314252  0.08215024  1
  Si  Si9  1  0.69215618  0.34100859  0.08388409  1
  Si  Si10  1  0.31203945  0.67296589  0.91943396  1
  Si  Si11  1  0.01784055  0.36768659  0.91538482  1
  Si  Si12  1  0.66819545  0.95907872  0.91928717  1
  Si  Si13  1  0.31008793  0.95296759  0.41769990  1
  Si  Si14  1  0.81452702  0.95533502  0.41684984  1
  Si  Si15  1  0.66677242  0.37235585  0.41855373  1
  Si  Si16  1  0.02073422  0.67082247  0.41822098  1
  Si  Si17  1  0.51899728  0.66748965  0.41704551  1
  S  S0  1  0.64566946  0.99735342  0.24885593  1
  S  S1  1  0.35436238  0.71363937  0.24778452  1
  S  S2  1  0.85080750  0.70810967  0.24854665  1
  S  S3  1  0.85295607  0.99471410  0.74862261  1
  S  S4  1  0.48307017  0.32947313  0.58404269  1
  S  S5  1  0.98141513  0.32865863  0.58402364  1
  S  S6  1  0.18339893  0.03895762  0.58414514  1
  S  S7  1  0.68392770  0.03746177  0.58464913  1
  S  S8  1  0.33460117  0.63174695  0.58385710  1
  S  S9  1  0.83465380  0.63687691  0.58420518  1
  S  S10  1  0.47963842  0.63183560  0.08558800  1
  S  S11  1  0.33568566  0.03885205  0.08405194  1
  S  S12  1  0.83581211  0.04507029  0.08325856  1
  S  S13  1  0.18494312  0.32870976  0.08595485  1
  S  S14  1  0.81203857  0.66349584  0.91606035  1
  S  S15  1  0.52308818  0.37906368  0.91620765  1
  S  S16  1  0.16778603  0.95864686  0.91638589  1
  S  S17  1  0.16799580  0.38074212  0.41624595  1
  O  O0  1  0.10783791  0.02524379  0.31240154  1
  O  O1  1  0.60663568  0.01775369  0.30158554  1
  O  O2  1  0.40487765  0.78181196  0.30040437  1
  O  O3  1  0.90051003  0.77937106  0.30123098  1
  O  O4  1  0.48925073  0.19283606  0.30870631  1
  O  O5  1  0.98668541  0.19252981  0.31148241  1
  O  O6  1  0.11043622  0.19230493  0.81185096  1
  O  O7  1  0.60727160  0.18621267  0.81085186  1
  O  O8  1  0.48734557  0.77251386  0.81351852  1
  O  O9  1  0.97660157  0.78261764  0.80814078  1
  O  O10  1  0.41004862  0.03574940  0.80984374  1
  O  O11  1  0.90124874  0.02386695  0.80182785  1
  O  O12  1  0.40348742  0.96869775  0.69532226  1
  O  O13  1  0.89622942  0.96797277  0.69689211  1
  O  O14  1  0.07908650  0.18554958  0.69592647  1
  O  O15  1  0.58276909  0.20013220  0.69527246  1
  O  O16  1  0.01007585  0.83255602  0.69512401  1
  O  O17  1  0.51736088  0.84076871  0.69619498  1
  O  O18  1  0.39956239  0.82497124  0.19620674  1
  O  O19  1  0.89741900  0.81761784  0.19606369  1
  O  O20  1  0.00744453  0.18079599  0.19510955  1
  O  O21  1  0.51396206  0.19301718  0.19439437  1
  O  O22  1  0.08142691  0.97094573  0.19565591  1
  O  O23  1  0.58644877  0.97472394  0.19667462  1
  O  O24  1  0.43804939  0.34976978  0.63330131  1
  O  O25  1  0.93938417  0.35251846  0.63487051  1
  O  O26  1  0.23631893  0.12757158  0.63367761  1
  O  O27  1  0.73933921  0.12471645  0.63511849  1
  O  O28  1  0.32387217  0.52526863  0.63456461  1
  O  O29  1  0.82428308  0.53336032  0.63595598  1
  O  O30  1  0.43515820  0.52023995  0.13481557  1
  O  O31  1  0.94769995  0.52704050  0.14042030  1
  O  O32  1  0.32524247  0.12286031  0.13498249  1
  O  O33  1  0.82055715  0.11410849  0.13579796  1
  O  O34  1  0.23989113  0.34730771  0.13530557  1
  O  O35  1  0.74101643  0.35660731  0.14275927  1
  O  O36  1  0.21779307  0.29505503  0.03098977  1
  O  O37  1  0.73766626  0.30884771  0.02640611  1
  O  O38  1  0.43139872  0.56161111  0.03004921  1
  O  O39  1  0.91760393  0.52625469  0.02630103  1
  O  O40  1  0.35430884  0.14664510  0.03080372  1
  O  O41  1  0.84737056  0.15360438  0.03087728  1
  O  O42  1  0.21600300  0.13407036  0.52916476  1
  O  O43  1  0.72084325  0.13571953  0.53028415  1
  O  O44  1  0.34596081  0.55448526  0.52960184  1
  O  O45  1  0.85131112  0.56583305  0.53168792  1
  O  O46  1  0.43453270  0.30323090  0.52876927  1
  O  O47  1  0.93245877  0.30361623  0.52984898  1
  O  O48  1  0.27076137  0.69371153  0.97839129  1
  O  O49  1  0.77472847  0.68516929  0.96933842  1
  O  O50  1  0.07810637  0.43353107  0.97192892  1
  O  O51  1  0.57090412  0.45484793  0.96951320  1
  O  O52  1  0.15856119  0.86802689  0.97054542  1
  O  O53  1  0.64797359  0.83176855  0.97375895  1
  O  O54  1  0.27534706  0.84918979  0.47739906  1
  O  O55  1  0.77776656  0.84998900  0.47611057  1
  O  O56  1  0.15410772  0.45185065  0.47029942  1
  O  O57  1  0.64222075  0.44443827  0.47478889  1
  O  O58  1  0.07866700  0.70525312  0.47546036  1
  O  O59  1  0.57515954  0.70938129  0.47535295  1
  O  O60  1  0.07141057  0.64342196  0.35959423  1
  O  O61  1  0.57091999  0.63689743  0.36025279  1
  O  O62  1  0.24723394  0.84595631  0.36047868  1
  O  O63  1  0.75067206  0.85320113  0.35901170  1
  O  O64  1  0.17777802  0.48631848  0.36460510  1
  O  O65  1  0.67813120  0.49795120  0.36019801  1
  O  O66  1  0.06719322  0.49501949  0.85903098  1
  O  O67  1  0.56943740  0.49331124  0.86416743  1
  O  O68  1  0.17603666  0.87274521  0.86454777  1
  O  O69  1  0.68135922  0.85392828  0.86146934  1
  O  O70  1  0.24580959  0.63946270  0.86291792  1
  O  O71  1  0.75865875  0.64090207  0.86398083  1
  O  O72  1  0.01566145  0.84348736  0.41165950  1
  O  O73  1  0.51476394  0.83796961  0.40580978  1
  O  O74  1  0.40754237  0.99574463  0.41309784  1
  O  O75  1  0.91227830  0.99428054  0.41238928  1
  O  O76  1  0.09201356  0.20775434  0.41227966  1
  O  O77  1  0.58482939  0.18357060  0.41049739  1
  O  O78  1  0.00433173  0.17434634  0.90918616  1
  O  O79  1  0.51093341  0.20899088  0.91112356  1
  O  O80  1  0.09311086  0.98708122  0.91360524  1
  O  O81  1  0.58496221  0.97883208  0.91371013  1
  O  O82  1  0.40890131  0.83009009  0.91549703  1
  O  O83  1  0.89859202  0.81161999  0.91123294  1
  O  O84  1  0.49044332  0.17022763  0.59094866  1
  O  O85  1  0.98775014  0.16789923  0.59230146  1
  O  O86  1  0.09379705  0.02242207  0.59199113  1
  O  O87  1  0.59741336  0.02353359  0.59189142  1
  O  O88  1  0.41301069  0.80595223  0.58974256  1
  O  O89  1  0.91352788  0.81408329  0.59253411  1
  O  O90  1  0.48609661  0.80375573  0.09403724  1
  O  O91  1  0.98545710  0.82373428  0.09082822  1
  O  O92  1  0.41613486  0.02242744  0.09291008  1
  O  O93  1  0.91556612  0.03180087  0.08788578  1
  O  O94  1  0.09719290  0.16947453  0.09371173  1
  O  O95  1  0.59246213  0.15715652  0.09301797  1
  O  O96  1  0.33663243  0.15305477  0.74104276  1
  O  O97  1  0.83870526  0.13844786  0.73856378  1
  O  O98  1  0.23966612  0.32114309  0.74057134  1
  O  O99  1  0.74038806  0.31406040  0.74304783  1
  O  O100  1  0.42508208  0.51946385  0.74087226  1
  O  O101  1  0.92254845  0.51164228  0.74293022  1
  O  O102  1  0.34191251  0.54004202  0.23968049  1
  O  O103  1  0.83656981  0.53439066  0.24292480  1
  O  O104  1  0.42480156  0.33450362  0.24316334  1
  O  O105  1  0.91498721  0.31672875  0.24509573  1
  O  O106  1  0.23981985  0.16971976  0.24413649  1
  O  O107  1  0.72944906  0.14710103  0.24059844  1
  O  O108  1  0.31644611  0.48851709  0.92011156  1
  O  O109  1  0.81740141  0.50068449  0.92054165  1
  O  O110  1  0.43938836  0.37870768  0.91783282  1
  O  O111  1  0.92470193  0.36001560  0.92598971  1
  O  O112  1  0.24726224  0.13493075  0.91877215  1
  O  O113  1  0.75703700  0.14637385  0.92756590  1
  O  O114  1  0.30818804  0.13626914  0.41893849  1
  O  O115  1  0.81561965  0.13895439  0.41765553  1
  O  O116  1  0.24558655  0.36232650  0.41997777  1
  O  O117  1  0.75243856  0.35800884  0.41789406  1
  O  O118  1  0.42879459  0.48522369  0.41730430  1
  O  O119  1  0.93275883  0.48877909  0.41846156  1
  O  O120  1  0.17434576  0.47874176  0.08335495  1
  O  O121  1  0.67124068  0.49603085  0.07721907  1
  O  O122  1  0.08110805  0.67213648  0.07514173  1
  O  O123  1  0.56625724  0.65453887  0.08276365  1
  O  O124  1  0.26238401  0.86822065  0.07910121  1
  O  O125  1  0.76175190  0.87009531  0.07656099  1
  O  O126  1  0.16962301  0.86345641  0.58284486  1
  O  O127  1  0.67307905  0.86300075  0.58258571  1
  O  O128  1  0.25642631  0.64915498  0.58080453  1
  O  O129  1  0.75855074  0.65753662  0.58108584  1
  O  O130  1  0.06973108  0.47802486  0.58049156  1
  O  O131  1  0.56967758  0.48242234  0.58182860  1
  O  O132  1  0.15387425  0.82665715  0.25566951  1
  O  O133  1  0.65000016  0.83656449  0.25039653  1
  O  O134  1  0.26912721  0.70188635  0.25274825  1
  O  O135  1  0.76763496  0.70686624  0.25099740  1
  O  O136  1  0.09046344  0.47988642  0.25722752  1
  O  O137  1  0.59529558  0.49152035  0.25433448  1
  O  O138  1  0.14756534  0.47683191  0.75411194  1
  O  O139  1  0.65734958  0.48839025  0.76135890  1
  O  O140  1  0.09134364  0.70719565  0.75887802  1
  O  O141  1  0.59293912  0.70051842  0.75753538  1
  O  O142  1  0.25898563  0.81673152  0.75956218  1
  O  O143  1  0.76761752  0.83081752  0.75351102  1
loop_
_geom_bond_atom_site_label_1
_geom_bond_atom_site_label_2
_geom_bond_distance
_geom_bond_site_symmetry_2
Na0 O82 2.311730 1_555
Na0 O81 2.366191 1_555
Na0 O8 2.373764 1_555
Na0 O110 2.440764 1_555
Na0 O108 2.624413 1_555
Na0 O38 2.928275 1_556
Na0 O53 2.950302 1_555
Na0 O67 3.013243 1_555
Na1 O108 2.408484 1_555
Na1 O78 2.483741 1_555
Na1 O6 2.508701 1_555
Na1 O80 2.557770 1_545
Na1 O50 2.665344 1_555
Na1 O112 2.709373 1_555
Na1 O70 2.770841 1_555
Na1 O36 2.962656 1_556
Na2 O74 2.328699 1_545
Na2 O118 2.402375 1_555
Na2 O77 2.435333 1_555
Na2 O4 2.608557 1_555
Na2 O114 2.780068 1_555
Na2 O57 2.808862 1_555
Na2 O46 2.810451 1_555
Na2 O61 2.947562 1_555
Na3 O75 2.307456 1_545
Na3 O119 2.311904 1_555
Na3 O5 2.420239 1_555
Na3 O76 2.516797 1_655
Na3 O115 2.530918 1_555
Na4 O114 2.285749 1_555
Na4 O72 2.321994 1_545
Na4 O0 2.489007 1_555
Na4 O76 2.549145 1_555
Na4 O116 2.648472 1_555
Na4 O42 2.883770 1_555
Na4 O58 2.891087 1_545
Na4 O62 2.936342 1_545
Na5 O115 2.382423 1_555
Na5 O73 2.394703 1_545
Na5 O77 2.431547 1_555
Na5 O117 2.541711 1_555
Na5 O43 2.760260 1_555
Na5 O59 2.848200 1_545
Na5 O1 2.860229 1_555
Na6 O75 2.315800 1_555
Na6 O72 2.380963 1_655
Na6 O89 2.674254 1_555
Na6 O76 2.758115 1_665
Na6 O85 2.903528 1_565
Na6 O86 2.914181 1_665
Na7 O74 2.414274 1_555
Na7 O73 2.533185 1_555
Na7 O77 2.534694 1_565
Na7 O88 2.738463 1_555
Na7 O84 2.826175 1_565
Na7 O87 2.874011 1_565
Na8 O78 2.517332 1_665
Na8 O83 2.619468 1_555
Na8 O93 2.622532 1_566
Na8 O91 2.629194 1_556
Na8 O80 2.660195 1_655
Na8 O94 2.803817 1_666
Na9 O82 2.332050 1_555
Na9 O81 2.377924 1_555
Na9 O79 2.563563 1_565
Na9 O95 2.843544 1_566
Na9 O92 2.891439 1_566
Na9 O90 2.902244 1_556
Na10 O96 2.462835 1_555
Na10 O98 2.491575 1_555
Na10 O100 2.518823 1_555
Na10 O108 2.777806 1_555
Na10 O112 2.777993 1_555
Na10 O110 2.809789 1_555
Na11 O99 2.505000 1_555
Na11 O101 2.542088 1_555
Na11 O109 2.630178 1_555
Na11 O111 2.744132 1_555
Na11 O113 2.771958 1_555
Na11 O97 2.818499 1_555
Na12 O118 2.535481 1_555
Na12 O104 2.536121 1_555
Na12 O106 2.554701 1_555
Na12 O114 2.565400 1_555
Na12 O116 2.753739 1_555
Na12 O102 2.784846 1_555
Na13 O119 2.484864 1_555
Na13 O115 2.526431 1_555
Na13 O105 2.528048 1_555
Na13 O117 2.540071 1_555
Na13 O103 2.747339 1_555
Na13 O107 2.847345 1_555
Na14 O122 2.436632 1_555
Na14 O136 2.592613 1_555
Na14 O120 2.599425 1_555
Na14 O132 2.611726 1_555
Na14 O124 2.741189 1_555
Na14 O134 2.825520 1_555
Na15 O137 2.458559 1_555
Na15 O121 2.488975 1_555
Na15 O135 2.543068 1_555
Na15 O123 2.646967 1_555
Na15 O133 2.687601 1_555
Na15 O125 2.768541 1_555
Na16 O138 2.471992 1_555
Na16 O142 2.503511 1_555
Na16 O140 2.554973 1_555
Na16 O126 2.680250 1_555
Na16 O128 2.689642 1_555
Na16 O130 2.753593 1_555
Na17 O131 2.500456 1_555
Na17 O127 2.573473 1_555
Na17 O129 2.581380 1_555
Na17 O141 2.611736 1_555
Na17 O139 2.682028 1_555
Na17 O143 2.700838 1_555
In0 O5 2.061842 1_565
In0 O0 2.070555 1_665
In0 O75 2.097766 1_555
In0 O72 2.125942 1_655
In0 O3 2.141837 1_555
In0 O76 2.343325 1_665
In1 O4 2.051714 1_565
In1 O73 2.067951 1_555
In1 O74 2.082698 1_555
In1 O77 2.116667 1_565
In1 O2 2.175540 1_555
In1 O1 2.271458 1_565
In2 O9 2.010173 1_445
In2 O6 2.046474 1_555
In2 O78 2.074174 1_555
In2 O11 2.209630 1_455
In2 O80 2.260410 1_545
In2 O83 2.286176 1_445
In3 O10 2.037955 1_565
In3 O7 2.052941 1_565
In3 O8 2.078389 1_555
In3 O82 2.173729 1_555
In3 O81 2.184267 1_555
In3 O79 2.311749 1_565
In4 O96 2.031920 1_555
In4 O100 2.034208 1_555
In4 O98 2.045513 1_555
In4 O24 2.198792 1_555
In4 O28 2.216932 1_555
In4 O26 2.223308 1_555
In5 O99 2.027574 1_555
In5 O101 2.039113 1_555
In5 O29 2.141891 1_555
In5 O27 2.188015 1_555
In5 O25 2.219734 1_555
In5 O97 2.237236 1_555
In6 O106 2.027761 1_555
In6 O104 2.029129 1_555
In6 O32 2.156239 1_555
In6 O30 2.174426 1_555
In6 O34 2.175844 1_555
In6 O102 2.189601 1_555
In7 O31 2.021381 1_555
In7 O35 2.054788 1_555
In7 O105 2.080896 1_555
In7 O33 2.198522 1_555
In7 O103 2.241449 1_555
In7 O107 2.354671 1_555
In8 O108 2.081199 1_555
In8 O112 2.204212 1_555
In8 O36 2.227703 1_556
In8 O40 2.239879 1_556
In8 O38 2.240373 1_556
In8 O110 2.287869 1_555
In9 O118 2.076142 1_555
In9 O114 2.126021 1_555
In9 O44 2.214973 1_555
In9 O46 2.223950 1_555
In9 O116 2.244849 1_555
In9 O42 2.342033 1_555
In10 O117 2.055352 1_555
In10 O119 2.090081 1_555
In10 O115 2.138534 1_555
In10 O45 2.294293 1_555
In10 O43 2.306833 1_555
In10 O47 2.309487 1_555
In11 O48 2.021619 1_554
In11 O50 2.034538 1_554
In11 O122 2.057724 1_555
In11 O52 2.181483 1_554
In11 O120 2.343921 1_555
In11 O124 2.409457 1_555
In12 O53 1.998000 1_554
In12 O121 2.049604 1_555
In12 O51 2.165800 1_554
In12 O49 2.168804 1_554
In12 O125 2.201250 1_555
In12 O123 2.307853 1_555
In13 O54 1.993761 1_555
In13 O58 2.014197 1_555
In13 O56 2.162439 1_555
In13 O128 2.251283 1_555
In13 O126 2.281965 1_555
In13 O130 2.304229 1_555
In14 O55 2.016609 1_555
In14 O57 2.029259 1_555
In14 O59 2.040958 1_555
In14 O129 2.329770 1_555
In14 O127 2.348774 1_555
In14 O131 2.356831 1_555
O0 Si0 1.588770 1_555
O1 S0 1.460353 1_545
O2 S1 1.454289 1_555
O3 S2 1.453028 1_555
O4 Si2 1.585903 1_555
O5 Si1 1.602415 1_555
O6 Si3 1.593805 1_555
O7 Si4 1.571632 1_555
O8 Si6 1.584023 1_555
O9 Si5 1.590936 1_555
O10 Si7 1.579223 1_545
O11 S3 1.448195 1_545
O12 Si7 1.728111 1_555
O12 Ta1 1.849823 1_565
O13 S3 1.507588 1_555
O13 Ta0 2.104376 1_655
O14 Si3 1.714627 1_555
O14 Ta0 1.846084 1_545
O15 Si4 1.708143 1_555
O15 Ta1 1.873741 1_555
O16 Si5 1.744411 1_455
O16 Ta0 1.837786 1_555
O17 Si6 1.677614 1_555
O17 Ta1 1.886906 1_565
O18 S1 1.504809 1_555
O18 Ta3 2.187299 1_565
O19 S2 1.520615 1_555
O19 Ta2 2.072795 1_655
O20 Si1 1.702833 1_455
O20 Ta2 1.926711 1_545
O21 Si2 1.727186 1_555
O21 Ta3 1.847725 1_555
O22 Si0 1.695505 1_565
O22 Ta2 1.857950 1_555
O23 S0 1.550307 1_555
O23 Ta3 2.023541 1_565
O24 S4 1.458223 1_555
O25 S5 1.467517 1_555
O26 S6 1.444574 1_555
O27 S7 1.476809 1_555
O28 S8 1.460603 1_555
O29 S9 1.465754 1_555
O30 S10 1.460680 1_555
O31 Si8 1.585593 1_555
O32 S11 1.457970 1_555
O33 S12 1.448136 1_555
O34 S13 1.459834 1_555
O35 Si9 1.583331 1_555
O36 S13 1.491411 1_555
O37 Si9 1.657057 1_555
O37 Ta4 1.962669 1_554
O38 S10 1.497272 1_555
O39 Si8 1.687005 1_555
O39 Ta4 1.946114 1_554
O40 S11 1.494022 1_555
O41 S12 1.499517 1_555
O41 Ta4 2.154732 1_554
O42 S6 1.476415 1_555
O43 S7 1.485136 1_555
O44 S8 1.493253 1_555
O45 S9 1.467707 1_555
O46 S4 1.494140 1_555
O47 S5 1.478034 1_555
O48 Si10 1.603507 1_555
O49 S14 1.458482 1_555
O50 Si11 1.606743 1_555
O51 S15 1.458564 1_555
O52 S16 1.453418 1_555
O53 Si12 1.612953 1_555
O54 Si13 1.603613 1_555
O55 Si14 1.604419 1_555
O56 S17 1.477414 1_555
O57 Si15 1.606577 1_555
O58 Si16 1.611605 1_555
O59 Si17 1.608061 1_555
O60 Si16 1.715419 1_555
O60 Ta5 1.863624 1_555
O61 Si17 1.708495 1_555
O61 Ta6 1.869117 1_555
O62 Si13 1.690309 1_555
O62 Ta5 1.945493 1_555
O63 Si14 1.698871 1_555
O63 Ta6 1.927787 1_555
O64 S17 1.476455 1_555
O64 Ta5 2.249293 1_555
O65 Si15 1.700895 1_555
O65 Ta6 1.844570 1_555
O66 Si11 1.664955 1_555
O66 Ta7 1.978954 1_555
O67 S15 1.527982 1_555
O67 Ta8 2.082859 1_555
O68 S16 1.469935 1_555
O68 Ta7 2.290263 1_555
O69 Si12 1.717502 1_555
O69 Ta8 1.922135 1_555
O70 Si10 1.686864 1_555
O70 Ta7 1.954572 1_555
O71 S14 1.485474 1_555
O71 Ta8 2.232962 1_555
O72 Si16 1.607333 1_555
O73 Si17 1.593546 1_555
O74 Si13 1.600670 1_555
O75 Si14 1.616549 1_555
O76 S17 1.476050 1_555
O77 Si15 1.611475 1_555
O78 Si11 1.637754 1_555
O79 S15 1.438084 1_555
O80 S16 1.488950 1_555
O81 Si12 1.598614 1_555
O82 Si10 1.609020 1_555
O83 S14 1.464751 1_555
O84 S4 1.510980 1_555
O84 Ta1 2.182305 1_555
O85 S5 1.517734 1_555
O85 Ta0 2.179100 1_645
O86 S6 1.554223 1_555
O86 Ta0 2.044278 1_545
O87 S7 1.507600 1_555
O87 Ta1 2.224355 1_555
O88 S8 1.503713 1_555
O88 Ta1 2.278608 1_565
O89 S9 1.528825 1_555
O89 Ta0 2.143970 1_655
O90 S10 1.504488 1_555
O90 Ta3 2.172194 1_565
O91 Si8 1.707975 1_555
O91 Ta2 1.969793 1_655
O92 S11 1.539863 1_555
O92 Ta3 2.065646 1_555
O93 S12 1.501718 1_555
O93 Ta2 2.266256 1_645
O94 S13 1.524175 1_555
O94 Ta2 2.081701 1_545
O95 Si9 1.743886 1_555
O95 Ta3 1.869567 1_555
O96 Si7 1.590491 1_545
O97 S3 1.456094 1_545
O98 Si3 1.574940 1_555
O99 Si4 1.605184 1_555
O100 Si6 1.578009 1_555
O101 Si5 1.601546 1_555
O102 S1 1.474621 1_555
O103 S2 1.457692 1_555
O104 Si2 1.599220 1_555
O105 Si1 1.612896 1_555
O106 Si0 1.595514 1_555
O107 S0 1.449085 1_545
O108 Si10 1.699826 1_555
O109 S14 1.518094 1_555
O109 Ta4 2.111902 1_555
O110 S15 1.504912 1_555
O111 Si11 1.660852 1_655
O111 Ta4 1.959116 1_555
O112 S16 1.517463 1_545
O113 Si12 1.657164 1_545
O113 Ta4 1.975336 1_555
O114 Si13 1.666117 1_545
O115 Si14 1.641830 1_545
O116 S17 1.487948 1_555
O117 Si15 1.609641 1_555
O118 Si17 1.634198 1_555
O119 Si16 1.613743 1_655
O120 S13 1.454949 1_555
O121 Si9 1.622158 1_555
O122 Si8 1.620270 1_455
O123 S10 1.469027 1_555
O124 S11 1.446009 1_565
O125 S12 1.478719 1_565
O126 S6 1.471038 1_565
O127 S7 1.482301 1_565
O128 S8 1.492367 1_555
O129 S9 1.472410 1_555
O130 S5 1.486476 1_455
O131 S4 1.479029 1_555
O132 Si0 1.676055 1_565
O132 Ta5 1.902838 1_555
O133 S0 1.486838 1_555
O133 Ta6 2.347401 1_555
O134 S1 1.488311 1_555
O134 Ta5 2.277934 1_555
O135 S2 1.492098 1_555
O135 Ta6 2.285678 1_555
O136 Si1 1.691969 1_455
O136 Ta5 1.979761 1_555
O137 Si2 1.657176 1_555
O137 Ta6 2.009993 1_555
O138 Si3 1.653760 1_555
O138 Ta7 1.917550 1_555
O139 Si4 1.683530 1_555
O139 Ta8 1.943990 1_555
O140 Si5 1.632143 1_455
O140 Ta7 2.000228 1_555
O141 Si6 1.711520 1_555
O141 Ta8 1.867736 1_555
O142 Si7 1.656651 1_555
O142 Ta7 1.971300 1_555
O143 S3 1.512696 1_555
O143 Ta8 2.127807 1_555
