# generated using pymatgen
data_NaTiGaSi(SO6)2
_symmetry_space_group_name_H-M   'P 1'
_cell_length_a   8.60167258
_cell_length_b   8.64556984
_cell_length_c   22.38752849
_cell_angle_alpha   89.62879128
_cell_angle_beta   90.00000000
_cell_angle_gamma   119.83218170
_symmetry_Int_Tables_number   1
_chemical_formula_structural   NaTiGaSi(SO6)2
_chemical_formula_sum   'Na6 Ti6 Ga6 Si6 S12 O72'
_cell_volume   1444.21926339
_cell_formula_units_Z   6
loop_
 _symmetry_equiv_pos_site_id
 _symmetry_equiv_pos_as_xyz
  1  'x, y, z'
loop_
 _atom_site_type_symbol
 _atom_site_label
 _atom_site_symmetry_multiplicity
 _atom_site_fract_x
 _atom_site_fract_y
 _atom_site_fract_z
 _atom_site_occupancy
  Na  Na0  1  0.00756085  0.00373078  0.50231680  1
  Na  Na1  1  0.99616993  0.00373078  0.00231680  1
  Na  Na2  1  0.67536615  0.33444190  0.83515935  1
  Na  Na3  1  0.65907675  0.33444190  0.33515935  1
  Na  Na4  1  0.33642209  0.67490227  0.16843306  1
  Na  Na5  1  0.33847918  0.67490227  0.66843306  1
  Ti  Ti0  1  0.02382378  0.01542793  0.35503159  1
  Ti  Ti1  1  0.99160415  0.01542793  0.85503159  1
  Ti  Ti2  1  0.65690558  0.30734207  0.68767182  1
  Ti  Ti3  1  0.65043749  0.30734207  0.18767182  1
  Ti  Ti4  1  0.33135539  0.66372954  0.02103433  1
  Ti  Ti5  1  0.33237315  0.66372954  0.52103433  1
  Ga  Ga0  1  0.99773917  0.99359330  0.64893461  1
  Ga  Ga1  1  0.99585413  0.99359330  0.14893461  1
  Ga  Ga2  1  0.68502804  0.32629315  0.98119744  1
  Ga  Ga3  1  0.64126611  0.32629315  0.48119744  1
  Ga  Ga4  1  0.33973067  0.67113761  0.31438745  1
  Ga  Ga5  1  0.33140594  0.67113761  0.81438745  1
  Si  Si0  1  0.28290744  0.98746247  0.24787595  1
  Si  Si1  1  0.70455503  0.98746247  0.74787595  1
  Si  Si2  1  0.36526154  0.03787389  0.58270801  1
  Si  Si3  1  0.67261335  0.03787389  0.08270801  1
  Si  Si4  1  0.04645075  0.38779706  0.91497250  1
  Si  Si5  1  0.34134531  0.38779706  0.41497250  1
  S  S0  1  0.71144101  0.71040204  0.25041721  1
  S  S1  1  0.00240042  0.29119620  0.24959947  1
  S  S2  1  0.28879578  0.29119620  0.74959947  1
  S  S3  1  0.99896103  0.71040204  0.75041721  1
  S  S4  1  0.95191835  0.33175489  0.58194280  1
  S  S5  1  0.66928486  0.62179975  0.58316521  1
  S  S6  1  0.95251589  0.62179975  0.08316521  1
  S  S7  1  0.37983753  0.33175489  0.08194280  1
  S  S8  1  0.62187938  0.66196586  0.91714527  1
  S  S9  1  0.33389403  0.95823908  0.91651127  1
  S  S10  1  0.62434405  0.95823908  0.41651127  1
  S  S11  1  0.04008547  0.66196586  0.41714527  1
  O  O0  1  0.19534890  0.02986013  0.30774019  1
  O  O1  1  0.82106447  0.79509709  0.30395889  1
  O  O2  1  0.96667370  0.17696761  0.30390557  1
  O  O3  1  0.21029391  0.17696761  0.80390557  1
  O  O4  1  0.97403262  0.79509709  0.80395889  1
  O  O5  1  0.83451123  0.02986013  0.80774019  1
  O  O6  1  0.79984171  0.96493514  0.68984987  1
  O  O7  1  0.18182370  0.21154266  0.69570961  1
  O  O8  1  0.03333734  0.81935558  0.69544740  1
  O  O9  1  0.78601823  0.81935558  0.19544740  1
  O  O10  1  0.02971896  0.21154266  0.19570961  1
  O  O11  1  0.16509343  0.96493514  0.18984987  1
  O  O12  1  0.87266154  0.36397984  0.63658210  1
  O  O13  1  0.49937875  0.13417704  0.64174945  1
  O  O14  1  0.63968759  0.51199533  0.63702679  1
  O  O15  1  0.87230874  0.51199533  0.13702679  1
  O  O16  1  0.63479929  0.13417704  0.14174945  1
  O  O17  1  0.49131930  0.36397984  0.13658210  1
  O  O18  1  0.46272087  0.30868658  0.02770634  1
  O  O19  1  0.84457106  0.54671549  0.02849623  1
  O  O20  1  0.70334524  0.16116910  0.02549570  1
  O  O21  1  0.45782486  0.16116910  0.52549570  1
  O  O22  1  0.70214543  0.54671549  0.52849623  1
  O  O23  1  0.84596672  0.30868658  0.52770634  1
  O  O24  1  0.54381061  0.69943515  0.97092968  1
  O  O25  1  0.17277873  0.47732692  0.97458100  1
  O  O26  1  0.30729185  0.84532513  0.97047711  1
  O  O27  1  0.53803229  0.84532513  0.47047711  1
  O  O28  1  0.30454719  0.47732692  0.47458100  1
  O  O29  1  0.15562354  0.69943515  0.47092968  1
  O  O30  1  0.11883218  0.63598540  0.36266756  1
  O  O31  1  0.51384197  0.88463106  0.36260918  1
  O  O32  1  0.36365609  0.50345059  0.35621034  1
  O  O33  1  0.13979350  0.50345059  0.85621034  1
  O  O34  1  0.37078809  0.88463106  0.86260918  1
  O  O35  1  0.51715222  0.63598540  0.86266756  1
  O  O36  1  0.01822507  0.82326976  0.41096553  1
  O  O37  1  0.80028130  0.96725163  0.41049275  1
  O  O38  1  0.15579706  0.18633142  0.40913056  1
  O  O39  1  0.03053436  0.18633142  0.90913056  1
  O  O40  1  0.16697033  0.96725163  0.91049275  1
  O  O41  1  0.80504469  0.82326976  0.91096553  1
  O  O42  1  0.97352499  0.17423657  0.58852822  1
  O  O43  1  0.17084762  0.01896993  0.59363360  1
  O  O44  1  0.82522772  0.80284676  0.58803426  1
  O  O45  1  0.97761905  0.80284676  0.08803426  1
  O  O46  1  0.84812230  0.01896993  0.09363360  1
  O  O47  1  0.20071159  0.17423657  0.08852822  1
  O  O48  1  0.69525777  0.17542796  0.74269961  1
  O  O49  1  0.47189205  0.31140859  0.74404926  1
  O  O50  1  0.83529283  0.53312764  0.74355761  1
  O  O51  1  0.69783581  0.53312764  0.24355761  1
  O  O52  1  0.83951755  0.31140859  0.24404926  1
  O  O53  1  0.48017119  0.17542796  0.24269961  1
  O  O54  1  0.63753040  0.50124591  0.92588695  1
  O  O55  1  0.84725550  0.36133904  0.92056486  1
  O  O56  1  0.48875520  0.14009379  0.92358745  1
  O  O57  1  0.65133959  0.14009379  0.42358745  1
  O  O58  1  0.51408454  0.36133904  0.42056486  1
  O  O59  1  0.86371651  0.50124591  0.42588695  1
  O  O60  1  0.36327496  0.49625343  0.07740261  1
  O  O61  1  0.13425743  0.63778782  0.07684599  1
  O  O62  1  0.48924609  0.84278557  0.07454263  1
  O  O63  1  0.35353848  0.84278557  0.57454263  1
  O  O64  1  0.50352939  0.63778782  0.57684599  1
  O  O65  1  0.13297748  0.49625343  0.57740261  1
  O  O66  1  0.31211216  0.81945836  0.25917787  1
  O  O67  1  0.52993314  0.68949408  0.25530414  1
  O  O68  1  0.16057365  0.46894607  0.25594895  1
  O  O69  1  0.30837142  0.46894607  0.75594895  1
  O  O70  1  0.15955994  0.68949408  0.75530414  1
  O  O71  1  0.50734520  0.81945836  0.75917787  1
loop_
_geom_bond_atom_site_label_1
_geom_bond_atom_site_label_2
_geom_bond_distance
_geom_bond_site_symmetry_2
Na0 O43 2.447216 1_555
Na0 O44 2.530898 1_445
Na0 O38 2.534747 1_555
Na0 O42 2.539709 1_455
Na0 O36 2.609385 1_545
Na0 O37 2.636908 1_445
Na1 O46 2.447216 1_555
Na1 O45 2.530898 1_545
Na1 O39 2.534747 1_654
Na1 O47 2.539709 1_655
Na1 O41 2.609385 1_544
Na1 O40 2.636908 1_644
Na2 O55 2.357890 1_555
Na2 O48 2.544569 1_555
Na2 O56 2.567581 1_555
Na2 O50 2.579131 1_555
Na2 O54 2.610778 1_555
Na2 O49 2.630953 1_555
Na3 O58 2.357890 1_555
Na3 O53 2.544569 1_555
Na3 O57 2.567581 1_555
Na3 O51 2.579131 1_555
Na3 O59 2.610778 1_555
Na3 O52 2.630953 1_555
Na4 O66 2.454742 1_555
Na4 O62 2.513003 1_555
Na4 O67 2.522530 1_555
Na4 O68 2.563660 1_555
Na4 O61 2.604701 1_555
Na4 O60 2.643454 1_555
Na5 O71 2.454742 1_555
Na5 O63 2.513003 1_555
Na5 O70 2.522530 1_555
Na5 O69 2.563660 1_555
Na5 O64 2.604701 1_555
Na5 O65 2.643454 1_555
Ga0 O6 1.837259 1_555
Ga0 O43 1.862673 1_665
Ga0 O8 1.971260 1_655
Ga0 O7 2.052188 1_665
Ga0 O44 2.091611 1_555
Ga0 O42 2.146534 1_565
Ga1 O11 1.837259 1_655
Ga1 O46 1.862673 1_565
Ga1 O9 1.971260 1_555
Ga1 O10 2.052188 1_665
Ga1 O45 2.091611 1_555
Ga1 O47 2.146534 1_665
Ga2 O20 1.803278 1_556
Ga2 O55 1.858927 1_555
Ga2 O19 2.015039 1_556
Ga2 O56 2.104302 1_555
Ga2 O18 2.114762 1_556
Ga2 O54 2.139777 1_555
Ga3 O21 1.803278 1_555
Ga3 O58 1.858927 1_555
Ga3 O22 2.015039 1_555
Ga3 O57 2.104302 1_555
Ga3 O23 2.114762 1_555
Ga3 O59 2.139777 1_555
Ga4 O32 1.816606 1_555
Ga4 O66 1.873776 1_555
Ga4 O31 2.022579 1_555
Ga4 O67 2.047057 1_555
Ga4 O30 2.071770 1_555
Ga4 O68 2.119351 1_555
Ga5 O33 1.816606 1_555
Ga5 O71 1.873776 1_555
Ga5 O34 2.022579 1_555
Ga5 O70 2.047057 1_555
Ga5 O35 2.071770 1_555
Ga5 O69 2.119351 1_555
O0 Si0 1.666972 1_545
O0 Ti0 1.768739 1_555
O1 S0 1.478694 1_555
O1 Ti0 2.168075 1_665
O2 S1 1.493435 1_655
O2 Ti0 2.040731 1_655
O3 S2 1.493435 1_555
O3 Ti1 2.040731 1_455
O4 S3 1.478694 1_555
O4 Ti1 2.168075 1_565
O5 Si1 1.666972 1_545
O5 Ti1 1.768739 1_555
O6 Si1 1.599805 1_555
O7 S2 1.468595 1_555
O8 S3 1.482250 1_455
O9 S0 1.482250 1_555
O10 S1 1.468595 1_555
O11 Si0 1.599805 1_555
O12 S4 1.494018 1_555
O12 Ti2 2.020103 1_555
O13 Si2 1.682214 1_555
O13 Ti2 1.770870 1_555
O14 S5 1.471311 1_555
O14 Ti2 2.161660 1_555
O15 S6 1.471311 1_555
O15 Ti3 2.161660 1_555
O16 Si3 1.682214 1_555
O16 Ti3 1.770870 1_555
O17 S7 1.494018 1_555
O17 Ti3 2.020103 1_555
O18 S7 1.472069 1_555
O19 S6 1.480565 1_555
O20 Si3 1.596452 1_555
O21 Si2 1.596452 1_555
O22 S5 1.480565 1_555
O23 S4 1.472069 1_555
O24 S8 1.492388 1_555
O24 Ti4 2.031610 1_556
O25 Si4 1.654485 1_555
O25 Ti4 1.836818 1_556
O26 S9 1.492470 1_555
O26 Ti4 2.022156 1_556
O27 S10 1.492470 1_555
O27 Ti5 2.022156 1_555
O28 Si5 1.654485 1_555
O28 Ti5 1.836818 1_555
O29 S11 1.492388 1_555
O29 Ti5 2.031610 1_555
O30 S11 1.466853 1_555
O31 S10 1.474037 1_555
O32 Si5 1.599780 1_555
O33 Si4 1.599780 1_555
O34 S9 1.474037 1_555
O35 S8 1.466853 1_555
O36 S11 1.502566 1_555
O36 Ti0 2.055188 1_565
O37 S10 1.482232 1_555
O37 Ti0 2.146844 1_665
O38 Si5 1.683850 1_555
O38 Ti0 1.814689 1_555
O39 Si4 1.683854 1_555
O39 Ti1 1.814689 1_455
O40 S9 1.482224 1_555
O40 Ti1 2.146844 1_465
O41 S8 1.502571 1_555
O41 Ti1 2.055188 1_565
O42 S4 1.469724 1_555
O43 Si2 1.615746 1_555
O44 S5 1.474606 1_555
O45 S6 1.474609 1_555
O46 Si3 1.615737 1_555
O47 S7 1.469729 1_555
O48 Si1 1.669591 1_545
O48 Ti2 1.811986 1_555
O49 S2 1.500764 1_555
O49 Ti2 2.045273 1_555
O50 S3 1.486892 1_555
O50 Ti2 2.186754 1_555
O51 S0 1.486896 1_555
O51 Ti3 2.186754 1_555
O52 S1 1.500756 1_655
O52 Ti3 2.045273 1_555
O53 Si0 1.669595 1_545
O53 Ti3 1.811986 1_555
O54 S8 1.473013 1_555
O55 Si4 1.616622 1_655
O56 S9 1.480190 1_545
O57 S10 1.480184 1_545
O58 Si5 1.616639 1_555
O59 S11 1.473003 1_655
O60 S7 1.500981 1_555
O60 Ti4 2.033773 1_555
O61 S6 1.505897 1_455
O61 Ti4 2.025799 1_555
O62 Si3 1.650205 1_565
O62 Ti4 1.899530 1_555
O63 Si2 1.650198 1_565
O63 Ti5 1.899530 1_555
O64 S5 1.505914 1_555
O64 Ti5 2.025799 1_555
O65 S4 1.500972 1_455
O65 Ti5 2.033773 1_555
O66 Si0 1.610938 1_555
O67 S0 1.483635 1_555
O68 S1 1.468172 1_555
O69 S2 1.468175 1_555
O70 S3 1.483626 1_455
O71 Si1 1.610943 1_555
