# generated using pymatgen
data_Zn3(AsO3)2
_symmetry_space_group_name_H-M   'P 1'
_cell_length_a   6.13676814
_cell_length_b   7.83003351
_cell_length_c   14.38836457
_cell_angle_alpha   90.00000000
_cell_angle_beta   90.00000000
_cell_angle_gamma   90.00000000
_symmetry_Int_Tables_number   1
_chemical_formula_structural   Zn3(AsO3)2
_chemical_formula_sum   'Zn12 As8 O24'
_cell_volume   691.37674737
_cell_formula_units_Z   4
loop_
 _symmetry_equiv_pos_site_id
 _symmetry_equiv_pos_as_xyz
  1  'x, y, z'
loop_
 _atom_site_type_symbol
 _atom_site_label
 _atom_site_symmetry_multiplicity
 _atom_site_fract_x
 _atom_site_fract_y
 _atom_site_fract_z
 _atom_site_occupancy
  Zn  Zn0  1  0.00000000  0.31460626  0.50000000  1
  Zn  Zn1  1  0.50000000  0.68539374  0.00000000  1
  Zn  Zn2  1  0.00000000  0.68539374  0.50000000  1
  Zn  Zn3  1  0.50000000  0.31460626  0.00000000  1
  Zn  Zn4  1  0.43637771  0.78518198  0.22196345  1
  Zn  Zn5  1  0.93637771  0.21481802  0.27803655  1
  Zn  Zn6  1  0.56362229  0.78518198  0.77803655  1
  Zn  Zn7  1  0.06362229  0.21481802  0.72196345  1
  Zn  Zn8  1  0.93637771  0.78518198  0.27803655  1
  Zn  Zn9  1  0.43637771  0.21481802  0.22196345  1
  Zn  Zn10  1  0.06362229  0.78518198  0.72196345  1
  Zn  Zn11  1  0.56362229  0.21481802  0.77803655  1
  As  As0  1  0.08835754  0.50000000  0.12570988  1
  As  As1  1  0.58835754  0.50000000  0.37429012  1
  As  As2  1  0.91164246  0.50000000  0.87429012  1
  As  As3  1  0.41164246  0.50000000  0.62570988  1
  As  As4  1  0.77582239  -0.00000000  0.09738276  1
  As  As5  1  0.27582239  -0.00000000  0.40261724  1
  As  As6  1  0.22417761  -0.00000000  0.90261724  1
  As  As7  1  0.72417761  -0.00000000  0.59738276  1
  O  O0  1  0.41155543  0.17376981  0.89601833  1
  O  O1  1  0.91155543  0.82623019  0.60398167  1
  O  O2  1  0.58844457  0.17376981  0.10398167  1
  O  O3  1  0.08844457  0.82623019  0.39601833  1
  O  O4  1  0.58844457  0.82623019  0.10398167  1
  O  O5  1  0.08844457  0.17376981  0.39601833  1
  O  O6  1  0.41155543  0.82623019  0.89601833  1
  O  O7  1  0.91155543  0.17376981  0.60398167  1
  O  O8  1  0.34455375  0.32505567  0.69970277  1
  O  O9  1  0.84455375  0.67494433  0.80029723  1
  O  O10  1  0.65544625  0.32505567  0.30029723  1
  O  O11  1  0.15544625  0.67494433  0.19970277  1
  O  O12  1  0.65544625  0.67494433  0.30029723  1
  O  O13  1  0.15544625  0.32505567  0.19970277  1
  O  O14  1  0.34455375  0.67494433  0.69970277  1
  O  O15  1  0.84455375  0.32505567  0.80029723  1
  O  O16  1  0.83854978  -0.00000000  0.21821717  1
  O  O17  1  0.33854978  -0.00000000  0.28178283  1
  O  O18  1  0.16145022  -0.00000000  0.78178283  1
  O  O19  1  0.66145022  -0.00000000  0.71821717  1
  O  O20  1  0.66714008  0.50000000  0.93960398  1
  O  O21  1  0.16714008  0.50000000  0.56039602  1
  O  O22  1  0.33285992  0.50000000  0.06039602  1
  O  O23  1  0.83285992  0.50000000  0.43960398  1
loop_
_geom_bond_atom_site_label_1
_geom_bond_atom_site_label_2
_geom_bond_distance
_geom_bond_site_symmetry_2
As0 O22 1.770455 1_555
As0 O13 1.783076 1_555
As0 O11 1.783076 1_555
As1 O23 1.770455 1_555
As1 O10 1.783076 1_555
As1 O12 1.783076 1_555
As2 O20 1.770455 1_555
As2 O15 1.783076 1_555
As2 O9 1.783076 1_555
As3 O21 1.770455 1_555
As3 O8 1.783076 1_555
As3 O14 1.783076 1_555
As4 O16 1.780715 1_555
As4 O2 1.783975 1_555
As4 O4 1.783975 1_545
As5 O17 1.780715 1_555
As5 O3 1.783975 1_545
As5 O5 1.783975 1_555
As6 O18 1.780715 1_555
As6 O0 1.783975 1_555
As6 O6 1.783975 1_545
As7 O19 1.780715 1_555
As7 O1 1.783975 1_545
As7 O7 1.783975 1_555
O0 Zn3 1.936247 1_556
O0 Zn11 1.963642 1_555
O1 Zn2 1.936247 1_655
O1 Zn10 1.963642 1_655
O2 Zn3 1.936247 1_555
O2 Zn9 1.963642 1_555
O3 Zn2 1.936247 1_555
O3 Zn8 1.963642 1_455
O4 Zn1 1.936247 1_555
O4 Zn4 1.963642 1_555
O5 Zn0 1.936247 1_555
O5 Zn5 1.963642 1_455
O6 Zn1 1.936247 1_556
O6 Zn6 1.963642 1_555
O7 Zn0 1.936247 1_655
O7 Zn7 1.963642 1_655
O8 Zn7 1.954445 1_555
O8 Zn11 1.955181 1_555
O9 Zn6 1.954445 1_555
O9 Zn10 1.955181 1_655
O10 Zn5 1.954445 1_555
O10 Zn9 1.955181 1_555
O11 Zn4 1.954445 1_555
O11 Zn8 1.955181 1_455
O12 Zn8 1.954445 1_555
O12 Zn4 1.955181 1_555
O13 Zn9 1.954445 1_555
O13 Zn5 1.955181 1_455
O14 Zn10 1.954445 1_555
O14 Zn6 1.955181 1_555
O15 Zn11 1.954445 1_555
O15 Zn7 1.955181 1_655
O16 Zn5 1.982539 1_555
O16 Zn8 1.982539 1_545
O17 Zn9 1.982539 1_555
O17 Zn4 1.982539 1_545
O18 Zn7 1.982539 1_555
O18 Zn10 1.982539 1_545
O19 Zn11 1.982539 1_555
O19 Zn6 1.982539 1_545
O20 Zn3 1.978504 1_556
O20 Zn1 1.978504 1_556
O21 Zn0 1.978504 1_555
O21 Zn2 1.978504 1_555
O22 Zn3 1.978504 1_555
O22 Zn1 1.978504 1_555
O23 Zn0 1.978504 1_655
O23 Zn2 1.978504 1_655
