# generated using pymatgen
data_Na8Zn3Si3Sn(SO8)3
_symmetry_space_group_name_H-M   'P 1'
_cell_length_a   9.14675929
_cell_length_b   9.16013623
_cell_length_c   22.24342470
_cell_angle_alpha   89.53427853
_cell_angle_beta   89.66759900
_cell_angle_gamma   119.55773661
_symmetry_Int_Tables_number   1
_chemical_formula_structural   Na8Zn3Si3Sn(SO8)3
_chemical_formula_sum   'Na24 Zn9 Si9 Sn3 S9 O72'
_cell_volume   1620.98032390
_cell_formula_units_Z   3
loop_
 _symmetry_equiv_pos_site_id
 _symmetry_equiv_pos_as_xyz
  1  'x, y, z'
loop_
 _atom_site_type_symbol
 _atom_site_label
 _atom_site_symmetry_multiplicity
 _atom_site_fract_x
 _atom_site_fract_y
 _atom_site_fract_z
 _atom_site_occupancy
  Na  Na0  1  0.62980614  0.99669230  0.25671528  1
  Na  Na1  1  0.36953162  0.36939230  0.24539558  1
  Na  Na2  1  0.00162605  0.62534515  0.25114249  1
  Na  Na3  1  0.64499301  0.64437949  0.73502972  1
  Na  Na4  1  0.98197650  0.34863853  0.74985666  1
  Na  Na5  1  0.38570057  0.01373287  0.74147265  1
  Na  Na6  1  0.30850794  0.33345618  0.58319509  1
  Na  Na7  1  0.04039735  0.71396117  0.57524917  1
  Na  Na8  1  0.65406979  0.94655319  0.58440595  1
  Na  Na9  1  0.28539680  0.95768489  0.07658224  1
  Na  Na10  1  0.66391796  0.69035098  0.08499215  1
  Na  Na11  1  0.05169989  0.34692707  0.08229648  1
  Na  Na12  1  0.98457932  0.67796371  0.92046427  1
  Na  Na13  1  0.70745727  0.03898736  0.90756304  1
  Na  Na14  1  0.31182374  0.28459366  0.92258432  1
  Na  Na15  1  0.96825923  0.30160209  0.41277130  1
  Na  Na16  1  0.32519270  0.01219015  0.42184022  1
  Na  Na17  1  0.70966964  0.68638534  0.42507055  1
  Na  Na18  1  0.99175915  0.98190336  0.50131970  1
  Na  Na19  1  0.01819860  0.00937611  0.00064640  1
  Na  Na20  1  0.66764916  0.31645042  0.82968168  1
  Na  Na21  1  0.67646740  0.33345984  0.33552788  1
  Na  Na22  1  0.32223785  0.65457302  0.16077445  1
  Na  Na23  1  0.35117145  0.68190555  0.65739953  1
  Zn  Zn0  1  0.98945546  0.98497295  0.35403147  1
  Zn  Zn1  1  0.00291503  0.01678928  0.85133929  1
  Zn  Zn2  1  0.97816563  0.97619873  0.64465912  1
  Zn  Zn3  1  0.01433182  0.99930492  0.14472349  1
  Zn  Zn4  1  0.65390390  0.31841205  0.67505380  1
  Zn  Zn5  1  0.66641472  0.34834429  0.17101926  1
  Zn  Zn6  1  0.30285301  0.65248856  0.01769975  1
  Zn  Zn7  1  0.34977105  0.69928581  0.51608870  1
  Zn  Zn8  1  0.33161028  0.68733251  0.33673615  1
  Si  Si0  1  0.70659536  0.00053973  0.75125540  1
  Si  Si1  1  0.36197327  0.03443131  0.58687049  1
  Si  Si2  1  0.66112789  0.62421214  0.58524205  1
  Si  Si3  1  0.96217655  0.63048386  0.08635161  1
  Si  Si4  1  0.36819370  0.33772313  0.08520943  1
  Si  Si5  1  0.03687311  0.36875395  0.91849158  1
  Si  Si6  1  0.33332504  0.96688485  0.91958330  1
  Si  Si7  1  0.63759652  0.96940825  0.41591853  1
  Si  Si8  1  0.03459640  0.66178547  0.41684362  1
  Sn  Sn0  1  0.66636128  0.33303460  0.98396294  1
  Sn  Sn1  1  0.66353207  0.33161003  0.48407950  1
  Sn  Sn2  1  0.33469487  0.67921312  0.81924546  1
  S  S0  1  0.29742660  0.00115856  0.24978723  1
  S  S1  1  0.70263800  0.70414514  0.24979813  1
  S  S2  1  -0.00032141  0.29057486  0.24911502  1
  S  S3  1  0.29802730  0.30179839  0.75229010  1
  S  S4  1  0.00250737  0.70473679  0.75233611  1
  S  S5  1  0.96450214  0.33393256  0.58471621  1
  S  S6  1  0.66851186  0.03813937  0.08602312  1
  S  S7  1  0.62646648  0.66412997  0.91778144  1
  S  S8  1  0.33369420  0.37248483  0.41479115  1
  O  O0  1  0.21625280  0.02532968  0.30403171  1
  O  O1  1  0.80478727  0.78562076  0.30379153  1
  O  O2  1  0.98438438  0.19044484  0.30423882  1
  O  O3  1  0.21944573  0.19896590  0.80712643  1
  O  O4  1  0.98479562  0.78372793  0.80737867  1
  O  O5  1  0.81231334  0.02193891  0.81239245  1
  O  O6  1  0.78661451  0.96130509  0.69199155  1
  O  O7  1  0.19724096  0.22783768  0.69798044  1
  O  O8  1  0.03232617  0.80920611  0.69774975  1
  O  O9  1  0.78338929  0.80783724  0.19469747  1
  O  O10  1  0.01572920  0.20646979  0.19418480  1
  O  O11  1  0.19616876  0.98158906  0.19506511  1
  O  O12  1  0.88575434  0.36110390  0.63870903  1
  O  O13  1  0.48201711  0.10998313  0.64494164  1
  O  O14  1  0.64273210  0.51456250  0.64613294  1
  O  O15  1  0.88493942  0.50814790  0.14532164  1
  O  O16  1  0.63949191  0.11756045  0.13902138  1
  O  O17  1  0.47510910  0.36129282  0.14636750  1
  O  O18  1  0.45471224  0.29470422  0.02540516  1
  O  O19  1  0.84109064  0.54275004  0.02509842  1
  O  O20  1  0.69952712  0.14540339  0.02947783  1
  O  O21  1  0.45027462  0.15571483  0.52510199  1
  O  O22  1  0.69904511  0.53909244  0.52467684  1
  O  O23  1  0.85627115  0.30449911  0.52954734  1
  O  O24  1  0.54666906  0.68879313  0.97111743  1
  O  O25  1  0.15624062  0.44840112  0.97527333  1
  O  O26  1  0.30928974  0.85187759  0.97791107  1
  O  O27  1  0.55893771  0.84560177  0.47347269  1
  O  O28  1  0.30843579  0.44800588  0.46929669  1
  O  O29  1  0.15054916  0.68738866  0.47488303  1
  O  O30  1  0.10097012  0.61343621  0.35468396  1
  O  O31  1  0.52493463  0.89852425  0.35441521  1
  O  O32  1  0.36101169  0.47706703  0.35949989  1
  O  O33  1  0.12028196  0.49153540  0.85635093  1
  O  O34  1  0.38065183  0.89329076  0.85787783  1
  O  O35  1  0.52055265  0.63469342  0.86204925  1
  O  O36  1  0.01940042  0.83370982  0.41178309  1
  O  O37  1  0.83180025  0.00621434  0.41035764  1
  O  O38  1  0.18743479  0.20110919  0.40899148  1
  O  O39  1  0.00675730  0.17883157  0.91383495  1
  O  O40  1  0.16344768  0.98203632  0.91083817  1
  O  O41  1  0.79675069  0.80846877  0.91033305  1
  O  O42  1  0.97936605  0.18039038  0.58837368  1
  O  O43  1  0.17990759  0.03071415  0.59014657  1
  O  O44  1  0.82989591  0.81140803  0.58254999  1
  O  O45  1  0.96579707  0.81236621  0.08689250  1
  O  O46  1  0.82313561  0.02501091  0.08975712  1
  O  O47  1  0.17947203  0.17035701  0.08571324  1
  O  O48  1  0.68298610  0.16851621  0.74731169  1
  O  O49  1  0.47114480  0.32745330  0.74940381  1
  O  O50  1  0.85468613  0.53434197  0.74830676  1
  O  O51  1  0.68895076  0.53378167  0.24776635  1
  O  O52  1  0.84332251  0.30594062  0.24799407  1
  O  O53  1  0.46994453  0.15219118  0.24556717  1
  O  O54  1  0.63798790  0.50533126  0.91937806  1
  O  O55  1  0.84891076  0.36178660  0.92074870  1
  O  O56  1  0.50769853  0.15826906  0.92092075  1
  O  O57  1  0.64413147  0.15631462  0.42217237  1
  O  O58  1  0.49182218  0.35723636  0.41764840  1
  O  O59  1  0.83984370  0.49241080  0.42120691  1
  O  O60  1  0.36532589  0.51450665  0.07848558  1
  O  O61  1  0.15230982  0.65812155  0.08296312  1
  O  O62  1  0.51950222  0.87102108  0.07919099  1
  O  O63  1  0.33812864  0.84619056  0.58156342  1
  O  O64  1  0.48562496  0.63084523  0.57969362  1
  O  O65  1  0.13156859  0.48352627  0.57705200  1
  O  O66  1  0.31225425  0.84542265  0.25291805  1
  O  O67  1  0.53025021  0.68383380  0.25406110  1
  O  O68  1  0.15316351  0.46052857  0.25023836  1
  O  O69  1  0.31000722  0.47473297  0.75716450  1
  O  O70  1  0.16138428  0.68584641  0.75397412  1
  O  O71  1  0.51093920  0.81871624  0.75441661  1
loop_
_geom_bond_atom_site_label_1
_geom_bond_atom_site_label_2
_geom_bond_distance
_geom_bond_site_symmetry_2
Na0 O31 2.354675 1_555
Na0 O53 2.506348 1_565
Na0 O66 2.529358 1_555
Na0 O52 2.530763 1_565
Na0 O67 2.544473 1_555
Na0 O16 2.817901 1_565
Na1 O17 2.416344 1_555
Na1 O68 2.500850 1_555
Na1 O67 2.515812 1_555
Na1 O51 2.543396 1_555
Na1 O53 2.569985 1_555
Na1 O32 2.744982 1_555
Na2 O30 2.501986 1_555
Na2 O68 2.503135 1_555
Na2 O52 2.546877 1_455
Na2 O66 2.547508 1_555
Na2 O51 2.554491 1_455
Na2 O15 2.602283 1_455
Na3 O14 2.310608 1_555
Na3 O71 2.485277 1_555
Na3 O49 2.546221 1_555
Na3 O50 2.586712 1_555
Na3 O6 2.693060 1_555
Na3 O69 2.705177 1_555
Na4 O48 2.399195 1_555
Na4 O50 2.490768 1_555
Na4 O69 2.636777 1_655
Na4 O12 2.649480 1_555
Na4 O70 2.692176 1_655
Na4 O33 2.715949 1_655
Na4 O7 2.928614 1_655
Na4 O5 2.936717 1_555
Na5 O13 2.311883 1_555
Na5 O48 2.371612 1_555
Na5 O71 2.569177 1_545
Na5 O49 2.587318 1_555
Na5 O70 2.684757 1_545
Na5 O34 2.797401 1_545
Na6 O64 2.385892 1_555
Na6 O43 2.422926 1_555
Na6 O65 2.592709 1_555
Na6 O42 2.621360 1_455
Na6 O7 2.729281 1_555
Na6 O28 2.734424 1_555
Na6 O21 2.845998 1_555
Na7 O63 2.378219 1_555
Na7 O44 2.494937 1_455
Na7 O29 2.506602 1_555
Na7 O43 2.554309 1_565
Na7 O65 2.624548 1_555
Na7 O8 2.879445 1_555
Na7 O22 2.952208 1_455
Na8 O44 2.466770 1_555
Na8 O64 2.521687 1_555
Na8 O63 2.565594 1_555
Na8 O27 2.639915 1_555
Na8 O6 2.663109 1_555
Na8 O42 2.677157 1_565
Na9 O61 2.393287 1_555
Na9 O26 2.458089 1_554
Na9 O45 2.553096 1_455
Na9 O47 2.577089 1_565
Na9 O62 2.626129 1_555
Na9 O11 2.796508 1_555
Na9 O18 2.903479 1_565
Na10 O60 2.396407 1_555
Na10 O45 2.415083 1_555
Na10 O62 2.579872 1_555
Na10 O46 2.670595 1_565
Na10 O9 2.687077 1_555
Na10 O24 2.753772 1_554
Na10 O19 2.897418 1_555
Na10 O17 2.949872 1_555
Na11 O47 2.419010 1_555
Na11 O60 2.498662 1_555
Na11 O61 2.526984 1_555
Na11 O25 2.550710 1_554
Na11 O46 2.645646 1_455
Na11 O10 2.734673 1_555
Na12 O40 2.443564 1_655
Na12 O55 2.526227 1_555
Na12 O41 2.541234 1_555
Na12 O19 2.643370 1_556
Na12 O4 2.687812 1_555
Na12 O54 2.758052 1_555
Na12 O26 2.898430 1_655
Na12 O33 2.932751 1_655
Na13 O5 2.356944 1_555
Na13 O39 2.387979 1_655
Na13 O56 2.566949 1_555
Na13 O55 2.597545 1_555
Na13 O41 2.613356 1_545
Na13 O34 2.839771 1_545
Na13 O20 2.901687 1_556
Na14 O40 2.428196 1_545
Na14 O39 2.470808 1_555
Na14 O56 2.568188 1_555
Na14 O18 2.620346 1_556
Na14 O54 2.652847 1_555
Na14 O3 2.707171 1_555
Na14 O25 2.786783 1_555
Na15 O37 2.356529 1_555
Na15 O59 2.549123 1_555
Na15 O38 2.587170 1_655
Na15 O57 2.588436 1_555
Na15 O2 2.659052 1_555
Na15 O23 2.791777 1_555
Na15 O30 2.793400 1_655
Na16 O36 2.459238 1_545
Na16 O57 2.540476 1_555
Na16 O38 2.609893 1_555
Na16 O21 2.628444 1_555
Na16 O58 2.749971 1_555
Na16 O0 2.831558 1_555
Na16 O29 2.833344 1_545
Na16 O31 2.922607 1_545
Na17 O36 2.479199 1_655
Na17 O22 2.560900 1_555
Na17 O59 2.582787 1_555
Na17 O37 2.586369 1_565
Na17 O58 2.678218 1_555
Na17 O27 2.679395 1_555
Na17 O1 2.830768 1_555
Na18 O44 2.353203 1_555
Na18 O36 2.499969 1_655
Na18 O43 2.521920 1_665
Na18 O37 2.575369 1_565
Na18 O42 2.706691 1_565
Na18 O38 2.792411 1_665
Na19 O47 2.421253 1_555
Na19 O40 2.474664 1_544
Na19 O45 2.499282 1_445
Na19 O39 2.502592 1_554
Na19 O46 2.710788 1_455
Na19 O41 2.820428 1_444
Na20 O48 2.331914 1_555
Na20 O56 2.486960 1_555
Na20 O55 2.529397 1_555
Na20 O49 2.577272 1_555
Na20 O50 2.592928 1_555
Na20 O54 2.749673 1_555
Na21 O57 2.429807 1_555
Na21 O59 2.432416 1_555
Na21 O52 2.556728 1_555
Na21 O58 2.563208 1_555
Na21 O51 2.631235 1_555
Na21 O53 2.707931 1_555
Na22 O61 2.343642 1_555
Na22 O60 2.383378 1_555
Na22 O68 2.589565 1_555
Na22 O62 2.617980 1_555
Na22 O66 2.734770 1_555
Na22 O67 2.747595 1_555
Na23 O63 2.294024 1_555
Na23 O64 2.296673 1_555
Na23 O71 2.576185 1_555
Na23 O65 2.650322 1_555
Na23 O70 2.765709 1_555
Na23 O69 2.807935 1_555
O0 S0 1.487372 1_555
O0 Zn0 2.210635 1_445
O1 S1 1.487279 1_555
O1 Zn0 2.109141 1_555
O2 S2 1.489092 1_655
O2 Zn0 2.196399 1_545
O3 S3 1.481510 1_555
O3 Zn1 2.089129 1_555
O4 S4 1.475312 1_655
O4 Zn1 2.286493 1_665
O5 Si0 1.629532 1_555
O5 Zn1 1.972338 1_655
O6 Si0 1.630530 1_565
O6 Zn2 1.984254 1_555
O7 S3 1.475878 1_555
O7 Zn2 2.500055 1_445
O8 S4 1.477891 1_555
O8 Zn2 2.169089 1_455
O9 S1 1.492752 1_555
O9 Zn3 2.249378 1_655
O10 S2 1.494251 1_555
O10 Zn3 2.195873 1_545
O11 S0 1.491430 1_565
O11 Zn3 2.081216 1_555
O12 S5 1.481493 1_555
O12 Zn4 2.111999 1_555
O13 Si1 1.623069 1_555
O13 Zn4 1.907135 1_555
O14 Si2 1.637102 1_555
O14 Zn4 1.953396 1_555
O15 Si3 1.630859 1_555
O15 Zn5 1.884449 1_555
O16 S6 1.479958 1_555
O16 Zn5 2.132872 1_555
O17 Si4 1.632622 1_555
O17 Zn5 1.895120 1_555
O18 Si4 1.689699 1_555
O18 Sn0 2.006033 1_554
O19 Si3 1.698829 1_555
O19 Sn0 2.024425 1_554
O20 S6 1.525981 1_555
O20 Sn0 2.135580 1_554
O21 Si1 1.688593 1_555
O21 Sn1 2.021941 1_555
O22 Si2 1.679752 1_555
O22 Sn1 1.988803 1_555
O23 S5 1.521428 1_555
O23 Sn1 2.154302 1_555
O24 S7 1.465693 1_555
O24 Zn6 2.322402 1_556
O25 Si5 1.601459 1_555
O25 Zn6 1.937473 1_556
O26 Si6 1.608539 1_555
O26 Zn6 1.997406 1_556
O27 Si7 1.613507 1_555
O27 Zn7 1.945167 1_555
O28 S8 1.473057 1_555
O28 Zn7 2.389404 1_555
O29 Si8 1.619238 1_555
O29 Zn7 1.999392 1_555
O30 Si8 1.655874 1_555
O30 Zn8 1.909188 1_555
O31 Si7 1.650974 1_555
O31 Zn8 1.915566 1_555
O32 S8 1.494612 1_555
O32 Zn8 2.129594 1_555
O33 Si5 1.695128 1_555
O33 Sn2 2.028470 1_555
O34 Si6 1.679814 1_555
O34 Sn2 1.994715 1_555
O35 S7 1.519757 1_555
O35 Sn2 2.158528 1_555
O36 Si8 1.650880 1_555
O36 Zn0 1.998659 1_455
O37 Si7 1.640196 1_545
O37 Zn0 1.986673 1_545
O38 S8 1.484595 1_555
O38 Zn0 2.285028 1_445
O39 Si5 1.625937 1_555
O39 Zn1 2.029665 1_555
O40 Si6 1.639303 1_555
O40 Zn1 2.117976 1_565
O41 S7 1.470791 1_555
O41 Zn1 2.302103 1_665
O42 S5 1.479925 1_555
O42 Zn2 2.237760 1_545
O43 Si1 1.649951 1_555
O43 Zn2 2.044451 1_445
O44 Si2 1.646992 1_555
O44 Zn2 2.015526 1_555
O45 Si3 1.650126 1_555
O45 Zn3 2.019032 1_655
O46 S6 1.480077 1_555
O46 Zn3 2.243902 1_645
O47 Si4 1.648874 1_555
O47 Zn3 2.016949 1_545
O48 Si0 1.657630 1_555
O48 Zn4 2.206536 1_555
O49 S3 1.482616 1_555
O49 Zn4 2.375516 1_555
O50 S4 1.481201 1_655
O50 Zn4 2.538354 1_555
O51 S1 1.503828 1_555
O51 Zn5 2.355391 1_555
O52 S2 1.504900 1_655
O52 Zn5 2.518379 1_555
O53 S0 1.501721 1_555
O53 Zn5 2.436972 1_555
O54 S7 1.509544 1_555
O54 Sn0 2.234642 1_555
O55 Si5 1.689110 1_655
O55 Sn0 2.089826 1_555
O56 Si6 1.691414 1_545
O56 Sn0 2.098397 1_555
O57 Si7 1.690317 1_545
O57 Sn1 2.064877 1_555
O58 S8 1.521756 1_555
O58 Sn1 2.256180 1_555
O59 Si8 1.690739 1_655
O59 Sn1 2.079161 1_555
O60 Si4 1.638110 1_555
O60 Zn6 2.108538 1_555
O61 Si3 1.630350 1_455
O61 Zn6 2.013515 1_555
O62 S6 1.473725 1_565
O62 Zn6 2.442775 1_555
O63 Si1 1.633194 1_565
O63 Zn7 2.028460 1_555
O64 Si2 1.641421 1_555
O64 Zn7 2.171026 1_555
O65 S5 1.472815 1_455
O65 Zn7 2.400343 1_555
O66 S0 1.499234 1_565
O66 Zn8 2.411908 1_555
O67 S1 1.496133 1_555
O68 S2 1.496631 1_555
O69 S3 1.537798 1_555
O69 Sn2 2.257123 1_555
O70 S4 1.546509 1_555
O70 Sn2 2.178265 1_555
O71 Si0 1.742865 1_565
O71 Sn2 2.054696 1_555
