# generated using pymatgen
data_Ho6MnBi2
_symmetry_space_group_name_H-M   'P 1'
_cell_length_a   8.19278133
_cell_length_b   8.19277988
_cell_length_c   4.38337085
_cell_angle_alpha   90.00000000
_cell_angle_beta   90.00000000
_cell_angle_gamma   120.00003242
_symmetry_Int_Tables_number   1
_chemical_formula_structural   Ho6MnBi2
_chemical_formula_sum   'Ho6 Mn1 Bi2'
_cell_volume   254.80113329
_cell_formula_units_Z   1
loop_
 _symmetry_equiv_pos_site_id
 _symmetry_equiv_pos_as_xyz
  1  'x, y, z'
loop_
 _atom_site_type_symbol
 _atom_site_label
 _atom_site_symmetry_multiplicity
 _atom_site_fract_x
 _atom_site_fract_y
 _atom_site_fract_z
 _atom_site_occupancy
  Ho  Ho0  1  0.23587997  -0.00000000  0.00000000  1
  Ho  Ho1  1  0.00000000  0.60225555  0.50000000  1
  Ho  Ho2  1  0.39774445  0.39774445  0.50000000  1
  Ho  Ho3  1  0.76412003  0.76412003  -0.00000000  1
  Ho  Ho4  1  -0.00000000  0.23587997  0.00000000  1
  Ho  Ho5  1  0.60225555  0.00000000  0.50000000  1
  Mn  Mn0  1  0.00000000  -0.00000000  0.50000000  1
  Bi  Bi0  1  0.33333300  0.66666700  -0.00000000  1
  Bi  Bi1  1  0.66666700  0.33333300  -0.00000000  1
loop_
_geom_bond_atom_site_label_1
_geom_bond_atom_site_label_2
_geom_bond_distance
_geom_bond_site_symmetry_2
Ho0 Mn0 2.922001 1_555
Ho0 Mn0 2.922001 1_554
Ho1 Mn0 3.258633 1_565
Ho2 Mn0 3.258631 1_555
Ho3 Mn0 2.922001 1_664
Ho3 Mn0 2.922001 1_665
Ho4 Mn0 2.922001 1_554
Ho4 Mn0 2.922001 1_555
Ho5 Mn0 3.258633 1_655
Bi0 Ho0 3.205590 1_565
Bi0 Ho4 3.205594 1_555
Bi0 Ho3 3.205598 1_555
Bi0 Ho1 3.331482 1_555
Bi0 Ho1 3.331482 1_554
Bi0 Ho5 3.331484 1_565
Bi0 Ho5 3.331484 1_564
Bi0 Ho2 3.331489 1_554
Bi0 Ho2 3.331489 1_555
Bi1 Ho4 3.205591 1_655
Bi1 Ho0 3.205594 1_555
Bi1 Ho3 3.205597 1_555
Bi1 Ho5 3.331482 1_555
Bi1 Ho5 3.331482 1_554
Bi1 Ho1 3.331484 1_654
Bi1 Ho1 3.331484 1_655
Bi1 Ho2 3.331489 1_554
Bi1 Ho2 3.331489 1_555
