# generated using pymatgen
data_FePd
_symmetry_space_group_name_H-M   'P 1'
_cell_length_a   3.73837417
_cell_length_b   3.83362622
_cell_length_c   3.83362622
_cell_angle_alpha   90.00000000
_cell_angle_beta   90.00000000
_cell_angle_gamma   90.00000000
_symmetry_Int_Tables_number   1
_chemical_formula_structural   FePd
_chemical_formula_sum   'Fe2 Pd2'
_cell_volume   54.94172626
_cell_formula_units_Z   2
loop_
 _symmetry_equiv_pos_site_id
 _symmetry_equiv_pos_as_xyz
  1  'x, y, z'
loop_
 _atom_site_type_symbol
 _atom_site_label
 _atom_site_symmetry_multiplicity
 _atom_site_fract_x
 _atom_site_fract_y
 _atom_site_fract_z
 _atom_site_occupancy
  Fe  Fe0  1  -0.00000000  0.00000000  -0.00000000  1
  Fe  Fe1  1  0.00000000  0.50000000  0.50000000  1
  Pd  Pd0  1  0.50000000  -0.00000000  0.50000000  1
  Pd  Pd1  1  0.50000000  0.50000000  -0.00000000  1
loop_
_geom_bond_atom_site_label_1
_geom_bond_atom_site_label_2
_geom_bond_distance
_geom_bond_site_symmetry_2
Fe0 Pd0 2.677318 1_454
Fe0 Pd0 2.677318 1_554
Fe0 Pd1 2.677318 1_455
Fe0 Pd0 2.677318 1_555
Fe0 Pd1 2.677318 1_555
Fe0 Pd1 2.677318 1_545
Fe0 Pd0 2.677318 1_455
Fe0 Pd1 2.677318 1_445
Fe0 Fe1 2.710783 1_544
Fe0 Fe1 2.710783 1_545
Fe0 Fe1 2.710783 1_554
Fe0 Fe1 2.710783 1_555
Fe1 Pd0 2.677318 1_565
Fe1 Pd1 2.677318 1_456
Fe1 Pd1 2.677318 1_455
Fe1 Pd0 2.677318 1_555
Fe1 Pd1 2.677318 1_555
Fe1 Pd1 2.677318 1_556
Fe1 Pd0 2.677318 1_465
Fe1 Pd0 2.677318 1_455
Pd0 Pd1 2.710783 1_556
Pd0 Pd1 2.710783 1_555
Pd0 Pd1 2.710783 1_546
Pd0 Pd1 2.710783 1_545
