# generated using pymatgen
data_LaTiGe3
_symmetry_space_group_name_H-M   'P 1'
_cell_length_a   6.29781764
_cell_length_b   6.29781613
_cell_length_c   5.93978851
_cell_angle_alpha   90.00000000
_cell_angle_beta   90.00000000
_cell_angle_gamma   120.00000255
_symmetry_Int_Tables_number   1
_chemical_formula_structural   LaTiGe3
_chemical_formula_sum   'La2 Ti2 Ge6'
_cell_volume   204.02418920
_cell_formula_units_Z   2
loop_
 _symmetry_equiv_pos_site_id
 _symmetry_equiv_pos_as_xyz
  1  'x, y, z'
loop_
 _atom_site_type_symbol
 _atom_site_label
 _atom_site_symmetry_multiplicity
 _atom_site_fract_x
 _atom_site_fract_y
 _atom_site_fract_z
 _atom_site_occupancy
  La  La0  1  0.66666700  0.33333300  0.25000000  1
  La  La1  1  0.33333300  0.66666700  0.75000000  1
  Ti  Ti0  1  0.00000000  -0.00000000  0.50000000  1
  Ti  Ti1  1  0.00000000  -0.00000000  0.00000000  1
  Ge  Ge0  1  0.19767327  0.80232673  0.25000000  1
  Ge  Ge1  1  0.80232673  0.60465146  0.75000000  1
  Ge  Ge2  1  0.19767327  0.39534854  0.25000000  1
  Ge  Ge3  1  0.80232673  0.19767327  0.75000000  1
  Ge  Ge4  1  0.39534854  0.19767327  0.75000000  1
  Ge  Ge5  1  0.60465146  0.80232673  0.25000000  1
loop_
_geom_bond_atom_site_label_1
_geom_bond_atom_site_label_2
_geom_bond_distance
_geom_bond_site_symmetry_2
Ge0 Ge2 2.563074 1_555
Ge0 Ge5 2.563074 1_555
Ge0 Ti0 2.618105 1_565
Ge0 Ti1 2.618105 1_565
Ge0 La0 3.167020 1_565
Ge0 La0 3.167020 1_455
Ge0 La1 3.318142 1_555
Ge0 La1 3.318142 1_554
Ge1 Ge3 2.563074 1_555
Ge1 Ge4 2.563074 1_555
Ge1 Ti0 2.618113 1_665
Ge1 Ti1 2.618113 1_666
Ge1 La1 3.167013 1_655
Ge1 La1 3.167032 1_555
Ge1 La0 3.318139 1_555
Ge1 La0 3.318139 1_556
Ge2 Ge5 2.563074 1_555
Ge2 Ti1 2.618113 1_555
Ge2 Ti0 2.618113 1_555
Ge2 La0 3.167013 1_455
Ge2 La0 3.167032 1_555
Ge2 La1 3.318139 1_555
Ge2 La1 3.318139 1_554
Ge3 Ge4 2.563074 1_555
Ge3 Ti1 2.618105 1_656
Ge3 Ti0 2.618105 1_655
Ge3 La1 3.167020 1_545
Ge3 La1 3.167020 1_655
Ge3 La0 3.318142 1_555
Ge3 La0 3.318142 1_556
Ge4 Ti0 2.618114 1_555
Ge4 Ti1 2.618114 1_556
Ge4 La1 3.167012 1_545
Ge4 La1 3.167031 1_555
Ge4 La0 3.318140 1_555
Ge4 La0 3.318140 1_556
Ge5 Ti0 2.618114 1_665
Ge5 Ti1 2.618114 1_665
Ge5 La0 3.167012 1_565
Ge5 La0 3.167031 1_555
Ge5 La1 3.318140 1_555
Ge5 La1 3.318140 1_554
