# generated using pymatgen
data_Y4GaCo4
_symmetry_space_group_name_H-M   'P 1'
_cell_length_a   4.22940155
_cell_length_b   5.53235835
_cell_length_c   8.59343749
_cell_angle_alpha   106.81446258
_cell_angle_beta   90.00000020
_cell_angle_gamma   112.47264463
_symmetry_Int_Tables_number   1
_chemical_formula_structural   Y4GaCo4
_chemical_formula_sum   'Y4 Ga1 Co4'
_cell_volume   176.46606605
_cell_formula_units_Z   1
loop_
 _symmetry_equiv_pos_site_id
 _symmetry_equiv_pos_as_xyz
  1  'x, y, z'
loop_
 _atom_site_type_symbol
 _atom_site_label
 _atom_site_symmetry_multiplicity
 _atom_site_fract_x
 _atom_site_fract_y
 _atom_site_fract_z
 _atom_site_occupancy
  Y  Y0  1  0.26750485  0.53501070  0.66315267  1
  Y  Y1  1  0.73249515  0.46498930  0.33684733  1
  Y  Y2  1  0.61183492  0.22366985  0.88111564  1
  Y  Y3  1  0.38816508  0.77633015  0.11888436  1
  Ga  Ga0  1  0.50000000  0.00000000  0.50000000  1
  Co  Co0  1  0.96824559  0.93649119  0.63125133  1
  Co  Co1  1  0.03175441  0.06350881  0.36874867  1
  Co  Co2  1  0.92064780  0.84129660  0.87508397  1
  Co  Co3  1  0.07935220  0.15870340  0.12491603  1
loop_
_geom_bond_atom_site_label_1
_geom_bond_atom_site_label_2
_geom_bond_distance
_geom_bond_site_symmetry_2
Ga0 Y3 3.112726 1_545
Ga0 Y2 3.112726 1_555
Ga0 Y0 3.114992 1_545
Ga0 Y1 3.114992 1_555
Ga0 Y0 3.393756 1_655
Ga0 Y1 3.393756 1_445
Ga0 Y1 3.393759 1_545
Ga0 Y0 3.393759 1_555
Co0 Co2 2.294736 1_555
Co0 Ga0 2.465523 1_665
Co0 Ga0 2.465523 1_565
Co0 Co1 2.535227 1_665
Co0 Y1 2.897021 1_555
Co0 Y0 2.985333 1_665
Co0 Y0 3.018609 1_655
Co0 Y0 3.018612 1_555
Co0 Y2 3.043704 1_665
Co0 Y2 3.043705 1_565
Co1 Co3 2.294736 1_555
Co1 Ga0 2.465523 1_455
Co1 Ga0 2.465523 1_555
Co1 Y0 2.897021 1_555
Co1 Y1 2.985333 1_445
Co1 Y1 3.018609 1_455
Co1 Y1 3.018612 1_555
Co1 Y3 3.043704 1_445
Co1 Y3 3.043705 1_545
Co2 Co3 2.249701 1_666
Co2 Y2 2.869213 1_565
Co2 Y2 2.869216 1_665
Co2 Y0 2.907772 1_555
Co2 Y0 2.907773 1_655
Co2 Y3 3.067129 1_556
Co2 Y3 3.067132 1_656
Co2 Y2 3.174066 1_555
Co3 Y3 2.869213 1_545
Co3 Y3 2.869216 1_445
Co3 Y1 2.907772 1_555
Co3 Y1 2.907773 1_455
Co3 Y2 3.067129 1_554
Co3 Y2 3.067132 1_454
Co3 Y3 3.174066 1_555
