# generated using pymatgen
data_Bi2Ru2O7
_symmetry_space_group_name_H-M   'P 1'
_cell_length_a   7.26982767
_cell_length_b   7.26982767
_cell_length_c   7.26982767
_cell_angle_alpha   60.00000000
_cell_angle_beta   60.00000000
_cell_angle_gamma   60.00000000
_symmetry_Int_Tables_number   1
_chemical_formula_structural   Bi2Ru2O7
_chemical_formula_sum   'Bi4 Ru4 O14'
_cell_volume   271.67980046
_cell_formula_units_Z   2
loop_
 _symmetry_equiv_pos_site_id
 _symmetry_equiv_pos_as_xyz
  1  'x, y, z'
loop_
 _atom_site_type_symbol
 _atom_site_label
 _atom_site_symmetry_multiplicity
 _atom_site_fract_x
 _atom_site_fract_y
 _atom_site_fract_z
 _atom_site_occupancy
  Bi  Bi0  1  0.12500000  0.12500000  0.62500000  1
  Bi  Bi1  1  0.12500000  0.62500000  0.12500000  1
  Bi  Bi2  1  0.62500000  0.12500000  0.12500000  1
  Bi  Bi3  1  0.12500000  0.12500000  0.12500000  1
  Ru  Ru0  1  0.62500000  0.62500000  0.12500000  1
  Ru  Ru1  1  0.62500000  0.12500000  0.62500000  1
  Ru  Ru2  1  0.12500000  0.62500000  0.62500000  1
  Ru  Ru3  1  0.62500000  0.62500000  0.62500000  1
  O  O0  1  0.25000000  0.25000000  0.25000000  1
  O  O1  1  0.00000000  -0.00000000  -0.00000000  1
  O  O2  1  0.54623214  0.95376786  0.54623214  1
  O  O3  1  0.29623214  0.70376786  0.29623214  1
  O  O4  1  0.54623214  0.54623214  0.95376786  1
  O  O5  1  0.95376786  0.54623214  0.54623214  1
  O  O6  1  0.54623214  0.95376786  0.95376786  1
  O  O7  1  0.95376786  0.95376786  0.54623214  1
  O  O8  1  0.95376786  0.54623214  0.95376786  1
  O  O9  1  0.70376786  0.29623214  0.29623214  1
  O  O10  1  0.29623214  0.70376786  0.70376786  1
  O  O11  1  0.70376786  0.29623214  0.70376786  1
  O  O12  1  0.29623214  0.29623214  0.70376786  1
  O  O13  1  0.70376786  0.70376786  0.29623214  1
loop_
_geom_bond_atom_site_label_1
_geom_bond_atom_site_label_2
_geom_bond_distance
_geom_bond_site_symmetry_2
Bi0 O0 2.225921 1_555
Bi0 O1 2.225921 1_556
Bi0 O10 2.530285 1_545
Bi0 O5 2.530285 1_455
Bi0 O2 2.530285 1_545
Bi0 O11 2.530285 1_455
Bi0 O7 2.530285 1_445
Bi0 O12 2.530285 1_555
Bi1 O0 2.225921 1_555
Bi1 O1 2.225921 1_565
Bi1 O8 2.530285 1_454
Bi1 O13 2.530285 1_455
Bi1 O5 2.530285 1_455
Bi1 O4 2.530285 1_554
Bi1 O10 2.530285 1_554
Bi1 O3 2.530285 1_555
Bi2 O1 2.225921 1_655
Bi2 O0 2.225921 1_555
Bi2 O2 2.530285 1_545
Bi2 O4 2.530285 1_554
Bi2 O11 2.530285 1_554
Bi2 O13 2.530285 1_545
Bi2 O6 2.530285 1_544
Bi2 O9 2.530285 1_555
Bi3 O0 2.225921 1_555
Bi3 O1 2.225921 1_555
Bi3 O8 2.530285 1_454
Bi3 O6 2.530285 1_544
Bi3 O9 2.530285 1_455
Bi3 O7 2.530285 1_445
Bi3 O3 2.530285 1_545
Bi3 O12 2.530285 1_554
O2 Ru1 1.989713 1_565
O2 Ru3 1.989713 1_555
O3 Ru0 1.989713 1_555
O3 Ru2 1.989713 1_555
O4 Ru0 1.989713 1_556
O4 Ru3 1.989713 1_555
O5 Ru3 1.989713 1_555
O5 Ru2 1.989713 1_655
O6 Ru1 1.989713 1_565
O6 Ru0 1.989713 1_556
O7 Ru2 1.989713 1_655
O7 Ru1 1.989713 1_565
O8 Ru2 1.989713 1_655
O8 Ru0 1.989713 1_556
O9 Ru1 1.989713 1_555
O9 Ru0 1.989713 1_555
O10 Ru3 1.989713 1_555
O10 Ru2 1.989713 1_555
O11 Ru3 1.989713 1_555
O11 Ru1 1.989713 1_555
O12 Ru1 1.989713 1_555
O12 Ru2 1.989713 1_555
O13 Ru3 1.989713 1_555
O13 Ru0 1.989713 1_555
