# generated using pymatgen
data_Ce3Te4
_symmetry_space_group_name_H-M   'P 1'
_cell_length_a   8.38437551
_cell_length_b   8.38437551
_cell_length_c   8.38437551
_cell_angle_alpha   109.47122063
_cell_angle_beta   109.47122063
_cell_angle_gamma   109.47122063
_symmetry_Int_Tables_number   1
_chemical_formula_structural   Ce3Te4
_chemical_formula_sum   'Ce6 Te8'
_cell_volume   453.72245383
_cell_formula_units_Z   2
loop_
 _symmetry_equiv_pos_site_id
 _symmetry_equiv_pos_as_xyz
  1  'x, y, z'
loop_
 _atom_site_type_symbol
 _atom_site_label
 _atom_site_symmetry_multiplicity
 _atom_site_fract_x
 _atom_site_fract_y
 _atom_site_fract_z
 _atom_site_occupancy
  Ce  Ce0  1  0.87500000  0.12500000  0.75000000  1
  Ce  Ce1  1  0.37500000  0.25000000  0.62500000  1
  Ce  Ce2  1  0.12500000  0.75000000  0.87500000  1
  Ce  Ce3  1  0.75000000  0.87500000  0.12500000  1
  Ce  Ce4  1  0.25000000  0.62500000  0.37500000  1
  Ce  Ce5  1  0.62500000  0.37500000  0.25000000  1
  Te  Te0  1  0.65063674  0.65063674  0.65063674  1
  Te  Te1  1  0.50000000  -0.00000000  0.34936326  1
  Te  Te2  1  0.00000000  0.34936326  0.50000000  1
  Te  Te3  1  0.34936326  0.50000000  0.00000000  1
  Te  Te4  1  -0.00000000  0.84936326  0.50000000  1
  Te  Te5  1  0.84936326  0.50000000  -0.00000000  1
  Te  Te6  1  0.15063674  0.15063674  0.15063674  1
  Te  Te7  1  0.50000000  -0.00000000  0.84936326  1
loop_
_geom_bond_atom_site_label_1
_geom_bond_atom_site_label_2
_geom_bond_distance
_geom_bond_site_symmetry_2
Ce0 Te6 3.268447 1_656
Ce0 Te4 3.268447 1_645
Ce0 Te5 3.268447 1_556
Ce0 Te1 3.268447 1_555
Ce0 Te3 3.436511 1_656
Ce0 Te0 3.436511 1_545
Ce0 Te2 3.436511 1_655
Ce0 Te7 3.436511 1_555
Ce1 Te4 3.268447 1_545
Ce1 Te1 3.268447 1_555
Ce1 Te3 3.268447 1_556
Ce1 Te0 3.268447 1_555
Ce1 Te2 3.436511 1_555
Ce1 Te6 3.436511 1_555
Ce1 Te5 3.436511 1_556
Ce1 Te7 3.436511 1_555
Ce2 Te6 3.268447 1_566
Ce2 Te2 3.268447 1_555
Ce2 Te7 3.268447 1_565
Ce2 Te5 3.268447 1_456
Ce2 Te0 3.436511 1_455
Ce2 Te1 3.436511 1_566
Ce2 Te3 3.436511 1_556
Ce2 Te4 3.436511 1_555
Ce3 Te7 3.268447 1_564
Ce3 Te4 3.268447 1_655
Ce3 Te6 3.268447 1_665
Ce3 Te3 3.268447 1_555
Ce3 Te0 3.436511 1_554
Ce3 Te1 3.436511 1_565
Ce3 Te5 3.436511 1_555
Ce3 Te2 3.436511 1_665
Ce4 Te5 3.268447 1_455
Ce4 Te2 3.268447 1_555
Ce4 Te1 3.268447 1_565
Ce4 Te0 3.268447 1_555
Ce4 Te3 3.436511 1_555
Ce4 Te6 3.436511 1_555
Ce4 Te7 3.436511 1_565
Ce4 Te4 3.436511 1_555
Ce5 Te7 3.268447 1_554
Ce5 Te2 3.268447 1_655
Ce5 Te3 3.268447 1_555
Ce5 Te0 3.268447 1_555
Ce5 Te1 3.436511 1_555
Ce5 Te4 3.436511 1_655
Ce5 Te6 3.436511 1_555
Ce5 Te5 3.436511 1_555
