# generated using pymatgen
data_Na2FeO3
_symmetry_space_group_name_H-M   'P 1'
_cell_length_a   5.12041547
_cell_length_b   10.64109251
_cell_length_c   5.16341292
_cell_angle_alpha   94.96266303
_cell_angle_beta   60.28382870
_cell_angle_gamma   85.62745972
_symmetry_Int_Tables_number   1
_chemical_formula_structural   Na2FeO3
_chemical_formula_sum   'Na8 Fe4 O12'
_cell_volume   241.10560496
_cell_formula_units_Z   4
loop_
 _symmetry_equiv_pos_site_id
 _symmetry_equiv_pos_as_xyz
  1  'x, y, z'
loop_
 _atom_site_type_symbol
 _atom_site_label
 _atom_site_symmetry_multiplicity
 _atom_site_fract_x
 _atom_site_fract_y
 _atom_site_fract_z
 _atom_site_occupancy
  Na  Na0  1  0.50022092  1.00027582  0.99839152  1
  Na  Na1  1  0.99977351  0.49982553  0.50030918  1
  Na  Na2  1  0.08718948  0.25010093  0.08673958  1
  Na  Na3  1  0.91266804  0.74994348  0.91340814  1
  Na  Na4  1  0.68594613  0.50226404  0.15820834  1
  Na  Na5  1  0.15760806  0.99979165  0.68413972  1
  Na  Na6  1  0.84299852  1.00060091  0.31546870  1
  Na  Na7  1  0.31459482  0.49760917  0.84307285  1
  Fe  Fe0  1  0.74953143  0.25000709  0.75836029  1
  Fe  Fe1  1  0.57707399  0.74978213  0.58641868  1
  Fe  Fe2  1  0.25033484  0.74998679  0.24173787  1
  Fe  Fe3  1  0.42280508  0.25012898  0.41351518  1
  O  O0  1  0.74532361  0.14998527  0.05208721  1
  O  O1  1  0.95994802  0.65047770  0.25006755  1
  O  O2  1  0.03988492  0.34936873  0.75027131  1
  O  O3  1  0.25473691  0.84992409  0.94786792  1
  O  O4  1  0.49576508  0.84888619  0.31782989  1
  O  O5  1  0.32987378  0.65111189  0.51043995  1
  O  O6  1  0.66989010  0.34885799  0.48967145  1
  O  O7  1  0.50390528  0.15104678  0.68227288  1
  O  O8  1  0.42959126  0.35016804  0.12023108  1
  O  O9  1  0.86637211  0.84875589  0.57653089  1
  O  O10  1  0.13362874  0.15119551  0.42304443  1
  O  O11  1  0.57033737  0.64990541  0.87991739  1
loop_
_geom_bond_atom_site_label_1
_geom_bond_atom_site_label_2
_geom_bond_distance
_geom_bond_site_symmetry_2
Na0 O0 2.182490 1_566
Na0 O3 2.183413 1_555
Na0 O7 2.380285 1_565
Na0 O9 2.396261 1_555
Na0 O4 2.396703 1_556
Na0 O10 2.400202 1_566
Na1 O2 2.200327 1_655
Na1 O1 2.202454 1_555
Na1 O8 2.423642 1_655
Na1 O11 2.424349 1_555
Na1 O6 2.434626 1_555
Na1 O5 2.437069 1_655
Na2 O8 2.188834 1_555
Na2 O0 2.189313 1_455
Na2 O10 2.206125 1_555
Na2 O6 2.206934 1_455
Na2 O7 2.209923 1_554
Na2 O2 2.210987 1_554
Na3 O11 2.188346 1_555
Na3 O3 2.189016 1_655
Na3 O5 2.207045 1_655
Na3 O9 2.207862 1_555
Na3 O4 2.209885 1_556
Na3 O1 2.212932 1_556
Na4 O8 2.214756 1_555
Na4 O5 2.216863 1_555
Na4 O2 2.353963 1_654
Na4 O1 2.355530 1_555
Na4 O6 2.442339 1_555
Na4 O11 2.444486 1_554
Na5 O10 2.222149 1_565
Na5 O4 2.226619 1_555
Na5 O3 2.360324 1_555
Na5 O0 2.367345 1_466
Na5 O9 2.479518 1_455
Na5 O7 2.481079 1_565
Na6 O9 2.224733 1_555
Na6 O7 2.226223 1_565
Na6 O0 2.356601 1_565
Na6 O3 2.368340 1_654
Na6 O10 2.473909 1_665
Na6 O4 2.487424 1_555
Na7 O11 2.212370 1_555
Na7 O6 2.216965 1_555
Na7 O1 2.352602 1_456
Na7 O2 2.360576 1_555
Na7 O8 2.437066 1_556
Na7 O5 2.448626 1_555
Fe0 O7 1.861539 1_555
Fe0 O2 1.875047 1_655
Fe0 O8 1.914552 1_556
Fe0 O0 1.919334 1_556
Fe0 O6 1.986320 1_555
Fe0 O10 1.991255 1_655
Fe1 O9 1.865035 1_555
Fe1 O5 1.866060 1_555
Fe1 O11 1.913049 1_555
Fe1 O3 1.917463 1_555
Fe1 O4 1.991806 1_555
Fe1 O1 1.991819 1_555
Fe2 O4 1.860337 1_555
Fe2 O1 1.875771 1_455
Fe2 O11 1.914182 1_554
Fe2 O3 1.919052 1_554
Fe2 O5 1.986257 1_555
Fe2 O9 1.989827 1_455
Fe3 O10 1.864841 1_555
Fe3 O6 1.866402 1_555
Fe3 O8 1.913125 1_555
Fe3 O0 1.917728 1_555
Fe3 O7 1.991861 1_555
Fe3 O2 1.992386 1_555
