# generated using pymatgen
data_Ba2BiSbO6
_symmetry_space_group_name_H-M   'P 1'
_cell_length_a   6.10300196
_cell_length_b   6.10300196
_cell_length_c   6.10300272
_cell_angle_alpha   60.47829475
_cell_angle_beta   60.47829475
_cell_angle_gamma   60.47829640
_symmetry_Int_Tables_number   1
_chemical_formula_structural   Ba2BiSbO6
_chemical_formula_sum   'Ba2 Bi1 Sb1 O6'
_cell_volume   162.47461756
_cell_formula_units_Z   1
loop_
 _symmetry_equiv_pos_site_id
 _symmetry_equiv_pos_as_xyz
  1  'x, y, z'
loop_
 _atom_site_type_symbol
 _atom_site_label
 _atom_site_symmetry_multiplicity
 _atom_site_fract_x
 _atom_site_fract_y
 _atom_site_fract_z
 _atom_site_occupancy
  Ba  Ba0  1  0.25129600  0.25129600  0.25129600  1
  Ba  Ba1  1  0.74870400  0.74870400  0.74870400  1
  Bi  Bi0  1  0.00000000  0.00000000  0.00000000  1
  Sb  Sb0  1  0.50000000  0.50000000  0.50000000  1
  O  O0  1  0.72870400  0.22114800  0.31498300  1
  O  O1  1  0.22114800  0.31498300  0.72870400  1
  O  O2  1  0.31498300  0.72870400  0.22114800  1
  O  O3  1  0.27129600  0.77885200  0.68501700  1
  O  O4  1  0.68501700  0.27129600  0.77885200  1
  O  O5  1  0.77885200  0.68501700  0.27129600  1
loop_
_geom_bond_atom_site_label_1
_geom_bond_atom_site_label_2
_geom_bond_distance
_geom_bond_site_symmetry_2
Ba0 O5 2.790180 1_455
Ba0 O3 2.790180 1_545
Ba0 O4 2.790180 1_554
Ba0 O2 3.031729 1_555
Ba0 O0 3.031729 1_555
Ba0 O1 3.031730 1_555
Ba0 O0 3.105354 1_455
Ba0 O2 3.105354 1_545
Ba0 O1 3.105355 1_554
Ba0 O5 3.366125 1_545
Ba0 O4 3.366125 1_455
Ba0 O3 3.366125 1_554
Ba1 O1 2.790180 1_655
Ba1 O0 2.790180 1_565
Ba1 O2 2.790180 1_556
Ba1 O4 3.031729 1_555
Ba1 O3 3.031729 1_555
Ba1 O5 3.031730 1_555
Ba1 O3 3.105354 1_655
Ba1 O4 3.105354 1_565
Ba1 O5 3.105355 1_556
Ba1 O1 3.366125 1_565
Ba1 O2 3.366125 1_655
Ba1 O0 3.366125 1_556
Bi0 O1 2.340152 1_554
Bi0 O5 2.340152 1_445
Bi0 O4 2.340153 1_454
Bi0 O2 2.340153 1_545
Bi0 O3 2.340153 1_544
Bi0 O0 2.340153 1_455
O0 Sb0 2.029547 1_555
O1 Sb0 2.029546 1_555
O2 Sb0 2.029547 1_555
O3 Sb0 2.029547 1_555
O4 Sb0 2.029547 1_555
O5 Sb0 2.029546 1_555
