# generated using pymatgen
data_Na5La2SiSn2P5O24
_symmetry_space_group_name_H-M   'P 1'
_cell_length_a   9.30006317
_cell_length_b   9.31674099
_cell_length_c   23.51100728
_cell_angle_alpha   89.95708808
_cell_angle_beta   89.89172831
_cell_angle_gamma   120.51032125
_symmetry_Int_Tables_number   1
_chemical_formula_structural   Na5La2SiSn2P5O24
_chemical_formula_sum   'Na15 La6 Si3 Sn6 P15 O72'
_cell_volume   1755.06749546
_cell_formula_units_Z   3
loop_
 _symmetry_equiv_pos_site_id
 _symmetry_equiv_pos_as_xyz
  1  'x, y, z'
loop_
 _atom_site_type_symbol
 _atom_site_label
 _atom_site_symmetry_multiplicity
 _atom_site_fract_x
 _atom_site_fract_y
 _atom_site_fract_z
 _atom_site_occupancy
  Na  Na0  1  0.99903182  0.64097162  0.24898042  1
  Na  Na1  1  0.63204132  0.64091075  0.74870076  1
  Na  Na2  1  0.37554861  -0.00033215  0.74879481  1
  Na  Na3  1  0.66427455  0.97092518  0.58691749  1
  Na  Na4  1  0.30013153  0.96884244  0.08102361  1
  Na  Na5  1  0.67703640  0.69592191  0.08000159  1
  Na  Na6  1  0.02790046  0.33448230  0.08240705  1
  Na  Na7  1  0.96480899  0.30199420  0.41912283  1
  Na  Na8  1  0.33940415  0.03532128  0.42167265  1
  Na  Na9  1  0.00803173  0.99145941  0.50421681  1
  Na  Na10  1  0.00021517  0.99246343  0.99189180  1
  Na  Na11  1  0.67957142  0.32940105  0.83435358  1
  Na  Na12  1  0.65527160  0.33387881  0.33064864  1
  Na  Na13  1  0.34039775  0.66604756  0.16849023  1
  Na  Na14  1  0.31957610  0.65595277  0.66362900  1
  La  La0  1  0.99134258  0.99372944  0.34844780  1
  La  La1  1  0.00135494  0.00349758  0.15565990  1
  La  La2  1  0.66938033  0.33835459  0.97663340  1
  La  La3  1  0.66105023  0.34156082  0.49367282  1
  La  La4  1  0.34779110  0.66760833  0.31501973  1
  La  La5  1  0.32603021  0.66111885  0.81142952  1
  Si  Si0  1  0.72457100  0.01607151  0.74640120  1
  Si  Si1  1  0.35573669  0.02328006  0.58533560  1
  Si  Si2  1  0.97324996  0.62963129  0.08348669  1
  Sn  Sn0  1  0.99607128  0.00263512  0.85117552  1
  Sn  Sn1  1  0.00470112  0.00364852  0.64924373  1
  Sn  Sn2  1  0.67132164  0.32896438  0.68224709  1
  Sn  Sn3  1  0.66760474  0.33013641  0.17943450  1
  Sn  Sn4  1  0.32846896  0.66656834  0.01144905  1
  Sn  Sn5  1  0.33154102  0.66519820  0.52238054  1
  P  P0  1  0.32302951  0.01362810  0.24678626  1
  P  P1  1  0.69073694  0.67151425  0.24230853  1
  P  P2  1  0.98362837  0.31090100  0.24678696  1
  P  P3  1  0.29407037  0.27782793  0.74698434  1
  P  P4  1  0.98530395  0.71198243  0.74689116  1
  P  P5  1  0.97271774  0.33290000  0.58539672  1
  P  P6  1  0.66655261  0.64162722  0.58970124  1
  P  P7  1  0.65309157  0.02870624  0.08269540  1
  P  P8  1  0.37676408  0.34742577  0.08320633  1
  P  P9  1  0.63881643  0.68715117  0.91522343  1
  P  P10  1  0.04441262  0.35462591  0.91732303  1
  P  P11  1  0.31119814  0.95613813  0.91386694  1
  P  P12  1  0.62954583  0.96295260  0.42463622  1
  P  P13  1  0.32782277  0.37031187  0.42272090  1
  P  P14  1  0.04645863  0.66827936  0.41959723  1
  O  O0  1  0.24083337  0.03465608  0.30147554  1
  O  O1  1  0.80491220  0.76047712  0.29446632  1
  O  O2  1  0.96786554  0.20911288  0.30113753  1
  O  O3  1  0.21464893  0.16930015  0.80137941  1
  O  O4  1  0.95517224  0.78805147  0.80168352  1
  O  O5  1  0.83511725  0.03677592  0.80370215  1
  O  O6  1  0.80750841  0.98516267  0.69002009  1
  O  O7  1  0.18690854  0.19442118  0.69439073  1
  O  O8  1  0.01378400  0.82311285  0.69484065  1
  O  O9  1  0.76881854  0.76886624  0.18734292  1
  O  O10  1  0.00522031  0.23334503  0.19237151  1
  O  O11  1  0.21698820  0.98863886  0.19338729  1
  O  O12  1  0.88174007  0.36613489  0.63555964  1
  O  O13  1  0.49284844  0.12087868  0.63864313  1
  O  O14  1  0.64048506  0.52580060  0.64219751  1
  O  O15  1  0.88920627  0.50908128  0.14152522  1
  O  O16  1  0.61928307  0.10941539  0.13631134  1
  O  O17  1  0.48985154  0.37424406  0.13665510  1
  O  O18  1  0.44586756  0.30439567  0.03180080  1
  O  O19  1  0.84596186  0.54746929  0.03209892  1
  O  O20  1  0.68837547  0.13919985  0.03124827  1
  O  O21  1  0.42049147  0.12004657  0.52552535  1
  O  O22  1  0.70300896  0.57846324  0.53550760  1
  O  O23  1  0.87266455  0.29418869  0.53009222  1
  O  O24  1  0.54843010  0.70229534  0.97153294  1
  O  O25  1  0.14597768  0.44080945  0.97433621  1
  O  O26  1  0.29350496  0.85020639  0.97016895  1
  O  O27  1  0.53841284  0.85580708  0.47889174  1
  O  O28  1  0.31482649  0.46869641  0.47501247  1
  O  O29  1  0.16232084  0.68433350  0.47092888  1
  O  O30  1  0.11903495  0.65359638  0.36242278  1
  O  O31  1  0.52888089  0.88316179  0.37064552  1
  O  O32  1  0.34221678  0.46198842  0.36732969  1
  O  O33  1  0.13065584  0.46224765  0.86595588  1
  O  O34  1  0.33176015  0.87632382  0.86029047  1
  O  O35  1  0.54080863  0.67010990  0.86141594  1
  O  O36  1  0.04073118  0.83231763  0.42041271  1
  O  O37  1  0.80634952  0.98562090  0.42248990  1
  O  O38  1  0.16175173  0.19801212  0.42265987  1
  O  O39  1  0.03941602  0.18438218  0.91374884  1
  O  O40  1  0.14567520  0.96276472  0.91065255  1
  O  O41  1  0.81376279  0.85095167  0.91366602  1
  O  O42  1  0.98429139  0.17390803  0.59570609  1
  O  O43  1  0.17070483  0.00070359  0.59521864  1
  O  O44  1  0.81549465  0.82349007  0.59666276  1
  O  O45  1  0.01155351  0.82069412  0.08884776  1
  O  O46  1  0.80164632  0.00085476  0.09020223  1
  O  O47  1  0.19487116  0.20440642  0.09062424  1
  O  O48  1  0.69676268  0.18054725  0.74199060  1
  O  O49  1  0.47116723  0.29148289  0.74156016  1
  O  O50  1  0.81974582  0.53666070  0.74021221  1
  O  O51  1  0.68888274  0.50308577  0.24034975  1
  O  O52  1  0.82029265  0.31968488  0.24341615  1
  O  O53  1  0.49597753  0.17492673  0.24032425  1
  O  O54  1  0.66033567  0.53580060  0.91903132  1
  O  O55  1  0.86835543  0.32710011  0.91995851  1
  O  O56  1  0.46183617  0.13127811  0.91879024  1
  O  O57  1  0.64725039  0.13777287  0.42680356  1
  O  O58  1  0.47566903  0.33958264  0.42427089  1
  O  O59  1  0.87501323  0.50779842  0.42481303  1
  O  O60  1  0.37501422  0.51571296  0.07651175  1
  O  O61  1  0.15612947  0.63458991  0.07486407  1
  O  O62  1  0.48831857  0.85306558  0.07618735  1
  O  O63  1  0.35602774  0.84283465  0.58158186  1
  O  O64  1  0.50608111  0.65709278  0.58374999  1
  O  O65  1  0.15006539  0.49138181  0.58055384  1
  O  O66  1  0.33397015  0.85432452  0.24973694  1
  O  O67  1  0.51616632  0.64659687  0.24640957  1
  O  O68  1  0.13204635  0.49170017  0.24932370  1
  O  O69  1  0.32670257  0.45647234  0.74902591  1
  O  O70  1  0.14151226  0.69636789  0.74940308  1
  O  O71  1  0.53646403  0.84976849  0.74761843  1
loop_
_geom_bond_atom_site_label_1
_geom_bond_atom_site_label_2
_geom_bond_distance
_geom_bond_site_symmetry_2
Na0 O68 2.282834 1_655
Na0 O51 2.500287 1_555
Na0 O52 2.586402 1_555
Na0 O66 2.714336 1_655
Na0 O15 2.770518 1_555
Na0 O1 2.770918 1_555
Na0 O30 2.872536 1_655
Na1 O50 2.398148 1_555
Na1 O69 2.462070 1_555
Na1 O71 2.516631 1_555
Na1 O14 2.741372 1_555
Na1 O49 2.814460 1_555
Na1 O35 2.836126 1_555
Na1 O4 2.880194 1_555
Na2 O49 2.399009 1_555
Na2 O71 2.512535 1_545
Na2 O70 2.545054 1_545
Na2 O48 2.583724 1_555
Na2 O34 2.806118 1_545
Na2 O13 2.811822 1_555
Na2 O3 2.943226 1_555
Na3 O44 2.424751 1_555
Na3 O63 2.487128 1_555
Na3 O64 2.520328 1_555
Na3 O42 2.600898 1_565
Na3 O6 2.738852 1_555
Na3 O27 2.776972 1_555
Na3 O13 2.868676 1_565
Na3 O23 2.944336 1_565
Na4 O45 2.319079 1_555
Na4 O62 2.481084 1_555
Na4 O61 2.697978 1_555
Na4 O11 2.783658 1_555
Na4 O26 2.820296 1_554
Na4 O47 2.829720 1_565
Na4 O16 2.878321 1_565
Na4 O18 2.938717 1_565
Na5 O60 2.434696 1_555
Na5 O46 2.476034 1_565
Na5 O9 2.642201 1_555
Na5 O45 2.720989 1_655
Na5 O62 2.800244 1_555
Na5 O19 2.802037 1_555
Na5 O24 2.832141 1_554
Na5 O17 2.911071 1_555
Na6 O47 2.414309 1_555
Na6 O61 2.425724 1_555
Na6 O10 2.721950 1_555
Na6 O46 2.734850 1_455
Na6 O25 2.743041 1_554
Na6 O60 2.784725 1_555
Na6 O15 2.892904 1_455
Na6 O20 2.985244 1_455
Na7 O59 2.453094 1_555
Na7 O38 2.470277 1_655
Na7 O37 2.540621 1_545
Na7 O57 2.550500 1_555
Na7 O23 2.733959 1_555
Na7 O2 2.910796 1_555
Na8 O36 2.441220 1_545
Na8 O58 2.449139 1_555
Na8 O57 2.519727 1_555
Na8 O21 2.561057 1_555
Na8 O38 2.751446 1_555
Na9 O38 2.571864 1_565
Na9 O36 2.575447 1_555
Na9 O43 2.598856 1_565
Na9 O37 2.668955 1_455
Na9 O44 2.741217 1_455
Na9 O42 2.819528 1_465
Na10 O41 2.412869 1_455
Na10 O40 2.434308 1_555
Na10 O39 2.456844 1_565
Na10 O45 2.816955 1_556
Na10 O46 2.981547 1_466
Na10 O47 2.992966 1_566
Na11 O48 2.625418 1_555
Na11 O55 2.680532 1_555
Na11 O56 2.762723 1_555
Na11 O50 2.784561 1_555
Na11 O49 2.821857 1_555
Na11 O54 2.836729 1_555
Na12 O51 2.565590 1_555
Na12 O53 2.585825 1_555
Na12 O52 2.602630 1_555
Na12 O58 2.777456 1_555
Na12 O57 2.882583 1_555
Na12 O59 2.891955 1_555
Na13 O67 2.524409 1_555
Na13 O68 2.605856 1_555
Na13 O66 2.615421 1_555
Na13 O62 2.680878 1_555
Na13 O60 2.683579 1_555
Na13 O61 2.715402 1_555
Na14 O65 2.492557 1_555
Na14 O63 2.502141 1_555
Na14 O64 2.550413 1_555
Na14 O71 2.747844 1_555
Na14 O70 2.751837 1_555
Na14 O69 2.758543 1_555
La0 O1 2.350765 1_555
La0 O2 2.398768 1_565
La0 O0 2.416621 1_665
La0 O37 2.419206 1_555
La0 O36 2.456772 1_655
La0 O38 2.476094 1_665
La1 O11 2.261862 1_545
La1 O9 2.280702 1_445
La1 O10 2.292754 1_555
La1 O45 2.354698 1_545
La1 O47 2.376008 1_555
La1 O46 2.404797 1_455
La2 O19 2.226289 1_556
La2 O54 2.319252 1_555
La2 O55 2.323509 1_555
La2 O18 2.329109 1_556
La2 O20 2.335142 1_556
La2 O56 2.351566 1_555
La3 O22 2.263055 1_555
La3 O21 2.264586 1_555
La3 O58 2.369304 1_555
La3 O23 2.385133 1_555
La3 O59 2.415395 1_555
La3 O57 2.418846 1_555
La4 O32 2.254011 1_555
La4 O31 2.271090 1_555
La4 O67 2.322632 1_555
La4 O30 2.343925 1_555
La4 O66 2.371134 1_555
La4 O68 2.402928 1_555
La5 O33 2.224219 1_555
La5 O35 2.284103 1_555
La5 O34 2.288617 1_555
La5 O71 2.379559 1_555
La5 O70 2.400046 1_555
La5 O69 2.409183 1_555
O0 P0 1.557159 1_555
O1 P1 1.559183 1_555
O2 P2 1.552421 1_555
O3 P3 1.561935 1_555
O3 Sn0 2.167315 1_455
O4 P4 1.562685 1_555
O4 Sn0 2.174526 1_565
O5 Si0 1.647236 1_555
O5 Sn0 2.019122 1_555
O6 Si0 1.630111 1_565
O6 Sn1 1.996086 1_665
O7 P3 1.531608 1_555
O7 Sn1 2.026984 1_555
O8 P4 1.535631 1_455
O8 Sn1 2.031608 1_565
O9 P1 1.531643 1_555
O10 P2 1.531972 1_455
O11 P0 1.541086 1_565
O12 P5 1.570188 1_555
O12 Sn2 2.111273 1_555
O13 Si1 1.689390 1_555
O13 Sn2 2.075208 1_555
O14 P6 1.574126 1_555
O14 Sn2 2.205539 1_555
O15 Si2 1.684232 1_555
O15 Sn3 2.079251 1_555
O16 P7 1.579017 1_555
O16 Sn3 2.127242 1_555
O17 P8 1.576805 1_555
O17 Sn3 2.146793 1_555
O18 P8 1.514545 1_555
O19 Si2 1.591757 1_555
O20 P7 1.511333 1_555
O21 Si1 1.611357 1_555
O22 P6 1.512216 1_555
O23 P5 1.533333 1_555
O24 P9 1.611121 1_555
O24 Sn4 2.115915 1_556
O25 P10 1.603118 1_555
O25 Sn4 2.109380 1_556
O26 P11 1.608003 1_555
O26 Sn4 2.130371 1_556
O27 P12 1.573822 1_555
O27 Sn5 2.102673 1_555
O28 P13 1.574776 1_555
O28 Sn5 2.081067 1_555
O29 P14 1.575271 1_555
O29 Sn5 2.064844 1_555
O30 P14 1.540079 1_555
O31 P12 1.529587 1_555
O32 P13 1.524803 1_555
O33 P10 1.511668 1_555
O34 P11 1.523512 1_555
O35 P9 1.521222 1_555
O36 P14 1.556153 1_555
O37 P12 1.548511 1_555
O38 P13 1.563604 1_555
O39 P10 1.565363 1_555
O39 Sn0 2.122954 1_455
O40 P11 1.573572 1_555
O40 Sn0 2.135544 1_465
O41 P9 1.567155 1_555
O41 Sn0 2.141245 1_565
O42 P5 1.557562 1_555
O42 Sn1 2.107198 1_655
O43 Si1 1.640216 1_555
O43 Sn1 2.008290 1_555
O44 P6 1.560302 1_555
O44 Sn1 2.110512 1_665
O45 Si2 1.633437 1_455
O46 P7 1.540156 1_555
O47 P8 1.541845 1_555
O48 Si0 1.681690 1_555
O48 Sn2 2.066773 1_555
O49 P3 1.591076 1_555
O49 Sn2 2.204773 1_555
O50 P4 1.584624 1_555
O50 Sn2 2.192255 1_555
O51 P1 1.561236 1_555
O51 Sn3 2.089838 1_555
O52 P2 1.564324 1_555
O52 Sn3 2.106417 1_555
O53 P0 1.553350 1_555
O53 Sn3 2.081537 1_555
O54 P9 1.524092 1_555
O55 P10 1.524379 1_655
O56 P11 1.522613 1_545
O57 P12 1.552546 1_545
O58 P13 1.540696 1_555
O59 P14 1.539858 1_655
O60 P8 1.583938 1_555
O60 Sn4 2.262685 1_555
O61 Si2 1.689622 1_455
O61 Sn4 2.094278 1_555
O62 P7 1.582568 1_565
O62 Sn4 2.221591 1_555
O63 Si1 1.684918 1_565
O63 Sn5 2.085704 1_555
O64 P6 1.576923 1_555
O64 Sn5 2.203539 1_555
O65 P5 1.561956 1_455
O65 Sn5 2.134088 1_555
O66 P0 1.539869 1_565
O67 P1 1.521735 1_555
O68 P2 1.544607 1_455
O69 P3 1.533581 1_555
O70 P4 1.532981 1_455
O71 Si0 1.646023 1_565
