# generated using pymatgen
data_Li5CrCl8
_symmetry_space_group_name_H-M   'P 1'
_cell_length_a   6.21035926
_cell_length_b   6.21035926
_cell_length_c   7.20468289
_cell_angle_alpha   90.00000000
_cell_angle_beta   90.00000000
_cell_angle_gamma   109.06605889
_symmetry_Int_Tables_number   1
_chemical_formula_structural   Li5CrCl8
_chemical_formula_sum   'Li5 Cr1 Cl8'
_cell_volume   262.63079576
_cell_formula_units_Z   1
loop_
 _symmetry_equiv_pos_site_id
 _symmetry_equiv_pos_as_xyz
  1  'x, y, z'
loop_
 _atom_site_type_symbol
 _atom_site_label
 _atom_site_symmetry_multiplicity
 _atom_site_fract_x
 _atom_site_fract_y
 _atom_site_fract_z
 _atom_site_occupancy
  Li  Li0  1  0.50000000  -0.00000000  0.23380660  1
  Li  Li1  1  -0.00000000  0.50000000  0.76619340  1
  Li  Li2  1  0.50000000  -0.00000000  0.76619340  1
  Li  Li3  1  -0.00000000  0.50000000  0.23380660  1
  Li  Li4  1  0.50000000  0.50000000  -0.00000000  1
  Cr  Cr0  1  0.50000000  0.50000000  0.50000000  1
  Cl  Cl0  1  0.26942927  0.26942927  0.26804912  1
  Cl  Cl1  1  0.73057073  0.73057073  0.26804912  1
  Cl  Cl2  1  0.26662479  0.73337521  0.50000000  1
  Cl  Cl3  1  0.26942927  0.26942927  0.73195088  1
  Cl  Cl4  1  0.73057073  0.73057073  0.73195088  1
  Cl  Cl5  1  0.25197857  0.74802143  -0.00000000  1
  Cl  Cl6  1  0.73337521  0.26662479  0.50000000  1
  Cl  Cl7  1  0.74802143  0.25197857  -0.00000000  1
loop_
_geom_bond_atom_site_label_1
_geom_bond_atom_site_label_2
_geom_bond_distance
_geom_bond_site_symmetry_2
Cl0 Cr0 2.356681 1_555
Cl0 Li3 2.544874 1_555
Cl0 Li0 2.544874 1_555
Cl0 Li4 2.547711 1_555
Cl1 Cr0 2.356681 1_555
Cl1 Li0 2.544874 1_565
Cl1 Li3 2.544874 1_655
Cl1 Li4 2.547711 1_555
Cl2 Cr0 2.360837 1_555
Cl2 Li0 2.636782 1_565
Cl2 Li2 2.636782 1_565
Cl2 Li1 2.636782 1_555
Cl2 Li3 2.636782 1_555
Cl3 Cr0 2.356681 1_555
Cl3 Li1 2.544874 1_555
Cl3 Li2 2.544874 1_555
Cl3 Li4 2.547711 1_556
Cl4 Cr0 2.356681 1_555
Cl4 Li1 2.544874 1_655
Cl4 Li2 2.544874 1_565
Cl4 Li4 2.547711 1_556
Cl5 Li0 2.466613 1_565
Cl5 Li2 2.466613 1_564
Cl5 Li1 2.466613 1_554
Cl5 Li3 2.466613 1_555
Cl5 Li4 2.508999 1_555
Cl6 Cr0 2.360837 1_555
Cl6 Li3 2.636782 1_655
Cl6 Li1 2.636782 1_655
Cl6 Li2 2.636782 1_555
Cl6 Li0 2.636782 1_555
Cl7 Li3 2.466613 1_655
Cl7 Li2 2.466613 1_554
Cl7 Li1 2.466613 1_654
Cl7 Li0 2.466613 1_555
Cl7 Li4 2.508999 1_555
