# generated using pymatgen
data_Gd3S4
_symmetry_space_group_name_H-M   'P 1'
_cell_length_a   7.27532185
_cell_length_b   7.27532403
_cell_length_c   7.27532389
_cell_angle_alpha   109.47871443
_cell_angle_beta   109.46747838
_cell_angle_gamma   109.46747817
_symmetry_Int_Tables_number   1
_chemical_formula_structural   Gd3S4
_chemical_formula_sum   'Gd6 S8'
_cell_volume   296.43872718
_cell_formula_units_Z   2
loop_
 _symmetry_equiv_pos_site_id
 _symmetry_equiv_pos_as_xyz
  1  'x, y, z'
loop_
 _atom_site_type_symbol
 _atom_site_label
 _atom_site_symmetry_multiplicity
 _atom_site_fract_x
 _atom_site_fract_y
 _atom_site_fract_z
 _atom_site_occupancy
  Gd  Gd0  1  0.75000000  0.87500000  0.12500000  1
  Gd  Gd1  1  0.62500756  0.37500656  0.25000000  1
  Gd  Gd2  1  0.87499244  0.12499344  0.75000000  1
  Gd  Gd3  1  0.12500756  0.75000000  0.87500656  1
  Gd  Gd4  1  0.37499244  0.25000000  0.62499344  1
  Gd  Gd5  1  0.25000000  0.62500000  0.37500000  1
  S  S0  1  0.64333161  0.64330946  0.64331977  1
  S  S1  1  0.35666839  0.49997685  -0.00001284  1
  S  S2  1  0.50001031  0.00002315  0.35669054  1
  S  S3  1  -0.00001031  0.35668023  0.50001284  1
  S  S4  1  0.49998969  0.00001284  0.85668023  1
  S  S5  1  0.00001031  0.85669054  0.50002315  1
  S  S6  1  0.14333161  0.14331977  0.14330946  1
  S  S7  1  0.85666839  0.49998716  -0.00002315  1
loop_
_geom_bond_atom_site_label_1
_geom_bond_atom_site_label_2
_geom_bond_distance
_geom_bond_site_symmetry_2
Gd0 S6 2.804707 1_665
Gd0 S1 2.804709 1_555
Gd0 S4 2.804714 1_564
Gd0 S5 2.804714 1_655
Gd0 S0 3.016641 1_554
Gd0 S2 3.016643 1_565
Gd0 S3 3.016643 1_665
Gd0 S7 3.016648 1_555
Gd1 S4 2.804183 1_554
Gd1 S0 2.804193 1_555
Gd1 S3 2.804553 1_655
Gd1 S1 2.804559 1_555
Gd1 S5 3.016812 1_655
Gd1 S7 3.016815 1_555
Gd1 S2 3.016830 1_555
Gd1 S6 3.016841 1_555
Gd2 S7 2.804177 1_556
Gd2 S5 2.804191 1_645
Gd2 S2 2.804555 1_555
Gd2 S6 2.804559 1_656
Gd2 S4 3.016808 1_555
Gd2 S0 3.016815 1_545
Gd2 S3 3.016832 1_655
Gd2 S1 3.016838 1_656
Gd3 S3 2.804183 1_555
Gd3 S6 2.804193 1_566
Gd3 S4 2.804553 1_565
Gd3 S7 2.804559 1_456
Gd3 S2 3.016812 1_566
Gd3 S1 3.016815 1_556
Gd3 S5 3.016830 1_555
Gd3 S0 3.016841 1_455
Gd4 S1 2.804177 1_556
Gd4 S2 2.804191 1_555
Gd4 S5 2.804555 1_545
Gd4 S0 2.804559 1_555
Gd4 S3 3.016808 1_555
Gd4 S6 3.016815 1_555
Gd4 S4 3.016832 1_555
Gd4 S7 3.016838 1_556
Gd5 S0 2.804707 1_555
Gd5 S7 2.804709 1_455
Gd5 S3 2.804714 1_555
Gd5 S2 2.804714 1_565
Gd5 S6 3.016641 1_555
Gd5 S5 3.016643 1_555
Gd5 S4 3.016643 1_565
Gd5 S1 3.016648 1_555
