# generated using pymatgen
data_Na3InS3
_symmetry_space_group_name_H-M   'P 1'
_cell_length_a   10.42851171
_cell_length_b   10.42851171
_cell_length_c   7.35987248
_cell_angle_alpha   69.22591164
_cell_angle_beta   69.22591164
_cell_angle_gamma   80.28582783
_symmetry_Int_Tables_number   1
_chemical_formula_structural   Na3InS3
_chemical_formula_sum   'Na12 In4 S12'
_cell_volume   698.87737040
_cell_formula_units_Z   4
loop_
 _symmetry_equiv_pos_site_id
 _symmetry_equiv_pos_as_xyz
  1  'x, y, z'
loop_
 _atom_site_type_symbol
 _atom_site_label
 _atom_site_symmetry_multiplicity
 _atom_site_fract_x
 _atom_site_fract_y
 _atom_site_fract_z
 _atom_site_occupancy
  Na  Na0  1  0.01006378  0.17288970  0.45480148  1
  Na  Na1  1  0.82711030  0.98993622  0.04519852  1
  Na  Na2  1  0.98993622  0.82711030  0.54519852  1
  Na  Na3  1  0.17288970  0.01006378  0.95480148  1
  Na  Na4  1  0.22993064  0.36278870  0.59025648  1
  Na  Na5  1  0.63721130  0.77006936  0.90974352  1
  Na  Na6  1  0.77006936  0.63721130  0.40974352  1
  Na  Na7  1  0.36278870  0.22993064  0.09025648  1
  Na  Na8  1  0.72237470  0.27762530  0.75000000  1
  Na  Na9  1  0.27762530  0.72237470  0.25000000  1
  Na  Na10  1  0.43845520  0.56154480  0.75000000  1
  Na  Na11  1  0.56154480  0.43845520  0.25000000  1
  In  In0  1  0.42836791  0.91649888  0.40269550  1
  In  In1  1  0.57163209  0.08350112  0.59730450  1
  In  In2  1  0.91649888  0.42836791  0.90269550  1
  In  In3  1  0.08350112  0.57163209  0.09730450  1
  S  S0  1  0.88497410  0.41281300  0.26479568  1
  S  S1  1  0.41281300  0.88497410  0.76479568  1
  S  S2  1  0.58718700  0.11502590  0.23520432  1
  S  S3  1  0.11502590  0.58718700  0.73520432  1
  S  S4  1  0.99530187  0.21719955  0.81609735  1
  S  S5  1  0.78280045  0.00469813  0.68390265  1
  S  S6  1  0.00469813  0.78280045  0.18390265  1
  S  S7  1  0.21719955  0.99530187  0.31609735  1
  S  S8  1  0.70496721  0.52756307  0.82654315  1
  S  S9  1  0.47243693  0.29503279  0.67345685  1
  S  S10  1  0.29503279  0.47243693  0.17345685  1
  S  S11  1  0.52756307  0.70496721  0.32654315  1
loop_
_geom_bond_atom_site_label_1
_geom_bond_atom_site_label_2
_geom_bond_distance
_geom_bond_site_symmetry_2
Na0 S7 2.750432 1_545
Na0 S0 2.761901 1_455
Na0 S4 2.804500 1_455
Na0 S5 2.829607 1_455
Na1 S6 2.750432 1_655
Na1 S2 2.761901 1_565
Na1 S5 2.804500 1_564
Na1 S4 2.829607 1_564
Na2 S5 2.750432 1_565
Na2 S3 2.761901 1_655
Na2 S6 2.804500 1_655
Na2 S7 2.829607 1_655
Na3 S4 2.750432 1_455
Na3 S1 2.761901 1_545
Na3 S7 2.804500 1_546
Na3 S6 2.829607 1_546
Na4 S9 2.731033 1_555
Na4 S10 2.734034 1_555
Na4 S4 2.762861 1_455
Na4 S3 2.822764 1_555
Na5 S8 2.731033 1_555
Na5 S11 2.734034 1_556
Na5 S5 2.762861 1_565
Na5 S1 2.822764 1_555
Na6 S11 2.731033 1_555
Na6 S8 2.734034 1_555
Na6 S6 2.762861 1_655
Na6 S0 2.822764 1_555
Na7 S10 2.731033 1_555
Na7 S9 2.734034 1_554
Na7 S7 2.762861 1_545
Na7 S2 2.822764 1_555
Na8 S8 2.820183 1_555
Na8 S9 2.820183 1_555
Na8 S4 2.982315 1_555
Na8 S5 2.982315 1_555
Na8 S0 3.248874 1_555
Na8 S2 3.248874 1_556
Na9 S11 2.820183 1_555
Na9 S10 2.820183 1_555
Na9 S6 2.982315 1_555
Na9 S7 2.982315 1_555
Na9 S3 3.248874 1_555
Na9 S1 3.248874 1_554
Na10 S11 2.814545 1_555
Na10 S10 2.814545 1_556
Na10 S8 2.967198 1_555
Na10 S9 2.967198 1_555
Na10 S3 3.375683 1_555
Na10 S1 3.375683 1_555
Na11 S9 2.814545 1_555
Na11 S8 2.814545 1_554
Na11 S10 2.967198 1_555
Na11 S11 2.967198 1_555
Na11 S2 3.375683 1_555
Na11 S0 3.375683 1_555
In0 S7 2.438133 1_555
In0 S11 2.438477 1_555
In0 S1 2.515255 1_555
In0 S2 2.539195 1_565
In1 S5 2.438133 1_555
In1 S9 2.438477 1_555
In1 S2 2.515255 1_555
In1 S1 2.539195 1_545
In2 S4 2.438133 1_555
In2 S8 2.438477 1_555
In2 S0 2.515255 1_556
In2 S3 2.539195 1_655
In3 S6 2.438133 1_555
In3 S10 2.438477 1_555
In3 S3 2.515255 1_554
In3 S0 2.539195 1_455
