# generated using pymatgen
data_Ba6MgNb2Ir(ClO6)2
_symmetry_space_group_name_H-M   'P 1'
_cell_length_a   5.98652284
_cell_length_b   5.98655830
_cell_length_c   15.42798395
_cell_angle_alpha   83.56232546
_cell_angle_beta   96.43752788
_cell_angle_gamma   119.71189056
_symmetry_Int_Tables_number   1
_chemical_formula_structural   Ba6MgNb2Ir(ClO6)2
_chemical_formula_sum   'Ba6 Mg1 Nb2 Ir1 Cl2 O12'
_cell_volume   476.17198305
_cell_formula_units_Z   1
loop_
 _symmetry_equiv_pos_site_id
 _symmetry_equiv_pos_as_xyz
  1  'x, y, z'
loop_
 _atom_site_type_symbol
 _atom_site_label
 _atom_site_symmetry_multiplicity
 _atom_site_fract_x
 _atom_site_fract_y
 _atom_site_fract_z
 _atom_site_occupancy
  Ba  Ba0  1  0.09396500  0.90605800  0.39352900  1
  Ba  Ba1  1  0.31927900  0.68072700  0.78924400  1
  Ba  Ba2  1  0.62518000  0.37483400  0.63301600  1
  Ba  Ba3  1  0.67661100  0.32338500  0.91848900  1
  Ba  Ba4  1  0.36589500  0.63410600  0.05266000  1
  Ba  Ba5  1  0.72660400  0.27338100  0.21307900  1
  Mg  Mg0  1  0.40905600  0.59093700  0.29740400  1
  Nb  Nb0  1  0.99042000  0.00959300  0.81164200  1
  Nb  Nb1  1  0.05120300  0.94878500  0.17149800  1
  Ir  Ir0  1  0.02145900  0.97853500  0.00057800  1
  Cl  Cl0  1  0.74952800  0.25044500  0.42597400  1
  Cl  Cl1  1  0.23353800  0.76645200  0.58693700  1
  O  O0  1  0.15771700  0.29683400  0.91348300  1
  O  O1  1  0.30936700  0.18589200  0.75770800  1
  O  O2  1  0.22071200  0.25192800  0.24776400  1
  O  O3  1  0.81410200  0.69065400  0.75770600  1
  O  O4  1  0.81608200  0.18396300  0.75477300  1
  O  O5  1  0.87778700  0.65036500  0.08791800  1
  O  O6  1  0.22327800  0.77671700  0.24958400  1
  O  O7  1  0.34963000  0.12219000  0.08791600  1
  O  O8  1  0.87851800  0.12148500  0.08534500  1
  O  O9  1  0.70316600  0.84230000  0.91348000  1
  O  O10  1  0.74806700  0.77928500  0.24776700  1
  O  O11  1  0.15967100  0.84031600  0.91500300  1
loop_
_geom_bond_atom_site_label_1
_geom_bond_atom_site_label_2
_geom_bond_distance
_geom_bond_site_symmetry_2
Ba0 O6 2.737884 1_555
Ba0 O2 2.775147 1_565
Ba0 O10 2.775198 1_455
Ba0 Cl1 3.142326 1_555
Ba0 Cl0 3.416644 1_565
Ba0 Cl0 3.416925 1_455
Ba0 Cl0 3.664677 1_465
Ba1 O9 2.667458 1_555
Ba1 O0 2.667511 1_555
Ba1 O11 2.706740 1_555
Ba1 O3 3.026142 1_555
Ba1 O1 3.026266 1_555
Ba1 O1 3.037678 1_565
Ba1 O3 3.037778 1_455
Ba1 O4 3.052289 1_455
Ba1 O4 3.052517 1_565
Ba1 Cl1 3.132306 1_555
Ba2 O4 2.544042 1_555
Ba2 O1 2.600469 1_555
Ba2 O3 2.600483 1_555
Ba2 Cl1 3.317914 1_655
Ba2 Cl1 3.318063 1_545
Ba2 Cl0 3.595545 1_555
Ba3 O9 2.971937 1_545
Ba3 O0 2.972027 1_655
Ba3 O11 3.011454 1_655
Ba3 O11 3.011505 1_545
Ba3 O1 3.017469 1_555
Ba3 O3 3.017568 1_555
Ba3 O0 3.023289 1_555
Ba3 O9 3.023418 1_555
Ba3 O4 3.067566 1_555
Ba3 O8 3.098622 1_556
Ba3 O7 3.196753 1_556
Ba3 O5 3.196791 1_556
Ba4 O11 2.809522 1_554
Ba4 O0 2.849253 1_554
Ba4 O9 2.849273 1_554
Ba4 O5 3.006433 1_555
Ba4 O7 3.006573 1_555
Ba4 O8 3.048286 1_455
Ba4 O8 3.048299 1_565
Ba4 O7 3.081136 1_565
Ba4 O5 3.081249 1_455
Ba5 O7 2.651592 1_555
Ba5 O5 2.651610 1_555
Ba5 O8 2.676011 1_555
Ba5 O10 3.009757 1_545
Ba5 O2 3.009779 1_655
Ba5 O6 3.059582 1_545
Ba5 O6 3.059645 1_655
Ba5 O2 3.072019 1_555
Ba5 O10 3.072094 1_555
Ba5 Cl0 3.262264 1_555
Mg0 O10 1.965491 1_555
Mg0 O2 1.965514 1_555
Mg0 O6 1.968834 1_555
Nb0 O3 1.900976 1_545
Nb0 O1 1.900985 1_655
Nb0 O4 1.902099 1_555
Nb0 O11 2.211251 1_645
Nb0 O0 2.230363 1_655
Nb0 O9 2.230366 1_545
Nb1 O6 2.017153 1_555
Nb1 O10 2.023159 1_455
Nb1 O2 2.023172 1_565
Nb1 O5 2.076058 1_455
Nb1 O7 2.076095 1_565
Nb1 O8 2.085067 1_465
Ir0 O9 2.057359 1_454
Ir0 O0 2.057360 1_564
Ir0 O11 2.069047 1_554
Ir0 O8 2.098272 1_465
Ir0 O7 2.099122 1_565
Ir0 O5 2.099140 1_455
