# generated using pymatgen
data_La3BeGaS7
_symmetry_space_group_name_H-M   'P 1'
_cell_length_a   9.89286805
_cell_length_b   9.89286805
_cell_length_c   6.51444790
_cell_angle_alpha   90.00000000
_cell_angle_beta   90.00000000
_cell_angle_gamma   120.00000134
_symmetry_Int_Tables_number   1
_chemical_formula_structural   La3BeGaS7
_chemical_formula_sum   'La6 Be2 Ga2 S14'
_cell_volume   552.14440284
_cell_formula_units_Z   2
loop_
 _symmetry_equiv_pos_site_id
 _symmetry_equiv_pos_as_xyz
  1  'x, y, z'
loop_
 _atom_site_type_symbol
 _atom_site_label
 _atom_site_symmetry_multiplicity
 _atom_site_fract_x
 _atom_site_fract_y
 _atom_site_fract_z
 _atom_site_occupancy
  La  La0  1  0.37765124  0.19111118  0.72420322  1
  La  La1  1  0.80888882  0.18654007  0.72420322  1
  La  La2  1  0.62234876  0.80888882  0.22420322  1
  La  La3  1  0.81345993  0.62234876  0.72420322  1
  La  La4  1  0.19111118  0.81345993  0.22420322  1
  La  La5  1  0.18654007  0.37765124  0.22420322  1
  Be  Be0  1  0.00000000  -0.00000000  0.34637985  1
  Be  Be1  1  0.00000000  -0.00000000  0.84637985  1
  Ga  Ga0  1  0.33333300  0.66666700  0.64615042  1
  Ga  Ga1  1  0.66666700  0.33333300  0.14615042  1
  S  S0  1  0.33333300  0.66666700  0.99721778  1
  S  S1  1  0.66666700  0.33333300  0.49721778  1
  S  S2  1  0.08830408  0.54561312  0.50761770  1
  S  S3  1  0.45438688  0.54269096  0.50761770  1
  S  S4  1  0.91169592  0.45438688  0.00761770  1
  S  S5  1  0.45730904  0.91169592  0.50761770  1
  S  S6  1  0.54561312  0.45730904  0.00761770  1
  S  S7  1  0.54269096  0.08830408  0.00761770  1
  S  S8  1  0.11570781  0.23383972  0.81526341  1
  S  S9  1  0.76616028  0.88186809  0.81526341  1
  S  S10  1  0.88429219  0.76616028  0.31526341  1
  S  S11  1  0.11813191  0.88429219  0.81526341  1
  S  S12  1  0.23383972  0.11813191  0.31526341  1
  S  S13  1  0.88186809  0.11570781  0.31526341  1
loop_
_geom_bond_atom_site_label_1
_geom_bond_atom_site_label_2
_geom_bond_distance
_geom_bond_site_symmetry_2
La0 S1 2.884140 1_555
La0 S8 2.888110 1_555
La0 S11 2.892007 1_545
La0 S12 2.935162 1_555
La0 S6 2.954500 1_556
La0 S7 2.961337 1_556
La0 S3 3.467572 1_555
La0 S5 3.525760 1_545
La1 S1 2.884133 1_555
La1 S9 2.888110 1_545
La1 S8 2.892007 1_655
La1 S13 2.935162 1_555
La1 S7 2.954500 1_556
La1 S4 2.961337 1_556
La1 S5 3.467572 1_545
La1 S2 3.525759 1_655
La2 S0 2.884140 1_554
La2 S10 2.888110 1_555
La2 S13 2.892007 1_565
La2 S9 2.935162 1_554
La2 S3 2.954500 1_555
La2 S5 2.961337 1_555
La2 S6 3.467572 1_555
La2 S7 3.525760 1_565
La3 S1 2.884140 1_555
La3 S11 2.888110 1_655
La3 S9 2.892007 1_555
La3 S10 2.935162 1_555
La3 S4 2.954500 1_556
La3 S6 2.961337 1_556
La3 S2 3.467572 1_655
La3 S3 3.525759 1_555
La4 S0 2.884133 1_554
La4 S12 2.888110 1_565
La4 S10 2.892007 1_455
La4 S11 2.935162 1_554
La4 S5 2.954500 1_555
La4 S2 2.961337 1_555
La4 S7 3.467572 1_565
La4 S4 3.525759 1_455
La5 S0 2.884140 1_554
La5 S13 2.888110 1_455
La5 S12 2.892007 1_555
La5 S8 2.935162 1_554
La5 S2 2.954500 1_555
La5 S3 2.961337 1_555
La5 S4 3.467572 1_455
La5 S6 3.525759 1_555
Be0 S12 2.013680 1_555
Be0 S10 2.013680 1_445
Be0 S13 2.013681 1_455
Be1 S9 2.013680 1_445
Be1 S8 2.013680 1_555
Be1 S11 2.013681 1_545
Ga0 S2 2.285087 1_555
Ga0 S5 2.285087 1_555
Ga0 S3 2.285095 1_555
Ga0 S0 2.287010 1_555
Ga1 S4 2.285087 1_555
Ga1 S7 2.285087 1_555
Ga1 S6 2.285095 1_555
Ga1 S1 2.287010 1_555
