# generated using pymatgen
data_TmInRh
_symmetry_space_group_name_H-M   'P 1'
_cell_length_a   7.41093458
_cell_length_b   7.41093458
_cell_length_c   3.88227612
_cell_angle_alpha   90.00000000
_cell_angle_beta   90.00000000
_cell_angle_gamma   119.99999486
_symmetry_Int_Tables_number   1
_chemical_formula_structural   TmInRh
_chemical_formula_sum   'Tm3 In3 Rh3'
_cell_volume   184.65583448
_cell_formula_units_Z   3
loop_
 _symmetry_equiv_pos_site_id
 _symmetry_equiv_pos_as_xyz
  1  'x, y, z'
loop_
 _atom_site_type_symbol
 _atom_site_label
 _atom_site_symmetry_multiplicity
 _atom_site_fract_x
 _atom_site_fract_y
 _atom_site_fract_z
 _atom_site_occupancy
  Tm  Tm0  1  0.00000000  0.40512338  0.50000000  1
  Tm  Tm1  1  0.59487662  0.59487662  0.50000000  1
  Tm  Tm2  1  0.40512338  0.00000000  0.50000000  1
  In  In0  1  0.25843483  0.25843483  -0.00000000  1
  In  In1  1  0.00000000  0.74156517  -0.00000000  1
  In  In2  1  0.74156517  0.00000000  0.00000000  1
  Rh  Rh0  1  0.33333300  0.66666700  0.00000000  1
  Rh  Rh1  1  0.00000000  0.00000000  0.50000000  1
  Rh  Rh2  1  0.66666700  0.33333300  -0.00000000  1
loop_
_geom_bond_atom_site_label_1
_geom_bond_atom_site_label_2
_geom_bond_distance
_geom_bond_site_symmetry_2
In0 Rh1 2.726935 1_555
In0 Rh1 2.726935 1_554
In0 Rh2 2.789579 1_555
In0 Rh0 2.789579 1_555
In0 Tm1 3.159874 1_554
In0 Tm1 3.159874 1_555
In0 Tm2 3.271088 1_554
In0 Tm2 3.271088 1_555
In0 Tm0 3.271088 1_555
In0 Tm0 3.271088 1_554
In1 Rh1 2.726935 1_564
In1 Rh1 2.726935 1_565
In1 Rh0 2.789571 1_555
In1 Rh2 2.789576 1_455
In1 Tm0 3.159874 1_555
In1 Tm0 3.159874 1_554
In1 Tm1 3.271089 1_455
In1 Tm1 3.271089 1_454
In1 Tm2 3.271089 1_565
In1 Tm2 3.271089 1_564
In2 Rh1 2.726935 1_654
In2 Rh1 2.726935 1_655
In2 Rh2 2.789571 1_555
In2 Rh0 2.789576 1_545
In2 Tm2 3.159874 1_554
In2 Tm2 3.159874 1_555
In2 Tm1 3.271089 1_545
In2 Tm1 3.271089 1_544
In2 Tm0 3.271089 1_655
In2 Tm0 3.271089 1_654
Rh0 Tm2 2.973082 1_564
Rh0 Tm2 2.973082 1_565
Rh0 Tm0 2.973084 1_554
Rh0 Tm0 2.973084 1_555
Rh0 Tm1 2.973087 1_555
Rh0 Tm1 2.973087 1_554
Rh1 Tm2 3.002343 1_555
Rh1 Tm0 3.002343 1_555
Rh1 Tm1 3.002343 1_445
Rh2 Tm0 2.973082 1_654
Rh2 Tm0 2.973082 1_655
Rh2 Tm2 2.973084 1_555
Rh2 Tm2 2.973084 1_554
Rh2 Tm1 2.973087 1_555
Rh2 Tm1 2.973087 1_554
