# generated using pymatgen
data_Li6Fe3P8O29
_symmetry_space_group_name_H-M   'P 1'
_cell_length_a   9.96860400
_cell_length_b   9.97142549
_cell_length_c   13.86515426
_cell_angle_alpha   90.08286681
_cell_angle_beta   90.11509451
_cell_angle_gamma   119.90714978
_symmetry_Int_Tables_number   1
_chemical_formula_structural   Li6Fe3P8O29
_chemical_formula_sum   'Li12 Fe6 P16 O58'
_cell_volume   1194.67533355
_cell_formula_units_Z   2
loop_
 _symmetry_equiv_pos_site_id
 _symmetry_equiv_pos_as_xyz
  1  'x, y, z'
loop_
 _atom_site_type_symbol
 _atom_site_label
 _atom_site_symmetry_multiplicity
 _atom_site_fract_x
 _atom_site_fract_y
 _atom_site_fract_z
 _atom_site_occupancy
  Li  Li0  1  0.69160600  0.78171700  0.56325800  1
  Li  Li1  1  0.31336200  0.22343300  0.43710600  1
  Li  Li2  1  0.31159700  0.08909400  0.93688500  1
  Li  Li3  1  0.78102600  0.69216000  0.93537400  1
  Li  Li4  1  0.66485500  0.33007300  0.12426900  1
  Li  Li5  1  0.91282600  0.69268300  0.43638600  1
  Li  Li6  1  0.09260000  0.77923400  0.06326200  1
  Li  Li7  1  0.21695500  0.30718800  0.06398000  1
  Li  Li8  1  0.08865200  0.30882400  0.56284600  1
  Li  Li9  1  0.91526000  0.22854700  0.93857700  1
  Li  Li10  1  0.22236000  0.91078900  0.56383700  1
  Li  Li11  1  0.78180100  0.09156700  0.43262100  1
  Fe  Fe0  1  0.56918800  0.56681200  0.74978400  1
  Fe  Fe1  1  0.43549500  0.00428100  0.75062600  1
  Fe  Fe2  1  0.00049000  0.56822400  0.25372200  1
  Fe  Fe3  1  0.99336800  0.42868800  0.75192100  1
  Fe  Fe4  1  0.56749000  0.99508500  0.24750700  1
  Fe  Fe5  1  0.42843100  0.43221700  0.24979000  1
  P  P0  1  0.09288800  0.76683700  0.84094400  1
  P  P1  1  0.90971100  0.67590700  0.65854600  1
  P  P2  1  0.66677600  0.33381400  0.87772700  1
  P  P3  1  0.66604000  0.33692500  0.37589000  1
  P  P4  1  0.76760000  0.67194500  0.15823200  1
  P  P5  1  0.32634600  0.09252700  0.15831600  1
  P  P6  1  0.67457200  0.76513400  0.34000400  1
  P  P7  1  0.68357800  0.91193000  0.83627700  1
  P  P8  1  0.23545600  0.32659000  0.84148600  1
  P  P9  1  0.33496700  0.66815700  0.62859700  1
  P  P10  1  0.32681400  0.66107300  0.12707000  1
  P  P11  1  0.09066800  0.32490200  0.34196600  1
  P  P12  1  0.90385400  0.23237200  0.16018400  1
  P  P13  1  0.23691700  0.91147000  0.34190300  1
  P  P14  1  0.76512400  0.09075600  0.65374500  1
  P  P15  1  0.32488100  0.23407100  0.65893700  1
  O  O0  1  0.89402400  0.51697200  0.67371600  1
  O  O1  1  0.33215600  0.08342100  0.65900800  1
  O  O2  1  0.24692000  0.00153100  0.43242700  1
  O  O3  1  0.21999200  0.00213000  0.24987700  1
  O  O4  1  0.33191500  0.24975100  0.15715900  1
  O  O5  1  0.24684600  0.24775000  0.93225600  1
  O  O6  1  0.67114300  0.75225400  0.84047100  1
  O  O7  1  0.77884700  0.98602600  0.73800000  1
  O  O8  1  0.75149600  0.00449400  0.56068000  1
  O  O9  1  0.67058700  0.91774400  0.33955500  1
  O  O10  1  0.51467300  0.62494200  0.32211300  1
  O  O11  1  0.48926300  0.67743100  0.65596900  1
  O  O12  1  0.37763400  0.48561300  0.82437100  1
  O  O13  1  0.24528200  0.24505100  0.56826100  1
  O  O14  1  0.21659700  0.21661800  0.75035400  1
  O  O15  1  0.24777300  0.33039900  0.34087400  1
  O  O16  1  0.47521000  0.80465900  0.16387200  1
  O  O17  1  0.52543800  0.90164000  0.82858500  1
  O  O18  1  0.32183200  0.50848300  0.15383800  1
  O  O19  1  0.34417100  0.68797400  0.01614000  1
  O  O20  1  0.30400400  0.64159500  0.51789500  1
  O  O21  1  0.38016400  0.89604300  0.32584300  1
  O  O22  1  0.18966700  0.51395300  0.66061500  1
  O  O23  1  0.33044600  0.81512700  0.65843400  1
  O  O24  1  0.08493300  0.33448700  0.84181200  1
  O  O25  1  0.99716400  0.21676900  0.25067200  1
  O  O26  1  0.99766600  0.25201300  0.07029000  1
  O  O27  1  0.00106200  0.24668800  0.43245100  1
  O  O28  1  0.10799100  0.48430700  0.32517600  1
  O  O29  1  0.17699000  0.66144500  0.15551500  1
  O  O30  1  0.91750600  0.24706600  0.65832700  1
  O  O31  1  0.10786400  0.62311900  0.82472300  1
  O  O32  1  0.25077600  0.91697900  0.84096600  1
  O  O33  1  0.77566000  0.01248300  0.92050200  1
  O  O34  1  0.25018300  0.99898600  0.06858200  1
  O  O35  1  0.08564900  0.75395700  0.34161100  1
  O  O36  1  0.74626500  0.08447600  0.16000700  1
  O  O37  1  0.87728400  0.37120400  0.17833200  1
  O  O38  1  0.81128100  0.32513900  0.84353400  1
  O  O39  1  0.51497000  0.33094800  0.34296500  1
  O  O40  1  0.99995000  0.75598200  0.56818200  1
  O  O41  1  0.00312700  0.75563800  0.93188100  1
  O  O42  1  0.00043500  0.78479700  0.75017900  1
  O  O43  1  0.91976100  0.66645900  0.16028100  1
  O  O44  1  0.67502100  0.19076400  0.34552600  1
  O  O45  1  0.62488300  0.10926300  0.67435300  1
  O  O46  1  0.81163900  0.48970300  0.34686600  1
  O  O47  1  0.65976100  0.31297800  0.48721800  1
  O  O48  1  0.66736800  0.33519800  0.98825900  1
  O  O49  1  0.67522000  0.48654400  0.84335800  1
  O  O50  1  0.49173500  0.12046600  0.17610400  1
  O  O51  1  0.48425900  0.37687200  0.67426000  1
  O  O52  1  0.75143300  0.66817000  0.65803500  1
  O  O53  1  0.78214600  0.77923900  0.24874900  1
  O  O54  1  0.75704800  0.74404700  0.06533400  1
  O  O55  1  0.75250600  0.75293100  0.43102200  1
  O  O56  1  0.62791400  0.50785000  0.17422600  1
  O  O57  1  0.51388800  0.18877800  0.84425900  1
loop_
_geom_bond_atom_site_label_1
_geom_bond_atom_site_label_2
_geom_bond_distance
_geom_bond_site_symmetry_2
Li0 O8 1.992527 1_565
Li0 O55 1.997319 1_555
Li0 O52 2.009721 1_555
Li0 O11 2.173705 1_555
Li1 O2 1.968969 1_555
Li1 O13 1.990890 1_555
Li1 O15 2.010336 1_555
Li1 O39 2.181337 1_555
Li2 O5 1.985444 1_555
Li2 O34 1.994265 1_546
Li2 O32 2.008556 1_545
Li2 O57 2.172365 1_555
Li3 O54 1.921999 1_556
Li3 O41 1.976865 1_655
Li3 O6 1.985295 1_555
Li3 O49 2.185048 1_555
Li4 O48 1.886444 1_554
Li4 O50 2.067777 1_555
Li4 O37 2.083525 1_555
Li4 O56 2.099107 1_555
Li5 O55 1.969174 1_555
Li5 O40 1.983840 1_555
Li5 O35 2.007461 1_655
Li5 O46 2.146271 1_555
Li6 O34 1.959898 1_555
Li6 O41 1.987999 1_554
Li6 O43 2.030835 1_455
Li6 O29 2.169937 1_555
Li7 O26 1.972452 1_455
Li7 O5 1.987677 1_554
Li7 O4 1.990255 1_555
Li7 O18 2.137538 1_555
Li8 O13 1.959006 1_555
Li8 O27 1.966188 1_555
Li8 O30 2.001577 1_455
Li8 O22 2.228893 1_555
Li9 O33 1.910077 1_555
Li9 O26 1.966142 1_556
Li9 O24 2.002075 1_655
Li9 O38 2.175395 1_555
Li10 O40 1.972322 1_455
Li10 O2 1.996012 1_565
Li10 O1 2.002800 1_565
Li10 O23 2.194076 1_555
Li11 O8 1.934624 1_555
Li11 O27 1.949004 1_655
Li11 O9 1.992478 1_545
Li11 O44 2.148934 1_555
Fe0 O51 1.947345 1_555
Fe0 O12 1.959580 1_555
Fe0 O52 2.030340 1_555
Fe0 O6 2.036494 1_555
Fe0 O49 2.069363 1_555
Fe0 O11 2.102330 1_555
Fe1 O45 1.954215 1_555
Fe1 O17 1.983474 1_545
Fe1 O1 2.026298 1_555
Fe1 O32 2.032592 1_545
Fe1 O57 2.058151 1_555
Fe1 O23 2.075116 1_545
Fe2 O28 1.929364 1_555
Fe2 O37 2.010831 1_455
Fe2 O35 2.014234 1_555
Fe2 O43 2.017724 1_455
Fe2 O29 2.048472 1_555
Fe2 O46 2.089938 1_455
Fe3 O0 1.949166 1_555
Fe3 O31 1.965576 1_655
Fe3 O38 2.029409 1_555
Fe3 O24 2.030435 1_655
Fe3 O30 2.039430 1_555
Fe3 O22 2.123379 1_655
Fe4 O21 1.953040 1_555
Fe4 O36 1.967268 1_565
Fe4 O16 2.010959 1_555
Fe4 O50 2.013837 1_565
Fe4 O9 2.016870 1_555
Fe4 O44 2.168877 1_565
Fe5 O10 1.944532 1_555
Fe5 O15 2.014576 1_555
Fe5 O4 2.031813 1_555
Fe5 O56 2.033718 1_555
Fe5 O18 2.068955 1_555
Fe5 O39 2.073846 1_555
O0 P1 1.527834 1_555
O1 P15 1.539640 1_555
O2 P13 1.516147 1_545
O3 P5 1.613668 1_555
O3 P13 1.621211 1_545
O4 P5 1.540928 1_555
O5 P8 1.518598 1_555
O6 P7 1.535358 1_555
O7 P7 1.616468 1_555
O7 P14 1.618440 1_565
O8 P14 1.517535 1_555
O9 P6 1.541952 1_555
O10 P6 1.527046 1_555
O11 P9 1.540812 1_555
O12 P8 1.529977 1_555
O13 P15 1.518315 1_555
O14 P15 1.618909 1_555
O14 P8 1.619836 1_555
O15 P11 1.539628 1_555
O16 P10 1.543189 1_555
O17 P7 1.531354 1_555
O18 P10 1.543260 1_555
O19 P10 1.556761 1_555
O20 P9 1.561006 1_555
O21 P13 1.527278 1_555
O22 P9 1.563014 1_555
O23 P9 1.544360 1_555
O24 P8 1.541293 1_555
O25 P12 1.613601 1_555
O25 P11 1.619502 1_655
O26 P12 1.512996 1_555
O27 P11 1.514191 1_555
O28 P11 1.529061 1_555
O29 P10 1.547287 1_555
O30 P14 1.542465 1_555
O31 P0 1.529416 1_555
O32 P0 1.539116 1_555
O33 P7 1.512011 1_545
O34 P5 1.510325 1_565
O35 P13 1.542386 1_555
O36 P12 1.527241 1_555
O37 P12 1.553963 1_555
O38 P2 1.560194 1_555
O39 P3 1.545159 1_555
O40 P1 1.519114 1_555
O41 P0 1.519269 1_555
O42 P1 1.619635 1_455
O42 P0 1.620431 1_555
O43 P4 1.545042 1_555
O44 P3 1.561365 1_555
O45 P14 1.526054 1_555
O46 P3 1.545499 1_555
O47 P3 1.558886 1_555
O48 P2 1.532558 1_555
O49 P2 1.558181 1_555
O50 P5 1.548157 1_555
O51 P15 1.529294 1_555
O52 P1 1.540798 1_555
O53 P4 1.606688 1_555
O53 P6 1.620556 1_555
O54 P4 1.504851 1_555
O55 P6 1.517146 1_555
O56 P4 1.547821 1_555
O57 P2 1.557867 1_555
