# generated using pymatgen
data_Ge19(PI)4
_symmetry_space_group_name_H-M   'P 1'
_cell_length_a   10.68904600
_cell_length_b   10.68904600
_cell_length_c   10.68904600
_cell_angle_alpha   90.00000000
_cell_angle_beta   90.00000000
_cell_angle_gamma   90.00000000
_symmetry_Int_Tables_number   1
_chemical_formula_structural   Ge19(PI)4
_chemical_formula_sum   'Ge38 P8 I8'
_cell_volume   1221.28447999
_cell_formula_units_Z   2
loop_
 _symmetry_equiv_pos_site_id
 _symmetry_equiv_pos_as_xyz
  1  'x, y, z'
loop_
 _atom_site_type_symbol
 _atom_site_label
 _atom_site_symmetry_multiplicity
 _atom_site_fract_x
 _atom_site_fract_y
 _atom_site_fract_z
 _atom_site_occupancy
  Ge  Ge0  1  0.99833600  0.11897400  0.30605400  1
  Ge  Ge1  1  0.50166400  0.80605400  0.38102600  1
  Ge  Ge2  1  0.50166400  0.19394600  0.61897400  1
  Ge  Ge3  1  0.19394600  0.38102600  0.49833600  1
  Ge  Ge4  1  0.80605400  0.38102600  0.50166400  1
  Ge  Ge5  1  0.61897400  0.50166400  0.19394600  1
  Ge  Ge6  1  0.38102600  0.49833600  0.19394600  1
  Ge  Ge7  1  0.30605400  0.99833600  0.11897400  1
  Ge  Ge8  1  0.11897400  0.30605400  0.99833600  1
  Ge  Ge9  1  0.88102600  0.69394600  0.99833600  1
  Ge  Ge10  1  0.30605400  0.00166400  0.88102600  1
  Ge  Ge11  1  0.88102600  0.30605400  0.00166400  1
  Ge  Ge12  1  0.69394600  0.00166400  0.11897400  1
  Ge  Ge13  1  0.69394600  0.99833600  0.88102600  1
  Ge  Ge14  1  0.11897400  0.69394600  0.00166400  1
  Ge  Ge15  1  0.99833600  0.88102600  0.69394600  1
  Ge  Ge16  1  0.00166400  0.11897400  0.69394600  1
  Ge  Ge17  1  0.00166400  0.88102600  0.30605400  1
  Ge  Ge18  1  0.38102600  0.50166400  0.80605400  1
  Ge  Ge19  1  0.61897400  0.49833600  0.80605400  1
  Ge  Ge20  1  0.19394600  0.61897400  0.50166400  1
  Ge  Ge21  1  0.80605400  0.61897400  0.49833600  1
  Ge  Ge22  1  0.49833600  0.19394600  0.38102600  1
  Ge  Ge23  1  0.49833600  0.80605400  0.61897400  1
  Ge  Ge24  1  0.18584100  0.18584100  0.18584100  1
  Ge  Ge25  1  0.31415900  0.68584100  0.31415900  1
  Ge  Ge26  1  0.31415900  0.31415900  0.68584100  1
  Ge  Ge27  1  0.68584100  0.31415900  0.31415900  1
  Ge  Ge28  1  0.81415900  0.81415900  0.18584100  1
  Ge  Ge29  1  0.18584100  0.81415900  0.81415900  1
  Ge  Ge30  1  0.81415900  0.18584100  0.81415900  1
  Ge  Ge31  1  0.68584100  0.68584100  0.68584100  1
  Ge  Ge32  1  0.00000000  0.25000000  0.50000000  1
  Ge  Ge33  1  0.50000000  0.00000000  0.25000000  1
  Ge  Ge34  1  0.50000000  0.00000000  0.75000000  1
  Ge  Ge35  1  0.75000000  0.50000000  0.00000000  1
  Ge  Ge36  1  0.25000000  0.50000000  0.00000000  1
  Ge  Ge37  1  0.00000000  0.75000000  0.50000000  1
  P  P0  1  0.81583600  0.81583600  0.81583600  1
  P  P1  1  0.68416400  0.31583600  0.68416400  1
  P  P2  1  0.68416400  0.68416400  0.31583600  1
  P  P3  1  0.31583600  0.68416400  0.68416400  1
  P  P4  1  0.18416400  0.18416400  0.81583600  1
  P  P5  1  0.81583600  0.18416400  0.18416400  1
  P  P6  1  0.18416400  0.81583600  0.18416400  1
  P  P7  1  0.31583600  0.31583600  0.31583600  1
  I  I0  1  0.00000000  0.50000000  0.25000000  1
  I  I1  1  0.50000000  0.75000000  0.00000000  1
  I  I2  1  0.50000000  0.25000000  0.00000000  1
  I  I3  1  0.25000000  0.00000000  0.50000000  1
  I  I4  1  0.75000000  0.00000000  0.50000000  1
  I  I5  1  0.00000000  0.50000000  0.75000000  1
  I  I6  1  0.00000000  0.00000000  0.00000000  1
  I  I7  1  0.50000000  0.50000000  0.50000000  1
loop_
_geom_bond_atom_site_label_1
_geom_bond_atom_site_label_2
_geom_bond_distance
_geom_bond_site_symmetry_2
Ge0 P5 2.447142 1_555
Ge0 Ge24 2.485760 1_655
Ge0 Ge32 2.501913 1_655
Ge0 Ge17 2.543686 1_645
Ge1 P2 2.447142 1_555
Ge1 Ge25 2.485760 1_555
Ge1 Ge33 2.501913 1_565
Ge1 Ge23 2.543686 1_555
Ge2 P1 2.447142 1_555
Ge2 Ge26 2.485760 1_555
Ge2 Ge34 2.501913 1_555
Ge2 Ge22 2.543686 1_555
Ge3 P7 2.447142 1_555
Ge3 Ge32 2.501913 1_555
Ge4 P1 2.447142 1_555
Ge5 P2 2.447142 1_555
Ge5 Ge6 2.543686 1_555
Ge6 P7 2.447142 1_555
Ge7 P6 2.447142 1_555
Ge8 P4 2.447142 1_555
Ge9 P0 2.447142 1_555
Ge10 P4 2.447142 1_555
Ge10 Ge29 2.485760 1_545
Ge10 Ge34 2.501913 1_555
Ge10 Ge7 2.543686 1_546
Ge11 P5 2.447142 1_555
Ge11 Ge30 2.485760 1_554
Ge11 Ge35 2.501913 1_555
Ge11 Ge8 2.543686 1_654
Ge12 P5 2.447142 1_555
Ge12 Ge28 2.485760 1_545
Ge12 Ge33 2.501913 1_555
Ge12 Ge13 2.543686 1_544
Ge13 P0 2.447142 1_555
Ge13 Ge30 2.485760 1_565
Ge13 Ge34 2.501913 1_565
Ge14 P6 2.447142 1_555
Ge14 Ge29 2.485760 1_554
Ge14 Ge36 2.501913 1_555
Ge14 Ge9 2.543686 1_454
Ge15 P0 2.447142 1_555
Ge15 Ge29 2.485760 1_655
Ge15 Ge37 2.501913 1_655
Ge15 Ge16 2.543686 1_665
Ge16 P4 2.447142 1_555
Ge16 Ge30 2.485760 1_455
Ge16 Ge32 2.501913 1_555
Ge17 P6 2.447142 1_555
Ge17 Ge28 2.485760 1_455
Ge17 Ge37 2.501913 1_555
Ge18 P3 2.447142 1_555
Ge18 Ge26 2.485760 1_555
Ge18 Ge36 2.501913 1_556
Ge18 Ge19 2.543686 1_555
Ge19 P1 2.447142 1_555
Ge19 Ge31 2.485760 1_555
Ge19 Ge35 2.501913 1_556
Ge20 P3 2.447142 1_555
Ge20 Ge25 2.485760 1_555
Ge20 Ge37 2.501913 1_555
Ge20 Ge3 2.543686 1_555
Ge21 P2 2.447142 1_555
Ge21 Ge31 2.485760 1_555
Ge21 Ge37 2.501913 1_655
Ge21 Ge4 2.543686 1_555
Ge22 P7 2.447142 1_555
Ge22 Ge27 2.485760 1_555
Ge22 Ge33 2.501913 1_555
Ge23 P3 2.447142 1_555
Ge23 Ge31 2.485760 1_555
Ge23 Ge34 2.501913 1_565
Ge24 P7 2.406724 1_555
Ge24 Ge7 2.485760 1_545
Ge24 Ge8 2.485760 1_554
Ge25 P6 2.406724 1_555
Ge25 Ge6 2.485760 1_555
Ge26 P4 2.406724 1_555
Ge26 Ge3 2.485760 1_555
Ge27 P5 2.406724 1_555
Ge27 Ge5 2.485760 1_555
Ge27 Ge4 2.485760 1_555
Ge28 P2 2.406724 1_555
Ge28 Ge9 2.485760 1_554
Ge29 P3 2.406724 1_555
Ge30 P1 2.406724 1_555
Ge31 P0 2.406724 1_555
Ge32 Ge4 2.501913 1_455
Ge33 Ge7 2.501913 1_545
Ge35 Ge5 2.501913 1_555
Ge35 Ge9 2.501913 1_554
Ge36 Ge6 2.501913 1_555
Ge36 Ge8 2.501913 1_554
