# generated using pymatgen
data_Na3ZrNb(SiO4)3
_symmetry_space_group_name_H-M   'P 1'
_cell_length_a   15.85771822
_cell_length_b   9.17842666
_cell_length_c   9.14299688
_cell_angle_alpha   90.00000000
_cell_angle_beta   124.92339037
_cell_angle_gamma   90.00000000
_symmetry_Int_Tables_number   1
_chemical_formula_structural   Na3ZrNb(SiO4)3
_chemical_formula_sum   'Na12 Zr4 Nb4 Si12 O48'
_cell_volume   1091.10879222
_cell_formula_units_Z   4
loop_
 _symmetry_equiv_pos_site_id
 _symmetry_equiv_pos_as_xyz
  1  'x, y, z'
loop_
 _atom_site_type_symbol
 _atom_site_label
 _atom_site_symmetry_multiplicity
 _atom_site_fract_x
 _atom_site_fract_y
 _atom_site_fract_z
 _atom_site_occupancy
  Na  Na0  1  0.25429786  0.72764889  0.99878728  1
  Na  Na1  1  0.75429786  0.77235111  0.49878728  1
  Na  Na2  1  0.75429786  0.22764889  0.99878728  1
  Na  Na3  1  0.25429786  0.27235111  0.49878728  1
  Na  Na4  1  0.49923219  0.11120228  0.74488001  1
  Na  Na5  1  0.49923219  0.88879772  0.24488001  1
  Na  Na6  1  0.99923219  0.61120228  0.74488001  1
  Na  Na7  1  0.99923219  0.38879772  0.24488001  1
  Na  Na8  1  0.19057683  0.94414966  0.29447719  1
  Na  Na9  1  0.19057683  0.05585034  0.79447719  1
  Na  Na10  1  0.69057683  0.44414966  0.29447719  1
  Na  Na11  1  0.69057683  0.55585034  0.79447719  1
  Zr  Zr0  1  0.10655320  0.74917254  0.56746595  1
  Zr  Zr1  1  0.10655320  0.25082746  0.06746595  1
  Zr  Zr2  1  0.60655320  0.24917254  0.56746595  1
  Zr  Zr3  1  0.60655320  0.75082746  0.06746595  1
  Nb  Nb0  1  0.89296966  0.75398655  0.93375956  1
  Nb  Nb1  1  0.89296966  0.24601345  0.43375956  1
  Nb  Nb2  1  0.39296966  0.25398655  0.93375956  1
  Nb  Nb3  1  0.39296966  0.74601345  0.43375956  1
  Si  Si0  1  0.99547660  0.95938130  0.75440357  1
  Si  Si1  1  0.99547660  0.04061870  0.25440357  1
  Si  Si2  1  0.49547660  0.45938130  0.75440357  1
  Si  Si3  1  0.49547660  0.54061870  0.25440357  1
  Si  Si4  1  0.35489944  0.89865157  0.75622872  1
  Si  Si5  1  0.64533332  0.89054303  0.74363465  1
  Si  Si6  1  0.64533332  0.10945697  0.24363465  1
  Si  Si7  1  0.35489944  0.10134843  0.25622872  1
  Si  Si8  1  0.85489944  0.39865157  0.75622872  1
  Si  Si9  1  0.14533332  0.39054303  0.74363465  1
  Si  Si10  1  0.14533332  0.60945697  0.24363465  1
  Si  Si11  1  0.85489944  0.60134843  0.25622872  1
  O  O0  1  0.15381140  0.56652538  0.74569507  1
  O  O1  1  0.85004550  0.57930635  0.75642150  1
  O  O2  1  0.85004550  0.42069365  0.25642150  1
  O  O3  1  0.15381140  0.43347462  0.24569507  1
  O  O4  1  0.65381140  0.06652538  0.74569507  1
  O  O5  1  0.35004550  0.07930635  0.75642150  1
  O  O6  1  0.35004550  0.92069365  0.25642150  1
  O  O7  1  0.65381140  0.93347462  0.24569507  1
  O  O8  1  0.43290895  0.57452292  0.58135577  1
  O  O9  1  0.56568161  0.55536872  0.93258862  1
  O  O10  1  0.56568161  0.44463128  0.43258862  1
  O  O11  1  0.43290895  0.42547708  0.08135577  1
  O  O12  1  0.93290895  0.07452292  0.58135577  1
  O  O13  1  0.06568161  0.05536872  0.93258862  1
  O  O14  1  0.06568161  0.94463128  0.43258862  1
  O  O15  1  0.93290895  0.92547708  0.08135577  1
  O  O16  1  0.25635581  0.83904455  0.75141298  1
  O  O17  1  0.74067573  0.80516293  0.75542036  1
  O  O18  1  0.74067573  0.19483707  0.25542036  1
  O  O19  1  0.25635581  0.16095545  0.25141298  1
  O  O20  1  0.75635581  0.33904455  0.75141298  1
  O  O21  1  0.24067573  0.30516293  0.75542036  1
  O  O22  1  0.24067573  0.69483707  0.25542036  1
  O  O23  1  0.75635581  0.66095545  0.25141298  1
  O  O24  1  0.35494572  0.85771928  0.57773650  1
  O  O25  1  0.64497260  0.84010863  0.91220637  1
  O  O26  1  0.64497260  0.15989137  0.41220637  1
  O  O27  1  0.35494572  0.14228072  0.07773650  1
  O  O28  1  0.85494572  0.35771928  0.57773650  1
  O  O29  1  0.14497260  0.34010863  0.91220637  1
  O  O30  1  0.14497260  0.65989137  0.41220637  1
  O  O31  1  0.85494572  0.64228072  0.07773650  1
  O  O32  1  0.46108633  0.84249402  0.93568771  1
  O  O33  1  0.53543012  0.82946821  0.56115551  1
  O  O34  1  0.53543012  0.17053179  0.06115551  1
  O  O35  1  0.46108633  0.15750598  0.43568771  1
  O  O36  1  0.96108633  0.34249402  0.93568771  1
  O  O37  1  0.03543012  0.32946821  0.56115551  1
  O  O38  1  0.03543012  0.67053179  0.06115551  1
  O  O39  1  0.96108633  0.65750598  0.43568771  1
  O  O40  1  0.07346451  0.85285156  0.74109387  1
  O  O41  1  0.91128262  0.85546473  0.75558881  1
  O  O42  1  0.91128262  0.14453527  0.25558881  1
  O  O43  1  0.07346451  0.14714844  0.24109387  1
  O  O44  1  0.57346451  0.35285156  0.74109387  1
  O  O45  1  0.41128262  0.35546473  0.75558881  1
  O  O46  1  0.41128262  0.64453527  0.25558881  1
  O  O47  1  0.57346451  0.64714844  0.24109387  1
loop_
_geom_bond_atom_site_label_1
_geom_bond_atom_site_label_2
_geom_bond_distance
_geom_bond_site_symmetry_2
Na0 O46 2.366360 1_556
Na0 O0 2.420544 1_555
Na0 O22 2.494647 1_556
Na0 O16 2.499286 1_555
Na0 O6 2.626486 1_556
Na0 O40 2.712775 1_555
Na1 O41 2.366360 1_555
Na1 O7 2.420544 1_555
Na1 O17 2.494647 1_555
Na1 O23 2.499286 1_555
Na1 O1 2.626486 1_555
Na1 O47 2.712775 1_555
Na2 O42 2.366360 1_556
Na2 O4 2.420544 1_555
Na2 O18 2.494647 1_556
Na2 O20 2.499286 1_555
Na2 O2 2.626486 1_556
Na2 O44 2.712775 1_555
Na3 O45 2.366360 1_555
Na3 O3 2.420544 1_555
Na3 O21 2.494647 1_555
Na3 O19 2.499286 1_555
Na3 O5 2.626486 1_555
Na3 O43 2.712775 1_555
Na4 O5 2.445301 1_555
Na4 O4 2.481136 1_555
Na4 O44 2.520495 1_555
Na4 O35 2.565194 1_555
Na4 O34 2.662234 1_556
Na4 O45 2.671588 1_555
Na5 O6 2.445301 1_555
Na5 O7 2.481136 1_555
Na5 O47 2.520495 1_555
Na5 O32 2.565194 1_554
Na5 O33 2.662234 1_555
Na5 O46 2.671588 1_555
Na6 O1 2.445301 1_555
Na6 O0 2.481136 1_655
Na6 O40 2.520495 1_655
Na6 O39 2.565194 1_555
Na6 O38 2.662234 1_656
Na6 O41 2.671588 1_555
Na7 O2 2.445301 1_555
Na7 O3 2.481136 1_655
Na7 O43 2.520495 1_655
Na7 O36 2.565194 1_554
Na7 O37 2.662234 1_655
Na7 O42 2.671588 1_555
Na8 O19 2.381845 1_565
Na8 O43 2.474043 1_565
Na8 O22 2.513922 1_555
Na8 O24 2.530118 1_555
Na8 O6 2.751312 1_555
Na8 O14 2.894934 1_555
Na8 O13 2.899889 1_564
Na9 O16 2.381845 1_545
Na9 O40 2.474043 1_545
Na9 O21 2.513922 1_555
Na9 O27 2.530118 1_556
Na9 O5 2.751312 1_555
Na9 O13 2.894934 1_555
Na9 O14 2.899889 1_545
Na10 O23 2.381845 1_555
Na10 O47 2.474043 1_555
Na10 O18 2.513922 1_555
Na10 O28 2.530118 1_555
Na10 O2 2.751312 1_555
Na10 O10 2.894934 1_555
Na10 O9 2.899889 1_554
Na11 O20 2.381845 1_555
Na11 O44 2.474043 1_555
Na11 O17 2.513922 1_555
Na11 O31 2.530118 1_556
Na11 O1 2.751312 1_555
Na11 O9 2.894934 1_555
Na11 O10 2.899889 1_555
Nb0 O15 1.929026 1_556
Nb0 O38 2.008524 1_656
Nb0 O31 2.014062 1_556
Nb0 O41 2.036466 1_555
Nb0 O17 2.050135 1_555
Nb0 O1 2.097418 1_555
Nb1 O12 1.929026 1_555
Nb1 O37 2.008524 1_655
Nb1 O28 2.014062 1_555
Nb1 O42 2.036466 1_555
Nb1 O18 2.050135 1_555
Nb1 O2 2.097418 1_555
Nb2 O11 1.929026 1_556
Nb2 O34 2.008524 1_556
Nb2 O27 2.014062 1_556
Nb2 O45 2.036466 1_555
Nb2 O21 2.050135 1_555
Nb2 O5 2.097418 1_555
Nb3 O8 1.929026 1_555
Nb3 O33 2.008524 1_555
Nb3 O24 2.014062 1_555
Nb3 O46 2.036466 1_555
Nb3 O22 2.050135 1_555
Nb3 O6 2.097418 1_555
O0 Si9 1.620041 1_555
O0 Zr0 2.151553 1_555
O1 Si8 1.659960 1_555
O2 Si11 1.659960 1_555
O3 Si10 1.620041 1_555
O3 Zr1 2.151553 1_555
O4 Si5 1.620041 1_545
O4 Zr2 2.151553 1_555
O5 Si4 1.659960 1_545
O6 Si7 1.659960 1_565
O7 Si6 1.620041 1_565
O7 Zr3 2.151553 1_555
O8 Si2 1.675471 1_555
O9 Si2 1.610306 1_555
O9 Zr3 2.060130 1_556
O10 Si3 1.610306 1_555
O10 Zr2 2.060130 1_555
O11 Si3 1.675471 1_555
O12 Si0 1.675471 1_545
O13 Si0 1.610306 1_445
O13 Zr1 2.060130 1_556
O14 Si1 1.610306 1_465
O14 Zr0 2.060130 1_555
O15 Si1 1.675471 1_565
O16 Si4 1.632310 1_555
O16 Zr0 2.139562 1_555
O17 Si5 1.650779 1_555
O18 Si6 1.650779 1_555
O19 Si7 1.632310 1_555
O19 Zr1 2.139562 1_555
O20 Si8 1.632310 1_555
O20 Zr2 2.139562 1_555
O21 Si9 1.650779 1_555
O22 Si10 1.650779 1_555
O23 Si11 1.632310 1_555
O23 Zr3 2.139562 1_555
O24 Si4 1.675050 1_555
O25 Si5 1.612410 1_555
O25 Zr3 2.011963 1_556
O26 Si6 1.612410 1_555
O26 Zr2 2.011963 1_555
O27 Si7 1.675050 1_555
O28 Si8 1.675050 1_555
O29 Si9 1.612410 1_555
O29 Zr1 2.011963 1_556
O30 Si10 1.612410 1_555
O30 Zr0 2.011963 1_555
O31 Si11 1.675050 1_555
O32 Si4 1.621703 1_555
O32 Zr3 2.073291 1_556
O33 Si5 1.675109 1_555
O34 Si6 1.675109 1_555
O35 Si7 1.621703 1_555
O35 Zr2 2.073291 1_555
O36 Si8 1.621703 1_555
O36 Zr1 2.073291 1_656
O37 Si9 1.675109 1_555
O38 Si10 1.675109 1_555
O39 Si11 1.621703 1_555
O39 Zr0 2.073291 1_655
O40 Si0 1.634814 1_455
O40 Zr0 2.157473 1_555
O41 Si0 1.645891 1_555
O42 Si1 1.645891 1_555
O43 Si1 1.634814 1_455
O43 Zr1 2.157473 1_555
O44 Si2 1.634814 1_555
O44 Zr2 2.157473 1_555
O45 Si2 1.645891 1_555
O46 Si3 1.645891 1_555
O47 Si3 1.634814 1_555
O47 Zr3 2.157473 1_555
