# generated using pymatgen
data_EuSn2Ir
_symmetry_space_group_name_H-M   'P 1'
_cell_length_a   4.38378457
_cell_length_b   6.03991908
_cell_length_c   7.56183873
_cell_angle_alpha   90.00006700
_cell_angle_beta   90.00000000
_cell_angle_gamma   111.27845962
_symmetry_Int_Tables_number   1
_chemical_formula_structural   EuSn2Ir
_chemical_formula_sum   'Eu2 Sn4 Ir2'
_cell_volume   186.57066661
_cell_formula_units_Z   2
loop_
 _symmetry_equiv_pos_site_id
 _symmetry_equiv_pos_as_xyz
  1  'x, y, z'
loop_
 _atom_site_type_symbol
 _atom_site_label
 _atom_site_symmetry_multiplicity
 _atom_site_fract_x
 _atom_site_fract_y
 _atom_site_fract_z
 _atom_site_occupancy
  Eu  Eu0  1  0.93525224  0.87050348  0.25000100  1
  Eu  Eu1  1  0.06477303  0.12954706  0.75000000  1
  Sn  Sn0  1  0.35057203  0.70114406  0.54808123  1
  Sn  Sn1  1  0.64942151  0.29884502  0.45182256  1
  Sn  Sn2  1  0.35057303  0.70114406  0.95191877  1
  Sn  Sn3  1  0.64942151  0.29884402  0.04817644  1
  Ir  Ir0  1  0.78856834  0.57713867  0.75000000  1
  Ir  Ir1  1  0.21141832  0.42283464  0.25000000  1
loop_
_geom_bond_atom_site_label_1
_geom_bond_atom_site_label_2
_geom_bond_distance
_geom_bond_site_symmetry_2
Eu0 Ir1 3.108610 1_665
Eu0 Sn0 3.285364 1_655
Eu0 Sn0 3.285367 1_555
Eu0 Sn2 3.285373 1_554
Eu0 Sn2 3.285376 1_654
Eu0 Ir1 3.339541 1_555
Eu0 Ir1 3.339544 1_655
Eu0 Sn1 3.560998 1_555
Eu0 Sn3 3.561009 1_555
Eu0 Sn1 3.597959 1_665
Eu0 Sn1 3.597967 1_565
Eu0 Sn3 3.597968 1_665
Eu0 Sn3 3.597974 1_565
Eu1 Ir0 3.109045 1_445
Eu1 Sn3 3.285761 1_456
Eu1 Sn3 3.285761 1_556
Eu1 Sn1 3.285768 1_555
Eu1 Sn1 3.285771 1_455
Eu1 Ir0 3.339213 1_555
Eu1 Ir0 3.339216 1_455
Eu1 Sn2 3.560997 1_555
Eu1 Sn0 3.561000 1_555
Eu1 Sn2 3.598505 1_445
Eu1 Sn0 3.598505 1_445
Eu1 Sn0 3.598508 1_545
Eu1 Sn2 3.598513 1_545
Ir0 Sn1 2.745399 1_555
Ir0 Sn3 2.745400 1_556
Ir0 Sn2 2.760942 1_555
Ir0 Sn0 2.760946 1_555
Ir0 Sn0 2.760953 1_655
Ir0 Sn2 2.760956 1_655
Ir1 Sn0 2.744853 1_555
Ir1 Sn2 2.744856 1_554
Ir1 Sn1 2.760518 1_555
Ir1 Sn3 2.760525 1_555
Ir1 Sn1 2.760532 1_455
Ir1 Sn3 2.760535 1_455
