# generated using pymatgen
data_EuB2Rh3
_symmetry_space_group_name_H-M   'P 1'
_cell_length_a   11.22328166
_cell_length_b   11.22328371
_cell_length_c   5.87396460
_cell_angle_alpha   90.00000000
_cell_angle_beta   90.00000000
_cell_angle_gamma   119.99975643
_symmetry_Int_Tables_number   1
_chemical_formula_structural   EuB2Rh3
_chemical_formula_sum   'Eu8 B16 Rh24'
_cell_volume   640.77096716
_cell_formula_units_Z   8
loop_
 _symmetry_equiv_pos_site_id
 _symmetry_equiv_pos_as_xyz
  1  'x, y, z'
loop_
 _atom_site_type_symbol
 _atom_site_label
 _atom_site_symmetry_multiplicity
 _atom_site_fract_x
 _atom_site_fract_y
 _atom_site_fract_z
 _atom_site_occupancy
  Eu  Eu0_0  1  0.00000000  0.00000000  0.00000000  1
  Eu  Eu0_1  1  0.00000000  0.00000000  0.50000000  1
  Eu  Eu0_2  1  0.00000000  0.50000000  0.00000000  1
  Eu  Eu0_3  1  0.00000000  0.50000000  0.50000000  1
  Eu  Eu0_4  1  0.50000000  0.00000000  0.00000000  1
  Eu  Eu0_5  1  0.50000000  0.00000000  0.50000000  1
  Eu  Eu0_6  1  0.50000000  0.50000000  0.00000000  1
  Eu  Eu0_7  1  0.50000000  0.50000000  0.50000000  1
  B  B0_0  1  0.16666494  0.33333247  0.00000000  1
  B  B0_1  1  0.16666494  0.33333247  0.50000000  1
  B  B0_2  1  0.16666494  0.83333247  0.00000000  1
  B  B0_3  1  0.16666494  0.83333247  0.50000000  1
  B  B0_4  1  0.66666494  0.33333247  0.00000000  1
  B  B0_5  1  0.66666494  0.33333247  0.50000000  1
  B  B0_6  1  0.66666494  0.83333247  0.00000000  1
  B  B0_7  1  0.66666494  0.83333247  0.50000000  1
  B  B1_0  1  0.33333506  0.16666753  0.00000000  1
  B  B1_1  1  0.33333506  0.16666753  0.50000000  1
  B  B1_2  1  0.33333506  0.66666753  0.00000000  1
  B  B1_3  1  0.33333506  0.66666753  0.50000000  1
  B  B1_4  1  0.83333506  0.16666753  0.00000000  1
  B  B1_5  1  0.83333506  0.16666753  0.50000000  1
  B  B1_6  1  0.83333506  0.66666753  0.00000000  1
  B  B1_7  1  0.83333506  0.66666753  0.50000000  1
  Rh  Rh0_0  1  0.25000000  0.00000000  0.25000000  1
  Rh  Rh0_1  1  0.25000000  0.00000000  0.75000000  1
  Rh  Rh0_2  1  0.25000000  0.50000000  0.25000000  1
  Rh  Rh0_3  1  0.25000000  0.50000000  0.75000000  1
  Rh  Rh0_4  1  0.75000000  0.00000000  0.25000000  1
  Rh  Rh0_5  1  0.75000000  0.00000000  0.75000000  1
  Rh  Rh0_6  1  0.75000000  0.50000000  0.25000000  1
  Rh  Rh0_7  1  0.75000000  0.50000000  0.75000000  1
  Rh  Rh1_0  1  0.25000000  0.25000000  0.25000000  1
  Rh  Rh1_1  1  0.25000000  0.25000000  0.75000000  1
  Rh  Rh1_2  1  0.25000000  0.75000000  0.25000000  1
  Rh  Rh1_3  1  0.25000000  0.75000000  0.75000000  1
  Rh  Rh1_4  1  0.75000000  0.25000000  0.25000000  1
  Rh  Rh1_5  1  0.75000000  0.25000000  0.75000000  1
  Rh  Rh1_6  1  0.75000000  0.75000000  0.25000000  1
  Rh  Rh1_7  1  0.75000000  0.75000000  0.75000000  1
  Rh  Rh2_0  1  0.00000000  0.25000000  0.25000000  1
  Rh  Rh2_1  1  0.00000000  0.25000000  0.75000000  1
  Rh  Rh2_2  1  0.00000000  0.75000000  0.25000000  1
  Rh  Rh2_3  1  0.00000000  0.75000000  0.75000000  1
  Rh  Rh2_4  1  0.50000000  0.25000000  0.25000000  1
  Rh  Rh2_5  1  0.50000000  0.25000000  0.75000000  1
  Rh  Rh2_6  1  0.50000000  0.75000000  0.25000000  1
  Rh  Rh2_7  1  0.50000000  0.75000000  0.75000000  1
loop_
_geom_bond_atom_site_label_1
_geom_bond_atom_site_label_2
_geom_bond_distance
_geom_bond_site_symmetry_2
Eu0_0 Eu0_1 2.936982 1_555
Eu0_0 Eu0_1 2.936982 1_554
Eu0_0 Rh0_0 3.166875 1_555
Eu0_0 Rh0_1 3.166875 1_554
Eu0_0 Rh0_4 3.166875 1_455
Eu0_0 Rh0_5 3.166875 1_454
Eu0_0 Rh2_2 3.166875 1_545
Eu0_0 Rh2_0 3.166875 1_555
Eu0_0 Rh2_3 3.166875 1_544
Eu0_0 Rh2_1 3.166875 1_554
Eu0_0 Rh1_7 3.166884 1_444
Eu0_0 Rh1_0 3.166884 1_555
Eu0_0 Rh1_6 3.166884 1_445
Eu0_0 Rh1_1 3.166884 1_554
Eu0_1 Rh0_0 3.166875 1_555
Eu0_1 Rh0_1 3.166875 1_555
Eu0_1 Rh0_4 3.166875 1_455
Eu0_1 Rh0_5 3.166875 1_455
Eu0_1 Rh2_2 3.166875 1_545
Eu0_1 Rh2_3 3.166875 1_545
Eu0_1 Rh2_0 3.166875 1_555
Eu0_1 Rh2_1 3.166875 1_555
Eu0_1 Rh1_1 3.166884 1_555
Eu0_1 Rh1_0 3.166884 1_555
Eu0_1 Rh1_6 3.166884 1_445
Eu0_1 Rh1_7 3.166884 1_445
Eu0_2 Eu0_3 2.936982 1_554
Eu0_2 Eu0_3 2.936982 1_555
Eu0_2 Rh0_6 3.166875 1_455
Eu0_2 Rh0_3 3.166875 1_554
Eu0_2 Rh0_7 3.166875 1_454
Eu0_2 Rh0_2 3.166875 1_555
Eu0_2 Rh2_3 3.166875 1_554
Eu0_2 Rh2_0 3.166875 1_555
Eu0_2 Rh2_2 3.166875 1_555
Eu0_2 Rh2_1 3.166875 1_554
Eu0_2 Rh1_3 3.166884 1_554
Eu0_2 Rh1_2 3.166884 1_555
Eu0_2 Rh1_5 3.166884 1_454
Eu0_2 Rh1_4 3.166884 1_455
Eu0_3 Rh0_3 3.166875 1_555
Eu0_3 Rh0_6 3.166875 1_455
Eu0_3 Rh0_2 3.166875 1_555
Eu0_3 Rh0_7 3.166875 1_455
Eu0_3 Rh2_0 3.166875 1_555
Eu0_3 Rh2_3 3.166875 1_555
Eu0_3 Rh2_2 3.166875 1_555
Eu0_3 Rh2_1 3.166875 1_555
Eu0_3 Rh1_5 3.166884 1_455
Eu0_3 Rh1_3 3.166884 1_555
Eu0_3 Rh1_2 3.166884 1_555
Eu0_3 Rh1_4 3.166884 1_455
Eu0_4 Eu0_5 2.936982 1_554
Eu0_4 Eu0_5 2.936982 1_555
Eu0_4 Rh0_4 3.166875 1_555
Eu0_4 Rh0_5 3.166875 1_554
Eu0_4 Rh0_0 3.166875 1_555
Eu0_4 Rh0_1 3.166875 1_554
Eu0_4 Rh2_7 3.166875 1_544
Eu0_4 Rh2_6 3.166875 1_545
Eu0_4 Rh2_4 3.166875 1_555
Eu0_4 Rh2_5 3.166875 1_554
Eu0_4 Rh1_5 3.166884 1_554
Eu0_4 Rh1_4 3.166884 1_555
Eu0_4 Rh1_3 3.166884 1_544
Eu0_4 Rh1_2 3.166884 1_545
Eu0_5 Rh0_4 3.166875 1_555
Eu0_5 Rh0_5 3.166875 1_555
Eu0_5 Rh0_0 3.166875 1_555
Eu0_5 Rh0_1 3.166875 1_555
Eu0_5 Rh2_7 3.166875 1_545
Eu0_5 Rh2_6 3.166875 1_545
Eu0_5 Rh2_4 3.166875 1_555
Eu0_5 Rh2_5 3.166875 1_555
Eu0_5 Rh1_4 3.166884 1_555
Eu0_5 Rh1_5 3.166884 1_555
Eu0_5 Rh1_3 3.166884 1_545
Eu0_5 Rh1_2 3.166884 1_545
Eu0_6 Eu0_7 2.936982 1_555
Eu0_6 Eu0_7 2.936982 1_554
Eu0_6 Rh0_3 3.166875 1_554
Eu0_6 Rh0_6 3.166875 1_555
Eu0_6 Rh0_2 3.166875 1_555
Eu0_6 Rh0_7 3.166875 1_554
Eu0_6 Rh2_5 3.166875 1_554
Eu0_6 Rh2_4 3.166875 1_555
Eu0_6 Rh2_6 3.166875 1_555
Eu0_6 Rh2_7 3.166875 1_554
Eu0_6 Rh1_7 3.166884 1_554
Eu0_6 Rh1_0 3.166884 1_555
Eu0_6 Rh1_6 3.166884 1_555
Eu0_6 Rh1_1 3.166884 1_554
Eu0_7 Rh0_3 3.166875 1_555
Eu0_7 Rh0_6 3.166875 1_555
Eu0_7 Rh0_2 3.166875 1_555
Eu0_7 Rh0_7 3.166875 1_555
Eu0_7 Rh2_5 3.166875 1_555
Eu0_7 Rh2_4 3.166875 1_555
Eu0_7 Rh2_7 3.166875 1_555
Eu0_7 Rh2_6 3.166875 1_555
Eu0_7 Rh1_1 3.166884 1_555
Eu0_7 Rh1_7 3.166884 1_555
Eu0_7 Rh1_0 3.166884 1_555
Eu0_7 Rh1_6 3.166884 1_555
B0_0 Rh2_0 2.186466 1_555
B0_0 Rh2_1 2.186466 1_554
B0_0 Rh1_1 2.186480 1_554
B0_0 Rh1_0 2.186480 1_555
B0_0 Rh0_2 2.186485 1_555
B0_0 Rh0_3 2.186485 1_554
B0_0 Eu0_2 3.239870 1_555
B0_0 Eu0_0 3.239882 1_555
B0_0 Eu0_6 3.239907 1_555
B0_1 Rh2_0 2.186466 1_555
B0_1 Rh2_1 2.186466 1_555
B0_1 Rh1_1 2.186480 1_555
B0_1 Rh1_0 2.186480 1_555
B0_1 Rh0_3 2.186485 1_555
B0_1 Rh0_2 2.186485 1_555
B0_1 Eu0_3 3.239870 1_555
B0_1 Eu0_1 3.239882 1_555
B0_1 Eu0_7 3.239907 1_555
B0_2 Rh2_3 2.186466 1_554
B0_2 Rh2_2 2.186466 1_555
B0_2 Rh1_2 2.186480 1_555
B0_2 Rh1_3 2.186480 1_554
B0_2 Rh0_0 2.186485 1_565
B0_2 Rh0_1 2.186485 1_564
B0_2 Eu0_0 3.239870 1_565
B0_2 Eu0_2 3.239882 1_555
B0_2 Eu0_4 3.239907 1_565
B0_3 Rh2_3 2.186466 1_555
B0_3 Rh2_2 2.186466 1_555
B0_3 Rh1_2 2.186480 1_555
B0_3 Rh1_3 2.186480 1_555
B0_3 Rh0_0 2.186485 1_565
B0_3 Rh0_1 2.186485 1_565
B0_3 Eu0_1 3.239870 1_565
B0_3 Eu0_3 3.239882 1_555
B0_3 Eu0_5 3.239907 1_565
B0_4 Rh2_4 2.186466 1_555
B0_4 Rh2_5 2.186466 1_554
B0_4 Rh1_4 2.186480 1_555
B0_4 Rh1_5 2.186480 1_554
B0_4 Rh0_7 2.186485 1_554
B0_4 Rh0_6 2.186485 1_555
B0_4 Eu0_6 3.239870 1_555
B0_4 Eu0_4 3.239882 1_555
B0_4 Eu0_2 3.239907 1_655
B0_5 Rh2_5 2.186466 1_555
B0_5 Rh2_4 2.186466 1_555
B0_5 Rh1_4 2.186480 1_555
B0_5 Rh1_5 2.186480 1_555
B0_5 Rh0_7 2.186485 1_555
B0_5 Rh0_6 2.186485 1_555
B0_5 Eu0_7 3.239870 1_555
B0_5 Eu0_5 3.239882 1_555
B0_5 Eu0_3 3.239907 1_655
B0_6 Rh2_7 2.186466 1_554
B0_6 Rh2_6 2.186466 1_555
B0_6 Rh1_7 2.186480 1_554
B0_6 Rh1_6 2.186480 1_555
B0_6 Rh0_4 2.186485 1_565
B0_6 Rh0_5 2.186485 1_564
B0_6 Eu0_4 3.239870 1_565
B0_6 Eu0_6 3.239882 1_555
B0_6 Eu0_0 3.239907 1_665
B0_7 Rh2_6 2.186466 1_555
B0_7 Rh2_7 2.186466 1_555
B0_7 Rh1_7 2.186480 1_555
B0_7 Rh1_6 2.186480 1_555
B0_7 Rh0_4 2.186485 1_565
B0_7 Rh0_5 2.186485 1_565
B0_7 Eu0_5 3.239870 1_565
B0_7 Eu0_7 3.239882 1_555
B0_7 Eu0_1 3.239907 1_665
B1_0 Rh2_4 2.186466 1_555
B1_0 Rh2_5 2.186466 1_554
B1_0 Rh1_1 2.186480 1_554
B1_0 Rh1_0 2.186480 1_555
B1_0 Rh0_1 2.186485 1_554
B1_0 Rh0_0 2.186485 1_555
B1_0 Eu0_4 3.239870 1_555
B1_0 Eu0_6 3.239882 1_555
B1_0 Eu0_0 3.239907 1_555
B1_1 Rh2_4 2.186466 1_555
B1_1 Rh2_5 2.186466 1_555
B1_1 Rh1_1 2.186480 1_555
B1_1 Rh1_0 2.186480 1_555
B1_1 Rh0_1 2.186485 1_555
B1_1 Rh0_0 2.186485 1_555
B1_1 Eu0_5 3.239870 1_555
B1_1 Eu0_7 3.239882 1_555
B1_1 Eu0_1 3.239907 1_555
B1_2 Rh2_6 2.186466 1_555
B1_2 Rh2_7 2.186466 1_554
B1_2 Rh1_2 2.186480 1_555
B1_2 Rh1_3 2.186480 1_554
B1_2 Rh0_2 2.186485 1_555
B1_2 Rh0_3 2.186485 1_554
B1_2 Eu0_6 3.239870 1_555
B1_2 Eu0_4 3.239882 1_565
B1_2 Eu0_2 3.239907 1_555
B1_3 Rh2_6 2.186466 1_555
B1_3 Rh2_7 2.186466 1_555
B1_3 Rh1_3 2.186480 1_555
B1_3 Rh1_2 2.186480 1_555
B1_3 Rh0_3 2.186485 1_555
B1_3 Rh0_2 2.186485 1_555
B1_3 Eu0_7 3.239870 1_555
B1_3 Eu0_5 3.239882 1_565
B1_3 Eu0_3 3.239907 1_555
B1_4 Rh2_1 2.186466 1_654
B1_4 Rh2_0 2.186466 1_655
B1_4 Rh1_4 2.186480 1_555
B1_4 Rh1_5 2.186480 1_554
B1_4 Rh0_4 2.186485 1_555
B1_4 Rh0_5 2.186485 1_554
B1_4 Eu0_0 3.239870 1_655
B1_4 Eu0_2 3.239882 1_655
B1_4 Eu0_4 3.239907 1_555
B1_5 Rh2_0 2.186466 1_655
B1_5 Rh2_1 2.186466 1_655
B1_5 Rh1_4 2.186480 1_555
B1_5 Rh1_5 2.186480 1_555
B1_5 Rh0_4 2.186485 1_555
B1_5 Rh0_5 2.186485 1_555
B1_5 Eu0_1 3.239870 1_655
B1_5 Eu0_3 3.239882 1_655
B1_5 Eu0_5 3.239907 1_555
B1_6 Rh2_3 2.186466 1_654
B1_6 Rh2_2 2.186466 1_655
B1_6 Rh1_7 2.186480 1_554
B1_6 Rh1_6 2.186480 1_555
B1_6 Rh0_7 2.186485 1_554
B1_6 Rh0_6 2.186485 1_555
B1_6 Eu0_2 3.239870 1_655
B1_6 Eu0_0 3.239882 1_665
B1_6 Eu0_6 3.239907 1_555
B1_7 Rh2_3 2.186466 1_655
B1_7 Rh2_2 2.186466 1_655
B1_7 Rh1_6 2.186480 1_555
B1_7 Rh1_7 2.186480 1_555
B1_7 Rh0_7 2.186485 1_555
B1_7 Rh0_6 2.186485 1_555
B1_7 Eu0_3 3.239870 1_655
B1_7 Eu0_1 3.239882 1_665
B1_7 Eu0_7 3.239907 1_555
