# generated using pymatgen
data_PrClO
_symmetry_space_group_name_H-M   'P 1'
_cell_length_a   4.08497421
_cell_length_b   4.08497421
_cell_length_c   6.82918546
_cell_angle_alpha   90.00000000
_cell_angle_beta   90.00000000
_cell_angle_gamma   90.00000000
_symmetry_Int_Tables_number   1
_chemical_formula_structural   PrClO
_chemical_formula_sum   'Pr2 Cl2 O2'
_cell_volume   113.95871540
_cell_formula_units_Z   2
loop_
 _symmetry_equiv_pos_site_id
 _symmetry_equiv_pos_as_xyz
  1  'x, y, z'
loop_
 _atom_site_type_symbol
 _atom_site_label
 _atom_site_symmetry_multiplicity
 _atom_site_fract_x
 _atom_site_fract_y
 _atom_site_fract_z
 _atom_site_occupancy
  Pr  Pr0  1  0.75000000  0.75000000  0.17506941  1
  Pr  Pr1  1  0.25000000  0.25000000  0.82493059  1
  Cl  Cl0  1  0.75000000  0.75000000  0.62795545  1
  Cl  Cl1  1  0.25000000  0.25000000  0.37204455  1
  O  O0  1  0.25000000  0.75000000  0.00000000  1
  O  O1  1  0.75000000  0.25000000  -0.00000000  1
loop_
_geom_bond_atom_site_label_1
_geom_bond_atom_site_label_2
_geom_bond_distance
_geom_bond_site_symmetry_2
Cl0 Pr0 3.092843 1_555
Cl0 Pr1 3.186380 1_655
Cl0 Pr1 3.186380 1_565
Cl0 Pr1 3.186380 1_555
Cl0 Pr1 3.186380 1_665
Cl1 Pr1 3.092843 1_555
Cl1 Pr0 3.186380 1_555
Cl1 Pr0 3.186380 1_445
Cl1 Pr0 3.186380 1_545
Cl1 Pr0 3.186380 1_455
O0 Pr1 2.366679 1_554
O0 Pr0 2.366679 1_455
O0 Pr0 2.366679 1_555
O0 Pr1 2.366679 1_564
O1 Pr1 2.366679 1_654
O1 Pr1 2.366679 1_554
O1 Pr0 2.366679 1_555
O1 Pr0 2.366679 1_545
