# generated using pymatgen
data_Th6CoBr15
_symmetry_space_group_name_H-M   'P 1'
_cell_length_a   10.05629820
_cell_length_b   10.05618193
_cell_length_c   10.05623155
_cell_angle_alpha   109.47103172
_cell_angle_beta   109.47110740
_cell_angle_gamma   109.47131165
_symmetry_Int_Tables_number   1
_chemical_formula_structural   Th6CoBr15
_chemical_formula_sum   'Th6 Co1 Br15'
_cell_volume   782.86300416
_cell_formula_units_Z   1
loop_
 _symmetry_equiv_pos_site_id
 _symmetry_equiv_pos_as_xyz
  1  'x, y, z'
loop_
 _atom_site_type_symbol
 _atom_site_label
 _atom_site_symmetry_multiplicity
 _atom_site_fract_x
 _atom_site_fract_y
 _atom_site_fract_z
 _atom_site_occupancy
  Th  Th0  1  0.76120845  0.76120858  0.00000253  1
  Th  Th1  1  0.23879649  0.00000247  0.23879788  1
  Th  Th2  1  0.76120759  0.00001262  0.76120412  1
  Th  Th3  1  0.00000628  0.76121121  0.76120356  1
  Th  Th4  1  0.00000686  0.23880685  0.23880271  1
  Th  Th5  1  0.23880225  0.23880957  0.00000363  1
  Co  Co0  1  0.00000348  0.00000982  0.00000559  1
  Br  Br0  1  0.49997580  0.99998229  0.49998728  1
  Br  Br1  1  0.99999031  0.49998518  0.50000452  1
  Br  Br2  1  0.50001635  0.50000741  0.00000221  1
  Br  Br3  1  0.49490582  0.74744840  0.74744738  1
  Br  Br4  1  0.74745239  0.00000126  0.25254770  1
  Br  Br5  1  0.50508039  0.25254163  0.25253733  1
  Br  Br6  1  0.25253971  0.25252680  0.50509240  1
  Br  Br7  1  0.25252776  0.74743435  0.99998127  1
  Br  Br8  1  0.00001754  0.25255931  0.74746478  1
  Br  Br9  1  0.99998722  0.74744018  0.25254104  1
  Br  Br10  1  0.25255687  0.00001241  0.74746701  1
  Br  Br11  1  0.25254389  0.50509067  0.25254342  1
  Br  Br12  1  0.74745251  0.25254441  0.99999815  1
  Br  Br13  1  0.74746655  0.49491103  0.74745277  1
  Br  Br14  1  0.74745550  0.74745356  0.49491274  1
loop_
_geom_bond_atom_site_label_1
_geom_bond_atom_site_label_2
_geom_bond_distance
_geom_bond_site_symmetry_2
Co0 Th4 2.772876 1_555
Co0 Th0 2.772890 1_445
Co0 Th1 2.772901 1_555
Co0 Th5 2.772932 1_555
Co0 Th2 2.772944 1_454
Co0 Th3 2.772950 1_544
Br0 Th1 3.032987 1_565
Br0 Th2 3.033158 1_565
Br1 Th4 3.033018 1_655
Br1 Th3 3.033090 1_655
Br2 Th0 3.032996 1_555
Br2 Th5 3.033114 1_555
Br3 Th0 2.936942 1_556
Br3 Th2 2.936991 1_565
Br4 Th0 2.936906 1_545
Br4 Th4 2.936965 1_655
Br5 Th5 2.936829 1_555
Br5 Th1 2.936839 1_555
Br6 Th1 2.936801 1_555
Br6 Th4 2.936959 1_555
Br7 Th3 2.936819 1_555
Br7 Th1 2.937024 1_566
Br8 Th5 2.936796 1_556
Br8 Th2 2.936904 1_455
Br9 Th0 2.936875 1_555
Br9 Th1 2.937019 1_665
Br10 Th3 2.936866 1_545
Br10 Th5 2.936869 1_556
Br11 Th5 2.936811 1_555
Br11 Th4 2.936817 1_555
Br12 Th2 2.936824 1_555
Br12 Th4 2.936927 1_656
Br13 Th3 2.936876 1_655
Br13 Th0 2.936964 1_556
Br14 Th3 2.936858 1_655
Br14 Th2 2.936923 1_565
