# generated using pymatgen
data_Ca2Si3Ag
_symmetry_space_group_name_H-M   'P 1'
_cell_length_a   5.99987667
_cell_length_b   5.99987733
_cell_length_c   8.28919297
_cell_angle_alpha   110.21055315
_cell_angle_beta   110.21055716
_cell_angle_gamma   92.60573522
_symmetry_Int_Tables_number   1
_chemical_formula_structural   Ca2Si3Ag
_chemical_formula_sum   'Ca4 Si6 Ag2'
_cell_volume   258.14171261
_cell_formula_units_Z   2
loop_
 _symmetry_equiv_pos_site_id
 _symmetry_equiv_pos_as_xyz
  1  'x, y, z'
loop_
 _atom_site_type_symbol
 _atom_site_label
 _atom_site_symmetry_multiplicity
 _atom_site_fract_x
 _atom_site_fract_y
 _atom_site_fract_z
 _atom_site_occupancy
  Ca  Ca0  1  0.74996186  0.25003814  0.50000000  1
  Ca  Ca1  1  0.24742488  0.75257512  -0.00000000  1
  Ca  Ca2  1  0.25003814  0.74996186  0.50000000  1
  Ca  Ca3  1  0.75257512  0.24742488  0.00000000  1
  Si  Si0  1  0.32489160  0.32489160  0.16171456  1
  Si  Si1  1  0.16315554  0.16315554  0.83818663  1
  Si  Si2  1  0.67510840  0.67510840  0.83828544  1
  Si  Si3  1  0.83684446  0.83684446  0.16181337  1
  Si  Si4  1  0.16193614  0.16193614  0.32391415  1
  Si  Si5  1  0.83806386  0.83806386  0.67608585  1
  Ag  Ag0  1  0.66661087  0.66661087  0.33313495  1
  Ag  Ag1  1  0.33338913  0.33338913  0.66686505  1
loop_
_geom_bond_atom_site_label_1
_geom_bond_atom_site_label_2
_geom_bond_distance
_geom_bond_site_symmetry_2
Ca0 Si4 3.255223 1_555
Ca0 Si5 3.255224 1_555
Ca0 Si4 3.255484 1_655
Ca0 Si5 3.255484 1_545
Ca0 Si1 3.256003 1_655
Ca0 Si3 3.256003 1_545
Ca0 Si0 3.256092 1_555
Ca0 Si2 3.256093 1_555
Ca1 Si5 3.164544 1_454
Ca1 Si4 3.164544 1_565
Ca1 Si2 3.169873 1_454
Ca1 Si0 3.169874 1_565
Ca1 Si3 3.170318 1_455
Ca1 Si1 3.170318 1_564
Ca1 Si2 3.263764 1_554
Ca1 Si0 3.263764 1_555
Ca1 Si3 3.263828 1_555
Ca1 Si1 3.263828 1_554
Ca2 Si5 3.255223 1_555
Ca2 Si4 3.255224 1_555
Ca2 Si5 3.255484 1_455
Ca2 Si4 3.255484 1_565
Ca2 Si3 3.256003 1_455
Ca2 Si1 3.256003 1_565
Ca2 Si2 3.256092 1_555
Ca2 Si0 3.256093 1_555
Ca3 Si4 3.164544 1_655
Ca3 Si5 3.164544 1_544
Ca3 Si0 3.169873 1_655
Ca3 Si2 3.169874 1_544
Ca3 Si1 3.170318 1_654
Ca3 Si3 3.170318 1_545
Ca3 Si0 3.263764 1_555
Ca3 Si2 3.263764 1_554
Ca3 Si1 3.263828 1_554
Ca3 Si3 3.263828 1_555
Si0 Si1 2.322387 1_554
Si0 Si4 2.334343 1_555
Si1 Si5 2.333838 1_445
Si2 Si3 2.322387 1_556
Si2 Si5 2.334343 1_555
Si3 Si4 2.333838 1_665
Ag0 Si3 2.452083 1_555
Ag0 Si0 2.453208 1_555
Ag0 Si5 2.461811 1_555
Ag0 Ca2 3.230201 1_655
Ag0 Ca0 3.230202 1_565
Ag0 Ca2 3.230257 1_555
Ag0 Ca0 3.230257 1_555
Ag0 Ca1 3.243510 1_555
Ag0 Ca3 3.243510 1_555
Ag1 Si1 2.452083 1_555
Ag1 Si2 2.453208 1_555
Ag1 Si4 2.461811 1_555
Ag1 Ca0 3.230201 1_455
Ag1 Ca2 3.230202 1_545
Ag1 Ca0 3.230257 1_555
Ag1 Ca2 3.230257 1_555
Ag1 Ca3 3.243510 1_556
Ag1 Ca1 3.243510 1_556
