# generated using pymatgen
data_Rb2MnBr4
_symmetry_space_group_name_H-M   'P 1'
_cell_length_a   9.31373664
_cell_length_b   9.31373664
_cell_length_c   9.31373664
_cell_angle_alpha   146.67855074
_cell_angle_beta   146.67855074
_cell_angle_gamma   47.83997724
_symmetry_Int_Tables_number   1
_chemical_formula_structural   Rb2MnBr4
_chemical_formula_sum   'Rb2 Mn1 Br4'
_cell_volume   242.82794652
_cell_formula_units_Z   1
loop_
 _symmetry_equiv_pos_site_id
 _symmetry_equiv_pos_as_xyz
  1  'x, y, z'
loop_
 _atom_site_type_symbol
 _atom_site_label
 _atom_site_symmetry_multiplicity
 _atom_site_fract_x
 _atom_site_fract_y
 _atom_site_fract_z
 _atom_site_occupancy
  Rb  Rb0  1  0.35995886  0.35995886  0.00000000  1
  Rb  Rb1  1  0.64004114  0.64004114  -0.00000000  1
  Mn  Mn0  1  0.00000000  0.00000000  0.00000000  1
  Br  Br0  1  0.15765863  0.15765863  -0.00000000  1
  Br  Br1  1  0.50000000  0.00000000  0.50000000  1
  Br  Br2  1  0.84234137  0.84234137  0.00000000  1
  Br  Br3  1  0.00000000  0.50000000  0.50000000  1
loop_
_geom_bond_atom_site_label_1
_geom_bond_atom_site_label_2
_geom_bond_distance
_geom_bond_site_symmetry_2
Br0 Mn0 2.684549 1_555
Br0 Rb0 3.444689 1_555
Br0 Rb1 3.788249 1_455
Br0 Rb1 3.788249 1_556
Br0 Rb1 3.788249 1_545
Br0 Rb1 3.788249 1_444
Br1 Mn0 2.670284 1_555
Br1 Mn0 2.670284 1_656
Br1 Rb0 3.580024 1_556
Br1 Rb1 3.580024 1_545
Br1 Rb1 3.580024 1_556
Br1 Rb0 3.580024 1_545
Br2 Mn0 2.684549 1_665
Br2 Rb1 3.444689 1_555
Br2 Rb0 3.788249 1_565
Br2 Rb0 3.788249 1_655
Br2 Rb0 3.788249 1_666
Br2 Rb0 3.788249 1_554
Br3 Mn0 2.670284 1_555
Br3 Mn0 2.670284 1_566
Br3 Rb1 3.580024 1_455
Br3 Rb0 3.580024 1_556
Br3 Rb1 3.580024 1_556
Br3 Rb0 3.580024 1_455
