# generated using pymatgen
data_MgZn2(NiO2)4
_symmetry_space_group_name_H-M   'P 1'
_cell_length_a   5.81436566
_cell_length_b   6.15785471
_cell_length_c   5.86192981
_cell_angle_alpha   117.64689357
_cell_angle_beta   119.73195789
_cell_angle_gamma   89.99999288
_symmetry_Int_Tables_number   1
_chemical_formula_structural   MgZn2(NiO2)4
_chemical_formula_sum   'Mg1 Zn2 Ni4 O8'
_cell_volume   154.04793988
_cell_formula_units_Z   1
loop_
 _symmetry_equiv_pos_site_id
 _symmetry_equiv_pos_as_xyz
  1  'x, y, z'
loop_
 _atom_site_type_symbol
 _atom_site_label
 _atom_site_symmetry_multiplicity
 _atom_site_fract_x
 _atom_site_fract_y
 _atom_site_fract_z
 _atom_site_occupancy
  Mg  Mg0  1  0.50000000  0.00000000  0.00000000  1
  Zn  Zn0  1  0.34644100  0.53558700  0.69288200  1
  Zn  Zn1  1  0.65355900  0.46441300  0.30711800  1
  Ni  Ni0  1  0.00000000  0.00000000  0.50000000  1
  Ni  Ni1  1  0.00000000  0.50000000  0.00000000  1
  Ni  Ni2  1  0.50000000  0.00000000  0.50000000  1
  Ni  Ni3  1  0.00000000  0.00000000  0.00000000  1
  O  O0  1  0.77726600  0.82299200  0.55453000  1
  O  O1  1  0.74816300  0.24053900  0.99229300  1
  O  O2  1  0.24413100  0.24053900  0.99229300  1
  O  O3  1  0.22273400  0.17700800  0.44547000  1
  O  O4  1  0.25303000  0.76525800  0.50606100  1
  O  O5  1  0.25183700  0.75946100  0.00770700  1
  O  O6  1  0.74697000  0.23474200  0.49393900  1
  O  O7  1  0.75586900  0.75946100  0.00770700  1
loop_
_geom_bond_atom_site_label_1
_geom_bond_atom_site_label_2
_geom_bond_distance
_geom_bond_site_symmetry_2
Mg0 O2 2.098747 1_554
Mg0 O7 2.098747 1_545
Mg0 O5 2.098752 1_545
Mg0 O1 2.098752 1_554
Mg0 O4 2.127633 1_544
Mg0 O6 2.127633 1_555
Ni0 O3 1.923897 1_555
Ni0 O0 1.923897 1_445
Ni0 O4 2.061801 1_545
Ni0 O6 2.061801 1_455
Ni0 O7 2.122903 1_445
Ni0 O2 2.122903 1_555
Ni1 O1 2.136879 1_454
Ni1 O5 2.136879 1_555
Ni1 O2 2.136882 1_554
Ni1 O7 2.136882 1_455
Ni1 O6 2.192447 1_454
Ni1 O4 2.192447 1_555
Ni2 O3 1.923905 1_555
Ni2 O0 1.923905 1_545
Ni2 O4 2.061805 1_545
Ni2 O6 2.061805 1_555
Ni2 O5 2.122903 1_545
Ni2 O1 2.122903 1_555
Ni3 O3 1.920510 1_555
Ni3 O0 1.920510 1_444
Ni3 O5 2.082447 1_545
Ni3 O1 2.082447 1_454
Ni3 O7 2.082452 1_445
Ni3 O2 2.082452 1_554
O0 Zn1 1.868072 1_555
O1 Zn1 2.062687 1_556
O2 Zn1 2.062683 1_556
O3 Zn0 1.868072 1_555
O4 Zn0 2.083721 1_555
O5 Zn0 2.062687 1_554
O6 Zn1 2.083721 1_555
O7 Zn0 2.062683 1_554
