# generated using pymatgen
data_Rb2Hg3Te4
_symmetry_space_group_name_H-M   'P 1'
_cell_length_a   7.34360487
_cell_length_b   12.38520372
_cell_length_c   14.80798750
_cell_angle_alpha   90.00000000
_cell_angle_beta   90.00000000
_cell_angle_gamma   90.00000000
_symmetry_Int_Tables_number   1
_chemical_formula_structural   Rb2Hg3Te4
_chemical_formula_sum   'Rb8 Hg12 Te16'
_cell_volume   1346.81670628
_cell_formula_units_Z   4
loop_
 _symmetry_equiv_pos_site_id
 _symmetry_equiv_pos_as_xyz
  1  'x, y, z'
loop_
 _atom_site_type_symbol
 _atom_site_label
 _atom_site_symmetry_multiplicity
 _atom_site_fract_x
 _atom_site_fract_y
 _atom_site_fract_z
 _atom_site_occupancy
  Rb  Rb0  1  0.83763968  0.63283038  0.95845708  1
  Rb  Rb1  1  0.83763968  0.36716962  0.54154292  1
  Rb  Rb2  1  0.66236032  0.13283038  0.04154292  1
  Rb  Rb3  1  0.66236032  0.86716962  0.45845708  1
  Rb  Rb4  1  0.16236032  0.36716962  0.04154292  1
  Rb  Rb5  1  0.16236032  0.63283038  0.45845708  1
  Rb  Rb6  1  0.33763968  0.86716962  0.95845708  1
  Rb  Rb7  1  0.33763968  0.13283038  0.54154292  1
  Hg  Hg0  1  0.10154436  0.00000000  0.75000000  1
  Hg  Hg1  1  0.39845564  0.50000000  0.25000000  1
  Hg  Hg2  1  0.89845564  0.00000000  0.25000000  1
  Hg  Hg3  1  0.60154436  0.50000000  0.75000000  1
  Hg  Hg4  1  0.15579247  0.65817547  0.74831171  1
  Hg  Hg5  1  0.15579247  0.34182453  0.75168829  1
  Hg  Hg6  1  0.34420753  0.15817547  0.25168829  1
  Hg  Hg7  1  0.34420753  0.84182453  0.24831171  1
  Hg  Hg8  1  0.84420753  0.34182453  0.25168829  1
  Hg  Hg9  1  0.84420753  0.65817547  0.24831171  1
  Hg  Hg10  1  0.65579247  0.84182453  0.74831171  1
  Hg  Hg11  1  0.65579247  0.15817547  0.75168829  1
  Te  Te0  1  0.35704988  0.57932635  0.88774098  1
  Te  Te1  1  0.35704988  0.42067365  0.61225902  1
  Te  Te2  1  0.14295012  0.07932635  0.11225902  1
  Te  Te3  1  0.14295012  0.92067365  0.38774098  1
  Te  Te4  1  0.83080255  0.34582634  0.84178618  1
  Te  Te5  1  0.83080255  0.65417366  0.65821382  1
  Te  Te6  1  0.66919745  0.84582634  0.15821382  1
  Te  Te7  1  0.66919745  0.15417366  0.34178618  1
  Te  Te8  1  0.16919745  0.65417366  0.15821382  1
  Te  Te9  1  0.16919745  0.34582634  0.34178618  1
  Te  Te10  1  0.33080255  0.15417366  0.84178618  1
  Te  Te11  1  0.33080255  0.84582634  0.65821382  1
  Te  Te12  1  0.85704988  0.07932635  0.61225902  1
  Te  Te13  1  0.85704988  0.92067365  0.88774098  1
  Te  Te14  1  0.64295012  0.57932635  0.38774098  1
  Te  Te15  1  0.64295012  0.42067365  0.11225902  1
loop_
_geom_bond_atom_site_label_1
_geom_bond_atom_site_label_2
_geom_bond_distance
_geom_bond_site_symmetry_2
Rb0 Te13 3.718343 1_555
Rb0 Te0 3.740502 1_555
Rb0 Te15 3.759708 1_556
Rb0 Te8 3.840313 1_656
Rb0 Te4 3.952536 1_555
Rb0 Te0 4.010596 1_655
Rb0 Te6 4.151972 1_556
Rb1 Te12 3.718343 1_555
Rb1 Te1 3.740502 1_555
Rb1 Te14 3.759708 1_555
Rb1 Te9 3.840313 1_655
Rb1 Te5 3.952536 1_555
Rb1 Te1 4.010596 1_655
Rb1 Te7 4.151972 1_555
Rb2 Te15 3.718343 1_555
Rb2 Te2 3.740502 1_655
Rb2 Te13 3.759708 1_544
Rb2 Te10 3.840313 1_554
Rb2 Te6 3.952536 1_545
Rb2 Te2 4.010596 1_555
Rb2 Te4 4.151972 1_554
Rb3 Te14 3.718343 1_555
Rb3 Te3 3.740502 1_655
Rb3 Te12 3.759708 1_565
Rb3 Te11 3.840313 1_555
Rb3 Te7 3.952536 1_565
Rb3 Te3 4.010596 1_555
Rb3 Te5 4.151972 1_555
Rb4 Te2 3.718343 1_555
Rb4 Te15 3.740502 1_555
Rb4 Te0 3.759708 1_554
Rb4 Te4 3.840313 1_454
Rb4 Te8 3.952536 1_555
Rb4 Te15 4.010596 1_455
Rb4 Te10 4.151972 1_554
Rb5 Te3 3.718343 1_555
Rb5 Te14 3.740502 1_555
Rb5 Te1 3.759708 1_555
Rb5 Te5 3.840313 1_455
Rb5 Te9 3.952536 1_555
Rb5 Te14 4.010596 1_455
Rb5 Te11 4.151972 1_555
Rb6 Te0 3.718343 1_555
Rb6 Te13 3.740502 1_455
Rb6 Te2 3.759708 1_566
Rb6 Te6 3.840313 1_556
Rb6 Te10 3.952536 1_565
Rb6 Te13 4.010596 1_555
Rb6 Te8 4.151972 1_556
Rb7 Te1 3.718343 1_555
Rb7 Te12 3.740502 1_455
Rb7 Te3 3.759708 1_545
Rb7 Te7 3.840313 1_555
Rb7 Te11 3.952536 1_545
Rb7 Te12 4.010596 1_555
Rb7 Te9 4.151972 1_555
Hg0 Te11 2.885805 1_545
Hg0 Te10 2.885805 1_555
Hg0 Te13 2.889500 1_445
Hg0 Te12 2.889500 1_455
Hg0 Rb7 3.903973 1_555
Hg0 Rb6 3.903973 1_545
Hg1 Te8 2.885805 1_555
Hg1 Te9 2.885805 1_555
Hg1 Te14 2.889500 1_555
Hg1 Te15 2.889500 1_555
Hg1 Rb4 3.903973 1_555
Hg1 Rb5 3.903973 1_555
Hg2 Te6 2.885805 1_545
Hg2 Te7 2.885805 1_555
Hg2 Te3 2.889500 1_645
Hg2 Te2 2.889500 1_655
Hg2 Rb2 3.903973 1_555
Hg2 Rb3 3.903973 1_545
Hg3 Te5 2.885805 1_555
Hg3 Te4 2.885805 1_555
Hg3 Te0 2.889500 1_555
Hg3 Te1 2.889500 1_555
Hg3 Rb1 3.903973 1_555
Hg3 Rb0 3.903973 1_555
Hg4 Te0 2.720455 1_555
Hg4 Te5 2.734650 1_455
Hg4 Te11 2.972065 1_555
Hg4 Rb0 3.903938 1_455
Hg5 Te1 2.720455 1_555
Hg5 Te4 2.734650 1_455
Hg5 Te10 2.972065 1_555
Hg5 Rb1 3.903938 1_455
Hg6 Te2 2.720455 1_555
Hg6 Te7 2.734650 1_555
Hg6 Te9 2.972065 1_555
Hg6 Rb2 3.903938 1_555
Hg7 Te3 2.720455 1_555
Hg7 Te6 2.734650 1_555
Hg7 Te8 2.972065 1_555
Hg7 Rb3 3.903938 1_555
Hg8 Te15 2.720455 1_555
Hg8 Te9 2.734650 1_655
Hg8 Te7 2.972065 1_555
Hg8 Rb4 3.903938 1_655
Hg9 Te14 2.720455 1_555
Hg9 Te8 2.734650 1_655
Hg9 Te6 2.972065 1_555
Hg9 Rb5 3.903938 1_655
Hg10 Te13 2.720455 1_555
Hg10 Te11 2.734650 1_555
Hg10 Te5 2.972065 1_555
Hg10 Rb6 3.903938 1_555
Hg11 Te12 2.720455 1_555
Hg11 Te10 2.734650 1_555
Hg11 Te4 2.972065 1_555
Hg11 Rb7 3.903938 1_555
