# generated using pymatgen
data_GdMgPd
_symmetry_space_group_name_H-M   'P 1'
_cell_length_a   7.48215323
_cell_length_b   7.48213160
_cell_length_c   4.08363582
_cell_angle_alpha   90.00000000
_cell_angle_beta   90.00000000
_cell_angle_gamma   119.99774100
_symmetry_Int_Tables_number   1
_chemical_formula_structural   GdMgPd
_chemical_formula_sum   'Gd3 Mg3 Pd3'
_cell_volume   197.98827070
_cell_formula_units_Z   3
loop_
 _symmetry_equiv_pos_site_id
 _symmetry_equiv_pos_as_xyz
  1  'x, y, z'
loop_
 _atom_site_type_symbol
 _atom_site_label
 _atom_site_symmetry_multiplicity
 _atom_site_fract_x
 _atom_site_fract_y
 _atom_site_fract_z
 _atom_site_occupancy
  Gd  Gd0  1  0.99999270  0.41389766  0.00000000  1
  Gd  Gd1  1  0.58609180  0.58609117  0.00000000  1
  Gd  Gd2  1  0.41389993  0.99999227  0.00000000  1
  Mg  Mg0  1  0.00000792  0.75844723  0.50000000  1
  Mg  Mg1  1  0.24156175  0.24155917  0.50000000  1
  Mg  Mg2  1  0.75844399  0.00000549  0.50000000  1
  Pd  Pd0  1  0.33332311  0.66666072  0.50000000  1
  Pd  Pd1  1  0.66667260  0.33333506  0.50000000  1
  Pd  Pd2  1  0.00000620  0.00001122  -0.00000000  1
loop_
_geom_bond_atom_site_label_1
_geom_bond_atom_site_label_2
_geom_bond_distance
_geom_bond_site_symmetry_2
Gd0 Pd1 3.041210 1_554
Gd0 Pd1 3.041210 1_555
Gd0 Pd0 3.041293 1_654
Gd0 Pd0 3.041293 1_655
Gd0 Pd2 3.096803 1_655
Gd0 Mg0 3.288561 1_655
Gd0 Mg0 3.288561 1_654
Gd0 Mg2 3.380687 1_555
Gd0 Mg2 3.380687 1_554
Gd0 Mg1 3.380696 1_655
Gd0 Mg1 3.380696 1_654
Gd1 Pd1 3.041238 1_555
Gd1 Pd1 3.041238 1_554
Gd1 Pd0 3.041266 1_555
Gd1 Pd0 3.041266 1_554
Gd1 Pd2 3.097093 1_665
Gd1 Mg1 3.288568 1_554
Gd1 Mg1 3.288568 1_555
Gd1 Mg2 3.380785 1_564
Gd1 Mg2 3.380785 1_565
Gd1 Mg0 3.380799 1_654
Gd1 Mg0 3.380799 1_655
Gd2 Pd0 3.041244 1_555
Gd2 Pd0 3.041244 1_554
Gd2 Pd1 3.041353 1_565
Gd2 Pd1 3.041353 1_564
Gd2 Pd2 3.096887 1_565
Gd2 Mg2 3.288540 1_564
Gd2 Mg2 3.288540 1_565
Gd2 Mg1 3.380682 1_564
Gd2 Mg1 3.380682 1_565
Gd2 Mg0 3.380689 1_555
Gd2 Mg0 3.380689 1_554
Mg0 Pd2 2.726864 1_566
Mg0 Pd2 2.726864 1_565
Mg0 Pd0 2.898940 1_555
Mg0 Pd1 2.899148 1_455
Mg0 Mg2 3.130463 1_465
Mg0 Mg1 3.130499 1_565
Mg1 Pd2 2.726842 1_555
Mg1 Pd2 2.726842 1_556
Mg1 Pd0 2.899036 1_555
Mg1 Pd1 2.899079 1_555
Mg1 Mg2 3.130546 1_455
Mg2 Pd2 2.726840 1_656
Mg2 Pd2 2.726840 1_655
Mg2 Pd1 2.898964 1_555
Mg2 Pd0 2.899217 1_545
