# generated using pymatgen
data_Ba2MgTi3Tl2O10
_symmetry_space_group_name_H-M   'P 1'
_cell_length_a   4.98339042
_cell_length_b   3.74355764
_cell_length_c   16.45705590
_cell_angle_alpha   87.58988698
_cell_angle_beta   79.74412836
_cell_angle_gamma   90.24581811
_symmetry_Int_Tables_number   1
_chemical_formula_structural   Ba2MgTi3Tl2O10
_chemical_formula_sum   'Ba2 Mg1 Ti3 Tl2 O10'
_cell_volume   301.82213796
_cell_formula_units_Z   1
loop_
 _symmetry_equiv_pos_site_id
 _symmetry_equiv_pos_as_xyz
  1  'x, y, z'
loop_
 _atom_site_type_symbol
 _atom_site_label
 _atom_site_symmetry_multiplicity
 _atom_site_fract_x
 _atom_site_fract_y
 _atom_site_fract_z
 _atom_site_occupancy
  Ba  Ba0  1  0.06607954  0.15509650  0.23557485  1
  Ba  Ba1  1  0.72419352  0.74755276  0.74173907  1
  Mg  Mg0  1  0.44741331  0.63381545  0.36338038  1
  Ti  Ti0  1  0.16193297  0.22561615  0.85581340  1
  Ti  Ti1  1  0.68777996  0.67131036  0.13079605  1
  Ti  Ti2  1  0.27792247  0.70006665  0.99625338  1
  Tl  Tl0  1  0.85594836  0.82997417  0.47265824  1
  Tl  Tl1  1  0.33676100  0.27351814  0.58587081  1
  O  O0  1  0.26744134  0.72221884  0.87585886  1
  O  O1  1  0.33599488  0.24516130  0.74594696  1
  O  O2  1  0.82085356  0.22834320  0.84490317  1
  O  O3  1  0.02767048  0.77463114  0.58880374  1
  O  O4  1  0.60844650  0.69558407  0.02010258  1
  O  O5  1  0.06292743  0.67813341  0.11126111  1
  O  O6  1  0.67471217  0.65066947  0.25332927  1
  O  O7  1  0.58659193  0.17083043  0.14392549  1
  O  O8  1  0.28197761  0.13053676  0.37916596  1
  O  O9  1  0.19248599  0.20231221  0.98100269  1
loop_
_geom_bond_atom_site_label_1
_geom_bond_atom_site_label_2
_geom_bond_distance
_geom_bond_site_symmetry_2
Ba0 O6 2.678457 1_445
Ba0 O6 2.684155 1_455
Ba0 O7 2.757689 1_555
Ba0 O8 2.763715 1_555
Ba0 O5 2.773496 1_545
Ba0 O5 2.773868 1_555
Ba0 O7 3.043852 1_455
Ba1 O2 2.625790 1_565
Ba1 O2 2.629471 1_555
Ba1 O1 2.682263 1_555
Ba1 O1 2.685414 1_565
Ba1 O3 2.693305 1_655
Ba1 O0 2.872859 1_555
Mg0 O6 1.956130 1_555
Mg0 O8 2.041096 1_555
Mg0 O8 2.045104 1_565
O0 Ti0 1.986541 1_555
O0 Ti0 1.988615 1_565
O0 Ti2 1.989568 1_555
O1 Ti0 1.859239 1_555
O1 Tl1 2.631378 1_555
O2 Ti0 1.740718 1_655
O3 Tl0 2.231461 1_455
O3 Tl1 2.409180 1_565
O3 Tl1 2.428995 1_555
O4 Ti2 1.759901 1_554
O4 Ti1 1.930272 1_555
O5 Ti1 1.839550 1_455
O5 Ti2 2.000251 1_554
O6 Ti1 2.004175 1_555
O7 Ti1 1.931398 1_555
O7 Ti1 1.949634 1_545
O8 Tl0 2.609879 1_445
O9 Ti2 1.945403 1_545
O9 Ti2 1.946022 1_555
O9 Ti0 2.090959 1_555
