# generated using pymatgen
data_MgMn5FeO12
_symmetry_space_group_name_H-M   'P 1'
_cell_length_a   5.08812437
_cell_length_b   5.09400271
_cell_length_c   10.04102021
_cell_angle_alpha   94.01687003
_cell_angle_beta   97.46700139
_cell_angle_gamma   61.00990172
_symmetry_Int_Tables_number   1
_chemical_formula_structural   MgMn5FeO12
_chemical_formula_sum   'Mg1 Mn5 Fe1 O12'
_cell_volume   225.70573336
_cell_formula_units_Z   1
loop_
 _symmetry_equiv_pos_site_id
 _symmetry_equiv_pos_as_xyz
  1  'x, y, z'
loop_
 _atom_site_type_symbol
 _atom_site_label
 _atom_site_symmetry_multiplicity
 _atom_site_fract_x
 _atom_site_fract_y
 _atom_site_fract_z
 _atom_site_occupancy
  Mg  Mg0  1  0.25255059  0.33412952  0.74722067  1
  Mn  Mn0  1  0.16879343  0.68545341  0.49919921  1
  Mn  Mn1  1  0.65065125  0.66616616  0.99564535  1
  Mn  Mn2  1  0.32230218  0.33321736  0.01597420  1
  Mn  Mn3  1  0.83726089  0.35423031  0.49890768  1
  Mn  Mn4  1  0.50204814  0.01843162  0.48944537  1
  Fe  Fe0  1  0.98422702  0.00001965  0.99895199  1
  O  O0  1  0.99919877  0.66420011  0.09764783  1
  O  O1  1  0.30301877  0.63582977  0.89650622  1
  O  O2  1  0.10339446  0.39204396  0.39633774  1
  O  O3  1  0.48313886  0.67308395  0.40508039  1
  O  O4  1  0.51567371  0.35300591  0.59988832  1
  O  O5  1  0.19598728  0.03461803  0.60000920  1
  O  O6  1  0.90880741  0.64414468  0.61167538  1
  O  O7  1  0.67368892  0.34944982  0.09834420  1
  O  O8  1  0.35959750  0.98808141  0.09844120  1
  O  O9  1  0.97648594  0.34103071  0.89676239  1
  O  O10  1  0.59463358  0.01873159  0.89595126  1
  O  O11  1  0.82479128  0.01413203  0.40488639  1
loop_
_geom_bond_atom_site_label_1
_geom_bond_atom_site_label_2
_geom_bond_distance
_geom_bond_site_symmetry_2
Mg0 O6 2.100101 1_455
Mg0 O5 2.143517 1_555
Mg0 O1 2.152804 1_555
Mg0 O4 2.156306 1_555
Mg0 O9 2.172986 1_455
Mg0 O10 2.188836 1_555
Mn0 O2 1.894169 1_555
Mn0 O11 1.927272 1_465
Mn0 O3 1.934449 1_555
Mn0 O6 1.939354 1_455
Mn0 O4 1.970793 1_555
Mn0 O5 2.038935 1_565
Mn1 O7 1.923118 1_556
Mn1 O0 1.925192 1_556
Mn1 O8 1.937466 1_556
Mn1 O1 1.982226 1_555
Mn1 O10 1.997582 1_565
Mn1 O9 2.003343 1_555
Mn2 O7 1.907056 1_555
Mn2 O8 1.911128 1_545
Mn2 O0 1.920382 1_455
Mn2 O1 1.976547 1_554
Mn2 O9 1.980358 1_454
Mn2 O10 1.987627 1_554
Mn3 O2 1.890649 1_655
Mn3 O3 1.925796 1_555
Mn3 O11 1.938698 1_555
Mn3 O6 1.943027 1_555
Mn3 O5 1.970344 1_655
Mn3 O4 2.036547 1_555
Mn4 O11 1.934679 1_555
Mn4 O3 1.937974 1_545
Mn4 O4 1.992253 1_555
Mn4 O5 1.994104 1_555
Mn4 O2 2.150575 1_555
Mn4 O6 2.295127 1_545
Fe0 O0 2.001461 1_546
Fe0 O8 2.012339 1_646
Fe0 O7 2.023795 1_556
Fe0 O9 2.060305 1_555
Fe0 O10 2.075099 1_555
Fe0 O1 2.092926 1_645
