# generated using pymatgen
data_CsLaMgNb2O7
_symmetry_space_group_name_H-M   'P 1'
_cell_length_a   4.09505100
_cell_length_b   4.09489700
_cell_length_c   12.17700700
_cell_angle_alpha   90.00000000
_cell_angle_beta   90.00000000
_cell_angle_gamma   90.00000000
_symmetry_Int_Tables_number   1
_chemical_formula_structural   CsLaMgNb2O7
_chemical_formula_sum   'Cs1 La1 Mg1 Nb2 O7'
_cell_volume   204.19394177
_cell_formula_units_Z   1
loop_
 _symmetry_equiv_pos_site_id
 _symmetry_equiv_pos_as_xyz
  1  'x, y, z'
loop_
 _atom_site_type_symbol
 _atom_site_label
 _atom_site_symmetry_multiplicity
 _atom_site_fract_x
 _atom_site_fract_y
 _atom_site_fract_z
 _atom_site_occupancy
  Cs  Cs0  1  0.00000000  0.00000000  0.56625400  1
  La  La0  1  0.00000000  0.00000000  0.96481500  1
  Mg  Mg0  1  0.00000000  0.00000000  0.25238000  1
  Nb  Nb0  1  0.50000000  0.50000000  0.17437700  1
  Nb  Nb1  1  0.50000000  0.50000000  0.81374000  1
  O  O0  1  0.50000000  0.50000000  0.66308400  1
  O  O1  1  0.00000000  0.50000000  0.16486400  1
  O  O2  1  0.50000000  0.00000000  0.16486300  1
  O  O3  1  0.00000000  0.50000000  0.84629400  1
  O  O4  1  0.50000000  0.00000000  0.84628200  1
  O  O5  1  0.50000000  0.50000000  0.32817900  1
  O  O6  1  0.50000000  0.50000000  0.99820100  1
loop_
_geom_bond_atom_site_label_1
_geom_bond_atom_site_label_2
_geom_bond_distance
_geom_bond_site_symmetry_2
Cs0 O0 3.126449 1_555
Cs0 O0 3.126449 1_445
Cs0 O0 3.126449 1_455
Cs0 O0 3.126449 1_545
La0 O3 2.504987 1_545
La0 O3 2.504987 1_555
La0 O4 2.505134 1_555
La0 O4 2.505134 1_455
La0 O6 2.923984 1_555
La0 O6 2.923984 1_445
La0 O6 2.923984 1_545
La0 O6 2.923984 1_455
La0 O1 3.182158 1_546
La0 O1 3.182158 1_556
La0 O2 3.182199 1_556
La0 O2 3.182199 1_456
Mg0 O1 2.308187 1_555
Mg0 O1 2.308187 1_545
Mg0 O2 2.308261 1_555
Mg0 O2 2.308261 1_455
Nb0 O5 1.872848 1_555
Nb0 O2 2.050724 1_555
Nb0 O2 2.050724 1_565
Nb0 O1 2.050800 1_655
Nb0 O1 2.050800 1_555
Nb0 O6 2.145296 1_554
Nb1 O0 1.834539 1_555
Nb1 O4 2.085443 1_565
Nb1 O4 2.085443 1_555
Nb1 O3 2.085546 1_555
Nb1 O3 2.085546 1_655
Nb1 O6 2.246183 1_555
