# generated using pymatgen
data_Ca11Bi10
_symmetry_space_group_name_H-M   'P 1'
_cell_length_a   12.32784531
_cell_length_b   12.32786688
_cell_length_c   12.45822628
_cell_angle_alpha   119.70989173
_cell_angle_beta   119.70981800
_cell_angle_gamma   89.98655188
_symmetry_Int_Tables_number   1
_chemical_formula_structural   Ca11Bi10
_chemical_formula_sum   'Ca22 Bi20'
_cell_volume   1350.61234322
_cell_formula_units_Z   2
loop_
 _symmetry_equiv_pos_site_id
 _symmetry_equiv_pos_as_xyz
  1  'x, y, z'
loop_
 _atom_site_type_symbol
 _atom_site_label
 _atom_site_symmetry_multiplicity
 _atom_site_fract_x
 _atom_site_fract_y
 _atom_site_fract_z
 _atom_site_occupancy
  Ca  Ca0  1  0.19024833  0.44113159  0.38045073  1
  Ca  Ca1  1  0.93932376  0.19013130  0.38047707  1
  Ca  Ca2  1  0.44113159  0.19024833  0.38045073  1
  Ca  Ca3  1  0.80975087  0.55886815  0.61954839  1
  Ca  Ca4  1  0.80986801  0.06067580  0.61952172  1
  Ca  Ca5  1  0.06067580  0.80986801  0.61952272  1
  Ca  Ca6  1  0.55886815  0.80975187  0.61954939  1
  Ca  Ca7  1  0.19013130  0.93932476  0.38047807  1
  Ca  Ca8  1  0.16201845  0.16201845  0.00010624  1
  Ca  Ca9  1  0.83815783  0.16184222  0.00000021  1
  Ca  Ca10  1  0.16184122  0.83815883  0.00000021  1
  Ca  Ca11  1  0.83797840  0.83797940  0.99989131  1
  Ca  Ca12  1  0.33556958  0.33556958  0.67114283  1
  Ca  Ca13  1  0.66443146  0.66443146  0.32885788  1
  Ca  Ca14  1  0.39663272  0.73840279  0.79317456  1
  Ca  Ca15  1  0.05526034  0.39666222  0.79346152  1
  Ca  Ca16  1  0.73840279  0.39663272  0.79317456  1
  Ca  Ca17  1  0.60336481  0.26159737  0.20682383  1
  Ca  Ca18  1  0.60333669  0.94474021  0.20653891  1
  Ca  Ca19  1  0.94474021  0.60333669  0.20653891  1
  Ca  Ca20  1  0.26159737  0.60336481  0.20682383  1
  Ca  Ca21  1  0.39666222  0.05526134  0.79346252  1
  Bi  Bi0  1  0.34714612  0.99991455  0.99992922  1
  Bi  Bi1  1  0.99991455  0.34714612  0.99992922  1
  Bi  Bi2  1  0.00008685  0.65285455  0.00007046  1
  Bi  Bi3  1  0.65285455  0.00008685  0.00007046  1
  Bi  Bi4  1  0.12874694  0.12874694  0.25751453  1
  Bi  Bi5  1  0.87125311  0.87125311  0.74248442  1
  Bi  Bi6  1  0.37069132  0.37069032  0.00204031  1
  Bi  Bi7  1  0.63016952  0.36983163  0.00000011  1
  Bi  Bi8  1  0.36983263  0.63017052  0.00000011  1
  Bi  Bi9  1  0.62930767  0.62930767  0.99796034  1
  Bi  Bi10  1  0.24998709  0.75001219  0.49999989  1
  Bi  Bi11  1  0.75001119  0.24998709  0.49999989  1
  Bi  Bi12  1  0.53165473  0.53165473  0.65429477  1
  Bi  Bi13  1  0.12260774  0.53141725  0.65421297  1
  Bi  Bi14  1  0.53141725  0.12260774  0.65421297  1
  Bi  Bi15  1  0.87739149  0.46858126  0.34578812  1
  Bi  Bi16  1  0.46858226  0.87739149  0.34578812  1
  Bi  Bi17  1  0.87738680  0.87738680  0.34598173  1
  Bi  Bi18  1  0.46834292  0.46834192  0.34570383  1
  Bi  Bi19  1  0.12261636  0.12261536  0.65402139  1
loop_
_geom_bond_atom_site_label_1
_geom_bond_atom_site_label_2
_geom_bond_distance
_geom_bond_site_symmetry_2
Bi0 Ca8 3.033252 1_566
Bi0 Ca10 3.033293 1_556
Bi0 Ca17 3.274198 1_566
Bi0 Ca14 3.275036 1_555
Bi0 Ca18 3.277076 1_556
Bi0 Ca21 3.278810 1_565
Bi0 Ca5 3.581798 1_555
Bi0 Ca2 3.585066 1_566
Bi1 Ca8 3.033253 1_656
Bi1 Ca9 3.033293 1_556
Bi1 Ca20 3.274198 1_656
Bi1 Ca16 3.275036 1_555
Bi1 Ca19 3.277075 1_556
Bi1 Ca15 3.278815 1_655
Bi1 Ca4 3.581805 1_555
Bi1 Ca0 3.585067 1_656
Bi2 Ca11 3.033265 1_454
Bi2 Ca10 3.033271 1_555
Bi2 Ca16 3.274226 1_454
Bi2 Ca20 3.275043 1_555
Bi2 Ca15 3.277078 1_554
Bi2 Ca19 3.278843 1_455
Bi2 Ca7 3.581805 1_555
Bi2 Ca3 3.585069 1_454
Bi3 Ca11 3.033247 1_544
Bi3 Ca9 3.033269 1_555
Bi3 Ca14 3.274226 1_544
Bi3 Ca17 3.275043 1_555
Bi3 Ca21 3.277081 1_554
Bi3 Ca18 3.278843 1_545
Bi3 Ca1 3.581794 1_555
Bi3 Ca6 3.585058 1_544
Bi4 Ca2 3.279487 1_555
Bi4 Ca0 3.279492 1_555
Bi4 Ca1 3.281517 1_455
Bi4 Ca7 3.281519 1_545
Bi4 Ca10 3.632741 1_545
Bi4 Ca9 3.632755 1_455
Bi4 Ca11 3.632872 1_444
Bi4 Ca8 3.637035 1_555
Bi4 Ca12 3.675922 1_555
Bi5 Ca6 3.279494 1_555
Bi5 Ca3 3.279496 1_555
Bi5 Ca5 3.281504 1_655
Bi5 Ca4 3.281518 1_565
Bi5 Ca10 3.632750 1_656
Bi5 Ca9 3.632763 1_566
Bi5 Ca8 3.632837 1_666
Bi5 Ca11 3.637054 1_555
Bi5 Ca13 3.675906 1_555
Bi6 Bi7 3.211453 1_555
Bi6 Bi8 3.211484 1_555
Bi6 Ca17 3.562390 1_555
Bi6 Ca20 3.562401 1_555
Bi6 Ca21 3.575477 1_554
Bi6 Ca15 3.575502 1_554
Bi6 Ca8 3.621622 1_555
Bi6 Ca13 3.685247 1_555
Bi6 Ca12 3.718975 1_554
Bi7 Bi9 3.211430 1_554
Bi7 Ca19 3.566308 1_555
Bi7 Ca21 3.566322 1_554
Bi7 Ca16 3.575001 1_554
Bi7 Ca17 3.575011 1_555
Bi7 Ca9 3.625698 1_555
Bi7 Ca12 3.700041 1_554
Bi7 Ca13 3.700044 1_555
Bi8 Bi9 3.211412 1_554
Bi8 Ca18 3.566295 1_555
Bi8 Ca15 3.566341 1_554
Bi8 Ca14 3.574989 1_554
Bi8 Ca20 3.575023 1_555
Bi8 Ca10 3.625716 1_555
Bi8 Ca12 3.700040 1_554
Bi8 Ca13 3.700045 1_555
Bi9 Ca16 3.562429 1_555
Bi9 Ca14 3.562432 1_555
Bi9 Ca19 3.575510 1_556
Bi9 Ca18 3.575511 1_556
Bi9 Ca11 3.621629 1_555
Bi9 Ca12 3.685219 1_555
Bi9 Ca13 3.718948 1_556
Bi10 Ca6 3.248515 1_555
Bi10 Ca0 3.248515 1_555
Bi10 Ca5 3.250084 1_555
Bi10 Ca7 3.250095 1_555
Bi10 Ca14 3.256082 1_555
Bi10 Ca20 3.256101 1_555
Bi10 Ca19 3.257307 1_455
Bi10 Ca21 3.257331 1_565
Bi11 Ca2 3.248499 1_555
Bi11 Ca3 3.248523 1_555
Bi11 Ca4 3.250080 1_555
Bi11 Ca1 3.250098 1_555
Bi11 Ca16 3.256072 1_555
Bi11 Ca17 3.256103 1_555
Bi11 Ca18 3.257308 1_545
Bi11 Ca15 3.257326 1_655
Bi12 Bi18 3.170209 1_555
Bi12 Ca14 3.277495 1_555
Bi12 Ca16 3.277497 1_555
Bi12 Bi9 3.318461 1_555
Bi12 Ca0 3.548839 1_555
Bi12 Ca2 3.548841 1_555
Bi12 Ca12 3.569234 1_555
Bi12 Ca3 3.697141 1_555
Bi12 Ca6 3.697152 1_555
Bi12 Ca11 3.851360 1_555
Bi13 Bi15 3.168589 1_455
Bi13 Ca15 3.277717 1_555
Bi13 Ca14 3.278484 1_555
Bi13 Bi8 3.334381 1_556
Bi13 Ca1 3.547030 1_455
Bi13 Ca0 3.552759 1_555
Bi13 Ca12 3.566395 1_555
Bi13 Ca3 3.697241 1_455
Bi13 Ca5 3.700725 1_555
Bi13 Ca10 3.857446 1_556
Bi14 Bi16 3.168593 1_545
Bi14 Ca21 3.277720 1_555
Bi14 Ca16 3.278486 1_555
Bi14 Bi7 3.334380 1_556
Bi14 Ca7 3.547025 1_545
Bi14 Ca2 3.552762 1_555
Bi14 Ca12 3.566395 1_555
Bi14 Ca6 3.697239 1_545
Bi14 Ca4 3.700725 1_555
Bi14 Ca9 3.857437 1_556
Bi15 Ca19 3.277737 1_555
Bi15 Ca17 3.278477 1_555
Bi15 Bi7 3.334390 1_555
Bi15 Ca5 3.547037 1_655
Bi15 Ca3 3.552734 1_555
Bi15 Ca13 3.566401 1_555
Bi15 Ca0 3.697247 1_655
Bi15 Ca1 3.700708 1_555
Bi15 Ca9 3.857437 1_555
Bi16 Ca18 3.277725 1_555
Bi16 Ca20 3.278485 1_555
Bi16 Bi8 3.334386 1_555
Bi16 Ca4 3.547025 1_565
Bi16 Ca6 3.552742 1_555
Bi16 Ca13 3.566392 1_555
Bi16 Ca2 3.697255 1_565
Bi16 Ca7 3.700722 1_555
Bi16 Ca10 3.857453 1_555
Bi17 Bi19 3.164002 1_665
Bi17 Ca18 3.276002 1_555
Bi17 Ca19 3.276004 1_555
Bi17 Bi9 3.349971 1_554
Bi17 Ca4 3.548223 1_565
Bi17 Ca5 3.548236 1_655
Bi17 Ca13 3.566888 1_555
Bi17 Ca7 3.696765 1_655
Bi17 Ca1 3.696776 1_565
Bi17 Ca11 3.861362 1_554
Bi18 Ca17 3.277473 1_555
Bi18 Ca20 3.277491 1_555
Bi18 Bi6 3.318446 1_555
Bi18 Ca3 3.548848 1_555
Bi18 Ca6 3.548872 1_555
Bi18 Ca13 3.569282 1_555
Bi18 Ca2 3.697116 1_555
Bi18 Ca0 3.697121 1_555
Bi18 Ca8 3.851360 1_555
Bi19 Ca21 3.275963 1_555
Bi19 Ca15 3.275985 1_555
Bi19 Bi6 3.349931 1_556
Bi19 Ca7 3.548224 1_545
Bi19 Ca1 3.548250 1_455
Bi19 Ca12 3.566879 1_555
Bi19 Ca4 3.696794 1_455
Bi19 Ca5 3.696796 1_545
Bi19 Ca8 3.861349 1_556
