# generated using pymatgen
data_RbPb
_symmetry_space_group_name_H-M   'P 1'
_cell_length_a   12.01764391
_cell_length_b   12.01764314
_cell_length_c   12.98434568
_cell_angle_alpha   117.56627642
_cell_angle_beta   117.56628025
_cell_angle_gamma   89.99999655
_symmetry_Int_Tables_number   1
_chemical_formula_structural   RbPb
_chemical_formula_sum   'Rb16 Pb16'
_cell_volume   1417.86577682
_cell_formula_units_Z   16
loop_
 _symmetry_equiv_pos_site_id
 _symmetry_equiv_pos_as_xyz
  1  'x, y, z'
loop_
 _atom_site_type_symbol
 _atom_site_label
 _atom_site_symmetry_multiplicity
 _atom_site_fract_x
 _atom_site_fract_y
 _atom_site_fract_z
 _atom_site_occupancy
  Rb  Rb0  1  0.11383270  0.25000000  0.50000000  1
  Rb  Rb1  1  0.75000000  0.11383270  -0.00000000  1
  Rb  Rb2  1  0.25000000  0.38616730  0.00000000  1
  Rb  Rb3  1  0.38616730  0.75000000  0.50000000  1
  Rb  Rb4  1  0.88616730  0.75000000  0.50000000  1
  Rb  Rb5  1  0.25000000  0.88616730  0.00000000  1
  Rb  Rb6  1  0.75000000  0.61383270  -0.00000000  1
  Rb  Rb7  1  0.61383270  0.25000000  0.50000000  1
  Rb  Rb8  1  0.50374674  0.75374674  0.25000000  1
  Rb  Rb9  1  0.99625326  0.50374674  0.75000000  1
  Rb  Rb10  1  0.75374674  0.74625326  0.75000000  1
  Rb  Rb11  1  0.74625326  0.99625326  0.25000000  1
  Rb  Rb12  1  0.49625326  0.24625326  0.75000000  1
  Rb  Rb13  1  0.00374674  0.49625326  0.25000000  1
  Rb  Rb14  1  0.24625326  0.25374674  0.25000000  1
  Rb  Rb15  1  0.25374674  0.00374674  0.75000000  1
  Pb  Pb0  1  0.99249542  0.06761316  0.86302333  1
  Pb  Pb1  1  0.29541117  0.99249542  0.36302333  1
  Pb  Pb2  1  0.06761316  0.87052891  0.36302333  1
  Pb  Pb3  1  0.62947109  0.43238684  0.13697667  1
  Pb  Pb4  1  0.50750458  0.20458883  0.13697667  1
  Pb  Pb5  1  0.20458883  0.62947109  0.63697667  1
  Pb  Pb6  1  0.43238684  0.50750458  0.63697667  1
  Pb  Pb7  1  0.87052891  0.29541117  0.86302333  1
  Pb  Pb8  1  0.00750458  0.93238684  0.13697667  1
  Pb  Pb9  1  0.70458883  0.00750458  0.63697667  1
  Pb  Pb10  1  0.93238684  0.12947109  0.63697667  1
  Pb  Pb11  1  0.37052891  0.56761316  0.86302333  1
  Pb  Pb12  1  0.49249542  0.79541117  0.86302333  1
  Pb  Pb13  1  0.79541117  0.37052891  0.36302333  1
  Pb  Pb14  1  0.56761316  0.49249542  0.36302333  1
  Pb  Pb15  1  0.12947109  0.70458883  0.13697667  1
loop_
_geom_bond_atom_site_label_1
_geom_bond_atom_site_label_2
_geom_bond_distance
_geom_bond_site_symmetry_2
Pb0 Pb7 3.105294 1_555
Pb0 Pb10 3.121885 1_555
Pb0 Pb9 3.121901 1_555
Pb0 Rb14 3.868542 1_656
Pb0 Rb15 3.977683 1_655
Pb0 Rb1 3.980871 1_556
Pb0 Rb5 3.998743 1_646
Pb0 Rb2 3.999931 1_656
Pb0 Rb10 4.019715 1_545
Pb0 Rb4 4.024093 1_545
Pb1 Pb2 3.105294 1_555
Pb1 Pb8 3.121901 1_555
Pb1 Pb15 3.121906 1_555
Pb1 Rb12 3.868542 1_565
Pb1 Rb14 3.977682 1_565
Pb1 Rb3 3.980870 1_555
Pb1 Rb7 3.998734 1_565
Pb1 Rb0 3.999940 1_565
Pb1 Rb8 4.019705 1_555
Pb1 Rb5 4.024088 1_555
Pb2 Pb8 3.121885 1_555
Pb2 Rb15 3.868544 1_565
Pb2 Rb13 3.977694 1_555
Pb2 Rb0 3.980860 1_565
Pb2 Rb4 3.998750 1_455
Pb2 Rb3 3.999938 1_555
Pb2 Rb11 4.019708 1_455
Pb2 Rb6 4.024095 1_455
Pb3 Pb4 3.105294 1_555
Pb3 Rb12 3.868544 1_554
Pb3 Rb13 3.977694 1_655
Pb3 Rb2 3.980860 1_555
Pb3 Rb6 3.998750 1_555
Pb3 Rb1 3.999938 1_555
Pb3 Rb8 4.019708 1_555
Pb3 Rb4 4.024095 1_555
Pb4 Rb15 3.868542 1_554
Pb4 Rb14 3.977683 1_555
Pb4 Rb1 3.980871 1_555
Pb4 Rb5 3.998734 1_545
Pb4 Rb2 3.999940 1_555
Pb4 Rb11 4.019705 1_545
Pb4 Rb7 4.024088 1_555
Pb5 Pb6 3.105294 1_555
Pb5 Rb13 3.868544 1_555
Pb5 Rb15 3.977694 1_565
Pb5 Rb0 3.980859 1_555
Pb5 Rb4 3.998741 1_455
Pb5 Rb3 3.999947 1_555
Pb5 Rb9 4.019699 1_455
Pb5 Rb5 4.024090 1_556
Pb6 Rb14 3.868542 1_555
Pb6 Rb12 3.977683 1_555
Pb6 Rb3 3.980871 1_555
Pb6 Rb7 3.998743 1_555
Pb6 Rb0 3.999931 1_555
Pb6 Rb10 4.019715 1_555
Pb6 Rb6 4.024092 1_556
Pb7 Pb9 3.121906 1_555
Pb7 Rb13 3.868544 1_656
Pb7 Rb12 3.977694 1_555
Pb7 Rb2 3.980859 1_656
Pb7 Rb6 3.998741 1_556
Pb7 Rb1 3.999947 1_556
Pb7 Rb9 4.019699 1_555
Pb7 Rb7 4.024090 1_555
Pb8 Rb10 3.868542 1_454
Pb8 Rb11 3.977683 1_455
Pb8 Rb5 3.980871 1_555
Pb8 Rb1 3.998743 1_465
Pb8 Rb6 3.999931 1_455
Pb8 Rb14 4.019715 1_565
Pb8 Rb0 4.024093 1_565
Pb9 Rb8 3.868542 1_545
Pb9 Rb10 3.977682 1_545
Pb9 Rb7 3.980870 1_555
Pb9 Rb3 3.998734 1_545
Pb9 Rb4 3.999940 1_545
Pb9 Rb12 4.019705 1_555
Pb9 Rb1 4.024088 1_556
Pb10 Pb9 3.105294 1_555
Pb10 Pb7 3.121890 1_555
Pb10 Rb11 3.868544 1_545
Pb10 Rb9 3.977694 1_555
Pb10 Rb4 3.980860 1_545
Pb10 Rb0 3.998750 1_655
Pb10 Rb7 3.999938 1_555
Pb10 Rb15 4.019708 1_655
Pb10 Rb2 4.024095 1_656
Pb11 Pb12 3.105294 1_555
Pb11 Pb6 3.121885 1_555
Pb11 Pb5 3.121890 1_555
Pb11 Rb8 3.868544 1_556
Pb11 Rb9 3.977694 1_455
Pb11 Rb6 3.980860 1_556
Pb11 Rb2 3.998750 1_556
Pb11 Rb5 3.999938 1_556
Pb11 Rb12 4.019708 1_555
Pb11 Rb0 4.024095 1_555
Pb12 Pb6 3.121901 1_555
Pb12 Pb5 3.121906 1_555
Pb12 Rb11 3.868542 1_556
Pb12 Rb10 3.977683 1_555
Pb12 Rb5 3.980871 1_556
Pb12 Rb1 3.998734 1_566
Pb12 Rb6 3.999940 1_556
Pb12 Rb15 4.019705 1_565
Pb12 Rb3 4.024088 1_555
Pb13 Pb14 3.105294 1_555
Pb13 Pb3 3.121890 1_555
Pb13 Pb4 3.121906 1_555
Pb13 Rb9 3.868544 1_555
Pb13 Rb11 3.977694 1_545
Pb13 Rb4 3.980859 1_555
Pb13 Rb0 3.998741 1_655
Pb13 Rb7 3.999947 1_555
Pb13 Rb13 4.019699 1_655
Pb13 Rb1 4.024090 1_555
Pb14 Pb3 3.121885 1_555
Pb14 Pb4 3.121901 1_555
Pb14 Rb10 3.868542 1_555
Pb14 Rb8 3.977683 1_555
Pb14 Rb7 3.980871 1_555
Pb14 Rb3 3.998743 1_555
Pb14 Rb4 3.999931 1_555
Pb14 Rb14 4.019715 1_555
Pb14 Rb2 4.024092 1_555
Pb15 Pb8 3.105294 1_555
Pb15 Pb2 3.121890 1_555
Pb15 Rb9 3.868544 1_454
Pb15 Rb8 3.977694 1_555
Pb15 Rb6 3.980859 1_455
Pb15 Rb2 3.998741 1_555
Pb15 Rb5 3.999947 1_555
Pb15 Rb13 4.019699 1_555
Pb15 Rb3 4.024090 1_555
