# generated using pymatgen
data_Na4Y3TaSi3(SO8)3
_symmetry_space_group_name_H-M   'P 1'
_cell_length_a   9.24147269
_cell_length_b   9.24696517
_cell_length_c   23.54466961
_cell_angle_alpha   89.98062760
_cell_angle_beta   90.04104709
_cell_angle_gamma   119.89027919
_symmetry_Int_Tables_number   1
_chemical_formula_structural   Na4Y3TaSi3(SO8)3
_chemical_formula_sum   'Na12 Y9 Ta3 Si9 S9 O72'
_cell_volume   1744.38615374
_cell_formula_units_Z   3
loop_
 _symmetry_equiv_pos_site_id
 _symmetry_equiv_pos_as_xyz
  1  'x, y, z'
loop_
 _atom_site_type_symbol
 _atom_site_label
 _atom_site_symmetry_multiplicity
 _atom_site_fract_x
 _atom_site_fract_y
 _atom_site_fract_z
 _atom_site_occupancy
  Na  Na0  1  0.64867282  0.00398916  0.25360329  1
  Na  Na1  1  0.35380610  0.34902883  0.25361495  1
  Na  Na2  1  0.99717401  0.64402921  0.25502936  1
  Na  Na3  1  0.31145282  0.34666360  0.58699598  1
  Na  Na4  1  0.65919718  0.96091674  0.58628379  1
  Na  Na5  1  0.28885991  0.95299209  0.08305757  1
  Na  Na6  1  0.00005274  0.98648336  0.50605293  1
  Na  Na7  1  0.98260834  0.99928239  0.98558994  1
  Na  Na8  1  0.66569033  0.33233431  0.82905769  1
  Na  Na9  1  0.66762822  0.33365057  0.32607838  1
  Na  Na10  1  0.33246818  0.65202439  0.18307751  1
  Na  Na11  1  0.31026684  0.66582009  0.66053927  1
  Y  Y0  1  0.00170397  0.00131938  0.34841744  1
  Y  Y1  1  0.00253118  0.00087712  0.85443348  1
  Y  Y2  1  0.00172314  0.99115221  0.64540927  1
  Y  Y3  1  0.99223860  0.00150326  0.14976546  1
  Y  Y4  1  0.67048986  0.33773855  0.68408156  1
  Y  Y5  1  0.67126122  0.33839368  0.18527676  1
  Y  Y6  1  0.33437326  0.66081224  0.01416660  1
  Y  Y7  1  0.32386886  0.66558235  0.51882892  1
  Y  Y8  1  0.33323654  0.66903401  0.31962006  1
  Ta  Ta0  1  0.66878580  0.33493251  0.96997079  1
  Ta  Ta1  1  0.67166482  0.33647301  0.48818324  1
  Ta  Ta2  1  0.33455254  0.66730202  0.82525179  1
  Si  Si0  1  0.29465440  0.99641075  0.24478389  1
  Si  Si1  1  0.70153158  0.70549376  0.25106038  1
  Si  Si2  1  0.00369919  0.29839693  0.25069437  1
  Si  Si3  1  0.95940194  0.32921052  0.58485976  1
  Si  Si4  1  0.37719465  0.04566598  0.58366700  1
  Si  Si5  1  0.66840108  0.62691089  0.58230034  1
  Si  Si6  1  0.62722497  0.66348798  0.91833003  1
  Si  Si7  1  0.03678945  0.37389994  0.91790473  1
  Si  Si8  1  0.33682523  0.96216118  0.92213641  1
  S  S0  1  0.30024399  0.31707439  0.75189192  1
  S  S1  1  0.01726917  0.70066150  0.75392998  1
  S  S2  1  0.68347135  0.98323292  0.75227119  1
  S  S3  1  0.95388148  0.62627385  0.07752707  1
  S  S4  1  0.67079384  0.05110311  0.07754039  1
  S  S5  1  0.37910095  0.32731495  0.07778229  1
  S  S6  1  0.64031336  0.98619566  0.42015171  1
  S  S7  1  0.34729946  0.36050164  0.41980123  1
  S  S8  1  0.01154378  0.65341921  0.41774962  1
  O  O0  1  0.20606759  0.03873581  0.29685274  1
  O  O1  1  0.82364448  0.78345275  0.30555774  1
  O  O2  1  0.95686905  0.17520163  0.30507395  1
  O  O3  1  0.20532780  0.20604495  0.79878019  1
  O  O4  1  0.00117070  0.79006845  0.80246210  1
  O  O5  1  0.79439363  0.99798044  0.79903249  1
  O  O6  1  0.75080659  0.96287943  0.69706915  1
  O  O7  1  0.21344809  0.24722172  0.69666805  1
  O  O8  1  0.03471923  0.79261350  0.70017805  1
  O  O9  1  0.77982461  0.82529554  0.19517990  1
  O  O10  1  0.04511588  0.22097133  0.19452697  1
  O  O11  1  0.18928589  0.96164393  0.18472631  1
  O  O12  1  0.87945505  0.36052203  0.64029273  1
  O  O13  1  0.49071482  0.12515190  0.63898051  1
  O  O14  1  0.62802464  0.50900207  0.63682117  1
  O  O15  1  0.87534414  0.54337089  0.13147477  1
  O  O16  1  0.66402111  0.13079650  0.13126277  1
  O  O17  1  0.46283755  0.33329953  0.13201462  1
  O  O18  1  0.48604657  0.32658359  0.02937605  1
  O  O19  1  0.85032306  0.52226115  0.02856745  1
  O  O20  1  0.67575362  0.15828303  0.02852910  1
  O  O21  1  0.48639990  0.17017447  0.52735164  1
  O  O22  1  0.68730499  0.52197719  0.52582271  1
  O  O23  1  0.83911153  0.31918239  0.52756446  1
  O  O24  1  0.55123073  0.69325527  0.97453604  1
  O  O25  1  0.14131798  0.45227671  0.97406735  1
  O  O26  1  0.31147700  0.86751297  0.98129198  1
  O  O27  1  0.54833427  0.88229694  0.46965736  1
  O  O28  1  0.33378521  0.45088382  0.46950642  1
  O  O29  1  0.11957919  0.66464638  0.46555405  1
  O  O30  1  0.08416966  0.63740364  0.36333992  1
  O  O31  1  0.54552330  0.90980017  0.36692675  1
  O  O32  1  0.36237387  0.45452710  0.36675260  1
  O  O33  1  0.14015987  0.50499143  0.86281894  1
  O  O34  1  0.36534176  0.85386864  0.86830140  1
  O  O35  1  0.49394255  0.63150499  0.86330209  1
  O  O36  1  0.99122038  0.80173801  0.41852088  1
  O  O37  1  0.80852927  0.00580424  0.41904289  1
  O  O38  1  0.20030112  0.19089935  0.41854624  1
  O  O39  1  0.99388760  0.18689700  0.90679227  1
  O  O40  1  0.19217154  0.00255455  0.90819280  1
  O  O41  1  0.81303605  0.80801927  0.90628469  1
  O  O42  1  0.95299619  0.14913649  0.58636813  1
  O  O43  1  0.20362898  0.05096306  0.58498378  1
  O  O44  1  0.83502185  0.80881989  0.58523358  1
  O  O45  1  0.96922315  0.79427959  0.07409157  1
  O  O46  1  0.82009075  0.03306701  0.07505490  1
  O  O47  1  0.21712112  0.16733898  0.07429727  1
  O  O48  1  0.66114659  0.13169131  0.75199173  1
  O  O49  1  0.47158355  0.34047647  0.75200929  1
  O  O50  1  0.87006691  0.52971521  0.75236976  1
  O  O51  1  0.67339470  0.51706048  0.24378611  1
  O  O52  1  0.84454063  0.32856789  0.24336464  1
  O  O53  1  0.48502700  0.15581150  0.24148295  1
  O  O54  1  0.63014508  0.48242489  0.92574937  1
  O  O55  1  0.85247678  0.37102928  0.92485818  1
  O  O56  1  0.51826486  0.14756536  0.92669620  1
  O  O57  1  0.65408441  0.15576045  0.42478450  1
  O  O58  1  0.50392792  0.34835197  0.42419176  1
  O  O59  1  0.84364635  0.49725527  0.42327055  1
  O  O60  1  0.35550809  0.47252561  0.07623845  1
  O  O61  1  0.12449933  0.64755424  0.07732741  1
  O  O62  1  0.51409327  0.88695885  0.07646102  1
  O  O63  1  0.35868531  0.86394483  0.57426125  1
  O  O64  1  0.50743117  0.65097742  0.57196845  1
  O  O65  1  0.15077725  0.47724246  0.57620388  1
  O  O66  1  0.31048405  0.82995628  0.25732329  1
  O  O67  1  0.51623893  0.68480006  0.26018513  1
  O  O68  1  0.16895385  0.48213056  0.26049054  1
  O  O69  1  0.31156724  0.48527751  0.75961695  1
  O  O70  1  0.17489872  0.68915338  0.76018216  1
  O  O71  1  0.51353790  0.82821779  0.76078758  1
loop_
_geom_bond_atom_site_label_1
_geom_bond_atom_site_label_2
_geom_bond_distance
_geom_bond_site_symmetry_2
Na0 O53 2.540613 1_555
Na0 O67 2.575473 1_545
Na0 O52 2.632143 1_555
Na0 O66 2.711595 1_545
Na0 O2 2.754880 1_555
Na0 O31 2.821514 1_545
Na0 O9 2.844565 1_545
Na1 O68 2.560365 1_555
Na1 O51 2.572487 1_555
Na1 O53 2.627676 1_555
Na1 O0 2.688627 1_555
Na1 O67 2.696695 1_555
Na1 O32 2.824568 1_555
Na1 O10 2.846826 1_555
Na2 O66 2.526008 1_655
Na2 O52 2.544268 1_555
Na2 O51 2.626679 1_555
Na2 O68 2.673237 1_655
Na2 O30 2.683163 1_655
Na2 O1 2.777347 1_555
Na3 O65 2.348109 1_555
Na3 O43 2.399201 1_555
Na3 O64 2.498907 1_555
Na3 O7 2.739571 1_555
Na3 O14 2.794249 1_555
Na3 O42 2.877418 1_455
Na3 O28 2.902462 1_555
Na4 O42 2.385636 1_565
Na4 O63 2.472632 1_555
Na4 O64 2.507649 1_555
Na4 O44 2.626154 1_555
Na4 O6 2.739051 1_555
Na4 O27 2.893664 1_555
Na4 O13 2.937843 1_565
Na5 O47 2.391620 1_565
Na5 O62 2.448844 1_555
Na5 O61 2.454916 1_555
Na5 O26 2.564393 1_554
Na5 O45 2.569545 1_455
Na5 O11 2.580682 1_555
Na6 O44 2.450567 1_455
Na6 O43 2.495264 1_565
Na6 O42 2.584982 1_465
Na6 O36 2.652469 1_455
Na6 O37 2.769703 1_465
Na6 O38 2.785489 1_565
Na7 O39 2.506092 1_565
Na7 O41 2.511158 1_555
Na7 O40 2.649334 1_665
Na7 O46 2.694985 1_566
Na7 O45 2.777547 1_556
Na7 O47 2.848341 1_666
Na8 O49 2.577643 1_555
Na8 O48 2.580881 1_555
Na8 O50 2.593373 1_555
Na8 O55 2.752234 1_555
Na8 O54 2.770291 1_555
Na8 O56 2.782432 1_555
Na9 O51 2.557563 1_555
Na9 O52 2.559111 1_555
Na9 O53 2.598205 1_555
Na9 O59 2.777698 1_555
Na9 O58 2.802437 1_555
Na9 O57 2.813383 1_555
Na10 O68 2.389465 1_555
Na10 O67 2.398960 1_555
Na10 O66 2.477869 1_555
Na11 O65 2.567582 1_555
Na11 O63 2.620097 1_555
Na11 O70 2.718293 1_555
Na11 O64 2.818245 1_555
Na11 O69 2.871642 1_555
Na11 O71 2.922233 1_555
O0 Si0 1.627099 1_545
O0 Y0 2.124218 1_555
O1 Si1 1.620903 1_555
O1 Y0 2.116513 1_665
O2 Si2 1.622578 1_655
O2 Y0 2.112034 1_655
O3 S0 1.464679 1_555
O3 Y1 2.299290 1_555
O4 S1 1.461099 1_555
O4 Y1 2.296642 1_565
O5 S2 1.463116 1_555
O5 Y1 2.312378 1_665
O6 S2 1.493305 1_555
O6 Y2 2.514834 1_655
O7 S0 1.494622 1_555
O7 Y2 2.504525 1_545
O8 S1 1.487800 1_555
O8 Y2 2.383712 1_555
O9 Si1 1.638069 1_555
O9 Y3 2.113197 1_565
O10 Si2 1.637812 1_555
O10 Y3 2.116673 1_455
O11 Si0 1.654504 1_555
O11 Y3 2.189996 1_465
O12 Si3 1.596233 1_555
O12 Y4 2.105674 1_555
O13 Si4 1.602209 1_555
O13 Y4 2.120356 1_555
O14 Si5 1.603142 1_555
O14 Y4 2.125511 1_555
O15 S3 1.474426 1_555
O15 Y5 2.278863 1_555
O16 S4 1.481080 1_555
O16 Y5 2.276038 1_555
O17 S5 1.479285 1_555
O17 Y5 2.278378 1_555
O18 S5 1.511314 1_555
O18 Ta0 2.165087 1_554
O19 S3 1.500509 1_555
O19 Ta0 2.195546 1_554
O20 S4 1.506650 1_555
O20 Ta0 2.162516 1_554
O21 Si4 1.716087 1_555
O21 Ta1 1.877161 1_555
O22 Si5 1.705996 1_555
O22 Ta1 1.871475 1_555
O23 Si3 1.720285 1_555
O23 Ta1 1.877325 1_555
O24 Si6 1.585717 1_555
O24 Y6 2.092907 1_556
O25 Si7 1.583668 1_555
O25 Y6 2.088719 1_556
O26 Si8 1.598767 1_555
O26 Y6 2.167721 1_556
O27 S6 1.480169 1_555
O27 Y7 2.349031 1_555
O28 S7 1.479386 1_555
O28 Y7 2.341255 1_555
O29 S8 1.472954 1_555
O29 Y7 2.262317 1_555
O30 S8 1.487931 1_555
O30 Y8 2.403202 1_555
O31 S6 1.489659 1_555
O31 Y8 2.385658 1_555
O32 S7 1.488011 1_555
O32 Y8 2.401839 1_555
O33 Si7 1.706080 1_555
O33 Ta2 1.891123 1_555
O34 Si8 1.715573 1_555
O34 Ta2 1.896332 1_555
O35 Si6 1.708255 1_555
O35 Ta2 1.888325 1_555
O36 S8 1.474237 1_655
O36 Y0 2.441241 1_665
O37 S6 1.472868 1_545
O37 Y0 2.455992 1_655
O38 S7 1.477315 1_555
O38 Y0 2.441065 1_555
O39 Si7 1.591432 1_655
O39 Y1 2.150218 1_655
O40 Si8 1.591011 1_545
O40 Y1 2.154889 1_555
O41 Si6 1.590085 1_555
O41 Y1 2.150910 1_665
O42 Si3 1.636816 1_555
O42 Y2 2.218719 1_645
O43 Si4 1.629283 1_555
O43 Y2 2.187758 1_545
O44 Si5 1.619778 1_555
O44 Y2 2.152454 1_655
O45 S3 1.490148 1_555
O45 Y3 2.546977 1_565
O46 S4 1.471171 1_555
O46 Y3 2.483705 1_555
O47 S5 1.492883 1_555
O47 Y3 2.579732 1_455
O48 S2 1.486418 1_545
O48 Y4 2.455278 1_555
O49 S0 1.487470 1_555
O49 Y4 2.447054 1_555
O50 S1 1.485730 1_655
O50 Y4 2.423342 1_555
O51 Si1 1.637557 1_555
O51 Y5 2.143986 1_555
O52 Si2 1.636961 1_655
O52 Y5 2.141235 1_555
O53 Si0 1.639934 1_545
O53 Y5 2.160900 1_555
O54 Si6 1.696850 1_555
O54 Ta0 1.885629 1_555
O55 Si7 1.698276 1_655
O55 Ta0 1.886520 1_555
O56 Si8 1.702072 1_545
O56 Ta0 1.889978 1_555
O57 S6 1.512549 1_545
O57 Ta1 2.185792 1_555
O58 S7 1.510086 1_555
O58 Ta1 2.202557 1_555
O59 S8 1.508865 1_655
O59 Ta1 2.172359 1_555
O60 S5 1.464106 1_555
O60 Y6 2.354184 1_555
O61 S3 1.488517 1_455
O61 Y6 2.399030 1_555
O62 S4 1.486881 1_565
O62 Y6 2.412395 1_555
O63 Si4 1.617300 1_565
O63 Y7 2.141069 1_555
O64 Si5 1.628205 1_555
O64 Y7 2.164840 1_555
O65 Si3 1.621918 1_455
O65 Y7 2.154442 1_555
O66 Si0 1.643700 1_555
O66 Y8 2.172507 1_555
O67 Si1 1.639794 1_555
O67 Y8 2.144112 1_555
O68 Si2 1.638827 1_555
O68 Y8 2.147913 1_555
O69 S0 1.516953 1_555
O69 Ta2 2.216133 1_555
O70 S1 1.519618 1_555
O70 Ta2 2.204219 1_555
O71 S2 1.522432 1_555
O71 Ta2 2.191521 1_555
