# generated using pymatgen
data_Bi2Se3
_symmetry_space_group_name_H-M   'P 1'
_cell_length_a   4.13874450
_cell_length_b   11.61078211
_cell_length_c   12.23622645
_cell_angle_alpha   90.00000000
_cell_angle_beta   90.00000000
_cell_angle_gamma   90.00000000
_symmetry_Int_Tables_number   1
_chemical_formula_structural   Bi2Se3
_chemical_formula_sum   'Bi8 Se12'
_cell_volume   588.00036732
_cell_formula_units_Z   4
loop_
 _symmetry_equiv_pos_site_id
 _symmetry_equiv_pos_as_xyz
  1  'x, y, z'
loop_
 _atom_site_type_symbol
 _atom_site_label
 _atom_site_symmetry_multiplicity
 _atom_site_fract_x
 _atom_site_fract_y
 _atom_site_fract_z
 _atom_site_occupancy
  Bi  Bi0  1  0.25000000  0.96212802  0.84921182  1
  Bi  Bi1  1  0.75000000  0.03787198  0.15078818  1
  Bi  Bi2  1  0.75000000  0.46212802  0.65078818  1
  Bi  Bi3  1  0.25000000  0.53787198  0.34921182  1
  Bi  Bi4  1  0.25000000  0.17052154  0.51879379  1
  Bi  Bi5  1  0.75000000  0.82947846  0.48120621  1
  Bi  Bi6  1  0.75000000  0.67052154  0.98120621  1
  Bi  Bi7  1  0.25000000  0.32947846  0.01879379  1
  Se  Se0  1  0.25000000  0.30476457  0.71183108  1
  Se  Se1  1  0.75000000  0.69523543  0.28816892  1
  Se  Se2  1  0.75000000  0.80476457  0.78816892  1
  Se  Se3  1  0.25000000  0.19523543  0.21183108  1
  Se  Se4  1  0.25000000  0.94795917  0.37511221  1
  Se  Se5  1  0.75000000  0.05204083  0.62488779  1
  Se  Se6  1  0.75000000  0.44795917  0.12488779  1
  Se  Se7  1  0.25000000  0.55204083  0.87511221  1
  Se  Se8  1  0.25000000  0.86710363  0.05250364  1
  Se  Se9  1  0.75000000  0.13289637  0.94749636  1
  Se  Se10  1  0.75000000  0.36710363  0.44749636  1
  Se  Se11  1  0.25000000  0.63289637  0.55250364  1
loop_
_geom_bond_atom_site_label_1
_geom_bond_atom_site_label_2
_geom_bond_distance
_geom_bond_site_symmetry_2
Bi0 Se8 2.721225 1_556
Bi0 Se2 2.859817 1_555
Bi0 Se2 2.859817 1_455
Bi0 Se9 3.108044 1_565
Bi0 Se9 3.108044 1_465
Bi1 Se9 2.721225 1_554
Bi1 Se3 2.859817 1_655
Bi1 Se3 2.859817 1_555
Bi1 Se8 3.108044 1_645
Bi1 Se8 3.108044 1_545
Bi2 Se10 2.721225 1_555
Bi2 Se0 2.859817 1_555
Bi2 Se0 2.859817 1_655
Bi2 Se11 3.108044 1_655
Bi2 Se11 3.108044 1_555
Bi3 Se11 2.721225 1_555
Bi3 Se1 2.859817 1_555
Bi3 Se1 2.859817 1_455
Bi3 Se10 3.108044 1_555
Bi3 Se10 3.108044 1_455
Bi4 Se5 2.803573 1_455
Bi4 Se5 2.803573 1_555
Bi4 Se0 2.829967 1_555
Bi4 Se4 3.125489 1_545
Bi4 Se10 3.202043 1_455
Bi4 Se10 3.202043 1_555
Bi5 Se4 2.803573 1_655
Bi5 Se4 2.803573 1_555
Bi5 Se1 2.829967 1_555
Bi5 Se5 3.125489 1_565
Bi5 Se11 3.202043 1_655
Bi5 Se11 3.202043 1_555
Bi6 Se7 2.803573 1_555
Bi6 Se7 2.803573 1_655
Bi6 Se2 2.829967 1_555
Bi6 Se6 3.125489 1_556
Bi6 Se8 3.202043 1_656
Bi6 Se8 3.202043 1_556
Bi7 Se6 2.803573 1_555
Bi7 Se6 2.803573 1_455
Bi7 Se3 2.829967 1_555
Bi7 Se7 3.125489 1_554
Bi7 Se9 3.202043 1_454
Bi7 Se9 3.202043 1_554
