# generated using pymatgen
data_Na2Hf4Sc4Si3(S3O16)3
_symmetry_space_group_name_H-M   'P 1'
_cell_length_a   17.84698313
_cell_length_b   8.90729509
_cell_length_c   23.19816620
_cell_angle_alpha   89.90430130
_cell_angle_beta   90.21767533
_cell_angle_gamma   120.00703402
_symmetry_Int_Tables_number   1
_chemical_formula_structural   Na2Hf4Sc4Si3(S3O16)3
_chemical_formula_sum   'Na6 Hf12 Sc12 Si9 S27 O144'
_cell_volume   3193.45649659
_cell_formula_units_Z   3
loop_
 _symmetry_equiv_pos_site_id
 _symmetry_equiv_pos_as_xyz
  1  'x, y, z'
loop_
 _atom_site_type_symbol
 _atom_site_label
 _atom_site_symmetry_multiplicity
 _atom_site_fract_x
 _atom_site_fract_y
 _atom_site_fract_z
 _atom_site_occupancy
  Na  Na0  1  0.99673475  0.00514268  0.49972291  1
  Na  Na1  1  0.49729524  0.98829477  0.00392223  1
  Na  Na2  1  0.32924823  0.32550162  0.83937283  1
  Na  Na3  1  0.82899427  0.33113158  0.83290831  1
  Na  Na4  1  0.33087969  0.32821658  0.33161519  1
  Na  Na5  1  0.82423988  0.32589427  0.33567623  1
  Hf  Hf0  1  0.51137572  0.01484648  0.35537173  1
  Hf  Hf1  1  0.00366932  0.99866316  0.85811038  1
  Hf  Hf2  1  0.50587605  0.01881418  0.64424785  1
  Hf  Hf3  1  0.00493954  0.99093655  0.14489241  1
  Hf  Hf4  1  0.33788306  0.33619245  0.68433074  1
  Hf  Hf5  1  0.83458873  0.33556189  0.68503036  1
  Hf  Hf6  1  0.33660700  0.33551605  0.18654318  1
  Hf  Hf7  1  0.83385408  0.33317961  0.18785429  1
  Hf  Hf8  1  0.16335406  0.67732797  0.02336636  1
  Hf  Hf9  1  0.66221693  0.66674837  0.02513989  1
  Hf  Hf10  1  0.16270222  0.65859043  0.52263137  1
  Hf  Hf11  1  0.66258627  0.64967351  0.51989962  1
  Sc  Sc0  1  0.00514541  0.00263210  0.34947734  1
  Sc  Sc1  1  0.50676916  0.00974679  0.85118865  1
  Sc  Sc2  1  0.99837476  0.00984373  0.64532018  1
  Sc  Sc3  1  0.50382283  0.98445553  0.14887975  1
  Sc  Sc4  1  0.33286964  0.33742322  0.98176368  1
  Sc  Sc5  1  0.83839760  0.34602732  0.98405358  1
  Sc  Sc6  1  0.33930571  0.33010269  0.48082914  1
  Sc  Sc7  1  0.83252740  0.32685542  0.47907417  1
  Sc  Sc8  1  0.16733339  0.67638363  0.30744521  1
  Sc  Sc9  1  0.66815929  0.66487149  0.31106542  1
  Sc  Sc10  1  0.16970505  0.68154862  0.81553343  1
  Sc  Sc11  1  0.66560449  0.65617822  0.80851541  1
  Si  Si0  1  0.14773918  0.00530963  0.25102638  1
  Si  Si1  1  0.64745449  0.99726089  0.25024873  1
  Si  Si2  1  0.64800240  0.29096402  0.75089873  1
  Si  Si3  1  0.47934275  0.33562464  0.58215158  1
  Si  Si4  1  0.97587153  0.32988632  0.58230212  1
  Si  Si5  1  0.47504813  0.62548625  0.08209406  1
  Si  Si6  1  0.97698476  0.62048512  0.08416390  1
  Si  Si7  1  0.17228309  0.96410116  0.91647945  1
  Si  Si8  1  0.67103395  0.38124320  0.41464539  1
  S  S0  1  0.35504331  0.71033994  0.25096558  1
  S  S1  1  0.85594683  0.71249141  0.24956448  1
  S  S2  1  0.00006459  0.28859891  0.25001008  1
  S  S3  1  0.49998658  0.28787357  0.24955136  1
  S  S4  1  0.14467002  0.29056043  0.75029161  1
  S  S5  1  0.00063714  0.71202129  0.74977724  1
  S  S6  1  0.49902258  0.71059715  0.75015582  1
  S  S7  1  0.35511998  0.99867913  0.74961365  1
  S  S8  1  0.85556692  0.00035503  0.75059032  1
  S  S9  1  0.18829998  0.04434511  0.58247505  1
  S  S10  1  0.68881751  0.04218659  0.58290222  1
  S  S11  1  0.33397761  0.62297539  0.58278083  1
  S  S12  1  0.83429587  0.62489157  0.58259479  1
  S  S13  1  0.33528012  0.04560484  0.08288960  1
  S  S14  1  0.83430569  0.04549751  0.08309298  1
  S  S15  1  0.18873303  0.33445552  0.08321579  1
  S  S16  1  0.68819056  0.33233321  0.08219972  1
  S  S17  1  0.31239947  0.66834186  0.91630706  1
  S  S18  1  0.81016455  0.66490064  0.91587512  1
  S  S19  1  0.02145717  0.37803161  0.91578323  1
  S  S20  1  0.52236422  0.37777637  0.91654881  1
  S  S21  1  0.66752107  0.95668917  0.91636568  1
  S  S22  1  0.31055561  0.95424037  0.41605872  1
  S  S23  1  0.81280221  0.95611494  0.41664484  1
  S  S24  1  0.16712079  0.37705905  0.41646711  1
  S  S25  1  0.02238900  0.66739677  0.41628947  1
  S  S26  1  0.52099900  0.66552718  0.41600063  1
  O  O0  1  0.10096720  0.03450491  0.30695848  1
  O  O1  1  0.60026285  0.03196170  0.30591952  1
  O  O2  1  0.40893573  0.78863045  0.30276246  1
  O  O3  1  0.90974457  0.78833275  0.30157124  1
  O  O4  1  0.48246202  0.17626346  0.30177471  1
  O  O5  1  0.98328292  0.17982172  0.30198704  1
  O  O6  1  0.10280680  0.17755366  0.80194348  1
  O  O7  1  0.60083463  0.16728177  0.80671081  1
  O  O8  1  0.48205575  0.78460433  0.80196997  1
  O  O9  1  0.98568326  0.79471679  0.80167251  1
  O  O10  1  0.40858005  0.03165599  0.80157281  1
  O  O11  1  0.91102405  0.02996437  0.80219931  1
  O  O12  1  0.39618707  0.97514472  0.69785626  1
  O  O13  1  0.89525976  0.97386973  0.69905706  1
  O  O14  1  0.09241380  0.20701333  0.69864805  1
  O  O15  1  0.58610913  0.19588297  0.69490704  1
  O  O16  1  0.01221454  0.81671468  0.69846276  1
  O  O17  1  0.50929531  0.81227184  0.69791690  1
  O  O18  1  0.39223159  0.81437432  0.19873074  1
  O  O19  1  0.89771676  0.82071769  0.19779052  1
  O  O20  1  0.01046020  0.20649523  0.19796089  1
  O  O21  1  0.50978674  0.20700162  0.19759819  1
  O  O22  1  0.08610446  0.97617126  0.19483286  1
  O  O23  1  0.58828924  0.97528487  0.19416694  1
  O  O24  1  0.43017861  0.36050814  0.63905258  1
  O  O25  1  0.93252380  0.36104721  0.64005525  1
  O  O26  1  0.24242923  0.12636243  0.63523178  1
  O  O27  1  0.74293307  0.12711811  0.63554028  1
  O  O28  1  0.31686788  0.50966155  0.63524778  1
  O  O29  1  0.81909007  0.51544791  0.63533368  1
  O  O30  1  0.43173755  0.50305035  0.13880966  1
  O  O31  1  0.92930914  0.49772131  0.13933823  1
  O  O32  1  0.31833375  0.12268671  0.13490662  1
  O  O33  1  0.81653406  0.12170257  0.13453661  1
  O  O34  1  0.24294551  0.35983902  0.13517922  1
  O  O35  1  0.74209742  0.36098692  0.13413544  1
  O  O36  1  0.22529390  0.29851598  0.03205553  1
  O  O37  1  0.72767046  0.30310855  0.03067028  1
  O  O38  1  0.41777518  0.52994493  0.02566184  1
  O  O39  1  0.91802927  0.53265751  0.02693490  1
  O  O40  1  0.34617305  0.14985718  0.03119338  1
  O  O41  1  0.84642053  0.15014385  0.03119528  1
  O  O42  1  0.22711689  0.15334770  0.53155549  1
  O  O43  1  0.72552676  0.15316290  0.53242122  1
  O  O44  1  0.34628136  0.54159019  0.53189978  1
  O  O45  1  0.84805895  0.54536553  0.53178989  1
  O  O46  1  0.41633211  0.30296613  0.52784061  1
  O  O47  1  0.91719249  0.30182609  0.52654114  1
  O  O48  1  0.27077286  0.69004670  0.96834624  1
  O  O49  1  0.77185029  0.69279145  0.96808676  1
  O  O50  1  0.07502932  0.45269825  0.96790580  1
  O  O51  1  0.57830166  0.46201056  0.96848275  1
  O  O52  1  0.15357280  0.83613406  0.97172402  1
  O  O53  1  0.65639846  0.84772785  0.96874201  1
  O  O54  1  0.26889140  0.84914588  0.46886889  1
  O  O55  1  0.77112775  0.85206907  0.46956871  1
  O  O56  1  0.15629602  0.46457065  0.46920540  1
  O  O57  1  0.65481760  0.47040251  0.47253606  1
  O  O58  1  0.07819334  0.69381652  0.46891816  1
  O  O59  1  0.57473259  0.69506302  0.46873089  1
  O  O60  1  0.06327187  0.64182715  0.36544350  1
  O  O61  1  0.55958026  0.63561678  0.36519753  1
  O  O62  1  0.25544213  0.87267470  0.36514789  1
  O  O63  1  0.76010824  0.87782608  0.36500158  1
  O  O64  1  0.17890237  0.48223714  0.36525134  1
  O  O65  1  0.68247839  0.49995732  0.35950902  1
  O  O66  1  0.06142848  0.48343083  0.86401218  1
  O  O67  1  0.56320057  0.48470280  0.86509579  1
  O  O68  1  0.18122107  0.86678297  0.85960582  1
  O  O69  1  0.67878017  0.87488896  0.86476074  1
  O  O70  1  0.25871394  0.64163361  0.86400046  1
  O  O71  1  0.75701068  0.64075723  0.86430819  1
  O  O72  1  0.01373212  0.82451224  0.41214319  1
  O  O73  1  0.50944512  0.81810285  0.40872694  1
  O  O74  1  0.39611538  0.97210283  0.40838464  1
  O  O75  1  0.90011782  0.97407422  0.41119008  1
  O  O76  1  0.08737650  0.20427382  0.41293862  1
  O  O77  1  0.58182372  0.19231604  0.40864768  1
  O  O78  1  0.01119278  0.20195512  0.90628145  1
  O  O79  1  0.51330204  0.20280379  0.91150809  1
  O  O80  1  0.08363482  0.97604028  0.90479224  1
  O  O81  1  0.58759547  0.96985728  0.91216202  1
  O  O82  1  0.39914198  0.82518001  0.90943342  1
  O  O83  1  0.89749950  0.82145829  0.90666910  1
  O  O84  1  0.48534823  0.16205835  0.59293733  1
  O  O85  1  0.99090019  0.16356837  0.59147990  1
  O  O86  1  0.10111523  0.01928951  0.59143603  1
  O  O87  1  0.60130775  0.01850494  0.59362817  1
  O  O88  1  0.40975816  0.79227285  0.59443290  1
  O  O89  1  0.91213795  0.79733727  0.59187970  1
  O  O90  1  0.48810854  0.81858290  0.08692197  1
  O  O91  1  0.98600519  0.80997807  0.09223830  1
  O  O92  1  0.41179391  0.02755567  0.09094453  1
  O  O93  1  0.91005181  0.02669360  0.09340834  1
  O  O94  1  0.10103580  0.18416795  0.09319480  1
  O  O95  1  0.60035575  0.18463285  0.08891475  1
  O  O96  1  0.34407501  0.15622004  0.74130592  1
  O  O97  1  0.84688902  0.15845044  0.74329412  1
  O  O98  1  0.23220785  0.30591062  0.74316454  1
  O  O99  1  0.74390669  0.31194713  0.74207418  1
  O  O100  1  0.41893551  0.53165035  0.74259022  1
  O  O101  1  0.92065675  0.53676413  0.74416187  1
  O  O102  1  0.34577339  0.53341644  0.24315107  1
  O  O103  1  0.84740301  0.53677025  0.24167165  1
  O  O104  1  0.41982093  0.30546069  0.24377261  1
  O  O105  1  0.92149463  0.30823371  0.24282298  1
  O  O106  1  0.24343715  0.17592935  0.24193324  1
  O  O107  1  0.74281270  0.17459282  0.24166234  1
  O  O108  1  0.32140106  0.51230958  0.92155928  1
  O  O109  1  0.82065932  0.51057721  0.92189488  1
  O  O110  1  0.43615144  0.35893275  0.92305791  1
  O  O111  1  0.93346619  0.35375609  0.92268419  1
  O  O112  1  0.25455754  0.15572174  0.92257481  1
  O  O113  1  0.74403004  0.13105003  0.92392636  1
  O  O114  1  0.31863355  0.12884181  0.42286730  1
  O  O115  1  0.82238249  0.13096967  0.42284280  1
  O  O116  1  0.24386261  0.35710115  0.42501083  1
  O  O117  1  0.75364380  0.35408897  0.42466342  1
  O  O118  1  0.43284453  0.51111099  0.42413934  1
  O  O119  1  0.93643130  0.51358161  0.42373368  1
  O  O120  1  0.18092327  0.48964501  0.07396826  1
  O  O121  1  0.68263530  0.49287478  0.07280708  1
  O  O122  1  0.07134773  0.63773788  0.07422102  1
  O  O123  1  0.57151674  0.64329687  0.07168385  1
  O  O124  1  0.25757324  0.86988618  0.07520723  1
  O  O125  1  0.75709312  0.87018677  0.07322417  1
  O  O126  1  0.18186232  0.87278060  0.57428122  1
  O  O127  1  0.68095098  0.87210694  0.57515430  1
  O  O128  1  0.25670884  0.64283434  0.57423556  1
  O  O129  1  0.75815985  0.64743573  0.57565780  1
  O  O130  1  0.07298379  0.50082428  0.57183026  1
  O  O131  1  0.57254373  0.50785377  0.57488157  1
  O  O132  1  0.15533212  0.83361941  0.26052600  1
  O  O133  1  0.65752134  0.83178928  0.26229411  1
  O  O134  1  0.26790743  0.68479426  0.25961039  1
  O  O135  1  0.77046819  0.69220985  0.25550445  1
  O  O136  1  0.07626528  0.45971869  0.25862898  1
  O  O137  1  0.57429090  0.45964076  0.25822480  1
  O  O138  1  0.15480849  0.46123673  0.75948558  1
  O  O139  1  0.65581955  0.47810593  0.76074745  1
  O  O140  1  0.07520979  0.68829443  0.75898179  1
  O  O141  1  0.57442507  0.68930407  0.75839366  1
  O  O142  1  0.26905701  0.84598876  0.75624034  1
  O  O143  1  0.76932247  0.85024826  0.75933764  1
loop_
_geom_bond_atom_site_label_1
_geom_bond_atom_site_label_2
_geom_bond_distance
_geom_bond_site_symmetry_2
Na0 O85 2.586846 1_555
Na0 O75 2.601089 1_545
Na0 O76 2.637990 1_655
Na0 O72 2.704110 1_645
Na0 O89 2.737191 1_545
Na0 O86 2.783659 1_655
Na1 O90 2.400863 1_555
Na1 O92 2.661895 1_565
Na1 O95 2.663762 1_565
Na1 O82 2.723979 1_554
Na1 O81 2.728987 1_554
Na1 O79 2.788087 1_564
Na2 O112 2.404745 1_555
Na2 O108 2.582459 1_555
Na2 O110 2.627373 1_555
Na2 O98 2.771405 1_555
Na2 O96 2.816774 1_555
Na2 O100 2.836968 1_555
Na3 O99 2.548094 1_555
Na3 O109 2.662619 1_555
Na3 O113 2.691190 1_555
Na3 O101 2.699166 1_555
Na3 O97 2.701228 1_555
Na3 O111 2.729551 1_555
Na4 O106 2.543847 1_555
Na4 O104 2.657264 1_555
Na4 O102 2.669951 1_555
Na4 O114 2.699163 1_555
Na4 O118 2.754866 1_555
Na4 O116 2.756672 1_555
Na5 O117 2.499993 1_555
Na5 O107 2.590656 1_555
Na5 O115 2.652506 1_555
Na5 O119 2.758467 1_555
Na5 O103 2.769684 1_555
Na5 O105 2.824867 1_555
Hf0 O77 1.901022 1_555
Hf0 O1 1.904526 1_555
Hf0 O73 2.130017 1_545
Hf0 O4 2.147250 1_555
Hf0 O74 2.263434 1_545
Hf0 O2 2.280061 1_545
Hf1 O80 1.877567 1_555
Hf1 O78 2.075609 1_565
Hf1 O83 2.090333 1_455
Hf1 O9 2.130437 1_455
Hf1 O6 2.134925 1_565
Hf1 O11 2.222044 1_465
Hf2 O84 1.907402 1_555
Hf2 O15 1.911428 1_555
Hf2 O87 2.073555 1_555
Hf2 O12 2.187557 1_545
Hf2 O88 2.209163 1_545
Hf2 O17 2.245549 1_545
Hf3 O22 1.906585 1_555
Hf3 O91 1.913873 1_455
Hf3 O94 2.097211 1_565
Hf3 O19 2.139206 1_455
Hf3 O93 2.217775 1_465
Hf3 O20 2.242682 1_565
Hf4 O24 1.875898 1_555
Hf4 O28 2.096457 1_555
Hf4 O100 2.103377 1_555
Hf4 O96 2.120844 1_555
Hf4 O26 2.121412 1_555
Hf4 O98 2.236511 1_555
Hf5 O25 1.952246 1_555
Hf5 O99 2.022244 1_555
Hf5 O27 2.096708 1_555
Hf5 O29 2.099449 1_555
Hf5 O101 2.166046 1_555
Hf5 O97 2.168140 1_555
Hf6 O30 1.951979 1_555
Hf6 O106 2.020545 1_555
Hf6 O104 2.102692 1_555
Hf6 O32 2.126337 1_555
Hf6 O102 2.139213 1_555
Hf6 O34 2.146421 1_555
Hf7 O31 1.956701 1_555
Hf7 O107 1.976709 1_555
Hf7 O105 2.110315 1_555
Hf7 O103 2.114800 1_555
Hf7 O33 2.143868 1_555
Hf7 O35 2.164517 1_555
Hf8 O122 1.909599 1_555
Hf8 O52 1.925183 1_554
Hf8 O124 2.079046 1_555
Hf8 O120 2.187688 1_555
Hf8 O50 2.232043 1_554
Hf8 O48 2.262321 1_554
Hf9 O123 1.871911 1_555
Hf9 O121 2.076025 1_555
Hf9 O125 2.078090 1_555
Hf9 O53 2.116725 1_554
Hf9 O51 2.134814 1_554
Hf9 O49 2.280041 1_554
Hf10 O130 1.897151 1_555
Hf10 O56 2.084284 1_555
Hf10 O58 2.093703 1_555
Hf10 O128 2.118320 1_555
Hf10 O126 2.131777 1_555
Hf10 O54 2.195800 1_555
Hf11 O57 1.886681 1_555
Hf11 O131 1.945450 1_555
Hf11 O129 2.144779 1_555
Hf11 O59 2.156190 1_555
Hf11 O55 2.209747 1_555
Hf11 O127 2.243146 1_555
O0 Si0 1.635377 1_555
O0 Sc0 1.871983 1_555
O1 Si1 1.656120 1_545
O2 S0 1.475930 1_555
O3 S1 1.476119 1_555
O3 Sc0 2.125936 1_665
O4 S3 1.497231 1_555
O5 S2 1.480189 1_655
O5 Sc0 2.112769 1_655
O6 S4 1.502575 1_555
O7 Si2 1.635418 1_555
O7 Sc1 1.871917 1_555
O8 S6 1.475160 1_555
O8 Sc1 2.153834 1_565
O9 S5 1.505038 1_655
O10 S7 1.470240 1_545
O10 Sc1 2.181671 1_555
O11 S8 1.487777 1_555
O12 S7 1.477818 1_555
O13 S8 1.470095 1_565
O13 Sc2 2.114152 1_565
O14 S4 1.469412 1_555
O14 Sc2 2.115396 1_455
O15 Si2 1.637572 1_555
O16 S5 1.461098 1_555
O16 Sc2 2.226142 1_465
O17 S6 1.467763 1_555
O18 S0 1.467907 1_555
O18 Sc3 2.143056 1_555
O19 S1 1.487186 1_555
O20 S2 1.472257 1_555
O21 S3 1.460331 1_555
O21 Sc3 2.239111 1_545
O22 Si0 1.637487 1_565
O23 Si1 1.621588 1_555
O23 Sc3 1.869145 1_555
O24 Si3 1.663041 1_555
O25 Si4 1.641463 1_555
O26 S9 1.500962 1_555
O27 S10 1.503167 1_555
O28 S11 1.511239 1_555
O29 S12 1.501573 1_555
O30 Si5 1.636357 1_555
O31 Si6 1.622018 1_555
O32 S13 1.494068 1_555
O33 S14 1.485414 1_555
O34 S15 1.487818 1_555
O35 S16 1.479501 1_555
O36 S15 1.467266 1_555
O36 Sc4 2.125426 1_554
O37 S16 1.477859 1_555
O37 Sc5 2.116602 1_554
O38 Si5 1.614412 1_555
O38 Sc4 1.915449 1_554
O39 Si6 1.628244 1_555
O39 Sc5 1.845142 1_554
O40 S13 1.468267 1_555
O40 Sc4 2.133257 1_554
O41 S14 1.470269 1_555
O41 Sc5 2.122046 1_554
O42 S9 1.465456 1_555
O42 Sc6 2.175125 1_555
O43 S10 1.460123 1_555
O43 Sc7 2.151359 1_555
O44 S11 1.459792 1_555
O44 Sc6 2.177043 1_555
O45 S12 1.459514 1_555
O45 Sc7 2.196886 1_555
O46 Si3 1.612414 1_555
O46 Sc6 1.859473 1_555
O47 Si4 1.600453 1_555
O47 Sc7 1.966947 1_555
O48 S17 1.482534 1_555
O49 S18 1.474294 1_555
O50 S19 1.475257 1_555
O51 S20 1.501913 1_555
O52 Si7 1.634271 1_555
O53 S21 1.504286 1_555
O54 S22 1.495643 1_555
O55 S23 1.494361 1_555
O56 S24 1.515690 1_555
O57 Si8 1.659640 1_555
O58 S25 1.514973 1_555
O59 S26 1.491645 1_555
O60 S25 1.466012 1_555
O60 Sc8 2.190880 1_555
O61 S26 1.457651 1_555
O61 Sc9 2.216367 1_555
O62 S22 1.472905 1_555
O62 Sc8 2.136209 1_555
O63 S23 1.464328 1_555
O63 Sc9 2.176102 1_555
O64 S24 1.461049 1_555
O64 Sc8 2.275682 1_555
O65 Si8 1.605398 1_555
O65 Sc9 1.963109 1_555
O66 S19 1.471578 1_555
O66 Sc10 2.170752 1_555
O67 S20 1.473608 1_555
O67 Sc11 2.148332 1_555
O68 Si7 1.631351 1_555
O68 Sc10 1.864053 1_555
O69 S21 1.468192 1_555
O69 Sc11 2.258520 1_555
O70 S17 1.486985 1_555
O70 Sc10 2.112821 1_555
O71 S18 1.471523 1_555
O71 Sc11 2.136063 1_555
O72 S25 1.485715 1_555
O72 Sc0 2.210838 1_565
O73 S26 1.482308 1_555
O74 S22 1.465488 1_555
O75 S23 1.490657 1_555
O75 Sc0 2.273761 1_665
O76 S24 1.486459 1_555
O76 Sc0 2.214270 1_555
O77 Si8 1.644811 1_555
O78 S19 1.501797 1_555
O79 S20 1.489027 1_555
O79 Sc1 2.176000 1_555
O80 Si7 1.659156 1_555
O81 S21 1.491382 1_555
O81 Sc1 2.168698 1_565
O82 S17 1.487150 1_555
O82 Sc1 2.252052 1_565
O83 S18 1.499065 1_555
O84 Si3 1.621255 1_555
O85 Si4 1.645566 1_555
O85 Sc2 1.904838 1_555
O86 S9 1.472779 1_555
O86 Sc2 2.189632 1_455
O87 S10 1.489579 1_555
O88 S11 1.461124 1_555
O89 S12 1.483318 1_555
O89 Sc2 2.137296 1_565
O90 Si5 1.620068 1_555
O90 Sc3 1.979147 1_555
O91 Si6 1.624484 1_555
O92 S13 1.463902 1_555
O92 Sc3 2.294227 1_545
O93 S14 1.461734 1_555
O94 S15 1.483686 1_555
O95 S16 1.466569 1_555
O95 Sc3 2.240503 1_545
O96 S7 1.523359 1_545
O97 S8 1.500938 1_555
O98 S4 1.508311 1_555
O99 Si2 1.639813 1_555
O100 S6 1.527964 1_555
O101 S5 1.503964 1_655
O102 S0 1.511184 1_555
O103 S1 1.506207 1_555
O104 S3 1.520560 1_555
O105 S2 1.506012 1_655
O106 Si0 1.636046 1_555
O107 Si1 1.656428 1_545
O108 S17 1.481513 1_555
O108 Sc4 2.174529 1_555
O109 S18 1.483509 1_555
O109 Sc5 2.186624 1_555
O110 S20 1.470290 1_555
O110 Sc4 2.225758 1_555
O111 S19 1.483448 1_655
O111 Sc5 2.193510 1_555
O112 Si7 1.606789 1_545
O112 Sc4 2.046579 1_555
O113 S21 1.478266 1_545
O113 Sc5 2.283453 1_555
O114 S22 1.496946 1_545
O114 Sc6 2.121457 1_555
O115 S23 1.486562 1_545
O115 Sc7 2.113909 1_555
O116 S24 1.479211 1_555
O116 Sc6 2.242308 1_555
O117 Si8 1.624827 1_555
O117 Sc7 1.990256 1_555
O118 S26 1.496555 1_555
O118 Sc6 2.105543 1_555
O119 S25 1.469460 1_655
O119 Sc7 2.186141 1_555
O120 S15 1.472326 1_555
O121 S16 1.497592 1_555
O122 Si6 1.630020 1_455
O123 Si5 1.666580 1_555
O124 S13 1.494256 1_565
O125 S14 1.495414 1_565
O126 S9 1.486554 1_565
O127 S10 1.461188 1_565
O128 S11 1.487971 1_555
O129 S12 1.477734 1_555
O130 Si4 1.656399 1_455
O131 Si3 1.611715 1_555
O132 Si0 1.616045 1_565
O132 Sc8 1.866891 1_555
O133 Si1 1.595575 1_555
O133 Sc9 1.949805 1_555
O134 S0 1.469236 1_555
O134 Sc8 2.083070 1_555
O135 S1 1.450774 1_555
O135 Sc9 2.150961 1_555
O136 S2 1.462303 1_555
O136 Sc8 2.122385 1_555
O137 S3 1.452425 1_555
O137 Sc9 2.140011 1_555
O138 S4 1.454333 1_555
O138 Sc10 2.257485 1_555
O139 Si2 1.618251 1_555
O139 Sc11 1.871268 1_555
O140 S5 1.463069 1_555
O140 Sc10 2.157102 1_555
O141 S6 1.461722 1_555
O141 Sc11 2.133487 1_555
O142 S7 1.464318 1_555
O142 Sc10 2.143708 1_555
O143 S8 1.463236 1_565
O143 Sc11 2.127221 1_555
