# generated using pymatgen
data_Na8Ti5O14
_symmetry_space_group_name_H-M   'P 1'
_cell_length_a   8.32562283
_cell_length_b   8.50854748
_cell_length_c   10.49949619
_cell_angle_alpha   104.13119885
_cell_angle_beta   102.14168403
_cell_angle_gamma   112.54072323
_symmetry_Int_Tables_number   1
_chemical_formula_structural   Na8Ti5O14
_chemical_formula_sum   'Na16 Ti10 O28'
_cell_volume   626.64240297
_cell_formula_units_Z   2
loop_
 _symmetry_equiv_pos_site_id
 _symmetry_equiv_pos_as_xyz
  1  'x, y, z'
loop_
 _atom_site_type_symbol
 _atom_site_label
 _atom_site_symmetry_multiplicity
 _atom_site_fract_x
 _atom_site_fract_y
 _atom_site_fract_z
 _atom_site_occupancy
  Na  Na0  1  0.50000000  0.50000000  0.50000000  1
  Na  Na1  1  0.00000000  0.00000000  -0.00000000  1
  Na  Na2  1  0.81770529  0.33449817  0.82425512  1
  Na  Na3  1  0.18229471  0.66550183  0.17574488  1
  Na  Na4  1  0.70846105  0.41741964  0.29472789  1
  Na  Na5  1  0.29153895  0.58258036  0.70527211  1
  Na  Na6  1  0.56485430  0.12845157  0.43512710  1
  Na  Na7  1  0.43514570  0.87154843  0.56487290  1
  Na  Na8  1  0.88745342  0.52182103  0.61591911  1
  Na  Na9  1  0.11254658  0.47817897  0.38408089  1
  Na  Na10  1  0.69245298  0.62338620  0.83100701  1
  Na  Na11  1  0.30754702  0.37661380  0.16899299  1
  Na  Na12  1  0.62469170  0.98734882  0.88965071  1
  Na  Na13  1  0.37530830  0.01265118  0.11034929  1
  Na  Na14  1  0.55245034  0.32279808  0.98628159  1
  Na  Na15  1  0.44754966  0.67720192  0.01371841  1
  Ti  Ti0  1  0.85337208  0.72235916  0.14970117  1
  Ti  Ti1  1  0.14662792  0.27764084  0.85029883  1
  Ti  Ti2  1  0.78348648  0.07408056  0.20881743  1
  Ti  Ti3  1  0.21651352  0.92591944  0.79118257  1
  Ti  Ti4  1  0.62080906  0.77365327  0.34491451  1
  Ti  Ti5  1  0.37919094  0.22634673  0.65508549  1
  Ti  Ti6  1  0.96482360  0.17753418  0.53074845  1
  Ti  Ti7  1  0.03517640  0.82246582  0.46925155  1
  Ti  Ti8  1  0.81144280  0.88668524  0.67421057  1
  Ti  Ti9  1  0.18855720  0.11331476  0.32578943  1
  O  O0  1  0.59861966  0.35507816  0.64216202  1
  O  O1  1  0.40138034  0.64492184  0.35783798  1
  O  O2  1  0.81908854  0.54779354  0.00296886  1
  O  O3  1  0.18091146  0.45220646  0.99703114  1
  O  O4  1  0.75230043  0.86023763  0.06218070  1
  O  O5  1  0.24769957  0.13976237  0.93781930  1
  O  O6  1  0.67732428  0.17306123  0.11440129  1
  O  O7  1  0.32267572  0.82693877  0.88559871  1
  O  O8  1  0.62229157  0.60061285  0.18937688  1
  O  O9  1  0.37770843  0.39938715  0.81062312  1
  O  O10  1  0.56038954  0.90985235  0.24189215  1
  O  O11  1  0.43961046  0.09014765  0.75810785  1
  O  O12  1  0.98030382  0.65093927  0.30172712  1
  O  O13  1  0.01969618  0.34906073  0.69827288  1
  O  O14  1  0.91770937  0.95229189  0.35518299  1
  O  O15  1  0.08229063  0.04770811  0.64481701  1
  O  O16  1  0.85230804  0.26036346  0.40815700  1
  O  O17  1  0.14769196  0.73963654  0.59184300  1
  O  O18  1  0.78521717  0.70511118  0.48410328  1
  O  O19  1  0.21478283  0.29488882  0.51589672  1
  O  O20  1  0.72727352  0.99052307  0.53035129  1
  O  O21  1  0.27272648  0.00947693  0.46964871  1
  O  O22  1  0.59207528  0.75759961  0.68887701  1
  O  O23  1  0.40792472  0.24240039  0.31112299  1
  O  O24  1  0.95629249  0.79919977  0.77364782  1
  O  O25  1  0.04370751  0.20080023  0.22635218  1
  O  O26  1  0.10667527  0.89750887  0.17359267  1
  O  O27  1  0.89332473  0.10249113  0.82640733  1
loop_
_geom_bond_atom_site_label_1
_geom_bond_atom_site_label_2
_geom_bond_distance
_geom_bond_site_symmetry_2
Na0 O23 2.296589 1_555
Na0 O22 2.296589 1_555
Na0 O0 2.362615 1_555
Na0 O1 2.362615 1_555
Na0 O18 2.417448 1_555
Na0 O19 2.417448 1_555
Na1 O4 2.271239 1_445
Na1 O5 2.271239 1_554
Na1 O26 2.358010 1_545
Na1 O27 2.358010 1_454
Na1 O25 2.424148 1_555
Na1 O24 2.424148 1_444
Na2 O2 2.264231 1_556
Na2 O27 2.293984 1_555
Na2 O13 2.334342 1_655
Na2 O0 2.440164 1_555
Na2 O3 2.814488 1_655
Na2 O11 2.841060 1_555
Na3 O3 2.264231 1_554
Na3 O26 2.293984 1_555
Na3 O12 2.334342 1_455
Na3 O1 2.440164 1_555
Na3 O2 2.814488 1_455
Na3 O10 2.841060 1_555
Na4 O6 2.330859 1_555
Na4 O12 2.342354 1_555
Na4 O8 2.352270 1_555
Na4 O23 2.440824 1_555
Na4 O16 2.458150 1_555
Na4 O18 2.498688 1_555
Na5 O7 2.330859 1_555
Na5 O13 2.342354 1_555
Na5 O9 2.352270 1_555
Na5 O22 2.440824 1_555
Na5 O17 2.458150 1_555
Na5 O19 2.498688 1_555
Na6 O23 2.283457 1_555
Na6 O20 2.329448 1_545
Na6 O16 2.334172 1_555
Na6 O10 2.376934 1_545
Na6 O21 2.394545 1_555
Na6 O0 2.408967 1_555
Na7 O22 2.283457 1_555
Na7 O21 2.329448 1_565
Na7 O17 2.334172 1_555
Na7 O11 2.376934 1_565
Na7 O20 2.394545 1_555
Na7 O1 2.408967 1_555
Na8 O24 2.301373 1_555
Na8 O17 2.360839 1_655
Na8 O13 2.362528 1_655
Na8 O0 2.392774 1_555
Na8 O18 2.578409 1_555
Na8 O16 2.579913 1_555
Na9 O25 2.301373 1_555
Na9 O16 2.360839 1_455
Na9 O12 2.362528 1_455
Na9 O1 2.392774 1_555
Na9 O19 2.578409 1_555
Na9 O17 2.579913 1_555
Na10 O2 2.251961 1_556
Na10 O22 2.295342 1_555
Na10 O0 2.350368 1_555
Na10 O24 2.429556 1_555
Na10 O9 2.506167 1_555
Na10 O4 2.556141 1_556
Na11 O3 2.251961 1_554
Na11 O23 2.295342 1_555
Na11 O1 2.350368 1_555
Na11 O25 2.429556 1_555
Na11 O8 2.506167 1_555
Na11 O5 2.556141 1_554
Na12 O6 2.338979 1_566
Na12 O7 2.341515 1_555
Na12 O27 2.380192 1_565
Na12 O22 2.383052 1_555
Na12 O11 2.403110 1_565
Na12 O4 2.570585 1_556
Na13 O7 2.338979 1_544
Na13 O6 2.341515 1_555
Na13 O26 2.380192 1_545
Na13 O23 2.383052 1_555
Na13 O10 2.403110 1_545
Na13 O5 2.570585 1_554
Na14 O2 2.244554 1_556
Na14 O5 2.272092 1_555
Na14 O6 2.403676 1_556
Na14 O11 2.419158 1_555
Na14 O9 2.475430 1_555
Na14 O8 2.536960 1_556
Na15 O3 2.244554 1_554
Na15 O4 2.272092 1_555
Na15 O7 2.403676 1_554
Na15 O10 2.419158 1_555
Na15 O8 2.475430 1_555
Na15 O9 2.536960 1_554
O0 Ti5 1.788389 1_555
O1 Ti4 1.788389 1_555
O2 Ti0 1.741761 1_555
O3 Ti1 1.741761 1_555
O4 Ti2 1.962187 1_565
O4 Ti0 1.971483 1_555
O5 Ti3 1.962187 1_545
O5 Ti1 1.971483 1_555
O6 Ti2 1.755843 1_555
O7 Ti3 1.755843 1_555
O8 Ti4 1.919158 1_555
O8 Ti0 1.991945 1_555
O9 Ti5 1.919158 1_555
O9 Ti1 1.991945 1_555
O10 Ti4 1.896349 1_555
O10 Ti2 2.010366 1_565
O11 Ti5 1.896349 1_555
O11 Ti3 2.010366 1_545
O12 Ti7 1.824782 1_655
O12 Ti0 2.071305 1_555
O13 Ti6 1.824782 1_455
O13 Ti1 2.071305 1_555
O14 Ti7 2.143033 1_655
O14 Ti6 2.149233 1_565
O14 Ti9 2.277680 1_665
O14 Ti4 2.315043 1_555
O14 Ti0 2.327761 1_555
O14 Ti2 2.372174 1_565
O15 Ti6 2.143033 1_455
O15 Ti7 2.149233 1_545
O15 Ti8 2.277680 1_445
O15 Ti5 2.315043 1_555
O15 Ti1 2.327761 1_555
O15 Ti3 2.372174 1_545
O16 Ti6 1.863555 1_555
O16 Ti2 2.097729 1_555
O17 Ti7 1.863555 1_555
O17 Ti3 2.097729 1_555
O18 Ti7 1.992883 1_655
O18 Ti8 2.114457 1_555
O18 Ti4 2.129825 1_555
O19 Ti6 1.992883 1_455
O19 Ti9 2.114457 1_555
O19 Ti5 2.129825 1_555
O20 Ti6 2.005985 1_565
O20 Ti8 2.057705 1_555
O20 Ti4 2.060871 1_555
O21 Ti7 2.005985 1_545
O21 Ti9 2.057705 1_555
O21 Ti5 2.060871 1_555
O22 Ti8 1.796841 1_555
O23 Ti9 1.796841 1_555
O24 Ti8 1.906970 1_555
O24 Ti3 1.958194 1_655
O25 Ti9 1.906970 1_555
O25 Ti2 1.958194 1_455
O26 Ti9 1.881281 1_565
O26 Ti0 1.979063 1_455
O27 Ti8 1.881281 1_545
O27 Ti1 1.979063 1_655
