# generated using pymatgen
data_Na2ZrSc(PO4)3
_symmetry_space_group_name_H-M   'P 1'
_cell_length_a   9.00656722
_cell_length_b   9.00656691
_cell_length_c   23.04043155
_cell_angle_alpha   89.98649855
_cell_angle_beta   90.01350146
_cell_angle_gamma   120.41252394
_symmetry_Int_Tables_number   1
_chemical_formula_structural   Na2ZrSc(PO4)3
_chemical_formula_sum   'Na12 Zr6 Sc6 P18 O72'
_cell_volume   1611.83078209
_cell_formula_units_Z   6
loop_
 _symmetry_equiv_pos_site_id
 _symmetry_equiv_pos_as_xyz
  1  'x, y, z'
loop_
 _atom_site_type_symbol
 _atom_site_label
 _atom_site_symmetry_multiplicity
 _atom_site_fract_x
 _atom_site_fract_y
 _atom_site_fract_z
 _atom_site_occupancy
  Na  Na0  1  0.36571463  0.36245421  0.24943400  1
  Na  Na1  1  0.63754579  0.63428537  0.74943400  1
  Na  Na2  1  0.03238163  0.69578721  0.58276700  1
  Na  Na3  1  0.30421279  0.96761837  0.08276700  1
  Na  Na4  1  0.69904763  0.02912121  0.91610100  1
  Na  Na5  1  0.97087879  0.30095237  0.41610100  1
  Na  Na6  1  0.99986114  0.99952712  0.49817582  1
  Na  Na7  1  0.00047288  0.00013886  0.99817582  1
  Na  Na8  1  0.66652814  0.33286012  0.83150882  1
  Na  Na9  1  0.66713988  0.33347186  0.33150882  1
  Na  Na10  1  0.33319414  0.66619412  0.16484282  1
  Na  Na11  1  0.33380588  0.66680586  0.66484282  1
  Zr  Zr0  1  0.00135402  0.00729259  0.64782289  1
  Zr  Zr1  1  0.99270741  0.99864598  0.14782289  1
  Zr  Zr2  1  0.66802102  0.34062559  0.98115589  1
  Zr  Zr3  1  0.65937441  0.33197898  0.48115589  1
  Zr  Zr4  1  0.33468702  0.67395959  0.31448989  1
  Zr  Zr5  1  0.32604041  0.66531298  0.81448989  1
  Sc  Sc0  1  0.99886416  0.99303429  0.35170076  1
  Sc  Sc1  1  0.00696571  0.00113584  0.85170076  1
  Sc  Sc2  1  0.66553116  0.32636729  0.68503376  1
  Sc  Sc3  1  0.67363271  0.33446884  0.18503376  1
  Sc  Sc4  1  0.33219716  0.65970129  0.01836776  1
  Sc  Sc5  1  0.34029871  0.66780284  0.51836776  1
  P  P0  1  0.29144312  0.00110033  0.24991238  1
  P  P1  1  0.70949124  0.70678350  0.25094200  1
  P  P2  1  0.99572687  0.28957306  0.25146967  1
  P  P3  1  0.29321650  0.29050876  0.75094200  1
  P  P4  1  0.99889967  0.70855688  0.74991238  1
  P  P5  1  0.71042694  0.00427313  0.75146967  1
  P  P6  1  0.95811012  0.33443333  0.58324538  1
  P  P7  1  0.37615824  0.04011650  0.58427500  1
  P  P8  1  0.66239387  0.62290606  0.58480267  1
  P  P9  1  0.95988350  0.62384176  0.08427500  1
  P  P10  1  0.66556667  0.04188988  0.08324538  1
  P  P11  1  0.37709394  0.33760613  0.08480267  1
  P  P12  1  0.62477612  0.66776733  0.91657938  1
  P  P13  1  0.04282424  0.37345050  0.91760900  1
  P  P14  1  0.32905987  0.95624006  0.91813667  1
  P  P15  1  0.62654950  0.95717576  0.41760900  1
  P  P16  1  0.33223267  0.37522388  0.41657938  1
  P  P17  1  0.04375994  0.67094013  0.41813667  1
  O  O0  1  0.20735005  0.03224644  0.30271741  1
  O  O1  1  0.82075423  0.79219388  0.30398965  1
  O  O2  1  0.97265382  0.18224203  0.30590946  1
  O  O3  1  0.20780612  0.17924577  0.80398965  1
  O  O4  1  0.96775356  0.79264995  0.80271741  1
  O  O5  1  0.81775797  0.02734618  0.80590946  1
  O  O6  1  0.79252391  0.96748418  0.69754354  1
  O  O7  1  0.17909263  0.20848592  0.69641585  1
  O  O8  1  0.02882922  0.81951872  0.69438751  1
  O  O9  1  0.79151408  0.82090737  0.19641585  1
  O  O10  1  0.03251582  0.20747609  0.19754354  1
  O  O11  1  0.18048128  0.97117078  0.19438751  1
  O  O12  1  0.87401705  0.36557944  0.63605041  1
  O  O13  1  0.48742123  0.12552688  0.63732265  1
  O  O14  1  0.63932082  0.51557503  0.63924246  1
  O  O15  1  0.87447312  0.51257877  0.13732265  1
  O  O16  1  0.63442056  0.12598295  0.13605041  1
  O  O17  1  0.48442497  0.36067918  0.13924246  1
  O  O18  1  0.45919091  0.30081718  0.03087654  1
  O  O19  1  0.84575963  0.54181892  0.02974885  1
  O  O20  1  0.69549622  0.15285172  0.02772051  1
  O  O21  1  0.45818108  0.15424037  0.52974885  1
  O  O22  1  0.69918282  0.54080909  0.53087654  1
  O  O23  1  0.84714828  0.30450378  0.52772051  1
  O  O24  1  0.54068305  0.69891344  0.96938441  1
  O  O25  1  0.15408723  0.45886088  0.97065665  1
  O  O26  1  0.30598682  0.84890903  0.97257646  1
  O  O27  1  0.54113912  0.84591277  0.47065665  1
  O  O28  1  0.30108656  0.45931695  0.46938441  1
  O  O29  1  0.15109097  0.69401318  0.47257646  1
  O  O30  1  0.12585691  0.63415118  0.36421054  1
  O  O31  1  0.51242563  0.87515292  0.36308285  1
  O  O32  1  0.36216222  0.48618572  0.36105451  1
  O  O33  1  0.12484708  0.48757437  0.86308285  1
  O  O34  1  0.36584882  0.87414309  0.86421054  1
  O  O35  1  0.51381428  0.63783778  0.86105451  1
  O  O36  1  0.02257515  0.82724323  0.40997454  1
  O  O37  1  0.80868162  0.98454645  0.41012049  1
  O  O38  1  0.16850765  0.19713738  0.40960781  1
  O  O39  1  0.01545355  0.19131838  0.91012049  1
  O  O40  1  0.17275677  0.97742485  0.90997454  1
  O  O41  1  0.80286262  0.83149235  0.90960781  1
  O  O42  1  0.97585892  0.17266852  0.58980216  1
  O  O43  1  0.19235831  0.01785257  0.58993009  1
  O  O44  1  0.83220110  0.80245736  0.59014395  1
  O  O45  1  0.98214743  0.80764169  0.08993009  1
  O  O46  1  0.82733148  0.02414108  0.08980216  1
  O  O47  1  0.19754264  0.16779890  0.09014395  1
  O  O48  1  0.68924215  0.16057623  0.74330754  1
  O  O49  1  0.47534862  0.31787945  0.74345349  1
  O  O50  1  0.83517465  0.53047038  0.74294081  1
  O  O51  1  0.68212055  0.52465138  0.24345349  1
  O  O52  1  0.83942377  0.31075785  0.24330754  1
  O  O53  1  0.46952962  0.16482535  0.24294081  1
  O  O54  1  0.64252592  0.50600152  0.92313516  1
  O  O55  1  0.85902531  0.35118557  0.92326309  1
  O  O56  1  0.49886810  0.13579036  0.92347695  1
  O  O57  1  0.64881443  0.14097469  0.42326309  1
  O  O58  1  0.49399848  0.35747408  0.42313516  1
  O  O59  1  0.86420964  0.50113190  0.42347695  1
  O  O60  1  0.35590815  0.49391023  0.07664154  1
  O  O61  1  0.14201462  0.65121345  0.07678749  1
  O  O62  1  0.50184065  0.86380438  0.07627481  1
  O  O63  1  0.34878655  0.85798538  0.57678749  1
  O  O64  1  0.50608977  0.64409185  0.57664154  1
  O  O65  1  0.13619562  0.49815935  0.57627481  1
  O  O66  1  0.30919192  0.83933552  0.25646916  1
  O  O67  1  0.52569131  0.68451957  0.25659709  1
  O  O68  1  0.16553410  0.46912436  0.25681095  1
  O  O69  1  0.31548043  0.47430869  0.75659709  1
  O  O70  1  0.16066448  0.69080808  0.75646916  1
  O  O71  1  0.53087564  0.83446590  0.75681095  1
loop_
_geom_bond_atom_site_label_1
_geom_bond_atom_site_label_2
_geom_bond_distance
_geom_bond_site_symmetry_2
Na0 O53 2.397932 1_555
Na0 O68 2.440574 1_555
Na0 O51 2.461563 1_555
Na0 O67 2.507188 1_555
Na0 O17 2.758225 1_555
Na0 O32 2.809709 1_555
Na0 O0 2.844443 1_555
Na0 O10 2.853372 1_555
Na1 O50 2.397932 1_555
Na1 O71 2.440574 1_555
Na1 O49 2.461563 1_555
Na1 O69 2.507188 1_555
Na1 O14 2.758225 1_555
Na1 O35 2.809709 1_555
Na1 O4 2.844443 1_555
Na1 O6 2.853372 1_555
Na2 O65 2.397916 1_555
Na2 O44 2.440574 1_455
Na2 O63 2.461554 1_555
Na2 O43 2.507188 1_565
Na2 O29 2.758198 1_555
Na2 O8 2.809709 1_555
Na2 O12 2.844443 1_455
Na2 O22 2.853372 1_455
Na3 O62 2.397916 1_555
Na3 O47 2.440574 1_565
Na3 O61 2.461554 1_555
Na3 O45 2.507188 1_455
Na3 O26 2.758198 1_554
Na3 O11 2.809709 1_555
Na3 O16 2.844443 1_565
Na3 O18 2.853372 1_565
Na4 O41 2.397932 1_545
Na4 O56 2.440557 1_555
Na4 O39 2.461563 1_655
Na4 O55 2.507178 1_555
Na4 O5 2.758225 1_555
Na4 O20 2.809683 1_556
Na4 O24 2.844443 1_545
Na4 O34 2.853372 1_545
Na5 O38 2.397932 1_655
Na5 O59 2.440557 1_555
Na5 O37 2.461563 1_545
Na5 O57 2.507178 1_555
Na5 O2 2.758225 1_555
Na5 O23 2.809683 1_555
Na5 O28 2.844443 1_655
Na5 O30 2.853372 1_655
Na6 O37 2.619633 1_555
Na6 O38 2.627120 1_665
Na6 O36 2.627255 1_655
Na6 O44 2.684557 1_555
Na6 O43 2.685341 1_665
Na6 O42 2.697842 1_565
Na7 O39 2.619633 1_555
Na7 O41 2.627120 1_445
Na7 O40 2.627255 1_545
Na7 O47 2.684557 1_556
Na7 O45 2.685341 1_446
Na7 O46 2.697842 1_456
Na8 O49 2.619633 1_555
Na8 O50 2.627120 1_555
Na8 O48 2.627255 1_555
Na8 O56 2.684557 1_555
Na8 O55 2.685341 1_555
Na8 O54 2.697842 1_555
Na9 O51 2.619633 1_555
Na9 O53 2.627120 1_555
Na9 O52 2.627255 1_555
Na9 O59 2.684557 1_555
Na9 O57 2.685341 1_555
Na9 O58 2.697842 1_555
Na10 O61 2.619633 1_555
Na10 O62 2.627120 1_555
Na10 O60 2.627255 1_555
Na10 O68 2.684557 1_555
Na10 O67 2.685341 1_555
Na10 O66 2.697842 1_555
Na11 O63 2.619633 1_555
Na11 O65 2.627120 1_555
Na11 O64 2.627255 1_555
Na11 O71 2.684557 1_555
Na11 O69 2.685341 1_555
Na11 O70 2.697842 1_555
O0 P0 1.532407 1_555
O0 Sc0 2.062469 1_445
O1 P1 1.519615 1_555
O1 Sc0 2.028810 1_555
O2 P2 1.532037 1_555
O2 Sc0 2.116408 1_545
O3 P3 1.519615 1_555
O3 Sc1 2.028810 1_555
O4 P4 1.532407 1_555
O4 Sc1 2.062469 1_665
O5 P5 1.532037 1_555
O5 Sc1 2.116408 1_655
O6 P5 1.564913 1_565
O6 Zr0 2.072815 1_665
O7 P3 1.552934 1_555
O7 Zr0 2.040324 1_555
O8 P4 1.560416 1_455
O8 Zr0 2.120179 1_565
O9 P1 1.552934 1_555
O9 Zr1 2.040324 1_555
O10 P2 1.564913 1_455
O10 Zr1 2.072815 1_445
O11 P0 1.560416 1_565
O11 Zr1 2.120179 1_455
O12 P6 1.532407 1_555
O12 Sc2 2.062469 1_555
O13 P7 1.519615 1_555
O13 Sc2 2.028810 1_555
O14 P8 1.532037 1_555
O14 Sc2 2.116408 1_555
O15 P9 1.519615 1_555
O15 Sc3 2.028810 1_555
O16 P10 1.532407 1_555
O16 Sc3 2.062469 1_555
O17 P11 1.532037 1_555
O17 Sc3 2.116408 1_555
O18 P11 1.564913 1_555
O18 Zr2 2.072815 1_554
O19 P9 1.552934 1_555
O19 Zr2 2.040324 1_554
O20 P10 1.560416 1_555
O20 Zr2 2.120179 1_554
O21 P7 1.552934 1_555
O21 Zr3 2.040324 1_555
O22 P8 1.564913 1_555
O22 Zr3 2.072815 1_555
O23 P6 1.560416 1_555
O23 Zr3 2.120179 1_555
O24 P12 1.532407 1_555
O24 Sc4 2.062469 1_556
O25 P13 1.519615 1_555
O25 Sc4 2.028810 1_556
O26 P14 1.532037 1_555
O26 Sc4 2.116408 1_556
O27 P15 1.519615 1_555
O27 Sc5 2.028810 1_555
O28 P16 1.532407 1_555
O28 Sc5 2.062469 1_555
O29 P17 1.532037 1_555
O29 Sc5 2.116408 1_555
O30 P17 1.564913 1_555
O30 Zr4 2.072815 1_555
O31 P15 1.552934 1_555
O31 Zr4 2.040324 1_555
O32 P16 1.560416 1_555
O32 Zr4 2.120179 1_555
O33 P13 1.552934 1_555
O33 Zr5 2.040324 1_555
O34 P14 1.564913 1_555
O34 Zr5 2.072815 1_555
O35 P12 1.560416 1_555
O35 Zr5 2.120179 1_555
O36 P17 1.524909 1_555
O36 Sc0 2.097561 1_455
O37 P15 1.540163 1_555
O37 Sc0 2.149434 1_555
O38 P16 1.542171 1_555
O38 Sc0 2.156471 1_445
O39 P13 1.540163 1_555
O39 Sc1 2.149434 1_555
O40 P14 1.524909 1_555
O40 Sc1 2.097561 1_565
O41 P12 1.542171 1_555
O41 Sc1 2.156471 1_665
O42 P6 1.551371 1_555
O42 Zr0 2.098459 1_655
O43 P7 1.568939 1_555
O43 Zr0 2.140805 1_555
O44 P8 1.570126 1_555
O44 Zr0 2.155280 1_665
O45 P9 1.568939 1_555
O45 Zr1 2.140805 1_555
O46 P10 1.551371 1_555
O46 Zr1 2.098459 1_545
O47 P11 1.570126 1_555
O47 Zr1 2.155280 1_445
O48 P5 1.524909 1_555
O48 Sc2 2.097561 1_555
O49 P3 1.540163 1_555
O49 Sc2 2.149434 1_555
O50 P4 1.542171 1_555
O50 Sc2 2.156471 1_555
O51 P1 1.540163 1_555
O51 Sc3 2.149434 1_555
O52 P2 1.524909 1_555
O52 Sc3 2.097561 1_555
O53 P0 1.542171 1_555
O53 Sc3 2.156471 1_555
O54 P12 1.551383 1_555
O54 Zr2 2.098459 1_555
O55 P13 1.568925 1_655
O55 Zr2 2.140805 1_555
O56 P14 1.570124 1_545
O56 Zr2 2.155280 1_555
O57 P15 1.568925 1_545
O57 Zr3 2.140805 1_555
O58 P16 1.551383 1_555
O58 Zr3 2.098459 1_555
O59 P17 1.570124 1_655
O59 Zr3 2.155280 1_555
O60 P11 1.524920 1_555
O60 Sc4 2.097561 1_555
O61 P9 1.540148 1_455
O61 Sc4 2.149434 1_555
O62 P10 1.542167 1_565
O62 Sc4 2.156471 1_555
O63 P7 1.540148 1_565
O63 Sc5 2.149434 1_555
O64 P8 1.524920 1_555
O64 Sc5 2.097561 1_555
O65 P6 1.542167 1_455
O65 Sc5 2.156471 1_555
O66 P0 1.551371 1_565
O66 Zr4 2.098459 1_555
O67 P1 1.568939 1_555
O67 Zr4 2.140805 1_555
O68 P2 1.570126 1_455
O68 Zr4 2.155280 1_555
O69 P3 1.568939 1_555
O69 Zr5 2.140805 1_555
O70 P4 1.551371 1_455
O70 Zr5 2.098459 1_555
O71 P5 1.570126 1_565
O71 Zr5 2.155280 1_555
