# generated using pymatgen
data_MgMn4(FeO6)2
_symmetry_space_group_name_H-M   'P 1'
_cell_length_a   5.10377858
_cell_length_b   5.10628972
_cell_length_c   10.14077813
_cell_angle_alpha   90.05370306
_cell_angle_beta   89.24913062
_cell_angle_gamma   120.09621310
_symmetry_Int_Tables_number   1
_chemical_formula_structural   MgMn4(FeO6)2
_chemical_formula_sum   'Mg1 Mn4 Fe2 O12'
_cell_volume   228.62873639
_cell_formula_units_Z   1
loop_
 _symmetry_equiv_pos_site_id
 _symmetry_equiv_pos_as_xyz
  1  'x, y, z'
loop_
 _atom_site_type_symbol
 _atom_site_label
 _atom_site_symmetry_multiplicity
 _atom_site_fract_x
 _atom_site_fract_y
 _atom_site_fract_z
 _atom_site_occupancy
  Mg  Mg0  1  0.51236300  0.67081400  0.25391600  1
  Mn  Mn0  1  0.17004000  0.83489800  0.49495200  1
  Mn  Mn1  1  0.32798700  0.66581200  0.99047400  1
  Mn  Mn2  1  0.66725700  0.33408800  0.00083300  1
  Mn  Mn3  1  0.83381100  0.16705900  0.49480600  1
  Fe  Fe0  1  0.99945300  0.99767300  0.99182500  1
  Fe  Fe1  1  0.50032900  0.49510600  0.53275900  1
  O  O0  1  0.99746000  0.65536800  0.09680600  1
  O  O1  1  0.99519500  0.34150400  0.90253500  1
  O  O2  1  0.18449200  0.50947900  0.39853800  1
  O  O3  1  0.49857500  0.86060700  0.59662900  1
  O  O4  1  0.13614600  0.13577900  0.59592800  1
  O  O5  1  0.34874900  0.35997700  0.10277000  1
  O  O6  1  0.65324300  0.64594700  0.90003400  1
  O  O7  1  0.35177400  0.00651700  0.90227200  1
  O  O8  1  0.82668800  0.82967300  0.39818700  1
  O  O9  1  0.50490400  0.16251100  0.39983800  1
  O  O10  1  0.86020600  0.49773700  0.59548800  1
  O  O11  1  0.64382900  0.97945200  0.10141100  1
loop_
_geom_bond_atom_site_label_1
_geom_bond_atom_site_label_2
_geom_bond_distance
_geom_bond_site_symmetry_2
Mg0 O8 2.031310 1_555
Mg0 O2 2.045754 1_555
Mg0 O11 2.059741 1_555
Mg0 O5 2.065332 1_555
Mn0 O4 1.922989 1_565
Mn0 O3 1.927751 1_555
Mn0 O10 1.932535 1_455
Mn0 O9 1.934482 1_565
Mn0 O2 1.959730 1_555
Mn0 O8 2.008138 1_455
Mn1 O7 1.905175 1_565
Mn1 O1 1.907496 1_455
Mn1 O6 1.932857 1_555
Mn1 O0 1.968124 1_456
Mn1 O11 1.970789 1_556
Mn1 O5 1.979731 1_556
Mn2 O1 1.920731 1_554
Mn2 O6 1.924848 1_554
Mn2 O7 1.930637 1_554
Mn2 O0 1.935445 1_555
Mn2 O5 1.974800 1_555
Mn2 O11 2.029026 1_545
Mn3 O10 1.919369 1_555
Mn3 O3 1.927140 1_545
Mn3 O4 1.935726 1_655
Mn3 O9 1.936276 1_555
Mn3 O8 1.965777 1_545
Mn3 O2 2.008108 1_655
Fe0 O7 1.983935 1_665
Fe0 O1 1.986100 1_565
Fe0 O6 2.017811 1_555
Fe0 O0 2.043040 1_556
Fe0 O11 2.077475 1_556
Fe0 O5 2.146506 1_666
Fe1 O4 1.944842 1_555
Fe1 O10 1.945322 1_555
Fe1 O3 1.979192 1_555
Fe1 O2 2.152384 1_555
Fe1 O8 2.155521 1_555
Fe1 O9 2.176329 1_555
