# generated using pymatgen
data_H9BrO4
_symmetry_space_group_name_H-M   'P 1'
_cell_length_a   6.94202099
_cell_length_b   7.31399629
_cell_length_c   11.32633750
_cell_angle_alpha   90.01294774
_cell_angle_beta   90.03726710
_cell_angle_gamma   111.72697386
_symmetry_Int_Tables_number   1
_chemical_formula_structural   H9BrO4
_chemical_formula_sum   'H36 Br4 O16'
_cell_volume   534.22754297
_cell_formula_units_Z   4
loop_
 _symmetry_equiv_pos_site_id
 _symmetry_equiv_pos_as_xyz
  1  'x, y, z'
loop_
 _atom_site_type_symbol
 _atom_site_label
 _atom_site_symmetry_multiplicity
 _atom_site_fract_x
 _atom_site_fract_y
 _atom_site_fract_z
 _atom_site_occupancy
  H  H0  1  0.33086489  0.01408355  0.67239613  1
  H  H1  1  0.20438418  0.83674244  0.75631712  1
  H  H2  1  0.92375335  0.97947834  0.24197570  1
  H  H3  1  0.67012937  -0.00047119  0.17242679  1
  H  H4  1  0.95850943  0.14638659  0.82356630  1
  H  H5  1  0.80386305  0.95404493  0.74505302  1
  H  H6  1  0.07621870  0.03181955  0.74217790  1
  H  H7  1  0.04081075  0.86410979  0.32338636  1
  H  H8  1  0.19596214  0.05477440  0.24441860  1
  H  H9  1  0.55229105  0.79600494  0.82543570  1
  H  H10  1  0.63709070  0.66568020  0.74565066  1
  H  H11  1  0.44947679  0.21099909  0.32448744  1
  H  H12  1  0.36555623  0.34240323  0.24518968  1
  H  H13  1  0.61502935  0.38103171  0.82138989  1
  H  H14  1  0.63492071  0.37032997  0.68171416  1
  H  H15  1  0.06127238  0.47584510  0.26014029  1
  H  H16  1  0.37046137  0.63899197  0.18178448  1
  H  H17  1  0.38979788  0.62828466  0.32149172  1
  H  H18  1  0.11588565  0.52607999  0.84687611  1
  H  H19  1  0.94372674  0.53579791  0.76062722  1
  H  H20  1  0.79869704  0.17674660  0.25604799  1
  H  H21  1  0.88995246  0.48736826  0.34639361  1
  H  H22  1  0.15969656  0.34010136  0.55673803  1
  H  H23  1  0.19385857  0.50310939  0.67152883  1
  H  H24  1  0.35482706  0.56061030  0.55457511  1
  H  H25  1  0.64943495  0.45088644  0.05399184  1
  H  H26  1  0.81091223  0.50988586  0.17079210  1
  H  H27  1  0.84348054  0.67235964  0.05602225  1
  H  H28  1  0.49719840  0.84362337  0.47637561  1
  H  H29  1  0.63434001  0.71487320  0.46967921  1
  H  H30  1  0.50626800  0.16704850  0.97625497  1
  H  H31  1  0.36947167  0.29606516  0.96903183  1
  H  H32  1  0.02190999  0.06238095  0.49166828  1
  H  H33  1  0.87921229  0.18470204  0.48873385  1
  H  H34  1  0.98143793  0.95025692  0.99130808  1
  H  H35  1  0.12340601  0.82717575  0.98789588  1
  Br  Br0  1  0.95889912  0.72544615  0.49614600  1
  Br  Br1  1  0.04361908  0.28675656  0.99583800  1
  Br  Br2  1  0.54448476  0.16358562  0.51397814  1
  Br  Br3  1  0.45730205  0.84680223  0.01397753  1
  O  O0  1  0.24940175  0.98047271  0.74527558  1
  O  O1  1  0.75203893  0.03284865  0.24520210  1
  O  O2  1  0.94593916  0.07789572  0.74636433  1
  O  O3  1  0.05305882  0.93203193  0.24605568  1
  O  O4  1  0.61238452  0.79083839  0.74772295  1
  O  O5  1  0.38897163  0.21661806  0.24690851  1
  O  O6  1  0.68646733  0.45454949  0.75092506  1
  O  O7  1  0.31861881  0.55476797  0.25087295  1
  O  O8  1  0.09719711  0.58116136  0.77073909  1
  O  O9  1  0.90792846  0.43193409  0.27026013  1
  O  O10  1  0.26547882  0.45083377  0.60840473  1
  O  O11  1  0.73836289  0.56123122  0.10771100  1
  O  O12  1  0.49052521  0.70875799  0.46117911  1
  O  O13  1  0.51316497  0.30195980  0.96094783  1
  O  O14  1  0.02325133  0.19497610  0.47728957  1
  O  O15  1  0.97947981  0.81749428  0.97666503  1
loop_
_geom_bond_atom_site_label_1
_geom_bond_atom_site_label_2
_geom_bond_distance
_geom_bond_site_symmetry_2
H0 O0 0.979487 1_545
H1 O0 0.987570 1_555
H2 O3 1.076522 1_655
H2 O1 1.385365 1_565
H3 O1 0.979211 1_555
H4 O2 0.995238 1_555
H5 O2 1.063983 1_565
H5 O4 1.420575 1_555
H6 O2 1.076784 1_455
H6 O0 1.386319 1_545
H7 O3 0.995086 1_555
H8 O3 1.063524 1_545
H8 O5 1.422303 1_555
H9 O4 0.980992 1_555
H10 O4 0.992054 1_555
H11 O5 0.981079 1_555
H12 O5 0.991922 1_555
H13 O6 0.987587 1_555
H14 O6 0.978884 1_555
H15 O9 0.998266 1_455
H16 O7 0.978661 1_555
H17 O7 0.987739 1_555
H18 O8 0.980558 1_555
H19 O8 0.998189 1_655
H20 O1 0.987520 1_555
H21 O9 0.980298 1_555
H22 O10 1.047159 1_555
H22 O14 1.444888 1_555
H23 O10 1.022565 1_555
H23 O8 1.524189 1_555
H24 O10 1.016418 1_555
H24 O12 1.557755 1_555
H25 O11 1.016402 1_555
H25 O13 1.557963 1_554
H26 O11 1.022176 1_555
H26 O9 1.526920 1_555
H27 O11 1.047629 1_555
H27 O15 1.444158 1_554
H28 O12 0.985316 1_555
H29 O12 0.987328 1_555
H30 O13 0.985453 1_555
H31 O13 0.986698 1_555
H32 O14 0.980056 1_555
H33 O14 0.983278 1_655
H34 O15 0.980170 1_555
H35 O15 0.983323 1_455
Br0 H7 2.180848 1_655
Br0 H29 2.245529 1_555
Br1 H4 2.181475 1_455
Br1 H31 2.258469 1_555
