# generated using pymatgen
data_MgCo(WO4)2
_symmetry_space_group_name_H-M   'P 1'
_cell_length_a   5.20441556
_cell_length_b   5.62824355
_cell_length_c   6.06063775
_cell_angle_alpha   72.17249118
_cell_angle_beta   91.21505798
_cell_angle_gamma   116.61216239
_symmetry_Int_Tables_number   1
_chemical_formula_structural   MgCo(WO4)2
_chemical_formula_sum   'Mg1 Co1 W2 O8'
_cell_volume   149.68957993
_cell_formula_units_Z   1
loop_
 _symmetry_equiv_pos_site_id
 _symmetry_equiv_pos_as_xyz
  1  'x, y, z'
loop_
 _atom_site_type_symbol
 _atom_site_label
 _atom_site_symmetry_multiplicity
 _atom_site_fract_x
 _atom_site_fract_y
 _atom_site_fract_z
 _atom_site_occupancy
  Mg  Mg0  1  0.81794700  0.60738000  0.84850500  1
  Co  Co0  1  0.47939800  0.97337600  0.02002800  1
  W  W0  1  0.26072100  0.49833900  0.64950300  1
  W  W1  1  0.73548900  0.49055100  0.34716400  1
  O  O0  1  0.67701000  0.72946300  0.54403600  1
  O  O1  1  0.16873900  0.69847700  0.33167000  1
  O  O2  1  0.24560100  0.73241500  0.80734400  1
  O  O3  1  0.31417500  0.25215600  0.90090400  1
  O  O4  1  0.33450100  0.28497900  0.45821800  1
  O  O5  1  0.82674200  0.30467200  0.67960400  1
  O  O6  1  0.72575100  0.76179700  0.07973400  1
  O  O7  1  0.73892800  0.27354100  0.17703900  1
loop_
_geom_bond_atom_site_label_1
_geom_bond_atom_site_label_2
_geom_bond_distance
_geom_bond_site_symmetry_2
Mg0 O2 2.005987 1_655
Mg0 O0 2.008223 1_555
Mg0 O6 2.024190 1_556
Mg0 O7 2.171588 1_556
Mg0 O5 2.256614 1_555
Mg0 O3 2.433611 1_555
Co0 O3 2.052155 1_564
Co0 O6 2.068125 1_555
Co0 O7 2.114119 1_565
Co0 O2 2.122920 1_554
Co0 O1 2.162020 1_555
Co0 O5 2.405034 1_564
O0 W0 1.954310 1_555
O0 W1 2.165365 1_555
O1 W1 2.010020 1_455
O1 W0 2.079406 1_555
O2 W0 1.877417 1_555
O3 W0 1.831237 1_555
O4 W1 1.888492 1_555
O4 W0 2.053743 1_555
O5 W0 2.003200 1_655
O5 W1 2.119752 1_555
O6 W1 1.873750 1_555
O7 W1 1.829388 1_555
