# generated using pymatgen
data_Rb3B12H12I
_symmetry_space_group_name_H-M   'P 1'
_cell_length_a   7.21662089
_cell_length_b   7.21662089
_cell_length_c   7.21662010
_cell_angle_alpha   93.04506640
_cell_angle_beta   93.04506640
_cell_angle_gamma   93.04506448
_symmetry_Int_Tables_number   1
_chemical_formula_structural   Rb3B12H12I
_chemical_formula_sum   'Rb3 B12 H12 I1'
_cell_volume   374.18798633
_cell_formula_units_Z   1
loop_
 _symmetry_equiv_pos_site_id
 _symmetry_equiv_pos_as_xyz
  1  'x, y, z'
loop_
 _atom_site_type_symbol
 _atom_site_label
 _atom_site_symmetry_multiplicity
 _atom_site_fract_x
 _atom_site_fract_y
 _atom_site_fract_z
 _atom_site_occupancy
  Rb  Rb0  1  0.50000000  0.50000000  0.00000000  1
  Rb  Rb1  1  0.00000000  0.50000000  0.50000000  1
  Rb  Rb2  1  0.50000000  0.00000000  0.50000000  1
  B  B0  1  0.11863900  0.84355900  0.11863900  1
  B  B1  1  0.88136100  0.15644100  0.88136100  1
  B  B2  1  0.15644100  0.88136100  0.88136100  1
  B  B3  1  0.88136100  0.88136100  0.15644100  1
  B  B4  1  0.05738600  0.05738600  0.22726600  1
  B  B5  1  0.22726600  0.05738600  0.05738600  1
  B  B6  1  0.05738600  0.22726600  0.05738600  1
  B  B7  1  0.94261400  0.77273400  0.94261400  1
  B  B8  1  0.94261400  0.94261400  0.77273400  1
  B  B9  1  0.77273400  0.94261400  0.94261400  1
  B  B10  1  0.11863900  0.11863900  0.84355900  1
  B  B11  1  0.84355900  0.11863900  0.11863900  1
  H  H0  1  0.79620300  0.79620300  0.26726800  1
  H  H1  1  0.26726800  0.79620300  0.79620300  1
  H  H2  1  0.79620300  0.26726800  0.79620300  1
  H  H3  1  0.20379700  0.73273200  0.20379700  1
  H  H4  1  0.90232300  0.90232300  0.61123100  1
  H  H5  1  0.61123100  0.90232300  0.90232300  1
  H  H6  1  0.90232300  0.61123100  0.90232300  1
  H  H7  1  0.09767700  0.38876900  0.09767700  1
  H  H8  1  0.09767700  0.09767700  0.38876900  1
  H  H9  1  0.38876900  0.09767700  0.09767700  1
  H  H10  1  0.20379700  0.20379700  0.73273200  1
  H  H11  1  0.73273200  0.20379700  0.20379700  1
  I  I0  1  0.50000000  0.50000000  0.50000000  1
loop_
_geom_bond_atom_site_label_1
_geom_bond_atom_site_label_2
_geom_bond_distance
_geom_bond_site_symmetry_2
B0 H3 1.208031 1_555
B1 H2 1.208031 1_555
B2 H1 1.208031 1_555
B3 H0 1.208031 1_555
B4 H8 1.202706 1_555
B5 H9 1.202706 1_555
B6 H7 1.202706 1_555
B7 H6 1.202706 1_555
B8 H4 1.202706 1_555
B9 H5 1.202706 1_555
B10 H10 1.208031 1_555
B11 H11 1.208031 1_555
H0 Rb1 3.163250 1_655
H0 Rb2 3.163250 1_565
H1 Rb2 3.163250 1_565
H1 Rb0 3.163250 1_556
H2 Rb1 3.163250 1_655
H2 Rb0 3.163250 1_556
H3 Rb1 3.163250 1_555
H3 Rb0 3.163250 1_555
H4 Rb2 3.098544 1_565
H4 Rb1 3.098544 1_655
H5 Rb2 3.098544 1_565
H5 Rb0 3.098544 1_556
H6 Rb1 3.098544 1_655
H6 Rb0 3.098544 1_556
H7 Rb1 3.098544 1_555
H7 Rb0 3.098544 1_555
H8 Rb2 3.098544 1_555
H8 Rb1 3.098544 1_555
H9 Rb2 3.098544 1_555
H9 Rb0 3.098544 1_555
H10 Rb1 3.163250 1_555
H10 Rb2 3.163250 1_555
H11 Rb2 3.163250 1_555
H11 Rb0 3.163250 1_555
I0 Rb0 3.608310 1_555
I0 Rb0 3.608310 1_556
I0 Rb1 3.608310 1_655
I0 Rb2 3.608310 1_565
I0 Rb1 3.608310 1_555
I0 Rb2 3.608310 1_555
