# generated using pymatgen
data_Na8Hf3ZnSi4(PO12)2
_symmetry_space_group_name_H-M   'P 1'
_cell_length_a   9.21306109
_cell_length_b   9.19517300
_cell_length_c   22.51309567
_cell_angle_alpha   89.92216617
_cell_angle_beta   90.21127462
_cell_angle_gamma   120.09802818
_symmetry_Int_Tables_number   1
_chemical_formula_structural   Na8Hf3ZnSi4(PO12)2
_chemical_formula_sum   'Na24 Hf9 Zn3 Si12 P6 O72'
_cell_volume   1650.04898980
_cell_formula_units_Z   3
loop_
 _symmetry_equiv_pos_site_id
 _symmetry_equiv_pos_as_xyz
  1  'x, y, z'
loop_
 _atom_site_type_symbol
 _atom_site_label
 _atom_site_symmetry_multiplicity
 _atom_site_fract_x
 _atom_site_fract_y
 _atom_site_fract_z
 _atom_site_occupancy
  Na  Na0  1  0.63869898  0.01821909  0.24186343  1
  Na  Na1  1  0.38088530  0.36122999  0.24286294  1
  Na  Na2  1  0.98106817  0.62084212  0.24293060  1
  Na  Na3  1  0.63656423  0.62100689  0.74519014  1
  Na  Na4  1  0.98008184  0.36576320  0.74876710  1
  Na  Na5  1  0.38335508  0.01296823  0.74359708  1
  Na  Na6  1  0.31353923  0.33503750  0.58550130  1
  Na  Na7  1  0.02982919  0.69845930  0.58437496  1
  Na  Na8  1  0.66120097  0.97085630  0.58994108  1
  Na  Na9  1  0.31004460  0.97172659  0.08318954  1
  Na  Na10  1  0.66178140  0.68995406  0.08320834  1
  Na  Na11  1  0.02846427  0.33827864  0.08295506  1
  Na  Na12  1  0.96679333  0.66477474  0.91692081  1
  Na  Na13  1  0.69875833  0.03456697  0.91689278  1
  Na  Na14  1  0.33425930  0.30156965  0.91828875  1
  Na  Na15  1  0.97047944  0.29089487  0.41220128  1
  Na  Na16  1  0.31476417  0.03208087  0.41473302  1
  Na  Na17  1  0.71377360  0.67803939  0.41170335  1
  Na  Na18  1  0.00602920  0.99800859  0.49423185  1
  Na  Na19  1  0.00073252  0.00092695  0.99908754  1
  Na  Na20  1  0.67089584  0.33360908  0.82767987  1
  Na  Na21  1  0.66769680  0.33702072  0.32701916  1
  Na  Na22  1  0.33426018  0.66735826  0.16159944  1
  Na  Na23  1  0.33921898  0.67525062  0.66839465  1
  Hf  Hf0  1  0.99427461  0.99567957  0.85225854  1
  Hf  Hf1  1  0.99810871  0.99326435  0.64778475  1
  Hf  Hf2  1  0.00034998  0.99980567  0.14769146  1
  Hf  Hf3  1  0.66718137  0.33359982  0.98244752  1
  Hf  Hf4  1  0.66377339  0.33814817  0.48154373  1
  Hf  Hf5  1  0.33325327  0.66685875  0.01799688  1
  Hf  Hf6  1  0.33171855  0.66665005  0.51814151  1
  Hf  Hf7  1  0.33014324  0.66211808  0.31546585  1
  Hf  Hf8  1  0.33404096  0.67030841  0.81435359  1
  Zn  Zn0  1  0.00801639  0.00029875  0.35036938  1
  Zn  Zn1  1  0.66563319  0.33208741  0.68245000  1
  Zn  Zn2  1  0.66669375  0.33336959  0.17076422  1
  Si  Si0  1  0.99934504  0.70145430  0.74995291  1
  Si  Si1  1  0.70360411  0.00066053  0.74926777  1
  Si  Si2  1  0.37389207  0.04004580  0.58508926  1
  Si  Si3  1  0.66532132  0.62725324  0.58556413  1
  Si  Si4  1  0.96221778  0.62724378  0.08608659  1
  Si  Si5  1  0.66568440  0.03839340  0.08604601  1
  Si  Si6  1  0.37316785  0.33458161  0.08581673  1
  Si  Si7  1  0.62647346  0.66504294  0.91645874  1
  Si  Si8  1  0.03862710  0.37234243  0.91613341  1
  Si  Si9  1  0.33425644  0.96289400  0.91660438  1
  Si  Si10  1  0.33226767  0.36970511  0.41656380  1
  Si  Si11  1  0.03543404  0.66479427  0.41614553  1
  P  P0  1  0.29556339  -0.00004163  0.25263418  1
  P  P1  1  0.70684854  0.70921030  0.25330065  1
  P  P2  1  0.00049499  0.29215809  0.25325660  1
  P  P3  1  0.28935240  0.29263314  0.75062821  1
  P  P4  1  0.96062322  0.33414726  0.58381960  1
  P  P5  1  0.62404241  0.95968256  0.41666828  1
  O  O0  1  0.21430177  0.02177398  0.30856681  1
  O  O1  1  0.81061825  0.79330473  0.30910117  1
  O  O2  1  0.97917055  0.18762247  0.30892973  1
  O  O3  1  0.19751809  0.18316422  0.80554397  1
  O  O4  1  0.98047665  0.80009205  0.80777001  1
  O  O5  1  0.82142082  0.02240551  0.80755684  1
  O  O6  1  0.79812427  0.97522558  0.69106444  1
  O  O7  1  0.18017086  0.20733279  0.69412676  1
  O  O8  1  0.03122748  0.82468848  0.69168398  1
  O  O9  1  0.79432400  0.81981959  0.19716657  1
  O  O10  1  0.02598574  0.20636238  0.19724933  1
  O  O11  1  0.18191592  0.97356837  0.19701112  1
  O  O12  1  0.89068801  0.37055517  0.63929665  1
  O  O13  1  0.49063415  0.11449968  0.64345382  1
  O  O14  1  0.62544510  0.51042676  0.64360904  1
  O  O15  1  0.88869830  0.51414662  0.14533079  1
  O  O16  1  0.62609360  0.11176836  0.14514016  1
  O  O17  1  0.48634719  0.37447458  0.14516637  1
  O  O18  1  0.45907818  0.29946973  0.02760499  1
  O  O19  1  0.84125306  0.54159643  0.02763041  1
  O  O20  1  0.70067981  0.15947085  0.02774160  1
  O  O21  1  0.46492366  0.15756036  0.52591090  1
  O  O22  1  0.69901213  0.53969661  0.52663862  1
  O  O23  1  0.84834190  0.30555988  0.52799081  1
  O  O24  1  0.53990900  0.69748339  0.97433522  1
  O  O25  1  0.15691000  0.46002000  0.97442883  1
  O  O26  1  0.30144278  0.84333651  0.97453099  1
  O  O27  1  0.53467526  0.84932720  0.47166395  1
  O  O28  1  0.31203622  0.46681069  0.47422852  1
  O  O29  1  0.15510628  0.69096355  0.47399941  1
  O  O30  1  0.13191420  0.63814804  0.35856487  1
  O  O31  1  0.51109191  0.87389734  0.36113775  1
  O  O32  1  0.36645522  0.49477466  0.35883801  1
  O  O33  1  0.12802673  0.49163698  0.85811553  1
  O  O34  1  0.36476874  0.87241934  0.85887518  1
  O  O35  1  0.50726594  0.63444824  0.85824386  1
  O  O36  1  0.01276206  0.82829882  0.41305780  1
  O  O37  1  0.79809536  0.97735518  0.41333061  1
  O  O38  1  0.16433859  0.18631035  0.41332897  1
  O  O39  1  0.02143100  0.18594934  0.91176999  1
  O  O40  1  0.16825338  0.98419587  0.91112933  1
  O  O41  1  0.81386251  0.83371019  0.91219071  1
  O  O42  1  0.98094401  0.17582441  0.58801027  1
  O  O43  1  0.18826836  0.02792093  0.58768094  1
  O  O44  1  0.83514829  0.81656650  0.58763442  1
  O  O45  1  0.97984035  0.81518111  0.09147686  1
  O  O46  1  0.83554351  0.02047050  0.09157879  1
  O  O47  1  0.18497974  0.16464469  0.09135285  1
  O  O48  1  0.68461855  0.16616976  0.74786034  1
  O  O49  1  0.46276215  0.30946381  0.74898534  1
  O  O50  1  0.83113235  0.51900205  0.74706623  1
  O  O51  1  0.68220139  0.53131081  0.24888989  1
  O  O52  1  0.84859555  0.31801330  0.24842767  1
  O  O53  1  0.47253892  0.15390605  0.24778715  1
  O  O54  1  0.64534785  0.49794430  0.92215662  1
  O  O55  1  0.85321891  0.35465283  0.92194565  1
  O  O56  1  0.50315529  0.14782720  0.92190694  1
  O  O57  1  0.63854155  0.13549917  0.42195481  1
  O  O58  1  0.50403178  0.35545323  0.42095804  1
  O  O59  1  0.85406293  0.48780813  0.42046572  1
  O  O60  1  0.34697547  0.49767349  0.07752946  1
  O  O61  1  0.15119616  0.65349143  0.07777033  1
  O  O62  1  0.50264999  0.84891954  0.07774617  1
  O  O63  1  0.34397549  0.84766819  0.57701410  1
  O  O64  1  0.50207451  0.65410347  0.57640036  1
  O  O65  1  0.14067454  0.49022921  0.57519679  1
  O  O66  1  0.30867736  0.83402365  0.25490841  1
  O  O67  1  0.52888077  0.69840239  0.25477549  1
  O  O68  1  0.16810018  0.47146393  0.25508784  1
  O  O69  1  0.30161549  0.46767431  0.75411320  1
  O  O70  1  0.17123037  0.68805272  0.75303913  1
  O  O71  1  0.52064497  0.82413560  0.75278742  1
loop_
_geom_bond_atom_site_label_1
_geom_bond_atom_site_label_2
_geom_bond_distance
_geom_bond_site_symmetry_2
Na0 O16 2.363970 1_555
Na0 O53 2.415684 1_555
Na0 O52 2.452135 1_555
Na0 O67 2.602300 1_545
Na0 O66 2.653270 1_545
Na1 O17 2.385966 1_555
Na1 O51 2.411245 1_555
Na1 O53 2.443946 1_555
Na1 O68 2.635161 1_555
Na1 O67 2.702404 1_555
Na1 O32 2.918507 1_555
Na2 O15 2.381058 1_555
Na2 O52 2.418737 1_555
Na2 O51 2.450772 1_555
Na2 O66 2.662075 1_655
Na2 O68 2.701873 1_655
Na2 O30 2.913154 1_655
Na2 O11 2.999649 1_655
Na3 O50 2.404266 1_555
Na3 O14 2.484841 1_555
Na3 O49 2.485444 1_555
Na3 O71 2.580967 1_555
Na3 O69 2.681616 1_555
Na3 O35 2.843094 1_555
Na4 O48 2.401597 1_555
Na4 O50 2.410162 1_555
Na4 O70 2.580332 1_655
Na4 O12 2.602927 1_555
Na4 O69 2.623243 1_655
Na4 O33 2.767403 1_655
Na5 O48 2.402970 1_555
Na5 O49 2.445935 1_555
Na5 O13 2.452886 1_555
Na5 O71 2.618668 1_545
Na5 O70 2.633598 1_545
Na5 O34 2.864815 1_545
Na6 O43 2.457739 1_555
Na6 O64 2.560564 1_555
Na6 O65 2.627241 1_555
Na6 O42 2.652862 1_455
Na6 O7 2.726968 1_555
Na6 O28 2.784273 1_555
Na6 O14 2.810658 1_555
Na6 O21 2.951406 1_555
Na7 O63 2.511329 1_555
Na7 O44 2.521247 1_455
Na7 O65 2.591426 1_555
Na7 O43 2.622687 1_565
Na7 O8 2.678834 1_555
Na7 O29 2.759167 1_555
Na7 O12 2.896228 1_455
Na7 O22 2.936561 1_455
Na8 O64 2.538092 1_555
Na8 O63 2.565881 1_555
Na8 O42 2.581494 1_565
Na8 O6 2.589227 1_555
Na8 O44 2.620100 1_555
Na8 O13 2.786654 1_565
Na8 O27 2.894255 1_555
Na9 O61 2.534553 1_555
Na9 O62 2.539823 1_555
Na9 O47 2.561376 1_565
Na9 O45 2.640674 1_455
Na9 O26 2.701240 1_554
Na9 O11 2.828874 1_555
Na9 O16 2.880302 1_565
Na9 O18 2.895791 1_565
Na10 O60 2.531602 1_555
Na10 O62 2.539424 1_555
Na10 O45 2.561168 1_555
Na10 O46 2.637118 1_565
Na10 O24 2.707484 1_554
Na10 O9 2.832292 1_555
Na10 O17 2.876850 1_555
Na10 O19 2.905645 1_555
Na11 O61 2.531028 1_555
Na11 O60 2.542173 1_555
Na11 O46 2.555035 1_455
Na11 O47 2.640159 1_555
Na11 O25 2.703386 1_554
Na11 O10 2.838482 1_555
Na11 O15 2.890194 1_455
Na11 O20 2.892426 1_455
Na12 O55 2.499351 1_555
Na12 O54 2.565776 1_555
Na12 O41 2.569655 1_555
Na12 O40 2.573288 1_655
Na12 O4 2.727486 1_555
Na12 O19 2.744531 1_556
Na12 O26 2.963592 1_655
Na12 O33 2.980929 1_655
Na13 O56 2.495817 1_555
Na13 O55 2.549437 1_555
Na13 O41 2.551982 1_545
Na13 O39 2.576862 1_655
Na13 O5 2.737987 1_555
Na13 O20 2.744856 1_556
Na13 O34 2.961692 1_545
Na13 O24 2.979065 1_545
Na14 O54 2.508090 1_555
Na14 O39 2.526357 1_555
Na14 O40 2.530720 1_545
Na14 O56 2.575165 1_555
Na14 O18 2.716765 1_556
Na14 O3 2.797030 1_555
Na14 O25 2.966110 1_555
Na14 O35 2.974610 1_555
Na15 O38 2.416124 1_655
Na15 O37 2.498536 1_545
Na15 O2 2.529278 1_555
Na15 O59 2.532509 1_555
Na15 O57 2.657760 1_555
Na15 O23 2.873061 1_555
Na16 O38 2.429742 1_555
Na16 O36 2.454484 1_545
Na16 O0 2.544543 1_555
Na16 O58 2.588587 1_555
Na16 O57 2.642100 1_555
Na16 O21 2.809149 1_555
Na17 O36 2.383282 1_655
Na17 O37 2.456705 1_555
Na17 O1 2.512991 1_555
Na17 O58 2.613132 1_555
Na17 O59 2.652152 1_555
Na17 O22 2.855214 1_555
Na18 O36 2.425776 1_555
Na18 O38 2.433274 1_565
Na18 O37 2.575575 1_455
Na18 O43 2.614015 1_565
Na18 O44 2.657865 1_455
Na18 O42 2.752474 1_465
Na19 O39 2.542329 1_555
Na19 O41 2.546316 1_445
Na19 O40 2.566796 1_545
Na19 O47 2.623336 1_556
Na19 O45 2.635155 1_446
Na19 O46 2.642533 1_456
Na20 O48 2.412474 1_555
Na20 O50 2.422074 1_555
Na20 O49 2.532602 1_555
Na20 O55 2.647950 1_555
Na20 O56 2.678274 1_555
Na20 O54 2.689224 1_555
Na21 O51 2.461126 1_555
Na21 O53 2.489539 1_555
Na21 O52 2.500700 1_555
Na21 O59 2.624874 1_555
Na21 O58 2.656272 1_555
Na21 O57 2.751026 1_555
Na22 O62 2.484574 1_555
Na22 O61 2.486770 1_555
Na22 O60 2.494675 1_555
Na22 O67 2.675317 1_555
Na22 O66 2.681729 1_555
Na22 O68 2.695502 1_555
Na23 O71 2.442630 1_555
Na23 O70 2.499127 1_555
Na23 O63 2.582611 1_555
Na23 O69 2.611313 1_555
Na23 O64 2.625832 1_555
Na23 O65 2.739140 1_555
Hf0 O5 1.997324 1_565
Hf0 O4 2.007095 1_555
Hf0 O41 2.080771 1_555
Hf0 O3 2.087162 1_665
Hf0 O39 2.117420 1_665
Hf0 O40 2.119118 1_655
Hf1 O8 1.985094 1_655
Hf1 O6 2.019373 1_555
Hf1 O44 2.066913 1_555
Hf1 O7 2.111343 1_665
Hf1 O43 2.111442 1_665
Hf1 O42 2.216398 1_565
Hf2 O45 2.049812 1_455
Hf2 O46 2.052312 1_465
Hf2 O47 2.055325 1_565
Hf2 O9 2.107709 1_455
Hf2 O10 2.112321 1_565
Hf2 O11 2.116502 1_555
Hf3 O19 2.044872 1_556
Hf3 O20 2.046358 1_556
Hf3 O18 2.053771 1_556
Hf3 O56 2.112197 1_555
Hf3 O54 2.112763 1_555
Hf3 O55 2.124659 1_555
Hf4 O22 1.992467 1_555
Hf4 O21 2.017225 1_555
Hf4 O58 2.066676 1_555
Hf4 O59 2.109737 1_555
Hf4 O23 2.138178 1_555
Hf4 O57 2.212694 1_555
Hf5 O25 2.028072 1_554
Hf5 O24 2.036119 1_554
Hf5 O26 2.036495 1_554
Hf5 O62 2.101866 1_555
Hf5 O60 2.103044 1_555
Hf5 O61 2.109205 1_555
Hf6 O29 2.009348 1_555
Hf6 O28 2.014020 1_555
Hf6 O27 2.066937 1_555
Hf6 O63 2.087189 1_555
Hf6 O64 2.088759 1_555
Hf6 O65 2.127617 1_555
Hf7 O30 1.983474 1_555
Hf7 O32 1.985681 1_555
Hf7 O31 2.089344 1_555
Hf7 O68 2.125173 1_555
Hf7 O66 2.168434 1_555
Hf7 O67 2.176045 1_555
Hf8 O34 2.003471 1_555
Hf8 O35 2.036509 1_555
Hf8 O33 2.038180 1_555
Hf8 O70 2.100381 1_555
Hf8 O71 2.109684 1_555
Hf8 O69 2.201327 1_555
O0 P0 1.531220 1_555
O0 Zn0 2.042775 1_555
O1 P1 1.530494 1_555
O1 Zn0 2.077005 1_665
O2 P2 1.530566 1_655
O2 Zn0 2.088261 1_655
O3 P3 1.551682 1_555
O4 Si0 1.646248 1_555
O5 Si1 1.647047 1_555
O6 Si1 1.656360 1_565
O7 P3 1.564301 1_555
O8 Si0 1.660167 1_455
O9 P1 1.569370 1_555
O10 P2 1.567832 1_555
O11 P0 1.568321 1_565
O12 P4 1.520044 1_555
O12 Zn1 2.155566 1_555
O13 Si2 1.614163 1_555
O13 Zn1 2.032787 1_555
O14 Si3 1.612610 1_555
O14 Zn1 2.047814 1_555
O15 Si4 1.617292 1_555
O15 Zn2 1.967358 1_555
O16 Si5 1.615873 1_555
O16 Zn2 1.965177 1_555
O17 Si6 1.616957 1_555
O17 Zn2 1.964156 1_555
O18 Si6 1.647205 1_555
O19 Si4 1.644958 1_555
O20 Si5 1.644852 1_555
O21 Si2 1.655716 1_555
O22 Si3 1.661614 1_555
O23 P4 1.561256 1_555
O24 Si7 1.634044 1_555
O25 Si8 1.634352 1_555
O26 Si9 1.632894 1_555
O27 P5 1.551350 1_555
O28 Si10 1.639887 1_555
O29 Si11 1.641375 1_555
O30 Si11 1.660836 1_555
O31 P5 1.561353 1_555
O32 Si10 1.657218 1_555
O33 Si8 1.638779 1_555
O34 Si9 1.643303 1_555
O35 Si7 1.638139 1_555
O36 Si11 1.619694 1_555
O36 Zn0 2.134925 1_565
O37 P5 1.530673 1_555
O37 Zn0 2.324709 1_665
O38 Si10 1.620331 1_555
O38 Zn0 2.128298 1_555
O39 Si8 1.643248 1_555
O40 Si9 1.640614 1_555
O41 Si7 1.646353 1_555
O42 P4 1.560826 1_555
O43 Si2 1.658306 1_555
O44 Si3 1.657850 1_555
O45 Si4 1.657254 1_555
O46 Si5 1.657961 1_555
O47 Si6 1.657437 1_555
O48 Si1 1.616958 1_555
O48 Zn1 2.187770 1_555
O49 P3 1.526497 1_555
O49 Zn1 2.325996 1_555
O50 Si0 1.616302 1_555
O50 Zn1 2.181076 1_555
O51 P1 1.537869 1_555
O51 Zn2 2.484507 1_555
O52 P2 1.536011 1_655
O52 Zn2 2.469940 1_555
O53 P0 1.536303 1_555
O53 Zn2 2.446264 1_555
O54 Si7 1.635482 1_555
O55 Si8 1.638403 1_655
O56 Si9 1.634792 1_545
O57 P5 1.558660 1_545
O58 Si10 1.654686 1_555
O59 Si11 1.650291 1_655
O60 Si6 1.644348 1_555
O61 Si4 1.644826 1_455
O62 Si5 1.643352 1_565
O63 Si2 1.658217 1_565
O64 Si3 1.653947 1_555
O65 P4 1.569396 1_455
O66 P0 1.590571 1_565
O67 P1 1.592583 1_555
O68 P2 1.597103 1_555
O69 P3 1.558016 1_555
O70 Si0 1.650048 1_455
O71 Si1 1.654919 1_565
