# generated using pymatgen
data_LiTi(PO3)4
_symmetry_space_group_name_H-M   'P 1'
_cell_length_a   7.39280914
_cell_length_b   7.39280914
_cell_length_c   9.98333399
_cell_angle_alpha   66.83124782
_cell_angle_beta   66.83124782
_cell_angle_gamma   69.66218178
_symmetry_Int_Tables_number   1
_chemical_formula_structural   LiTi(PO3)4
_chemical_formula_sum   'Li2 Ti2 P8 O24'
_cell_volume   449.01178481
_cell_formula_units_Z   2
loop_
 _symmetry_equiv_pos_site_id
 _symmetry_equiv_pos_as_xyz
  1  'x, y, z'
loop_
 _atom_site_type_symbol
 _atom_site_label
 _atom_site_symmetry_multiplicity
 _atom_site_fract_x
 _atom_site_fract_y
 _atom_site_fract_z
 _atom_site_occupancy
  Li  Li0  1  0.95882600  0.04117400  0.75000000  1
  Li  Li1  1  0.04117400  0.95882600  0.25000000  1
  Ti  Ti0  1  0.00000000  0.50000000  0.50000000  1
  Ti  Ti1  1  0.50000000  0.00000000  0.00000000  1
  P  P0  1  0.25736400  0.73041300  0.97334400  1
  P  P1  1  0.69524300  0.68401700  0.80440000  1
  P  P2  1  0.30475700  0.31598300  0.19560000  1
  P  P3  1  0.68401700  0.69524300  0.30440000  1
  P  P4  1  0.26958700  0.74263600  0.52665600  1
  P  P5  1  0.31598300  0.30475700  0.69560000  1
  P  P6  1  0.74263600  0.26958700  0.02665600  1
  P  P7  1  0.73041300  0.25736400  0.47334400  1
  O  O0  1  0.12813600  0.29589100  0.67347200  1
  O  O1  1  0.46606200  0.68263800  0.83808700  1
  O  O2  1  0.68263800  0.46606200  0.33808700  1
  O  O3  1  0.65102600  0.80942800  0.15076300  1
  O  O4  1  0.69173300  0.19272100  0.92760600  1
  O  O5  1  0.19272100  0.69173300  0.42760600  1
  O  O6  1  0.80727900  0.30826700  0.57239400  1
  O  O7  1  0.49660300  0.77630100  0.43271300  1
  O  O8  1  0.80942800  0.65102600  0.65076300  1
  O  O9  1  0.34897400  0.19057200  0.84923700  1
  O  O10  1  0.15484700  0.90976200  0.59237700  1
  O  O11  1  0.31736200  0.53393800  0.66191300  1
  O  O12  1  0.29589100  0.12813600  0.17347200  1
  O  O13  1  0.53393800  0.31736200  0.16191300  1
  O  O14  1  0.87186400  0.70410900  0.32652800  1
  O  O15  1  0.09023800  0.84515300  0.90762300  1
  O  O16  1  0.70410900  0.87186400  0.82652800  1
  O  O17  1  0.50339700  0.22369900  0.56728700  1
  O  O18  1  0.22369900  0.50339700  0.06728700  1
  O  O19  1  0.77630100  0.49660300  0.93271300  1
  O  O20  1  0.90976200  0.15484700  0.09237700  1
  O  O21  1  0.19057200  0.34897400  0.34923700  1
  O  O22  1  0.30826700  0.80727900  0.07239400  1
  O  O23  1  0.84515300  0.09023800  0.40762300  1
loop_
_geom_bond_atom_site_label_1
_geom_bond_atom_site_label_2
_geom_bond_distance
_geom_bond_site_symmetry_2
Li0 O10 1.987467 1_645
Li0 O15 1.987467 1_645
Li0 O16 2.334563 1_545
Li0 O0 2.334563 1_655
Li0 O4 2.359758 1_555
Li0 O6 2.359758 1_555
Li1 O20 1.987467 1_465
Li1 O23 1.987467 1_465
Li1 O14 2.334563 1_455
Li1 O12 2.334563 1_565
Li1 O5 2.359758 1_555
Li1 O22 2.359758 1_555
O0 P5 1.515816 1_555
O0 Ti0 2.101071 1_555
O1 P1 1.595234 1_555
O1 P0 1.638802 1_555
O2 P3 1.595234 1_555
O2 P7 1.638802 1_555
O3 P3 1.502355 1_555
O3 Ti1 2.014249 1_565
O4 P6 1.525114 1_556
O4 Ti1 2.085380 1_556
O5 P4 1.525114 1_555
O5 Ti0 2.085380 1_555
O6 P7 1.525114 1_555
O6 Ti0 2.085380 1_655
O7 P3 1.596876 1_555
O7 P4 1.620583 1_555
O8 P1 1.502355 1_555
O8 Ti0 2.014249 1_655
O9 P5 1.502355 1_555
O9 Ti1 2.014249 1_556
O10 P4 1.465604 1_555
O11 P5 1.595234 1_555
O11 P4 1.638802 1_555
O12 P2 1.515816 1_555
O12 Ti1 2.101071 1_555
O13 P2 1.595234 1_555
O13 P6 1.638802 1_555
O14 P3 1.515816 1_555
O14 Ti0 2.101071 1_655
O15 P0 1.465604 1_555
O16 P1 1.515816 1_555
O16 Ti1 2.101071 1_566
O17 P5 1.596876 1_555
O17 P7 1.620583 1_555
O18 P2 1.596876 1_555
O18 P0 1.620583 1_554
O19 P1 1.596876 1_555
O19 P6 1.620583 1_556
O20 P6 1.465604 1_555
O21 P2 1.502355 1_555
O21 Ti0 2.014249 1_555
O22 P0 1.525114 1_554
O22 Ti1 2.085380 1_565
O23 P7 1.465604 1_555
