# generated using pymatgen
data_Ce5Cu19P12
_symmetry_space_group_name_H-M   'P 1'
_cell_length_a   12.64573632
_cell_length_b   12.64573632
_cell_length_c   3.88291500
_cell_angle_alpha   90.00000000
_cell_angle_beta   90.00000000
_cell_angle_gamma   120.00000170
_symmetry_Int_Tables_number   1
_chemical_formula_structural   Ce5Cu19P12
_chemical_formula_sum   'Ce5 Cu19 P12'
_cell_volume   537.74545955
_cell_formula_units_Z   1
loop_
 _symmetry_equiv_pos_site_id
 _symmetry_equiv_pos_as_xyz
  1  'x, y, z'
loop_
 _atom_site_type_symbol
 _atom_site_label
 _atom_site_symmetry_multiplicity
 _atom_site_fract_x
 _atom_site_fract_y
 _atom_site_fract_z
 _atom_site_occupancy
  Ce  Ce0  1  0.18624900  0.00000000  0.50000000  1
  Ce  Ce1  1  0.81375100  0.81375100  0.50000000  1
  Ce  Ce2  1  0.00000000  0.18624900  0.50000000  1
  Ce  Ce3  1  0.66666700  0.33333300  0.00000000  1
  Ce  Ce4  1  0.33333300  0.66666700  0.00000000  1
  Cu  Cu0  1  0.79365700  0.17352700  0.00000000  1
  Cu  Cu1  1  0.20634300  0.37987000  0.00000000  1
  Cu  Cu2  1  0.62013000  0.82647300  0.00000000  1
  Cu  Cu3  1  0.17352700  0.79365700  0.00000000  1
  Cu  Cu4  1  0.52170100  0.63934700  0.50000000  1
  Cu  Cu5  1  0.36065300  0.88235400  0.50000000  1
  Cu  Cu6  1  0.88235400  0.36065300  0.50000000  1
  Cu  Cu7  1  0.63934700  0.52170100  0.50000000  1
  Cu  Cu8  1  0.47829900  0.11764600  0.50000000  1
  Cu  Cu9  1  0.00000000  0.54448800  0.00000000  1
  Cu  Cu10  1  0.45551200  0.45551200  0.00000000  1
  Cu  Cu11  1  0.54448800  0.00000000  0.00000000  1
  Cu  Cu12  1  0.82647300  0.62013000  0.00000000  1
  Cu  Cu13  1  0.70986600  0.00000000  0.50000000  1
  Cu  Cu14  1  0.29013400  0.29013400  0.50000000  1
  Cu  Cu15  1  0.00000000  0.70986600  0.50000000  1
  Cu  Cu16  1  0.00000000  0.00000000  0.00000000  1
  Cu  Cu17  1  0.11764600  0.47829900  0.50000000  1
  Cu  Cu18  1  0.37987000  0.20634300  0.00000000  1
  P  P0  1  0.68715900  0.17281400  0.50000000  1
  P  P1  1  0.48565400  0.31284100  0.50000000  1
  P  P2  1  0.82718600  0.51434600  0.50000000  1
  P  P3  1  0.51434600  0.82718600  0.50000000  1
  P  P4  1  0.31284100  0.48565400  0.50000000  1
  P  P5  1  0.00000000  0.36007700  0.00000000  1
  P  P6  1  0.36007700  0.00000000  0.00000000  1
  P  P7  1  0.82415100  0.00000000  0.00000000  1
  P  P8  1  0.17584900  0.17584900  0.00000000  1
  P  P9  1  0.00000000  0.82415100  0.00000000  1
  P  P10  1  0.17281400  0.68715900  0.50000000  1
  P  P11  1  0.63992300  0.63992300  0.00000000  1
loop_
_geom_bond_atom_site_label_1
_geom_bond_atom_site_label_2
_geom_bond_distance
_geom_bond_site_symmetry_2
Ce0 P6 2.932791 1_555
Ce0 P6 2.932791 1_556
Ce0 P9 3.004002 1_545
Ce0 P9 3.004002 1_546
Ce0 P8 3.004002 1_556
Ce0 P8 3.004002 1_555
Ce0 Cu16 3.052292 1_556
Ce0 Cu16 3.052292 1_555
Ce0 Cu18 3.191254 1_555
Ce0 Cu18 3.191254 1_556
Ce0 Cu3 3.191254 1_545
Ce0 Cu3 3.191254 1_546
Ce0 Cu8 3.218465 1_555
Ce0 Cu5 3.218465 1_545
Ce0 Cu15 3.219806 1_545
Ce0 Cu14 3.219806 1_555
Ce1 P11 2.932791 1_555
Ce1 P11 2.932791 1_556
Ce1 P9 3.004002 1_656
Ce1 P7 3.004002 1_565
Ce1 P9 3.004002 1_655
Ce1 P7 3.004002 1_566
Ce1 Cu16 3.052292 1_665
Ce1 Cu16 3.052292 1_666
Ce1 Cu2 3.191254 1_555
Ce1 Cu2 3.191254 1_556
Ce1 Cu12 3.191254 1_555
Ce1 Cu12 3.191254 1_556
Ce1 Cu4 3.218465 1_555
Ce1 Cu7 3.218465 1_555
Ce1 Cu15 3.219806 1_655
Ce1 Cu13 3.219806 1_565
Ce2 P5 2.932791 1_556
Ce2 P5 2.932791 1_555
Ce2 P7 3.004002 1_455
Ce2 P7 3.004002 1_456
Ce2 P8 3.004002 1_556
Ce2 P8 3.004002 1_555
Ce2 Cu16 3.052292 1_556
Ce2 Cu16 3.052292 1_555
Ce2 Cu1 3.191254 1_556
Ce2 Cu1 3.191254 1_555
Ce2 Cu0 3.191254 1_455
Ce2 Cu0 3.191254 1_456
Ce2 Cu17 3.218465 1_555
Ce2 Cu6 3.218465 1_455
Ce2 Cu13 3.219806 1_455
Ce2 Cu14 3.219806 1_555
Ce3 P0 2.912532 1_555
Ce3 P0 2.912532 1_554
Ce3 P2 2.912543 1_555
Ce3 P2 2.912543 1_554
Ce3 P1 2.912551 1_555
Ce3 P1 2.912551 1_554
Ce4 P10 2.912532 1_554
Ce4 P10 2.912532 1_555
Ce4 P3 2.912543 1_554
Ce4 P3 2.912543 1_555
Ce4 P4 2.912551 1_555
Ce4 P4 2.912551 1_554
Cu0 P0 2.360280 1_555
Cu0 P0 2.360280 1_554
Cu0 P7 2.410432 1_555
Cu0 P5 2.493650 1_655
Cu1 P4 2.360276 1_554
Cu1 P4 2.360276 1_555
Cu1 P8 2.410432 1_555
Cu1 P5 2.493650 1_555
Cu2 P3 2.360272 1_554
Cu2 P3 2.360272 1_555
Cu2 P7 2.410432 1_565
Cu2 P11 2.493650 1_555
Cu3 P10 2.360280 1_555
Cu3 P10 2.360280 1_554
Cu3 P9 2.410432 1_555
Cu3 P6 2.493650 1_565
Cu4 P4 2.370653 1_555
Cu4 P3 2.423206 1_555
Cu4 P11 2.448154 1_556
Cu4 P11 2.448154 1_555
Cu5 P3 2.370662 1_555
Cu5 P10 2.423213 1_555
Cu5 P6 2.448154 1_566
Cu5 P6 2.448154 1_565
Cu6 P2 2.370662 1_555
Cu6 P0 2.423213 1_555
Cu6 P5 2.448154 1_655
Cu6 P5 2.448154 1_656
Cu7 P1 2.370653 1_555
Cu7 P2 2.423206 1_555
Cu7 P11 2.448154 1_555
Cu7 P11 2.448154 1_556
Cu8 P0 2.370650 1_555
Cu8 P1 2.423219 1_555
Cu8 P6 2.448154 1_556
Cu8 P6 2.448154 1_555
Cu9 P5 2.332013 1_555
Cu9 P10 2.803094 1_554
Cu9 P10 2.803094 1_555
Cu9 P2 2.803098 1_454
Cu9 P2 2.803098 1_455
Cu10 P11 2.332013 1_555
Cu10 P1 2.803089 1_555
Cu10 P4 2.803089 1_555
Cu10 P4 2.803089 1_554
Cu10 P1 2.803089 1_554
Cu11 P6 2.332013 1_555
Cu11 P0 2.803094 1_554
Cu11 P0 2.803094 1_555
Cu11 P3 2.803098 1_545
Cu11 P3 2.803098 1_544
Cu12 P2 2.360272 1_554
Cu12 P2 2.360272 1_555
Cu12 P9 2.410432 1_655
Cu12 P11 2.493650 1_555
Cu13 P3 2.342165 1_545
Cu13 P0 2.342172 1_555
Cu13 P7 2.420312 1_555
Cu13 P7 2.420312 1_556
Cu14 P4 2.342160 1_555
Cu14 P1 2.342160 1_555
Cu14 P8 2.420312 1_555
Cu14 P8 2.420312 1_556
Cu15 P2 2.342165 1_455
Cu15 P10 2.342172 1_555
Cu15 P9 2.420312 1_556
Cu15 P9 2.420312 1_555
Cu16 P8 2.223740 1_555
Cu16 P9 2.223740 1_545
Cu16 P7 2.223740 1_455
Cu17 P10 2.370650 1_555
Cu17 P4 2.423219 1_555
Cu17 P5 2.448154 1_555
Cu17 P5 2.448154 1_556
Cu18 P1 2.360276 1_554
Cu18 P1 2.360276 1_555
Cu18 P8 2.410432 1_555
Cu18 P6 2.493650 1_555
