# generated using pymatgen
data_Ba2MgCuTeO6
_symmetry_space_group_name_H-M   'P 1'
_cell_length_a   7.19420408
_cell_length_b   6.44218160
_cell_length_c   5.77059983
_cell_angle_alpha   116.60087071
_cell_angle_beta   113.42440531
_cell_angle_gamma   108.76603440
_symmetry_Int_Tables_number   1
_chemical_formula_structural   Ba2MgCuTeO6
_chemical_formula_sum   'Ba2 Mg1 Cu1 Te1 O6'
_cell_volume   174.03289202
_cell_formula_units_Z   1
loop_
 _symmetry_equiv_pos_site_id
 _symmetry_equiv_pos_as_xyz
  1  'x, y, z'
loop_
 _atom_site_type_symbol
 _atom_site_label
 _atom_site_symmetry_multiplicity
 _atom_site_fract_x
 _atom_site_fract_y
 _atom_site_fract_z
 _atom_site_occupancy
  Ba  Ba0  1  0.70043351  0.30278722  0.50107091  1
  Ba  Ba1  1  0.29956649  0.69721278  0.49892909  1
  Mg  Mg0  1  0.00000000  0.00000000  0.50000000  1
  Cu  Cu0  1  0.00000000  0.00000000  0.00000000  1
  Te  Te0  1  0.50000000  0.50000000  0.00000000  1
  O  O0  1  0.71608558  0.85246811  0.03788678  1
  O  O1  1  0.17677846  0.48231771  -0.17192029  1
  O  O2  1  0.82322154  0.51768229  0.17192029  1
  O  O3  1  0.28391542  0.14753189  0.96211322  1
  O  O4  1  0.28724972  0.14749224  0.47361046  1
  O  O5  1  0.71274928  0.85250776  0.52638954  1
loop_
_geom_bond_atom_site_label_1
_geom_bond_atom_site_label_2
_geom_bond_distance
_geom_bond_site_symmetry_2
Ba0 O1 2.645025 1_656
Ba0 O4 2.726177 1_555
Ba0 O3 2.743801 1_554
Ba0 O5 2.996390 1_545
Ba0 O0 3.013007 1_545
Ba0 O2 3.034240 1_555
Ba0 O2 3.062332 1_556
Ba1 O2 2.645025 1_455
Ba1 O5 2.726170 1_555
Ba1 O0 2.743805 1_556
Ba1 O4 2.996392 1_565
Ba1 O3 3.013002 1_565
Ba1 O1 3.034240 1_556
Ba1 O1 3.062332 1_555
Mg0 O4 2.076775 1_555
Mg0 O5 2.076781 1_445
Mg0 O0 2.082551 1_445
Mg0 O3 2.082553 1_555
Mg0 O1 2.265231 1_556
Mg0 O2 2.265231 1_445
Cu0 O0 2.101230 1_445
Cu0 O3 2.101237 1_554
Cu0 O4 2.136191 1_555
Cu0 O5 2.136194 1_444
O0 Te0 2.152768 1_555
O1 Te0 2.073287 1_555
O2 Te0 2.073287 1_555
O3 Te0 2.152766 1_556
O4 Te0 2.148535 1_556
O5 Te0 2.148536 1_555
