# generated using pymatgen
data_Na2La3Ta5(PO4)12
_symmetry_space_group_name_H-M   'P 1'
_cell_length_a   17.98600101
_cell_length_b   8.99894195
_cell_length_c   23.39899827
_cell_angle_alpha   89.98489623
_cell_angle_beta   90.07592809
_cell_angle_gamma   119.95583697
_symmetry_Int_Tables_number   1
_chemical_formula_structural   Na2La3Ta5(PO4)12
_chemical_formula_sum   'Na6 La9 Ta15 P36 O144'
_cell_volume   3281.30522134
_cell_formula_units_Z   3
loop_
 _symmetry_equiv_pos_site_id
 _symmetry_equiv_pos_as_xyz
  1  'x, y, z'
loop_
 _atom_site_type_symbol
 _atom_site_label
 _atom_site_symmetry_multiplicity
 _atom_site_fract_x
 _atom_site_fract_y
 _atom_site_fract_z
 _atom_site_occupancy
  Na  Na0  1  0.33132754  0.32940113  0.83182053  1
  Na  Na1  1  0.83539169  0.33749311  0.83233354  1
  Na  Na2  1  0.33256090  0.32886791  0.33112612  1
  Na  Na3  1  0.83360526  0.33840449  0.32920252  1
  Na  Na4  1  0.66655139  0.66579810  0.16558991  1
  Na  Na5  1  0.16564756  0.66477606  0.66458943  1
  La  La0  1  0.99076192  0.99724584  0.36292987  1
  La  La1  1  0.34020291  0.33437311  0.69154946  1
  La  La2  1  0.82607648  0.33021516  0.68892815  1
  La  La3  1  0.33002270  0.33038411  0.18817123  1
  La  La4  1  0.83507725  0.33362365  0.18594410  1
  La  La5  1  0.66673182  0.66711355  0.01112803  1
  La  La6  1  0.17358077  0.68001627  0.51675585  1
  La  La7  1  0.67053387  0.66946796  0.31194543  1
  La  La8  1  0.16608222  0.66645614  0.81245861  1
  Ta  Ta0  1  0.50336183  0.00407890  0.35702514  1
  Ta  Ta1  1  0.00328070  0.00269144  0.85648350  1
  Ta  Ta2  1  0.49653307  0.99643520  0.85631611  1
  Ta  Ta3  1  0.99586153  0.99601491  0.64227946  1
  Ta  Ta4  1  0.50475638  0.00543728  0.64222102  1
  Ta  Ta5  1  0.00510066  0.00467086  0.14599744  1
  Ta  Ta6  1  0.49553199  0.99584387  0.14392314  1
  Ta  Ta7  1  0.33616276  0.33782671  0.98504987  1
  Ta  Ta8  1  0.83088254  0.32790422  0.98452858  1
  Ta  Ta9  1  0.33097337  0.33453308  0.48202676  1
  Ta  Ta10  1  0.83679226  0.33686690  0.48421121  1
  Ta  Ta11  1  0.16592415  0.66599044  0.01593305  1
  Ta  Ta12  1  0.66253787  0.66304744  0.51750646  1
  Ta  Ta13  1  0.16638651  0.66495267  0.31125042  1
  Ta  Ta14  1  0.66772879  0.66798912  0.81204645  1
  P  P0  1  0.13950556  0.98298969  0.25204957  1
  P  P1  1  0.63519138  0.99575326  0.24984233  1
  P  P2  1  0.35822240  0.72699861  0.25506960  1
  P  P3  1  0.85333998  0.71949241  0.24445474  1
  P  P4  1  0.01060225  0.30018898  0.24998252  1
  P  P5  1  0.50135666  0.27526824  0.24980074  1
  P  P6  1  0.13541023  0.27318270  0.74925721  1
  P  P7  1  0.63460313  0.28574354  0.75414497  1
  P  P8  1  0.00060486  0.72769645  0.74922057  1
  P  P9  1  0.50891736  0.73281239  0.75383470  1
  P  P10  1  0.36286870  0.99102044  0.74868248  1
  P  P11  1  0.85791239  0.98982380  0.75453890  1
  P  P12  1  0.48080971  0.32915798  0.57957374  1
  P  P13  1  0.97787217  0.32654044  0.58617961  1
  P  P14  1  0.18243526  0.04998823  0.58471922  1
  P  P15  1  0.68649318  0.03361469  0.58157688  1
  P  P16  1  0.34096628  0.63282696  0.58623625  1
  P  P17  1  0.83128781  0.63035574  0.57996978  1
  P  P18  1  0.47972027  0.63423663  0.08522623  1
  P  P19  1  0.98291068  0.63561099  0.07900086  1
  P  P20  1  0.33187634  0.03365258  0.07986691  1
  P  P21  1  0.84062294  0.03899550  0.08397116  1
  P  P22  1  0.18566560  0.33764595  0.08075490  1
  P  P23  1  0.67875069  0.31746633  0.08292245  1
  P  P24  1  0.31534502  0.66263846  0.91868861  1
  P  P25  1  0.81615676  0.65894173  0.91231529  1
  P  P26  1  0.01533969  0.36754746  0.91851153  1
  P  P27  1  0.51388299  0.37000697  0.91222047  1
  P  P28  1  0.17020616  0.97056196  0.91863387  1
  P  P29  1  0.66954820  0.97120345  0.91238824  1
  P  P30  1  0.31612508  0.97392340  0.41180475  1
  P  P31  1  0.80739700  0.96617620  0.42374300  1
  P  P32  1  0.17845402  0.38625979  0.41504818  1
  P  P33  1  0.66919564  0.37095474  0.41957450  1
  P  P34  1  0.01392535  0.63847435  0.41476307  1
  P  P35  1  0.51624980  0.66315565  0.41865923  1
  O  O0  1  0.09810271  0.00894811  0.30295443  1
  O  O1  1  0.58679247  0.99407676  0.30615174  1
  O  O2  1  0.41584672  0.82549694  0.30710575  1
  O  O3  1  0.89514263  0.80107112  0.30020185  1
  O  O4  1  0.50648128  0.17609385  0.30347925  1
  O  O5  1  0.99486652  0.19832565  0.30330429  1
  O  O6  1  0.08688489  0.17930397  0.80605302  1
  O  O7  1  0.58195732  0.17255278  0.80462923  1
  O  O8  1  0.50075906  0.82605911  0.80698557  1
  O  O9  1  0.00598967  0.83591334  0.80360066  1
  O  O10  1  0.40876803  0.97907172  0.80374088  1
  O  O11  1  0.91455293  0.00510535  0.80711128  1
  O  O12  1  0.41577873  0.99493443  0.69428494  1
  O  O13  1  0.89798638  0.97040400  0.69860315  1
  O  O14  1  0.08047753  0.16795265  0.69622911  1
  O  O15  1  0.58876799  0.20469964  0.69650426  1
  O  O16  1  0.99795381  0.82304199  0.69364472  1
  O  O17  1  0.51861796  0.83824435  0.69879805  1
  O  O18  1  0.39969839  0.82612953  0.19837975  1
  O  O19  1  0.91334388  0.83340956  0.19147529  1
  O  O20  1  0.01887952  0.20142414  0.19559062  1
  O  O21  1  0.49798158  0.17373092  0.19349145  1
  O  O22  1  0.08879002  0.97322490  0.19435694  1
  O  O23  1  0.58077328  0.99343932  0.19593630  1
  O  O24  1  0.45477884  0.37950776  0.63385390  1
  O  O25  1  0.93822756  0.35528598  0.63891051  1
  O  O26  1  0.23681717  0.13175654  0.63680522  1
  O  O27  1  0.73732352  0.08441725  0.63627917  1
  O  O28  1  0.32908773  0.53099083  0.63961752  1
  O  O29  1  0.80557950  0.52273024  0.63342081  1
  O  O30  1  0.44342094  0.52606477  0.13798328  1
  O  O31  1  0.95654677  0.52709733  0.13158358  1
  O  O32  1  0.30541595  0.09053907  0.13238698  1
  O  O33  1  0.82240681  0.10706294  0.13746870  1
  O  O34  1  0.23876442  0.39365756  0.13425726  1
  O  O35  1  0.73262894  0.35093318  0.13543464  1
  O  O36  1  0.23728773  0.30957122  0.03101625  1
  O  O37  1  0.73163580  0.29998897  0.02924935  1
  O  O38  1  0.42035709  0.52931212  0.03182411  1
  O  O39  1  0.91595247  0.53291443  0.02848246  1
  O  O40  1  0.34953931  0.16468108  0.02914349  1
  O  O41  1  0.84587689  0.16317314  0.03142762  1
  O  O42  1  0.23215079  0.16418516  0.52980729  1
  O  O43  1  0.73406634  0.16415440  0.53288494  1
  O  O44  1  0.34776063  0.53172269  0.53268681  1
  O  O45  1  0.85042500  0.53705044  0.53017544  1
  O  O46  1  0.41600463  0.29517271  0.52963328  1
  O  O47  1  0.91916998  0.30860922  0.53263648  1
  O  O48  1  0.26592361  0.69261673  0.96749696  1
  O  O49  1  0.79136171  0.71191012  0.96653939  1
  O  O50  1  0.08057339  0.46806315  0.96724323  1
  O  O51  1  0.56415073  0.41678115  0.96688019  1
  O  O52  1  0.15472989  0.84065983  0.96730546  1
  O  O53  1  0.64310844  0.86997983  0.96683592  1
  O  O54  1  0.29385398  0.87581203  0.46699866  1
  O  O55  1  0.74786314  0.83455101  0.46957384  1
  O  O56  1  0.16579617  0.45572171  0.47049154  1
  O  O57  1  0.65211186  0.46756286  0.46842873  1
  O  O58  1  0.06178381  0.66479506  0.47015242  1
  O  O59  1  0.57702844  0.68988026  0.46958244  1
  O  O60  1  0.06601448  0.62018431  0.36277726  1
  O  O61  1  0.54463299  0.61441540  0.36451074  1
  O  O62  1  0.25086812  0.87601721  0.36271438  1
  O  O63  1  0.76287510  0.91485472  0.36580816  1
  O  O64  1  0.19015845  0.50916965  0.36320007  1
  O  O65  1  0.69311706  0.47278888  0.36466666  1
  O  O66  1  0.04222870  0.47211822  0.86409624  1
  O  O67  1  0.56467474  0.50049647  0.86288879  1
  O  O68  1  0.19511874  0.91666297  0.86405440  1
  O  O69  1  0.68464070  0.86974427  0.86302177  1
  O  O70  1  0.26392020  0.61216768  0.86391928  1
  O  O71  1  0.74972212  0.62964342  0.86292042  1
  O  O72  1  0.99396446  0.77759139  0.40568757  1
  O  O73  1  0.50680904  0.82521491  0.40936042  1
  O  O74  1  0.40734706  0.00782195  0.39476266  1
  O  O75  1  0.89332713  0.98317651  0.43132766  1
  O  O76  1  0.11012764  0.20609196  0.40584305  1
  O  O77  1  0.58847771  0.18987472  0.40976012  1
  O  O78  1  0.00715429  0.18791632  0.90930806  1
  O  O79  1  0.49635535  0.18785280  0.89519971  1
  O  O80  1  0.08850500  0.98676805  0.90917818  1
  O  O81  1  0.59533835  0.00495297  0.89556031  1
  O  O82  1  0.40571503  0.82510394  0.90978700  1
  O  O83  1  0.90648018  0.80803835  0.89486785  1
  O  O84  1  0.49087757  0.16731001  0.59109327  1
  O  O85  1  0.97579068  0.15071495  0.59433918  1
  O  O86  1  0.09302361  0.04134854  0.59207691  1
  O  O87  1  0.59862973  0.02657881  0.59325389  1
  O  O88  1  0.42792888  0.81134987  0.59434564  1
  O  O89  1  0.91305005  0.80702168  0.59119684  1
  O  O90  1  0.47612158  0.80308642  0.09258134  1
  O  O91  1  0.99242112  0.81453744  0.08888390  1
  O  O92  1  0.41293617  0.01915372  0.09010535  1
  O  O93  1  0.92768323  0.04111977  0.09156911  1
  O  O94  1  0.09902031  0.17203371  0.09029645  1
  O  O95  1  0.59089566  0.14625211  0.09085859  1
  O  O96  1  0.36195429  0.15807401  0.75572479  1
  O  O97  1  0.84468862  0.14357667  0.75569428  1
  O  O98  1  0.22180791  0.28143165  0.75359844  1
  O  O99  1  0.72358120  0.30713491  0.75764967  1
  O  O100  1  0.43083310  0.55510036  0.75560331  1
  O  O101  1  0.91833113  0.55520170  0.75497771  1
  O  O102  1  0.34685388  0.54801472  0.25553161  1
  O  O103  1  0.84427742  0.54204398  0.24447173  1
  O  O104  1  0.41906368  0.28294582  0.25492964  1
  O  O105  1  0.93907052  0.34198767  0.24419382  1
  O  O106  1  0.23207752  0.12813974  0.24702711  1
  O  O107  1  0.72183324  0.15864195  0.25352206  1
  O  O108  1  0.33024893  0.51168957  0.93617205  1
  O  O109  1  0.82297752  0.49316429  0.92145816  1
  O  O110  1  0.42361226  0.35527936  0.92153928  1
  O  O111  1  0.92542896  0.33980347  0.93633741  1
  O  O112  1  0.24579656  0.15169309  0.93610312  1
  O  O113  1  0.75287884  0.14974593  0.92182489  1
  O  O114  1  0.32378955  0.15509422  0.42238684  1
  O  O115  1  0.81380457  0.14179547  0.43830668  1
  O  O116  1  0.26511929  0.37807314  0.42371342  1
  O  O117  1  0.74576894  0.34632715  0.43763100  1
  O  O118  1  0.42737298  0.50956291  0.43679320  1
  O  O119  1  0.92271662  0.46602596  0.42240899  1
  O  O120  1  0.16992855  0.48593599  0.06014168  1
  O  O121  1  0.66162340  0.46328335  0.07349259  1
  O  O122  1  0.07204132  0.66071481  0.05864455  1
  O  O123  1  0.57087067  0.67507750  0.07606873  1
  O  O124  1  0.25684469  0.85489995  0.06002484  1
  O  O125  1  0.76833692  0.85905294  0.07339337  1
  O  O126  1  0.16443933  0.86764821  0.58009968  1
  O  O127  1  0.66553243  0.84918769  0.56432588  1
  O  O128  1  0.26967547  0.67434685  0.58144759  1
  O  O129  1  0.75667854  0.66006312  0.56079223  1
  O  O130  1  0.06965875  0.46795940  0.57919658  1
  O  O131  1  0.57050996  0.47806101  0.56189017  1
  O  O132  1  0.14336796  0.81150897  0.26028478  1
  O  O133  1  0.63863661  0.83099166  0.24556835  1
  O  O134  1  0.27001795  0.71790220  0.26485439  1
  O  O135  1  0.76770292  0.71374860  0.23520247  1
  O  O136  1  0.09786585  0.47627174  0.25853974  1
  O  O137  1  0.58294099  0.44812210  0.24558459  1
  O  O138  1  0.14074745  0.44714884  0.74571406  1
  O  O139  1  0.64176111  0.46661812  0.76396156  1
  O  O140  1  0.08237522  0.71707232  0.74549076  1
  O  O141  1  0.59189336  0.71826542  0.76401553  1
  O  O142  1  0.27503306  0.83176764  0.74348666  1
  O  O143  1  0.76790124  0.82090249  0.76541604  1
loop_
_geom_bond_atom_site_label_1
_geom_bond_atom_site_label_2
_geom_bond_distance
_geom_bond_site_symmetry_2
Na0 O98 2.560913 1_555
Na0 O96 2.589030 1_555
Na0 O110 2.611793 1_555
Na0 O100 2.623963 1_555
Na0 O112 2.903296 1_555
Na0 O108 2.947426 1_555
Na1 O101 2.535051 1_555
Na1 O97 2.565706 1_555
Na1 O99 2.571960 1_555
Na1 O109 2.583884 1_555
Na1 O113 2.635182 1_555
Na1 O111 2.915686 1_555
Na2 O104 2.533782 1_555
Na2 O102 2.564581 1_555
Na2 O114 2.604424 1_555
Na2 O116 2.627702 1_555
Na2 O106 2.670911 1_555
Na3 O107 2.557060 1_555
Na3 O119 2.607315 1_555
Na3 O103 2.640761 1_555
Na3 O105 2.739478 1_555
Na4 O135 2.314695 1_555
Na4 O137 2.581839 1_555
Na4 O133 2.591040 1_555
Na4 O123 2.736819 1_555
Na4 O121 2.795224 1_555
Na4 O125 2.803370 1_555
Na5 O142 2.564441 1_555
Na5 O140 2.600014 1_555
Na5 O138 2.600700 1_555
Na5 O130 2.655001 1_555
Na5 O128 2.672373 1_555
Na5 O126 2.698046 1_555
La0 O72 2.241423 1_555
La0 O5 2.256506 1_565
La0 O76 2.261724 1_665
La0 O3 2.278432 1_555
La0 O75 2.331160 1_555
La0 O0 2.347749 1_665
La1 O28 2.235766 1_555
La1 O26 2.243234 1_555
La1 O24 2.324964 1_555
La1 O96 2.354146 1_555
La1 O100 2.368660 1_555
La1 O98 2.421608 1_555
La2 O25 2.245256 1_555
La2 O27 2.329912 1_555
La2 O29 2.336562 1_555
La2 O99 2.377514 1_555
La2 O101 2.425044 1_555
La2 O97 2.435637 1_555
La3 O30 2.249074 1_555
La3 O106 2.261758 1_555
La3 O34 2.353136 1_555
La3 O32 2.367308 1_555
La3 O102 2.412412 1_555
La3 O104 2.421338 1_555
La4 O33 2.243163 1_555
La4 O35 2.257689 1_555
La4 O103 2.260846 1_555
La4 O105 2.283545 1_555
La4 O31 2.372732 1_555
La4 O107 2.435719 1_555
La5 O125 2.299505 1_555
La5 O121 2.309337 1_555
La5 O53 2.315137 1_554
La5 O49 2.319339 1_554
La5 O51 2.322979 1_554
La5 O123 2.327506 1_555
La6 O58 2.229426 1_555
La6 O56 2.232489 1_555
La6 O54 2.310573 1_555
La6 O126 2.313894 1_555
La6 O128 2.315657 1_555
La6 O130 2.390312 1_555
La7 O65 2.352623 1_555
La7 O63 2.357201 1_555
La7 O133 2.384000 1_555
La7 O137 2.392063 1_555
La7 O135 2.397958 1_555
La7 O61 2.402653 1_555
La8 O66 2.365616 1_555
La8 O140 2.368083 1_555
La8 O68 2.371796 1_555
La8 O70 2.374406 1_555
La8 O138 2.375544 1_555
La8 O142 2.398643 1_555
O0 P0 1.484620 1_545
O1 P1 1.576053 1_555
O1 Ta0 1.953599 1_565
O2 P2 1.556333 1_555
O2 Ta0 1.973455 1_565
O3 P3 1.500815 1_555
O4 P5 1.569661 1_555
O4 Ta0 1.970163 1_555
O5 P4 1.489399 1_655
O6 P6 1.583580 1_555
O6 Ta1 1.948478 1_555
O7 P7 1.539052 1_555
O7 Ta2 1.976682 1_545
O8 P9 1.548027 1_555
O8 Ta2 1.951003 1_555
O9 P8 1.575747 1_555
O9 Ta1 1.964737 1_565
O10 P10 1.561599 1_555
O10 Ta2 1.943773 1_555
O11 P11 1.557833 1_545
O11 Ta1 1.977772 1_655
O12 P10 1.580099 1_555
O12 Ta4 1.976924 1_565
O13 P11 1.546456 1_555
O13 Ta3 2.118911 1_555
O14 P6 1.573377 1_555
O14 Ta3 1.986976 1_445
O15 P7 1.558120 1_555
O15 Ta4 2.098135 1_555
O16 P8 1.571511 1_655
O16 Ta3 1.981485 1_555
O17 P9 1.556820 1_555
O17 Ta4 2.109765 1_565
O18 P2 1.565014 1_555
O18 Ta6 2.074371 1_555
O19 P3 1.628007 1_555
O19 Ta5 1.922223 1_665
O20 P4 1.601604 1_555
O20 Ta5 2.026093 1_555
O21 P5 1.587335 1_555
O21 Ta6 1.959629 1_545
O22 P0 1.605892 1_555
O22 Ta5 2.011704 1_565
O23 P1 1.589276 1_555
O23 Ta6 1.964793 1_555
O24 P12 1.500462 1_555
O25 P13 1.511438 1_555
O26 P14 1.504020 1_555
O27 P15 1.504320 1_555
O28 P16 1.500071 1_555
O29 P17 1.506565 1_555
O30 P18 1.504838 1_555
O31 P19 1.493569 1_555
O32 P20 1.497992 1_555
O33 P21 1.500477 1_555
O34 P22 1.499946 1_555
O35 P23 1.498377 1_555
O36 P22 1.586721 1_555
O36 Ta7 1.984296 1_554
O37 P23 1.630782 1_555
O37 Ta8 1.975223 1_554
O38 P18 1.607238 1_555
O38 Ta7 1.962394 1_554
O39 P19 1.608435 1_555
O39 Ta8 1.995057 1_554
O40 P20 1.589369 1_555
O40 Ta7 1.980659 1_554
O41 P21 1.631986 1_555
O41 Ta8 1.967774 1_554
O42 P14 1.609729 1_555
O42 Ta9 2.010580 1_555
O43 P15 1.551862 1_555
O43 Ta10 2.064784 1_555
O44 P16 1.588958 1_555
O44 Ta9 2.027377 1_555
O45 P17 1.572015 1_555
O45 Ta10 2.005305 1_555
O46 P12 1.567873 1_555
O46 Ta9 2.059508 1_555
O47 P13 1.592763 1_555
O47 Ta10 1.978768 1_555
O48 P24 1.552275 1_555
O48 Ta11 2.037575 1_556
O49 P25 1.500008 1_555
O50 P26 1.559536 1_555
O50 Ta11 2.023080 1_556
O51 P27 1.499187 1_555
O52 P28 1.554412 1_555
O52 Ta11 2.029875 1_556
O53 P29 1.499139 1_555
O54 P30 1.501823 1_555
O55 P31 1.560561 1_555
O55 Ta12 1.906132 1_555
O56 P32 1.506296 1_555
O57 P33 1.557311 1_555
O57 Ta12 2.029679 1_555
O58 P34 1.506785 1_555
O59 P35 1.551384 1_555
O59 Ta12 2.011792 1_555
O60 P34 1.594244 1_555
O60 Ta13 2.038192 1_555
O61 P35 1.511274 1_555
O62 P30 1.561257 1_555
O62 Ta13 2.116759 1_555
O63 P31 1.523269 1_555
O64 P32 1.583338 1_555
O64 Ta13 2.054753 1_555
O65 P33 1.510852 1_555
O66 P26 1.512325 1_555
O67 P27 1.573743 1_555
O67 Ta14 2.082684 1_555
O68 P28 1.511924 1_555
O69 P29 1.578138 1_555
O69 Ta14 2.064032 1_555
O70 P24 1.510555 1_555
O71 P25 1.585881 1_555
O71 Ta14 2.052876 1_555
O72 P34 1.479787 1_655
O73 P35 1.565257 1_555
O73 Ta0 2.047600 1_565
O74 P30 1.563926 1_545
O74 Ta0 1.955829 1_555
O75 P31 1.485514 1_555
O76 P32 1.481548 1_555
O77 P33 1.566058 1_555
O77 Ta0 2.025247 1_555
O78 P26 1.563178 1_555
O78 Ta1 2.048378 1_555
O79 P27 1.558494 1_555
O79 Ta2 1.949704 1_545
O80 P28 1.562922 1_555
O80 Ta1 2.026004 1_565
O81 P29 1.559547 1_545
O81 Ta2 1.966445 1_545
O82 P24 1.565357 1_555
O82 Ta2 2.024855 1_555
O83 P25 1.559083 1_555
O83 Ta1 1.965690 1_665
O84 P12 1.577901 1_555
O84 Ta4 1.994214 1_555
O85 P13 1.575453 1_555
O85 Ta3 1.956190 1_545
O86 P14 1.580418 1_555
O86 Ta3 1.973194 1_445
O87 P15 1.573932 1_555
O87 Ta4 1.970773 1_555
O88 P16 1.597906 1_555
O88 Ta4 1.949767 1_565
O89 P17 1.556752 1_555
O89 Ta3 2.001560 1_555
O90 P18 1.562364 1_555
O90 Ta6 1.992288 1_555
O91 P19 1.549307 1_555
O91 Ta5 2.091939 1_665
O92 P20 1.545652 1_555
O92 Ta6 2.035390 1_545
O93 P21 1.566295 1_555
O93 Ta5 2.029683 1_655
O94 P22 1.543006 1_555
O94 Ta5 2.069927 1_555
O95 P23 1.573068 1_555
O95 Ta6 2.000490 1_545
O96 P10 1.520585 1_545
O97 P11 1.516695 1_545
O98 P6 1.521503 1_555
O99 P7 1.515564 1_555
O100 P9 1.512865 1_555
O101 P8 1.524434 1_655
O102 P2 1.518969 1_555
O103 P3 1.522023 1_555
O104 P5 1.520703 1_555
O105 P4 1.515880 1_655
O106 P0 1.523387 1_545
O107 P1 1.517560 1_545
O108 P24 1.564440 1_555
O108 Ta7 1.982976 1_555
O109 P25 1.571267 1_555
O109 Ta8 2.149248 1_555
O110 P27 1.577101 1_555
O110 Ta7 2.113385 1_555
O111 P26 1.565236 1_655
O111 Ta8 1.999479 1_555
O112 P28 1.567844 1_545
O112 Ta7 2.009063 1_555
O113 P29 1.571946 1_545
O113 Ta8 2.107339 1_555
O114 P30 1.585565 1_545
O114 Ta9 2.089008 1_555
O115 P31 1.563753 1_545
O115 Ta10 1.918652 1_555
O116 P32 1.609383 1_555
O116 Ta9 1.969044 1_555
O117 P33 1.558097 1_555
O117 Ta10 2.002461 1_555
O118 P35 1.562291 1_555
O118 Ta9 1.970796 1_555
O119 P34 1.609248 1_655
O119 Ta10 2.010403 1_555
O120 P22 1.571633 1_555
O120 Ta11 1.953479 1_555
O121 P23 1.506254 1_555
O122 P19 1.577387 1_455
O122 Ta11 1.943386 1_555
O123 P18 1.505950 1_555
O124 P20 1.566883 1_565
O124 Ta11 1.961822 1_555
O125 P21 1.506849 1_565
O126 P14 1.509469 1_565
O127 P15 1.560319 1_565
O127 Ta12 1.979807 1_555
O128 P16 1.508090 1_555
O129 P17 1.558907 1_555
O129 Ta12 1.983532 1_555
O130 P13 1.508019 1_455
O131 P12 1.553110 1_555
O131 Ta12 1.959942 1_555
O132 P0 1.590635 1_555
O132 Ta13 1.968779 1_555
O133 P1 1.517903 1_555
O134 P2 1.564350 1_555
O134 Ta13 1.999484 1_555
O135 P3 1.530223 1_555
O136 P4 1.590590 1_555
O136 Ta13 1.957126 1_555
O137 P5 1.517681 1_555
O138 P6 1.522099 1_555
O139 P7 1.584148 1_555
O139 Ta14 1.980487 1_555
O140 P8 1.523334 1_555
O141 P9 1.579655 1_555
O141 Ta14 1.984988 1_555
O142 P10 1.517547 1_555
O143 P11 1.593641 1_555
O143 Ta14 1.964347 1_555
