# generated using pymatgen
data_Hg5(BrO2)2
_symmetry_space_group_name_H-M   'P 1'
_cell_length_a   8.97661132
_cell_length_b   8.97642943
_cell_length_c   8.97636086
_cell_angle_alpha   139.19842350
_cell_angle_beta   98.04427566
_cell_angle_gamma   95.91632293
_symmetry_Int_Tables_number   1
_chemical_formula_structural   Hg5(BrO2)2
_chemical_formula_sum   'Hg10 Br4 O8'
_cell_volume   442.89177234
_cell_formula_units_Z   2
loop_
 _symmetry_equiv_pos_site_id
 _symmetry_equiv_pos_as_xyz
  1  'x, y, z'
loop_
 _atom_site_type_symbol
 _atom_site_label
 _atom_site_symmetry_multiplicity
 _atom_site_fract_x
 _atom_site_fract_y
 _atom_site_fract_z
 _atom_site_occupancy
  Hg  Hg0  1  0.14192841  0.35513295  0.21319643  1
  Hg  Hg1  1  0.35806794  0.07126885  0.71320989  1
  Hg  Hg2  1  0.85806941  0.64487084  0.78681110  1
  Hg  Hg3  1  0.64192623  0.92873325  0.28679583  1
  Hg  Hg4  1  0.58907867  0.33909661  0.25002226  1
  Hg  Hg5  1  0.91091574  0.66094248  0.25001582  1
  Hg  Hg6  1  0.41092102  0.66092661  0.75000186  1
  Hg  Hg7  1  0.08908187  0.33904535  0.74997327  1
  Hg  Hg8  1  0.24999247  0.00000854  0.25000663  1
  Hg  Hg9  1  0.74999838  -0.00000701  0.74999504  1
  Br  Br0  1  0.89243055  0.16396960  0.27151589  1
  Br  Br1  1  0.60760381  0.37913693  0.77160323  1
  Br  Br2  1  0.10760162  0.83602604  0.72849150  1
  Br  Br3  1  0.39242189  0.62085230  0.22836617  1
  O  O0  1  0.67696850  0.65494732  0.62198211  1
  O  O1  1  0.82302504  0.94501463  0.47798162  1
  O  O2  1  0.53295099  0.05493996  0.87795551  1
  O  O3  1  0.96704256  0.34500171  0.02199341  1
  O  O4  1  0.03294800  0.65501680  0.97802643  1
  O  O5  1  0.46704065  0.94504177  0.12202242  1
  O  O6  1  0.32302155  0.34503199  0.37799797  1
  O  O7  1  0.17696471  0.05500248  0.52203560  1
loop_
_geom_bond_atom_site_label_1
_geom_bond_atom_site_label_2
_geom_bond_distance
_geom_bond_site_symmetry_2
Hg0 O3 2.097302 1_455
Hg0 O6 2.097522 1_555
Hg1 O2 2.097305 1_555
Hg1 O7 2.097606 1_555
Hg2 O4 2.097250 1_655
Hg2 O0 2.097580 1_555
Hg3 O5 2.097358 1_555
Hg3 O1 2.097563 1_555
Hg4 O0 2.068523 1_555
Hg4 O2 2.069106 1_554
Hg5 O1 2.068547 1_555
Hg5 O3 2.069124 1_555
Hg6 O6 2.068774 1_555
Hg6 O5 2.068851 1_556
Hg7 O7 2.068336 1_555
Hg7 O4 2.069332 1_555
Hg8 O4 2.307632 1_544
Hg8 O6 2.307657 1_555
Hg8 O7 2.307757 1_555
Hg8 O5 2.307776 1_545
Hg9 O2 2.307686 1_555
Hg9 O3 2.307687 1_556
Hg9 O1 2.307700 1_545
Hg9 O0 2.307736 1_545
Br0 Hg3 3.013318 1_545
Br0 Hg0 3.021663 1_655
Br0 Hg2 3.061453 1_544
Br1 Hg2 3.013139 1_555
Br1 Hg1 3.021877 1_555
Br1 Hg3 3.061702 1_545
Br2 Hg1 3.013134 1_565
Br2 Hg2 3.021836 1_455
Br2 Hg0 3.061564 1_566
Br3 Hg0 3.013440 1_555
Br3 Hg3 3.021580 1_555
Br3 Hg1 3.061997 1_565
