# generated using pymatgen
data_Na3ScIn(PO4)3
_symmetry_space_group_name_H-M   'P 1'
_cell_length_a   9.07634780
_cell_length_b   9.07194157
_cell_length_c   22.84302006
_cell_angle_alpha   89.94041017
_cell_angle_beta   90.04879162
_cell_angle_gamma   120.07845904
_symmetry_Int_Tables_number   1
_chemical_formula_structural   Na3ScIn(PO4)3
_chemical_formula_sum   'Na18 Sc6 In6 P18 O72'
_cell_volume   1627.61379235
_cell_formula_units_Z   6
loop_
 _symmetry_equiv_pos_site_id
 _symmetry_equiv_pos_as_xyz
  1  'x, y, z'
loop_
 _atom_site_type_symbol
 _atom_site_label
 _atom_site_symmetry_multiplicity
 _atom_site_fract_x
 _atom_site_fract_y
 _atom_site_fract_z
 _atom_site_occupancy
  Na  Na0  1  0.00009138  -0.00000005  0.49993089  1
  Na  Na1  1  0.00009386  0.99976321  -0.00001784  1
  Na  Na2  1  0.64836861  0.32341071  0.83331433  1
  Na  Na3  1  0.67659054  0.35141449  0.33334390  1
  Na  Na4  1  0.33366973  0.66651676  0.16686465  1
  Na  Na5  1  0.33340025  0.66620045  0.66657754  1
  Na  Na6  1  0.63527120  0.99955708  0.24969562  1
  Na  Na7  1  0.36591829  0.36422582  0.24977833  1
  Na  Na8  1  0.63572627  0.63358914  0.74964563  1
  Na  Na9  1  -0.00003643  0.36472209  0.74937527  1
  Na  Na10  1  0.03089467  0.69885168  0.58339044  1
  Na  Na11  1  0.66561305  0.96775877  0.58314166  1
  Na  Na12  1  0.30099385  0.96998378  0.08357559  1
  Na  Na13  1  0.03182595  0.33350857  0.08348396  1
  Na  Na14  1  0.96720240  0.66537996  0.91735459  1
  Na  Na15  1  0.69804356  0.03029176  0.91663839  1
  Na  Na16  1  0.96995448  0.30153680  0.41666183  1
  Na  Na17  1  0.33438835  0.03246773  0.41722523  1
  Sc  Sc0  1  0.00853933  0.00693674  0.64921498  1
  Sc  Sc1  1  0.99321361  0.99154847  0.14998479  1
  Sc  Sc2  1  0.65887962  0.32706803  0.68319930  1
  Sc  Sc3  1  0.67287793  0.34131245  0.18361614  1
  Sc  Sc4  1  0.66457307  0.33982571  0.48287111  1
  Sc  Sc5  1  0.32790118  0.66539692  0.31596259  1
  In  In0  1  0.99360417  0.99096186  0.34863918  1
  In  In1  1  0.00904446  0.00626686  0.84874445  1
  In  In2  1  0.66023047  0.33565267  0.98463725  1
  In  In3  1  0.34046837  0.66504662  0.01671890  1
  In  In4  1  0.33506004  0.65960497  0.51631803  1
  In  In5  1  0.33413344  0.67129372  0.81645505  1
  P  P0  1  0.29634119  -0.00018811  0.24933564  1
  P  P1  1  0.70318777  0.70287005  0.24991362  1
  P  P2  1  0.99944179  0.29485842  0.24937892  1
  P  P3  1  0.29701180  0.29560886  0.74960327  1
  P  P4  1  0.99940313  0.70378392  0.74896685  1
  P  P5  1  0.70615696  0.00115753  0.74902701  1
  P  P6  1  0.95849771  0.33278167  0.58348224  1
  P  P7  1  0.37226017  0.03984818  0.58185989  1
  P  P8  1  0.66700159  0.62745325  0.58498208  1
  P  P9  1  0.96244143  0.63013236  0.08239422  1
  P  P10  1  0.66782971  0.03953486  0.08410109  1
  P  P11  1  0.36947282  0.33202573  0.08576088  1
  P  P12  1  0.63145448  0.66692699  0.91468688  1
  P  P13  1  0.03543980  0.36858094  0.91718606  1
  P  P14  1  0.33366096  0.96298251  0.91810721  1
  P  P15  1  0.62947514  0.96278137  0.41682914  1
  P  P16  1  0.33371388  0.37071469  0.41460563  1
  P  P17  1  0.03898067  0.66630659  0.41778693  1
  O  O0  1  0.22257919  0.03641260  0.30530574  1
  O  O1  1  0.80972794  0.77590379  0.30558440  1
  O  O2  1  0.96379856  0.18509687  0.30569623  1
  O  O3  1  0.22381564  0.19157322  0.80575291  1
  O  O4  1  0.96540998  0.77766799  0.80543787  1
  O  O5  1  0.81367104  0.03473293  0.80579571  1
  O  O6  1  0.79431313  0.97372616  0.69526643  1
  O  O7  1  0.17810104  0.20791920  0.69691862  1
  O  O8  1  0.02297606  0.81596648  0.69494221  1
  O  O9  1  0.78970667  0.82192048  0.19712102  1
  O  O10  1  0.02882833  0.20853893  0.19551614  1
  O  O11  1  0.18457938  0.97509663  0.19514277  1
  O  O12  1  0.87409677  0.36013184  0.63833463  1
  O  O13  1  0.48903727  0.12739524  0.63490176  1
  O  O14  1  0.64369251  0.52120495  0.64052259  1
  O  O15  1  0.87147801  0.50981800  0.13425555  1
  O  O16  1  0.63985375  0.12678617  0.13791428  1
  O  O17  1  0.47950146  0.35666191  0.14028543  1
  O  O18  1  0.44425804  0.29442853  0.03089316  1
  O  O19  1  0.86231217  0.55816874  0.02471252  1
  O  O20  1  0.70176758  0.14773188  0.02746026  1
  O  O21  1  0.45402423  0.14494558  0.52573129  1
  O  O22  1  0.69529024  0.54057273  0.53136945  1
  O  O23  1  0.84763517  0.30541816  0.52808779  1
  O  O24  1  0.55210844  0.70317995  0.96850014  1
  O  O25  1  0.14107222  0.44844878  0.97319985  1
  O  O26  1  0.30046551  0.85393113  0.97446747  1
  O  O27  1  0.55263551  0.85887037  0.47352058  1
  O  O28  1  0.29489559  0.44639844  0.46899180  1
  O  O29  1  0.14662411  0.70072186  0.47454496  1
  O  O30  1  0.12867100  0.63732837  0.36506298  1
  O  O31  1  0.51537858  0.87605618  0.36259978  1
  O  O32  1  0.35759306  0.47892834  0.35936074  1
  O  O33  1  0.11384905  0.47933389  0.86156618  1
  O  O34  1  0.36856007  0.88253018  0.86419605  1
  O  O35  1  0.52729139  0.63902097  0.85810023  1
  O  O36  1  0.02816647  0.83098857  0.41139235  1
  O  O37  1  0.81332161  0.99254810  0.41186896  1
  O  O38  1  0.17136488  0.18888710  0.41015461  1
  O  O39  1  0.00819969  0.18575410  0.91260306  1
  O  O40  1  0.16771806  0.97163587  0.91228239  1
  O  O41  1  0.81191977  0.83089785  0.91096257  1
  O  O42  1  0.96987329  0.16811157  0.58955728  1
  O  O43  1  0.19025520  0.01335775  0.58863903  1
  O  O44  1  0.83112178  0.80756545  0.58938823  1
  O  O45  1  0.98995274  0.81212304  0.09009365  1
  O  O46  1  0.83089466  0.02648787  0.09110015  1
  O  O47  1  0.18880708  0.17008750  0.09152240  1
  O  O48  1  0.69268333  0.16403256  0.74210760  1
  O  O49  1  0.47919557  0.32406355  0.74243074  1
  O  O50  1  0.83698830  0.52373133  0.74282807  1
  O  O51  1  0.67473508  0.52050131  0.24242635  1
  O  O52  1  0.83662982  0.30829601  0.24206529  1
  O  O53  1  0.47681272  0.16186765  0.24282548  1
  O  O54  1  0.65732888  0.51073962  0.92038646  1
  O  O55  1  0.85572331  0.35326939  0.92134914  1
  O  O56  1  0.49887641  0.13910047  0.92254954  1
  O  O57  1  0.64356921  0.14200330  0.42155843  1
  O  O58  1  0.49109123  0.34733559  0.42137546  1
  O  O59  1  0.86338448  0.50086501  0.42284109  1
  O  O60  1  0.34468265  0.48953867  0.08091338  1
  O  O61  1  0.14223555  0.64453953  0.07985575  1
  O  O62  1  0.50063539  0.86414155  0.07983494  1
  O  O63  1  0.35617392  0.85922137  0.57893227  1
  O  O64  1  0.51125795  0.65474281  0.58006615  1
  O  O65  1  0.13493070  0.49879381  0.57919442  1
  O  O66  1  0.32143107  0.84311192  0.25552704  1
  O  O67  1  0.52396822  0.68834513  0.25515381  1
  O  O68  1  0.16491861  0.47021305  0.25556522  1
  O  O69  1  0.31063875  0.47531889  0.75302073  1
  O  O70  1  0.15639283  0.67817862  0.75306377  1
  O  O71  1  0.53091542  0.83408300  0.75315534  1
loop_
_geom_bond_atom_site_label_1
_geom_bond_atom_site_label_2
_geom_bond_distance
_geom_bond_site_symmetry_2
Na0 O37 2.608519 1_445
Na0 O43 2.623886 1_555
Na0 O38 2.624220 1_555
Na0 O44 2.624823 1_445
Na0 O36 2.627782 1_545
Na0 O42 2.649429 1_455
Na1 O39 2.589446 1_564
Na1 O41 2.603230 1_454
Na1 O40 2.605481 1_554
Na1 O45 2.641823 1_455
Na1 O47 2.653597 1_565
Na1 O46 2.670048 1_465
Na2 O56 2.552527 1_555
Na2 O49 2.582902 1_555
Na2 O54 2.592104 1_555
Na2 O55 2.672660 1_555
Na2 O48 2.680233 1_555
Na2 O50 2.717629 1_555
Na3 O59 2.566690 1_555
Na3 O51 2.585674 1_555
Na3 O58 2.612083 1_555
Na3 O57 2.679896 1_555
Na3 O52 2.680846 1_555
Na3 O53 2.719528 1_555
Na4 O60 2.571065 1_555
Na4 O61 2.580073 1_555
Na4 O62 2.595649 1_555
Na4 O67 2.596534 1_555
Na4 O66 2.620374 1_555
Na4 O68 2.624214 1_555
Na5 O69 2.564269 1_555
Na5 O70 2.583946 1_555
Na5 O64 2.587684 1_555
Na5 O71 2.590005 1_555
Na5 O63 2.597677 1_555
Na5 O65 2.606483 1_555
Na6 O52 2.466549 1_565
Na6 O66 2.468602 1_555
Na6 O67 2.479447 1_555
Na6 O53 2.526498 1_565
Na6 O16 2.792820 1_565
Na6 O31 2.804947 1_555
Na6 O9 2.876661 1_555
Na6 O2 2.885818 1_565
Na7 O51 2.431391 1_555
Na7 O68 2.455435 1_555
Na7 O53 2.502279 1_555
Na7 O67 2.547789 1_555
Na7 O17 2.720093 1_555
Na7 O32 2.727460 1_555
Na7 O0 2.874424 1_555
Na7 O10 2.925359 1_555
Na8 O49 2.435608 1_555
Na8 O71 2.440186 1_555
Na8 O50 2.485983 1_555
Na8 O69 2.554834 1_555
Na8 O35 2.676144 1_555
Na8 O14 2.708825 1_555
Na8 O4 2.891921 1_555
Na8 O6 2.946089 1_555
Na9 O48 2.455766 1_455
Na9 O70 2.462240 1_555
Na9 O69 2.475629 1_555
Na9 O50 2.535621 1_455
Na9 O33 2.764256 1_555
Na9 O12 2.772776 1_455
Na9 O7 2.895824 1_555
Na9 O5 2.898930 1_455
Na10 O65 2.431683 1_555
Na10 O44 2.464221 1_455
Na10 O43 2.472019 1_565
Na10 O63 2.556973 1_555
Na10 O29 2.696685 1_555
Na10 O8 2.776632 1_555
Na10 O22 2.892330 1_455
Na10 O12 2.941858 1_455
Na11 O42 2.433094 1_565
Na11 O64 2.458428 1_555
Na11 O63 2.468726 1_555
Na11 O44 2.564465 1_555
Na11 O27 2.698727 1_555
Na11 O6 2.803454 1_555
Na11 O13 2.897776 1_565
Na11 O23 2.935491 1_565
Na12 O62 2.440722 1_555
Na12 O45 2.447605 1_455
Na12 O47 2.493799 1_565
Na12 O61 2.556607 1_555
Na12 O26 2.705677 1_554
Na12 O11 2.769037 1_555
Na12 O18 2.821573 1_565
Na12 O16 2.938597 1_565
Na13 O46 2.453957 1_455
Na13 O60 2.457952 1_555
Na13 O61 2.477532 1_555
Na13 O47 2.525492 1_555
Na13 O25 2.716499 1_554
Na13 O10 2.792577 1_555
Na13 O15 2.891638 1_455
Na13 O20 2.896494 1_455
Na14 O54 2.434807 1_555
Na14 O40 2.444598 1_655
Na14 O55 2.485381 1_555
Na14 O41 2.526451 1_555
Na14 O19 2.633886 1_556
Na14 O4 2.754061 1_555
Na14 O33 2.916073 1_655
Na14 O26 2.930713 1_655
Na15 O39 2.437784 1_655
Na15 O56 2.459625 1_555
Na15 O41 2.496390 1_545
Na15 O55 2.538110 1_555
Na15 O5 2.734206 1_555
Na15 O20 2.741192 1_556
Na15 O24 2.831885 1_545
Na15 O34 2.855538 1_545
Na16 O37 2.428262 1_545
Na16 O59 2.445295 1_555
Na16 O38 2.506338 1_655
Na16 O57 2.566227 1_555
Na16 O2 2.736840 1_555
Na16 O23 2.785063 1_555
Na16 O28 2.822486 1_655
Na16 O30 2.888076 1_655
Na17 O36 2.447699 1_545
Na17 O57 2.465106 1_555
Na17 O58 2.473714 1_555
Na17 O38 2.516522 1_555
Na17 O21 2.693292 1_555
Na17 O0 2.756634 1_555
Na17 O29 2.920753 1_545
Na17 O31 2.934739 1_545
In0 O1 2.072770 1_555
In0 O2 2.147261 1_565
In0 O0 2.147721 1_665
In0 O36 2.170409 1_655
In0 O37 2.188962 1_555
In0 O38 2.213431 1_665
In1 O3 2.074960 1_555
In1 O4 2.148626 1_445
In1 O5 2.151569 1_455
In1 O40 2.174487 1_545
In1 O39 2.190151 1_555
In1 O41 2.213275 1_445
In2 O18 2.089673 1_556
In2 O19 2.137010 1_556
In2 O20 2.155350 1_556
In2 O54 2.171347 1_555
In2 O56 2.172535 1_555
In2 O55 2.232390 1_555
In3 O24 2.087949 1_554
In3 O25 2.135664 1_554
In3 O26 2.149229 1_554
In3 O60 2.177836 1_555
In3 O62 2.196409 1_555
In3 O61 2.240586 1_555
In4 O28 2.083179 1_555
In4 O27 2.131826 1_555
In4 O29 2.147276 1_555
In4 O64 2.178674 1_555
In4 O65 2.198758 1_555
In4 O63 2.240296 1_555
In5 O34 2.088729 1_555
In5 O35 2.139013 1_555
In5 O33 2.145167 1_555
In5 O70 2.190915 1_555
In5 O71 2.194951 1_555
In5 O69 2.220542 1_555
O0 P0 1.555076 1_555
O1 P1 1.532548 1_555
O2 P2 1.557657 1_555
O3 P3 1.532218 1_555
O4 P4 1.555071 1_555
O5 P5 1.558001 1_555
O6 P5 1.553114 1_565
O6 Sc0 2.096106 1_665
O7 P3 1.544409 1_555
O7 Sc0 2.017163 1_555
O8 P4 1.544041 1_455
O8 Sc0 2.081648 1_565
O9 P1 1.544725 1_555
O9 Sc1 2.022373 1_555
O10 P2 1.552464 1_455
O10 Sc1 2.104087 1_445
O11 P0 1.543432 1_565
O11 Sc1 2.087981 1_455
O12 P6 1.552803 1_555
O12 Sc2 2.090802 1_555
O13 P7 1.542166 1_555
O13 Sc2 2.019170 1_555
O14 P8 1.541740 1_555
O14 Sc2 2.076229 1_555
O15 P9 1.540167 1_555
O15 Sc3 2.023671 1_555
O16 P10 1.551160 1_555
O16 Sc3 2.094340 1_555
O17 P11 1.540547 1_555
O17 Sc3 2.078798 1_555
O18 P11 1.543486 1_555
O19 P9 1.547032 1_555
O20 P10 1.557995 1_555
O21 P7 1.547101 1_555
O21 Sc4 2.085463 1_555
O22 P8 1.546727 1_555
O22 Sc4 2.028898 1_555
O23 P6 1.556727 1_555
O23 Sc4 2.107429 1_555
O24 P12 1.541963 1_555
O25 P13 1.544311 1_555
O26 P14 1.557639 1_555
O27 P15 1.546631 1_555
O28 P16 1.544012 1_555
O29 P17 1.557539 1_555
O30 P17 1.548924 1_555
O30 Sc5 2.033231 1_555
O31 P15 1.552131 1_555
O31 Sc5 2.103374 1_555
O32 P16 1.545277 1_555
O32 Sc5 2.090462 1_555
O33 P13 1.553179 1_555
O34 P14 1.543980 1_555
O35 P12 1.545134 1_555
O36 P17 1.552247 1_555
O37 P15 1.555234 1_555
O38 P16 1.570440 1_555
O39 P13 1.553157 1_555
O40 P14 1.552587 1_555
O41 P12 1.568628 1_555
O42 P6 1.554265 1_555
O42 Sc0 2.151191 1_655
O43 P7 1.553404 1_555
O43 Sc0 2.132085 1_555
O44 P8 1.568203 1_555
O44 Sc0 2.194091 1_665
O45 P9 1.551259 1_555
O45 Sc1 2.116213 1_555
O46 P10 1.550879 1_555
O46 Sc1 2.131689 1_545
O47 P11 1.565155 1_555
O47 Sc1 2.162355 1_445
O48 P5 1.550427 1_555
O48 Sc2 2.131314 1_555
O49 P3 1.549278 1_555
O49 Sc2 2.109573 1_555
O50 P4 1.564398 1_555
O50 Sc2 2.182205 1_555
O51 P1 1.550921 1_555
O51 Sc3 2.103473 1_555
O52 P2 1.551319 1_555
O52 Sc3 2.126820 1_555
O53 P0 1.566110 1_555
O53 Sc3 2.177595 1_555
O54 P12 1.553346 1_555
O55 P13 1.569131 1_655
O56 P14 1.552488 1_545
O57 P15 1.569527 1_545
O57 Sc4 2.209180 1_555
O58 P16 1.553219 1_555
O58 Sc4 2.135609 1_555
O59 P17 1.551868 1_655
O59 Sc4 2.151378 1_555
O60 P11 1.557784 1_555
O61 P9 1.571563 1_455
O62 P10 1.556878 1_565
O63 P7 1.572041 1_565
O64 P8 1.556464 1_555
O65 P6 1.557133 1_455
O66 P0 1.554591 1_565
O66 Sc5 2.144458 1_555
O67 P1 1.569445 1_555
O67 Sc5 2.184479 1_555
O68 P2 1.552928 1_455
O68 Sc5 2.145493 1_555
O69 P3 1.573995 1_555
O70 P4 1.557093 1_455
O71 P5 1.555483 1_565
