# generated using pymatgen
data_Na8ZnSi5Sn3SO24
_symmetry_space_group_name_H-M   'P 1'
_cell_length_a   9.16262681
_cell_length_b   9.15323101
_cell_length_c   22.48151556
_cell_angle_alpha   90.52950941
_cell_angle_beta   90.37776572
_cell_angle_gamma   120.09199436
_symmetry_Int_Tables_number   1
_chemical_formula_structural   Na8ZnSi5Sn3SO24
_chemical_formula_sum   'Na24 Zn3 Si15 Sn9 S3 O72'
_cell_volume   1631.14357124
_cell_formula_units_Z   3
loop_
 _symmetry_equiv_pos_site_id
 _symmetry_equiv_pos_as_xyz
  1  'x, y, z'
loop_
 _atom_site_type_symbol
 _atom_site_label
 _atom_site_symmetry_multiplicity
 _atom_site_fract_x
 _atom_site_fract_y
 _atom_site_fract_z
 _atom_site_occupancy
  Na  Na0  1  0.64524682  0.01918982  0.24748574  1
  Na  Na1  1  0.36471484  0.36323275  0.24402684  1
  Na  Na2  1  0.98819067  0.61443953  0.24548243  1
  Na  Na3  1  0.63276502  0.62091253  0.74820945  1
  Na  Na4  1  0.98869453  0.36517798  0.75186952  1
  Na  Na5  1  0.37909114  0.01042853  0.74821238  1
  Na  Na6  1  0.31351594  0.33340040  0.58813366  1
  Na  Na7  1  0.03161255  0.70601221  0.58443657  1
  Na  Na8  1  0.66018656  0.96403226  0.58977288  1
  Na  Na9  1  0.30726225  0.97006313  0.07927894  1
  Na  Na10  1  0.66349040  0.69389115  0.07900306  1
  Na  Na11  1  0.03221865  0.33900514  0.08090245  1
  Na  Na12  1  0.96545218  0.66619750  0.91507773  1
  Na  Na13  1  0.70026533  0.03404304  0.91479009  1
  Na  Na14  1  0.33396542  0.29978236  0.91517315  1
  Na  Na15  1  0.96605982  0.28972422  0.41235112  1
  Na  Na16  1  0.32205234  0.03235845  0.41839660  1
  Na  Na17  1  0.70989143  0.67727589  0.41835498  1
  Na  Na18  1  0.00104420  0.99433329  0.49597209  1
  Na  Na19  1  0.00050691  0.00072254  0.99624314  1
  Na  Na20  1  0.66654798  0.33298746  0.82764693  1
  Na  Na21  1  0.67621022  0.33242550  0.33348265  1
  Na  Na22  1  0.32840450  0.66089025  0.16034527  1
  Na  Na23  1  0.34128706  0.67340403  0.67159263  1
  Zn  Zn0  1  0.99646224  0.01217199  0.35762184  1
  Zn  Zn1  1  0.64693900  0.32877459  0.68941873  1
  Zn  Zn2  1  0.67950242  0.33274754  0.16984143  1
  Si  Si0  1  0.99798570  0.29495006  0.25316464  1
  Si  Si1  1  0.28920775  0.29247242  0.75089998  1
  Si  Si2  1  0.00047036  0.70108609  0.75120149  1
  Si  Si3  1  0.70687801  0.00085484  0.74988128  1
  Si  Si4  1  0.37243456  0.03947516  0.58425030  1
  Si  Si5  1  0.66668237  0.62836351  0.58477991  1
  Si  Si6  1  0.96322767  0.62926043  0.08573927  1
  Si  Si7  1  0.66189884  0.03796384  0.08444396  1
  Si  Si8  1  0.37967453  0.33718229  0.08582208  1
  Si  Si9  1  0.62706092  0.66656223  0.91688223  1
  Si  Si10  1  0.03959219  0.37355961  0.91635348  1
  Si  Si11  1  0.33323761  0.95977999  0.91697933  1
  Si  Si12  1  0.62721976  0.96207532  0.41574453  1
  Si  Si13  1  0.33411474  0.37332035  0.41783634  1
  Si  Si14  1  0.03473900  0.66523201  0.41798503  1
  Sn  Sn0  1  0.99903463  0.99898503  0.85159636  1
  Sn  Sn1  1  0.00100319  0.98872887  0.65307193  1
  Sn  Sn2  1  0.00451876  0.01285155  0.14496090  1
  Sn  Sn3  1  0.66763748  0.33473738  0.98193301  1
  Sn  Sn4  1  0.65862459  0.33559348  0.48144743  1
  Sn  Sn5  1  0.33357638  0.66647919  0.01688154  1
  Sn  Sn6  1  0.34221894  0.67583047  0.51598282  1
  Sn  Sn7  1  0.32267689  0.65541789  0.32172547  1
  Sn  Sn8  1  0.33449212  0.66665698  0.81451193  1
  S  S0  1  0.29185211  0.99810808  0.25173803  1
  S  S1  1  0.70689704  0.70846390  0.25140377  1
  S  S2  1  0.96088044  0.33356536  0.58269720  1
  O  O0  1  0.20933532  0.01764416  0.30453535  1
  O  O1  1  0.81316528  0.78895597  0.30434084  1
  O  O2  1  0.96910009  0.17551392  0.30897420  1
  O  O3  1  0.20530748  0.17249253  0.80877396  1
  O  O4  1  0.96295375  0.78766687  0.80892991  1
  O  O5  1  0.82590209  0.03487331  0.80909320  1
  O  O6  1  0.78708028  0.96027187  0.68949758  1
  O  O7  1  0.16830920  0.21413217  0.68967702  1
  O  O8  1  0.04759883  0.82058515  0.69097757  1
  O  O9  1  0.78345463  0.81254888  0.19661699  1
  O  O10  1  0.04366727  0.21544941  0.19290422  1
  O  O11  1  0.18389061  0.96445382  0.19647785  1
  O  O12  1  0.88531657  0.36315878  0.63571404  1
  O  O13  1  0.49716830  0.11716995  0.64056504  1
  O  O14  1  0.62898468  0.50932373  0.64107538  1
  O  O15  1  0.89298452  0.52060642  0.14547039  1
  O  O16  1  0.62079144  0.10626369  0.14500804  1
  O  O17  1  0.48998024  0.37163059  0.14631918  1
  O  O18  1  0.45608378  0.29502872  0.02631419  1
  O  O19  1  0.84137079  0.55218136  0.02642307  1
  O  O20  1  0.70752188  0.16078168  0.02647741  1
  O  O21  1  0.45042084  0.15356289  0.52286439  1
  O  O22  1  0.71148985  0.55370059  0.52373599  1
  O  O23  1  0.85493069  0.30428303  0.52737219  1
  O  O24  1  0.54873662  0.70679454  0.97633333  1
  O  O25  1  0.15836541  0.45145020  0.97647331  1
  O  O26  1  0.29316973  0.84164467  0.97612164  1
  O  O27  1  0.54656908  0.84386244  0.47376224  1
  O  O28  1  0.29418431  0.45893481  0.47515407  1
  O  O29  1  0.15736685  0.69976003  0.47590312  1
  O  O30  1  0.11047828  0.62146722  0.35754744  1
  O  O31  1  0.50136983  0.87994440  0.35563925  1
  O  O32  1  0.38214580  0.49479517  0.35818272  1
  O  O33  1  0.12056886  0.49461631  0.85871111  1
  O  O34  1  0.37453453  0.87917515  0.85875092  1
  O  O35  1  0.50495463  0.62505489  0.85842034  1
  O  O36  1  0.01869028  0.83187432  0.41032458  1
  O  O37  1  0.80890068  0.97545403  0.41244424  1
  O  O38  1  0.17066099  0.18738356  0.41352106  1
  O  O39  1  0.02246236  0.18577167  0.91252128  1
  O  O40  1  0.16343859  0.97804422  0.91251057  1
  O  O41  1  0.81473805  0.83708590  0.91266984  1
  O  O42  1  0.97808710  0.18050711  0.58557733  1
  O  O43  1  0.18308784  0.02520956  0.58730445  1
  O  O44  1  0.83618830  0.82277528  0.58706966  1
  O  O45  1  0.98058478  0.81948015  0.09269351  1
  O  O46  1  0.83224837  0.01665386  0.08876355  1
  O  O47  1  0.18922616  0.16276935  0.08781698  1
  O  O48  1  0.69255843  0.16909669  0.74547600  1
  O  O49  1  0.47316449  0.30989206  0.74857838  1
  O  O50  1  0.83477098  0.51683178  0.74445478  1
  O  O51  1  0.68109745  0.53621614  0.24592359  1
  O  O52  1  0.83339749  0.31871688  0.24768471  1
  O  O53  1  0.45993729  0.15006427  0.24666142  1
  O  O54  1  0.64329311  0.49589369  0.92225556  1
  O  O55  1  0.85257148  0.35667067  0.92245427  1
  O  O56  1  0.50399174  0.14728009  0.92256024  1
  O  O57  1  0.64246397  0.14915378  0.42223709  1
  O  O58  1  0.50824440  0.36223087  0.42024898  1
  O  O59  1  0.85161178  0.48813919  0.42330881  1
  O  O60  1  0.35456600  0.50314369  0.07899334  1
  O  O61  1  0.15173461  0.65031139  0.07814507  1
  O  O62  1  0.49513113  0.84772188  0.07779989  1
  O  O63  1  0.34405745  0.84439022  0.57752894  1
  O  O64  1  0.49282875  0.64354358  0.57710158  1
  O  O65  1  0.13256246  0.48767125  0.57677160  1
  O  O66  1  0.31010652  0.84128176  0.25394789  1
  O  O67  1  0.53517585  0.69797265  0.25449320  1
  O  O68  1  0.18018081  0.48900402  0.25457154  1
  O  O69  1  0.30169876  0.47858819  0.75407138  1
  O  O70  1  0.17609698  0.69307770  0.75529922  1
  O  O71  1  0.52177524  0.82513881  0.75404146  1
loop_
_geom_bond_atom_site_label_1
_geom_bond_atom_site_label_2
_geom_bond_distance
_geom_bond_site_symmetry_2
Na0 O52 2.397645 1_555
Na0 O16 2.489858 1_555
Na0 O53 2.521495 1_555
Na0 O67 2.593016 1_545
Na0 O66 2.664267 1_545
Na0 O31 2.772902 1_545
Na0 O2 2.900879 1_555
Na0 O9 2.978249 1_545
Na1 O17 2.469065 1_555
Na1 O68 2.488472 1_555
Na1 O53 2.506076 1_555
Na1 O51 2.511336 1_555
Na1 O67 2.658126 1_555
Na1 O10 2.782163 1_555
Na1 O32 2.794040 1_555
Na2 O52 2.344044 1_555
Na2 O15 2.396075 1_555
Na2 O51 2.531867 1_555
Na2 O68 2.545481 1_655
Na2 O66 2.625152 1_655
Na2 O30 2.737598 1_655
Na3 O49 2.463532 1_555
Na3 O50 2.471710 1_555
Na3 O71 2.539554 1_555
Na3 O14 2.600664 1_555
Na3 O69 2.638546 1_555
Na3 O35 2.755531 1_555
Na3 O4 2.936428 1_555
Na3 O6 3.014348 1_555
Na4 O48 2.389764 1_555
Na4 O50 2.430656 1_555
Na4 O69 2.513345 1_655
Na4 O70 2.605471 1_655
Na4 O33 2.665841 1_655
Na4 O12 2.768690 1_555
Na4 O5 2.931823 1_555
Na4 O7 2.975082 1_655
Na5 O49 2.426249 1_555
Na5 O48 2.486667 1_555
Na5 O70 2.552895 1_545
Na5 O71 2.613059 1_545
Na5 O13 2.645770 1_555
Na5 O34 2.761690 1_545
Na5 O8 2.918077 1_545
Na5 O3 2.991584 1_555
Na6 O43 2.450387 1_555
Na6 O64 2.482148 1_555
Na6 O7 2.608248 1_555
Na6 O42 2.662846 1_455
Na6 O65 2.675262 1_555
Na6 O14 2.759790 1_555
Na6 O28 2.838158 1_555
Na6 O21 2.913165 1_555
Na7 O63 2.489474 1_555
Na7 O44 2.504249 1_455
Na7 O43 2.528979 1_565
Na7 O8 2.579372 1_555
Na7 O65 2.593994 1_555
Na7 O29 2.717559 1_555
Na7 O22 2.867189 1_455
Na7 O12 2.973730 1_455
Na8 O44 2.523241 1_555
Na8 O6 2.527170 1_555
Na8 O63 2.543266 1_555
Na8 O64 2.550683 1_555
Na8 O42 2.576610 1_565
Na8 O13 2.755388 1_565
Na8 O27 2.803337 1_555
Na9 O62 2.480175 1_555
Na9 O47 2.495452 1_565
Na9 O61 2.532413 1_555
Na9 O26 2.563237 1_554
Na9 O45 2.613925 1_455
Na9 O18 2.853838 1_565
Na9 O11 2.864656 1_555
Na9 O16 2.882550 1_565
Na10 O60 2.470757 1_555
Na10 O45 2.547570 1_555
Na10 O62 2.557587 1_555
Na10 O24 2.558263 1_554
Na10 O46 2.563159 1_565
Na10 O19 2.802361 1_555
Na10 O9 2.844424 1_555
Na11 O61 2.489489 1_555
Na11 O60 2.556485 1_555
Na11 O46 2.585900 1_455
Na11 O25 2.606647 1_554
Na11 O47 2.650415 1_555
Na11 O10 2.792544 1_555
Na11 O20 2.838607 1_455
Na11 O15 2.933256 1_455
Na12 O55 2.489297 1_555
Na12 O40 2.500751 1_655
Na12 O41 2.554056 1_555
Na12 O54 2.562421 1_555
Na12 O4 2.646749 1_555
Na12 O19 2.746596 1_556
Na12 O33 2.884042 1_655
Na12 O26 2.923733 1_655
Na13 O56 2.491779 1_555
Na13 O41 2.499539 1_545
Na13 O39 2.557069 1_655
Na13 O55 2.559835 1_555
Na13 O5 2.645622 1_555
Na13 O20 2.742519 1_556
Na13 O34 2.859912 1_545
Na13 O24 2.957339 1_545
Na14 O54 2.483456 1_555
Na14 O39 2.499752 1_555
Na14 O40 2.549298 1_545
Na14 O56 2.566058 1_555
Na14 O3 2.646299 1_555
Na14 O18 2.740611 1_556
Na14 O35 2.892370 1_555
Na14 O25 2.940905 1_555
Na15 O38 2.480609 1_655
Na15 O37 2.488918 1_545
Na15 O59 2.522620 1_555
Na15 O2 2.545599 1_555
Na15 O57 2.585436 1_555
Na15 O23 2.811688 1_555
Na15 O30 2.924183 1_655
Na15 O28 2.943708 1_655
Na16 O38 2.434000 1_555
Na16 O36 2.449250 1_545
Na16 O57 2.572355 1_555
Na16 O21 2.595578 1_555
Na16 O58 2.619211 1_555
Na16 O0 2.730660 1_555
Na16 O29 2.950991 1_545
Na16 O31 2.988152 1_545
Na17 O37 2.411456 1_555
Na17 O36 2.457048 1_655
Na17 O58 2.528176 1_555
Na17 O59 2.636592 1_555
Na17 O22 2.637815 1_555
Na17 O1 2.760587 1_555
Na17 O27 2.897184 1_555
Na17 O32 2.917660 1_555
Na18 O36 2.477329 1_555
Na18 O37 2.510169 1_455
Na18 O38 2.513633 1_565
Na18 O43 2.559196 1_565
Na18 O44 2.581384 1_455
Na18 O42 2.703297 1_465
Na19 O41 2.453575 1_445
Na19 O40 2.481116 1_545
Na19 O39 2.484815 1_555
Na19 O47 2.598667 1_556
Na19 O46 2.643215 1_456
Na19 O45 2.693554 1_446
Na20 O49 2.433109 1_555
Na20 O48 2.456196 1_555
Na20 O50 2.490120 1_555
Na20 O54 2.656820 1_555
Na20 O55 2.658599 1_555
Na20 O56 2.689059 1_555
Na21 O52 2.454378 1_555
Na21 O59 2.509866 1_555
Na21 O57 2.537899 1_555
Na21 O58 2.588194 1_555
Na21 O53 2.663593 1_555
Na21 O51 2.709541 1_555
Na22 O60 2.406503 1_555
Na22 O61 2.417618 1_555
Na22 O62 2.485623 1_555
Na22 O68 2.600780 1_555
Na22 O66 2.720420 1_555
Na22 O67 2.733777 1_555
Na23 O71 2.389214 1_555
Na23 O70 2.483811 1_555
Na23 O69 2.484140 1_555
Na23 O64 2.631364 1_555
Na23 O63 2.635163 1_555
Na23 O65 2.776845 1_555
O0 S0 1.468328 1_545
O0 Zn0 2.272677 1_455
O1 S1 1.468465 1_555
O1 Zn0 2.217475 1_565
O2 Si0 1.605929 1_555
O2 Zn0 1.974032 1_555
O3 Si1 1.637951 1_555
O3 Sn0 2.015800 1_445
O4 Si2 1.640306 1_655
O4 Sn0 2.022614 1_555
O5 Si3 1.640427 1_555
O5 Sn0 2.011424 1_545
O6 Si3 1.672852 1_565
O6 Sn1 2.023255 1_655
O7 Si1 1.673572 1_555
O7 Sn1 2.016010 1_545
O8 Si2 1.666562 1_555
O8 Sn1 1.988853 1_555
O9 S1 1.509870 1_555
O9 Sn2 2.271393 1_665
O10 Si0 1.683670 1_455
O10 Sn2 2.005048 1_555
O11 S0 1.512605 1_555
O11 Sn2 2.225590 1_565
O12 S2 1.471850 1_555
O12 Zn1 2.383238 1_555
O13 Si4 1.601263 1_555
O13 Zn1 2.028887 1_555
O14 Si5 1.600670 1_555
O14 Zn1 2.059816 1_555
O15 Si6 1.612693 1_555
O15 Zn2 1.934376 1_555
O16 Si7 1.616703 1_555
O16 Zn2 1.937783 1_555
O17 Si8 1.620208 1_555
O17 Zn2 2.008219 1_555
O18 Si8 1.643929 1_555
O18 Sn3 2.051995 1_554
O19 Si6 1.641865 1_555
O19 Sn3 2.064188 1_554
O20 Si7 1.643111 1_555
O20 Sn3 2.068776 1_554
O21 Si4 1.672424 1_555
O21 Sn4 2.036446 1_555
O22 Si5 1.670455 1_555
O22 Sn4 2.028096 1_555
O23 S2 1.509391 1_555
O23 Sn4 2.209356 1_555
O24 Si9 1.644864 1_555
O24 Sn5 2.038164 1_556
O25 Si10 1.644437 1_555
O25 Sn5 2.013848 1_556
O26 Si11 1.645242 1_555
O26 Sn5 2.040921 1_556
O27 Si12 1.629453 1_555
O27 Sn6 1.983669 1_555
O28 Si13 1.638136 1_555
O28 Sn6 2.015545 1_555
O29 Si14 1.635477 1_555
O29 Sn6 2.020924 1_555
O30 Si14 1.664138 1_555
O30 Sn7 1.986154 1_555
O31 Si12 1.676938 1_555
O31 Sn7 2.016433 1_555
O32 Si13 1.665288 1_555
O32 Sn7 1.987443 1_555
O33 Si10 1.634755 1_555
O33 Sn8 2.066041 1_555
O34 Si11 1.633950 1_555
O34 Sn8 2.037505 1_555
O35 Si9 1.633596 1_555
O35 Sn8 2.035174 1_555
O36 Si14 1.614717 1_555
O36 Zn0 2.130455 1_465
O37 Si12 1.609043 1_555
O37 Zn0 2.010428 1_565
O38 Si13 1.608723 1_555
O38 Zn0 2.017006 1_455
O39 Si10 1.647152 1_555
O39 Sn0 2.104759 1_445
O40 Si11 1.648526 1_555
O40 Sn0 2.109137 1_455
O41 Si9 1.647921 1_555
O41 Sn0 2.119330 1_555
O42 S2 1.488227 1_555
O42 Sn1 2.417140 1_645
O43 Si4 1.675189 1_555
O43 Sn1 2.136375 1_545
O44 Si5 1.675481 1_555
O44 Sn1 2.101943 1_655
O45 Si6 1.672788 1_555
O45 Sn2 2.032380 1_665
O46 Si7 1.669544 1_555
O46 Sn2 2.029409 1_655
O47 Si8 1.674663 1_555
O47 Sn2 2.032262 1_555
O48 Si3 1.613613 1_555
O48 Zn1 2.130460 1_555
O49 Si1 1.612751 1_555
O49 Zn1 2.022420 1_555
O50 Si2 1.611518 1_655
O50 Zn1 2.101829 1_555
O51 S1 1.476174 1_555
O51 Zn2 2.511541 1_555
O52 Si0 1.632107 1_555
O52 Zn2 2.284876 1_555
O53 S0 1.475364 1_545
O53 Zn2 2.559656 1_555
O54 Si9 1.647216 1_555
O54 Sn3 2.094816 1_555
O55 Si10 1.648329 1_655
O55 Sn3 2.096022 1_555
O56 Si11 1.646164 1_545
O56 Sn3 2.079759 1_555
O57 Si12 1.651757 1_545
O57 Sn4 2.099549 1_555
O58 Si13 1.649296 1_555
O58 Sn4 2.041813 1_555
O59 Si14 1.654120 1_655
O59 Sn4 2.091194 1_555
O60 Si8 1.654813 1_555
O60 Sn5 2.131987 1_555
O61 Si6 1.649340 1_455
O61 Sn5 2.116996 1_555
O62 Si7 1.647239 1_565
O62 Sn5 2.070678 1_555
O63 Si4 1.675687 1_565
O63 Sn6 2.056546 1_555
O64 Si5 1.674927 1_555
O64 Sn6 2.066674 1_555
O65 S2 1.504368 1_455
O65 Sn6 2.298817 1_555
O66 S0 1.527410 1_555
O66 Sn7 2.339106 1_555
O67 S1 1.529620 1_555
O67 Sn7 2.348719 1_555
O68 Si0 1.722682 1_455
O68 Sn7 2.059456 1_555
O69 Si1 1.649980 1_555
O69 Sn8 2.081503 1_555
O70 Si2 1.649195 1_555
O70 Sn8 2.066229 1_555
O71 Si3 1.655766 1_565
O71 Sn8 2.113799 1_555
